AV-unprocessed.smi:1|AV-procd|sdf|2|dock6
  -GOLD-   2262015 83D 1   1.00000     0.00000
 Structure written by MMmdl.
 57 62  0  0  0  0  0  0  0  0  1 V2000
  154.0373  139.5182  159.2127 O   0  0  0  0  0  0  0  0  0  0  0  0
  153.9226  140.0089  160.3363 C   0  0  0  0  0  0  0  0  0  0  0  0
  154.3924  139.3277  161.5297 N   0  0  0  0  0  0  0  0  0  0  0  0
  155.0550  138.1502  161.6147 C   0  0  0  0  0  0  0  0  0  0  0  0
  155.6882  137.5906  160.5499 N   0  0  0  0  0  0  0  0  0  0  0  0
  156.3259  136.4242  160.6836 C   0  0  0  0  0  0  0  0  0  0  0  0
  156.4544  135.6649  161.7735 N   0  0  0  0  0  0  0  0  0  0  0  0
  155.8264  136.2222  162.8480 C   0  0  0  0  0  0  0  0  0  0  0  0
  155.1118  137.4524  162.8493 C   0  0  0  0  0  0  0  0  0  0  0  0
  154.6073  137.7014  164.1193 N   0  0  0  0  0  0  0  0  0  0  0  0
  155.0034  136.6751  164.8239 C   0  0  0  0  0  0  0  0  0  0  0  0
  155.7438  135.7390  164.1372 N   0  0  0  0  0  0  0  0  0  0  0  0
  156.3316  134.4750  164.6664 C   0  0  1  0  0  0  0  0  0  0  0  0
  157.7179  134.5714  164.6588 O   0  0  0  0  0  0  0  0  0  0  0  0
  158.2460  133.7175  165.6732 C   0  0  1  0  0  0  0  0  0  0  0  0
  159.3919  134.4410  166.3963 C   0  0  0  0  0  0  0  0  0  0  0  0
  159.8741  133.6385  167.4628 O   0  0  0  0  0  0  0  0  0  0  0  0
  161.1762  133.6644  167.8018 C   0  0  0  0  0  0  0  0  0  0  0  0
  162.0119  134.3861  167.2540 O   0  0  0  0  0  0  0  0  0  0  0  0
  161.4964  132.7347  168.9226 C   0  0  0  0  0  0  0  0  0  0  0  0
  162.7096  132.8936  169.6313 C   0  0  0  0  0  0  0  0  0  0  0  0
  163.0300  132.0398  170.7047 C   0  0  0  0  0  0  0  0  0  0  0  0
  162.1420  131.0149  171.0803 C   0  0  0  0  0  0  0  0  0  0  0  0
  160.9346  130.8423  170.3791 C   0  0  0  0  0  0  0  0  0  0  0  0
  160.6136  131.6944  169.3048 C   0  0  0  0  0  0  0  0  0  0  0  0
  157.0672  133.3233  166.5814 C   0  0  2  0  0  0  0  0  0  0  0  0
  156.6883  131.9797  166.3325 O   0  0  0  0  0  0  0  0  0  0  0  0
  155.0212  131.9013  166.2444 S   0  0  0  0  0  0  0  0  0  0  0  0
  154.6566  131.3251  164.9412 O   0  0  0  0  0  0  0  0  0  0  0  0
  154.5160  131.3658  167.5175 O   0  0  0  0  0  0  0  0  0  0  0  0
  154.6976  133.5397  166.2023 O   0  0  0  0  0  0  0  0  0  0  0  0
  155.9271  134.2365  166.1176 C   0  0  2  0  0  0  0  0  0  0  0  0
  153.2091  141.3105  160.5594 C   0  0  0  0  0  0  0  0  0  0  0  0
  153.7392  142.2613  161.4602 C   0  0  0  0  0  0  0  0  0  0  0  0
  153.0695  143.4796  161.6869 C   0  0  0  0  0  0  0  0  0  0  0  0
  151.8602  143.7541  161.0209 C   0  0  0  0  0  0  0  0  0  0  0  0
  151.3187  142.8073  160.1310 C   0  0  0  0  0  0  0  0  0  0  0  0
  151.9877  141.5887  159.9031 C   0  0  0  0  0  0  0  0  0  0  0  0
  154.2052  139.7938  162.4056 H   0  0  0  0  0  0  0  0  0  0  0  0
  156.8020  136.0469  159.7903 H   0  0  0  0  0  0  0  0  0  0  0  0
  154.7676  136.5742  165.8734 H   0  0  0  0  0  0  0  0  0  0  0  0
  156.0073  133.6878  163.9839 H   0  0  0  0  0  0  0  0  0  0  0  0
  158.6483  132.8291  165.1847 H   0  0  0  0  0  0  0  0  0  0  0  0
  160.2096  134.6333  165.7008 H   0  0  0  0  0  0  0  0  0  0  0  0
  159.0443  135.4057  166.7684 H   0  0  0  0  0  0  0  0  0  0  0  0
  163.4045  133.6766  169.3640 H   0  0  0  0  0  0  0  0  0  0  0  0
  163.9576  132.1728  171.2415 H   0  0  0  0  0  0  0  0  0  0  0  0
  162.3873  130.3616  171.9046 H   0  0  0  0  0  0  0  0  0  0  0  0
  160.2521  130.0557  170.6650 H   0  0  0  0  0  0  0  0  0  0  0  0
  159.6782  131.5355  168.7890 H   0  0  0  0  0  0  0  0  0  0  0  0
  157.2795  133.4376  167.6452 H   0  0  0  0  0  0  0  0  0  0  0  0
  155.9156  135.1741  166.6734 H   0  0  0  0  0  0  0  0  0  0  0  0
  154.6663  142.0655  161.9794 H   0  0  0  0  0  0  0  0  0  0  0  0
  153.4838  144.2033  162.3733 H   0  0  0  0  0  0  0  0  0  0  0  0
  151.3469  144.6881  161.1953 H   0  0  0  0  0  0  0  0  0  0  0  0
  150.3876  143.0148  159.6247 H   0  0  0  0  0  0  0  0  0  0  0  0
  151.5498  140.8722  159.2233 H   0  0  0  0  0  0  0  0  0  0  0  0
  1  2  2  0  0  0  0
  2  3  1  0  0  0  0
  2 33  1  0  0  0  0
  3  4  1  0  0  0  0
  3 39  1  0  0  0  0
  4  9  1  0  0  0  0
  4  5  2  0  0  0  0
  5  6  1  0  0  0  0
  6  7  2  0  0  0  0
  6 40  1  0  0  0  0
  7  8  1  0  0  0  0
  8 12  1  0  0  0  0
  8  9  2  0  0  0  0
  9 10  1  0  0  0  0
 10 11  2  0  0  0  0
 11 12  1  0  0  0  0
 11 41  1  0  0  0  0
 12 13  1  0  0  0  0
 13 32  1  0  0  0  0
 13 14  1  0  0  0  0
 13 42  1  0  0  0  0
 14 15  1  0  0  0  0
 15 16  1  0  0  0  0
 15 26  1  0  0  0  0
 15 43  1  0  0  0  0
 16 17  1  0  0  0  0
 16 44  1  0  0  0  0
 16 45  1  0  0  0  0
 17 18  1  0  0  0  0
 18 19  2  0  0  0  0
 18 20  1  0  0  0  0
 20 25  1  0  0  0  0
 20 21  2  0  0  0  0
 21 22  1  0  0  0  0
 21 46  1  0  0  0  0
 22 23  2  0  0  0  0
 22 47  1  0  0  0  0
 23 24  1  0  0  0  0
 23 48  1  0  0  0  0
 24 25  2  0  0  0  0
 24 49  1  0  0  0  0
 25 50  1  0  0  0  0
 26 32  1  0  0  0  0
 26 27  1  0  0  0  0
 26 51  1  0  0  0  0
 27 28  1  0  0  0  0
 28 29  2  0  0  0  0
 28 30  2  0  0  0  0
 28 31  1  0  0  0  0
 31 32  1  0  0  0  0
 32 52  1  0  0  0  0
 33 38  1  0  0  0  0
 33 34  2  0  0  0  0
 34 35  1  0  0  0  0
 34 53  1  0  0  0  0
 35 36  2  0  0  0  0
 35 54  1  0  0  0  0
 36 37  1  0  0  0  0
 36 55  1  0  0  0  0
 37 38  2  0  0  0  0
 37 56  1  0  0  0  0
 38 57  1  0  0  0  0
M  END
> <s_m_source_file>
AV-unprocessed.smi

> <i_m_source_file_index>
1

> <i_lp_mmshare_version>
43012

> <i_f3d_flags>
0

> <s_epik_input>
W2NIXTFbY0hdW2NIXVtjSF1bY0hdYzFDKD1PKVtOSF1jKG5bY0hdbjIpYyhjMjMpbltjSF1uM1tDQEBIXShbQ0BIXShbQ0BIXTQ1KU9TKE81KSg9Tyk9TylPW0NASF00W0NIMl1PQyg9TyljNltjSF1bY0hdW2NIXVtjSF1bY0hdNg==

> <s_epik_cmdline>
J2VwaWtfcHl0aG9uJywgJy1waCcsICc3LjAnLCAnLXRuJywgJzgnLCAnLW1hJywgJzIwMCcsICctbWV0YWxfYmluZGluZycsICctaW1hZScsICc8aW5maWxlLm1hZT4nLCAnLW9tYWUnLCAnPG91dGZpbGUubWFlPic=

> <r_lp_tautomer_probability>
1

> <r_epik_Ionization_Penalty>
0.00195722

> <r_epik_Ionization_Penalty_Charging>
0

> <r_epik_Ionization_Penalty_Neutral>
0.00195722

> <r_epik_State_Penalty>
0.00633741

> <r_epik_Charging_Adjusted_Penalty>
0.00633741

> <i_epik_Tot_Q>
0

> <i_epik_Tot_abs_Q>
0

> <r_epik_Metal_State_Penalty>
0.341185

> <b_epik_Metal_Only>
0

> <s_epik_Chemistry_Notes>
This compound has an ester and may undergo hydrolysis at high or low pH. This compound contains an acetal/aminal-like group ( X-CH(R)-Y where X, Y are N, S, or O) that may be acid/base labile, releasing an aldehyde.

> <s_lp_Force_Field>
OPLS_2005

> <r_lp_Energy>
43.8604

> <b_lp_Chiralities_Consistent>
1

> <s_lp_Variant>
AV-unprocessed.smi:1-2

> <Gold.Version>
5.8.1

> <Gold.Id.Protein>
6NUR|6NUR_protein|mol2

> <Gold.PLP.Fitness>
58.1067

> <Gold.PLP.PLP>
-57.5111

> <Gold.PLP.part.hbond>
-1.0000

> <Gold.PLP.part.metal>
0.0000

> <Gold.PLP.part.buried>
-6.4635

> <Gold.PLP.part.nonpolar>
-49.2859

> <Gold.PLP.part.repulsive>
0.2254

> <Gold.PLP.ligand.clash>
0.0000

> <Gold.PLP.ligand.torsion>
1.2186

> <Gold.PLP.Chemscore.Hbond>
0.9913

> <Gold.PLP.Chemscore.CHOScore>
0.0000

> <Gold.PLP.Chemscore.Metal>
0.0000

> <Gold.Chemscore.Hbonds>
donor molecule, donor type, donor heavy atom, donor atom, acceptor molecule, acceptor atom, score
      P1  H  7997  8008       L1     1  0.54

> <Gold.PLP.Chemscore.Internal.Correction>
0.0590

> <Gold.Rescore>
     Score         DG    S(hbond)    S(metal)    S(lipo)     H(rot)  DE(clash)    DE(int)     intcor
     14.41     -17.79       0.98        0.00     123.89       2.13       0.60       2.77       ----

> <Gold.Chemscore.Fitness>
14.4122

> <Gold.Chemscore.DG>
-17.7898

> <Gold.Chemscore.ZeroCoef>
-5.4800

> <Gold.Chemscore.Hbond>
0.9809

> <Gold.Chemscore.Metal>
0.0000

> <Gold.Chemscore.Lipo>
123.8891

> <Gold.Chemscore.Internal_Hbond>
0.0000

> <Gold.Chemscore.DEClash>
0.6040

> <Gold.Chemscore.DEInternal>
2.7736

> <Gold.Chemscore.Rot>
2.1333

> <Gold.Chemscore.Internal.Correction>
   9.000000E+99

> <Gold.Chemscore.Hbonds>
donor molecule, donor type, donor heavy atom, donor atom, acceptor molecule, acceptor atom, score
      P1  H  7997  8008       L1     1  0.51

> <Gold.Chemscore.Hbond.Weighted>
-3.2762

> <Gold.Chemscore.Metal.Weighted>
-0.0000

> <Gold.Chemscore.Lipo.Weighted>
-14.4950

> <Gold.Chemscore.Internal_Hbond.Weighted>
0.0000

> <Gold.Chemscore.DEClash.Weighted>
0.6040

> <Gold.Chemscore.DEInternal.Weighted>
2.7736

> <Gold.Chemscore.Rot.Weighted>
5.4614

> <Gold.Chemscore.Internal.Correction.Weighted>
   9.000000E+99

> <Gold.Protein.RotatedTorsions>
[ 6907 6896 6895 6894 ] final   83.28 input  -60.11 | X-H torsion
[ 7974 7965 7964 7962 ] final  179.86 input  175.53 | X-H torsion
[ 8008 7997 7996 7995 ] final -121.51 input   59.86 | X-H torsion
[ 10167 10162 10161 10158 ] final  -39.99 input  -65.29 | X-H torsion
[ 10718 10713 10712 10709 ] final   59.70 input   66.30 | X-H torsion
[ 10763 10752 10751 10750 ] final  122.76 input  -60.55 | X-H torsion
[ 11005 11000 10999 10996 ] final   70.39 input  -57.11 | X-H torsion

> <Gold.Protein.ActiveResidues>
 VAL166  LYS551  ARG553  GLY616  TRP617  ASP618  TYR619  PRO620  LYS621  CYS622 
 ASP623  PHE694  ASN695  SER759  ASP760  ASP761  ALA762  ILE779  LEU786  VAL792 
 PHE793  MET794  SER795  GLU796  ALA797  LYS798  CYS799  TRP800  GLU811  SER814 

> <Gold.Protein.RotatedAtoms>
  152.5323  134.2919  159.9046 H   0  0  0  0  0  0  0  0  0  0  0  0  # atno 6907 bound_to 6896
  151.2871  133.4176  159.2638 H   0  0  0  0  0  0  0  0  0  0  0  0  # atno 6908 bound_to 6896
  151.0233  134.9501  159.8128 H   0  0  0  0  0  0  0  0  0  0  0  0  # atno 6909 bound_to 6896
  144.7142  140.0611  143.6432 H   0  0  0  0  0  0  0  0  0  0  0  0  # atno 7974 bound_to 7965
  155.1491  140.0403  157.2817 H   0  0  0  0  0  0  0  0  0  0  0  0  # atno 8008 bound_to 7997
  154.6417  140.2548  155.7288 H   0  0  0  0  0  0  0  0  0  0  0  0  # atno 8009 bound_to 7997
  156.2535  140.2854  156.0813 H   0  0  0  0  0  0  0  0  0  0  0  0  # atno 8010 bound_to 7997
  140.7048  143.3180  151.2861 H   0  0  0  0  0  0  0  0  0  0  0  0  # atno 10167 bound_to 10162
  157.5696  130.8897  149.9245 H   0  0  0  0  0  0  0  0  0  0  0  0  # atno 10718 bound_to 10713
  153.6348  135.3390  155.3053 H   0  0  0  0  0  0  0  0  0  0  0  0  # atno 10763 bound_to 10752
  154.8572  135.4304  154.2067 H   0  0  0  0  0  0  0  0  0  0  0  0  # atno 10764 bound_to 10752
  153.2972  135.7021  153.7311 H   0  0  0  0  0  0  0  0  0  0  0  0  # atno 10765 bound_to 10752
  139.9600  134.7077  156.0667 H   0  0  0  0  0  0  0  0  0  0  0  0  # atno 11005 bound_to 11000
  145.9863  139.2980  143.1011 LP  0  0  0  0  0  0  0  0  0  0  0  0  # atno 17320 bound_to 7965
  145.8954  140.9277  143.0531 LP  0  0  0  0  0  0  0  0  0  0  0  0  # atno 17321 bound_to 7965
  139.6625  144.0163  152.2702 LP  0  0  0  0  0  0  0  0  0  0  0  0  # atno 17342 bound_to 10162
  139.9735  144.6477  150.7966 LP  0  0  0  0  0  0  0  0  0  0  0  0  # atno 17343 bound_to 10162
  156.0742  130.3681  150.0712 LP  0  0  0  0  0  0  0  0  0  0  0  0  # atno 17370 bound_to 10713
  156.8866  130.9574  151.3593 LP  0  0  0  0  0  0  0  0  0  0  0  0  # atno 17371 bound_to 10713
  141.1276  133.6595  156.3378 LP  0  0  0  0  0  0  0  0  0  0  0  0  # atno 17394 bound_to 11000
  140.5522  134.6017  157.5411 LP  0  0  0  0  0  0  0  0  0  0  0  0  # atno 17395 bound_to 11000

$$$$
