AV-unprocessed.smi:2217|AV-procd|sdf|8975|dock6
  -GOLD-   2272012193D 1   1.00000     0.00000
 Structure written by MMmdl.
 45 48  0  0  0  0  0  0  0  0  1 V2000
  145.7384  128.9580  152.1713 C   0  0  0  0  0  0  0  0  0  0  0  0
  146.5156  130.2230  152.4692 C   0  0  0  0  0  0  0  0  0  0  0  0
  146.0273  131.4861  152.0855 C   0  0  0  0  0  0  0  0  0  0  0  0
  146.7945  132.6288  152.3824 C   0  0  0  0  0  0  0  0  0  0  0  0
  148.0295  132.4874  153.0548 C   0  0  0  0  0  0  0  0  0  0  0  0
  148.7189  133.7144  153.2869 N   0  0  0  0  0  0  0  0  0  0  0  0
  149.7131  134.0326  154.1433 C   0  0  0  0  0  0  0  0  0  0  0  0
  150.1862  133.1932  154.9075 O   0  0  0  0  0  0  0  0  0  0  0  0
  150.1427  135.3029  154.1063 N   0  0  0  0  0  0  0  0  0  0  0  0
  151.1477  135.8748  154.9924 C   0  0  1  0  0  0  0  0  0  0  0  0
  151.5047  137.3123  154.6160 C   0  0  2  0  0  0  0  0  0  0  0  0
  152.7215  137.9720  154.0728 C   0  0  0  0  0  0  0  0  0  0  0  0
  152.7784  139.1679  155.0592 C   0  0  0  0  0  0  0  0  0  0  0  0
  151.8067  138.8765  156.0925 O   0  0  0  0  0  0  0  0  0  0  0  0
  151.7380  137.4648  156.1055 C   0  0  1  0  0  0  0  0  0  0  0  0
  150.5466  136.5052  156.3063 C   0  0  0  0  0  0  0  0  0  0  0  0
  150.5687  135.6241  157.5633 C   0  0  0  0  0  0  0  0  0  0  0  0
  149.2265  135.7711  158.2835 C   0  0  0  0  0  0  0  0  0  0  0  0
  148.2594  136.2319  157.2027 C   0  0  0  0  0  0  0  0  0  0  0  0
  149.1227  137.1015  156.2944 C   0  0  0  0  0  0  0  0  0  0  0  0
  148.4900  131.2631  153.4183 N   0  0  0  0  0  0  0  0  0  0  0  0
  147.7548  130.1675  153.1348 C   0  0  0  0  0  0  0  0  0  0  0  0
  144.7081  129.1838  151.8946 H   0  0  0  0  0  0  0  0  0  0  0  0
  145.7201  128.3060  153.0452 H   0  0  0  0  0  0  0  0  0  0  0  0
  146.2043  128.4161  151.3481 H   0  0  0  0  0  0  0  0  0  0  0  0
  145.0825  131.5823  151.5706 H   0  0  0  0  0  0  0  0  0  0  0  0
  146.4338  133.6052  152.0928 H   0  0  0  0  0  0  0  0  0  0  0  0
  148.4482  134.4649  152.6681 H   0  0  0  0  0  0  0  0  0  0  0  0
  149.7051  135.9292  153.4451 H   0  0  0  0  0  0  0  0  0  0  0  0
  152.0219  135.2368  155.1537 H   0  0  0  0  0  0  0  0  0  0  0  0
  150.6148  137.8501  154.2742 H   0  0  0  0  0  0  0  0  0  0  0  0
  153.6020  137.3330  154.1532 H   0  0  0  0  0  0  0  0  0  0  0  0
  152.6031  138.2889  153.0363 H   0  0  0  0  0  0  0  0  0  0  0  0
  153.7748  139.2673  155.4916 H   0  0  0  0  0  0  0  0  0  0  0  0
  152.5239  140.1102  154.5735 H   0  0  0  0  0  0  0  0  0  0  0  0
  152.6833  137.0341  156.4559 H   0  0  0  0  0  0  0  0  0  0  0  0
  150.7143  134.5799  157.2862 H   0  0  0  0  0  0  0  0  0  0  0  0
  151.3912  135.8829  158.2311 H   0  0  0  0  0  0  0  0  0  0  0  0
  148.9062  134.8497  158.7704 H   0  0  0  0  0  0  0  0  0  0  0  0
  149.3067  136.5423  159.0508 H   0  0  0  0  0  0  0  0  0  0  0  0
  147.8932  135.3689  156.6448 H   0  0  0  0  0  0  0  0  0  0  0  0
  147.3964  136.7639  157.6038 H   0  0  0  0  0  0  0  0  0  0  0  0
  149.1456  138.1170  156.6913 H   0  0  0  0  0  0  0  0  0  0  0  0
  148.6830  137.1685  155.2993 H   0  0  0  0  0  0  0  0  0  0  0  0
  148.1704  129.2208  153.4471 H   0  0  0  0  0  0  0  0  0  0  0  0
  1  2  1  0  0  0  0
  1 23  1  0  0  0  0
  1 24  1  0  0  0  0
  1 25  1  0  0  0  0
  2 22  1  0  0  0  0
  2  3  2  0  0  0  0
  3  4  1  0  0  0  0
  3 26  1  0  0  0  0
  4  5  2  0  0  0  0
  4 27  1  0  0  0  0
  5  6  1  0  0  0  0
  5 21  1  0  0  0  0
  6  7  1  0  0  0  0
  6 28  1  0  0  0  0
  7  8  2  0  0  0  0
  7  9  1  0  0  0  0
  9 10  1  0  0  0  0
  9 29  1  0  0  0  0
 10 16  1  0  0  0  0
 10 11  1  0  0  0  0
 10 30  1  0  0  0  0
 11 15  1  0  0  0  0
 11 12  1  0  0  0  0
 11 31  1  0  0  0  0
 12 13  1  0  0  0  0
 12 32  1  0  0  0  0
 12 33  1  0  0  0  0
 13 14  1  0  0  0  0
 13 34  1  0  0  0  0
 13 35  1  0  0  0  0
 14 15  1  0  0  0  0
 15 16  1  0  0  0  0
 15 36  1  0  0  0  0
 16 20  1  0  0  0  0
 16 17  1  0  0  0  0
 17 18  1  0  0  0  0
 17 37  1  0  0  0  0
 17 38  1  0  0  0  0
 18 19  1  0  0  0  0
 18 39  1  0  0  0  0
 18 40  1  0  0  0  0
 19 20  1  0  0  0  0
 19 41  1  0  0  0  0
 19 42  1  0  0  0  0
 20 43  1  0  0  0  0
 20 44  1  0  0  0  0
 21 22  2  0  0  0  0
 22 45  1  0  0  0  0
M  END
> <s_m_source_file>
AV-unprocessed.smi

> <i_m_source_file_index>
2217

> <i_lp_mmshare_version>
43012

> <i_f3d_flags>
0

> <s_epik_input>
W0NIM11jMVtjSF1bY0hdYyhuW2NIXTEpW05IXUMoPU8pW05IXVtDQEBIXTJbQ0BASF0oW0NIMl1bQ0gyXU8zKVtDQEhdM0MyNFtDSDJdW0NIMl1bQ0gyXVtDSDJdNA==

> <s_epik_cmdline>
J2VwaWtfcHl0aG9uJywgJy1waCcsICc3LjAnLCAnLXRuJywgJzgnLCAnLW1hJywgJzIwMCcsICctbWV0YWxfYmluZGluZycsICctaW1hZScsICc8aW5maWxlLm1hZT4nLCAnLW9tYWUnLCAnPG91dGZpbGUubWFlPic=

> <r_lp_tautomer_probability>
1

> <r_epik_Ionization_Penalty>
6.14796e-05

> <r_epik_Ionization_Penalty_Charging>
0

> <r_epik_Ionization_Penalty_Neutral>
6.14796e-05

> <r_epik_State_Penalty>
-0

> <r_epik_Charging_Adjusted_Penalty>
0

> <i_epik_Tot_Q>
0

> <i_epik_Tot_abs_Q>
0

> <r_epik_Metal_State_Penalty>
-0

> <b_epik_Metal_Only>
0

> <s_lp_Force_Field>
OPLS_2005

> <r_lp_Energy>
79.3106

> <b_lp_Chiralities_Consistent>
1

> <s_lp_Variant>
AV-unprocessed.smi:2217-8

> <Gold.Version>
5.8.1

> <Gold.Id.Protein>
6NUR|6NUR_protein|mol2

> <Gold.PLP.Fitness>
37.1929

> <Gold.PLP.PLP>
-31.6087

> <Gold.PLP.part.hbond>
-2.3254

> <Gold.PLP.part.metal>
0.0000

> <Gold.PLP.part.buried>
-4.0309

> <Gold.PLP.part.nonpolar>
-25.7912

> <Gold.PLP.part.repulsive>
0.1620

> <Gold.PLP.ligand.clash>
0.0000

> <Gold.PLP.ligand.torsion>
0.2769

> <Gold.PLP.Chemscore.Hbond>
1.9520

> <Gold.PLP.Chemscore.CHOScore>
0.0000

> <Gold.PLP.Chemscore.Metal>
0.0000

> <Gold.Chemscore.Hbonds>
donor molecule, donor type, donor heavy atom, donor atom, acceptor molecule, acceptor atom, score
      L1  H     6    28       P1  7948  0.79
      L1  H     9    29       P1  7948  0.79

> <Gold.PLP.Chemscore.Internal.Correction>
0.2821

> <Gold.Rescore>
     Score         DG    S(hbond)    S(metal)    S(lipo)     H(rot)  DE(clash)    DE(int)     intcor
     14.46     -15.88       1.41        0.00      70.58       1.00       0.00       1.42       ----

> <Gold.Chemscore.Fitness>
14.4611

> <Gold.Chemscore.DG>
-15.8847

> <Gold.Chemscore.ZeroCoef>
-5.4800

> <Gold.Chemscore.Hbond>
1.4094

> <Gold.Chemscore.Metal>
0.0000

> <Gold.Chemscore.Lipo>
70.5762

> <Gold.Chemscore.Internal_Hbond>
0.0000

> <Gold.Chemscore.DEClash>
0.0009

> <Gold.Chemscore.DEInternal>
1.4228

> <Gold.Chemscore.Rot>
1.0000

> <Gold.Chemscore.Internal.Correction>
   9.000000E+99

> <Gold.Chemscore.Hbonds>
donor molecule, donor type, donor heavy atom, donor atom, acceptor molecule, acceptor atom, score
      L1  H     6    28       P1  7948  0.13
      L1  H     9    29       P1  7948  0.11

> <Gold.Chemscore.Hbond.Weighted>
-4.7073

> <Gold.Chemscore.Metal.Weighted>
-0.0000

> <Gold.Chemscore.Lipo.Weighted>
-8.2574

> <Gold.Chemscore.Internal_Hbond.Weighted>
0.0000

> <Gold.Chemscore.DEClash.Weighted>
0.0009

> <Gold.Chemscore.DEInternal.Weighted>
1.4228

> <Gold.Chemscore.Rot.Weighted>
2.5600

> <Gold.Chemscore.Internal.Correction.Weighted>
   9.000000E+99

> <Gold.Protein.RotatedTorsions>
[ 6907 6896 6895 6894 ] final -142.11 input  -60.11 | X-H torsion
[ 7974 7965 7964 7962 ] final   99.32 input  175.53 | X-H torsion
[ 8008 7997 7996 7995 ] final   66.81 input   59.86 | X-H torsion
[ 10167 10162 10161 10158 ] final -108.82 input  -65.29 | X-H torsion
[ 10718 10713 10712 10709 ] final -151.00 input   66.30 | X-H torsion
[ 10763 10752 10751 10750 ] final  -30.37 input  -60.55 | X-H torsion
[ 11005 11000 10999 10996 ] final -103.98 input  -57.11 | X-H torsion

> <Gold.Protein.ActiveResidues>
 VAL166  LYS551  ARG553  GLY616  TRP617  ASP618  TYR619  PRO620  LYS621  CYS622 
 ASP623  PHE694  ASN695  SER759  ASP760  ASP761  ALA762  ILE779  LEU786  VAL792 
 PHE793  MET794  SER795  GLU796  ALA797  LYS798  CYS799  TRP800  GLU811  SER814 

> <Gold.Protein.RotatedAtoms>
  151.0827  133.5378  159.2619 H   0  0  0  0  0  0  0  0  0  0  0  0  # atno 6907 bound_to 6896
  151.2275  135.0541  159.8984 H   0  0  0  0  0  0  0  0  0  0  0  0  # atno 6908 bound_to 6896
  152.5425  134.0620  159.8210 H   0  0  0  0  0  0  0  0  0  0  0  0  # atno 6909 bound_to 6896
  145.4005  139.2348  143.3303 H   0  0  0  0  0  0  0  0  0  0  0  0  # atno 7974 bound_to 7965
  155.6831  140.3496  155.4863 H   0  0  0  0  0  0  0  0  0  0  0  0  # atno 8008 bound_to 7997
  155.9589  140.1133  157.0935 H   0  0  0  0  0  0  0  0  0  0  0  0  # atno 8009 bound_to 7997
  154.4138  140.1179  156.5139 H   0  0  0  0  0  0  0  0  0  0  0  0  # atno 8010 bound_to 7997
  140.1620  143.4112  152.1418 H   0  0  0  0  0  0  0  0  0  0  0  0  # atno 10167 bound_to 10162
  156.4535  130.8179  151.2410 H   0  0  0  0  0  0  0  0  0  0  0  0  # atno 10718 bound_to 10713
  153.7798  135.6906  153.4890 H   0  0  0  0  0  0  0  0  0  0  0  0  # atno 10763 bound_to 10752
  153.1819  135.4503  155.0037 H   0  0  0  0  0  0  0  0  0  0  0  0  # atno 10764 bound_to 10752
  154.8086  135.3367  154.7302 H   0  0  0  0  0  0  0  0  0  0  0  0  # atno 10765 bound_to 10752
  141.1121  133.8685  157.1553 H   0  0  0  0  0  0  0  0  0  0  0  0  # atno 11005 bound_to 11000
  146.2754  140.4702  142.8797 LP  0  0  0  0  0  0  0  0  0  0  0  0  # atno 17320 bound_to 7965
  144.8377  140.6808  143.6249 LP  0  0  0  0  0  0  0  0  0  0  0  0  # atno 17321 bound_to 7965
  139.5377  144.7225  151.4839 LP  0  0  0  0  0  0  0  0  0  0  0  0  # atno 17342 bound_to 10162
  140.6637  143.8444  150.6917 LP  0  0  0  0  0  0  0  0  0  0  0  0  # atno 17343 bound_to 10162
  157.7501  131.0130  150.3407 LP  0  0  0  0  0  0  0  0  0  0  0  0  # atno 17370 bound_to 10713
  156.3791  130.3877  149.7115 LP  0  0  0  0  0  0  0  0  0  0  0  0  # atno 17371 bound_to 10713
  140.0021  135.0023  157.0214 LP  0  0  0  0  0  0  0  0  0  0  0  0  # atno 17394 bound_to 11000
  140.4746  134.1352  155.7208 LP  0  0  0  0  0  0  0  0  0  0  0  0  # atno 17395 bound_to 11000

$$$$
