AV-unprocessed.smi:52|AV-procd|sdf|510|dock8
  -GOLD-   2262016383D 1   1.00000     0.00000
 Structure written by MMmdl.
 27 28  0  0  0  0  0  0  0  0  3 V2000
  149.2713  136.4684  155.7790 O   0  0  0  0  0  0  0  0  0  0  0  0
  150.3477  136.7215  155.1944 C   0  0  0  0  0  0  0  0  0  0  0  0
  151.0137  135.8326  154.6196 O   0  5  0  0  0  0  0  0  0  0  0  0
  150.8522  138.1186  155.1875 C   0  0  0  0  0  0  0  0  0  0  0  0
  151.9051  138.6091  154.4572 C   0  0  0  0  0  0  0  0  0  0  0  0
  152.0493  139.9453  154.7166 O   0  0  0  0  0  0  0  0  0  0  0  0
  151.0627  140.2195  155.6126 C   0  0  0  0  0  0  0  0  0  0  0  0
  150.8992  141.6190  156.1056 C   0  0  0  0  0  0  0  0  0  0  0  0
  149.5001  141.9633  155.7585 N   0  3  1  0  0  0  0  0  0  0  0  0
  149.1071  141.7137  154.3472 C   0  0  0  0  0  0  0  0  0  0  0  0
  147.7426  141.0136  154.3824 C   0  0  0  0  0  0  0  0  0  0  0  0
  147.2154  141.2986  155.7854 C   0  0  1  0  0  0  0  0  0  0  0  0
  146.3046  140.3127  156.2226 O   0  0  0  0  0  0  0  0  0  0  0  0
  148.4917  141.3176  156.6224 C   0  0  0  0  0  0  0  0  0  0  0  0
  150.3185  139.1636  155.9308 N   0  0  0  0  0  0  0  0  0  0  0  0
  146.7375  142.2791  155.8121 H   0  0  0  0  0  0  0  0  0  0  0  0
  152.5979  138.1686  153.7552 H   0  0  0  0  0  0  0  0  0  0  0  0
  151.0840  141.6836  157.1787 H   0  0  0  0  0  0  0  0  0  0  0  0
  151.6037  142.2690  155.5855 H   0  0  0  0  0  0  0  0  0  0  0  0
  149.0407  142.6723  153.8317 H   0  0  0  0  0  0  0  0  0  0  0  0
  149.8362  141.1027  153.8126 H   0  0  0  0  0  0  0  0  0  0  0  0
  147.0685  141.3585  153.5978 H   0  0  0  0  0  0  0  0  0  0  0  0
  147.8880  139.9404  154.2477 H   0  0  0  0  0  0  0  0  0  0  0  0
  145.4587  140.4893  155.8392 H   0  0  0  0  0  0  0  0  0  0  0  0
  148.8082  140.2964  156.8447 H   0  0  0  0  0  0  0  0  0  0  0  0
  148.3693  141.8469  157.5680 H   0  0  0  0  0  0  0  0  0  0  0  0
  149.3982  142.9574  155.9065 H   0  0  0  0  0  0  0  0  0  0  0  0
  1  2  2  0  0  0  0
  2  3  1  0  0  0  0
  2  4  1  0  0  0  0
  4 15  1  0  0  0  0
  4  5  2  0  0  0  0
  5  6  1  0  0  0  0
  5 17  1  0  0  0  0
  6  7  1  0  0  0  0
  7  8  1  0  0  0  0
  7 15  2  0  0  0  0
  8  9  1  0  0  0  0
  8 18  1  0  0  0  0
  8 19  1  0  0  0  0
  9 14  1  0  0  0  0
  9 10  1  0  0  0  0
  9 27  1  0  0  0  0
 10 11  1  0  0  0  0
 10 20  1  0  0  0  0
 10 21  1  0  0  0  0
 11 12  1  0  0  0  0
 11 22  1  0  0  0  0
 11 23  1  0  0  0  0
 12 16  1  0  0  0  0
 12 13  1  0  0  0  0
 12 14  1  0  0  0  0
 13 24  1  0  0  0  0
 14 25  1  0  0  0  0
 14 26  1  0  0  0  0
M  CHG  1   3  -1
M  CHG  1   9   1
M  END
> <s_m_source_file>
AV-unprocessed.smi

> <i_m_source_file_index>
52

> <i_lp_mmshare_version>
43012

> <i_f3d_flags>
0

> <s_epik_input>
Tz1DKFtPSF0pYzFbY0hdb2MobjEpW0NIMl1OMltDSDJdW0NIMl1bQ0BIXShbT0hdKVtDSDJdMg==

> <s_epik_cmdline>
J2VwaWtfcHl0aG9uJywgJy1waCcsICc3LjAnLCAnLXRuJywgJzgnLCAnLW1hJywgJzIwMCcsICctbWV0YWxfYmluZGluZycsICctaW1hZScsICc8aW5maWxlLm1hZT4nLCAnLW9tYWUnLCAnPG91dGZpbGUubWFlPic=

> <r_epik_Ionization_Penalty>
0.0376014

> <r_epik_Ionization_Penalty_Charging>
0.0376013

> <r_epik_Ionization_Penalty_Neutral>
1.78687e-08

> <r_epik_State_Penalty>
0.0314164

> <r_epik_Charging_Adjusted_Penalty>
0.0690177

> <i_epik_Tot_Q>
0

> <i_epik_Tot_abs_Q>
2

> <r_epik_Metal_State_Penalty>
0.0314164

> <b_epik_Metal_Only>
0

> <s_lp_Force_Field>
OPLS_2005

> <r_lp_Energy>
19.8896

> <b_lp_Chiralities_Consistent>
1

> <s_lp_Variant>
AV-unprocessed.smi:52-4

> <Gold.Version>
5.8.1

> <Gold.Id.Protein>
6NUR|6NUR_protein|mol2

> <Gold.PLP.Fitness>
36.8373

> <Gold.PLP.PLP>
-22.5733

> <Gold.PLP.part.hbond>
-3.0000

> <Gold.PLP.part.metal>
0.0000

> <Gold.PLP.part.buried>
-2.5152

> <Gold.PLP.part.nonpolar>
-17.1971

> <Gold.PLP.part.repulsive>
0.3886

> <Gold.PLP.ligand.clash>
0.0000

> <Gold.PLP.ligand.torsion>
0.1210

> <Gold.PLP.Chemscore.Hbond>
4.8320

> <Gold.PLP.Chemscore.CHOScore>
0.0000

> <Gold.PLP.Chemscore.Metal>
0.0000

> <Gold.Chemscore.Hbonds>
donor molecule, donor type, donor heavy atom, donor atom, acceptor molecule, acceptor atom, score
      L1  H     9    27       P1  8028  2.00
      P1  H  7989  7998       L1     6  0.83
      P1  H 10752 10764       L1     3  2.00

> <Gold.PLP.Chemscore.Internal.Correction>
0.0099

> <Gold.Rescore>
     Score         DG    S(hbond)    S(metal)    S(lipo)     H(rot)  DE(clash)    DE(int)     intcor
     14.49     -14.82       2.92        0.00      40.04       1.99       0.01       0.32       ----

> <Gold.Chemscore.Fitness>
14.4858

> <Gold.Chemscore.DG>
-14.8153

> <Gold.Chemscore.ZeroCoef>
-5.4800

> <Gold.Chemscore.Hbond>
2.9190

> <Gold.Chemscore.Metal>
0.0000

> <Gold.Chemscore.Lipo>
40.0439

> <Gold.Chemscore.Internal_Hbond>
0.0000

> <Gold.Chemscore.DEClash>
0.0073

> <Gold.Chemscore.DEInternal>
0.3222

> <Gold.Chemscore.Rot>
1.9919

> <Gold.Chemscore.Internal.Correction>
   9.000000E+99

> <Gold.Chemscore.Hbonds>
donor molecule, donor type, donor heavy atom, donor atom, acceptor molecule, acceptor atom, score
      L1  H     9    27       P1  8028  1.00
      P1  H  7989  7998       L1     6  0.28
      P1  H 10752 10764       L1     3  0.99

> <Gold.Chemscore.Hbond.Weighted>
-9.7493

> <Gold.Chemscore.Metal.Weighted>
-0.0000

> <Gold.Chemscore.Lipo.Weighted>
-4.6851

> <Gold.Chemscore.Internal_Hbond.Weighted>
0.0000

> <Gold.Chemscore.DEClash.Weighted>
0.0073

> <Gold.Chemscore.DEInternal.Weighted>
0.3222

> <Gold.Chemscore.Rot.Weighted>
5.0991

> <Gold.Chemscore.Internal.Correction.Weighted>
   9.000000E+99

> <Gold.Protein.RotatedTorsions>
[ 6907 6896 6895 6894 ] final   58.18 input  -60.11 | X-H torsion
[ 7974 7965 7964 7962 ] final   16.27 input  175.53 | X-H torsion
[ 8008 7997 7996 7995 ] final  -55.90 input   59.86 | X-H torsion
[ 10167 10162 10161 10158 ] final  177.72 input  -65.29 | X-H torsion
[ 10718 10713 10712 10709 ] final   95.14 input   66.30 | X-H torsion
[ 10763 10752 10751 10750 ] final  -59.05 input  -60.55 | X-H torsion
[ 11005 11000 10999 10996 ] final   83.95 input  -57.11 | X-H torsion

> <Gold.Protein.ActiveResidues>
 VAL166  LYS551  ARG553  GLY616  TRP617  ASP618  TYR619  PRO620  LYS621  CYS622 
 ASP623  PHE694  ASN695  SER759  ASP760  ASP761  ALA762  ILE779  LEU786  VAL792 
 PHE793  MET794  SER795  GLU796  ALA797  LYS798  CYS799  TRP800  GLU811  SER814 

> <Gold.Protein.RotatedAtoms>
  152.3801  134.6604  160.0145 H   0  0  0  0  0  0  0  0  0  0  0  0  # atno 6907 bound_to 6896
  151.6870  133.3306  159.3241 H   0  0  0  0  0  0  0  0  0  0  0  0  # atno 6908 bound_to 6896
  150.7740  134.6668  159.6414 H   0  0  0  0  0  0  0  0  0  0  0  0  # atno 6909 bound_to 6896
  146.2254  139.8772  142.8577 H   0  0  0  0  0  0  0  0  0  0  0  0  # atno 7974 bound_to 7965
  154.4211  140.1142  156.5552 H   0  0  0  0  0  0  0  0  0  0  0  0  # atno 8008 bound_to 7997
  155.6369  140.3496  155.4682 H   0  0  0  0  0  0  0  0  0  0  0  0  # atno 8009 bound_to 7997
  155.9903  140.1178  157.0634 H   0  0  0  0  0  0  0  0  0  0  0  0  # atno 8010 bound_to 7997
  139.5265  144.2765  152.0584 H   0  0  0  0  0  0  0  0  0  0  0  0  # atno 10167 bound_to 10162
  157.6941  131.0536  150.4293 H   0  0  0  0  0  0  0  0  0  0  0  0  # atno 10718 bound_to 10713
  154.2477  135.6332  153.5229 H   0  0  0  0  0  0  0  0  0  0  0  0  # atno 10763 bound_to 10752
  152.9918  135.5557  154.5842 H   0  0  0  0  0  0  0  0  0  0  0  0  # atno 10764 bound_to 10752
  154.5362  135.2891  155.1111 H   0  0  0  0  0  0  0  0  0  0  0  0  # atno 10765 bound_to 10752
  139.9015  134.8182  156.2379 H   0  0  0  0  0  0  0  0  0  0  0  0  # atno 11005 bound_to 11000
  145.2549  141.0057  143.3860 LP  0  0  0  0  0  0  0  0  0  0  0  0  # atno 17320 bound_to 7965
  144.9345  139.4260  143.6479 LP  0  0  0  0  0  0  0  0  0  0  0  0  # atno 17321 bound_to 7965
  140.2222  144.4455  150.6337 LP  0  0  0  0  0  0  0  0  0  0  0  0  # atno 17342 bound_to 10162
  140.6411  143.2204  151.6288 LP  0  0  0  0  0  0  0  0  0  0  0  0  # atno 17343 bound_to 10162
  156.4661  130.4042  149.6546 LP  0  0  0  0  0  0  0  0  0  0  0  0  # atno 17370 bound_to 10713
  156.3644  130.7498  151.2474 LP  0  0  0  0  0  0  0  0  0  0  0  0  # atno 17371 bound_to 10713
  141.0304  133.6992  156.1420 LP  0  0  0  0  0  0  0  0  0  0  0  0  # atno 17394 bound_to 11000
  140.7105  134.4466  157.5582 LP  0  0  0  0  0  0  0  0  0  0  0  0  # atno 17395 bound_to 11000

$$$$
