AV-unprocessed.smi:1356|AV-procd|sdf|5541|dock10
  -GOLD-   22720 5133D 1   1.00000     0.00000
 Structure written by MMmdl.
 41 42  0  0  0  0  0  0  0  0  1 V2000
  149.6134  131.5297  155.8946 C   0  0  0  0  0  0  0  0  0  0  0  0
  148.9409  132.0467  154.6347 C   0  0  1  0  0  0  0  0  0  0  0  0
  147.6301  132.7876  154.7348 C   0  0  0  0  0  0  0  0  0  0  0  0
  148.8642  133.5178  154.2452 C   0  0  1  0  0  0  0  0  0  0  0  0
  149.4878  134.5337  155.1417 C   0  0  0  0  0  0  0  0  0  0  0  0
  149.8726  134.2606  156.2786 O   0  0  0  0  0  0  0  0  0  0  0  0
  149.6411  135.7443  154.5830 N   0  0  0  0  0  0  0  0  0  0  0  0
  150.2371  136.9000  155.2433 C   0  0  0  0  0  0  0  0  0  0  0  0
  151.3039  137.5674  154.3527 C   0  0  0  0  0  0  0  0  0  0  0  0
  152.0427  138.7204  155.0399 C   0  0  0  0  0  0  0  0  0  0  0  0
  153.2734  138.7574  155.0702 O   0  0  0  0  0  0  0  0  0  0  0  0
  151.2663  139.6646  155.5930 N   0  0  0  0  0  0  0  0  0  0  0  0
  151.7518  140.8355  156.3141 C   0  0  0  0  0  0  0  0  0  0  0  0
  151.1070  140.9601  157.7048 C   0  0  0  0  0  0  0  0  0  0  0  0
  151.5157  142.2388  158.4110 C   0  0  0  0  0  0  0  0  0  0  0  0
  152.2717  142.1936  159.6018 C   0  0  0  0  0  0  0  0  0  0  0  0
  152.6146  143.4091  160.2252 C   0  0  0  0  0  0  0  0  0  0  0  0
  152.1901  144.6162  159.6373 C   0  0  0  0  0  0  0  0  0  0  0  0
  151.4377  144.5539  158.4475 C   0  0  0  0  0  0  0  0  0  0  0  0
  151.1025  143.3939  157.8422 N   0  0  0  0  0  0  0  0  0  0  0  0
  149.4016  132.1718  156.7501 H   0  0  0  0  0  0  0  0  0  0  0  0
  150.6930  131.4829  155.7511 H   0  0  0  0  0  0  0  0  0  0  0  0
  149.2513  130.5276  156.1237 H   0  0  0  0  0  0  0  0  0  0  0  0
  149.0495  131.3646  153.7937 H   0  0  0  0  0  0  0  0  0  0  0  0
  146.8612  132.5662  153.9976 H   0  0  0  0  0  0  0  0  0  0  0  0
  147.2570  133.0187  155.7312 H   0  0  0  0  0  0  0  0  0  0  0  0
  148.9484  133.7238  153.1799 H   0  0  0  0  0  0  0  0  0  0  0  0
  149.3151  135.8749  153.6363 H   0  0  0  0  0  0  0  0  0  0  0  0
  149.4572  137.6129  155.5179 H   0  0  0  0  0  0  0  0  0  0  0  0
  150.6874  136.5575  156.1757 H   0  0  0  0  0  0  0  0  0  0  0  0
  152.0373  136.8257  154.0341 H   0  0  0  0  0  0  0  0  0  0  0  0
  150.8366  137.9554  153.4460 H   0  0  0  0  0  0  0  0  0  0  0  0
  150.2650  139.5567  155.5212 H   0  0  0  0  0  0  0  0  0  0  0  0
  152.8335  140.7417  156.4131 H   0  0  0  0  0  0  0  0  0  0  0  0
  151.5708  141.7372  155.7264 H   0  0  0  0  0  0  0  0  0  0  0  0
  150.0197  140.9338  157.6216 H   0  0  0  0  0  0  0  0  0  0  0  0
  151.3870  140.1076  158.3254 H   0  0  0  0  0  0  0  0  0  0  0  0
  152.5794  141.2511  160.0303 H   0  0  0  0  0  0  0  0  0  0  0  0
  153.1913  143.4157  161.1380 H   0  0  0  0  0  0  0  0  0  0  0  0
  152.4340  145.5670  160.0876 H   0  0  0  0  0  0  0  0  0  0  0  0
  151.0949  145.4600  157.9703 H   0  0  0  0  0  0  0  0  0  0  0  0
  1  2  1  0  0  0  0
  1 21  1  0  0  0  0
  1 22  1  0  0  0  0
  1 23  1  0  0  0  0
  2  4  1  0  0  0  0
  2  3  1  0  0  0  0
  2 24  1  0  0  0  0
  3  4  1  0  0  0  0
  3 25  1  0  0  0  0
  3 26  1  0  0  0  0
  4  5  1  0  0  0  0
  4 27  1  0  0  0  0
  5  6  2  0  0  0  0
  5  7  1  0  0  0  0
  7  8  1  0  0  0  0
  7 28  1  0  0  0  0
  8  9  1  0  0  0  0
  8 29  1  0  0  0  0
  8 30  1  0  0  0  0
  9 10  1  0  0  0  0
  9 31  1  0  0  0  0
  9 32  1  0  0  0  0
 10 11  2  0  0  0  0
 10 12  1  0  0  0  0
 12 13  1  0  0  0  0
 12 33  1  0  0  0  0
 13 14  1  0  0  0  0
 13 34  1  0  0  0  0
 13 35  1  0  0  0  0
 14 15  1  0  0  0  0
 14 36  1  0  0  0  0
 14 37  1  0  0  0  0
 15 20  1  0  0  0  0
 15 16  2  0  0  0  0
 16 17  1  0  0  0  0
 16 38  1  0  0  0  0
 17 18  2  0  0  0  0
 17 39  1  0  0  0  0
 18 19  1  0  0  0  0
 18 40  1  0  0  0  0
 19 20  2  0  0  0  0
 19 41  1  0  0  0  0
M  END
> <s_m_source_file>
AV-unprocessed.smi

> <i_m_source_file_index>
1356

> <i_lp_mmshare_version>
43012

> <i_f3d_flags>
0

> <s_epik_input>
W0NIM11bQ0BASF0xW0NIMl1bQ0BIXTFDKD1PKVtOSF1bQ0gyXVtDSDJdQyg9TylbTkhdW0NIMl1bQ0gyXWMyW2NIXVtjSF1bY0hdW2NIXW4y

> <s_epik_cmdline>
J2VwaWtfcHl0aG9uJywgJy1waCcsICc3LjAnLCAnLXRuJywgJzgnLCAnLW1hJywgJzIwMCcsICctbWV0YWxfYmluZGluZycsICctaW1hZScsICc8aW5maWxlLm1hZT4nLCAnLW9tYWUnLCAnPG91dGZpbGUubWFlPic=

> <r_epik_Ionization_Penalty>
0.0258005

> <r_epik_Ionization_Penalty_Charging>
0

> <r_epik_Ionization_Penalty_Neutral>
0.0258005

> <r_epik_State_Penalty>
0.0210245

> <r_epik_Charging_Adjusted_Penalty>
0.0210245

> <i_epik_Tot_Q>
0

> <i_epik_Tot_abs_Q>
0

> <r_epik_Metal_State_Penalty>
0.0201445

> <b_epik_Metal_Only>
0

> <s_lp_Force_Field>
OPLS_2005

> <r_lp_Energy>
8.2515

> <b_lp_Chiralities_Consistent>
1

> <s_lp_Variant>
AV-unprocessed.smi:1356-2

> <Gold.Version>
5.8.1

> <Gold.Id.Protein>
6NUR|6NUR_protein|mol2

> <Gold.PLP.Fitness>
51.0064

> <Gold.PLP.PLP>
-42.6083

> <Gold.PLP.part.hbond>
-3.2751

> <Gold.PLP.part.metal>
0.0000

> <Gold.PLP.part.buried>
-5.7599

> <Gold.PLP.part.nonpolar>
-34.4051

> <Gold.PLP.part.repulsive>
0.6304

> <Gold.PLP.ligand.clash>
0.0000

> <Gold.PLP.ligand.torsion>
0.3498

> <Gold.PLP.Chemscore.Hbond>
2.0000

> <Gold.PLP.Chemscore.CHOScore>
0.9842

> <Gold.PLP.Chemscore.Metal>
0.0000

> <Gold.Chemscore.Hbonds>
donor molecule, donor type, donor heavy atom, donor atom, acceptor molecule, acceptor atom, score
      L1  H     7    28       P1  7948  1.00
      P1  H  7997  8009       L1    11  1.00

> <Gold.PLP.Chemscore.Internal.Correction>
0.1451

> <Gold.Rescore>
     Score         DG    S(hbond)    S(metal)    S(lipo)     H(rot)  DE(clash)    DE(int)     intcor
     16.24     -18.27       1.91        0.00     102.50       2.18       0.31       1.73       ----

> <Gold.Chemscore.Fitness>
16.2362

> <Gold.Chemscore.DG>
-18.2736

> <Gold.Chemscore.ZeroCoef>
-5.4800

> <Gold.Chemscore.Hbond>
1.9072

> <Gold.Chemscore.Metal>
0.0000

> <Gold.Chemscore.Lipo>
102.4975

> <Gold.Chemscore.Internal_Hbond>
0.0000

> <Gold.Chemscore.DEClash>
0.3108

> <Gold.Chemscore.DEInternal>
1.7266

> <Gold.Chemscore.Rot>
2.1753

> <Gold.Chemscore.Internal.Correction>
   9.000000E+99

> <Gold.Chemscore.Hbonds>
donor molecule, donor type, donor heavy atom, donor atom, acceptor molecule, acceptor atom, score
      L1  H     7    28       P1  7948  0.65
      P1  H  7997  8009       L1    11  0.91

> <Gold.Chemscore.Hbond.Weighted>
-6.3701

> <Gold.Chemscore.Metal.Weighted>
-0.0000

> <Gold.Chemscore.Lipo.Weighted>
-11.9922

> <Gold.Chemscore.Internal_Hbond.Weighted>
0.0000

> <Gold.Chemscore.DEClash.Weighted>
0.3108

> <Gold.Chemscore.DEInternal.Weighted>
1.7266

> <Gold.Chemscore.Rot.Weighted>
5.5687

> <Gold.Chemscore.Internal.Correction.Weighted>
   9.000000E+99

> <Gold.Protein.RotatedTorsions>
[ 6907 6896 6895 6894 ] final  172.16 input  -60.11 | X-H torsion
[ 7974 7965 7964 7962 ] final  -57.84 input  175.53 | X-H torsion
[ 8008 7997 7996 7995 ] final -133.87 input   59.86 | X-H torsion
[ 10167 10162 10161 10158 ] final   67.73 input  -65.29 | X-H torsion
[ 10718 10713 10712 10709 ] final  -64.53 input   66.30 | X-H torsion
[ 10763 10752 10751 10750 ] final -103.17 input  -60.55 | X-H torsion
[ 11005 11000 10999 10996 ] final -131.99 input  -57.11 | X-H torsion

> <Gold.Protein.ActiveResidues>
 VAL166  LYS551  ARG553  GLY616  TRP617  ASP618  TYR619  PRO620  LYS621  CYS622 
 ASP623  PHE694  ASN695  SER759  ASP760  ASP761  ALA762  ILE779  LEU786  VAL792 
 PHE793  MET794  SER795  GLU796  ALA797  LYS798  CYS799  TRP800  GLU811  SER814 

> <Gold.Protein.RotatedAtoms>
  151.7886  133.3357  159.3492 H   0  0  0  0  0  0  0  0  0  0  0  0  # atno 6907 bound_to 6896
  150.7400  134.5863  159.5974 H   0  0  0  0  0  0  0  0  0  0  0  0  # atno 6908 bound_to 6896
  152.3226  134.7363  160.0361 H   0  0  0  0  0  0  0  0  0  0  0  0  # atno 6909 bound_to 6896
  145.8464  140.8382  143.0008 H   0  0  0  0  0  0  0  0  0  0  0  0  # atno 7974 bound_to 7965
  155.3526  140.0478  157.3046 H   0  0  0  0  0  0  0  0  0  0  0  0  # atno 8008 bound_to 7997
  154.5219  140.2228  155.8924 H   0  0  0  0  0  0  0  0  0  0  0  0  # atno 8009 bound_to 7997
  156.1698  140.3098  155.8960 H   0  0  0  0  0  0  0  0  0  0  0  0  # atno 8010 bound_to 7997
  140.0864  144.5026  150.7128 H   0  0  0  0  0  0  0  0  0  0  0  0  # atno 10167 bound_to 10162
  156.0723  130.4235  150.1433 H   0  0  0  0  0  0  0  0  0  0  0  0  # atno 10718 bound_to 10713
  154.7788  135.4833  153.9800 H   0  0  0  0  0  0  0  0  0  0  0  0  # atno 10763 bound_to 10752
  153.1465  135.6783  153.8954 H   0  0  0  0  0  0  0  0  0  0  0  0  # atno 10764 bound_to 10752
  153.8612  135.3155  155.3416 H   0  0  0  0  0  0  0  0  0  0  0  0  # atno 10765 bound_to 10752
  140.9210  134.1445  157.4314 H   0  0  0  0  0  0  0  0  0  0  0  0  # atno 11005 bound_to 11000
  144.6731  140.0888  143.7466 LP  0  0  0  0  0  0  0  0  0  0  0  0  # atno 17320 bound_to 7965
  145.9407  139.2667  143.1270 LP  0  0  0  0  0  0  0  0  0  0  0  0  # atno 17321 bound_to 7965
  140.7051  143.2462  151.4749 LP  0  0  0  0  0  0  0  0  0  0  0  0  # atno 17342 bound_to 10162
  139.5750  144.1840  152.1890 LP  0  0  0  0  0  0  0  0  0  0  0  0  # atno 17343 bound_to 10162
  156.9481  130.9766  151.3503 LP  0  0  0  0  0  0  0  0  0  0  0  0  # atno 17370 bound_to 10713
  157.5801  130.8370  149.8511 LP  0  0  0  0  0  0  0  0  0  0  0  0  # atno 17371 bound_to 10713
  139.8775  134.9971  156.5830 LP  0  0  0  0  0  0  0  0  0  0  0  0  # atno 17394 bound_to 11000
  140.7988  133.8522  155.8709 LP  0  0  0  0  0  0  0  0  0  0  0  0  # atno 17395 bound_to 11000

$$$$
