AV-unprocessed.smi:694|AV-procd|sdf|3383|dock8
  -GOLD-   22720 0363D 1   1.00000     0.00000
 Structure written by MMmdl.
 42 43  0  0  0  0  0  0  0  0  1 V2000
  150.8174  142.0625  156.9845 C   0  0  0  0  0  0  0  0  0  0  0  0
  149.4094  141.6849  156.9129 N   0  0  0  0  0  0  0  0  0  0  0  0
  148.4546  142.2616  157.8510 C   0  0  0  0  0  0  0  0  0  0  0  0
  148.9854  140.7249  155.9656 C   0  0  0  0  0  0  0  0  0  0  0  0
  149.9113  140.0440  155.1368 C   0  0  0  0  0  0  0  0  0  0  0  0
  149.4371  139.0940  154.2124 C   0  0  0  0  0  0  0  0  0  0  0  0
  148.0558  138.8335  154.1370 C   0  0  0  0  0  0  0  0  0  0  0  0
  147.6052  137.8807  153.1843 N   0  0  0  0  0  0  0  0  0  0  0  0
  146.3470  137.4777  152.9384 C   0  0  0  0  0  0  0  0  0  0  0  0
  145.3444  137.8739  153.5324 O   0  0  0  0  0  0  0  0  0  0  0  0
  146.3164  136.5542  151.9671 N   0  0  0  0  0  0  0  0  0  0  0  0
  145.1183  135.8779  151.4785 C   0  0  0  0  0  0  0  0  0  0  0  0
  145.4560  134.5391  150.7927 C   0  0  1  0  0  0  0  0  0  0  0  0
  146.0499  133.4743  151.7273 C   0  0  0  0  0  0  0  0  0  0  0  0
  145.7123  132.1137  151.0990 C   0  0  0  0  0  0  0  0  0  0  0  0
  144.7213  132.3958  149.9622 C   0  0  0  0  0  0  0  0  0  0  0  0
  144.2386  133.8298  150.1926 C   0  0  2  0  0  0  0  0  0  0  0  0
  143.8093  134.4302  148.9883 O   0  0  0  0  0  0  0  0  0  0  0  0
  147.2038  139.5700  154.9928 C   0  0  0  0  0  0  0  0  0  0  0  0
  147.6546  140.4827  155.8787 N   0  0  0  0  0  0  0  0  0  0  0  0
  151.4268  141.2068  157.2769 H   0  0  0  0  0  0  0  0  0  0  0  0
  150.9809  142.8555  157.7143 H   0  0  0  0  0  0  0  0  0  0  0  0
  151.1690  142.4246  156.0179 H   0  0  0  0  0  0  0  0  0  0  0  0
  147.6817  142.8161  157.3179 H   0  0  0  0  0  0  0  0  0  0  0  0
  148.9425  142.9505  158.5405 H   0  0  0  0  0  0  0  0  0  0  0  0
  147.9789  141.4802  158.4444 H   0  0  0  0  0  0  0  0  0  0  0  0
  150.9732  140.2289  155.1915 H   0  0  0  0  0  0  0  0  0  0  0  0
  150.1317  138.5684  153.5732 H   0  0  0  0  0  0  0  0  0  0  0  0
  148.3323  137.4035  152.6721 H   0  0  0  0  0  0  0  0  0  0  0  0
  147.1909  136.2880  151.5389 H   0  0  0  0  0  0  0  0  0  0  0  0
  144.3971  135.7264  152.2836 H   0  0  0  0  0  0  0  0  0  0  0  0
  144.6351  136.5427  150.7622 H   0  0  0  0  0  0  0  0  0  0  0  0
  146.1759  134.7221  149.9926 H   0  0  0  0  0  0  0  0  0  0  0  0
  147.1225  133.6076  151.8705 H   0  0  0  0  0  0  0  0  0  0  0  0
  145.5810  133.5372  152.7102 H   0  0  0  0  0  0  0  0  0  0  0  0
  146.6063  131.6213  150.7150 H   0  0  0  0  0  0  0  0  0  0  0  0
  145.2720  131.4526  151.8462 H   0  0  0  0  0  0  0  0  0  0  0  0
  145.2477  132.3273  149.0088 H   0  0  0  0  0  0  0  0  0  0  0  0
  143.9000  131.6791  149.9353 H   0  0  0  0  0  0  0  0  0  0  0  0
  143.4164  133.8286  150.9099 H   0  0  0  0  0  0  0  0  0  0  0  0
  144.5556  134.8332  148.5717 H   0  0  0  0  0  0  0  0  0  0  0  0
  146.1313  139.4571  154.9698 H   0  0  0  0  0  0  0  0  0  0  0  0
  1  2  1  0  0  0  0
  1 21  1  0  0  0  0
  1 22  1  0  0  0  0
  1 23  1  0  0  0  0
  2  3  1  0  0  0  0
  2  4  1  0  0  0  0
  3 24  1  0  0  0  0
  3 25  1  0  0  0  0
  3 26  1  0  0  0  0
  4 20  1  0  0  0  0
  4  5  2  0  0  0  0
  5  6  1  0  0  0  0
  5 27  1  0  0  0  0
  6  7  2  0  0  0  0
  6 28  1  0  0  0  0
  7  8  1  0  0  0  0
  7 19  1  0  0  0  0
  8  9  1  0  0  0  0
  8 29  1  0  0  0  0
  9 10  2  0  0  0  0
  9 11  1  0  0  0  0
 11 12  1  0  0  0  0
 11 30  1  0  0  0  0
 12 13  1  0  0  0  0
 12 31  1  0  0  0  0
 12 32  1  0  0  0  0
 13 17  1  0  0  0  0
 13 14  1  0  0  0  0
 13 33  1  0  0  0  0
 14 15  1  0  0  0  0
 14 34  1  0  0  0  0
 14 35  1  0  0  0  0
 15 16  1  0  0  0  0
 15 36  1  0  0  0  0
 15 37  1  0  0  0  0
 16 17  1  0  0  0  0
 16 38  1  0  0  0  0
 16 39  1  0  0  0  0
 17 18  1  0  0  0  0
 17 40  1  0  0  0  0
 18 41  1  0  0  0  0
 19 20  2  0  0  0  0
 19 42  1  0  0  0  0
M  END
> <s_m_source_file>
AV-unprocessed.smi

> <i_m_source_file_index>
694

> <i_lp_mmshare_version>
43012

> <i_f3d_flags>
0

> <s_epik_input>
W0NIM11OKFtDSDNdKWMxW2NIXVtjSF1jKFtjSF1uMSlbTkhdQyg9TylbTkhdW0NIMl1bQ0BASF0yW0NIMl1bQ0gyXVtDSDJdW0NASF0yW09IXQ==

> <s_epik_cmdline>
J2VwaWtfcHl0aG9uJywgJy1waCcsICc3LjAnLCAnLXRuJywgJzgnLCAnLW1hJywgJzIwMCcsICctbWV0YWxfYmluZGluZycsICctaW1hZScsICc8aW5maWxlLm1hZT4nLCAnLW9tYWUnLCAnPG91dGZpbGUubWFlPic=

> <r_lp_tautomer_probability>
1

> <r_epik_Ionization_Penalty>
0.60335

> <r_epik_Ionization_Penalty_Charging>
0

> <r_epik_Ionization_Penalty_Neutral>
0.60335

> <r_epik_State_Penalty>
0.616805

> <r_epik_Charging_Adjusted_Penalty>
0.616805

> <i_epik_Tot_Q>
0

> <i_epik_Tot_abs_Q>
0

> <r_epik_Metal_State_Penalty>
0.301709

> <b_epik_Metal_Only>
0

> <s_lp_Force_Field>
OPLS_2005

> <r_lp_Energy>
25.3577

> <b_lp_Chiralities_Consistent>
1

> <s_lp_Variant>
AV-unprocessed.smi:694-8

> <Gold.Version>
5.8.1

> <Gold.Id.Protein>
6NUR|6NUR_protein|mol2

> <Gold.PLP.Fitness>
40.6066

> <Gold.PLP.PLP>
-32.3723

> <Gold.PLP.part.hbond>
-3.8764

> <Gold.PLP.part.metal>
0.0000

> <Gold.PLP.part.buried>
-4.7733

> <Gold.PLP.part.nonpolar>
-25.0248

> <Gold.PLP.part.repulsive>
0.2927

> <Gold.PLP.ligand.clash>
0.0000

> <Gold.PLP.ligand.torsion>
0.1827

> <Gold.PLP.Chemscore.Hbond>
2.8640

> <Gold.PLP.Chemscore.CHOScore>
0.0000

> <Gold.PLP.Chemscore.Metal>
0.0000

> <Gold.Chemscore.Hbonds>
donor molecule, donor type, donor heavy atom, donor atom, acceptor molecule, acceptor atom, score
      L1  H     8    29       P1  7948  1.00
      L1  H    11    30       P1  7948  0.86
      L1  H    18    41       P1  7921  1.00

> <Gold.PLP.Chemscore.Internal.Correction>
0.0077

> <Gold.Rescore>
     Score         DG    S(hbond)    S(metal)    S(lipo)     H(rot)  DE(clash)    DE(int)     intcor
     17.50     -19.11       2.88        0.00      72.04       1.73       0.19       1.43       ----

> <Gold.Chemscore.Fitness>
17.4966

> <Gold.Chemscore.DG>
-19.1144

> <Gold.Chemscore.ZeroCoef>
-5.4800

> <Gold.Chemscore.Hbond>
2.8813

> <Gold.Chemscore.Metal>
0.0000

> <Gold.Chemscore.Lipo>
72.0441

> <Gold.Chemscore.Internal_Hbond>
0.0000

> <Gold.Chemscore.DEClash>
0.1865

> <Gold.Chemscore.DEInternal>
1.4313

> <Gold.Chemscore.Rot>
1.7259

> <Gold.Chemscore.Internal.Correction>
   9.000000E+99

> <Gold.Chemscore.Hbonds>
donor molecule, donor type, donor heavy atom, donor atom, acceptor molecule, acceptor atom, score
      L1  H     8    29       P1  7948  0.93
      L1  H    11    30       P1  7948  0.85
      L1  H    18    41       P1  7921  0.98

> <Gold.Chemscore.Hbond.Weighted>
-9.6236

> <Gold.Chemscore.Metal.Weighted>
-0.0000

> <Gold.Chemscore.Lipo.Weighted>
-8.4292

> <Gold.Chemscore.Internal_Hbond.Weighted>
0.0000

> <Gold.Chemscore.DEClash.Weighted>
0.1865

> <Gold.Chemscore.DEInternal.Weighted>
1.4313

> <Gold.Chemscore.Rot.Weighted>
4.4184

> <Gold.Chemscore.Internal.Correction.Weighted>
   9.000000E+99

> <Gold.Protein.RotatedTorsions>
[ 6907 6896 6895 6894 ] final -178.78 input  -60.11 | X-H torsion
[ 7974 7965 7964 7962 ] final -106.28 input  175.53 | X-H torsion
[ 8008 7997 7996 7995 ] final   30.57 input   59.86 | X-H torsion
[ 10167 10162 10161 10158 ] final   19.24 input  -65.29 | X-H torsion
[ 10718 10713 10712 10709 ] final  -64.51 input   66.30 | X-H torsion
[ 10763 10752 10751 10750 ] final  172.59 input  -60.55 | X-H torsion
[ 11005 11000 10999 10996 ] final   70.22 input  -57.11 | X-H torsion

> <Gold.Protein.ActiveResidues>
 VAL166  LYS551  ARG553  GLY616  TRP617  ASP618  TYR619  PRO620  LYS621  CYS622 
 ASP623  PHE694  ASN695  SER759  ASP760  ASP761  ALA762  ILE779  LEU786  VAL792 
 PHE793  MET794  SER795  GLU796  ALA797  LYS798  CYS799  TRP800  GLU811  SER814 

> <Gold.Protein.RotatedAtoms>
  151.6429  133.3325  159.3133 H   0  0  0  0  0  0  0  0  0  0  0  0  # atno 6907 bound_to 6896
  150.7999  134.7089  159.6602 H   0  0  0  0  0  0  0  0  0  0  0  0  # atno 6908 bound_to 6896
  152.4090  134.6161  160.0090 H   0  0  0  0  0  0  0  0  0  0  0  0  # atno 6909 bound_to 6896
  145.2198  140.9130  143.3266 H   0  0  0  0  0  0  0  0  0  0  0  0  # atno 7974 bound_to 7965
  155.0925  140.3221  155.4570 H   0  0  0  0  0  0  0  0  0  0  0  0  # atno 8008 bound_to 7997
  156.2739  140.2075  156.5998 H   0  0  0  0  0  0  0  0  0  0  0  0  # atno 8009 bound_to 7997
  154.6892  140.0518  157.0333 H   0  0  0  0  0  0  0  0  0  0  0  0  # atno 8010 bound_to 7997
  140.5594  143.9366  150.6631 H   0  0  0  0  0  0  0  0  0  0  0  0  # atno 10167 bound_to 10162
  156.0725  130.4234  150.1430 H   0  0  0  0  0  0  0  0  0  0  0  0  # atno 10718 bound_to 10713
  154.4281  135.2759  155.1930 H   0  0  0  0  0  0  0  0  0  0  0  0  # atno 10763 bound_to 10752
  154.3848  135.6079  153.5814 H   0  0  0  0  0  0  0  0  0  0  0  0  # atno 10764 bound_to 10752
  152.9835  135.5889  154.4588 H   0  0  0  0  0  0  0  0  0  0  0  0  # atno 10765 bound_to 10752
  139.9610  134.7062  156.0647 H   0  0  0  0  0  0  0  0  0  0  0  0  # atno 11005 bound_to 11000
  144.9776  139.3816  143.6278 LP  0  0  0  0  0  0  0  0  0  0  0  0  # atno 17320 bound_to 7965
  146.3378  139.8902  142.8810 LP  0  0  0  0  0  0  0  0  0  0  0  0  # atno 17321 bound_to 7965
  140.2812  143.3388  152.1149 LP  0  0  0  0  0  0  0  0  0  0  0  0  # atno 17342 bound_to 10162
  139.5063  144.6810  151.6007 LP  0  0  0  0  0  0  0  0  0  0  0  0  # atno 17343 bound_to 10162
  156.9478  130.9765  151.3504 LP  0  0  0  0  0  0  0  0  0  0  0  0  # atno 17370 bound_to 10713
  157.5803  130.8372  149.8513 LP  0  0  0  0  0  0  0  0  0  0  0  0  # atno 17371 bound_to 10713
  141.1287  133.6592  156.3405 LP  0  0  0  0  0  0  0  0  0  0  0  0  # atno 17394 bound_to 11000
  140.5501  134.6036  157.5405 LP  0  0  0  0  0  0  0  0  0  0  0  0  # atno 17395 bound_to 11000

$$$$
