AV-unprocessed.smi:2412|AV-procd|sdf|9533|dock5
  -GOLD-   2272013163D 1   1.00000     0.00000
 Structure written by MMmdl.
 38 39  0  0  0  0  0  0  0  0  2 V2000
  150.2941  138.9257  154.4594 C   0  0  0  0  0  0  0  0  0  0  0  0
  149.2297  139.9979  154.3038 C   0  0  0  0  0  0  0  0  0  0  0  0
  149.5186  141.3250  154.6901 C   0  0  0  0  0  0  0  0  0  0  0  0
  148.5848  142.2897  154.5540 N   0  3  0  0  0  0  0  0  0  0  0  0
  147.3567  142.0500  154.0497 C   0  0  0  0  0  0  0  0  0  0  0  0
  147.0056  140.7474  153.6440 C   0  0  0  0  0  0  0  0  0  0  0  0
  147.9460  139.6943  153.7813 C   0  0  0  0  0  0  0  0  0  0  0  0
  147.6742  138.3573  153.3737 N   0  0  0  0  0  0  0  0  0  0  0  0
  146.5262  137.6663  153.4799 C   0  0  0  0  0  0  0  0  0  0  0  0
  145.4949  138.0785  154.0105 O   0  0  0  0  0  0  0  0  0  0  0  0
  146.6426  136.4434  152.9412 N   0  0  0  0  0  0  0  0  0  0  0  0
  145.5665  135.4575  152.8546 C   0  0  0  0  0  0  0  0  0  0  0  0
  146.0570  134.0523  152.4571 C   0  0  0  0  0  0  0  0  0  0  0  0
  146.9856  133.5269  153.0746 O   0  0  0  0  0  0  0  0  0  0  0  0
  145.4367  133.4281  151.4344 N   0  0  0  0  0  0  0  0  0  0  0  0
  144.3236  133.9656  150.6520 C   0  0  0  0  0  0  0  0  0  0  0  0
  144.1189  132.9862  149.4954 C   0  0  0  0  0  0  0  0  0  0  0  0
  144.6757  131.6690  150.0166 C   0  0  0  0  0  0  0  0  0  0  0  0
  145.7927  132.0878  150.9724 C   0  0  0  0  0  0  0  0  0  0  0  0
  151.2023  139.3313  154.9066 H   0  0  0  0  0  0  0  0  0  0  0  0
  150.5554  138.5048  153.4880 H   0  0  0  0  0  0  0  0  0  0  0  0
  149.9347  138.1205  155.1008 H   0  0  0  0  0  0  0  0  0  0  0  0
  150.4656  141.6446  155.1002 H   0  0  0  0  0  0  0  0  0  0  0  0
  146.6976  142.9032  153.9787 H   0  0  0  0  0  0  0  0  0  0  0  0
  146.0256  140.5852  153.2214 H   0  0  0  0  0  0  0  0  0  0  0  0
  148.4631  137.8504  152.9997 H   0  0  0  0  0  0  0  0  0  0  0  0
  147.5269  136.1842  152.5292 H   0  0  0  0  0  0  0  0  0  0  0  0
  145.0838  135.3996  153.8304 H   0  0  0  0  0  0  0  0  0  0  0  0
  144.8102  135.8020  152.1475 H   0  0  0  0  0  0  0  0  0  0  0  0
  143.4325  134.0057  151.2801 H   0  0  0  0  0  0  0  0  0  0  0  0
  144.5239  134.9700  150.2771 H   0  0  0  0  0  0  0  0  0  0  0  0
  143.0769  132.9113  149.1832 H   0  0  0  0  0  0  0  0  0  0  0  0
  144.7028  133.3119  148.6332 H   0  0  0  0  0  0  0  0  0  0  0  0
  143.8993  131.1397  150.5708 H   0  0  0  0  0  0  0  0  0  0  0  0
  145.0250  131.0114  149.2201 H   0  0  0  0  0  0  0  0  0  0  0  0
  146.7484  132.1366  150.4484 H   0  0  0  0  0  0  0  0  0  0  0  0
  145.8937  131.3802  151.7971 H   0  0  0  0  0  0  0  0  0  0  0  0
  148.8189  143.2411  154.8391 H   0  0  0  0  0  0  0  0  0  0  0  0
  1  2  1  0  0  0  0
  1 20  1  0  0  0  0
  1 21  1  0  0  0  0
  1 22  1  0  0  0  0
  2  7  1  0  0  0  0
  2  3  2  0  0  0  0
  3  4  1  0  0  0  0
  3 23  1  0  0  0  0
  4  5  2  0  0  0  0
  4 38  1  0  0  0  0
  5  6  1  0  0  0  0
  5 24  1  0  0  0  0
  6  7  2  0  0  0  0
  6 25  1  0  0  0  0
  7  8  1  0  0  0  0
  8  9  1  0  0  0  0
  8 26  1  0  0  0  0
  9 10  2  0  0  0  0
  9 11  1  0  0  0  0
 11 12  1  0  0  0  0
 11 27  1  0  0  0  0
 12 13  1  0  0  0  0
 12 28  1  0  0  0  0
 12 29  1  0  0  0  0
 13 14  2  0  0  0  0
 13 15  1  0  0  0  0
 15 19  1  0  0  0  0
 15 16  1  0  0  0  0
 16 17  1  0  0  0  0
 16 30  1  0  0  0  0
 16 31  1  0  0  0  0
 17 18  1  0  0  0  0
 17 32  1  0  0  0  0
 17 33  1  0  0  0  0
 18 19  1  0  0  0  0
 18 34  1  0  0  0  0
 18 35  1  0  0  0  0
 19 36  1  0  0  0  0
 19 37  1  0  0  0  0
M  CHG  1   4   1
M  END
> <s_m_source_file>
AV-unprocessed.smi

> <i_m_source_file_index>
2412

> <i_lp_mmshare_version>
43012

> <i_f3d_flags>
0

> <s_epik_input>
W0NIM11jMVtjSF1uW2NIXVtjSF1jMVtOSF1DKD1PKVtOSF1bQ0gyXUMoPU8pTjJbQ0gyXVtDSDJdW0NIMl1bQ0gyXTI=

> <s_epik_cmdline>
J2VwaWtfcHl0aG9uJywgJy1waCcsICc3LjAnLCAnLXRuJywgJzgnLCAnLW1hJywgJzIwMCcsICctbWV0YWxfYmluZGluZycsICctaW1hZScsICc8aW5maWxlLm1hZT4nLCAnLW9tYWUnLCAnPG91dGZpbGUubWFlPic=

> <r_epik_Ionization_Penalty>
0.861722

> <r_epik_Ionization_Penalty_Charging>
0.861704

> <r_epik_Ionization_Penalty_Neutral>
1.84974e-05

> <r_epik_State_Penalty>
0.898238

> <r_epik_Charging_Adjusted_Penalty>
1.75994

> <i_epik_Tot_Q>
1

> <i_epik_Tot_abs_Q>
1

> <r_epik_Metal_State_Penalty>
1.0245

> <b_epik_Metal_Only>
0

> <s_lp_Force_Field>
OPLS_2005

> <r_lp_Energy>
33.6381

> <b_lp_Chiralities_Consistent>
1

> <s_lp_Variant>
AV-unprocessed.smi:2412-2

> <Gold.Version>
5.8.1

> <Gold.Id.Protein>
6NUR|6NUR_protein|mol2

> <Gold.PLP.Fitness>
45.2302

> <Gold.PLP.PLP>
-34.4763

> <Gold.PLP.part.hbond>
-3.0000

> <Gold.PLP.part.metal>
0.0000

> <Gold.PLP.part.buried>
-2.8582

> <Gold.PLP.part.nonpolar>
-29.7223

> <Gold.PLP.part.repulsive>
0.7649

> <Gold.PLP.ligand.clash>
0.0000

> <Gold.PLP.ligand.torsion>
0.4107

> <Gold.PLP.Chemscore.Hbond>
3.8580

> <Gold.PLP.Chemscore.CHOScore>
0.0000

> <Gold.PLP.Chemscore.Metal>
0.0000

> <Gold.Chemscore.Hbonds>
donor molecule, donor type, donor heavy atom, donor atom, acceptor molecule, acceptor atom, score
      L1  H     4    38       P1  8028  2.00
      L1  H     8    26       P1  7948  0.86
      L1  H    11    27       P1  7948  1.00

> <Gold.PLP.Chemscore.Internal.Correction>
0.0013

> <Gold.Rescore>
     Score         DG    S(hbond)    S(metal)    S(lipo)     H(rot)  DE(clash)    DE(int)     intcor
     20.65     -21.11       2.75        0.00      82.96       1.28       0.03       0.43       ----

> <Gold.Chemscore.Fitness>
20.6508

> <Gold.Chemscore.DG>
-21.1100

> <Gold.Chemscore.ZeroCoef>
-5.4800

> <Gold.Chemscore.Hbond>
2.7536

> <Gold.Chemscore.Metal>
0.0000

> <Gold.Chemscore.Lipo>
82.9592

> <Gold.Chemscore.Internal_Hbond>
0.0000

> <Gold.Chemscore.DEClash>
0.0337

> <Gold.Chemscore.DEInternal>
0.4255

> <Gold.Chemscore.Rot>
1.2786

> <Gold.Chemscore.Internal.Correction>
   9.000000E+99

> <Gold.Chemscore.Hbonds>
donor molecule, donor type, donor heavy atom, donor atom, acceptor molecule, acceptor atom, score
      L1  H     4    38       P1  8028  1.00
      L1  H     8    26       P1  7948  0.80
      L1  H    11    27       P1  7948  0.97

> <Gold.Chemscore.Hbond.Weighted>
-9.1970

> <Gold.Chemscore.Metal.Weighted>
-0.0000

> <Gold.Chemscore.Lipo.Weighted>
-9.7062

> <Gold.Chemscore.Internal_Hbond.Weighted>
0.0000

> <Gold.Chemscore.DEClash.Weighted>
0.0337

> <Gold.Chemscore.DEInternal.Weighted>
0.4255

> <Gold.Chemscore.Rot.Weighted>
3.2733

> <Gold.Chemscore.Internal.Correction.Weighted>
   9.000000E+99

> <Gold.Protein.RotatedTorsions>
[ 6907 6896 6895 6894 ] final   21.77 input  -60.11 | X-H torsion
[ 7974 7965 7964 7962 ] final  175.41 input  175.53 | X-H torsion
[ 8008 7997 7996 7995 ] final   59.91 input   59.86 | X-H torsion
[ 10167 10162 10161 10158 ] final -108.46 input  -65.29 | X-H torsion
[ 10718 10713 10712 10709 ] final -179.44 input   66.30 | X-H torsion
[ 10763 10752 10751 10750 ] final -144.23 input  -60.55 | X-H torsion
[ 11005 11000 10999 10996 ] final -170.10 input  -57.11 | X-H torsion

> <Gold.Protein.ActiveResidues>
 VAL166  LYS551  ARG553  GLY616  TRP617  ASP618  TYR619  PRO620  LYS621  CYS622 
 ASP623  PHE694  ASN695  SER759  ASP760  ASP761  ALA762  ILE779  LEU786  VAL792 
 PHE793  MET794  SER795  GLU796  ALA797  LYS798  CYS799  TRP800  GLU811  SER814 

> <Gold.Protein.RotatedAtoms>
  151.9169  135.0315  160.0518 H   0  0  0  0  0  0  0  0  0  0  0  0  # atno 6907 bound_to 6896
  152.2232  133.4995  159.5183 H   0  0  0  0  0  0  0  0  0  0  0  0  # atno 6908 bound_to 6896
  150.7005  134.1231  159.4084 H   0  0  0  0  0  0  0  0  0  0  0  0  # atno 6909 bound_to 6896
  144.7202  139.9943  143.6440 H   0  0  0  0  0  0  0  0  0  0  0  0  # atno 7974 bound_to 7965
  155.5738  140.3490  155.4522 H   0  0  0  0  0  0  0  0  0  0  0  0  # atno 8008 bound_to 7997
  156.0424  140.1299  157.0166 H   0  0  0  0  0  0  0  0  0  0  0  0  # atno 8009 bound_to 7997
  154.4398  140.1021  156.6242 H   0  0  0  0  0  0  0  0  0  0  0  0  # atno 8010 bound_to 7997
  140.1659  143.4082  152.1391 H   0  0  0  0  0  0  0  0  0  0  0  0  # atno 10167 bound_to 10162
  156.8592  130.9746  151.3085 H   0  0  0  0  0  0  0  0  0  0  0  0  # atno 10718 bound_to 10713
  154.8437  135.3446  154.6313 H   0  0  0  0  0  0  0  0  0  0  0  0  # atno 10763 bound_to 10752
  153.6922  135.6974  153.5091 H   0  0  0  0  0  0  0  0  0  0  0  0  # atno 10764 bound_to 10752
  153.2586  135.4330  155.0826 H   0  0  0  0  0  0  0  0  0  0  0  0  # atno 10765 bound_to 10752
  140.5233  134.5688  157.5054 H   0  0  0  0  0  0  0  0  0  0  0  0  # atno 11005 bound_to 11000
  146.0387  139.3401  143.0711 LP  0  0  0  0  0  0  0  0  0  0  0  0  # atno 17320 bound_to 7965
  145.8362  140.9604  143.0823 LP  0  0  0  0  0  0  0  0  0  0  0  0  # atno 17321 bound_to 7965
  139.5360  144.7209  151.4893 LP  0  0  0  0  0  0  0  0  0  0  0  0  # atno 17342 bound_to 10162
  140.6613  143.8492  150.6891 LP  0  0  0  0  0  0  0  0  0  0  0  0  # atno 17343 bound_to 10162
  157.6260  130.8692  149.9190 LP  0  0  0  0  0  0  0  0  0  0  0  0  # atno 17370 bound_to 10713
  156.0786  130.3676  150.0627 LP  0  0  0  0  0  0  0  0  0  0  0  0  # atno 17371 bound_to 10713
  139.9594  134.7479  156.0270 LP  0  0  0  0  0  0  0  0  0  0  0  0  # atno 17394 bound_to 11000
  141.1322  133.6583  156.3495 LP  0  0  0  0  0  0  0  0  0  0  0  0  # atno 17395 bound_to 11000

$$$$
