AV-unprocessed.smi:2390|AV-procd|sdf|9480|dock3
  -GOLD-   2272013113D 1   1.00000     0.00000
 Structure written by MMmdl.
 46 47  0  0  0  0  0  0  0  0  2 V2000
  153.5973  141.0217  159.7666 C   0  0  0  0  0  0  0  0  0  0  0  0
  152.8291  142.2286  159.2700 C   0  0  0  0  0  0  0  0  0  0  0  0
  152.9684  143.4799  159.9005 C   0  0  0  0  0  0  0  0  0  0  0  0
  152.2177  144.5595  159.4033 C   0  0  0  0  0  0  0  0  0  0  0  0
  151.3696  144.3478  158.2991 C   0  0  0  0  0  0  0  0  0  0  0  0
  151.3025  143.0585  157.7110 C   0  0  0  0  0  0  0  0  0  0  0  0
  150.4353  142.8082  156.6146 N   0  0  0  0  0  0  0  0  0  0  0  0
  149.7430  141.6889  156.3417 C   0  0  0  0  0  0  0  0  0  0  0  0
  149.7503  140.6641  157.0248 O   0  0  0  0  0  0  0  0  0  0  0  0
  149.0267  141.8201  155.2148 N   0  0  0  0  0  0  0  0  0  0  0  0
  148.1533  140.8010  154.6286 C   0  0  1  0  0  0  0  0  0  0  0  0
  146.9581  141.4900  153.9496 C   0  0  0  0  0  0  0  0  0  0  0  0
  148.9304  139.8373  153.6805 C   0  0  1  0  0  0  0  0  0  0  0  0
  150.2407  139.3313  154.3342 C   0  0  0  0  0  0  0  0  0  0  0  0
  148.0289  138.7386  153.1994 N   0  3  0  0  0  0  0  0  0  0  0  0
  147.3313  138.0392  154.3103 C   0  0  0  0  0  0  0  0  0  0  0  0
  146.5630  136.8174  153.7827 C   0  0  0  0  0  0  0  0  0  0  0  0
  145.6291  137.2373  152.7977 O   0  0  0  0  0  0  0  0  0  0  0  0
  146.2750  137.8372  151.6832 C   0  0  0  0  0  0  0  0  0  0  0  0
  147.0502  139.0875  152.1346 C   0  0  0  0  0  0  0  0  0  0  0  0
  152.0134  142.0228  158.2128 N   0  0  0  0  0  0  0  0  0  0  0  0
  154.5086  141.3251  160.2826 H   0  0  0  0  0  0  0  0  0  0  0  0
  153.8798  140.3708  158.9383 H   0  0  0  0  0  0  0  0  0  0  0  0
  152.9844  140.4472  160.4618 H   0  0  0  0  0  0  0  0  0  0  0  0
  153.6263  143.6094  160.7475 H   0  0  0  0  0  0  0  0  0  0  0  0
  152.2851  145.5336  159.8646 H   0  0  0  0  0  0  0  0  0  0  0  0
  150.7778  145.1722  157.9315 H   0  0  0  0  0  0  0  0  0  0  0  0
  150.2455  143.6058  156.0256 H   0  0  0  0  0  0  0  0  0  0  0  0
  149.0812  142.7008  154.7234 H   0  0  0  0  0  0  0  0  0  0  0  0
  147.7184  140.2221  155.4434 H   0  0  0  0  0  0  0  0  0  0  0  0
  146.2957  140.7591  153.4846 H   0  0  0  0  0  0  0  0  0  0  0  0
  147.2702  142.1968  153.1812 H   0  0  0  0  0  0  0  0  0  0  0  0
  146.3674  142.0464  154.6782 H   0  0  0  0  0  0  0  0  0  0  0  0
  149.2354  140.4051  152.7998 H   0  0  0  0  0  0  0  0  0  0  0  0
  150.8706  140.1573  154.6612 H   0  0  0  0  0  0  0  0  0  0  0  0
  150.8479  138.7584  153.6334 H   0  0  0  0  0  0  0  0  0  0  0  0
  150.0472  138.7045  155.2051 H   0  0  0  0  0  0  0  0  0  0  0  0
  148.0395  137.7098  155.0693 H   0  0  0  0  0  0  0  0  0  0  0  0
  146.6414  138.7278  154.8003 H   0  0  0  0  0  0  0  0  0  0  0  0
  147.2466  136.0752  153.3671 H   0  0  0  0  0  0  0  0  0  0  0  0
  146.0227  136.3330  154.5962 H   0  0  0  0  0  0  0  0  0  0  0  0
  146.9427  137.1180  151.2051 H   0  0  0  0  0  0  0  0  0  0  0  0
  145.5214  138.1097  150.9441 H   0  0  0  0  0  0  0  0  0  0  0  0
  146.3588  139.8469  152.5032 H   0  0  0  0  0  0  0  0  0  0  0  0
  147.5543  139.4956  151.2591 H   0  0  0  0  0  0  0  0  0  0  0  0
  148.6439  138.0554  152.7792 H   0  0  0  0  0  0  0  0  0  0  0  0
  1  2  1  0  0  0  0
  1 22  1  0  0  0  0
  1 23  1  0  0  0  0
  1 24  1  0  0  0  0
  2 21  1  0  0  0  0
  2  3  2  0  0  0  0
  3  4  1  0  0  0  0
  3 25  1  0  0  0  0
  4  5  2  0  0  0  0
  4 26  1  0  0  0  0
  5  6  1  0  0  0  0
  5 27  1  0  0  0  0
  6  7  1  0  0  0  0
  6 21  2  0  0  0  0
  7  8  1  0  0  0  0
  7 28  1  0  0  0  0
  8  9  2  0  0  0  0
  8 10  1  0  0  0  0
 10 11  1  0  0  0  0
 10 29  1  0  0  0  0
 11 12  1  0  0  0  0
 11 13  1  0  0  0  0
 11 30  1  0  0  0  0
 12 31  1  0  0  0  0
 12 32  1  0  0  0  0
 12 33  1  0  0  0  0
 13 14  1  0  0  0  0
 13 15  1  0  0  0  0
 13 34  1  0  0  0  0
 14 35  1  0  0  0  0
 14 36  1  0  0  0  0
 14 37  1  0  0  0  0
 15 20  1  0  0  0  0
 15 16  1  0  0  0  0
 15 46  1  0  0  0  0
 16 17  1  0  0  0  0
 16 38  1  0  0  0  0
 16 39  1  0  0  0  0
 17 18  1  0  0  0  0
 17 40  1  0  0  0  0
 17 41  1  0  0  0  0
 18 19  1  0  0  0  0
 19 20  1  0  0  0  0
 19 42  1  0  0  0  0
 19 43  1  0  0  0  0
 20 44  1  0  0  0  0
 20 45  1  0  0  0  0
M  CHG  1  15   1
M  END
> <s_m_source_file>
AV-unprocessed.smi

> <i_m_source_file_index>
2390

> <i_lp_mmshare_version>
43012

> <i_f3d_flags>
0

> <s_epik_input>
W0NIM11jMVtjSF1bY0hdW2NIXWMobjEpW05IXUMoPU8pW05IXVtDQEhdKFtDSDNdKVtDQEhdKFtDSDNdKU4yW0NIMl1bQ0gyXU9bQ0gyXVtDSDJdMg==

> <s_epik_cmdline>
J2VwaWtfcHl0aG9uJywgJy1waCcsICc3LjAnLCAnLXRuJywgJzgnLCAnLW1hJywgJzIwMCcsICctbWV0YWxfYmluZGluZycsICctaW1hZScsICc8aW5maWxlLm1hZT4nLCAnLW9tYWUnLCAnPG91dGZpbGUubWFlPic=

> <r_epik_Ionization_Penalty>
0.60259

> <r_epik_Ionization_Penalty_Charging>
0.602531

> <r_epik_Ionization_Penalty_Neutral>
5.9516e-05

> <r_epik_State_Penalty>
0.617039

> <r_epik_Charging_Adjusted_Penalty>
1.21957

> <i_epik_Tot_Q>
1

> <i_epik_Tot_abs_Q>
1

> <r_epik_Metal_State_Penalty>
0.617047

> <b_epik_Metal_Only>
0

> <s_lp_Force_Field>
OPLS_2005

> <r_lp_Energy>
33.8146

> <b_lp_Chiralities_Consistent>
1

> <s_lp_Variant>
AV-unprocessed.smi:2390-8

> <Gold.Version>
5.8.1

> <Gold.Id.Protein>
6NUR|6NUR_protein|mol2

> <Gold.PLP.Fitness>
48.7163

> <Gold.PLP.PLP>
-41.5140

> <Gold.PLP.part.hbond>
-4.0000

> <Gold.PLP.part.metal>
0.0000

> <Gold.PLP.part.buried>
2.4729

> <Gold.PLP.part.nonpolar>
-41.1202

> <Gold.PLP.part.repulsive>
0.4996

> <Gold.PLP.ligand.clash>
0.0000

> <Gold.PLP.ligand.torsion>
0.9129

> <Gold.PLP.Chemscore.Hbond>
2.9602

> <Gold.PLP.Chemscore.CHOScore>
0.0000

> <Gold.PLP.Chemscore.Metal>
0.0000

> <Gold.Chemscore.Hbonds>
donor molecule, donor type, donor heavy atom, donor atom, acceptor molecule, acceptor atom, score
      L1  H     7    28       P1  8028  0.80
      L1  H    10    29       P1  8028  0.28
      L1  H    15    46       P1  7948  1.95

> <Gold.PLP.Chemscore.Internal.Correction>
0.1477

> <Gold.Rescore>
     Score         DG    S(hbond)    S(metal)    S(lipo)     H(rot)  DE(clash)    DE(int)     intcor
     17.03     -20.97       2.15        0.00     103.56       1.48       0.96       2.99       ----

> <Gold.Chemscore.Fitness>
17.0262

> <Gold.Chemscore.DG>
-20.9749

> <Gold.Chemscore.ZeroCoef>
-5.4800

> <Gold.Chemscore.Hbond>
2.1491

> <Gold.Chemscore.Metal>
0.0000

> <Gold.Chemscore.Lipo>
103.5632

> <Gold.Chemscore.Internal_Hbond>
0.0000

> <Gold.Chemscore.DEClash>
0.9601

> <Gold.Chemscore.DEInternal>
2.9885

> <Gold.Chemscore.Rot>
1.4844

> <Gold.Chemscore.Internal.Correction>
   9.000000E+99

> <Gold.Chemscore.Hbonds>
donor molecule, donor type, donor heavy atom, donor atom, acceptor molecule, acceptor atom, score
      L1  H     7    28       P1  8028  0.80
      L1  H    10    29       P1  8028  0.28
      L1  H    15    46       P1  7948  0.89

> <Gold.Chemscore.Hbond.Weighted>
-7.1779

> <Gold.Chemscore.Metal.Weighted>
-0.0000

> <Gold.Chemscore.Lipo.Weighted>
-12.1169

> <Gold.Chemscore.Internal_Hbond.Weighted>
0.0000

> <Gold.Chemscore.DEClash.Weighted>
0.9601

> <Gold.Chemscore.DEInternal.Weighted>
2.9885

> <Gold.Chemscore.Rot.Weighted>
3.8000

> <Gold.Chemscore.Internal.Correction.Weighted>
   9.000000E+99

> <Gold.Protein.RotatedTorsions>
[ 6907 6896 6895 6894 ] final   70.05 input  -60.11 | X-H torsion
[ 7974 7965 7964 7962 ] final  -15.07 input  175.53 | X-H torsion
[ 8008 7997 7996 7995 ] final  -65.97 input   59.86 | X-H torsion
[ 10167 10162 10161 10158 ] final   48.91 input  -65.29 | X-H torsion
[ 10718 10713 10712 10709 ] final  -50.04 input   66.30 | X-H torsion
[ 10763 10752 10751 10750 ] final  144.80 input  -60.55 | X-H torsion
[ 11005 11000 10999 10996 ] final  144.55 input  -57.11 | X-H torsion

> <Gold.Protein.ActiveResidues>
 VAL166  LYS551  ARG553  GLY616  TRP617  ASP618  TYR619  PRO620  LYS621  CYS622 
 ASP623  PHE694  ASN695  SER759  ASP760  ASP761  ALA762  ILE779  LEU786  VAL792 
 PHE793  MET794  SER795  GLU796  ALA797  LYS798  CYS799  TRP800  GLU811  SER814 

> <Gold.Protein.RotatedAtoms>
  152.4725  134.4925  159.9699 H   0  0  0  0  0  0  0  0  0  0  0  0  # atno 6907 bound_to 6896
  151.4949  133.3511  159.2867 H   0  0  0  0  0  0  0  0  0  0  0  0  # atno 6908 bound_to 6896
  150.8743  134.8151  159.7240 H   0  0  0  0  0  0  0  0  0  0  0  0  # atno 6909 bound_to 6896
  146.2048  140.3439  142.8411 H   0  0  0  0  0  0  0  0  0  0  0  0  # atno 7974 bound_to 7965
  154.4705  140.0922  156.7132 H   0  0  0  0  0  0  0  0  0  0  0  0  # atno 8008 bound_to 7997
  155.4737  140.3465  155.4311 H   0  0  0  0  0  0  0  0  0  0  0  0  # atno 8009 bound_to 7997
  156.1031  140.1427  156.9429 H   0  0  0  0  0  0  0  0  0  0  0  0  # atno 8010 bound_to 7997
  140.2884  144.3075  150.6246 H   0  0  0  0  0  0  0  0  0  0  0  0  # atno 10167 bound_to 10162
  156.1837  130.4151  149.9470 H   0  0  0  0  0  0  0  0  0  0  0  0  # atno 10718 bound_to 10713
  153.9949  135.2928  155.3408 H   0  0  0  0  0  0  0  0  0  0  0  0  # atno 10763 bound_to 10752
  154.7193  135.5116  153.8790 H   0  0  0  0  0  0  0  0  0  0  0  0  # atno 10764 bound_to 10752
  153.0792  135.6673  154.0197 H   0  0  0  0  0  0  0  0  0  0  0  0  # atno 10765 bound_to 10752
  140.0641  134.9188  157.1234 H   0  0  0  0  0  0  0  0  0  0  0  0  # atno 11005 bound_to 11000
  144.8766  140.7345  143.6013 LP  0  0  0  0  0  0  0  0  0  0  0  0  # atno 17320 bound_to 7965
  145.3359  139.1746  143.4512 LP  0  0  0  0  0  0  0  0  0  0  0  0  # atno 17321 bound_to 7965
  140.5753  143.2177  151.7526 LP  0  0  0  0  0  0  0  0  0  0  0  0  # atno 17342 bound_to 10162
  139.4944  144.4158  152.0031 LP  0  0  0  0  0  0  0  0  0  0  0  0  # atno 17343 bound_to 10162
  156.7232  130.9015  151.3620 LP  0  0  0  0  0  0  0  0  0  0  0  0  # atno 17370 bound_to 10713
  157.6885  130.9209  150.0450 LP  0  0  0  0  0  0  0  0  0  0  0  0  # atno 17371 bound_to 10713
  140.3726  134.2374  155.7177 LP  0  0  0  0  0  0  0  0  0  0  0  0  # atno 17394 bound_to 11000
  141.1985  133.8033  157.0578 LP  0  0  0  0  0  0  0  0  0  0  0  0  # atno 17395 bound_to 11000

$$$$
