AV-unprocessed.smi:2049|AV-procd|sdf|8323|dock5
  -GOLD-   2272010593D 1   1.00000     0.00000
 Structure written by MMmdl.
 50 52  0  0  0  0  0  0  0  0  1 V2000
  146.7946  132.8325  154.5761 O   0  0  0  0  0  0  0  0  0  0  0  0
  147.3418  133.4556  153.6661 C   0  0  0  0  0  0  0  0  0  0  0  0
  147.4854  132.8275  152.2747 C   0  0  0  0  0  0  0  0  0  0  0  0
  146.3032  133.0667  151.4324 N   0  0  0  0  0  0  0  0  0  0  0  0
  145.9586  134.4003  151.1554 C   0  0  0  0  0  0  0  0  0  0  0  0
  144.8980  134.6917  150.3889 C   0  0  0  0  0  0  0  0  0  0  0  0
  144.1352  133.5499  149.8679 C   0  0  0  0  0  0  0  0  0  0  0  0
  144.4486  132.3330  150.1153 N   0  0  0  0  0  0  0  0  0  0  0  0
  145.5644  132.0292  150.9182 C   0  0  0  0  0  0  0  0  0  0  0  0
  145.8744  130.8612  151.1564 O   0  0  0  0  0  0  0  0  0  0  0  0
  147.8411  134.6918  153.8079 N   0  0  0  0  0  0  0  0  0  0  0  0
  147.7366  135.5311  155.0010 C   0  0  0  0  0  0  0  0  0  0  0  0
  149.1308  135.8175  155.6568 C   0  0  0  0  0  0  0  0  0  0  0  0
  149.7818  136.9813  154.9709 N   0  0  0  0  0  0  0  0  0  0  0  0
  151.1523  137.2714  155.4175 C   0  0  0  0  0  0  0  0  0  0  0  0
  151.8212  138.3725  154.5787 C   0  0  0  0  0  0  0  0  0  0  0  0
  151.0335  139.5540  154.6295 O   0  0  0  0  0  0  0  0  0  0  0  0
  149.7158  139.3398  154.1419 C   0  0  0  0  0  0  0  0  0  0  0  0
  149.0232  138.2412  154.9670 C   0  0  0  0  0  0  0  0  0  0  0  0
  148.9006  136.1179  157.1776 C   0  0  0  0  0  0  0  0  0  0  0  0
  148.3416  134.9381  157.9957 C   0  0  0  0  0  0  0  0  0  0  0  0
  149.2392  133.7025  157.8582 C   0  0  0  0  0  0  0  0  0  0  0  0
  149.4499  133.3323  156.3846 C   0  0  0  0  0  0  0  0  0  0  0  0
  149.9965  134.5210  155.5690 C   0  0  0  0  0  0  0  0  0  0  0  0
  148.3781  133.2118  151.7770 H   0  0  0  0  0  0  0  0  0  0  0  0
  147.6631  131.7587  152.4012 H   0  0  0  0  0  0  0  0  0  0  0  0
  146.6020  135.1503  151.5920 H   0  0  0  0  0  0  0  0  0  0  0  0
  144.5800  135.6921  150.1353 H   0  0  0  0  0  0  0  0  0  0  0  0
  143.2726  133.8081  149.2485 H   0  0  0  0  0  0  0  0  0  0  0  0
  148.2722  135.1166  152.9999 H   0  0  0  0  0  0  0  0  0  0  0  0
  147.1959  136.4452  154.7639 H   0  0  0  0  0  0  0  0  0  0  0  0
  147.0750  135.0245  155.7024 H   0  0  0  0  0  0  0  0  0  0  0  0
  151.1493  137.5824  156.4623 H   0  0  0  0  0  0  0  0  0  0  0  0
  151.7852  136.3893  155.3523 H   0  0  0  0  0  0  0  0  0  0  0  0
  152.8162  138.5918  154.9658 H   0  0  0  0  0  0  0  0  0  0  0  0
  151.9437  138.0491  153.5439 H   0  0  0  0  0  0  0  0  0  0  0  0
  149.1566  140.2730  154.2104 H   0  0  0  0  0  0  0  0  0  0  0  0
  149.7507  139.0648  153.0864 H   0  0  0  0  0  0  0  0  0  0  0  0
  148.0362  138.1091  154.5319 H   0  0  0  0  0  0  0  0  0  0  0  0
  148.8810  138.6044  155.9845 H   0  0  0  0  0  0  0  0  0  0  0  0
  149.8401  136.3660  157.6660 H   0  0  0  0  0  0  0  0  0  0  0  0
  148.2632  136.9926  157.3076 H   0  0  0  0  0  0  0  0  0  0  0  0
  148.2797  135.2246  159.0459 H   0  0  0  0  0  0  0  0  0  0  0  0
  147.3219  134.6981  157.6992 H   0  0  0  0  0  0  0  0  0  0  0  0
  150.2048  133.9003  158.3253 H   0  0  0  0  0  0  0  0  0  0  0  0
  148.8020  132.8610  158.3967 H   0  0  0  0  0  0  0  0  0  0  0  0
  150.1458  132.4955  156.3172 H   0  0  0  0  0  0  0  0  0  0  0  0
  148.5144  132.9746  155.9553 H   0  0  0  0  0  0  0  0  0  0  0  0
  150.1036  134.2025  154.5321 H   0  0  0  0  0  0  0  0  0  0  0  0
  151.0066  134.7200  155.9254 H   0  0  0  0  0  0  0  0  0  0  0  0
  1  2  2  0  0  0  0
  2  3  1  0  0  0  0
  2 11  1  0  0  0  0
  3  4  1  0  0  0  0
  3 25  1  0  0  0  0
  3 26  1  0  0  0  0
  4  9  1  0  0  0  0
  4  5  1  0  0  0  0
  5  6  2  0  0  0  0
  5 27  1  0  0  0  0
  6  7  1  0  0  0  0
  6 28  1  0  0  0  0
  7  8  2  0  0  0  0
  7 29  1  0  0  0  0
  8  9  1  0  0  0  0
  9 10  2  0  0  0  0
 11 12  1  0  0  0  0
 11 30  1  0  0  0  0
 12 13  1  0  0  0  0
 12 31  1  0  0  0  0
 12 32  1  0  0  0  0
 13 24  1  0  0  0  0
 13 14  1  0  0  0  0
 13 20  1  0  0  0  0
 14 19  1  0  0  0  0
 14 15  1  0  0  0  0
 15 16  1  0  0  0  0
 15 33  1  0  0  0  0
 15 34  1  0  0  0  0
 16 17  1  0  0  0  0
 16 35  1  0  0  0  0
 16 36  1  0  0  0  0
 17 18  1  0  0  0  0
 18 19  1  0  0  0  0
 18 37  1  0  0  0  0
 18 38  1  0  0  0  0
 19 39  1  0  0  0  0
 19 40  1  0  0  0  0
 20 21  1  0  0  0  0
 20 41  1  0  0  0  0
 20 42  1  0  0  0  0
 21 22  1  0  0  0  0
 21 43  1  0  0  0  0
 21 44  1  0  0  0  0
 22 23  1  0  0  0  0
 22 45  1  0  0  0  0
 22 46  1  0  0  0  0
 23 24  1  0  0  0  0
 23 47  1  0  0  0  0
 23 48  1  0  0  0  0
 24 49  1  0  0  0  0
 24 50  1  0  0  0  0
M  END
> <s_m_source_file>
AV-unprocessed.smi

> <i_m_source_file_index>
2049

> <i_lp_mmshare_version>
43012

> <i_f3d_flags>
0

> <s_epik_input>
Tz1jMW5bY0hdW2NIXVtjSF1uMVtDSDJdQyg9TylbTkhdW0NIMl1DMihbQ0gyXVtDSDJdW0NIMl1bQ0gyXVtDSDJdMilOM1tDSDJdW0NIMl1PW0NIMl1bQ0gyXTM=

> <s_epik_cmdline>
J2VwaWtfcHl0aG9uJywgJy1waCcsICc3LjAnLCAnLXRuJywgJzgnLCAnLW1hJywgJzIwMCcsICctbWV0YWxfYmluZGluZycsICctaW1hZScsICc8aW5maWxlLm1hZT4nLCAnLW9tYWUnLCAnPG91dGZpbGUubWFlPic=

> <r_lp_tautomer_probability>
1

> <r_epik_Ionization_Penalty>
0.421133

> <r_epik_Ionization_Penalty_Charging>
1.67008e-08

> <r_epik_Ionization_Penalty_Neutral>
0.421133

> <r_epik_State_Penalty>
0.421833

> <r_epik_Charging_Adjusted_Penalty>
0.421833

> <i_epik_Tot_Q>
0

> <i_epik_Tot_abs_Q>
0

> <r_epik_Metal_State_Penalty>
0.421832

> <b_epik_Metal_Only>
0

> <s_lp_Force_Field>
OPLS_2005

> <r_lp_Energy>
55.5371

> <b_lp_Chiralities_Consistent>
1

> <s_lp_Variant>
AV-unprocessed.smi:2049-2

> <Gold.Version>
5.8.1

> <Gold.Id.Protein>
6NUR|6NUR_protein|mol2

> <Gold.PLP.Fitness>
42.0149

> <Gold.PLP.PLP>
-31.5045

> <Gold.PLP.part.hbond>
-2.0000

> <Gold.PLP.part.metal>
0.0000

> <Gold.PLP.part.buried>
-2.2541

> <Gold.PLP.part.nonpolar>
-28.4338

> <Gold.PLP.part.repulsive>
0.6383

> <Gold.PLP.ligand.clash>
0.0000

> <Gold.PLP.ligand.torsion>
0.7858

> <Gold.PLP.Chemscore.Hbond>
2.0000

> <Gold.PLP.Chemscore.CHOScore>
2.0000

> <Gold.PLP.Chemscore.Metal>
0.0000

> <Gold.Chemscore.Hbonds>
donor molecule, donor type, donor heavy atom, donor atom, acceptor molecule, acceptor atom, score
      L1  H    11    30       P1  7948  1.00
      P1  H  7989  7998       L1    17  1.00
      L1  C     5    27       P1  7948  0.93
      L1  C     7    29       P1 10186  1.00

> <Gold.PLP.Chemscore.Internal.Correction>
0.0820

> <Gold.Rescore>
     Score         DG    S(hbond)    S(metal)    S(lipo)     H(rot)  DE(clash)    DE(int)     intcor
     12.38     -13.32       1.31        0.00      72.30       1.95       0.28       0.67       ----

> <Gold.Chemscore.Fitness>
12.3784

> <Gold.Chemscore.DG>
-13.3227

> <Gold.Chemscore.ZeroCoef>
-5.4800

> <Gold.Chemscore.Hbond>
1.3123

> <Gold.Chemscore.Metal>
0.0000

> <Gold.Chemscore.Lipo>
72.3049

> <Gold.Chemscore.Internal_Hbond>
0.0000

> <Gold.Chemscore.DEClash>
0.2785

> <Gold.Chemscore.DEInternal>
0.6658

> <Gold.Chemscore.Rot>
1.9531

> <Gold.Chemscore.Internal.Correction>
   9.000000E+99

> <Gold.Chemscore.Hbonds>
donor molecule, donor type, donor heavy atom, donor atom, acceptor molecule, acceptor atom, score
      L1  H    11    30       P1  7948  0.93
      P1  H  7989  7998       L1    17  0.30

> <Gold.Chemscore.Hbond.Weighted>
-4.3830

> <Gold.Chemscore.Metal.Weighted>
-0.0000

> <Gold.Chemscore.Lipo.Weighted>
-8.4597

> <Gold.Chemscore.Internal_Hbond.Weighted>
0.0000

> <Gold.Chemscore.DEClash.Weighted>
0.2785

> <Gold.Chemscore.DEInternal.Weighted>
0.6658

> <Gold.Chemscore.Rot.Weighted>
5.0000

> <Gold.Chemscore.Internal.Correction.Weighted>
   9.000000E+99

> <Gold.Protein.RotatedTorsions>
[ 6907 6896 6895 6894 ] final -112.41 input  -60.11 | X-H torsion
[ 7974 7965 7964 7962 ] final   -6.11 input  175.53 | X-H torsion
[ 8008 7997 7996 7995 ] final  137.42 input   59.86 | X-H torsion
[ 10167 10162 10161 10158 ] final -111.50 input  -65.29 | X-H torsion
[ 10718 10713 10712 10709 ] final -161.16 input   66.30 | X-H torsion
[ 10763 10752 10751 10750 ] final  105.17 input  -60.55 | X-H torsion
[ 11005 11000 10999 10996 ] final  108.00 input  -57.11 | X-H torsion

> <Gold.Protein.ActiveResidues>
 VAL166  LYS551  ARG553  GLY616  TRP617  ASP618  TYR619  PRO620  LYS621  CYS622 
 ASP623  PHE694  ASN695  SER759  ASP760  ASP761  ALA762  ILE779  LEU786  VAL792 
 PHE793  MET794  SER795  GLU796  ALA797  LYS798  CYS799  TRP800  GLU811  SER814 

> <Gold.Protein.RotatedAtoms>
  150.7756  133.9094  159.3364 H   0  0  0  0  0  0  0  0  0  0  0  0  # atno 6907 bound_to 6896
  151.6970  135.0935  160.0253 H   0  0  0  0  0  0  0  0  0  0  0  0  # atno 6908 bound_to 6896
  152.3791  133.6483  159.6182 H   0  0  0  0  0  0  0  0  0  0  0  0  # atno 6909 bound_to 6896
  146.2338  140.2121  142.8335 H   0  0  0  0  0  0  0  0  0  0  0  0  # atno 7974 bound_to 7965
  156.3002  140.2420  156.3906 H   0  0  0  0  0  0  0  0  0  0  0  0  # atno 8008 bound_to 7997
  154.8617  140.0419  157.1689 H   0  0  0  0  0  0  0  0  0  0  0  0  # atno 8009 bound_to 7997
  154.8889  140.2960  155.5386 H   0  0  0  0  0  0  0  0  0  0  0  0  # atno 8010 bound_to 7997
  140.1330  143.4344  152.1615 H   0  0  0  0  0  0  0  0  0  0  0  0  # atno 10167 bound_to 10162
  156.5923  130.8775  151.2893 H   0  0  0  0  0  0  0  0  0  0  0  0  # atno 10718 bound_to 10713
  153.3757  135.3919  155.1821 H   0  0  0  0  0  0  0  0  0  0  0  0  # atno 10763 bound_to 10752
  154.8700  135.3713  154.4921 H   0  0  0  0  0  0  0  0  0  0  0  0  # atno 10764 bound_to 10752
  153.5393  135.7084  153.5705 H   0  0  0  0  0  0  0  0  0  0  0  0  # atno 10765 bound_to 10752
  139.8837  134.9418  156.5906 H   0  0  0  0  0  0  0  0  0  0  0  0  # atno 11005 bound_to 11000
  144.9698  140.8357  143.5462 LP  0  0  0  0  0  0  0  0  0  0  0  0  # atno 17320 bound_to 7965
  145.2102  139.2208  143.5147 LP  0  0  0  0  0  0  0  0  0  0  0  0  # atno 17321 bound_to 7965
  139.5510  144.7337  151.4435 LP  0  0  0  0  0  0  0  0  0  0  0  0  # atno 17342 bound_to 10162
  140.6806  143.8091  150.7116 LP  0  0  0  0  0  0  0  0  0  0  0  0  # atno 17343 bound_to 10162
  157.7300  130.9680  150.1815 LP  0  0  0  0  0  0  0  0  0  0  0  0  # atno 17370 bound_to 10713
  156.2539  130.3703  149.8202 LP  0  0  0  0  0  0  0  0  0  0  0  0  # atno 17371 bound_to 10713
  140.7958  133.8545  155.8685 LP  0  0  0  0  0  0  0  0  0  0  0  0  # atno 17394 bound_to 11000
  140.9636  134.1623  157.4634 LP  0  0  0  0  0  0  0  0  0  0  0  0  # atno 17395 bound_to 11000

$$$$
