AV-unprocessed.smi:92|AV-procd|sdf|848|dock1
  -GOLD-   2262017283D 1   1.00000     0.00000
 Structure written by MMmdl.
 61 64  0  0  0  0  0  0  0  0  2 V2000
  147.9571  128.5039  152.3832 C   0  0  0  0  0  0  0  0  0  0  0  0
  146.7394  128.8150  151.5011 C   0  0  0  0  0  0  0  0  0  0  0  0
  146.4394  130.2678  151.4389 N   0  3  1  0  0  0  0  0  0  0  0  0
  145.4136  130.5850  150.4125 C   0  0  0  0  0  0  0  0  0  0  0  0
  145.2285  132.1030  150.2613 C   0  0  0  0  0  0  0  0  0  0  0  0
  144.8789  132.7491  151.6158 C   0  0  2  0  0  0  0  0  0  0  0  0
  144.5622  134.1831  151.5183 N   0  0  0  0  0  0  0  0  0  0  0  0
  145.6016  135.1792  151.2485 C   0  0  0  0  0  0  0  0  0  0  0  0
  143.5013  134.6053  152.2567 C   0  0  0  0  0  0  0  0  0  0  0  0
  142.3683  133.8534  152.2802 N   0  0  0  0  0  0  0  0  0  0  0  0
  141.3020  134.2583  152.9750 C   0  0  0  0  0  0  0  0  0  0  0  0
  141.1552  135.3638  153.7056 N   0  0  0  0  0  0  0  0  0  0  0  0
  142.2885  136.1225  153.6959 C   0  0  0  0  0  0  0  0  0  0  0  0
  143.4963  135.8185  153.0043 C   0  0  0  0  0  0  0  0  0  0  0  0
  144.4356  136.8155  153.2397 N   0  0  0  0  0  0  0  0  0  0  0  0
  143.8173  137.6631  154.0151 C   0  0  0  0  0  0  0  0  0  0  0  0
  142.5217  137.3285  154.3385 N   0  0  0  0  0  0  0  0  0  0  0  0
  141.6289  138.0852  155.1723 C   0  0  0  0  0  0  0  0  0  0  0  0
  140.2891  138.6022  154.6411 C   0  0  0  0  0  0  0  0  0  0  0  0
  140.4233  139.8488  155.5474 C   0  0  0  0  0  0  0  0  0  0  0  0
  139.9934  141.1951  154.9312 C   0  0  0  0  0  0  0  0  0  0  0  0
  140.8191  141.5873  153.8526 O   0  0  0  0  0  0  0  0  0  0  0  0
  139.7030  139.7165  156.9023 C   0  0  0  0  0  0  0  0  0  0  0  0
  138.3104  139.5393  156.7381 O   0  0  0  0  0  0  0  0  0  0  0  0
  141.9377  139.5317  155.5685 C   0  0  0  0  0  0  0  0  0  0  0  0
  145.9355  132.3839  152.6935 C   0  0  2  0  0  0  0  0  0  0  0  0
  147.3061  133.0691  152.5350 C   0  0  0  0  0  0  0  0  0  0  0  0
  146.0863  130.8497  152.7623 C   0  0  0  0  0  0  0  0  0  0  0  0
  148.2025  127.4427  152.3360 H   0  0  0  0  0  0  0  0  0  0  0  0
  147.7796  128.7458  153.4306 H   0  0  0  0  0  0  0  0  0  0  0  0
  148.8349  129.0601  152.0530 H   0  0  0  0  0  0  0  0  0  0  0  0
  146.9577  128.4490  150.4969 H   0  0  0  0  0  0  0  0  0  0  0  0
  145.8621  128.2652  151.8451 H   0  0  0  0  0  0  0  0  0  0  0  0
  145.7102  130.1661  149.4501 H   0  0  0  0  0  0  0  0  0  0  0  0
  144.4673  130.1143  150.6844 H   0  0  0  0  0  0  0  0  0  0  0  0
  146.1422  132.5328  149.8498 H   0  0  0  0  0  0  0  0  0  0  0  0
  144.4378  132.3021  149.5370 H   0  0  0  0  0  0  0  0  0  0  0  0
  143.9589  132.2538  151.9202 H   0  0  0  0  0  0  0  0  0  0  0  0
  145.1518  136.1423  151.0030 H   0  0  0  0  0  0  0  0  0  0  0  0
  146.2109  134.8933  150.3923 H   0  0  0  0  0  0  0  0  0  0  0  0
  146.2603  135.3280  152.1019 H   0  0  0  0  0  0  0  0  0  0  0  0
  140.4431  133.6047  152.9397 H   0  0  0  0  0  0  0  0  0  0  0  0
  144.2961  138.5621  154.3755 H   0  0  0  0  0  0  0  0  0  0  0  0
  141.4634  137.4865  156.0700 H   0  0  0  0  0  0  0  0  0  0  0  0
  140.3170  138.8275  153.5746 H   0  0  0  0  0  0  0  0  0  0  0  0
  139.4397  137.9589  154.8731 H   0  0  0  0  0  0  0  0  0  0  0  0
  138.9677  141.1436  154.5647 H   0  0  0  0  0  0  0  0  0  0  0  0
  140.0230  141.9940  155.6727 H   0  0  0  0  0  0  0  0  0  0  0  0
  140.6837  140.9868  153.1358 H   0  0  0  0  0  0  0  0  0  0  0  0
  140.0977  138.8764  157.4750 H   0  0  0  0  0  0  0  0  0  0  0  0
  139.8545  140.6029  157.5187 H   0  0  0  0  0  0  0  0  0  0  0  0
  138.1356  138.6173  156.6257 H   0  0  0  0  0  0  0  0  0  0  0  0
  142.4157  139.6341  156.5430 H   0  0  0  0  0  0  0  0  0  0  0  0
  142.5046  140.0688  154.8077 H   0  0  0  0  0  0  0  0  0  0  0  0
  145.5468  132.6983  153.6631 H   0  0  0  0  0  0  0  0  0  0  0  0
  147.7340  132.9118  151.5453 H   0  0  0  0  0  0  0  0  0  0  0  0
  148.0194  132.6859  153.2652 H   0  0  0  0  0  0  0  0  0  0  0  0
  147.2343  134.1413  152.7096 H   0  0  0  0  0  0  0  0  0  0  0  0
  145.1524  130.4032  153.1082 H   0  0  0  0  0  0  0  0  0  0  0  0
  146.8393  130.5957  153.5073 H   0  0  0  0  0  0  0  0  0  0  0  0
  147.2896  130.7211  151.1354 H   0  0  0  0  0  0  0  0  0  0  0  0
  1  2  1  0  0  0  0
  1 29  1  0  0  0  0
  1 30  1  0  0  0  0
  1 31  1  0  0  0  0
  2  3  1  0  0  0  0
  2 32  1  0  0  0  0
  2 33  1  0  0  0  0
  3 28  1  0  0  0  0
  3  4  1  0  0  0  0
  3 61  1  0  0  0  0
  4  5  1  0  0  0  0
  4 34  1  0  0  0  0
  4 35  1  0  0  0  0
  5  6  1  0  0  0  0
  5 36  1  0  0  0  0
  5 37  1  0  0  0  0
  6  7  1  0  0  0  0
  6 26  1  0  0  0  0
  6 38  1  0  0  0  0
  7  8  1  0  0  0  0
  7  9  1  0  0  0  0
  8 39  1  0  0  0  0
  8 40  1  0  0  0  0
  8 41  1  0  0  0  0
  9 14  1  0  0  0  0
  9 10  2  0  0  0  0
 10 11  1  0  0  0  0
 11 12  2  0  0  0  0
 11 42  1  0  0  0  0
 12 13  1  0  0  0  0
 13 17  1  0  0  0  0
 13 14  2  0  0  0  0
 14 15  1  0  0  0  0
 15 16  2  0  0  0  0
 16 17  1  0  0  0  0
 16 43  1  0  0  0  0
 17 18  1  0  0  0  0
 18 25  1  0  0  0  0
 18 19  1  0  0  0  0
 18 44  1  0  0  0  0
 19 20  1  0  0  0  0
 19 45  1  0  0  0  0
 19 46  1  0  0  0  0
 20 21  1  0  0  0  0
 20 23  1  0  0  0  0
 20 25  1  0  0  0  0
 21 22  1  0  0  0  0
 21 47  1  0  0  0  0
 21 48  1  0  0  0  0
 22 49  1  0  0  0  0
 23 24  1  0  0  0  0
 23 50  1  0  0  0  0
 23 51  1  0  0  0  0
 24 52  1  0  0  0  0
 25 53  1  0  0  0  0
 25 54  1  0  0  0  0
 26 27  1  0  0  0  0
 26 28  1  0  0  0  0
 26 55  1  0  0  0  0
 27 56  1  0  0  0  0
 27 57  1  0  0  0  0
 27 58  1  0  0  0  0
 28 59  1  0  0  0  0
 28 60  1  0  0  0  0
M  CHG  1   3   1
M  END
> <s_m_source_file>
AV-unprocessed.smi

> <i_m_source_file_index>
92

> <i_lp_mmshare_version>
43012

> <i_f3d_flags>
0

> <s_epik_input>
W0NIM11bQ0gyXU4xW0NIMl1bQ0gyXVtDQEhdKFtDQEBIXShbQ0gzXSlbQ0gyXTEpTihbQ0gzXSljKG5bY0hdbjIpYyhjMjMpbltjSF1uM1tDSF0oW0NIMl00KVtDSDJdQzQoW0NIMl1bT0hdKVtDSDJdW09IXQ==

> <s_epik_cmdline>
J2VwaWtfcHl0aG9uJywgJy1waCcsICc3LjAnLCAnLXRuJywgJzgnLCAnLW1hJywgJzIwMCcsICctbWV0YWxfYmluZGluZycsICctaW1hZScsICc8aW5maWxlLm1hZT4nLCAnLW9tYWUnLCAnPG91dGZpbGUubWFlPic=

> <r_lp_tautomer_probability>
1

> <r_epik_Ionization_Penalty>
0.00235514

> <r_epik_Ionization_Penalty_Charging>
0.00137877

> <r_epik_Ionization_Penalty_Neutral>
0.000976366

> <r_epik_State_Penalty>
-0

> <r_epik_Charging_Adjusted_Penalty>
0.00137877

> <i_epik_Tot_Q>
1

> <i_epik_Tot_abs_Q>
1

> <r_epik_Metal_State_Penalty>
-0

> <b_epik_Metal_Only>
0

> <s_lp_Force_Field>
OPLS_2005

> <r_lp_Energy>
56.4815

> <b_lp_Chiralities_Consistent>
1

> <s_lp_Variant>
AV-unprocessed.smi:92-8

> <Gold.Version>
5.8.1

> <Gold.Id.Protein>
6NUR|6NUR_protein|mol2

> <Gold.PLP.Fitness>
46.7564

> <Gold.PLP.PLP>
-37.1580

> <Gold.PLP.part.hbond>
-3.9043

> <Gold.PLP.part.metal>
0.0000

> <Gold.PLP.part.buried>
-3.4720

> <Gold.PLP.part.nonpolar>
-29.3737

> <Gold.PLP.part.repulsive>
0.7897

> <Gold.PLP.ligand.clash>
0.0000

> <Gold.PLP.ligand.torsion>
1.2664

> <Gold.PLP.Chemscore.Hbond>
2.9440

> <Gold.PLP.Chemscore.CHOScore>
0.6469

> <Gold.PLP.Chemscore.Metal>
0.0000

> <Gold.Chemscore.Hbonds>
donor molecule, donor type, donor heavy atom, donor atom, acceptor molecule, acceptor atom, score
      L1  H     3    61       P1 10747  1.00
      L1  H    22    49       P1 10160  0.28
      L1  C    16    43       P1 10175  0.21

> <Gold.PLP.Chemscore.Internal.Correction>
1.3583

> <Gold.Rescore>
     Score         DG    S(hbond)    S(metal)    S(lipo)     H(rot)  DE(clash)    DE(int)     intcor
      9.15     -15.29       2.45        0.00      84.30       3.22       2.42       3.73       ----

> <Gold.Chemscore.Fitness>
9.1470

> <Gold.Chemscore.DG>
-15.2949

> <Gold.Chemscore.ZeroCoef>
-5.4800

> <Gold.Chemscore.Hbond>
2.4550

> <Gold.Chemscore.Metal>
0.0000

> <Gold.Chemscore.Lipo>
84.3037

> <Gold.Chemscore.Internal_Hbond>
0.0000

> <Gold.Chemscore.DEClash>
2.4188

> <Gold.Chemscore.DEInternal>
3.7291

> <Gold.Chemscore.Rot>
3.2219

> <Gold.Chemscore.Internal.Correction>
   9.000000E+99

> <Gold.Chemscore.Hbonds>
donor molecule, donor type, donor heavy atom, donor atom, acceptor molecule, acceptor atom, score
      L1  H     3    61       P1 10747  0.98
      L1  H    22    49       P1 10160  0.28

> <Gold.Chemscore.Hbond.Weighted>
-8.1996

> <Gold.Chemscore.Metal.Weighted>
-0.0000

> <Gold.Chemscore.Lipo.Weighted>
-9.8635

> <Gold.Chemscore.Internal_Hbond.Weighted>
0.0000

> <Gold.Chemscore.DEClash.Weighted>
2.4188

> <Gold.Chemscore.DEInternal.Weighted>
3.7291

> <Gold.Chemscore.Rot.Weighted>
8.2482

> <Gold.Chemscore.Internal.Correction.Weighted>
   9.000000E+99

> <Gold.Protein.RotatedTorsions>
[ 6907 6896 6895 6894 ] final  -66.22 input  -60.11 | X-H torsion
[ 7974 7965 7964 7962 ] final  133.53 input  175.53 | X-H torsion
[ 8008 7997 7996 7995 ] final  155.48 input   59.86 | X-H torsion
[ 10167 10162 10161 10158 ] final -102.52 input  -65.29 | X-H torsion
[ 10718 10713 10712 10709 ] final -118.66 input   66.30 | X-H torsion
[ 10763 10752 10751 10750 ] final  -51.16 input  -60.55 | X-H torsion
[ 11005 11000 10999 10996 ] final   95.16 input  -57.11 | X-H torsion

> <Gold.Protein.ActiveResidues>
 VAL166  LYS551  ARG553  GLY616  TRP617  ASP618  TYR619  PRO620  LYS621  CYS622 
 ASP623  PHE694  ASN695  SER759  ASP760  ASP761  ALA762  ILE779  LEU786  VAL792 
 PHE793  MET794  SER795  GLU796  ALA797  LYS798  CYS799  TRP800  GLU811  SER814 

> <Gold.Protein.RotatedAtoms>
  150.7478  134.6052  159.6056 H   0  0  0  0  0  0  0  0  0  0  0  0  # atno 6907 bound_to 6896
  152.3402  134.7142  160.0275 H   0  0  0  0  0  0  0  0  0  0  0  0  # atno 6908 bound_to 6896
  151.7597  133.3297  159.3451 H   0  0  0  0  0  0  0  0  0  0  0  0  # atno 6909 bound_to 6896
  144.9856  139.4459  143.5364 H   0  0  0  0  0  0  0  0  0  0  0  0  # atno 7974 bound_to 7965
  156.2476  140.1938  156.6808 H   0  0  0  0  0  0  0  0  0  0  0  0  # atno 8008 bound_to 7997
  154.6324  140.0594  156.9773 H   0  0  0  0  0  0  0  0  0  0  0  0  # atno 8009 bound_to 7997
  155.1691  140.3266  155.4399 H   0  0  0  0  0  0  0  0  0  0  0  0  # atno 8010 bound_to 7997
  140.2298  143.3615  152.0896 H   0  0  0  0  0  0  0  0  0  0  0  0  # atno 10167 bound_to 10162
  156.1123  130.6258  150.9319 H   0  0  0  0  0  0  0  0  0  0  0  0  # atno 10718 bound_to 10713
  154.1220  135.6533  153.4905 H   0  0  0  0  0  0  0  0  0  0  0  0  # atno 10763 bound_to 10752
  153.0222  135.5272  154.7087 H   0  0  0  0  0  0  0  0  0  0  0  0  # atno 10764 bound_to 10752
  154.6297  135.2974  155.0201 H   0  0  0  0  0  0  0  0  0  0  0  0  # atno 10765 bound_to 10752
  139.8791  134.8884  156.3971 H   0  0  0  0  0  0  0  0  0  0  0  0  # atno 11005 bound_to 11000
  146.3419  139.9156  142.8774 LP  0  0  0  0  0  0  0  0  0  0  0  0  # atno 17320 bound_to 7965
  145.2358  140.9990  143.3964 LP  0  0  0  0  0  0  0  0  0  0  0  0  # atno 17321 bound_to 7965
  139.5114  144.6900  151.5786 LP  0  0  0  0  0  0  0  0  0  0  0  0  # atno 17342 bound_to 10162
  140.6193  143.9288  150.6513 LP  0  0  0  0  0  0  0  0  0  0  0  0  # atno 17343 bound_to 10162
  157.6305  131.0921  150.8451 LP  0  0  0  0  0  0  0  0  0  0  0  0  # atno 17370 bound_to 10713
  156.8560  130.5096  149.5308 LP  0  0  0  0  0  0  0  0  0  0  0  0  # atno 17371 bound_to 10713
  140.9293  133.7590  156.0004 LP  0  0  0  0  0  0  0  0  0  0  0  0  # atno 17394 bound_to 11000
  140.8349  134.3134  157.5335 LP  0  0  0  0  0  0  0  0  0  0  0  0  # atno 17395 bound_to 11000

$$$$
