AV-unprocessed.smi:1868|AV-procd|sdf|7587|dock3
  -GOLD-   22720 9293D 1   1.00000     0.00000
 Structure written by MMmdl.
 47 49  0  0  0  0  0  0  0  0  2 V2000
  151.8167  136.3491  156.8291 C   0  0  0  0  0  0  0  0  0  0  0  0
  150.3948  136.7571  156.6079 C   0  0  0  0  0  0  0  0  0  0  0  0
  149.4204  135.8665  156.4245 N   0  0  0  0  0  0  0  0  0  0  0  0
  148.3032  136.6656  156.2759 C   0  0  0  0  0  0  0  0  0  0  0  0
  146.9506  136.3215  156.0538 C   0  0  0  0  0  0  0  0  0  0  0  0
  145.9694  137.3269  155.9314 C   0  0  0  0  0  0  0  0  0  0  0  0
  146.3255  138.6876  156.0284 C   0  0  0  0  0  0  0  0  0  0  0  0
  147.6673  139.0525  156.2500 C   0  0  0  0  0  0  0  0  0  0  0  0
  148.6431  138.0451  156.3722 C   0  0  0  0  0  0  0  0  0  0  0  0
  150.0185  138.0594  156.5858 N   0  0  0  0  0  0  0  0  0  0  0  0
  150.8585  139.2379  156.7535 C   0  0  0  0  0  0  0  0  0  0  0  0
  151.6438  139.2277  158.0804 C   0  0  1  0  0  0  0  0  0  0  0  0
  153.0185  139.4331  157.8167 O   0  0  0  0  0  0  0  0  0  0  0  0
  151.1571  140.3347  159.0364 C   0  0  0  0  0  0  0  0  0  0  0  0
  151.1227  141.6748  158.3953 N   0  3  2  0  0  0  0  0  0  0  0  0
  151.6408  142.7616  159.2682 C   0  0  0  0  0  0  0  0  0  0  0  0
  151.7060  144.1000  158.5104 C   0  0  0  0  0  0  0  0  0  0  0  0
  150.3470  144.4949  157.9041 C   0  0  2  0  0  0  0  0  0  0  0  0
  149.3431  144.9863  158.9618 C   0  0  0  0  0  0  0  0  0  0  0  0
  149.8034  143.3251  157.0643 C   0  0  0  0  0  0  0  0  0  0  0  0
  149.7795  142.0035  157.8527 C   0  0  0  0  0  0  0  0  0  0  0  0
  151.9180  135.2653  156.7602 H   0  0  0  0  0  0  0  0  0  0  0  0
  152.1483  136.6613  157.8195 H   0  0  0  0  0  0  0  0  0  0  0  0
  152.4649  136.8015  156.0788 H   0  0  0  0  0  0  0  0  0  0  0  0
  146.6675  135.2821  155.9782 H   0  0  0  0  0  0  0  0  0  0  0  0
  144.9383  137.0525  155.7622 H   0  0  0  0  0  0  0  0  0  0  0  0
  145.5673  139.4512  155.9331 H   0  0  0  0  0  0  0  0  0  0  0  0
  147.9418  140.0943  156.3238 H   0  0  0  0  0  0  0  0  0  0  0  0
  151.5447  139.2959  155.9074 H   0  0  0  0  0  0  0  0  0  0  0  0
  150.2314  140.1277  156.6918 H   0  0  0  0  0  0  0  0  0  0  0  0
  151.5317  138.2484  158.5434 H   0  0  0  0  0  0  0  0  0  0  0  0
  153.4925  138.6540  158.0675 H   0  0  0  0  0  0  0  0  0  0  0  0
  150.1577  140.0689  159.3850 H   0  0  0  0  0  0  0  0  0  0  0  0
  151.7865  140.3777  159.9267 H   0  0  0  0  0  0  0  0  0  0  0  0
  151.0088  142.8543  160.1524 H   0  0  0  0  0  0  0  0  0  0  0  0
  152.6397  142.5165  159.6267 H   0  0  0  0  0  0  0  0  0  0  0  0
  152.0677  144.8883  159.1717 H   0  0  0  0  0  0  0  0  0  0  0  0
  152.4432  144.0166  157.7105 H   0  0  0  0  0  0  0  0  0  0  0  0
  150.5178  145.3340  157.2282 H   0  0  0  0  0  0  0  0  0  0  0  0
  149.1043  144.2153  159.6935 H   0  0  0  0  0  0  0  0  0  0  0  0
  148.4077  145.2989  158.4968 H   0  0  0  0  0  0  0  0  0  0  0  0
  149.7388  145.8447  159.5056 H   0  0  0  0  0  0  0  0  0  0  0  0
  148.8049  143.5579  156.6926 H   0  0  0  0  0  0  0  0  0  0  0  0
  150.4309  143.1972  156.1810 H   0  0  0  0  0  0  0  0  0  0  0  0
  149.4460  141.2046  157.1892 H   0  0  0  0  0  0  0  0  0  0  0  0
  149.0571  142.0555  158.6684 H   0  0  0  0  0  0  0  0  0  0  0  0
  151.7397  141.6171  157.5972 H   0  0  0  0  0  0  0  0  0  0  0  0
  1  2  1  0  0  0  0
  1 22  1  0  0  0  0
  1 23  1  0  0  0  0
  1 24  1  0  0  0  0
  2 10  1  0  0  0  0
  2  3  2  0  0  0  0
  3  4  1  0  0  0  0
  4  9  2  0  0  0  0
  4  5  1  0  0  0  0
  5  6  2  0  0  0  0
  5 25  1  0  0  0  0
  6  7  1  0  0  0  0
  6 26  1  0  0  0  0
  7  8  2  0  0  0  0
  7 27  1  0  0  0  0
  8  9  1  0  0  0  0
  8 28  1  0  0  0  0
  9 10  1  0  0  0  0
 10 11  1  0  0  0  0
 11 12  1  0  0  0  0
 11 29  1  0  0  0  0
 11 30  1  0  0  0  0
 12 13  1  0  0  0  0
 12 14  1  0  0  0  0
 12 31  1  0  0  0  0
 13 32  1  0  0  0  0
 14 15  1  0  0  0  0
 14 33  1  0  0  0  0
 14 34  1  0  0  0  0
 15 21  1  0  0  0  0
 15 16  1  0  0  0  0
 15 47  1  0  0  0  0
 16 17  1  0  0  0  0
 16 35  1  0  0  0  0
 16 36  1  0  0  0  0
 17 18  1  0  0  0  0
 17 37  1  0  0  0  0
 17 38  1  0  0  0  0
 18 19  1  0  0  0  0
 18 20  1  0  0  0  0
 18 39  1  0  0  0  0
 19 40  1  0  0  0  0
 19 41  1  0  0  0  0
 19 42  1  0  0  0  0
 20 21  1  0  0  0  0
 20 43  1  0  0  0  0
 20 44  1  0  0  0  0
 21 45  1  0  0  0  0
 21 46  1  0  0  0  0
M  CHG  1  15   1
M  END
> <s_m_source_file>
AV-unprocessed.smi

> <i_m_source_file_index>
1868

> <i_lp_mmshare_version>
43012

> <i_f3d_flags>
0

> <s_epik_input>
W2NIXTFbY0hdW2NIXVtjSF1jKGMxMiluKGMobjIpW0NIM10pW0NIMl1bQ0BIXShbT0hdKVtDSDJdTjNbQ0gyXVtDSDJdW0NIXShbQ0gzXSlbQ0gyXVtDSDJdMw==

> <s_epik_cmdline>
J2VwaWtfcHl0aG9uJywgJy1waCcsICc3LjAnLCAnLXRuJywgJzgnLCAnLW1hJywgJzIwMCcsICctbWV0YWxfYmluZGluZycsICctaW1hZScsICc8aW5maWxlLm1hZT4nLCAnLW9tYWUnLCAnPG91dGZpbGUubWFlPic=

> <r_epik_Ionization_Penalty>
0.101157

> <r_epik_Ionization_Penalty_Charging>
0.00181365

> <r_epik_Ionization_Penalty_Neutral>
0.0993436

> <r_epik_State_Penalty>
0.0871902

> <r_epik_Charging_Adjusted_Penalty>
0.0890039

> <i_epik_Tot_Q>
1

> <i_epik_Tot_abs_Q>
1

> <r_epik_Metal_State_Penalty>
9.24346e-05

> <b_epik_Metal_Only>
0

> <s_lp_Force_Field>
OPLS_2005

> <r_lp_Energy>
23.8168

> <b_lp_Chiralities_Consistent>
1

> <s_lp_Variant>
AV-unprocessed.smi:1868-4

> <Gold.Version>
5.8.1

> <Gold.Id.Protein>
6NUR|6NUR_protein|mol2

> <Gold.PLP.Fitness>
49.8661

> <Gold.PLP.PLP>
-49.3513

> <Gold.PLP.part.hbond>
-1.0000

> <Gold.PLP.part.metal>
0.0000

> <Gold.PLP.part.buried>
-3.0143

> <Gold.PLP.part.nonpolar>
-48.0519

> <Gold.PLP.part.repulsive>
2.2586

> <Gold.PLP.ligand.clash>
0.0000

> <Gold.PLP.ligand.torsion>
1.3038

> <Gold.PLP.Chemscore.Hbond>
1.0000

> <Gold.PLP.Chemscore.CHOScore>
0.0000

> <Gold.PLP.Chemscore.Metal>
0.0000

> <Gold.Chemscore.Hbonds>
donor molecule, donor type, donor heavy atom, donor atom, acceptor molecule, acceptor atom, score
      P1  H  7997  8010       L1    13  0.65

> <Gold.PLP.Chemscore.Internal.Correction>
0.1224

> <Gold.Rescore>
     Score         DG    S(hbond)    S(metal)    S(lipo)     H(rot)  DE(clash)    DE(int)     intcor
     16.82     -19.03       0.74        0.00     136.62       1.92       0.47       1.74       ----

> <Gold.Chemscore.Fitness>
16.8179

> <Gold.Chemscore.DG>
-19.0298

> <Gold.Chemscore.ZeroCoef>
-5.4800

> <Gold.Chemscore.Hbond>
0.7425

> <Gold.Chemscore.Metal>
0.0000

> <Gold.Chemscore.Lipo>
136.6198

> <Gold.Chemscore.Internal_Hbond>
0.0000

> <Gold.Chemscore.DEClash>
0.4738

> <Gold.Chemscore.DEInternal>
1.7381

> <Gold.Chemscore.Rot>
1.9198

> <Gold.Chemscore.Internal.Correction>
   9.000000E+99

> <Gold.Chemscore.Hbonds>
donor molecule, donor type, donor heavy atom, donor atom, acceptor molecule, acceptor atom, score
      P1  H  7997  8010       L1    13  0.06

> <Gold.Chemscore.Hbond.Weighted>
-2.4800

> <Gold.Chemscore.Metal.Weighted>
-0.0000

> <Gold.Chemscore.Lipo.Weighted>
-15.9845

> <Gold.Chemscore.Internal_Hbond.Weighted>
0.0000

> <Gold.Chemscore.DEClash.Weighted>
0.4738

> <Gold.Chemscore.DEInternal.Weighted>
1.7381

> <Gold.Chemscore.Rot.Weighted>
4.9147

> <Gold.Chemscore.Internal.Correction.Weighted>
   9.000000E+99

> <Gold.Protein.RotatedTorsions>
[ 6907 6896 6895 6894 ] final   43.92 input  -60.11 | X-H torsion
[ 7974 7965 7964 7962 ] final   10.47 input  175.53 | X-H torsion
[ 8008 7997 7996 7995 ] final   53.87 input   59.86 | X-H torsion
[ 10167 10162 10161 10158 ] final   26.78 input  -65.29 | X-H torsion
[ 10718 10713 10712 10709 ] final  -37.57 input   66.30 | X-H torsion
[ 10763 10752 10751 10750 ] final   22.10 input  -60.55 | X-H torsion
[ 11005 11000 10999 10996 ] final  109.94 input  -57.11 | X-H torsion

> <Gold.Protein.ActiveResidues>
 VAL166  LYS551  ARG553  GLY616  TRP617  ASP618  TYR619  PRO620  LYS621  CYS622 
 ASP623  PHE694  ASN695  SER759  ASP760  ASP761  ALA762  ILE779  LEU786  VAL792 
 PHE793  MET794  SER795  GLU796  ALA797  LYS798  CYS799  TRP800  GLU811  SER814 

> <Gold.Protein.RotatedAtoms>
  152.2262  134.8365  160.0479 H   0  0  0  0  0  0  0  0  0  0  0  0  # atno 6907 bound_to 6896
  151.9131  133.3561  159.3878 H   0  0  0  0  0  0  0  0  0  0  0  0  # atno 6908 bound_to 6896
  150.7013  134.4637  159.5437 H   0  0  0  0  0  0  0  0  0  0  0  0  # atno 6909 bound_to 6896
  146.2388  139.9630  142.8456 H   0  0  0  0  0  0  0  0  0  0  0  0  # atno 7974 bound_to 7965
  155.4754  140.3466  155.4332 H   0  0  0  0  0  0  0  0  0  0  0  0  # atno 8008 bound_to 7997
  156.1073  140.1451  156.9415 H   0  0  0  0  0  0  0  0  0  0  0  0  # atno 8009 bound_to 7997
  154.4733  140.0893  156.7178 H   0  0  0  0  0  0  0  0  0  0  0  0  # atno 8010 bound_to 7997
  140.4994  144.0340  150.6327 H   0  0  0  0  0  0  0  0  0  0  0  0  # atno 10167 bound_to 10162
  156.3137  130.4256  149.8025 H   0  0  0  0  0  0  0  0  0  0  0  0  # atno 10718 bound_to 10713
  153.0942  135.6655  153.9794 H   0  0  0  0  0  0  0  0  0  0  0  0  # atno 10763 bound_to 10752
  153.9383  135.2996  155.3445 H   0  0  0  0  0  0  0  0  0  0  0  0  # atno 10764 bound_to 10752
  154.7360  135.5101  153.9116 H   0  0  0  0  0  0  0  0  0  0  0  0  # atno 10765 bound_to 10752
  139.8872  134.9471  156.6202 H   0  0  0  0  0  0  0  0  0  0  0  0  # atno 11005 bound_to 11000
  145.1753  140.9741  143.4298 LP  0  0  0  0  0  0  0  0  0  0  0  0  # atno 17320 bound_to 7965
  144.9991  139.3615  143.6176 LP  0  0  0  0  0  0  0  0  0  0  0  0  # atno 17321 bound_to 7965
  140.3631  143.2896  152.0361 LP  0  0  0  0  0  0  0  0  0  0  0  0  # atno 17342 bound_to 10162
  139.4868  144.6287  151.7112 LP  0  0  0  0  0  0  0  0  0  0  0  0  # atno 17343 bound_to 10162
  156.5359  130.8278  151.3253 LP  0  0  0  0  0  0  0  0  0  0  0  0  # atno 17370 bound_to 10713
  157.7397  130.9836  150.2329 LP  0  0  0  0  0  0  0  0  0  0  0  0  # atno 17371 bound_to 10713
  140.7745  133.8711  155.8518 LP  0  0  0  0  0  0  0  0  0  0  0  0  # atno 17394 bound_to 11000
  140.9814  134.1401  157.4491 LP  0  0  0  0  0  0  0  0  0  0  0  0  # atno 17395 bound_to 11000

$$$$
