AV-unprocessed.smi:2999|AV-procd|sdf|11426|dock9
  -GOLD-   2272016353D 1   1.00000     0.00000
 Structure written by MMmdl.
 37 39  0  0  0  0  0  0  0  0  3 V2000
  150.5475  136.7372  156.3512 O   0  0  0  0  0  0  0  0  0  0  0  0
  150.2261  136.9151  155.1743 C   0  0  0  0  0  0  0  0  0  0  0  0
  149.8870  135.8710  154.4062 N   0  0  0  0  0  0  0  0  0  0  0  0
  149.9090  134.4660  154.8031 C   0  0  0  0  0  0  0  0  0  0  0  0
  148.6788  133.6782  154.3052 C   0  0  1  0  0  0  0  0  0  0  0  0
  148.8812  133.0134  152.9220 C   0  0  0  0  0  0  0  0  0  0  0  0
  147.6972  132.2175  152.5220 N   0  3  2  0  0  0  0  0  0  0  0  0
  146.5691  133.0434  152.0321 C   0  0  0  0  0  0  0  0  0  0  0  0
  145.6575  132.3141  151.0733 C   0  0  0  0  0  0  0  0  0  0  0  0
  146.6367  133.3424  150.5529 C   0  0  0  0  0  0  0  0  0  0  0  0
  147.3122  131.2669  153.5915 C   0  0  0  0  0  0  0  0  0  0  0  0
  147.1469  131.9837  154.9434 C   0  0  0  0  0  0  0  0  0  0  0  0
  148.3421  132.6818  155.2655 O   0  0  0  0  0  0  0  0  0  0  0  0
  150.1794  138.0997  154.5251 N   0  5  0  0  0  0  0  0  0  0  0  0
  150.1282  139.2460  155.2230 C   0  0  0  0  0  0  0  0  0  0  0  0
  150.1566  140.4523  154.6449 N   0  0  0  0  0  0  0  0  0  0  0  0
  150.0864  141.5067  155.5573 C   0  0  0  0  0  0  0  0  0  0  0  0
  149.9955  141.0934  156.8600 C   0  0  0  0  0  0  0  0  0  0  0  0
  149.9939  139.3569  156.9803 S   0  0  0  0  0  0  0  0  0  0  0  0
  149.6186  136.0711  153.4538 H   0  0  0  0  0  0  0  0  0  0  0  0
  150.8318  133.9875  154.4714 H   0  0  0  0  0  0  0  0  0  0  0  0
  149.9311  134.4429  155.8927 H   0  0  0  0  0  0  0  0  0  0  0  0
  147.8483  134.3837  154.2503 H   0  0  0  0  0  0  0  0  0  0  0  0
  149.1084  133.7613  152.1616 H   0  0  0  0  0  0  0  0  0  0  0  0
  149.7329  132.3328  152.9511 H   0  0  0  0  0  0  0  0  0  0  0  0
  146.1620  133.7804  152.7215 H   0  0  0  0  0  0  0  0  0  0  0  0
  145.8663  131.2677  150.8582 H   0  0  0  0  0  0  0  0  0  0  0  0
  144.6040  132.5864  151.0766 H   0  0  0  0  0  0  0  0  0  0  0  0
  146.2294  134.2929  150.2141 H   0  0  0  0  0  0  0  0  0  0  0  0
  147.4957  132.9783  149.9917 H   0  0  0  0  0  0  0  0  0  0  0  0
  146.3977  130.7390  153.3188 H   0  0  0  0  0  0  0  0  0  0  0  0
  148.0940  130.5111  153.6778 H   0  0  0  0  0  0  0  0  0  0  0  0
  146.3006  132.6718  154.9283 H   0  0  0  0  0  0  0  0  0  0  0  0
  146.9461  131.2554  155.7291 H   0  0  0  0  0  0  0  0  0  0  0  0
  150.1066  142.5221  155.1907 H   0  0  0  0  0  0  0  0  0  0  0  0
  149.9285  141.6993  157.7507 H   0  0  0  0  0  0  0  0  0  0  0  0
  147.9843  131.6578  151.7317 H   0  0  0  0  0  0  0  0  0  0  0  0
  1  2  2  0  0  0  0
  2  3  1  0  0  0  0
  2 14  1  0  0  0  0
  3  4  1  0  0  0  0
  3 20  1  0  0  0  0
  4  5  1  0  0  0  0
  4 21  1  0  0  0  0
  4 22  1  0  0  0  0
  5 13  1  0  0  0  0
  5  6  1  0  0  0  0
  5 23  1  0  0  0  0
  6  7  1  0  0  0  0
  6 24  1  0  0  0  0
  6 25  1  0  0  0  0
  7  8  1  0  0  0  0
  7 11  1  0  0  0  0
  7 37  1  0  0  0  0
  8 10  1  0  0  0  0
  8  9  1  0  0  0  0
  8 26  1  0  0  0  0
  9 10  1  0  0  0  0
  9 27  1  0  0  0  0
  9 28  1  0  0  0  0
 10 29  1  0  0  0  0
 10 30  1  0  0  0  0
 11 12  1  0  0  0  0
 11 31  1  0  0  0  0
 11 32  1  0  0  0  0
 12 13  1  0  0  0  0
 12 33  1  0  0  0  0
 12 34  1  0  0  0  0
 14 15  1  0  0  0  0
 15 19  1  0  0  0  0
 15 16  2  0  0  0  0
 16 17  1  0  0  0  0
 17 18  2  0  0  0  0
 17 35  1  0  0  0  0
 18 19  1  0  0  0  0
 18 36  1  0  0  0  0
M  CHG  1   7   1
M  CHG  1  14  -1
M  END
> <s_m_source_file>
AV-unprocessed.smi

> <i_m_source_file_index>
2999

> <i_lp_mmshare_version>
43012

> <i_f3d_flags>
0

> <s_epik_input>
czFbY0hdW2NIXW5jMVtOSF1DKD1PKVtOSF1bQ0gyXVtDQEBIXTJbQ0gyXU4oW0NIMl1bQ0gyXU8yKVtDSF0zW0NIMl1bQ0gyXTM=

> <s_epik_cmdline>
J2VwaWtfcHl0aG9uJywgJy1waCcsICc3LjAnLCAnLXRuJywgJzgnLCAnLW1hJywgJzIwMCcsICctbWV0YWxfYmluZGluZycsICctaW1hZScsICc8aW5maWxlLm1hZT4nLCAnLW9tYWUnLCAnPG91dGZpbGUubWFlPic=

> <r_lp_tautomer_probability>
0.999

> <r_epik_Ionization_Penalty>
7.79196

> <r_epik_Ionization_Penalty_Charging>
6.93299

> <r_epik_Ionization_Penalty_Neutral>
0.858963

> <r_epik_State_Penalty>
7.05108

> <r_epik_Charging_Adjusted_Penalty>
13.9841

> <i_epik_Tot_Q>
0

> <i_epik_Tot_abs_Q>
2

> <r_epik_Metal_State_Penalty>
3.05936

> <b_epik_Metal_Only>
1

> <s_lp_Force_Field>
OPLS_2005

> <r_lp_Energy>
16.0159

> <b_lp_Chiralities_Consistent>
1

> <s_lp_Variant>
AV-unprocessed.smi:2999-10

> <Gold.Version>
5.8.1

> <Gold.Id.Protein>
6NUR|6NUR_protein|mol2

> <Gold.PLP.Fitness>
39.2268

> <Gold.PLP.PLP>
-28.6512

> <Gold.PLP.part.hbond>
-3.6087

> <Gold.PLP.part.metal>
0.0000

> <Gold.PLP.part.buried>
-5.3661

> <Gold.PLP.part.nonpolar>
-20.5314

> <Gold.PLP.part.repulsive>
0.3688

> <Gold.PLP.ligand.clash>
0.0000

> <Gold.PLP.ligand.torsion>
1.2604

> <Gold.PLP.Chemscore.Hbond>
2.9440

> <Gold.PLP.Chemscore.CHOScore>
0.9991

> <Gold.PLP.Chemscore.Metal>
0.0000

> <Gold.Chemscore.Hbonds>
donor molecule, donor type, donor heavy atom, donor atom, acceptor molecule, acceptor atom, score
      L1  H     3    20       P1  7948  1.00
      L1  H     7    37       P1 10747  1.00
      P1  H  7989  7998       L1    16  0.96
      L1  C    17    35       P1  8028  0.95

> <Gold.PLP.Chemscore.Internal.Correction>
1.2670

> <Gold.Rescore>
     Score         DG    S(hbond)    S(metal)    S(lipo)     H(rot)  DE(clash)    DE(int)     intcor
     13.74     -16.61       2.32        0.00      62.89       1.55       0.05       2.82       ----

> <Gold.Chemscore.Fitness>
13.7399

> <Gold.Chemscore.DG>
-16.6101

> <Gold.Chemscore.ZeroCoef>
-5.4800

> <Gold.Chemscore.Hbond>
2.3177

> <Gold.Chemscore.Metal>
0.0000

> <Gold.Chemscore.Lipo>
62.8887

> <Gold.Chemscore.Internal_Hbond>
0.0000

> <Gold.Chemscore.DEClash>
0.0465

> <Gold.Chemscore.DEInternal>
2.8237

> <Gold.Chemscore.Rot>
1.5504

> <Gold.Chemscore.Internal.Correction>
   9.000000E+99

> <Gold.Chemscore.Hbonds>
donor molecule, donor type, donor heavy atom, donor atom, acceptor molecule, acceptor atom, score
      L1  H     3    20       P1  7948  0.26
      L1  H     7    37       P1 10747  0.99
      P1  H  7989  7998       L1    16  0.45

> <Gold.Chemscore.Hbond.Weighted>
-7.7412

> <Gold.Chemscore.Metal.Weighted>
-0.0000

> <Gold.Chemscore.Lipo.Weighted>
-7.3580

> <Gold.Chemscore.Internal_Hbond.Weighted>
0.0000

> <Gold.Chemscore.DEClash.Weighted>
0.0465

> <Gold.Chemscore.DEInternal.Weighted>
2.8237

> <Gold.Chemscore.Rot.Weighted>
3.9690

> <Gold.Chemscore.Internal.Correction.Weighted>
   9.000000E+99

> <Gold.Protein.RotatedTorsions>
[ 6907 6896 6895 6894 ] final -136.90 input  -60.11 | X-H torsion
[ 7974 7965 7964 7962 ] final   79.56 input  175.53 | X-H torsion
[ 8008 7997 7996 7995 ] final   70.71 input   59.86 | X-H torsion
[ 10167 10162 10161 10158 ] final -138.64 input  -65.29 | X-H torsion
[ 10718 10713 10712 10709 ] final -176.29 input   66.30 | X-H torsion
[ 10763 10752 10751 10750 ] final   12.30 input  -60.55 | X-H torsion
[ 11005 11000 10999 10996 ] final -134.70 input  -57.11 | X-H torsion

> <Gold.Protein.ActiveResidues>
 VAL166  LYS551  ARG553  GLY616  TRP617  ASP618  TYR619  PRO620  LYS621  CYS622 
 ASP623  PHE694  ASN695  SER759  ASP760  ASP761  ALA762  ILE779  LEU786  VAL792 
 PHE793  MET794  SER795  GLU796  ALA797  LYS798  CYS799  TRP800  GLU811  SER814 

> <Gold.Protein.RotatedAtoms>
  151.0158  133.5923  159.2676 H   0  0  0  0  0  0  0  0  0  0  0  0  # atno 6907 bound_to 6896
  151.3058  135.0780  159.9264 H   0  0  0  0  0  0  0  0  0  0  0  0  # atno 6908 bound_to 6896
  152.5311  133.9831  159.7870 H   0  0  0  0  0  0  0  0  0  0  0  0  # atno 6909 bound_to 6896
  145.6625  139.2475  143.1914 H   0  0  0  0  0  0  0  0  0  0  0  0  # atno 7974 bound_to 7965
  155.7429  140.3490  155.5113 H   0  0  0  0  0  0  0  0  0  0  0  0  # atno 8008 bound_to 7997
  155.9077  140.1045  157.1324 H   0  0  0  0  0  0  0  0  0  0  0  0  # atno 8009 bound_to 7997
  154.4052  140.1274  156.4505 H   0  0  0  0  0  0  0  0  0  0  0  0  # atno 8010 bound_to 7997
  139.8458  143.7263  152.2661 H   0  0  0  0  0  0  0  0  0  0  0  0  # atno 10167 bound_to 10162
  156.8125  130.9591  151.3115 H   0  0  0  0  0  0  0  0  0  0  0  0  # atno 10718 bound_to 10713
  153.1837  135.6832  153.8444 H   0  0  0  0  0  0  0  0  0  0  0  0  # atno 10763 bound_to 10752
  153.7767  135.3188  155.3361 H   0  0  0  0  0  0  0  0  0  0  0  0  # atno 10764 bound_to 10752
  154.8075  135.4739  154.0527 H   0  0  0  0  0  0  0  0  0  0  0  0  # atno 10765 bound_to 10752
  140.8966  134.1744  157.4490 H   0  0  0  0  0  0  0  0  0  0  0  0  # atno 11005 bound_to 11000
  146.1113  140.7425  142.9502 LP  0  0  0  0  0  0  0  0  0  0  0  0  # atno 17320 bound_to 7965
  144.7084  140.3943  143.7100 LP  0  0  0  0  0  0  0  0  0  0  0  0  # atno 17321 bound_to 7965
  139.7514  144.7533  151.0501 LP  0  0  0  0  0  0  0  0  0  0  0  0  # atno 17342 bound_to 10162
  140.7793  143.4856  150.9961 LP  0  0  0  0  0  0  0  0  0  0  0  0  # atno 17343 bound_to 10162
  157.6499  130.8875  149.9611 LP  0  0  0  0  0  0  0  0  0  0  0  0  # atno 17370 bound_to 10713
  156.1036  130.3654  150.0173 LP  0  0  0  0  0  0  0  0  0  0  0  0  # atno 17371 bound_to 10713
  139.8736  134.9881  156.5396 LP  0  0  0  0  0  0  0  0  0  0  0  0  # atno 17394 bound_to 11000
  140.8282  133.8300  155.8959 LP  0  0  0  0  0  0  0  0  0  0  0  0  # atno 17395 bound_to 11000

$$$$
