AV-unprocessed.smi:2478|AV-procd|sdf|9766|dock7
  -GOLD-   2272013413D 1   1.00000     0.00000
 Structure written by MMmdl.
 42 43  0  0  0  0  0  0  0  0  1 V2000
  153.7797  140.7284  159.7024 C   0  0  0  0  0  0  0  0  0  0  0  0
  152.8153  141.8581  160.0993 C   0  0  1  0  0  0  0  0  0  0  0  0
  153.4650  142.7817  161.1500 C   0  0  0  0  0  0  0  0  0  0  0  0
  152.5316  143.9324  161.5560 C   0  0  0  0  0  0  0  0  0  0  0  0
  152.0856  144.7397  160.3292 C   0  0  0  0  0  0  0  0  0  0  0  0
  151.4214  143.8292  159.2869 C   0  0  0  0  0  0  0  0  0  0  0  0
  152.3525  142.6716  158.8695 C   0  0  2  0  0  0  0  0  0  0  0  0
  151.6400  141.7995  158.0018 O   0  0  0  0  0  0  0  0  0  0  0  0
  151.0991  142.4370  156.8532 C   0  0  0  0  0  0  0  0  0  0  0  0
  150.6454  141.3636  155.8679 C   0  0  0  0  0  0  0  0  0  0  0  0
  151.4673  140.5687  155.4122 O   0  0  0  0  0  0  0  0  0  0  0  0
  149.3370  141.3856  155.5546 N   0  0  0  0  0  0  0  0  0  0  0  0
  148.6202  140.5329  154.6721 C   0  0  0  0  0  0  0  0  0  0  0  0
  148.9528  139.2342  154.4645 N   0  0  0  0  0  0  0  0  0  0  0  0
  148.2175  138.4913  153.6128 C   0  0  0  0  0  0  0  0  0  0  0  0
  147.1047  138.9961  152.9188 C   0  0  0  0  0  0  0  0  0  0  0  0
  146.7496  140.3405  153.1238 C   0  0  0  0  0  0  0  0  0  0  0  0
  147.5210  141.1327  154.0073 C   0  0  0  0  0  0  0  0  0  0  0  0
  147.2190  142.4526  154.2650 O   0  0  0  0  0  0  0  0  0  0  0  0
  145.9435  142.7866  154.5965 C   0  0  0  0  0  0  0  0  0  0  0  0
  145.8737  143.1534  155.8997 F   0  0  0  0  0  0  0  0  0  0  0  0
  145.5387  143.8424  153.8503 F   0  0  0  0  0  0  0  0  0  0  0  0
  154.6774  141.1238  159.2262 H   0  0  0  0  0  0  0  0  0  0  0  0
  153.3124  140.0332  159.0044 H   0  0  0  0  0  0  0  0  0  0  0  0
  154.0920  140.1542  160.5750 H   0  0  0  0  0  0  0  0  0  0  0  0
  151.9359  141.3995  160.5544 H   0  0  0  0  0  0  0  0  0  0  0  0
  153.7371  142.2058  162.0352 H   0  0  0  0  0  0  0  0  0  0  0  0
  154.3942  143.1936  160.7537 H   0  0  0  0  0  0  0  0  0  0  0  0
  151.6564  143.5309  162.0685 H   0  0  0  0  0  0  0  0  0  0  0  0
  153.0349  144.5862  162.2688 H   0  0  0  0  0  0  0  0  0  0  0  0
  151.3930  145.5254  160.6323 H   0  0  0  0  0  0  0  0  0  0  0  0
  152.9470  145.2394  159.8843 H   0  0  0  0  0  0  0  0  0  0  0  0
  150.4966  143.4226  159.6991 H   0  0  0  0  0  0  0  0  0  0  0  0
  151.1350  144.4231  158.4193 H   0  0  0  0  0  0  0  0  0  0  0  0
  153.2362  143.0711  158.3674 H   0  0  0  0  0  0  0  0  0  0  0  0
  150.2434  143.0615  157.1107 H   0  0  0  0  0  0  0  0  0  0  0  0
  151.8514  143.0772  156.3895 H   0  0  0  0  0  0  0  0  0  0  0  0
  148.7856  142.1013  156.0055 H   0  0  0  0  0  0  0  0  0  0  0  0
  148.5239  137.4637  153.4840 H   0  0  0  0  0  0  0  0  0  0  0  0
  146.5367  138.3673  152.2493 H   0  0  0  0  0  0  0  0  0  0  0  0
  145.8920  140.7478  152.6092 H   0  0  0  0  0  0  0  0  0  0  0  0
  145.2505  141.9647  154.4146 H   0  0  0  0  0  0  0  0  0  0  0  0
  1  2  1  0  0  0  0
  1 23  1  0  0  0  0
  1 24  1  0  0  0  0
  1 25  1  0  0  0  0
  2  7  1  0  0  0  0
  2  3  1  0  0  0  0
  2 26  1  0  0  0  0
  3  4  1  0  0  0  0
  3 27  1  0  0  0  0
  3 28  1  0  0  0  0
  4  5  1  0  0  0  0
  4 29  1  0  0  0  0
  4 30  1  0  0  0  0
  5  6  1  0  0  0  0
  5 31  1  0  0  0  0
  5 32  1  0  0  0  0
  6  7  1  0  0  0  0
  6 33  1  0  0  0  0
  6 34  1  0  0  0  0
  7  8  1  0  0  0  0
  7 35  1  0  0  0  0
  8  9  1  0  0  0  0
  9 10  1  0  0  0  0
  9 36  1  0  0  0  0
  9 37  1  0  0  0  0
 10 11  2  0  0  0  0
 10 12  1  0  0  0  0
 12 13  1  0  0  0  0
 12 38  1  0  0  0  0
 13 18  1  0  0  0  0
 13 14  2  0  0  0  0
 14 15  1  0  0  0  0
 15 16  2  0  0  0  0
 15 39  1  0  0  0  0
 16 17  1  0  0  0  0
 16 40  1  0  0  0  0
 17 18  2  0  0  0  0
 17 41  1  0  0  0  0
 18 19  1  0  0  0  0
 19 20  1  0  0  0  0
 20 21  1  0  0  0  0
 20 22  1  0  0  0  0
 20 42  1  0  0  0  0
M  END
> <s_m_source_file>
AV-unprocessed.smi

> <i_m_source_file_index>
2478

> <i_lp_mmshare_version>
43012

> <i_f3d_flags>
0

> <s_epik_input>
W0NIM11bQ0BASF0xW0NIMl1bQ0gyXVtDSDJdW0NIMl1bQ0BIXTFPW0NIMl1DKD1PKVtOSF1jMm5bY0hdW2NIXVtjSF1jMk9bQ0hdKEYpRg==

> <s_epik_cmdline>
J2VwaWtfcHl0aG9uJywgJy1waCcsICc3LjAnLCAnLXRuJywgJzgnLCAnLW1hJywgJzIwMCcsICctbWV0YWxfYmluZGluZycsICctaW1hZScsICc8aW5maWxlLm1hZT4nLCAnLW9tYWUnLCAnPG91dGZpbGUubWFlPic=

> <r_lp_tautomer_probability>
1

> <r_epik_Ionization_Penalty>
6.06012e-05

> <r_epik_Ionization_Penalty_Charging>
0

> <r_epik_Ionization_Penalty_Neutral>
6.06012e-05

> <r_epik_State_Penalty>
-0

> <r_epik_Charging_Adjusted_Penalty>
0

> <i_epik_Tot_Q>
0

> <i_epik_Tot_abs_Q>
0

> <r_epik_Metal_State_Penalty>
-0

> <b_epik_Metal_Only>
0

> <s_lp_Force_Field>
OPLS_2005

> <r_lp_Energy>
13.1013

> <b_lp_Chiralities_Consistent>
1

> <s_lp_Variant>
AV-unprocessed.smi:2478-4

> <Gold.Version>
5.8.1

> <Gold.Id.Protein>
6NUR|6NUR_protein|mol2

> <Gold.PLP.Fitness>
51.8123

> <Gold.PLP.PLP>
-48.3189

> <Gold.PLP.part.hbond>
-1.0000

> <Gold.PLP.part.metal>
0.0000

> <Gold.PLP.part.buried>
-3.6505

> <Gold.PLP.part.nonpolar>
-43.9945

> <Gold.PLP.part.repulsive>
0.4549

> <Gold.PLP.ligand.clash>
0.0000

> <Gold.PLP.ligand.torsion>
1.0290

> <Gold.PLP.Chemscore.Hbond>
0.8247

> <Gold.PLP.Chemscore.CHOScore>
1.0000

> <Gold.PLP.Chemscore.Metal>
0.0000

> <Gold.Chemscore.Hbonds>
donor molecule, donor type, donor heavy atom, donor atom, acceptor molecule, acceptor atom, score
      P1  H  7989  7998       L1    11  0.82
      L1  C    15    39       P1  7948  1.00

> <Gold.PLP.Chemscore.Internal.Correction>
0.0772

> <Gold.Rescore>
     Score         DG    S(hbond)    S(metal)    S(lipo)     H(rot)  DE(clash)    DE(int)     intcor
     13.44     -16.88       0.76        0.00     116.12       1.85       1.77       1.67       ----

> <Gold.Chemscore.Fitness>
13.4432

> <Gold.Chemscore.DG>
-16.8799

> <Gold.Chemscore.ZeroCoef>
-5.4800

> <Gold.Chemscore.Hbond>
0.7620

> <Gold.Chemscore.Metal>
0.0000

> <Gold.Chemscore.Lipo>
116.1184

> <Gold.Chemscore.Internal_Hbond>
0.0000

> <Gold.Chemscore.DEClash>
1.7712

> <Gold.Chemscore.DEInternal>
1.6655

> <Gold.Chemscore.Rot>
1.8481

> <Gold.Chemscore.Internal.Correction>
   9.000000E+99

> <Gold.Chemscore.Hbonds>
donor molecule, donor type, donor heavy atom, donor atom, acceptor molecule, acceptor atom, score
      P1  H  7989  7998       L1    11  0.55

> <Gold.Chemscore.Hbond.Weighted>
-2.5452

> <Gold.Chemscore.Metal.Weighted>
-0.0000

> <Gold.Chemscore.Lipo.Weighted>
-13.5859

> <Gold.Chemscore.Internal_Hbond.Weighted>
0.0000

> <Gold.Chemscore.DEClash.Weighted>
1.7712

> <Gold.Chemscore.DEInternal.Weighted>
1.6655

> <Gold.Chemscore.Rot.Weighted>
4.7311

> <Gold.Chemscore.Internal.Correction.Weighted>
   9.000000E+99

> <Gold.Protein.RotatedTorsions>
[ 6907 6896 6895 6894 ] final  -55.33 input  -60.11 | X-H torsion
[ 7974 7965 7964 7962 ] final  -10.77 input  175.53 | X-H torsion
[ 8008 7997 7996 7995 ] final  132.09 input   59.86 | X-H torsion
[ 10167 10162 10161 10158 ] final -157.19 input  -65.29 | X-H torsion
[ 10718 10713 10712 10709 ] final   18.67 input   66.30 | X-H torsion
[ 10763 10752 10751 10750 ] final -155.45 input  -60.55 | X-H torsion
[ 11005 11000 10999 10996 ] final -126.59 input  -57.11 | X-H torsion

> <Gold.Protein.ActiveResidues>
 VAL166  LYS551  ARG553  GLY616  TRP617  ASP618  TYR619  PRO620  LYS621  CYS622 
 ASP623  PHE694  ASN695  SER759  ASP760  ASP761  ALA762  ILE779  LEU786  VAL792 
 PHE793  MET794  SER795  GLU796  ALA797  LYS798  CYS799  TRP800  GLU811  SER814 

> <Gold.Protein.RotatedAtoms>
  150.8261  134.7492  159.6813 H   0  0  0  0  0  0  0  0  0  0  0  0  # atno 6907 bound_to 6896
  152.4371  134.5661  159.9918 H   0  0  0  0  0  0  0  0  0  0  0  0  # atno 6908 bound_to 6896
  151.5833  133.3337  159.3049 H   0  0  0  0  0  0  0  0  0  0  0  0  # atno 6909 bound_to 6896
  146.2210  140.2813  142.8362 H   0  0  0  0  0  0  0  0  0  0  0  0  # atno 7974 bound_to 7965
  156.2978  140.2555  156.3032 H   0  0  0  0  0  0  0  0  0  0  0  0  # atno 8008 bound_to 7997
  154.9397  140.0396  157.2109 H   0  0  0  0  0  0  0  0  0  0  0  0  # atno 8009 bound_to 7997
  154.8138  140.2848  155.5839 H   0  0  0  0  0  0  0  0  0  0  0  0  # atno 8010 bound_to 7997
  139.6790  143.9614  152.2326 H   0  0  0  0  0  0  0  0  0  0  0  0  # atno 10167 bound_to 10162
  157.0995  130.6462  149.5869 H   0  0  0  0  0  0  0  0  0  0  0  0  # atno 10718 bound_to 10713
  154.7786  135.3167  154.8039 H   0  0  0  0  0  0  0  0  0  0  0  0  # atno 10763 bound_to 10752
  153.8757  135.6840  153.4775 H   0  0  0  0  0  0  0  0  0  0  0  0  # atno 10764 bound_to 10752
  153.1416  135.4737  154.9440 H   0  0  0  0  0  0  0  0  0  0  0  0  # atno 10765 bound_to 10752
  140.9669  134.0860  157.3911 H   0  0  0  0  0  0  0  0  0  0  0  0  # atno 11005 bound_to 11000
  144.9195  140.7851  143.5757 LP  0  0  0  0  0  0  0  0  0  0  0  0  # atno 17320 bound_to 7965
  145.2748  139.1940  143.4822 LP  0  0  0  0  0  0  0  0  0  0  0  0  # atno 17321 bound_to 7965
  139.9399  144.6688  150.8277 LP  0  0  0  0  0  0  0  0  0  0  0  0  # atno 17342 bound_to 10162
  140.7645  143.3251  151.2533 LP  0  0  0  0  0  0  0  0  0  0  0  0  # atno 17343 bound_to 10162
  155.9877  130.4917  150.7137 LP  0  0  0  0  0  0  0  0  0  0  0  0  # atno 17370 bound_to 10713
  157.4652  131.0887  151.0702 LP  0  0  0  0  0  0  0  0  0  0  0  0  # atno 17371 bound_to 10713
  139.8898  135.0107  156.6698 LP  0  0  0  0  0  0  0  0  0  0  0  0  # atno 17394 bound_to 11000
  140.7386  133.8997  155.8262 LP  0  0  0  0  0  0  0  0  0  0  0  0  # atno 17395 bound_to 11000

$$$$
