AV-unprocessed.smi:2667|AV-procd|sdf|10335|dock4
  -GOLD-   2272014353D 1   1.00000     0.00000
 Structure written by MMmdl.
 44 46  0  0  0  0  0  0  0  0  1 V2000
  144.0418  147.3960  156.3142 C   0  0  0  0  0  0  0  0  0  0  0  0
  142.9046  146.6964  155.5532 C   0  0  0  0  0  0  0  0  0  0  0  0
  143.3780  145.8605  154.3539 C   0  0  0  0  0  0  0  0  0  0  0  0
  142.9316  146.0949  153.2300 O   0  0  0  0  0  0  0  0  0  0  0  0
  144.3698  144.7787  154.6216 C   0  0  0  0  0  0  0  0  0  0  0  0
  144.6147  144.2949  155.9278 C   0  0  0  0  0  0  0  0  0  0  0  0
  145.5546  143.2694  156.1449 C   0  0  0  0  0  0  0  0  0  0  0  0
  146.2698  142.7023  155.0721 C   0  0  0  0  0  0  0  0  0  0  0  0
  147.1611  141.6959  155.3761 O   0  0  0  0  0  0  0  0  0  0  0  0
  148.0526  141.2579  154.3594 C   0  0  0  0  0  0  0  0  0  0  0  0
  149.3103  140.6712  155.0261 C   0  0  1  0  0  0  0  0  0  0  0  0
  150.0419  139.9647  154.0458 O   0  0  0  0  0  0  0  0  0  0  0  0
  150.2566  141.7361  155.6151 C   0  0  0  0  0  0  0  0  0  0  0  0
  151.1803  141.1908  156.5934 N   0  0  0  0  0  0  0  0  0  0  0  0
  151.8651  140.0348  156.5011 C   0  0  0  0  0  0  0  0  0  0  0  0
  152.6669  139.7185  157.5139 N   0  0  0  0  0  0  0  0  0  0  0  0
  152.4832  140.7966  158.3626 C   0  0  0  0  0  0  0  0  0  0  0  0
  153.0531  141.0771  159.6251 C   0  0  0  0  0  0  0  0  0  0  0  0
  152.7101  142.2573  160.3173 C   0  0  0  0  0  0  0  0  0  0  0  0
  151.7937  143.1727  159.7601 C   0  0  0  0  0  0  0  0  0  0  0  0
  151.2134  142.9151  158.5033 C   0  0  0  0  0  0  0  0  0  0  0  0
  151.5593  141.7373  157.8151 C   0  0  0  0  0  0  0  0  0  0  0  0
  146.0339  143.1925  153.7643 C   0  0  0  0  0  0  0  0  0  0  0  0
  145.0954  144.2194  153.5456 C   0  0  0  0  0  0  0  0  0  0  0  0
  143.6432  147.9878  157.1381 H   0  0  0  0  0  0  0  0  0  0  0  0
  144.5996  148.0713  155.6640 H   0  0  0  0  0  0  0  0  0  0  0  0
  144.7430  146.6750  156.7361 H   0  0  0  0  0  0  0  0  0  0  0  0
  142.3587  146.0462  156.2372 H   0  0  0  0  0  0  0  0  0  0  0  0
  142.2006  147.4483  155.1958 H   0  0  0  0  0  0  0  0  0  0  0  0
  144.0926  144.6953  156.7838 H   0  0  0  0  0  0  0  0  0  0  0  0
  145.7258  142.9107  157.1493 H   0  0  0  0  0  0  0  0  0  0  0  0
  147.5879  140.5212  153.7017 H   0  0  0  0  0  0  0  0  0  0  0  0
  148.3178  142.1252  153.7545 H   0  0  0  0  0  0  0  0  0  0  0  0
  149.0196  139.9767  155.8155 H   0  0  0  0  0  0  0  0  0  0  0  0
  149.8979  139.0397  154.1755 H   0  0  0  0  0  0  0  0  0  0  0  0
  150.8435  142.1993  154.8204 H   0  0  0  0  0  0  0  0  0  0  0  0
  149.6837  142.5373  156.0836 H   0  0  0  0  0  0  0  0  0  0  0  0
  151.7679  139.3885  155.6409 H   0  0  0  0  0  0  0  0  0  0  0  0
  153.7560  140.3832  160.0616 H   0  0  0  0  0  0  0  0  0  0  0  0
  153.1526  142.4608  161.2815 H   0  0  0  0  0  0  0  0  0  0  0  0
  151.5365  144.0734  160.2981 H   0  0  0  0  0  0  0  0  0  0  0  0
  150.5097  143.6134  158.0750 H   0  0  0  0  0  0  0  0  0  0  0  0
  146.5604  142.7975  152.9089 H   0  0  0  0  0  0  0  0  0  0  0  0
  144.9370  144.5689  152.5355 H   0  0  0  0  0  0  0  0  0  0  0  0
  1  2  1  0  0  0  0
  1 25  1  0  0  0  0
  1 26  1  0  0  0  0
  1 27  1  0  0  0  0
  2  3  1  0  0  0  0
  2 28  1  0  0  0  0
  2 29  1  0  0  0  0
  3  4  2  0  0  0  0
  3  5  1  0  0  0  0
  5 24  1  0  0  0  0
  5  6  2  0  0  0  0
  6  7  1  0  0  0  0
  6 30  1  0  0  0  0
  7  8  2  0  0  0  0
  7 31  1  0  0  0  0
  8  9  1  0  0  0  0
  8 23  1  0  0  0  0
  9 10  1  0  0  0  0
 10 11  1  0  0  0  0
 10 32  1  0  0  0  0
 10 33  1  0  0  0  0
 11 12  1  0  0  0  0
 11 13  1  0  0  0  0
 11 34  1  0  0  0  0
 12 35  1  0  0  0  0
 13 14  1  0  0  0  0
 13 36  1  0  0  0  0
 13 37  1  0  0  0  0
 14 22  1  0  0  0  0
 14 15  1  0  0  0  0
 15 16  2  0  0  0  0
 15 38  1  0  0  0  0
 16 17  1  0  0  0  0
 17 22  2  0  0  0  0
 17 18  1  0  0  0  0
 18 19  2  0  0  0  0
 18 39  1  0  0  0  0
 19 20  1  0  0  0  0
 19 40  1  0  0  0  0
 20 21  2  0  0  0  0
 20 41  1  0  0  0  0
 21 22  1  0  0  0  0
 21 42  1  0  0  0  0
 23 24  2  0  0  0  0
 23 43  1  0  0  0  0
 24 44  1  0  0  0  0
M  END
> <s_m_source_file>
AV-unprocessed.smi

> <i_m_source_file_index>
2667

> <i_lp_mmshare_version>
43012

> <i_f3d_flags>
0

> <s_epik_input>
W0NIM11bQ0gyXUMoPU8pYzFbY0hdW2NIXWMoW2NIXVtjSF0xKU9bQ0gyXVtDQEhdKFtPSF0pW0NIMl1uKFtjSF1uMiljKGMyMylbY0hdW2NIXVtjSF1bY0hdMw==

> <s_epik_cmdline>
J2VwaWtfcHl0aG9uJywgJy1waCcsICc3LjAnLCAnLXRuJywgJzgnLCAnLW1hJywgJzIwMCcsICctbWV0YWxfYmluZGluZycsICctaW1hZScsICc8aW5maWxlLm1hZT4nLCAnLW9tYWUnLCAnPG91dGZpbGUubWFlPic=

> <r_lp_tautomer_probability>
0.9999

> <r_epik_Ionization_Penalty>
0.0583018

> <r_epik_Ionization_Penalty_Charging>
0

> <r_epik_Ionization_Penalty_Neutral>
0.0583018

> <r_epik_State_Penalty>
0.0504087

> <r_epik_Charging_Adjusted_Penalty>
0.0504087

> <i_epik_Tot_Q>
0

> <i_epik_Tot_abs_Q>
0

> <r_epik_Metal_State_Penalty>
5.26129e-05

> <b_epik_Metal_Only>
0

> <s_lp_Force_Field>
OPLS_2005

> <r_lp_Energy>
23.9231

> <b_lp_Chiralities_Consistent>
1

> <s_lp_Variant>
AV-unprocessed.smi:2667-2

> <Gold.Version>
5.8.1

> <Gold.Id.Protein>
6NUR|6NUR_protein|mol2

> <Gold.PLP.Fitness>
58.0845

> <Gold.PLP.PLP>
-53.7148

> <Gold.PLP.part.hbond>
-3.3366

> <Gold.PLP.part.metal>
0.0000

> <Gold.PLP.part.buried>
-7.5574

> <Gold.PLP.part.nonpolar>
-42.7217

> <Gold.PLP.part.repulsive>
0.2314

> <Gold.PLP.ligand.clash>
0.0000

> <Gold.PLP.ligand.torsion>
0.8763

> <Gold.PLP.Chemscore.Hbond>
1.9760

> <Gold.PLP.Chemscore.CHOScore>
0.0000

> <Gold.PLP.Chemscore.Metal>
0.0000

> <Gold.Chemscore.Hbonds>
donor molecule, donor type, donor heavy atom, donor atom, acceptor molecule, acceptor atom, score
      P1  H  7989  7998       L1    12  0.94
      P1  H  7997  8009       L1    16  1.00

> <Gold.PLP.Chemscore.Internal.Correction>
0.1944

> <Gold.Rescore>
     Score         DG    S(hbond)    S(metal)    S(lipo)     H(rot)  DE(clash)    DE(int)     intcor
     15.36     -18.52       1.52        0.00     122.69       2.49       1.82       1.35       ----

> <Gold.Chemscore.Fitness>
15.3606

> <Gold.Chemscore.DG>
-18.5240

> <Gold.Chemscore.ZeroCoef>
-5.4800

> <Gold.Chemscore.Hbond>
1.5187

> <Gold.Chemscore.Metal>
0.0000

> <Gold.Chemscore.Lipo>
122.6860

> <Gold.Chemscore.Internal_Hbond>
0.0000

> <Gold.Chemscore.DEClash>
1.8152

> <Gold.Chemscore.DEInternal>
1.3481

> <Gold.Chemscore.Rot>
2.4932

> <Gold.Chemscore.Internal.Correction>
   9.000000E+99

> <Gold.Chemscore.Hbonds>
donor molecule, donor type, donor heavy atom, donor atom, acceptor molecule, acceptor atom, score
      P1  H  7989  7998       L1    12  0.80
      P1  H  7997  8009       L1    16  0.15

> <Gold.Chemscore.Hbond.Weighted>
-5.0723

> <Gold.Chemscore.Metal.Weighted>
-0.0000

> <Gold.Chemscore.Lipo.Weighted>
-14.3543

> <Gold.Chemscore.Internal_Hbond.Weighted>
0.0000

> <Gold.Chemscore.DEClash.Weighted>
1.8152

> <Gold.Chemscore.DEInternal.Weighted>
1.3481

> <Gold.Chemscore.Rot.Weighted>
6.3826

> <Gold.Chemscore.Internal.Correction.Weighted>
   9.000000E+99

> <Gold.Protein.RotatedTorsions>
[ 6907 6896 6895 6894 ] final  -35.09 input  -60.11 | X-H torsion
[ 7974 7965 7964 7962 ] final -159.56 input  175.53 | X-H torsion
[ 8008 7997 7996 7995 ] final  161.10 input   59.86 | X-H torsion
[ 10167 10162 10161 10158 ] final   85.81 input  -65.29 | X-H torsion
[ 10718 10713 10712 10709 ] final  115.76 input   66.30 | X-H torsion
[ 10763 10752 10751 10750 ] final  161.89 input  -60.55 | X-H torsion
[ 11005 11000 10999 10996 ] final -128.18 input  -57.11 | X-H torsion

> <Gold.Protein.ActiveResidues>
 VAL166  LYS551  ARG553  GLY616  TRP617  ASP618  TYR619  PRO620  LYS621  CYS622 
 ASP623  PHE694  ASN695  SER759  ASP760  ASP761  ALA762  ILE779  LEU786  VAL792 
 PHE793  MET794  SER795  GLU796  ALA797  LYS798  CYS799  TRP800  GLU811  SER814 

> <Gold.Protein.RotatedAtoms>
  151.0442  134.9628  159.8177 H   0  0  0  0  0  0  0  0  0  0  0  0  # atno 6907 bound_to 6896
  152.5369  134.2619  159.8948 H   0  0  0  0  0  0  0  0  0  0  0  0  # atno 6908 bound_to 6896
  151.2632  133.4249  159.2651 H   0  0  0  0  0  0  0  0  0  0  0  0  # atno 6909 bound_to 6896
  144.7460  140.3667  143.6084 H   0  0  0  0  0  0  0  0  0  0  0  0  # atno 7974 bound_to 7965
  156.2126  140.1786  156.7660 H   0  0  0  0  0  0  0  0  0  0  0  0  # atno 8008 bound_to 7997
  154.5745  140.0677  156.9043 H   0  0  0  0  0  0  0  0  0  0  0  0  # atno 8009 bound_to 7997
  155.2613  140.3336  155.4275 H   0  0  0  0  0  0  0  0  0  0  0  0  # atno 8010 bound_to 7997
  139.8940  144.6369  150.8708 H   0  0  0  0  0  0  0  0  0  0  0  0  # atno 10167 bound_to 10162
  157.6202  131.1016  150.7376 H   0  0  0  0  0  0  0  0  0  0  0  0  # atno 10718 bound_to 10713
  154.2699  135.2766  155.2742 H   0  0  0  0  0  0  0  0  0  0  0  0  # atno 10763 bound_to 10752
  154.5310  135.5729  153.6763 H   0  0  0  0  0  0  0  0  0  0  0  0  # atno 10764 bound_to 10752
  152.9947  135.6228  154.2853 H   0  0  0  0  0  0  0  0  0  0  0  0  # atno 10765 bound_to 10752
  140.9537  134.1030  157.4037 H   0  0  0  0  0  0  0  0  0  0  0  0  # atno 11005 bound_to 11000
  145.7120  139.1687  143.2533 LP  0  0  0  0  0  0  0  0  0  0  0  0  # atno 17320 bound_to 7965
  146.1340  140.7148  142.9399 LP  0  0  0  0  0  0  0  0  0  0  0  0  # atno 17321 bound_to 7965
  140.7721  143.3488  151.2056 LP  0  0  0  0  0  0  0  0  0  0  0  0  # atno 17342 bound_to 10162
  139.7084  143.9416  152.2937 LP  0  0  0  0  0  0  0  0  0  0  0  0  # atno 17343 bound_to 10162
  156.7735  130.4836  149.5414 LP  0  0  0  0  0  0  0  0  0  0  0  0  # atno 17370 bound_to 10713
  156.1344  130.6201  151.0379 LP  0  0  0  0  0  0  0  0  0  0  0  0  # atno 17371 bound_to 10713
  139.8855  135.0073  156.6442 LP  0  0  0  0  0  0  0  0  0  0  0  0  # atno 17394 bound_to 11000
  140.7566  133.8853  155.8386 LP  0  0  0  0  0  0  0  0  0  0  0  0  # atno 17395 bound_to 11000

$$$$
