AV-unprocessed.smi:414|AV-procd|sdf|2517|dock2
  -GOLD-   2262022463D 1   1.00000     0.00000
 Structure written by MMmdl.
 37 38  0  0  0  0  0  0  0  0  2 V2000
  144.2187  134.8749  150.5110 C   0  0  0  0  0  0  0  0  0  0  0  0
  144.6755  134.8893  151.9767 C   0  0  2  0  0  0  0  0  0  0  0  0
  144.3369  136.2285  152.6592 C   0  0  0  0  0  0  0  0  0  0  0  0
  144.7965  136.2501  154.1278 C   0  0  0  0  0  0  0  0  0  0  0  0
  146.2987  135.9294  154.2745 C   0  0  2  0  0  0  0  0  0  0  0  0
  147.1274  137.0160  153.7559 N   0  0  0  0  0  0  0  0  0  0  0  0
  146.9090  138.3254  153.9502 C   0  0  0  0  0  0  0  0  0  0  0  0
  145.9501  138.7646  154.5866 O   0  0  0  0  0  0  0  0  0  0  0  0
  147.9126  139.2823  153.2937 C   0  0  0  0  0  0  0  0  0  0  0  0
  149.1802  139.3681  154.0361 N   0  0  0  0  0  0  0  0  0  0  0  0
  149.8382  138.1665  154.3528 C   0  0  0  0  0  0  0  0  0  0  0  0
  151.0050  138.1514  155.0250 C   0  0  0  0  0  0  0  0  0  0  0  0
  151.5856  139.4263  155.4287 C   0  0  0  0  0  0  0  0  0  0  0  0
  152.6469  139.4315  156.0493 O   0  0  0  0  0  0  0  0  0  0  0  0
  150.9118  140.5653  155.0931 N   0  5  0  0  0  0  0  0  0  0  0  0
  149.7277  140.5654  154.4056 C   0  0  0  0  0  0  0  0  0  0  0  0
  149.1378  141.6053  154.1096 O   0  0  0  0  0  0  0  0  0  0  0  0
  146.6489  134.6070  153.5655 C   0  0  0  0  0  0  0  0  0  0  0  0
  146.1815  134.5890  152.0991 C   0  0  0  0  0  0  0  0  0  0  0  0
  144.7193  135.6517  149.9320 H   0  0  0  0  0  0  0  0  0  0  0  0
  143.1441  135.0418  150.4327 H   0  0  0  0  0  0  0  0  0  0  0  0
  144.4382  133.9158  150.0407 H   0  0  0  0  0  0  0  0  0  0  0  0
  144.1323  134.0996  152.4977 H   0  0  0  0  0  0  0  0  0  0  0  0
  144.8080  137.0494  152.1168 H   0  0  0  0  0  0  0  0  0  0  0  0
  143.2623  136.4086  152.6129 H   0  0  0  0  0  0  0  0  0  0  0  0
  144.5671  137.2172  154.5766 H   0  0  0  0  0  0  0  0  0  0  0  0
  144.2201  135.5141  154.6897 H   0  0  0  0  0  0  0  0  0  0  0  0
  146.5256  135.8055  155.3351 H   0  0  0  0  0  0  0  0  0  0  0  0
  147.9386  136.7502  153.2166 H   0  0  0  0  0  0  0  0  0  0  0  0
  148.1007  138.9805  152.2614 H   0  0  0  0  0  0  0  0  0  0  0  0
  147.4455  140.2654  153.2227 H   0  0  0  0  0  0  0  0  0  0  0  0
  149.3448  137.2679  154.0124 H   0  0  0  0  0  0  0  0  0  0  0  0
  151.5002  137.2198  155.2563 H   0  0  0  0  0  0  0  0  0  0  0  0
  147.7230  134.4242  153.6177 H   0  0  0  0  0  0  0  0  0  0  0  0
  146.1756  133.7813  154.0984 H   0  0  0  0  0  0  0  0  0  0  0  0
  146.4037  133.6157  151.6602 H   0  0  0  0  0  0  0  0  0  0  0  0
  146.7515  135.3199  151.5240 H   0  0  0  0  0  0  0  0  0  0  0  0
  1  2  1  0  0  0  0
  1 20  1  0  0  0  0
  1 21  1  0  0  0  0
  1 22  1  0  0  0  0
  2 19  1  0  0  0  0
  2  3  1  0  0  0  0
  2 23  1  0  0  0  0
  3  4  1  0  0  0  0
  3 24  1  0  0  0  0
  3 25  1  0  0  0  0
  4  5  1  0  0  0  0
  4 26  1  0  0  0  0
  4 27  1  0  0  0  0
  5  6  1  0  0  0  0
  5 18  1  0  0  0  0
  5 28  1  0  0  0  0
  6  7  1  0  0  0  0
  6 29  1  0  0  0  0
  7  8  2  0  0  0  0
  7  9  1  0  0  0  0
  9 10  1  0  0  0  0
  9 30  1  0  0  0  0
  9 31  1  0  0  0  0
 10 16  1  0  0  0  0
 10 11  1  0  0  0  0
 11 12  2  0  0  0  0
 11 32  1  0  0  0  0
 12 13  1  0  0  0  0
 12 33  1  0  0  0  0
 13 14  2  0  0  0  0
 13 15  1  0  0  0  0
 15 16  1  0  0  0  0
 16 17  2  0  0  0  0
 18 19  1  0  0  0  0
 18 34  1  0  0  0  0
 18 35  1  0  0  0  0
 19 36  1  0  0  0  0
 19 37  1  0  0  0  0
M  CHG  1  15  -1
M  END
> <s_m_source_file>
AV-unprocessed.smi

> <i_m_source_file_index>
414

> <i_lp_mmshare_version>
43012

> <i_f3d_flags>
0

> <s_epik_input>
W0NIM11bQ0BASF0xW0NIMl1bQ0gyXVtDQEhdKFtDSDJdW0NIMl0xKVtOSF1DKD1PKVtDSDJdbjJbY0hdW2NIXWMoPU8pW25IXWMyPU8=

> <s_epik_cmdline>
J2VwaWtfcHl0aG9uJywgJy1waCcsICc3LjAnLCAnLXRuJywgJzgnLCAnLW1hJywgJzIwMCcsICctbWV0YWxfYmluZGluZycsICctaW1hZScsICc8aW5maWxlLm1hZT4nLCAnLW9tYWUnLCAnPG91dGZpbGUubWFlPic=

> <r_lp_tautomer_probability>
0.999537

> <r_epik_Ionization_Penalty>
3.11551

> <r_epik_Ionization_Penalty_Charging>
2.90498e-08

> <r_epik_Ionization_Penalty_Neutral>
3.11551

> <r_epik_State_Penalty>
3.11459

> <r_epik_Charging_Adjusted_Penalty>
3.11459

> <i_epik_Tot_Q>
-1

> <i_epik_Tot_abs_Q>
1

> <r_epik_Metal_State_Penalty>
0.463083

> <b_epik_Metal_Only>
1

> <s_lp_Force_Field>
OPLS_2005

> <r_lp_Energy>
16.6581

> <b_lp_Chiralities_Consistent>
1

> <s_lp_Variant>
AV-unprocessed.smi:414-4

> <Gold.Version>
5.8.1

> <Gold.Id.Protein>
6NUR|6NUR_protein|mol2

> <Gold.PLP.Fitness>
36.0800

> <Gold.PLP.PLP>
-25.6710

> <Gold.PLP.part.hbond>
-4.2277

> <Gold.PLP.part.metal>
0.0000

> <Gold.PLP.part.buried>
3.1636

> <Gold.PLP.part.nonpolar>
-23.3495

> <Gold.PLP.part.repulsive>
0.3416

> <Gold.PLP.ligand.clash>
0.0000

> <Gold.PLP.ligand.torsion>
0.4901

> <Gold.PLP.Chemscore.Hbond>
2.7934

> <Gold.PLP.Chemscore.CHOScore>
1.0000

> <Gold.PLP.Chemscore.Metal>
0.0000

> <Gold.Chemscore.Hbonds>
donor molecule, donor type, donor heavy atom, donor atom, acceptor molecule, acceptor atom, score
      L1  H     6    29       P1  7948  1.00
      P1  H  7989  7998       L1    15  0.24
      P1  H  7997  8009       L1    14  1.00
      P1  H  8011  8017       L1    17  0.56
      L1  C    11    32       P1  7948  1.00

> <Gold.PLP.Chemscore.Internal.Correction>
0.0091

> <Gold.Rescore>
     Score         DG    S(hbond)    S(metal)    S(lipo)     H(rot)  DE(clash)    DE(int)     intcor
     11.28     -14.71       2.53        0.00      42.73       1.65       1.34       2.09       ----

> <Gold.Chemscore.Fitness>
11.2780

> <Gold.Chemscore.DG>
-14.7079

> <Gold.Chemscore.ZeroCoef>
-5.4800

> <Gold.Chemscore.Hbond>
2.5345

> <Gold.Chemscore.Metal>
0.0000

> <Gold.Chemscore.Lipo>
42.7273

> <Gold.Chemscore.Internal_Hbond>
0.0000

> <Gold.Chemscore.DEClash>
1.3426

> <Gold.Chemscore.DEInternal>
2.0873

> <Gold.Chemscore.Rot>
1.6549

> <Gold.Chemscore.Internal.Correction>
   9.000000E+99

> <Gold.Chemscore.Hbonds>
donor molecule, donor type, donor heavy atom, donor atom, acceptor molecule, acceptor atom, score
      L1  H     6    29       P1  7948  1.00
      P1  H  7997  8009       L1    14  1.00
      P1  H  8011  8017       L1    17  0.45

> <Gold.Chemscore.Hbond.Weighted>
-8.4652

> <Gold.Chemscore.Metal.Weighted>
-0.0000

> <Gold.Chemscore.Lipo.Weighted>
-4.9991

> <Gold.Chemscore.Internal_Hbond.Weighted>
0.0000

> <Gold.Chemscore.DEClash.Weighted>
1.3426

> <Gold.Chemscore.DEInternal.Weighted>
2.0873

> <Gold.Chemscore.Rot.Weighted>
4.2364

> <Gold.Chemscore.Internal.Correction.Weighted>
   9.000000E+99

> <Gold.Protein.RotatedTorsions>
[ 6907 6896 6895 6894 ] final  -24.27 input  -60.11 | X-H torsion
[ 7974 7965 7964 7962 ] final   16.86 input  175.53 | X-H torsion
[ 8008 7997 7996 7995 ] final -170.80 input   59.86 | X-H torsion
[ 10167 10162 10161 10158 ] final   64.51 input  -65.29 | X-H torsion
[ 10718 10713 10712 10709 ] final  163.68 input   66.30 | X-H torsion
[ 10763 10752 10751 10750 ] final  127.78 input  -60.55 | X-H torsion
[ 11005 11000 10999 10996 ] final   11.84 input  -57.11 | X-H torsion

> <Gold.Protein.ActiveResidues>
 VAL166  LYS551  ARG553  GLY616  TRP617  ASP618  TYR619  PRO620  LYS621  CYS622 
 ASP623  PHE694  ASN695  SER759  ASP760  ASP761  ALA762  ILE779  LEU786  VAL792 
 PHE793  MET794  SER795  GLU796  ALA797  LYS798  CYS799  TRP800  GLU811  SER814 

> <Gold.Protein.RotatedAtoms>
  151.1920  135.0406  159.8836 H   0  0  0  0  0  0  0  0  0  0  0  0  # atno 6907 bound_to 6896
  152.5439  134.0945  159.8301 H   0  0  0  0  0  0  0  0  0  0  0  0  # atno 6908 bound_to 6896
  151.1075  133.5150  159.2639 H   0  0  0  0  0  0  0  0  0  0  0  0  # atno 6909 bound_to 6896
  146.2236  139.8686  142.8591 H   0  0  0  0  0  0  0  0  0  0  0  0  # atno 7974 bound_to 7965
  155.9231  140.1078  157.1191 H   0  0  0  0  0  0  0  0  0  0  0  0  # atno 8008 bound_to 7997
  154.4057  140.1252  156.4771 H   0  0  0  0  0  0  0  0  0  0  0  0  # atno 8009 bound_to 7997
  155.7171  140.3470  155.5002 H   0  0  0  0  0  0  0  0  0  0  0  0  # atno 8010 bound_to 7997
  140.1214  144.4727  150.6918 H   0  0  0  0  0  0  0  0  0  0  0  0  # atno 10167 bound_to 10162
  157.1051  131.0453  151.2481 H   0  0  0  0  0  0  0  0  0  0  0  0  # atno 10718 bound_to 10713
  153.7150  135.3262  155.3254 H   0  0  0  0  0  0  0  0  0  0  0  0  # atno 10763 bound_to 10752
  154.8373  135.4486  154.1275 H   0  0  0  0  0  0  0  0  0  0  0  0  # atno 10764 bound_to 10752
  153.2380  135.6967  153.7895 H   0  0  0  0  0  0  0  0  0  0  0  0  # atno 10765 bound_to 10752
  140.4987  134.0768  155.7788 H   0  0  0  0  0  0  0  0  0  0  0  0  # atno 11005 bound_to 11000
  145.2632  141.0084  143.3814 LP  0  0  0  0  0  0  0  0  0  0  0  0  # atno 17320 bound_to 7965
  144.9282  139.4330  143.6508 LP  0  0  0  0  0  0  0  0  0  0  0  0  # atno 17321 bound_to 7965
  140.6870  143.2355  151.5235 LP  0  0  0  0  0  0  0  0  0  0  0  0  # atno 17342 bound_to 10162
  139.5566  144.2259  152.1623 LP  0  0  0  0  0  0  0  0  0  0  0  0  # atno 17343 bound_to 10162
  157.4607  130.7652  149.7234 LP  0  0  0  0  0  0  0  0  0  0  0  0  # atno 17370 bound_to 10713
  155.9864  130.3975  150.3215 LP  0  0  0  0  0  0  0  0  0  0  0  0  # atno 17371 bound_to 10713
  141.1447  133.9076  157.2244 LP  0  0  0  0  0  0  0  0  0  0  0  0  # atno 17394 bound_to 11000
  139.9726  135.0123  156.9551 LP  0  0  0  0  0  0  0  0  0  0  0  0  # atno 17395 bound_to 11000

$$$$
