AV-unprocessed.smi:213|AV-procd|sdf|1641|dock5
  -GOLD-   2262020 13D 1   1.00000     0.00000
 Structure written by MMmdl.
 58 61  0  0  0  0  0  0  0  0  1 V2000
  151.1784  140.8274  155.9611 C   0  0  0  0  0  0  0  0  0  0  0  0
  150.2148  140.5408  157.1262 C   0  0  2  0  0  0  0  0  0  0  0  0
  150.8842  140.7226  158.5070 C   0  0  0  0  0  0  0  0  0  0  0  0
  150.8848  142.0870  159.0366 N   0  0  0  0  0  0  0  0  0  0  0  0
  151.0614  143.0609  157.9646 C   0  0  0  0  0  0  0  0  0  0  0  0
  151.0584  144.5059  158.4923 C   0  0  0  0  0  0  0  0  0  0  0  0
  152.0754  144.6536  159.4778 O   0  0  0  0  0  0  0  0  0  0  0  0
  151.9153  143.7525  160.5681 C   0  0  0  0  0  0  0  0  0  0  0  0
  151.9168  142.3039  160.0490 C   0  0  0  0  0  0  0  0  0  0  0  0
  149.6287  139.2031  157.0026 N   0  0  0  0  0  0  0  0  0  0  0  0
  149.7027  138.2442  158.1032 C   0  0  0  0  0  0  0  0  0  0  0  0
  148.8960  138.8692  155.9067 C   0  0  0  0  0  0  0  0  0  0  0  0
  148.7475  139.7988  154.9250 N   0  0  0  0  0  0  0  0  0  0  0  0
  148.0398  139.5217  153.8265 C   0  0  0  0  0  0  0  0  0  0  0  0
  147.3984  138.3964  153.5100 N   0  0  0  0  0  0  0  0  0  0  0  0
  147.5290  137.4622  154.4941 C   0  0  0  0  0  0  0  0  0  0  0  0
  148.2507  137.6107  155.7136 C   0  0  0  0  0  0  0  0  0  0  0  0
  148.1314  136.4468  156.4674 N   0  0  0  0  0  0  0  0  0  0  0  0
  147.3990  135.6560  155.7322 C   0  0  0  0  0  0  0  0  0  0  0  0
  146.9923  136.1884  154.5311 N   0  0  0  0  0  0  0  0  0  0  0  0
  146.1648  135.5462  153.5260 C   0  0  0  0  0  0  0  0  0  0  0  0
  146.8311  134.2849  152.9436 C   0  0  2  0  0  0  0  0  0  0  0  0
  148.2381  134.4319  152.9233 O   0  0  0  0  0  0  0  0  0  0  0  0
  146.3027  133.9222  151.5416 C   0  0  2  0  0  0  0  0  0  0  0  0
  144.7921  133.7109  151.4137 C   0  0  0  0  0  0  0  0  0  0  0  0
  144.7215  132.8816  150.1510 C   0  0  0  0  0  0  0  0  0  0  0  0
  145.9501  131.9845  150.2923 C   0  0  0  0  0  0  0  0  0  0  0  0
  146.9091  132.7374  151.0316 O   0  0  0  0  0  0  0  0  0  0  0  0
  151.5431  141.8539  155.9964 H   0  0  0  0  0  0  0  0  0  0  0  0
  150.6806  140.6930  155.0004 H   0  0  0  0  0  0  0  0  0  0  0  0
  152.0471  140.1696  155.9813 H   0  0  0  0  0  0  0  0  0  0  0  0
  149.4090  141.2679  157.0753 H   0  0  0  0  0  0  0  0  0  0  0  0
  150.4023  140.0598  159.2276 H   0  0  0  0  0  0  0  0  0  0  0  0
  151.9165  140.3782  158.4327 H   0  0  0  0  0  0  0  0  0  0  0  0
  152.0009  142.8708  157.4427 H   0  0  0  0  0  0  0  0  0  0  0  0
  150.2667  142.9476  157.2263 H   0  0  0  0  0  0  0  0  0  0  0  0
  151.2443  145.2074  157.6792 H   0  0  0  0  0  0  0  0  0  0  0  0
  150.0872  144.7593  158.9201 H   0  0  0  0  0  0  0  0  0  0  0  0
  152.7290  143.9025  161.2776 H   0  0  0  0  0  0  0  0  0  0  0  0
  150.9856  143.9717  161.0956 H   0  0  0  0  0  0  0  0  0  0  0  0
  151.7665  141.6370  160.8969 H   0  0  0  0  0  0  0  0  0  0  0  0
  152.8983  142.0690  159.6343 H   0  0  0  0  0  0  0  0  0  0  0  0
  149.8879  137.2373  157.7272 H   0  0  0  0  0  0  0  0  0  0  0  0
  148.7686  138.2369  158.6659 H   0  0  0  0  0  0  0  0  0  0  0  0
  150.5082  138.4918  158.7939 H   0  0  0  0  0  0  0  0  0  0  0  0
  147.9779  140.3162  153.0975 H   0  0  0  0  0  0  0  0  0  0  0  0
  147.1263  134.6606  156.0518 H   0  0  0  0  0  0  0  0  0  0  0  0
  145.2089  135.2907  153.9847 H   0  0  0  0  0  0  0  0  0  0  0  0
  145.9494  136.2683  152.7374 H   0  0  0  0  0  0  0  0  0  0  0  0
  146.6173  133.4447  153.6057 H   0  0  0  0  0  0  0  0  0  0  0  0
  148.4566  135.1060  152.2981 H   0  0  0  0  0  0  0  0  0  0  0  0
  146.5847  134.7215  150.8542 H   0  0  0  0  0  0  0  0  0  0  0  0
  144.3919  133.1368  152.2500 H   0  0  0  0  0  0  0  0  0  0  0  0
  144.2358  134.6459  151.3439 H   0  0  0  0  0  0  0  0  0  0  0  0
  143.7917  132.3201  150.0563 H   0  0  0  0  0  0  0  0  0  0  0  0
  144.8238  133.5244  149.2756 H   0  0  0  0  0  0  0  0  0  0  0  0
  145.7027  131.0885  150.8628 H   0  0  0  0  0  0  0  0  0  0  0  0
  146.3485  131.6718  149.3268 H   0  0  0  0  0  0  0  0  0  0  0  0
  1  2  1  0  0  0  0
  1 29  1  0  0  0  0
  1 30  1  0  0  0  0
  1 31  1  0  0  0  0
  2  3  1  0  0  0  0
  2 10  1  0  0  0  0
  2 32  1  0  0  0  0
  3  4  1  0  0  0  0
  3 33  1  0  0  0  0
  3 34  1  0  0  0  0
  4  9  1  0  0  0  0
  4  5  1  0  0  0  0
  5  6  1  0  0  0  0
  5 35  1  0  0  0  0
  5 36  1  0  0  0  0
  6  7  1  0  0  0  0
  6 37  1  0  0  0  0
  6 38  1  0  0  0  0
  7  8  1  0  0  0  0
  8  9  1  0  0  0  0
  8 39  1  0  0  0  0
  8 40  1  0  0  0  0
  9 41  1  0  0  0  0
  9 42  1  0  0  0  0
 10 11  1  0  0  0  0
 10 12  1  0  0  0  0
 11 43  1  0  0  0  0
 11 44  1  0  0  0  0
 11 45  1  0  0  0  0
 12 17  1  0  0  0  0
 12 13  2  0  0  0  0
 13 14  1  0  0  0  0
 14 15  2  0  0  0  0
 14 46  1  0  0  0  0
 15 16  1  0  0  0  0
 16 20  1  0  0  0  0
 16 17  2  0  0  0  0
 17 18  1  0  0  0  0
 18 19  2  0  0  0  0
 19 20  1  0  0  0  0
 19 47  1  0  0  0  0
 20 21  1  0  0  0  0
 21 22  1  0  0  0  0
 21 48  1  0  0  0  0
 21 49  1  0  0  0  0
 22 23  1  0  0  0  0
 22 24  1  0  0  0  0
 22 50  1  0  0  0  0
 23 51  1  0  0  0  0
 24 28  1  0  0  0  0
 24 25  1  0  0  0  0
 24 52  1  0  0  0  0
 25 26  1  0  0  0  0
 25 53  1  0  0  0  0
 25 54  1  0  0  0  0
 26 27  1  0  0  0  0
 26 55  1  0  0  0  0
 26 56  1  0  0  0  0
 27 28  1  0  0  0  0
 27 57  1  0  0  0  0
 27 58  1  0  0  0  0
M  END
> <s_m_source_file>
AV-unprocessed.smi

> <i_m_source_file_index>
213

> <i_lp_mmshare_version>
43012

> <i_f3d_flags>
0

> <s_epik_input>
W0NIMl0xW0NIMl1PW0NIMl1bQ0gyXU4xW0NIMl1bQ0BASF0oW0NIM10pTihbQ0gzXSljKG5bY0hdbjIpYyhjMjMpbltjSF1uM1tDSDJdW0NASF0oW09IXSlbQ0BASF00W0NIMl1bQ0gyXVtDSDJdTzQ=

> <s_epik_cmdline>
J2VwaWtfcHl0aG9uJywgJy1waCcsICc3LjAnLCAnLXRuJywgJzgnLCAnLW1hJywgJzIwMCcsICctbWV0YWxfYmluZGluZycsICctaW1hZScsICc8aW5maWxlLm1hZT4nLCAnLW9tYWUnLCAnPG91dGZpbGUubWFlPic=

> <r_lp_tautomer_probability>
1

> <r_epik_Ionization_Penalty>
0.423322

> <r_epik_Ionization_Penalty_Charging>
0

> <r_epik_Ionization_Penalty_Neutral>
0.423322

> <r_epik_State_Penalty>
0.569486

> <r_epik_Charging_Adjusted_Penalty>
0.569486

> <i_epik_Tot_Q>
0

> <i_epik_Tot_abs_Q>
0

> <r_epik_Metal_State_Penalty>
0.568671

> <b_epik_Metal_Only>
0

> <s_lp_Force_Field>
OPLS_2005

> <r_lp_Energy>
51.8913

> <b_lp_Chiralities_Consistent>
1

> <s_lp_Variant>
AV-unprocessed.smi:213-9

> <Gold.Version>
5.8.1

> <Gold.Id.Protein>
6NUR|6NUR_protein|mol2

> <Gold.PLP.Fitness>
41.4457

> <Gold.PLP.PLP>
-36.9705

> <Gold.PLP.part.hbond>
-1.0000

> <Gold.PLP.part.metal>
0.0000

> <Gold.PLP.part.buried>
-5.4750

> <Gold.PLP.part.nonpolar>
-29.9401

> <Gold.PLP.part.repulsive>
0.4273

> <Gold.PLP.ligand.clash>
0.0000

> <Gold.PLP.ligand.torsion>
0.9076

> <Gold.PLP.Chemscore.Hbond>
1.0000

> <Gold.PLP.Chemscore.CHOScore>
0.8404

> <Gold.PLP.Chemscore.Metal>
0.0000

> <Gold.Chemscore.Hbonds>
donor molecule, donor type, donor heavy atom, donor atom, acceptor molecule, acceptor atom, score
      L1  H    23    51       P1  7948  0.32
      L1  C    14    46       P1  7957  0.66

> <Gold.PLP.Chemscore.Internal.Correction>
0.7695

> <Gold.Rescore>
     Score         DG    S(hbond)    S(metal)    S(lipo)     H(rot)  DE(clash)    DE(int)     intcor
      9.67     -13.06       0.98        0.00      96.70       2.74       0.02       3.37       ----

> <Gold.Chemscore.Fitness>
9.6740

> <Gold.Chemscore.DG>
-13.0570

> <Gold.Chemscore.ZeroCoef>
-5.4800

> <Gold.Chemscore.Hbond>
0.9796

> <Gold.Chemscore.Metal>
0.0000

> <Gold.Chemscore.Lipo>
96.6984

> <Gold.Chemscore.Internal_Hbond>
0.0000

> <Gold.Chemscore.DEClash>
0.0179

> <Gold.Chemscore.DEInternal>
3.3652

> <Gold.Chemscore.Rot>
2.7378

> <Gold.Chemscore.Internal.Correction>
   9.000000E+99

> <Gold.Chemscore.Hbonds>
donor molecule, donor type, donor heavy atom, donor atom, acceptor molecule, acceptor atom, score
      L1  H    23    51       P1  7948  0.11

> <Gold.Chemscore.Hbond.Weighted>
-3.2720

> <Gold.Chemscore.Metal.Weighted>
-0.0000

> <Gold.Chemscore.Lipo.Weighted>
-11.3137

> <Gold.Chemscore.Internal_Hbond.Weighted>
0.0000

> <Gold.Chemscore.DEClash.Weighted>
0.0179

> <Gold.Chemscore.DEInternal.Weighted>
3.3652

> <Gold.Chemscore.Rot.Weighted>
7.0087

> <Gold.Chemscore.Internal.Correction.Weighted>
   9.000000E+99

> <Gold.Protein.RotatedTorsions>
[ 6907 6896 6895 6894 ] final  177.14 input  -60.11 | X-H torsion
[ 7974 7965 7964 7962 ] final  -26.53 input  175.53 | X-H torsion
[ 8008 7997 7996 7995 ] final   55.80 input   59.86 | X-H torsion
[ 10167 10162 10161 10158 ] final  -55.83 input  -65.29 | X-H torsion
[ 10718 10713 10712 10709 ] final  155.45 input   66.30 | X-H torsion
[ 10763 10752 10751 10750 ] final   99.61 input  -60.55 | X-H torsion
[ 11005 11000 10999 10996 ] final -159.87 input  -57.11 | X-H torsion

> <Gold.Protein.ActiveResidues>
 VAL166  LYS551  ARG553  GLY616  TRP617  ASP618  TYR619  PRO620  LYS621  CYS622 
 ASP623  PHE694  ASN695  SER759  ASP760  ASP761  ALA762  ILE779  LEU786  VAL792 
 PHE793  MET794  SER795  GLU796  ALA797  LYS798  CYS799  TRP800  GLU811  SER814 

> <Gold.Protein.RotatedAtoms>
  151.7088  133.3312  159.3285 H   0  0  0  0  0  0  0  0  0  0  0  0  # atno 6907 bound_to 6896
  150.7703  134.6550  159.6318 H   0  0  0  0  0  0  0  0  0  0  0  0  # atno 6908 bound_to 6896
  152.3724  134.6717  160.0223 H   0  0  0  0  0  0  0  0  0  0  0  0  # atno 6909 bound_to 6896
  146.1419  140.5031  142.8648 H   0  0  0  0  0  0  0  0  0  0  0  0  # atno 7974 bound_to 7965
  155.5071  140.3476  155.4381 H   0  0  0  0  0  0  0  0  0  0  0  0  # atno 8008 bound_to 7997
  156.0874  140.1402  156.9663 H   0  0  0  0  0  0  0  0  0  0  0  0  # atno 8009 bound_to 7997
  154.4615  140.0933  156.6882 H   0  0  0  0  0  0  0  0  0  0  0  0  # atno 8010 bound_to 7997
  140.6352  143.2479  151.5136 H   0  0  0  0  0  0  0  0  0  0  0  0  # atno 10167 bound_to 10162
  157.2182  131.0712  151.1928 H   0  0  0  0  0  0  0  0  0  0  0  0  # atno 10718 bound_to 10713
  153.3035  135.4107  155.1274 H   0  0  0  0  0  0  0  0  0  0  0  0  # atno 10763 bound_to 10752
  154.8556  135.3547  154.5819 H   0  0  0  0  0  0  0  0  0  0  0  0  # atno 10764 bound_to 10752
  153.6245  135.7063  153.5356 H   0  0  0  0  0  0  0  0  0  0  0  0  # atno 10765 bound_to 10752
  140.6377  134.4584  157.5232 H   0  0  0  0  0  0  0  0  0  0  0  0  # atno 11005 bound_to 11000
  144.7802  140.5825  143.6610 LP  0  0  0  0  0  0  0  0  0  0  0  0  # atno 17320 bound_to 7965
  145.5026  139.1482  143.3649 LP  0  0  0  0  0  0  0  0  0  0  0  0  # atno 17321 bound_to 7965
  139.5563  144.2267  152.1618 LP  0  0  0  0  0  0  0  0  0  0  0  0  # atno 17342 bound_to 10162
  140.1522  144.5104  150.6681 LP  0  0  0  0  0  0  0  0  0  0  0  0  # atno 17343 bound_to 10162
  157.3603  130.7128  149.6497 LP  0  0  0  0  0  0  0  0  0  0  0  0  # atno 17370 bound_to 10713
  155.9684  130.4227  150.4529 LP  0  0  0  0  0  0  0  0  0  0  0  0  # atno 17371 bound_to 10713
  139.9092  134.8382  156.1592 LP  0  0  0  0  0  0  0  0  0  0  0  0  # atno 17394 bound_to 11000
  141.0629  133.6833  156.1988 LP  0  0  0  0  0  0  0  0  0  0  0  0  # atno 17395 bound_to 11000

$$$$
