AV-unprocessed.smi:2397|AV-procd|sdf|9494|dock3
  -GOLD-   2272013123D 1   1.00000     0.00000
 Structure written by MMmdl.
 36 37  0  0  0  0  0  0  0  0  1 V2000
  151.7826  145.6489  160.0928 C   0  0  0  0  0  0  0  0  0  0  0  0
  151.1605  144.5017  159.2814 C   0  0  0  0  0  0  0  0  0  0  0  0
  149.6536  144.3369  159.5338 C   0  0  0  0  0  0  0  0  0  0  0  0
  151.9153  143.1930  159.4747 C   0  0  0  0  0  0  0  0  0  0  0  0
  152.9794  143.2197  160.2828 N   0  0  0  0  0  0  0  0  0  0  0  0
  153.6504  142.0600  160.4464 C   0  0  0  0  0  0  0  0  0  0  0  0
  153.2559  140.8745  159.7947 C   0  0  0  0  0  0  0  0  0  0  0  0
  152.1197  140.9562  158.9590 C   0  0  0  0  0  0  0  0  0  0  0  0
  151.6615  139.8083  158.2770 N   0  0  0  0  0  0  0  0  0  0  0  0
  151.7639  138.6313  159.1389 C   0  0  0  0  0  0  0  0  0  0  0  0
  151.4134  137.3520  158.3683 C   0  0  0  0  0  0  0  0  0  0  0  0
  150.1128  137.4894  157.8162 O   0  0  0  0  0  0  0  0  0  0  0  0
  150.0613  138.5481  156.8687 C   0  0  0  0  0  0  0  0  0  0  0  0
  150.3885  139.9061  157.5360 C   0  0  2  0  0  0  0  0  0  0  0  0
  150.3141  140.9902  156.4385 C   0  0  0  0  0  0  0  0  0  0  0  0
  149.5103  142.0417  156.6303 N   0  0  0  0  0  0  0  0  0  0  0  0
  150.9785  140.8679  155.4115 O   0  0  0  0  0  0  0  0  0  0  0  0
  151.4520  142.1263  158.8158 N   0  0  0  0  0  0  0  0  0  0  0  0
  152.8339  145.7844  159.8372 H   0  0  0  0  0  0  0  0  0  0  0  0
  151.7219  145.4568  161.1646 H   0  0  0  0  0  0  0  0  0  0  0  0
  151.2707  146.5911  159.8960 H   0  0  0  0  0  0  0  0  0  0  0  0
  151.2638  144.7808  158.2313 H   0  0  0  0  0  0  0  0  0  0  0  0
  149.2308  143.5654  158.8898 H   0  0  0  0  0  0  0  0  0  0  0  0
  149.1185  145.2653  159.3328 H   0  0  0  0  0  0  0  0  0  0  0  0
  149.4505  144.0551  160.5676 H   0  0  0  0  0  0  0  0  0  0  0  0
  154.5099  142.0776  161.0998 H   0  0  0  0  0  0  0  0  0  0  0  0
  153.8028  139.9526  159.9272 H   0  0  0  0  0  0  0  0  0  0  0  0
  152.7708  138.5326  159.5462 H   0  0  0  0  0  0  0  0  0  0  0  0
  151.0880  138.7470  159.9883 H   0  0  0  0  0  0  0  0  0  0  0  0
  152.1436  137.1519  157.5824 H   0  0  0  0  0  0  0  0  0  0  0  0
  151.4242  136.4935  159.0399 H   0  0  0  0  0  0  0  0  0  0  0  0
  150.7491  138.3350  156.0478 H   0  0  0  0  0  0  0  0  0  0  0  0
  149.0587  138.5664  156.4391 H   0  0  0  0  0  0  0  0  0  0  0  0
  149.5970  140.1153  158.2582 H   0  0  0  0  0  0  0  0  0  0  0  0
  149.4503  142.7627  155.9260 H   0  0  0  0  0  0  0  0  0  0  0  0
  148.9694  142.1114  157.4800 H   0  0  0  0  0  0  0  0  0  0  0  0
  1  2  1  0  0  0  0
  1 19  1  0  0  0  0
  1 20  1  0  0  0  0
  1 21  1  0  0  0  0
  2  3  1  0  0  0  0
  2  4  1  0  0  0  0
  2 22  1  0  0  0  0
  3 23  1  0  0  0  0
  3 24  1  0  0  0  0
  3 25  1  0  0  0  0
  4 18  1  0  0  0  0
  4  5  2  0  0  0  0
  5  6  1  0  0  0  0
  6  7  2  0  0  0  0
  6 26  1  0  0  0  0
  7  8  1  0  0  0  0
  7 27  1  0  0  0  0
  8  9  1  0  0  0  0
  8 18  2  0  0  0  0
  9 14  1  0  0  0  0
  9 10  1  0  0  0  0
 10 11  1  0  0  0  0
 10 28  1  0  0  0  0
 10 29  1  0  0  0  0
 11 12  1  0  0  0  0
 11 30  1  0  0  0  0
 11 31  1  0  0  0  0
 12 13  1  0  0  0  0
 13 14  1  0  0  0  0
 13 32  1  0  0  0  0
 13 33  1  0  0  0  0
 14 15  1  0  0  0  0
 14 34  1  0  0  0  0
 15 16  1  0  0  0  0
 15 17  2  0  0  0  0
 16 35  1  0  0  0  0
 16 36  1  0  0  0  0
M  END
> <s_m_source_file>
AV-unprocessed.smi

> <i_m_source_file_index>
2397

> <i_lp_mmshare_version>
43012

> <i_f3d_flags>
0

> <s_epik_input>
W0NIM11bQ0hdKFtDSDNdKWMxbltjSF1bY0hdYyhuMSlOMltDSDJdW0NIMl1PW0NIMl1bQ0BIXTJDKD1PKVtOSDJd

> <s_epik_cmdline>
J2VwaWtfcHl0aG9uJywgJy1waCcsICc3LjAnLCAnLXRuJywgJzgnLCAnLW1hJywgJzIwMCcsICctbWV0YWxfYmluZGluZycsICctaW1hZScsICc8aW5maWxlLm1hZT4nLCAnLW9tYWUnLCAnPG91dGZpbGUubWFlPic=

> <r_lp_tautomer_probability>
1

> <r_epik_Ionization_Penalty>
0.0323151

> <r_epik_Ionization_Penalty_Charging>
0

> <r_epik_Ionization_Penalty_Neutral>
0.0323151

> <r_epik_State_Penalty>
0.0267324

> <r_epik_Charging_Adjusted_Penalty>
0.0267324

> <i_epik_Tot_Q>
0

> <i_epik_Tot_abs_Q>
0

> <r_epik_Metal_State_Penalty>
0.0253461

> <b_epik_Metal_Only>
0

> <s_lp_Force_Field>
OPLS_2005

> <r_lp_Energy>
6.15108

> <b_lp_Chiralities_Consistent>
1

> <s_lp_Variant>
AV-unprocessed.smi:2397-2

> <Gold.Version>
5.8.1

> <Gold.Id.Protein>
6NUR|6NUR_protein|mol2

> <Gold.PLP.Fitness>
36.0492

> <Gold.PLP.PLP>
-31.9560

> <Gold.PLP.part.hbond>
-2.0000

> <Gold.PLP.part.metal>
0.0000

> <Gold.PLP.part.buried>
-5.8992

> <Gold.PLP.part.nonpolar>
-24.2408

> <Gold.PLP.part.repulsive>
0.0913

> <Gold.PLP.ligand.clash>
0.0000

> <Gold.PLP.ligand.torsion>
0.4876

> <Gold.PLP.Chemscore.Hbond>
1.6000

> <Gold.PLP.Chemscore.CHOScore>
0.0000

> <Gold.PLP.Chemscore.Metal>
0.0000

> <Gold.Chemscore.Hbonds>
donor molecule, donor type, donor heavy atom, donor atom, acceptor molecule, acceptor atom, score
      L1  H    16    35       P1  8028  0.80
      P1  H  7989  7998       L1    17  0.75

> <Gold.PLP.Chemscore.Internal.Correction>
0.2685

> <Gold.Rescore>
     Score         DG    S(hbond)    S(metal)    S(lipo)     H(rot)  DE(clash)    DE(int)     intcor
     10.96     -13.76       1.56        0.00      64.35       1.74       0.05       2.75       ----

> <Gold.Chemscore.Fitness>
10.9597

> <Gold.Chemscore.DG>
-13.7563

> <Gold.Chemscore.ZeroCoef>
-5.4800

> <Gold.Chemscore.Hbond>
1.5594

> <Gold.Chemscore.Metal>
0.0000

> <Gold.Chemscore.Lipo>
64.3501

> <Gold.Chemscore.Internal_Hbond>
0.0000

> <Gold.Chemscore.DEClash>
0.0462

> <Gold.Chemscore.DEInternal>
2.7504

> <Gold.Chemscore.Rot>
1.7426

> <Gold.Chemscore.Internal.Correction>
   9.000000E+99

> <Gold.Chemscore.Hbonds>
donor molecule, donor type, donor heavy atom, donor atom, acceptor molecule, acceptor atom, score
      L1  H    16    35       P1  8028  0.75
      P1  H  7989  7998       L1    17  0.72

> <Gold.Chemscore.Hbond.Weighted>
-5.2083

> <Gold.Chemscore.Metal.Weighted>
-0.0000

> <Gold.Chemscore.Lipo.Weighted>
-7.5290

> <Gold.Chemscore.Internal_Hbond.Weighted>
0.0000

> <Gold.Chemscore.DEClash.Weighted>
0.0462

> <Gold.Chemscore.DEInternal.Weighted>
2.7504

> <Gold.Chemscore.Rot.Weighted>
4.4610

> <Gold.Chemscore.Internal.Correction.Weighted>
   9.000000E+99

> <Gold.Protein.RotatedTorsions>
[ 6907 6896 6895 6894 ] final   19.06 input  -60.11 | X-H torsion
[ 7974 7965 7964 7962 ] final  179.94 input  175.53 | X-H torsion
[ 8008 7997 7996 7995 ] final  143.55 input   59.86 | X-H torsion
[ 10167 10162 10161 10158 ] final -107.36 input  -65.29 | X-H torsion
[ 10718 10713 10712 10709 ] final -160.44 input   66.30 | X-H torsion
[ 10763 10752 10751 10750 ] final -134.20 input  -60.55 | X-H torsion
[ 11005 11000 10999 10996 ] final -109.47 input  -57.11 | X-H torsion

> <Gold.Protein.ActiveResidues>
 VAL166  LYS551  ARG553  GLY616  TRP617  ASP618  TYR619  PRO620  LYS621  CYS622 
 ASP623  PHE694  ASN695  SER759  ASP760  ASP761  ALA762  ILE779  LEU786  VAL792 
 PHE793  MET794  SER795  GLU796  ALA797  LYS798  CYS799  TRP800  GLU811  SER814 

> <Gold.Protein.RotatedAtoms>
  151.8749  135.0475  160.0482 H   0  0  0  0  0  0  0  0  0  0  0  0  # atno 6907 bound_to 6896
  152.2559  133.5250  159.5361 H   0  0  0  0  0  0  0  0  0  0  0  0  # atno 6908 bound_to 6896
  150.7099  134.0813  159.3941 H   0  0  0  0  0  0  0  0  0  0  0  0  # atno 6909 bound_to 6896
  144.7141  140.0624  143.6432 H   0  0  0  0  0  0  0  0  0  0  0  0  # atno 7974 bound_to 7965
  156.2928  140.2259  156.4909 H   0  0  0  0  0  0  0  0  0  0  0  0  # atno 8008 bound_to 7997
  154.7772  140.0462  157.1120 H   0  0  0  0  0  0  0  0  0  0  0  0  # atno 8009 bound_to 7997
  154.9802  140.3077  155.4953 H   0  0  0  0  0  0  0  0  0  0  0  0  # atno 8010 bound_to 7997
  140.1778  143.3991  152.1305 H   0  0  0  0  0  0  0  0  0  0  0  0  # atno 10167 bound_to 10162
  156.5822  130.8734  151.2867 H   0  0  0  0  0  0  0  0  0  0  0  0  # atno 10718 bound_to 10713
  154.8722  135.3742  154.4697 H   0  0  0  0  0  0  0  0  0  0  0  0  # atno 10763 bound_to 10752
  153.5359  135.7027  153.5665 H   0  0  0  0  0  0  0  0  0  0  0  0  # atno 10764 bound_to 10752
  153.3849  135.3987  155.1848 H   0  0  0  0  0  0  0  0  0  0  0  0  # atno 10765 bound_to 10752
  141.0846  133.9161  157.2214 H   0  0  0  0  0  0  0  0  0  0  0  0  # atno 11005 bound_to 11000
  145.9852  139.2972  143.1018 LP  0  0  0  0  0  0  0  0  0  0  0  0  # atno 17320 bound_to 7965
  145.8965  140.9270  143.0525 LP  0  0  0  0  0  0  0  0  0  0  0  0  # atno 17321 bound_to 7965
  139.5309  144.7158  151.5059 LP  0  0  0  0  0  0  0  0  0  0  0  0  # atno 17342 bound_to 10162
  140.6540  143.8638  150.6815 LP  0  0  0  0  0  0  0  0  0  0  0  0  # atno 17343 bound_to 10162
  157.7324  130.9714  150.1925 LP  0  0  0  0  0  0  0  0  0  0  0  0  # atno 17370 bound_to 10713
  156.2622  130.3712  149.8119 LP  0  0  0  0  0  0  0  0  0  0  0  0  # atno 17371 bound_to 10713
  139.9663  135.0141  156.9394 LP  0  0  0  0  0  0  0  0  0  0  0  0  # atno 17394 bound_to 11000
  140.5392  134.0736  155.7337 LP  0  0  0  0  0  0  0  0  0  0  0  0  # atno 17395 bound_to 11000

$$$$
