AV-unprocessed.smi:1629|AV-procd|sdf|6524|dock1
  -GOLD-   22720 7203D 1   1.00000     0.00000
 Structure written by MMmdl.
 44 45  0  0  0  0  0  0  0  0  3 V2000
  148.4927  132.3339  158.1217 C   0  0  0  0  0  0  0  0  0  0  0  0
  150.0072  132.8092  157.1977 S   0  0  0  0  0  0  0  0  0  0  0  0
  151.1221  132.1380  157.8853 O   0  0  0  0  0  0  0  0  0  0  0  0
  149.7565  132.4329  155.7971 O   0  0  0  0  0  0  0  0  0  0  0  0
  150.0029  134.4150  157.4240 N   0  5  0  0  0  0  0  0  0  0  0  0
  149.4143  135.2861  156.4171 C   0  0  0  0  0  0  0  0  0  0  0  0
  150.4946  135.8017  155.4274 C   0  0  0  0  0  0  0  0  0  0  0  0
  149.9795  136.9262  154.4869 C   0  0  0  0  0  0  0  0  0  0  0  0
  149.4419  138.0601  155.2709 N   0  0  0  0  0  0  0  0  0  0  0  0
  149.9925  139.2921  155.4061 C   0  0  0  0  0  0  0  0  0  0  0  0
  150.9822  139.6644  154.7738 O   0  0  0  0  0  0  0  0  0  0  0  0
  149.3708  140.0907  156.2902 N   0  0  0  0  0  0  0  0  0  0  0  0
  149.7470  141.4665  156.5920 C   0  0  0  0  0  0  0  0  0  0  0  0
  151.2618  141.6006  156.8231 C   0  0  0  0  0  0  0  0  0  0  0  0
  151.5957  142.6985  157.8136 C   0  0  0  0  0  0  0  0  0  0  0  0
  152.3513  142.4528  158.9806 C   0  0  0  0  0  0  0  0  0  0  0  0
  152.6198  143.5186  159.8647 C   0  0  0  0  0  0  0  0  0  0  0  0
  152.1270  144.8054  159.5643 C   0  0  0  0  0  0  0  0  0  0  0  0
  151.3761  144.9939  158.3860 C   0  0  0  0  0  0  0  0  0  0  0  0
  151.1399  143.9474  157.5643 N   0  3  0  0  0  0  0  0  0  0  0  0
  148.2987  137.6061  156.0846 C   0  0  0  0  0  0  0  0  0  0  0  0
  148.7442  136.5109  157.0941 C   0  0  0  0  0  0  0  0  0  0  0  0
  148.3512  131.2559  158.0513 H   0  0  0  0  0  0  0  0  0  0  0  0
  147.6304  132.8423  157.6917 H   0  0  0  0  0  0  0  0  0  0  0  0
  148.6005  132.6189  159.1677 H   0  0  0  0  0  0  0  0  0  0  0  0
  148.6445  134.7717  155.8405 H   0  0  0  0  0  0  0  0  0  0  0  0
  151.3515  136.1821  155.9860 H   0  0  0  0  0  0  0  0  0  0  0  0
  150.8694  134.9743  154.8245 H   0  0  0  0  0  0  0  0  0  0  0  0
  150.7807  137.2121  153.8060 H   0  0  0  0  0  0  0  0  0  0  0  0
  149.1897  136.5468  153.8347 H   0  0  0  0  0  0  0  0  0  0  0  0
  148.5681  139.7174  156.7760 H   0  0  0  0  0  0  0  0  0  0  0  0
  149.4399  142.0907  155.7525 H   0  0  0  0  0  0  0  0  0  0  0  0
  149.1932  141.8216  157.4629 H   0  0  0  0  0  0  0  0  0  0  0  0
  151.6746  140.6597  157.1895 H   0  0  0  0  0  0  0  0  0  0  0  0
  151.7675  141.8095  155.8791 H   0  0  0  0  0  0  0  0  0  0  0  0
  152.7199  141.4605  159.1979 H   0  0  0  0  0  0  0  0  0  0  0  0
  153.1965  143.3509  160.7625 H   0  0  0  0  0  0  0  0  0  0  0  0
  152.3218  145.6350  160.2282 H   0  0  0  0  0  0  0  0  0  0  0  0
  150.9603  145.9424  158.0784 H   0  0  0  0  0  0  0  0  0  0  0  0
  147.8333  138.4266  156.6319 H   0  0  0  0  0  0  0  0  0  0  0  0
  147.5163  137.2287  155.4225 H   0  0  0  0  0  0  0  0  0  0  0  0
  147.8837  136.1817  157.6779 H   0  0  0  0  0  0  0  0  0  0  0  0
  149.4381  136.9615  157.8056 H   0  0  0  0  0  0  0  0  0  0  0  0
  150.5944  144.1064  156.7168 H   0  0  0  0  0  0  0  0  0  0  0  0
  1  2  1  0  0  0  0
  1 23  1  0  0  0  0
  1 24  1  0  0  0  0
  1 25  1  0  0  0  0
  2  3  2  0  0  0  0
  2  4  2  0  0  0  0
  2  5  1  0  0  0  0
  5  6  1  0  0  0  0
  6 22  1  0  0  0  0
  6  7  1  0  0  0  0
  6 26  1  0  0  0  0
  7  8  1  0  0  0  0
  7 27  1  0  0  0  0
  7 28  1  0  0  0  0
  8  9  1  0  0  0  0
  8 29  1  0  0  0  0
  8 30  1  0  0  0  0
  9 10  1  0  0  0  0
  9 21  1  0  0  0  0
 10 11  2  0  0  0  0
 10 12  1  0  0  0  0
 12 13  1  0  0  0  0
 12 31  1  0  0  0  0
 13 14  1  0  0  0  0
 13 32  1  0  0  0  0
 13 33  1  0  0  0  0
 14 15  1  0  0  0  0
 14 34  1  0  0  0  0
 14 35  1  0  0  0  0
 15 20  1  0  0  0  0
 15 16  2  0  0  0  0
 16 17  1  0  0  0  0
 16 36  1  0  0  0  0
 17 18  2  0  0  0  0
 17 37  1  0  0  0  0
 18 19  1  0  0  0  0
 18 38  1  0  0  0  0
 19 20  2  0  0  0  0
 19 39  1  0  0  0  0
 20 44  1  0  0  0  0
 21 22  1  0  0  0  0
 21 40  1  0  0  0  0
 21 41  1  0  0  0  0
 22 42  1  0  0  0  0
 22 43  1  0  0  0  0
M  CHG  1   5  -1
M  CHG  1  20   1
M  END
> <s_m_source_file>
AV-unprocessed.smi

> <i_m_source_file_index>
1629

> <i_lp_mmshare_version>
43012

> <i_f3d_flags>
0

> <s_epik_input>
W0NIM11TKD1PKSg9TylbTkhdW0NIXTFbQ0gyXVtDSDJdTihbQ0gyXVtDSDJdMSlDKD1PKVtOSF1bQ0gyXVtDSDJdYzJbY0hdW2NIXVtjSF1bY0hdbjI=

> <s_epik_cmdline>
J2VwaWtfcHl0aG9uJywgJy1waCcsICc3LjAnLCAnLXRuJywgJzgnLCAnLW1hJywgJzIwMCcsICctbWV0YWxfYmluZGluZycsICctaW1hZScsICc8aW5maWxlLm1hZT4nLCAnLW9tYWUnLCAnPG91dGZpbGUubWFlPic=

> <r_epik_Ionization_Penalty>
8.25917

> <r_epik_Ionization_Penalty_Charging>
8.2591

> <r_epik_Ionization_Penalty_Neutral>
6.17235e-05

> <r_epik_State_Penalty>
8.35449

> <r_epik_Charging_Adjusted_Penalty>
16.6136

> <i_epik_Tot_Q>
0

> <i_epik_Tot_abs_Q>
2

> <r_epik_Metal_State_Penalty>
4.3175

> <b_epik_Metal_Only>
1

> <s_lp_Force_Field>
OPLS_2005

> <r_lp_Energy>
28.7999

> <b_lp_Chiralities_Consistent>
1

> <s_lp_Variant>
AV-unprocessed.smi:1629-4

> <Gold.Version>
5.8.1

> <Gold.Id.Protein>
6NUR|6NUR_protein|mol2

> <Gold.PLP.Fitness>
43.4002

> <Gold.PLP.PLP>
-31.6672

> <Gold.PLP.part.hbond>
-4.0000

> <Gold.PLP.part.metal>
0.0000

> <Gold.PLP.part.buried>
-3.7208

> <Gold.PLP.part.nonpolar>
-24.7097

> <Gold.PLP.part.repulsive>
0.0929

> <Gold.PLP.ligand.clash>
1.3080

> <Gold.PLP.ligand.torsion>
1.1407

> <Gold.PLP.Chemscore.Hbond>
4.7377

> <Gold.PLP.Chemscore.CHOScore>
0.0000

> <Gold.PLP.Chemscore.Metal>
0.0000

> <Gold.Chemscore.Hbonds>
donor molecule, donor type, donor heavy atom, donor atom, acceptor molecule, acceptor atom, score
      L1  H    20    44       P1  8028  1.76
      P1  H  6896  6907       L1     5  0.93
      P1  H  6896  6909       L1     3  0.46
      P1  H  7989  7998       L1    11  1.00

> <Gold.PLP.Chemscore.Internal.Correction>
1.1093

> <Gold.Rescore>
     Score         DG    S(hbond)    S(metal)    S(lipo)     H(rot)  DE(clash)    DE(int)     intcor
     17.52     -20.23       2.61        0.00      90.13       1.77       0.05       2.66       ----

> <Gold.Chemscore.Fitness>
17.5241

> <Gold.Chemscore.DG>
-20.2336

> <Gold.Chemscore.ZeroCoef>
-5.4800

> <Gold.Chemscore.Hbond>
2.6138

> <Gold.Chemscore.Metal>
0.0000

> <Gold.Chemscore.Lipo>
90.1259

> <Gold.Chemscore.Internal_Hbond>
0.0000

> <Gold.Chemscore.DEClash>
0.0512

> <Gold.Chemscore.DEInternal>
2.6583

> <Gold.Chemscore.Rot>
1.7661

> <Gold.Chemscore.Internal.Correction>
   9.000000E+99

> <Gold.Chemscore.Hbonds>
donor molecule, donor type, donor heavy atom, donor atom, acceptor molecule, acceptor atom, score
      L1  H    20    44       P1  8028  0.83
      P1  H  6896  6907       L1     5  0.08
      P1  H  6896  6909       L1     3  0.39
      P1  H  7989  7998       L1    11  1.00

> <Gold.Chemscore.Hbond.Weighted>
-8.7300

> <Gold.Chemscore.Metal.Weighted>
-0.0000

> <Gold.Chemscore.Lipo.Weighted>
-10.5447

> <Gold.Chemscore.Internal_Hbond.Weighted>
0.0000

> <Gold.Chemscore.DEClash.Weighted>
0.0512

> <Gold.Chemscore.DEInternal.Weighted>
2.6583

> <Gold.Chemscore.Rot.Weighted>
4.5211

> <Gold.Chemscore.Internal.Correction.Weighted>
   9.000000E+99

> <Gold.Protein.RotatedTorsions>
[ 6907 6896 6895 6894 ] final  -81.56 input  -60.11 | X-H torsion
[ 7974 7965 7964 7962 ] final   75.87 input  175.53 | X-H torsion
[ 8008 7997 7996 7995 ] final  -21.99 input   59.86 | X-H torsion
[ 10167 10162 10161 10158 ] final -118.71 input  -65.29 | X-H torsion
[ 10718 10713 10712 10709 ] final  -77.02 input   66.30 | X-H torsion
[ 10763 10752 10751 10750 ] final   38.49 input  -60.55 | X-H torsion
[ 11005 11000 10999 10996 ] final  114.38 input  -57.11 | X-H torsion

> <Gold.Protein.ActiveResidues>
 VAL166  LYS551  ARG553  GLY616  TRP617  ASP618  TYR619  PRO620  LYS621  CYS622 
 ASP623  PHE694  ASN695  SER759  ASP760  ASP761  ALA762  ILE779  LEU786  VAL792 
 PHE793  MET794  SER795  GLU796  ALA797  LYS798  CYS799  TRP800  GLU811  SER814 

> <Gold.Protein.RotatedAtoms>
  150.6910  134.3799  159.5029 H   0  0  0  0  0  0  0  0  0  0  0  0  # atno 6907 bound_to 6896
  152.1603  134.8915  160.0551 H   0  0  0  0  0  0  0  0  0  0  0  0  # atno 6908 bound_to 6896
  151.9979  133.3780  159.4207 H   0  0  0  0  0  0  0  0  0  0  0  0  # atno 6909 bound_to 6896
  145.7101  139.2612  143.1655 H   0  0  0  0  0  0  0  0  0  0  0  0  # atno 7974 bound_to 7965
  154.4671  140.2020  156.0090 H   0  0  0  0  0  0  0  0  0  0  0  0  # atno 8008 bound_to 7997
  156.0946  140.3253  155.7832 H   0  0  0  0  0  0  0  0  0  0  0  0  # atno 8009 bound_to 7997
  155.4899  140.0545  157.2946 H   0  0  0  0  0  0  0  0  0  0  0  0  # atno 8010 bound_to 7997
  140.0545  143.5028  152.2064 H   0  0  0  0  0  0  0  0  0  0  0  0  # atno 10167 bound_to 10162
  156.0157  130.4480  150.3282 H   0  0  0  0  0  0  0  0  0  0  0  0  # atno 10718 bound_to 10713
  152.9999  135.6248  154.2314 H   0  0  0  0  0  0  0  0  0  0  0  0  # atno 10763 bound_to 10752
  154.2056  135.2802  155.2978 H   0  0  0  0  0  0  0  0  0  0  0  0  # atno 10764 bound_to 10752
  154.5649  135.5694  153.7100 H   0  0  0  0  0  0  0  0  0  0  0  0  # atno 10765 bound_to 10752
  139.8979  134.9567  156.6883 H   0  0  0  0  0  0  0  0  0  0  0  0  # atno 11005 bound_to 11000
  146.0720  140.7858  142.9683 LP  0  0  0  0  0  0  0  0  0  0  0  0  # atno 17320 bound_to 7965
  144.6944  140.3357  143.7208 LP  0  0  0  0  0  0  0  0  0  0  0  0  # atno 17321 bound_to 7965
  139.5932  144.7558  151.3349 LP  0  0  0  0  0  0  0  0  0  0  0  0  # atno 17342 bound_to 10162
  140.7201  143.7159  150.7733 LP  0  0  0  0  0  0  0  0  0  0  0  0  # atno 17343 bound_to 10162
  157.1380  131.0289  151.2940 LP  0  0  0  0  0  0  0  0  0  0  0  0  # atno 17370 bound_to 10713
  157.4495  130.7590  149.7139 LP  0  0  0  0  0  0  0  0  0  0  0  0  # atno 17371 bound_to 10713
  140.7245  133.9112  155.8169 LP  0  0  0  0  0  0  0  0  0  0  0  0  # atno 17394 bound_to 11000
  141.0202  134.0900  157.4129 LP  0  0  0  0  0  0  0  0  0  0  0  0  # atno 17395 bound_to 11000

$$$$
