AV-unprocessed.smi:1803|AV-procd|sdf|7288|dock5
  -GOLD-   22720 8543D 1   1.00000     0.00000
 Structure written by MMmdl.
 35 37  0  0  0  0  0  0  0  0  3 V2000
  149.0400  132.8305  155.2008 O   0  0  0  0  0  0  0  0  0  0  0  0
  148.7729  133.9322  154.7227 C   0  0  0  0  0  0  0  0  0  0  0  0
  149.0544  135.1056  155.3462 N   0  5  0  0  0  0  0  0  0  0  0  0
  148.9692  135.2563  156.6812 C   0  0  0  0  0  0  0  0  0  0  0  0
  149.0994  134.2259  157.5328 N   0  0  0  0  0  0  0  0  0  0  0  0
  148.9883  134.6015  158.8644 N   0  0  0  0  0  0  0  0  0  0  0  0
  148.7614  135.9095  158.9832 C   0  0  0  0  0  0  0  0  0  0  0  0
  148.6708  136.8020  157.4793 S   0  0  0  0  0  0  0  0  0  0  0  0
  148.1807  133.9893  153.5144 N   0  0  0  0  0  0  0  0  0  0  0  0
  147.8533  132.8451  152.6696 C   0  0  1  0  0  0  0  0  0  0  0  0
  147.1509  131.7138  153.4319 C   0  0  0  0  0  0  0  0  0  0  0  0
  146.1991  131.0712  152.4075 C   0  0  0  0  0  0  0  0  0  0  0  0
  146.3661  131.8380  151.1529 N   0  3  1  0  0  0  0  0  0  0  0  0
  145.2190  131.8229  150.2095 C   0  0  0  0  0  0  0  0  0  0  0  0
  144.0922  132.7828  150.6274 C   0  0  0  0  0  0  0  0  0  0  0  0
  144.6405  134.1952  150.8539 C   0  0  0  0  0  0  0  0  0  0  0  0
  145.7435  134.1525  151.9164 C   0  0  0  0  0  0  0  0  0  0  0  0
  146.8811  133.1741  151.5247 C   0  0  1  0  0  0  0  0  0  0  0  0
  148.6488  136.3516  159.9618 H   0  0  0  0  0  0  0  0  0  0  0  0
  147.9723  134.9048  153.1433 H   0  0  0  0  0  0  0  0  0  0  0  0
  148.7731  132.4396  152.2426 H   0  0  0  0  0  0  0  0  0  0  0  0
  147.8678  130.9974  153.8344 H   0  0  0  0  0  0  0  0  0  0  0  0
  146.5746  132.1073  154.2709 H   0  0  0  0  0  0  0  0  0  0  0  0
  146.4321  130.0198  152.2372 H   0  0  0  0  0  0  0  0  0  0  0  0
  145.1713  131.1305  152.7674 H   0  0  0  0  0  0  0  0  0  0  0  0
  145.5920  132.1164  149.2276 H   0  0  0  0  0  0  0  0  0  0  0  0
  144.8405  130.8055  150.1050 H   0  0  0  0  0  0  0  0  0  0  0  0
  143.3196  132.8033  149.8583 H   0  0  0  0  0  0  0  0  0  0  0  0
  143.6091  132.4246  151.5370 H   0  0  0  0  0  0  0  0  0  0  0  0
  145.0362  134.5984  149.9208 H   0  0  0  0  0  0  0  0  0  0  0  0
  143.8397  134.8638  151.1709 H   0  0  0  0  0  0  0  0  0  0  0  0
  146.1446  135.1560  152.0626 H   0  0  0  0  0  0  0  0  0  0  0  0
  145.3046  133.8589  152.8707 H   0  0  0  0  0  0  0  0  0  0  0  0
  147.4232  133.5909  150.6747 H   0  0  0  0  0  0  0  0  0  0  0  0
  147.1309  131.3836  150.6746 H   0  0  0  0  0  0  0  0  0  0  0  0
  1  2  2  0  0  0  0
  2  3  1  0  0  0  0
  2  9  1  0  0  0  0
  3  4  1  0  0  0  0
  4  8  1  0  0  0  0
  4  5  2  0  0  0  0
  5  6  1  0  0  0  0
  6  7  2  0  0  0  0
  7  8  1  0  0  0  0
  7 19  1  0  0  0  0
  9 10  1  0  0  0  0
  9 20  1  0  0  0  0
 10 18  1  0  0  0  0
 10 11  1  0  0  0  0
 10 21  1  0  0  0  0
 11 12  1  0  0  0  0
 11 22  1  0  0  0  0
 11 23  1  0  0  0  0
 12 13  1  0  0  0  0
 12 24  1  0  0  0  0
 12 25  1  0  0  0  0
 13 18  1  0  0  0  0
 13 14  1  0  0  0  0
 13 35  1  0  0  0  0
 14 15  1  0  0  0  0
 14 26  1  0  0  0  0
 14 27  1  0  0  0  0
 15 16  1  0  0  0  0
 15 28  1  0  0  0  0
 15 29  1  0  0  0  0
 16 17  1  0  0  0  0
 16 30  1  0  0  0  0
 16 31  1  0  0  0  0
 17 18  1  0  0  0  0
 17 32  1  0  0  0  0
 17 33  1  0  0  0  0
 18 34  1  0  0  0  0
M  CHG  1   3  -1
M  CHG  1  13   1
M  END
> <s_m_source_file>
AV-unprocessed.smi

> <i_m_source_file_index>
1803

> <i_lp_mmshare_version>
43012

> <i_f3d_flags>
0

> <s_epik_input>
czFbY0hdbm5jMVtOSF1DKD1PKVtOSF1bQ0BIXShbQ0gyXVtDSDJdMilbQ0BASF0oTjIzKVtDSDJdW0NIMl1bQ0gyXVtDSDJdMw==

> <s_epik_cmdline>
J2VwaWtfcHl0aG9uJywgJy1waCcsICc3LjAnLCAnLXRuJywgJzgnLCAnLW1hJywgJzIwMCcsICctbWV0YWxfYmluZGluZycsICctaW1hZScsICc8aW5maWxlLm1hZT4nLCAnLW9tYWUnLCAnPG91dGZpbGUubWFlPic=

> <r_lp_tautomer_probability>
1

> <r_epik_Ionization_Penalty>
3.78828

> <r_epik_Ionization_Penalty_Charging>
3.7591

> <r_epik_Ionization_Penalty_Neutral>
0.0291838

> <r_epik_State_Penalty>
3.757

> <r_epik_Charging_Adjusted_Penalty>
7.51609

> <i_epik_Tot_Q>
0

> <i_epik_Tot_abs_Q>
2

> <r_epik_Metal_State_Penalty>
0.558016

> <b_epik_Metal_Only>
1

> <s_lp_Force_Field>
OPLS_2005

> <r_lp_Energy>
30.1197

> <b_lp_Chiralities_Consistent>
1

> <s_lp_Variant>
AV-unprocessed.smi:1803-10

> <Gold.Version>
5.8.1

> <Gold.Id.Protein>
6NUR|6NUR_protein|mol2

> <Gold.PLP.Fitness>
34.9733

> <Gold.PLP.PLP>
-27.1094

> <Gold.PLP.part.hbond>
-3.3014

> <Gold.PLP.part.metal>
0.0000

> <Gold.PLP.part.buried>
-4.2624

> <Gold.PLP.part.nonpolar>
-19.9366

> <Gold.PLP.part.repulsive>
0.1698

> <Gold.PLP.ligand.clash>
0.0000

> <Gold.PLP.ligand.torsion>
0.5580

> <Gold.PLP.Chemscore.Hbond>
2.9920

> <Gold.PLP.Chemscore.CHOScore>
0.0000

> <Gold.PLP.Chemscore.Metal>
0.0000

> <Gold.Chemscore.Hbonds>
donor molecule, donor type, donor heavy atom, donor atom, acceptor molecule, acceptor atom, score
      L1  H     9    20       P1  7948  0.62
      L1  H    13    35       P1 10747  1.00
      P1  H  6896  6907       L1     6  1.00

> <Gold.PLP.Chemscore.Internal.Correction>
0.0038

> <Gold.Rescore>
     Score         DG    S(hbond)    S(metal)    S(lipo)     H(rot)  DE(clash)    DE(int)     intcor
     14.89     -18.35       2.52        0.00      59.85       1.00       0.03       3.42       ----

> <Gold.Chemscore.Fitness>
14.8942

> <Gold.Chemscore.DG>
-18.3463

> <Gold.Chemscore.ZeroCoef>
-5.4800

> <Gold.Chemscore.Hbond>
2.5220

> <Gold.Chemscore.Metal>
0.0000

> <Gold.Chemscore.Lipo>
59.8523

> <Gold.Chemscore.Internal_Hbond>
0.0000

> <Gold.Chemscore.DEClash>
0.0323

> <Gold.Chemscore.DEInternal>
3.4198

> <Gold.Chemscore.Rot>
1.0000

> <Gold.Chemscore.Internal.Correction>
   9.000000E+99

> <Gold.Chemscore.Hbonds>
donor molecule, donor type, donor heavy atom, donor atom, acceptor molecule, acceptor atom, score
      L1  H     9    20       P1  7948  0.58
      L1  H    13    35       P1 10747  0.98
      P1  H  6896  6907       L1     6  0.20

> <Gold.Chemscore.Hbond.Weighted>
-8.4236

> <Gold.Chemscore.Metal.Weighted>
-0.0000

> <Gold.Chemscore.Lipo.Weighted>
-7.0027

> <Gold.Chemscore.Internal_Hbond.Weighted>
0.0000

> <Gold.Chemscore.DEClash.Weighted>
0.0323

> <Gold.Chemscore.DEInternal.Weighted>
3.4198

> <Gold.Chemscore.Rot.Weighted>
2.5600

> <Gold.Chemscore.Internal.Correction.Weighted>
   9.000000E+99

> <Gold.Protein.RotatedTorsions>
[ 6907 6896 6895 6894 ] final  -88.94 input  -60.11 | X-H torsion
[ 7974 7965 7964 7962 ] final   62.10 input  175.53 | X-H torsion
[ 8008 7997 7996 7995 ] final  106.54 input   59.86 | X-H torsion
[ 10167 10162 10161 10158 ] final  -10.38 input  -65.29 | X-H torsion
[ 10718 10713 10712 10709 ] final -144.87 input   66.30 | X-H torsion
[ 10763 10752 10751 10750 ] final -172.20 input  -60.55 | X-H torsion
[ 11005 11000 10999 10996 ] final   51.93 input  -57.11 | X-H torsion

> <Gold.Protein.ActiveResidues>
 VAL166  LYS551  ARG553  GLY616  TRP617  ASP618  TYR619  PRO620  LYS621  CYS622 
 ASP623  PHE694  ASN695  SER759  ASP760  ASP761  ALA762  ILE779  LEU786  VAL792 
 PHE793  MET794  SER795  GLU796  ALA797  LYS798  CYS799  TRP800  GLU811  SER814 

> <Gold.Protein.RotatedAtoms>
  150.6871  134.2664  159.4569 H   0  0  0  0  0  0  0  0  0  0  0  0  # atno 6907 bound_to 6896
  152.0589  134.9604  160.0584 H   0  0  0  0  0  0  0  0  0  0  0  0  # atno 6908 bound_to 6896
  152.1039  133.4229  159.4636 H   0  0  0  0  0  0  0  0  0  0  0  0  # atno 6909 bound_to 6896
  145.8771  139.3418  143.0728 H   0  0  0  0  0  0  0  0  0  0  0  0  # atno 7974 bound_to 7965
  156.1751  140.3111  155.9045 H   0  0  0  0  0  0  0  0  0  0  0  0  # atno 8008 bound_to 7997
  155.3504  140.0471  157.3063 H   0  0  0  0  0  0  0  0  0  0  0  0  # atno 8009 bound_to 7997
  154.5282  140.2221  155.8862 H   0  0  0  0  0  0  0  0  0  0  0  0  # atno 8010 bound_to 7997
  140.7112  143.5755  150.9047 H   0  0  0  0  0  0  0  0  0  0  0  0  # atno 10167 bound_to 10162
  156.3755  130.7810  151.1996 H   0  0  0  0  0  0  0  0  0  0  0  0  # atno 10718 bound_to 10713
  154.6219  135.2876  155.0316 H   0  0  0  0  0  0  0  0  0  0  0  0  # atno 10763 bound_to 10752
  154.1507  135.6504  153.4967 H   0  0  0  0  0  0  0  0  0  0  0  0  # atno 10764 bound_to 10752
  153.0240  135.5355  154.7013 H   0  0  0  0  0  0  0  0  0  0  0  0  # atno 10765 bound_to 10752
  140.0891  134.5234  155.8870 H   0  0  0  0  0  0  0  0  0  0  0  0  # atno 11005 bound_to 11000
  145.9067  140.9207  143.0475 LP  0  0  0  0  0  0  0  0  0  0  0  0  # atno 17320 bound_to 7965
  144.6726  140.1105  143.7455 LP  0  0  0  0  0  0  0  0  0  0  0  0  # atno 17321 bound_to 7965
  139.9481  143.6304  152.3036 LP  0  0  0  0  0  0  0  0  0  0  0  0  # atno 17342 bound_to 10162
  139.6813  144.7655  151.1604 LP  0  0  0  0  0  0  0  0  0  0  0  0  # atno 17343 bound_to 10162
  157.7488  131.0359  150.4387 LP  0  0  0  0  0  0  0  0  0  0  0  0  # atno 17370 bound_to 10713
  156.4622  130.4034  149.6569 LP  0  0  0  0  0  0  0  0  0  0  0  0  # atno 17371 bound_to 10713
  141.2072  133.6662  156.6291 LP  0  0  0  0  0  0  0  0  0  0  0  0  # atno 17394 bound_to 11000
  140.3378  134.7875  157.4375 LP  0  0  0  0  0  0  0  0  0  0  0  0  # atno 17395 bound_to 11000

$$$$
