AV-unprocessed.smi:252|AV-procd|sdf|1943|dock1
  -GOLD-   2262021 73D 1   1.00000     0.00000
 Structure written by MMmdl.
 56 59  0  0  0  0  0  0  0  0  1 V2000
  152.7312  144.1587  158.2318 C   0  0  0  0  0  0  0  0  0  0  0  0
  151.5706  143.3136  158.7804 C   0  0  0  0  0  0  0  0  0  0  0  0
  151.0163  142.3024  157.7717 C   0  0  0  0  0  0  0  0  0  0  0  0
  151.7272  141.4051  157.3174 O   0  0  0  0  0  0  0  0  0  0  0  0
  149.7295  142.4655  157.4278 N   0  0  0  0  0  0  0  0  0  0  0  0
  148.9989  141.6321  156.4785 C   0  0  1  0  0  0  0  0  0  0  0  0
  149.6848  141.6874  155.1017 C   0  0  0  0  0  0  0  0  0  0  0  0
  148.9804  140.7458  154.1132 C   0  0  0  0  0  0  0  0  0  0  0  0
  148.9078  139.3158  154.6713 C   0  0  0  0  0  0  0  0  0  0  0  0
  148.2873  139.3051  155.9956 N   0  0  0  0  0  0  0  0  0  0  0  0
  147.8645  138.0847  156.4130 C   0  0  0  0  0  0  0  0  0  0  0  0
  147.1668  137.2813  155.5656 N   0  0  0  0  0  0  0  0  0  0  0  0
  146.7383  136.0824  155.9705 C   0  0  0  0  0  0  0  0  0  0  0  0
  146.8934  135.4992  157.1602 N   0  0  0  0  0  0  0  0  0  0  0  0
  147.5961  136.2968  158.0144 C   0  0  0  0  0  0  0  0  0  0  0  0
  148.1182  137.5891  157.7233 C   0  0  0  0  0  0  0  0  0  0  0  0
  148.7966  138.0846  158.8309 N   0  0  0  0  0  0  0  0  0  0  0  0
  148.6756  137.1436  159.7265 C   0  0  0  0  0  0  0  0  0  0  0  0
  147.9565  136.0401  159.3259 N   0  0  0  0  0  0  0  0  0  0  0  0
  147.6682  134.8541  160.1174 C   0  0  0  0  0  0  0  0  0  0  0  0
  146.5639  135.0622  161.1912 C   0  0  2  0  0  0  0  0  0  0  0  0
  145.2965  135.1238  160.5649 O   0  0  0  0  0  0  0  0  0  0  0  0
  146.7548  136.3123  162.0421 C   0  0  0  0  0  0  0  0  0  0  0  0
  147.7474  135.8427  163.1012 C   0  0  0  0  0  0  0  0  0  0  0  0
  147.4880  134.4533  163.2813 O   0  0  0  0  0  0  0  0  0  0  0  0
  146.5595  133.9937  162.3019 C   0  0  2  0  0  0  0  0  0  0  0  0
  146.8838  132.5534  161.8781 C   0  0  0  0  0  0  0  0  0  0  0  0
  148.9209  140.1776  156.9859 C   0  0  0  0  0  0  0  0  0  0  0  0
  153.0717  144.8763  158.9786 H   0  0  0  0  0  0  0  0  0  0  0  0
  152.4302  144.7215  157.3473 H   0  0  0  0  0  0  0  0  0  0  0  0
  153.5850  143.5360  157.9623 H   0  0  0  0  0  0  0  0  0  0  0  0
  151.8985  142.7737  159.6694 H   0  0  0  0  0  0  0  0  0  0  0  0
  150.7610  143.9739  159.0940 H   0  0  0  0  0  0  0  0  0  0  0  0
  149.2197  143.2278  157.8499 H   0  0  0  0  0  0  0  0  0  0  0  0
  147.9853  142.0227  156.3680 H   0  0  0  0  0  0  0  0  0  0  0  0
  149.6761  142.7071  154.7147 H   0  0  0  0  0  0  0  0  0  0  0  0
  150.7324  141.3971  155.1954 H   0  0  0  0  0  0  0  0  0  0  0  0
  147.9716  141.1110  153.9161 H   0  0  0  0  0  0  0  0  0  0  0  0
  149.5036  140.7462  153.1569 H   0  0  0  0  0  0  0  0  0  0  0  0
  148.3647  138.6835  153.9696 H   0  0  0  0  0  0  0  0  0  0  0  0
  149.9120  138.8983  154.7532 H   0  0  0  0  0  0  0  0  0  0  0  0
  146.1919  135.5086  155.2366 H   0  0  0  0  0  0  0  0  0  0  0  0
  149.1049  137.2318  160.7140 H   0  0  0  0  0  0  0  0  0  0  0  0
  147.3836  134.0566  159.4302 H   0  0  0  0  0  0  0  0  0  0  0  0
  148.5981  134.5306  160.5865 H   0  0  0  0  0  0  0  0  0  0  0  0
  144.6844  134.6152  161.0743 H   0  0  0  0  0  0  0  0  0  0  0  0
  147.0918  137.1926  161.4966 H   0  0  0  0  0  0  0  0  0  0  0  0
  145.8180  136.5801  162.5343 H   0  0  0  0  0  0  0  0  0  0  0  0
  148.7718  135.9644  162.7480 H   0  0  0  0  0  0  0  0  0  0  0  0
  147.6450  136.3920  164.0374 H   0  0  0  0  0  0  0  0  0  0  0  0
  145.5823  133.9981  162.7887 H   0  0  0  0  0  0  0  0  0  0  0  0
  146.1987  132.2092  161.1029 H   0  0  0  0  0  0  0  0  0  0  0  0
  146.7937  131.8740  162.7259 H   0  0  0  0  0  0  0  0  0  0  0  0
  147.9007  132.4635  161.4965 H   0  0  0  0  0  0  0  0  0  0  0  0
  149.9227  139.8028  157.2022 H   0  0  0  0  0  0  0  0  0  0  0  0
  148.3567  140.1464  157.9193 H   0  0  0  0  0  0  0  0  0  0  0  0
  1  2  1  0  0  0  0
  1 29  1  0  0  0  0
  1 30  1  0  0  0  0
  1 31  1  0  0  0  0
  2  3  1  0  0  0  0
  2 32  1  0  0  0  0
  2 33  1  0  0  0  0
  3  4  2  0  0  0  0
  3  5  1  0  0  0  0
  5  6  1  0  0  0  0
  5 34  1  0  0  0  0
  6 28  1  0  0  0  0
  6  7  1  0  0  0  0
  6 35  1  0  0  0  0
  7  8  1  0  0  0  0
  7 36  1  0  0  0  0
  7 37  1  0  0  0  0
  8  9  1  0  0  0  0
  8 38  1  0  0  0  0
  8 39  1  0  0  0  0
  9 10  1  0  0  0  0
  9 40  1  0  0  0  0
  9 41  1  0  0  0  0
 10 11  1  0  0  0  0
 10 28  1  0  0  0  0
 11 16  1  0  0  0  0
 11 12  2  0  0  0  0
 12 13  1  0  0  0  0
 13 14  2  0  0  0  0
 13 42  1  0  0  0  0
 14 15  1  0  0  0  0
 15 19  1  0  0  0  0
 15 16  2  0  0  0  0
 16 17  1  0  0  0  0
 17 18  2  0  0  0  0
 18 19  1  0  0  0  0
 18 43  1  0  0  0  0
 19 20  1  0  0  0  0
 20 21  1  0  0  0  0
 20 44  1  0  0  0  0
 20 45  1  0  0  0  0
 21 26  1  0  0  0  0
 21 22  1  0  0  0  0
 21 23  1  0  0  0  0
 22 46  1  0  0  0  0
 23 24  1  0  0  0  0
 23 47  1  0  0  0  0
 23 48  1  0  0  0  0
 24 25  1  0  0  0  0
 24 49  1  0  0  0  0
 24 50  1  0  0  0  0
 25 26  1  0  0  0  0
 26 27  1  0  0  0  0
 26 51  1  0  0  0  0
 27 52  1  0  0  0  0
 27 53  1  0  0  0  0
 27 54  1  0  0  0  0
 28 55  1  0  0  0  0
 28 56  1  0  0  0  0
M  END
> <s_m_source_file>
AV-unprocessed.smi

> <i_m_source_file_index>
252

> <i_lp_mmshare_version>
43012

> <i_f3d_flags>
0

> <s_epik_input>
W0NIM11bQ0gyXUMoPU8pW05IXVtDQEBIXTFbQ0gyXVtDSDJdW0NIMl1OKFtDSDJdMSljKG5bY0hdbjIpYyhjMjMpbltjSF1uM1tDSDJdW0NAQF00KFtPSF0pW0NIMl1bQ0gyXU9bQ0BIXTRbQ0gzXQ==

> <s_epik_cmdline>
J2VwaWtfcHl0aG9uJywgJy1waCcsICc3LjAnLCAnLXRuJywgJzgnLCAnLW1hJywgJzIwMCcsICctbWV0YWxfYmluZGluZycsICctaW1hZScsICc8aW5maWxlLm1hZT4nLCAnLW9tYWUnLCAnPG91dGZpbGUubWFlPic=

> <r_lp_tautomer_probability>
1

> <r_epik_Ionization_Penalty>
0.00182575

> <r_epik_Ionization_Penalty_Charging>
0

> <r_epik_Ionization_Penalty_Neutral>
0.00182575

> <r_epik_State_Penalty>
0.00104524

> <r_epik_Charging_Adjusted_Penalty>
0.00104524

> <i_epik_Tot_Q>
0

> <i_epik_Tot_abs_Q>
0

> <r_epik_Metal_State_Penalty>
-0

> <b_epik_Metal_Only>
0

> <s_lp_Force_Field>
OPLS_2005

> <r_lp_Energy>
35.9235

> <b_lp_Chiralities_Consistent>
1

> <s_lp_Variant>
AV-unprocessed.smi:252-8

> <Gold.Version>
5.8.1

> <Gold.Id.Protein>
6NUR|6NUR_protein|mol2

> <Gold.PLP.Fitness>
37.9688

> <Gold.PLP.PLP>
-38.6769

> <Gold.PLP.part.hbond>
-3.1183

> <Gold.PLP.part.metal>
0.0000

> <Gold.PLP.part.buried>
-0.4179

> <Gold.PLP.part.nonpolar>
-34.5428

> <Gold.PLP.part.repulsive>
0.1202

> <Gold.PLP.ligand.clash>
0.0000

> <Gold.PLP.ligand.torsion>
0.5624

> <Gold.PLP.Chemscore.Hbond>
0.0000

> <Gold.PLP.Chemscore.CHOScore>
0.0000

> <Gold.PLP.Chemscore.Metal>
0.0000

> <Gold.PLP.Chemscore.Internal.Correction>
0.4168

> <Gold.Rescore>
     Score         DG    S(hbond)    S(metal)    S(lipo)     H(rot)  DE(clash)    DE(int)     intcor
      6.73     -10.15       0.00        0.00      99.09       2.70       0.36       3.06       ----

> <Gold.Chemscore.Fitness>
6.7301

> <Gold.Chemscore.DG>
-10.1509

> <Gold.Chemscore.ZeroCoef>
-5.4800

> <Gold.Chemscore.Hbond>
0.0001

> <Gold.Chemscore.Metal>
0.0000

> <Gold.Chemscore.Lipo>
99.0867

> <Gold.Chemscore.Internal_Hbond>
0.0000

> <Gold.Chemscore.DEClash>
0.3590

> <Gold.Chemscore.DEInternal>
3.0618

> <Gold.Chemscore.Rot>
2.7041

> <Gold.Chemscore.Internal.Correction>
   9.000000E+99

> <Gold.Chemscore.Hbond.Weighted>
-0.0002

> <Gold.Chemscore.Metal.Weighted>
-0.0000

> <Gold.Chemscore.Lipo.Weighted>
-11.5931

> <Gold.Chemscore.Internal_Hbond.Weighted>
0.0000

> <Gold.Chemscore.DEClash.Weighted>
0.3590

> <Gold.Chemscore.DEInternal.Weighted>
3.0618

> <Gold.Chemscore.Rot.Weighted>
6.9225

> <Gold.Chemscore.Internal.Correction.Weighted>
   9.000000E+99

> <Gold.Protein.RotatedTorsions>
[ 6907 6896 6895 6894 ] final  -93.21 input  -60.11 | X-H torsion
[ 7974 7965 7964 7962 ] final  -24.34 input  175.53 | X-H torsion
[ 8008 7997 7996 7995 ] final   52.07 input   59.86 | X-H torsion
[ 10167 10162 10161 10158 ] final -153.77 input  -65.29 | X-H torsion
[ 10718 10713 10712 10709 ] final   80.95 input   66.30 | X-H torsion
[ 10763 10752 10751 10750 ] final  141.38 input  -60.55 | X-H torsion
[ 11005 11000 10999 10996 ] final   -4.68 input  -57.11 | X-H torsion

> <Gold.Protein.ActiveResidues>
 VAL166  LYS551  ARG553  GLY616  TRP617  ASP618  TYR619  PRO620  LYS621  CYS622 
 ASP623  PHE694  ASN695  SER759  ASP760  ASP761  ALA762  ILE779  LEU786  VAL792 
 PHE793  MET794  SER795  GLU796  ALA797  LYS798  CYS799  TRP800  GLU811  SER814 

> <Gold.Protein.RotatedAtoms>
  150.6919  134.2002  159.4318 H   0  0  0  0  0  0  0  0  0  0  0  0  # atno 6907 bound_to 6896
  151.9968  134.9947  160.0573 H   0  0  0  0  0  0  0  0  0  0  0  0  # atno 6908 bound_to 6896
  152.1616  133.4550  159.4900 H   0  0  0  0  0  0  0  0  0  0  0  0  # atno 6909 bound_to 6896
  146.1560  140.4739  142.8591 H   0  0  0  0  0  0  0  0  0  0  0  0  # atno 7974 bound_to 7965
  155.4458  140.3456  155.4295 H   0  0  0  0  0  0  0  0  0  0  0  0  # atno 8008 bound_to 7997
  156.1251  140.1498  156.9178 H   0  0  0  0  0  0  0  0  0  0  0  0  # atno 8009 bound_to 7997
  154.4852  140.0857  156.7449 H   0  0  0  0  0  0  0  0  0  0  0  0  # atno 8010 bound_to 7997
  139.7069  143.9172  152.2452 H   0  0  0  0  0  0  0  0  0  0  0  0  # atno 10167 bound_to 10162
  157.6820  130.9982  150.2154 H   0  0  0  0  0  0  0  0  0  0  0  0  # atno 10718 bound_to 10713
  153.9383  135.2982  155.3443 H   0  0  0  0  0  0  0  0  0  0  0  0  # atno 10763 bound_to 10752
  154.7490  135.4989  153.9259 H   0  0  0  0  0  0  0  0  0  0  0  0  # atno 10764 bound_to 10752
  153.1055  135.6746  153.9700 H   0  0  0  0  0  0  0  0  0  0  0  0  # atno 10765 bound_to 10752
  140.6829  133.9138  155.8567 H   0  0  0  0  0  0  0  0  0  0  0  0  # atno 11005 bound_to 11000
  144.7964  140.6131  143.6507 LP  0  0  0  0  0  0  0  0  0  0  0  0  # atno 17320 bound_to 7965
  145.4706  139.1504  143.3816 LP  0  0  0  0  0  0  0  0  0  0  0  0  # atno 17321 bound_to 7965
  139.9030  144.6900  150.8644 LP  0  0  0  0  0  0  0  0  0  0  0  0  # atno 17342 bound_to 10162
  140.7724  143.3499  151.2035 LP  0  0  0  0  0  0  0  0  0  0  0  0  # atno 17343 bound_to 10162
  156.2817  130.3734  149.7929 LP  0  0  0  0  0  0  0  0  0  0  0  0  # atno 17370 bound_to 10713
  156.5615  130.8385  151.3330 LP  0  0  0  0  0  0  0  0  0  0  0  0  # atno 17371 bound_to 10713
  141.0303  134.0765  157.4021 LP  0  0  0  0  0  0  0  0  0  0  0  0  # atno 17394 bound_to 11000
  139.8946  135.0137  156.6960 LP  0  0  0  0  0  0  0  0  0  0  0  0  # atno 17395 bound_to 11000

$$$$
