AV-unprocessed.smi:1953|AV-procd|sdf|7893|dock1
  -GOLD-   2272010 53D 1   1.00000     0.00000
 Structure written by MMmdl.
 43 45  0  0  0  0  0  0  0  0  1 V2000
  148.4687  142.5327  154.1596 N   0  0  0  0  0  0  0  0  0  0  0  0
  149.2402  142.0994  154.9057 C   0  0  0  0  0  0  0  0  0  0  0  0
  150.2126  141.5840  155.8116 C   0  0  0  0  0  0  0  0  0  0  0  0
  150.4429  142.1591  157.0099 C   0  0  0  0  0  0  0  0  0  0  0  0
  151.3684  141.6650  157.9030 N   0  0  0  0  0  0  0  0  0  0  0  0
  151.7002  142.3696  159.1092 C   0  0  0  0  0  0  0  0  0  0  0  0
  150.9562  143.6389  159.4770 C   0  0  0  0  0  0  0  0  0  0  0  0
  152.3893  143.7134  159.0117 C   0  0  0  0  0  0  0  0  0  0  0  0
  152.1802  140.5658  157.5489 C   0  0  0  0  0  0  0  0  0  0  0  0
  153.0675  140.1588  158.3034 O   0  0  0  0  0  0  0  0  0  0  0  0
  151.9457  139.9438  156.2983 N   0  0  0  0  0  0  0  0  0  0  0  0
  152.7480  138.7517  155.9470 C   0  0  0  0  0  0  0  0  0  0  0  0
  151.8849  137.5501  155.5353 C   0  0  0  0  0  0  0  0  0  0  0  0
  151.9496  137.0887  154.3948 O   0  0  0  0  0  0  0  0  0  0  0  0
  151.0844  137.0475  156.4873 N   0  0  0  0  0  0  0  0  0  0  0  0
  150.1685  135.9240  156.3147 C   0  0  0  0  0  0  0  0  0  0  0  0
  150.9401  134.6495  155.9103 C   0  0  0  0  0  0  0  0  0  0  0  0
  149.9860  133.4751  155.6396 C   0  0  0  0  0  0  0  0  0  0  0  0
  148.9371  133.8419  154.5787 C   0  0  0  0  0  0  0  0  0  0  0  0
  148.1602  135.1044  154.9829 C   0  0  0  0  0  0  0  0  0  0  0  0
  149.1110  136.2817  155.2529 C   0  0  0  0  0  0  0  0  0  0  0  0
  150.9591  140.4015  155.3877 C   0  0  0  0  0  0  0  0  0  0  0  0
  150.7640  139.8232  154.3174 O   0  0  0  0  0  0  0  0  0  0  0  0
  149.8744  143.0353  157.2866 H   0  0  0  0  0  0  0  0  0  0  0  0
  152.0051  141.7414  159.9443 H   0  0  0  0  0  0  0  0  0  0  0  0
  150.1929  144.0053  158.7928 H   0  0  0  0  0  0  0  0  0  0  0  0
  150.7589  143.8160  160.5322 H   0  0  0  0  0  0  0  0  0  0  0  0
  153.1478  143.9422  159.7573 H   0  0  0  0  0  0  0  0  0  0  0  0
  152.5699  144.1279  158.0218 H   0  0  0  0  0  0  0  0  0  0  0  0
  153.4474  138.9594  155.1361 H   0  0  0  0  0  0  0  0  0  0  0  0
  153.3907  138.4668  156.7822 H   0  0  0  0  0  0  0  0  0  0  0  0
  151.1001  137.4847  157.3973 H   0  0  0  0  0  0  0  0  0  0  0  0
  149.6529  135.7407  157.2595 H   0  0  0  0  0  0  0  0  0  0  0  0
  151.5345  134.8454  155.0167 H   0  0  0  0  0  0  0  0  0  0  0  0
  151.6456  134.3692  156.6934 H   0  0  0  0  0  0  0  0  0  0  0  0
  150.5540  132.6027  155.3158 H   0  0  0  0  0  0  0  0  0  0  0  0
  149.4853  133.1915  156.5663 H   0  0  0  0  0  0  0  0  0  0  0  0
  149.4288  134.0061  153.6190 H   0  0  0  0  0  0  0  0  0  0  0  0
  148.2470  133.0101  154.4345 H   0  0  0  0  0  0  0  0  0  0  0  0
  147.4517  135.3719  154.1984 H   0  0  0  0  0  0  0  0  0  0  0  0
  147.5694  134.8996  155.8767 H   0  0  0  0  0  0  0  0  0  0  0  0
  148.5359  137.1505  155.5758 H   0  0  0  0  0  0  0  0  0  0  0  0
  149.6036  136.5662  154.3218 H   0  0  0  0  0  0  0  0  0  0  0  0
  1  2  3  0  0  0  0
  2  3  1  0  0  0  0
  3 22  1  0  0  0  0
  3  4  2  0  0  0  0
  4  5  1  0  0  0  0
  4 24  1  0  0  0  0
  5  6  1  0  0  0  0
  5  9  1  0  0  0  0
  6  8  1  0  0  0  0
  6  7  1  0  0  0  0
  6 25  1  0  0  0  0
  7  8  1  0  0  0  0
  7 26  1  0  0  0  0
  7 27  1  0  0  0  0
  8 28  1  0  0  0  0
  8 29  1  0  0  0  0
  9 10  2  0  0  0  0
  9 11  1  0  0  0  0
 11 12  1  0  0  0  0
 11 22  1  0  0  0  0
 12 13  1  0  0  0  0
 12 30  1  0  0  0  0
 12 31  1  0  0  0  0
 13 14  2  0  0  0  0
 13 15  1  0  0  0  0
 15 16  1  0  0  0  0
 15 32  1  0  0  0  0
 16 21  1  0  0  0  0
 16 17  1  0  0  0  0
 16 33  1  0  0  0  0
 17 18  1  0  0  0  0
 17 34  1  0  0  0  0
 17 35  1  0  0  0  0
 18 19  1  0  0  0  0
 18 36  1  0  0  0  0
 18 37  1  0  0  0  0
 19 20  1  0  0  0  0
 19 38  1  0  0  0  0
 19 39  1  0  0  0  0
 20 21  1  0  0  0  0
 20 40  1  0  0  0  0
 20 41  1  0  0  0  0
 21 42  1  0  0  0  0
 21 43  1  0  0  0  0
 22 23  2  0  0  0  0
M  END
> <s_m_source_file>
AV-unprocessed.smi

> <i_m_source_file_index>
1953

> <i_lp_mmshare_version>
43012

> <i_f3d_flags>
0

> <s_epik_input>
TiNDYzFbY0hdbihbQ0hdMltDSDJdW0NIMl0yKWMoPU8pbihjMT1PKVtDSDJdQyg9TylbTkhdW0NIXTNbQ0gyXVtDSDJdW0NIMl1bQ0gyXVtDSDJdMw==

> <s_epik_cmdline>
J2VwaWtfcHl0aG9uJywgJy1waCcsICc3LjAnLCAnLXRuJywgJzgnLCAnLW1hJywgJzIwMCcsICctbWV0YWxfYmluZGluZycsICctaW1hZScsICc8aW5maWxlLm1hZT4nLCAnLW9tYWUnLCAnPG91dGZpbGUubWFlPic=

> <r_lp_tautomer_probability>
1

> <r_epik_Ionization_Penalty>
1.91355e-08

> <r_epik_Ionization_Penalty_Charging>
8.86257e-11

> <r_epik_Ionization_Penalty_Neutral>
1.90469e-08

> <r_epik_State_Penalty>
-0

> <r_epik_Charging_Adjusted_Penalty>
8.86257e-11

> <i_epik_Tot_Q>
0

> <i_epik_Tot_abs_Q>
0

> <r_epik_Metal_State_Penalty>
-0

> <b_epik_Metal_Only>
0

> <s_lp_Force_Field>
OPLS_2005

> <r_lp_Energy>
34.5376

> <b_lp_Chiralities_Consistent>
1

> <s_lp_Variant>
AV-unprocessed.smi:1953-1

> <Gold.Version>
5.8.1

> <Gold.Id.Protein>
6NUR|6NUR_protein|mol2

> <Gold.PLP.Fitness>
46.0057

> <Gold.PLP.PLP>
-34.5772

> <Gold.PLP.part.hbond>
-4.2577

> <Gold.PLP.part.metal>
0.0000

> <Gold.PLP.part.buried>
2.1483

> <Gold.PLP.part.nonpolar>
-33.8027

> <Gold.PLP.part.repulsive>
3.4623

> <Gold.PLP.ligand.clash>
0.0000

> <Gold.PLP.ligand.torsion>
0.2231

> <Gold.PLP.Chemscore.Hbond>
2.9776

> <Gold.PLP.Chemscore.CHOScore>
0.9134

> <Gold.PLP.Chemscore.Metal>
0.0000

> <Gold.Chemscore.Hbonds>
donor molecule, donor type, donor heavy atom, donor atom, acceptor molecule, acceptor atom, score
      P1  H  7989  7998       L1    23  0.70
      P1  H  7997  8009       L1    10  0.89
      P1  H  8011  8017       L1     1  0.05
      P1  H  8022  8030       L1     1  0.34
      P1  H 10752 10763       L1    14  1.00
      L1  C     4    24       P1  8028  0.91

> <Gold.PLP.Chemscore.Internal.Correction>
0.2018

> <Gold.Rescore>
     Score         DG    S(hbond)    S(metal)    S(lipo)     H(rot)  DE(clash)    DE(int)     intcor
     10.76     -17.38       2.26        0.00      75.02       1.73       4.12       2.49       ----

> <Gold.Chemscore.Fitness>
10.7642

> <Gold.Chemscore.DG>
-17.3784

> <Gold.Chemscore.ZeroCoef>
-5.4800

> <Gold.Chemscore.Hbond>
2.2602

> <Gold.Chemscore.Metal>
0.0000

> <Gold.Chemscore.Lipo>
75.0245

> <Gold.Chemscore.Internal_Hbond>
0.0000

> <Gold.Chemscore.DEClash>
4.1243

> <Gold.Chemscore.DEInternal>
2.4900

> <Gold.Chemscore.Rot>
1.7298

> <Gold.Chemscore.Internal.Correction>
   9.000000E+99

> <Gold.Chemscore.Hbonds>
donor molecule, donor type, donor heavy atom, donor atom, acceptor molecule, acceptor atom, score
      P1  H  7989  7998       L1    23  0.07
      P1  H  7997  8009       L1    10  0.16
      P1  H  8011  8017       L1     1  0.01
      P1  H  8022  8030       L1     1  0.33
      P1  H 10752 10763       L1    14  0.74

> <Gold.Chemscore.Hbond.Weighted>
-7.5489

> <Gold.Chemscore.Metal.Weighted>
-0.0000

> <Gold.Chemscore.Lipo.Weighted>
-8.7779

> <Gold.Chemscore.Internal_Hbond.Weighted>
0.0000

> <Gold.Chemscore.DEClash.Weighted>
4.1243

> <Gold.Chemscore.DEInternal.Weighted>
2.4900

> <Gold.Chemscore.Rot.Weighted>
4.4284

> <Gold.Chemscore.Internal.Correction.Weighted>
   9.000000E+99

> <Gold.Protein.RotatedTorsions>
[ 6907 6896 6895 6894 ] final   27.06 input  -60.11 | X-H torsion
[ 7974 7965 7964 7962 ] final   44.15 input  175.53 | X-H torsion
[ 8008 7997 7996 7995 ] final  158.31 input   59.86 | X-H torsion
[ 10167 10162 10161 10158 ] final    8.18 input  -65.29 | X-H torsion
[ 10718 10713 10712 10709 ] final   15.80 input   66.30 | X-H torsion
[ 10763 10752 10751 10750 ] final   46.22 input  -60.55 | X-H torsion
[ 11005 11000 10999 10996 ] final -105.32 input  -57.11 | X-H torsion

> <Gold.Protein.ActiveResidues>
 VAL166  LYS551  ARG553  GLY616  TRP617  ASP618  TYR619  PRO620  LYS621  CYS622 
 ASP623  PHE694  ASN695  SER759  ASP760  ASP761  ALA762  ILE779  LEU786  VAL792 
 PHE793  MET794  SER795  GLU796  ALA797  LYS798  CYS799  TRP800  GLU811  SER814 

> <Gold.Protein.RotatedAtoms>
  151.9967  134.9950  160.0563 H   0  0  0  0  0  0  0  0  0  0  0  0  # atno 6907 bound_to 6896
  152.1558  133.4545  159.4844 H   0  0  0  0  0  0  0  0  0  0  0  0  # atno 6908 bound_to 6896
  150.6881  134.2051  159.4380 H   0  0  0  0  0  0  0  0  0  0  0  0  # atno 6909 bound_to 6896
  146.0593  139.5106  142.9668 H   0  0  0  0  0  0  0  0  0  0  0  0  # atno 7974 bound_to 7965
  156.2310  140.1862  156.7241 H   0  0  0  0  0  0  0  0  0  0  0  0  # atno 8008 bound_to 7997
  154.6023  140.0634  156.9413 H   0  0  0  0  0  0  0  0  0  0  0  0  # atno 8009 bound_to 7997
  155.2153  140.3303  155.4325 H   0  0  0  0  0  0  0  0  0  0  0  0  # atno 8010 bound_to 7997
  140.6329  143.7952  150.7320 H   0  0  0  0  0  0  0  0  0  0  0  0  # atno 10167 bound_to 10162
  157.0587  130.6300  149.5782 H   0  0  0  0  0  0  0  0  0  0  0  0  # atno 10718 bound_to 10713
  152.9813  135.6015  154.3564 H   0  0  0  0  0  0  0  0  0  0  0  0  # atno 10763 bound_to 10752
  154.3249  135.2769  155.2503 H   0  0  0  0  0  0  0  0  0  0  0  0  # atno 10764 bound_to 10752
  154.4652  135.5955  153.6339 H   0  0  0  0  0  0  0  0  0  0  0  0  # atno 10765 bound_to 10752
  141.1059  133.8798  157.1720 H   0  0  0  0  0  0  0  0  0  0  0  0  # atno 11005 bound_to 11000
  145.6588  141.0245  143.1720 LP  0  0  0  0  0  0  0  0  0  0  0  0  # atno 17320 bound_to 7965
  144.7166  139.8176  143.7396 LP  0  0  0  0  0  0  0  0  0  0  0  0  # atno 17321 bound_to 7965
  140.1567  143.4310  152.2095 LP  0  0  0  0  0  0  0  0  0  0  0  0  # atno 17342 bound_to 10162
  139.5542  144.7360  151.4345 LP  0  0  0  0  0  0  0  0  0  0  0  0  # atno 17343 bound_to 10162
  155.9985  130.5059  150.7573 LP  0  0  0  0  0  0  0  0  0  0  0  0  # atno 17370 bound_to 10713
  157.4972  131.0916  151.0357 LP  0  0  0  0  0  0  0  0  0  0  0  0  # atno 17371 bound_to 10713
  139.9929  135.0058  157.0016 LP  0  0  0  0  0  0  0  0  0  0  0  0  # atno 17394 bound_to 11000
  140.4904  134.1199  155.7232 LP  0  0  0  0  0  0  0  0  0  0  0  0  # atno 17395 bound_to 11000

$$$$
