AV-unprocessed.smi:1240|AV-procd|sdf|5203|dock5
  -GOLD-   22720 4293D 1   1.00000     0.00000
 Structure written by MMmdl.
 48 50  0  0  0  0  0  0  0  0  2 V2000
  147.1717  132.0096  153.2592 O   0  0  0  0  0  0  0  0  0  0  0  0
  147.7646  133.0222  152.8883 C   0  0  0  0  0  0  0  0  0  0  0  0
  149.0247  133.3119  153.2438 N   0  0  0  0  0  0  0  0  0  0  0  0
  149.8622  132.4929  154.1149 C   0  0  0  0  0  0  0  0  0  0  0  0
  149.4647  132.5300  155.6307 C   0  0  2  0  0  0  0  0  0  0  0  0
  150.2229  133.7137  156.3385 C   0  0  2  0  0  0  0  0  0  0  0  0
  150.0773  135.1091  155.7507 C   0  0  0  0  0  0  0  0  0  0  0  0
  151.1817  135.8833  156.4548 C   0  0  0  0  0  0  0  0  0  0  0  0
  152.2536  134.9598  156.5574 O   0  0  0  0  0  0  0  0  0  0  0  0
  151.7599  133.6354  156.3829 C   0  0  0  0  0  0  0  0  0  0  0  0
  149.6908  131.2385  156.3447 N   0  0  0  0  0  0  0  0  0  0  0  0
  149.4764  131.2625  157.7974 C   0  0  0  0  0  0  0  0  0  0  0  0
  149.6987  129.8879  158.4540 C   0  0  0  0  0  0  0  0  0  0  0  0
  151.0112  129.4229  158.1707 O   0  0  0  0  0  0  0  0  0  0  0  0
  151.2590  129.3345  156.7744 C   0  0  0  0  0  0  0  0  0  0  0  0
  151.0469  130.7139  156.1288 C   0  0  0  0  0  0  0  0  0  0  0  0
  147.2463  133.9866  152.1081 N   0  0  0  0  0  0  0  0  0  0  0  0
  145.9435  134.0711  151.5450 C   0  0  0  0  0  0  0  0  0  0  0  0
  145.5891  135.2785  150.9027 C   0  0  0  0  0  0  0  0  0  0  0  0
  144.3136  135.4073  150.3162 C   0  0  0  0  0  0  0  0  0  0  0  0
  143.4444  134.3753  150.3639 N   0  3  0  0  0  0  0  0  0  0  0  0
  143.7417  133.1976  150.9540 C   0  0  0  0  0  0  0  0  0  0  0  0
  145.0021  133.0099  151.5574 C   0  0  0  0  0  0  0  0  0  0  0  0
  149.4343  134.1673  152.8973 H   0  0  0  0  0  0  0  0  0  0  0  0
  149.7898  131.4900  153.6955 H   0  0  0  0  0  0  0  0  0  0  0  0
  150.9001  132.8031  153.9898 H   0  0  0  0  0  0  0  0  0  0  0  0
  148.3953  132.7432  155.6640 H   0  0  0  0  0  0  0  0  0  0  0  0
  149.8652  133.7649  157.3685 H   0  0  0  0  0  0  0  0  0  0  0  0
  150.2779  135.0985  154.6783 H   0  0  0  0  0  0  0  0  0  0  0  0
  149.0980  135.5546  155.9287 H   0  0  0  0  0  0  0  0  0  0  0  0
  151.4758  136.7838  155.9153 H   0  0  0  0  0  0  0  0  0  0  0  0
  150.8661  136.1721  157.4583 H   0  0  0  0  0  0  0  0  0  0  0  0
  152.1231  133.0042  157.1938 H   0  0  0  0  0  0  0  0  0  0  0  0
  152.1572  133.2508  155.4426 H   0  0  0  0  0  0  0  0  0  0  0  0
  150.1365  131.9972  158.2612 H   0  0  0  0  0  0  0  0  0  0  0  0
  148.4514  131.5542  158.0244 H   0  0  0  0  0  0  0  0  0  0  0  0
  149.5730  129.9593  159.5343 H   0  0  0  0  0  0  0  0  0  0  0  0
  148.9646  129.1656  158.0937 H   0  0  0  0  0  0  0  0  0  0  0  0
  152.2832  128.9963  156.6176 H   0  0  0  0  0  0  0  0  0  0  0  0
  150.6019  128.5897  156.3225 H   0  0  0  0  0  0  0  0  0  0  0  0
  151.2906  130.6235  155.0778 H   0  0  0  0  0  0  0  0  0  0  0  0
  151.7762  131.4127  156.5416 H   0  0  0  0  0  0  0  0  0  0  0  0
  147.8372  134.7901  151.9512 H   0  0  0  0  0  0  0  0  0  0  0  0
  146.2850  136.1042  150.8620 H   0  0  0  0  0  0  0  0  0  0  0  0
  143.9663  136.2975  149.8124 H   0  0  0  0  0  0  0  0  0  0  0  0
  142.9697  132.4425  150.9206 H   0  0  0  0  0  0  0  0  0  0  0  0
  145.2229  132.0535  152.0053 H   0  0  0  0  0  0  0  0  0  0  0  0
  142.5266  134.4878  149.9323 H   0  0  0  0  0  0  0  0  0  0  0  0
  1  2  2  0  0  0  0
  2  3  1  0  0  0  0
  2 17  1  0  0  0  0
  3  4  1  0  0  0  0
  3 24  1  0  0  0  0
  4  5  1  0  0  0  0
  4 25  1  0  0  0  0
  4 26  1  0  0  0  0
  5  6  1  0  0  0  0
  5 11  1  0  0  0  0
  5 27  1  0  0  0  0
  6 10  1  0  0  0  0
  6  7  1  0  0  0  0
  6 28  1  0  0  0  0
  7  8  1  0  0  0  0
  7 29  1  0  0  0  0
  7 30  1  0  0  0  0
  8  9  1  0  0  0  0
  8 31  1  0  0  0  0
  8 32  1  0  0  0  0
  9 10  1  0  0  0  0
 10 33  1  0  0  0  0
 10 34  1  0  0  0  0
 11 16  1  0  0  0  0
 11 12  1  0  0  0  0
 12 13  1  0  0  0  0
 12 35  1  0  0  0  0
 12 36  1  0  0  0  0
 13 14  1  0  0  0  0
 13 37  1  0  0  0  0
 13 38  1  0  0  0  0
 14 15  1  0  0  0  0
 15 16  1  0  0  0  0
 15 39  1  0  0  0  0
 15 40  1  0  0  0  0
 16 41  1  0  0  0  0
 16 42  1  0  0  0  0
 17 18  1  0  0  0  0
 17 43  1  0  0  0  0
 18 23  1  0  0  0  0
 18 19  2  0  0  0  0
 19 20  1  0  0  0  0
 19 44  1  0  0  0  0
 20 21  2  0  0  0  0
 20 45  1  0  0  0  0
 21 22  1  0  0  0  0
 21 48  1  0  0  0  0
 22 23  2  0  0  0  0
 22 46  1  0  0  0  0
 23 47  1  0  0  0  0
M  CHG  1  21   1
M  END
> <s_m_source_file>
AV-unprocessed.smi

> <i_m_source_file_index>
1240

> <i_lp_mmshare_version>
43012

> <i_f3d_flags>
0

> <s_epik_input>
W2NIXTFbY0hdbltjSF1bY0hdYzFbTkhdQyg9TylbTkhdW0NIMl1bQ0BIXShbQ0BASF0yW0NIMl1bQ0gyXU9bQ0gyXTIpTjNbQ0gyXVtDSDJdT1tDSDJdW0NIMl0z

> <s_epik_cmdline>
J2VwaWtfcHl0aG9uJywgJy1waCcsICc3LjAnLCAnLXRuJywgJzgnLCAnLW1hJywgJzIwMCcsICctbWV0YWxfYmluZGluZycsICctaW1hZScsICc8aW5maWxlLm1hZT4nLCAnLW9tYWUnLCAnPG91dGZpbGUubWFlPic=

> <r_epik_Ionization_Penalty>
1.15944

> <r_epik_Ionization_Penalty_Charging>
1.0344

> <r_epik_Ionization_Penalty_Neutral>
0.125034

> <r_epik_State_Penalty>
1.2199

> <r_epik_Charging_Adjusted_Penalty>
2.25431

> <i_epik_Tot_Q>
1

> <i_epik_Tot_abs_Q>
1

> <r_epik_Metal_State_Penalty>
1.3155

> <b_epik_Metal_Only>
0

> <s_lp_Force_Field>
OPLS_2005

> <r_lp_Energy>
66.7815

> <b_lp_Chiralities_Consistent>
1

> <s_lp_Variant>
AV-unprocessed.smi:1240-9

> <Gold.Version>
5.8.1

> <Gold.Id.Protein>
6NUR|6NUR_protein|mol2

> <Gold.PLP.Fitness>
40.7709

> <Gold.PLP.PLP>
-29.8996

> <Gold.PLP.part.hbond>
-3.5029

> <Gold.PLP.part.metal>
0.0000

> <Gold.PLP.part.buried>
-4.5313

> <Gold.PLP.part.nonpolar>
-20.7597

> <Gold.PLP.part.repulsive>
0.1617

> <Gold.PLP.ligand.clash>
0.0000

> <Gold.PLP.ligand.torsion>
0.6149

> <Gold.PLP.Chemscore.Hbond>
4.0000

> <Gold.PLP.Chemscore.CHOScore>
0.0000

> <Gold.PLP.Chemscore.Metal>
0.0000

> <Gold.Chemscore.Hbonds>
donor molecule, donor type, donor heavy atom, donor atom, acceptor molecule, acceptor atom, score
      L1  H    17    43       P1  7948  1.00
      L1  H    21    48       P1 10186  2.00
      P1  H 10752 10764       L1     9  0.99

> <Gold.PLP.Chemscore.Internal.Correction>
0.1010

> <Gold.Rescore>
     Score         DG    S(hbond)    S(metal)    S(lipo)     H(rot)  DE(clash)    DE(int)     intcor
     13.07     -15.26       1.81        0.00      69.01       1.69       0.29       1.90       ----

> <Gold.Chemscore.Fitness>
13.0674

> <Gold.Chemscore.DG>
-15.2551

> <Gold.Chemscore.ZeroCoef>
-5.4800

> <Gold.Chemscore.Hbond>
1.8056

> <Gold.Chemscore.Metal>
0.0000

> <Gold.Chemscore.Lipo>
69.0066

> <Gold.Chemscore.Internal_Hbond>
0.0000

> <Gold.Chemscore.DEClash>
0.2851

> <Gold.Chemscore.DEInternal>
1.9026

> <Gold.Chemscore.Rot>
1.6912

> <Gold.Chemscore.Internal.Correction>
   9.000000E+99

> <Gold.Chemscore.Hbonds>
donor molecule, donor type, donor heavy atom, donor atom, acceptor molecule, acceptor atom, score
      L1  H    17    43       P1  7948  0.45
      L1  H    21    48       P1 10186  0.82
      P1  H 10752 10764       L1     9  0.20

> <Gold.Chemscore.Hbond.Weighted>
-6.0308

> <Gold.Chemscore.Metal.Weighted>
-0.0000

> <Gold.Chemscore.Lipo.Weighted>
-8.0738

> <Gold.Chemscore.Internal_Hbond.Weighted>
0.0000

> <Gold.Chemscore.DEClash.Weighted>
0.2851

> <Gold.Chemscore.DEInternal.Weighted>
1.9026

> <Gold.Chemscore.Rot.Weighted>
4.3295

> <Gold.Chemscore.Internal.Correction.Weighted>
   9.000000E+99

> <Gold.Protein.RotatedTorsions>
[ 6907 6896 6895 6894 ] final  -54.94 input  -60.11 | X-H torsion
[ 7974 7965 7964 7962 ] final   77.35 input  175.53 | X-H torsion
[ 8008 7997 7996 7995 ] final  -80.80 input   59.86 | X-H torsion
[ 10167 10162 10161 10158 ] final  142.33 input  -65.29 | X-H torsion
[ 10718 10713 10712 10709 ] final  140.43 input   66.30 | X-H torsion
[ 10763 10752 10751 10750 ] final  -24.17 input  -60.55 | X-H torsion
[ 11005 11000 10999 10996 ] final  -84.57 input  -57.11 | X-H torsion

> <Gold.Protein.ActiveResidues>
 VAL166  LYS551  ARG553  GLY616  TRP617  ASP618  TYR619  PRO620  LYS621  CYS622 
 ASP623  PHE694  ASN695  SER759  ASP760  ASP761  ALA762  ILE779  LEU786  VAL792 
 PHE793  MET794  SER795  GLU796  ALA797  LYS798  CYS799  TRP800  GLU811  SER814 

> <Gold.Protein.RotatedAtoms>
  150.8294  134.7540  159.6840 H   0  0  0  0  0  0  0  0  0  0  0  0  # atno 6907 bound_to 6896
  152.4400  134.5606  159.9903 H   0  0  0  0  0  0  0  0  0  0  0  0  # atno 6908 bound_to 6896
  151.5770  133.3345  159.3037 H   0  0  0  0  0  0  0  0  0  0  0  0  # atno 6909 bound_to 6896
  145.6912  139.2553  143.1758 H   0  0  0  0  0  0  0  0  0  0  0  0  # atno 7974 bound_to 7965
  154.5919  140.0657  156.9250 H   0  0  0  0  0  0  0  0  0  0  0  0  # atno 8008 bound_to 7997
  155.2280  140.3335  155.4288 H   0  0  0  0  0  0  0  0  0  0  0  0  # atno 8009 bound_to 7997
  156.2261  140.1820  156.7343 H   0  0  0  0  0  0  0  0  0  0  0  0  # atno 8010 bound_to 7997
  139.4997  144.6114  151.6263 H   0  0  0  0  0  0  0  0  0  0  0  0  # atno 10167 bound_to 10162
  157.4034  131.1019  151.0528 H   0  0  0  0  0  0  0  0  0  0  0  0  # atno 10718 bound_to 10713
  153.6795  135.6967  153.5122 H   0  0  0  0  0  0  0  0  0  0  0  0  # atno 10763 bound_to 10752
  153.2495  135.4279  155.0782 H   0  0  0  0  0  0  0  0  0  0  0  0  # atno 10764 bound_to 10752
  154.8404  135.3528  154.6339 H   0  0  0  0  0  0  0  0  0  0  0  0  # atno 10765 bound_to 10752
  141.1649  133.7353  156.8887 H   0  0  0  0  0  0  0  0  0  0  0  0  # atno 11005 bound_to 11000
  146.0880  140.7688  142.9609 LP  0  0  0  0  0  0  0  0  0  0  0  0  # atno 17320 bound_to 7965
  144.6996  140.3592  143.7167 LP  0  0  0  0  0  0  0  0  0  0  0  0  # atno 17321 bound_to 7965
  140.5789  143.9980  150.6257 LP  0  0  0  0  0  0  0  0  0  0  0  0  # atno 17342 bound_to 10162
  140.3122  143.3190  152.0867 LP  0  0  0  0  0  0  0  0  0  0  0  0  # atno 17343 bound_to 10162
  157.1519  130.6188  149.5585 LP  0  0  0  0  0  0  0  0  0  0  0  0  # atno 17370 bound_to 10713
  155.9829  130.4846  150.6908 LP  0  0  0  0  0  0  0  0  0  0  0  0  # atno 17371 bound_to 10713
  140.1664  134.9130  157.2778 LP  0  0  0  0  0  0  0  0  0  0  0  0  # atno 17394 bound_to 11000
  140.2552  134.3635  155.7427 LP  0  0  0  0  0  0  0  0  0  0  0  0  # atno 17395 bound_to 11000

$$$$
