AV-unprocessed.smi:72|AV-procd|sdf|682|dock5
  -GOLD-   2262016593D 1   1.00000     0.00000
 Structure written by MMmdl.
 29 30  0  0  0  0  0  0  0  0  1 V2000
  143.9519  132.9317  152.1251 N   0  0  0  0  0  0  0  0  0  0  0  0
  144.4983  134.0026  152.5779 C   0  0  0  0  0  0  0  0  0  0  0  0
  145.4990  134.7406  151.9282 N   0  0  0  0  0  0  0  0  0  0  0  0
  145.9580  135.8071  152.5076 C   0  0  0  0  0  0  0  0  0  0  0  0
  145.4756  136.2540  153.8052 N   0  0  0  0  0  0  0  0  0  0  0  0
  146.0275  137.5070  154.4527 C   0  0  1  0  0  0  0  0  0  0  0  0
  147.4009  137.3459  154.6514 O   0  0  0  0  0  0  0  0  0  0  0  0
  148.0670  138.5644  154.3441 C   0  0  1  0  0  0  0  0  0  0  0  0
  149.5622  138.3218  154.0715 C   0  0  0  0  0  0  0  0  0  0  0  0
  150.1688  139.4989  153.5817 O   0  0  0  0  0  0  0  0  0  0  0  0
  147.2361  139.1642  153.1997 C   0  0  1  0  0  0  0  0  0  0  0  0
  147.6185  138.6194  151.9480 O   0  0  0  0  0  0  0  0  0  0  0  0
  145.8147  138.7785  153.6015 C   0  0  1  0  0  0  0  0  0  0  0  0
  144.9308  138.6463  152.5005 O   0  0  0  0  0  0  0  0  0  0  0  0
  144.4581  135.5253  154.4692 C   0  0  0  0  0  0  0  0  0  0  0  0
  143.9965  135.8690  155.5571 O   0  0  0  0  0  0  0  0  0  0  0  0
  144.0179  134.4231  153.8246 N   0  0  0  0  0  0  0  0  0  0  0  0
  145.5585  137.5837  155.4344 H   0  0  0  0  0  0  0  0  0  0  0  0
  147.9662  139.2079  155.2205 H   0  0  0  0  0  0  0  0  0  0  0  0
  147.3552  140.2469  153.1439 H   0  0  0  0  0  0  0  0  0  0  0  0
  145.4168  139.5441  154.2689 H   0  0  0  0  0  0  0  0  0  0  0  0
  143.2607  132.5925  152.7789 H   0  0  0  0  0  0  0  0  0  0  0  0
  146.7301  136.4348  152.0616 H   0  0  0  0  0  0  0  0  0  0  0  0
  150.0653  138.0358  154.9955 H   0  0  0  0  0  0  0  0  0  0  0  0
  149.7147  137.5063  153.3642 H   0  0  0  0  0  0  0  0  0  0  0  0
  149.8304  139.6736  152.7168 H   0  0  0  0  0  0  0  0  0  0  0  0
  148.4249  139.0313  151.6774 H   0  0  0  0  0  0  0  0  0  0  0  0
  144.6306  139.5071  152.2521 H   0  0  0  0  0  0  0  0  0  0  0  0
  143.2928  133.8788  154.2687 H   0  0  0  0  0  0  0  0  0  0  0  0
  1  2  2  0  0  0  0
  1 22  1  0  0  0  0
  2 17  1  0  0  0  0
  2  3  1  0  0  0  0
  3  4  2  0  0  0  0
  4  5  1  0  0  0  0
  4 23  1  0  0  0  0
  5  6  1  0  0  0  0
  5 15  1  0  0  0  0
  6 18  1  0  0  0  0
  6 13  1  0  0  0  0
  6  7  1  0  0  0  0
  7  8  1  0  0  0  0
  8 19  1  0  0  0  0
  8  9  1  0  0  0  0
  8 11  1  0  0  0  0
  9 10  1  0  0  0  0
  9 24  1  0  0  0  0
  9 25  1  0  0  0  0
 10 26  1  0  0  0  0
 11 20  1  0  0  0  0
 11 12  1  0  0  0  0
 11 13  1  0  0  0  0
 12 27  1  0  0  0  0
 13 21  1  0  0  0  0
 13 14  1  0  0  0  0
 14 28  1  0  0  0  0
 15 16  2  0  0  0  0
 15 17  1  0  0  0  0
 17 29  1  0  0  0  0
M  END
> <s_m_source_file>
AV-unprocessed.smi

> <i_m_source_file_index>
72

> <i_lp_mmshare_version>
43012

> <i_f3d_flags>
0

> <s_epik_input>
W05IMl1jMW5bY0hdbihjKD1PKW4xKVtDQEBIXTJPW0NASF0oW0NIMl1bT0hdKVtDQEBIXShbT0hdKVtDQEhdMltPSF0=

> <s_epik_cmdline>
J2VwaWtfcHl0aG9uJywgJy1waCcsICc3LjAnLCAnLXRuJywgJzgnLCAnLW1hJywgJzIwMCcsICctbWV0YWxfYmluZGluZycsICctaW1hZScsICc8aW5maWxlLm1hZT4nLCAnLW9tYWUnLCAnPG91dGZpbGUubWFlPic=

> <r_lp_tautomer_probability>
7.17554e-07

> <r_epik_Ionization_Penalty>
0.0066451

> <r_epik_Ionization_Penalty_Charging>
0.00663793

> <r_epik_Ionization_Penalty_Neutral>
7.17052e-06

> <r_epik_State_Penalty>
0.419231

> <r_epik_Charging_Adjusted_Penalty>
0.425868

> <i_epik_Tot_Q>
0

> <i_epik_Tot_abs_Q>
0

> <r_epik_Metal_State_Penalty>
1.44144

> <b_epik_Metal_Only>
0

> <s_epik_Chemistry_Notes>
This compound contains an acetal/aminal-like group ( X-CH(R)-Y where X, Y are N, S, or O) that may be acid/base labile, releasing an aldehyde.

> <s_lp_Force_Field>
OPLS_2005

> <r_lp_Energy>
48.5612

> <b_lp_Chiralities_Consistent>
1

> <s_lp_Variant>
AV-unprocessed.smi:72-20

> <Gold.Version>
5.8.1

> <Gold.Id.Protein>
6NUR|6NUR_protein|mol2

> <Gold.PLP.Fitness>
32.4115

> <Gold.PLP.PLP>
-14.6289

> <Gold.PLP.part.hbond>
-7.3693

> <Gold.PLP.part.metal>
0.0000

> <Gold.PLP.part.buried>
0.4395

> <Gold.PLP.part.nonpolar>
-7.8123

> <Gold.PLP.part.repulsive>
0.2366

> <Gold.PLP.ligand.clash>
0.0000

> <Gold.PLP.ligand.torsion>
0.0341

> <Gold.PLP.Chemscore.Hbond>
4.9497

> <Gold.PLP.Chemscore.CHOScore>
1.0000

> <Gold.PLP.Chemscore.Metal>
0.0000

> <Gold.Chemscore.Hbonds>
donor molecule, donor type, donor heavy atom, donor atom, acceptor molecule, acceptor atom, score
      L1  H     1    22       P1 10957  0.35
      L1  H    10    26       P1  7957  1.00
      L1  H    12    27       P1  7957  1.00
      L1  H    14    28       P1 10175  0.52
      L1  H    17    29       P1 10957  0.37
      P1  H  7989  7998       L1    10  0.58
      L1  C     4    23       P1  7948  1.00

> <Gold.PLP.Chemscore.Internal.Correction>
0.0015

> <Gold.Rescore>
     Score         DG    S(hbond)    S(metal)    S(lipo)     H(rot)  DE(clash)    DE(int)     intcor
      8.78     -10.56       3.93        0.00      20.04       4.06       0.99       0.79       ----

> <Gold.Chemscore.Fitness>
8.7841

> <Gold.Chemscore.DG>
-10.5647

> <Gold.Chemscore.ZeroCoef>
-5.4800

> <Gold.Chemscore.Hbond>
3.9321

> <Gold.Chemscore.Metal>
0.0000

> <Gold.Chemscore.Lipo>
20.0426

> <Gold.Chemscore.Internal_Hbond>
0.0000

> <Gold.Chemscore.DEClash>
0.9929

> <Gold.Chemscore.DEInternal>
0.7877

> <Gold.Chemscore.Rot>
4.0600

> <Gold.Chemscore.Internal.Correction>
   9.000000E+99

> <Gold.Chemscore.Hbonds>
donor molecule, donor type, donor heavy atom, donor atom, acceptor molecule, acceptor atom, score
      L1  H     1    22       P1 10957  0.04
      L1  H    10    26       P1  7957  0.99
      L1  H    12    27       P1  7957  0.84
      L1  H    14    28       P1 10175  0.50
      L1  H    17    29       P1 10957  0.36
      P1  H  7989  7998       L1    10  0.06

> <Gold.Chemscore.Hbond.Weighted>
-13.1333

> <Gold.Chemscore.Metal.Weighted>
-0.0000

> <Gold.Chemscore.Lipo.Weighted>
-2.3450

> <Gold.Chemscore.Internal_Hbond.Weighted>
0.0000

> <Gold.Chemscore.DEClash.Weighted>
0.9929

> <Gold.Chemscore.DEInternal.Weighted>
0.7877

> <Gold.Chemscore.Rot.Weighted>
10.3936

> <Gold.Chemscore.Internal.Correction.Weighted>
   9.000000E+99

> <Gold.Protein.RotatedTorsions>
[ 6907 6896 6895 6894 ] final  157.10 input  -60.11 | X-H torsion
[ 7974 7965 7964 7962 ] final  149.80 input  175.53 | X-H torsion
[ 8008 7997 7996 7995 ] final  -19.35 input   59.86 | X-H torsion
[ 10167 10162 10161 10158 ] final  139.30 input  -65.29 | X-H torsion
[ 10718 10713 10712 10709 ] final -166.19 input   66.30 | X-H torsion
[ 10763 10752 10751 10750 ] final   96.22 input  -60.55 | X-H torsion
[ 11005 11000 10999 10996 ] final  -74.75 input  -57.11 | X-H torsion

> <Gold.Protein.ActiveResidues>
 VAL166  LYS551  ARG553  GLY616  TRP617  ASP618  TYR619  PRO620  LYS621  CYS622 
 ASP623  PHE694  ASN695  SER759  ASP760  ASP761  ALA762  ILE779  LEU786  VAL792 
 PHE793  MET794  SER795  GLU796  ALA797  LYS798  CYS799  TRP800  GLU811  SER814 

> <Gold.Protein.RotatedAtoms>
  152.0201  133.3895  159.4254 H   0  0  0  0  0  0  0  0  0  0  0  0  # atno 6907 bound_to 6896
  150.6891  134.3635  159.4970 H   0  0  0  0  0  0  0  0  0  0  0  0  # atno 6908 bound_to 6896
  152.1408  134.9063  160.0604 H   0  0  0  0  0  0  0  0  0  0  0  0  # atno 6909 bound_to 6896
  144.8411  139.6326  143.6016 H   0  0  0  0  0  0  0  0  0  0  0  0  # atno 7974 bound_to 7965
  154.4843  140.2091  155.9692 H   0  0  0  0  0  0  0  0  0  0  0  0  # atno 8008 bound_to 7997
  156.1212  140.3213  155.8180 H   0  0  0  0  0  0  0  0  0  0  0  0  # atno 8009 bound_to 7997
  155.4464  140.0514  157.2996 H   0  0  0  0  0  0  0  0  0  0  0  0  # atno 8010 bound_to 7997
  139.5083  144.6303  151.5835 H   0  0  0  0  0  0  0  0  0  0  0  0  # atno 10167 bound_to 10162
  156.6643  130.9058  151.3034 H   0  0  0  0  0  0  0  0  0  0  0  0  # atno 10718 bound_to 10713
  153.2624  135.4226  155.0907 H   0  0  0  0  0  0  0  0  0  0  0  0  # atno 10763 bound_to 10752
  154.8425  135.3452  154.6359 H   0  0  0  0  0  0  0  0  0  0  0  0  # atno 10764 bound_to 10752
  153.6779  135.7040  153.5184 H   0  0  0  0  0  0  0  0  0  0  0  0  # atno 10765 bound_to 10752
  141.1638  133.6922  156.7412 H   0  0  0  0  0  0  0  0  0  0  0  0  # atno 11005 bound_to 11000
  146.2703  139.6620  142.9300 LP  0  0  0  0  0  0  0  0  0  0  0  0  # atno 17320 bound_to 7965
  145.4692  141.0435  143.2708 LP  0  0  0  0  0  0  0  0  0  0  0  0  # atno 17321 bound_to 7965
  140.6033  143.9570  150.6401 LP  0  0  0  0  0  0  0  0  0  0  0  0  # atno 17342 bound_to 10162
  140.2789  143.3403  152.1169 LP  0  0  0  0  0  0  0  0  0  0  0  0  # atno 17343 bound_to 10162
  157.7099  130.9428  150.1054 LP  0  0  0  0  0  0  0  0  0  0  0  0  # atno 17370 bound_to 10713
  156.1987  130.3659  149.8816 LP  0  0  0  0  0  0  0  0  0  0  0  0  # atno 17371 bound_to 10713
  140.2673  134.8420  157.3814 LP  0  0  0  0  0  0  0  0  0  0  0  0  # atno 17394 bound_to 11000
  140.1554  134.4796  155.7931 LP  0  0  0  0  0  0  0  0  0  0  0  0  # atno 17395 bound_to 11000

$$$$
