AV-unprocessed.smi:1897|AV-procd|sdf|7686|dock9
  -GOLD-   22720 9423D 1   1.00000     0.00000
 Structure written by MMmdl.
 39 41  0  0  0  0  0  0  0  0  2 V2000
  152.6357  137.4303  158.4795 C   0  0  0  0  0  0  0  0  0  0  0  0
  152.0223  137.0071  157.1886 C   0  0  0  0  0  0  0  0  0  0  0  0
  152.5430  137.3344  156.0001 N   0  0  0  0  0  0  0  0  0  0  0  0
  151.7999  136.8283  154.9436 N   0  0  0  0  0  0  0  0  0  0  0  0
  150.7384  136.1250  155.3645 C   0  0  0  0  0  0  0  0  0  0  0  0
  149.7901  135.4949  154.5058 N   0  0  0  0  0  0  0  0  0  0  0  0
  148.9808  134.4294  154.6879 C   0  0  0  0  0  0  0  0  0  0  0  0
  148.9773  133.8111  155.7508 O   0  0  0  0  0  0  0  0  0  0  0  0
  148.1940  134.0928  153.6529 N   0  0  0  0  0  0  0  0  0  0  0  0
  147.2381  132.9905  153.6335 C   0  0  2  0  0  0  0  0  0  0  0  0
  147.9061  131.6187  153.8349 C   0  0  0  0  0  0  0  0  0  0  0  0
  147.1479  130.6537  152.9020 C   0  0  0  0  0  0  0  0  0  0  0  0
  146.0592  131.4552  152.3112 N   0  3  2  0  0  0  0  0  0  0  0  0
  145.5156  131.0011  151.0125 C   0  0  0  0  0  0  0  0  0  0  0  0
  144.3394  131.9119  150.6070 C   0  0  0  0  0  0  0  0  0  0  0  0
  144.7388  133.4015  150.6220 C   0  0  0  0  0  0  0  0  0  0  0  0
  145.3838  133.7920  151.9659 C   0  0  0  0  0  0  0  0  0  0  0  0
  146.5527  132.8403  152.2730 C   0  0  1  0  0  0  0  0  0  0  0  0
  150.5590  136.0337  157.1089 S   0  0  0  0  0  0  0  0  0  0  0  0
  153.0224  138.4467  158.4004 H   0  0  0  0  0  0  0  0  0  0  0  0
  153.4561  136.7613  158.7393 H   0  0  0  0  0  0  0  0  0  0  0  0
  151.8941  137.4024  159.2783 H   0  0  0  0  0  0  0  0  0  0  0  0
  149.7298  135.9076  153.5861 H   0  0  0  0  0  0  0  0  0  0  0  0
  148.2615  134.6525  152.8143 H   0  0  0  0  0  0  0  0  0  0  0  0
  146.4825  133.1221  154.4111 H   0  0  0  0  0  0  0  0  0  0  0  0
  148.9613  131.6445  153.5577 H   0  0  0  0  0  0  0  0  0  0  0  0
  147.8498  131.3038  154.8776 H   0  0  0  0  0  0  0  0  0  0  0  0
  147.8152  130.2903  152.1189 H   0  0  0  0  0  0  0  0  0  0  0  0
  146.7474  129.7902  153.4336 H   0  0  0  0  0  0  0  0  0  0  0  0
  146.2978  131.0260  150.2522 H   0  0  0  0  0  0  0  0  0  0  0  0
  145.1791  129.9674  151.0975 H   0  0  0  0  0  0  0  0  0  0  0  0
  143.9737  131.6331  149.6182 H   0  0  0  0  0  0  0  0  0  0  0  0
  143.5087  131.7562  151.2969 H   0  0  0  0  0  0  0  0  0  0  0  0
  145.4436  133.5952  149.8123 H   0  0  0  0  0  0  0  0  0  0  0  0
  143.8665  134.0266  150.4281 H   0  0  0  0  0  0  0  0  0  0  0  0
  145.7339  134.8234  151.9222 H   0  0  0  0  0  0  0  0  0  0  0  0
  144.6408  133.7458  152.7631 H   0  0  0  0  0  0  0  0  0  0  0  0
  147.3033  132.9203  151.4828 H   0  0  0  0  0  0  0  0  0  0  0  0
  145.2996  131.4425  152.9768 H   0  0  0  0  0  0  0  0  0  0  0  0
  1  2  1  0  0  0  0
  1 20  1  0  0  0  0
  1 21  1  0  0  0  0
  1 22  1  0  0  0  0
  2 19  1  0  0  0  0
  2  3  2  0  0  0  0
  3  4  1  0  0  0  0
  4  5  2  0  0  0  0
  5  6  1  0  0  0  0
  5 19  1  0  0  0  0
  6  7  1  0  0  0  0
  6 23  1  0  0  0  0
  7  8  2  0  0  0  0
  7  9  1  0  0  0  0
  9 10  1  0  0  0  0
  9 24  1  0  0  0  0
 10 18  1  0  0  0  0
 10 11  1  0  0  0  0
 10 25  1  0  0  0  0
 11 12  1  0  0  0  0
 11 26  1  0  0  0  0
 11 27  1  0  0  0  0
 12 13  1  0  0  0  0
 12 28  1  0  0  0  0
 12 29  1  0  0  0  0
 13 18  1  0  0  0  0
 13 14  1  0  0  0  0
 13 39  1  0  0  0  0
 14 15  1  0  0  0  0
 14 30  1  0  0  0  0
 14 31  1  0  0  0  0
 15 16  1  0  0  0  0
 15 32  1  0  0  0  0
 15 33  1  0  0  0  0
 16 17  1  0  0  0  0
 16 34  1  0  0  0  0
 16 35  1  0  0  0  0
 17 18  1  0  0  0  0
 17 36  1  0  0  0  0
 17 37  1  0  0  0  0
 18 38  1  0  0  0  0
M  CHG  1  13   1
M  END
> <s_m_source_file>
AV-unprocessed.smi

> <i_m_source_file_index>
1897

> <i_lp_mmshare_version>
43012

> <i_f3d_flags>
0

> <s_epik_input>
W0NIM11jMW5uYyhzMSlbTkhdQyg9TylbTkhdW0NASF0oW0NIMl1bQ0gyXTIpW0NAQEhdKE4yMylbQ0gyXVtDSDJdW0NIMl1bQ0gyXTM=

> <s_epik_cmdline>
J2VwaWtfcHl0aG9uJywgJy1waCcsICc3LjAnLCAnLXRuJywgJzgnLCAnLW1hJywgJzIwMCcsICctbWV0YWxfYmluZGluZycsICctaW1hZScsICc8aW5maWxlLm1hZT4nLCAnLW9tYWUnLCAnPG91dGZpbGUubWFlPic=

> <r_lp_tautomer_probability>
1

> <r_epik_Ionization_Penalty>
0.00228891

> <r_epik_Ionization_Penalty_Charging>
0.00107044

> <r_epik_Ionization_Penalty_Neutral>
0.00121847

> <r_epik_State_Penalty>
-0

> <r_epik_Charging_Adjusted_Penalty>
0.00107044

> <i_epik_Tot_Q>
1

> <i_epik_Tot_abs_Q>
1

> <r_epik_Metal_State_Penalty>
0.304057

> <b_epik_Metal_Only>
0

> <s_lp_Force_Field>
OPLS_2005

> <r_lp_Energy>
35.6377

> <b_lp_Chiralities_Consistent>
1

> <s_lp_Variant>
AV-unprocessed.smi:1897-3

> <Gold.Version>
5.8.1

> <Gold.Id.Protein>
6NUR|6NUR_protein|mol2

> <Gold.PLP.Fitness>
35.0635

> <Gold.PLP.PLP>
-26.6594

> <Gold.PLP.part.hbond>
-4.0000

> <Gold.PLP.part.metal>
0.0000

> <Gold.PLP.part.buried>
-5.3141

> <Gold.PLP.part.nonpolar>
-18.2230

> <Gold.PLP.part.repulsive>
0.1860

> <Gold.PLP.ligand.clash>
0.0000

> <Gold.PLP.ligand.torsion>
0.1528

> <Gold.PLP.Chemscore.Hbond>
2.9000

> <Gold.PLP.Chemscore.CHOScore>
0.0000

> <Gold.PLP.Chemscore.Metal>
0.0000

> <Gold.Chemscore.Hbonds>
donor molecule, donor type, donor heavy atom, donor atom, acceptor molecule, acceptor atom, score
      L1  H     6    23       P1  7948  0.85
      L1  H     9    24       P1  7948  1.00
      P1  H 10752 10763       L1     4  0.95

> <Gold.PLP.Chemscore.Internal.Correction>
0.0097

> <Gold.Rescore>
     Score         DG    S(hbond)    S(metal)    S(lipo)     H(rot)  DE(clash)    DE(int)     intcor
     16.21     -16.45       1.82        0.00      63.69       1.00       0.01       0.23       ----

> <Gold.Chemscore.Fitness>
16.2115

> <Gold.Chemscore.DG>
-16.4544

> <Gold.Chemscore.ZeroCoef>
-5.4800

> <Gold.Chemscore.Hbond>
1.8213

> <Gold.Chemscore.Metal>
0.0000

> <Gold.Chemscore.Lipo>
63.6867

> <Gold.Chemscore.Internal_Hbond>
0.0000

> <Gold.Chemscore.DEClash>
0.0149

> <Gold.Chemscore.DEInternal>
0.2281

> <Gold.Chemscore.Rot>
1.0000

> <Gold.Chemscore.Internal.Correction>
   9.000000E+99

> <Gold.Chemscore.Hbonds>
donor molecule, donor type, donor heavy atom, donor atom, acceptor molecule, acceptor atom, score
      L1  H     6    23       P1  7948  0.14
      L1  H     9    24       P1  7948  0.47
      P1  H 10752 10763       L1     4  0.11

> <Gold.Chemscore.Hbond.Weighted>
-6.0831

> <Gold.Chemscore.Metal.Weighted>
-0.0000

> <Gold.Chemscore.Lipo.Weighted>
-7.4513

> <Gold.Chemscore.Internal_Hbond.Weighted>
0.0000

> <Gold.Chemscore.DEClash.Weighted>
0.0149

> <Gold.Chemscore.DEInternal.Weighted>
0.2281

> <Gold.Chemscore.Rot.Weighted>
2.5600

> <Gold.Chemscore.Internal.Correction.Weighted>
   9.000000E+99

> <Gold.Protein.RotatedTorsions>
[ 6907 6896 6895 6894 ] final  135.25 input  -60.11 | X-H torsion
[ 7974 7965 7964 7962 ] final  111.58 input  175.53 | X-H torsion
[ 8008 7997 7996 7995 ] final   37.49 input   59.86 | X-H torsion
[ 10167 10162 10161 10158 ] final -174.57 input  -65.29 | X-H torsion
[ 10718 10713 10712 10709 ] final  -51.77 input   66.30 | X-H torsion
[ 10763 10752 10751 10750 ] final   42.72 input  -60.55 | X-H torsion
[ 11005 11000 10999 10996 ] final -104.44 input  -57.11 | X-H torsion

> <Gold.Protein.ActiveResidues>
 VAL166  LYS551  ARG553  GLY616  TRP617  ASP618  TYR619  PRO620  LYS621  CYS622 
 ASP623  PHE694  ASN695  SER759  ASP760  ASP761  ALA762  ILE779  LEU786  VAL792 
 PHE793  MET794  SER795  GLU796  ALA797  LYS798  CYS799  TRP800  GLU811  SER814 

> <Gold.Protein.RotatedAtoms>
  152.3025  133.5670  159.5627 H   0  0  0  0  0  0  0  0  0  0  0  0  # atno 6907 bound_to 6896
  150.7284  134.0271  159.3729 H   0  0  0  0  0  0  0  0  0  0  0  0  # atno 6908 bound_to 6896
  151.8169  135.0664  160.0471 H   0  0  0  0  0  0  0  0  0  0  0  0  # atno 6909 bound_to 6896
  145.2404  139.2781  143.4121 H   0  0  0  0  0  0  0  0  0  0  0  0  # atno 7974 bound_to 7965
  155.2046  140.3318  155.4338 H   0  0  0  0  0  0  0  0  0  0  0  0  # atno 8008 bound_to 7997
  156.2394  140.1888  156.7080 H   0  0  0  0  0  0  0  0  0  0  0  0  # atno 8009 bound_to 7997
  154.6119  140.0608  156.9490 H   0  0  0  0  0  0  0  0  0  0  0  0  # atno 8010 bound_to 7997
  139.5627  144.1831  152.1264 H   0  0  0  0  0  0  0  0  0  0  0  0  # atno 10167 bound_to 10162
  156.1680  130.4149  149.9690 H   0  0  0  0  0  0  0  0  0  0  0  0  # atno 10718 bound_to 10713
  152.9876  135.6123  154.2995 H   0  0  0  0  0  0  0  0  0  0  0  0  # atno 10763 bound_to 10752
  154.2716  135.2779  155.2737 H   0  0  0  0  0  0  0  0  0  0  0  0  # atno 10764 bound_to 10752
  154.5117  135.5839  153.6667 H   0  0  0  0  0  0  0  0  0  0  0  0  # atno 10765 bound_to 10752
  141.1100  133.8723  157.1611 H   0  0  0  0  0  0  0  0  0  0  0  0  # atno 11005 bound_to 11000
  146.3330  140.2766  142.8608 LP  0  0  0  0  0  0  0  0  0  0  0  0  # atno 17320 bound_to 7965
  144.9594  140.8260  143.5523 LP  0  0  0  0  0  0  0  0  0  0  0  0  # atno 17321 bound_to 7965
  140.1348  144.5256  150.6780 LP  0  0  0  0  0  0  0  0  0  0  0  0  # atno 17342 bound_to 10162
  140.6908  143.2375  151.5137 LP  0  0  0  0  0  0  0  0  0  0  0  0  # atno 17343 bound_to 10162
  156.7499  130.9111  151.3637 LP  0  0  0  0  0  0  0  0  0  0  0  0  # atno 17370 bound_to 10713
  157.6782  130.9114  150.0202 LP  0  0  0  0  0  0  0  0  0  0  0  0  # atno 17371 bound_to 10713
  139.9989  135.0035  157.0146 LP  0  0  0  0  0  0  0  0  0  0  0  0  # atno 17394 bound_to 11000
  140.4800  134.1299  155.7215 LP  0  0  0  0  0  0  0  0  0  0  0  0  # atno 17395 bound_to 11000

$$$$
