AV-unprocessed.smi:626|AV-procd|sdf|3111|dock2
  -GOLD-   22720 0 33D 1   1.00000     0.00000
 Structure written by MMmdl.
 34 36  0  0  0  0  0  0  0  0  1 V2000
  147.3075  144.5145  161.9913 C   0  0  0  0  0  0  0  0  0  0  0  0
  147.1070  143.9359  160.6717 N   0  0  0  0  0  0  0  0  0  0  0  0
  146.7626  142.6584  160.4521 C   0  0  0  0  0  0  0  0  0  0  0  0
  146.5863  141.8414  161.3563 O   0  0  0  0  0  0  0  0  0  0  0  0
  146.5920  142.2351  158.9912 C   0  0  0  0  0  0  0  0  0  0  0  0
  147.9054  142.2525  158.2770 C   0  0  0  0  0  0  0  0  0  0  0  0
  148.0222  141.8029  157.0332 N   0  0  0  0  0  0  0  0  0  0  0  0
  149.3767  142.0142  156.7391 O   0  0  0  0  0  0  0  0  0  0  0  0
  149.9273  142.5383  157.8613 C   0  0  0  0  0  0  0  0  0  0  0  0
  151.3642  142.9693  157.8110 C   0  0  2  0  0  0  0  0  0  0  0  0
  152.3206  142.1956  158.7470 C   0  0  0  0  0  0  0  0  0  0  0  0
  153.0487  143.3301  159.4939 C   0  0  2  0  0  0  0  0  0  0  0  0
  152.0813  143.9788  160.5028 C   0  0  0  0  0  0  0  0  0  0  0  0
  151.1320  144.7853  159.5962 C   0  0  0  0  0  0  0  0  0  0  0  0
  151.6446  144.4451  158.1818 C   0  0  1  0  0  0  0  0  0  0  0  0
  153.1514  144.4082  158.4205 C   0  0  0  0  0  0  0  0  0  0  0  0
  149.0430  142.7489  158.8360 N   0  0  0  0  0  0  0  0  0  0  0  0
  147.6717  145.5377  161.8970 H   0  0  0  0  0  0  0  0  0  0  0  0
  148.0409  143.9437  162.5626 H   0  0  0  0  0  0  0  0  0  0  0  0
  146.3707  144.5356  162.5494 H   0  0  0  0  0  0  0  0  0  0  0  0
  147.2320  144.5451  159.8759 H   0  0  0  0  0  0  0  0  0  0  0  0
  146.1521  141.2385  158.9267 H   0  0  0  0  0  0  0  0  0  0  0  0
  145.8986  142.9182  158.4990 H   0  0  0  0  0  0  0  0  0  0  0  0
  151.7032  142.8115  156.7856 H   0  0  0  0  0  0  0  0  0  0  0  0
  151.8118  141.5240  159.4394 H   0  0  0  0  0  0  0  0  0  0  0  0
  153.0207  141.5944  158.1655 H   0  0  0  0  0  0  0  0  0  0  0  0
  153.9981  143.0240  159.9341 H   0  0  0  0  0  0  0  0  0  0  0  0
  151.5520  143.2370  161.1021 H   0  0  0  0  0  0  0  0  0  0  0  0
  152.6146  144.6418  161.1852 H   0  0  0  0  0  0  0  0  0  0  0  0
  150.0829  144.5372  159.7514 H   0  0  0  0  0  0  0  0  0  0  0  0
  151.2415  145.8528  159.7920 H   0  0  0  0  0  0  0  0  0  0  0  0
  151.3165  145.1547  157.4216 H   0  0  0  0  0  0  0  0  0  0  0  0
  153.5561  145.3517  158.7913 H   0  0  0  0  0  0  0  0  0  0  0  0
  153.7231  144.0942  157.5454 H   0  0  0  0  0  0  0  0  0  0  0  0
  1  2  1  0  0  0  0
  1 18  1  0  0  0  0
  1 19  1  0  0  0  0
  1 20  1  0  0  0  0
  2  3  1  0  0  0  0
  2 21  1  0  0  0  0
  3  4  2  0  0  0  0
  3  5  1  0  0  0  0
  5  6  1  0  0  0  0
  5 22  1  0  0  0  0
  5 23  1  0  0  0  0
  6 17  1  0  0  0  0
  6  7  2  0  0  0  0
  7  8  1  0  0  0  0
  8  9  1  0  0  0  0
  9 10  1  0  0  0  0
  9 17  2  0  0  0  0
 10 15  1  0  0  0  0
 10 11  1  0  0  0  0
 10 24  1  0  0  0  0
 11 12  1  0  0  0  0
 11 25  1  0  0  0  0
 11 26  1  0  0  0  0
 12 16  1  0  0  0  0
 12 13  1  0  0  0  0
 12 27  1  0  0  0  0
 13 14  1  0  0  0  0
 13 28  1  0  0  0  0
 13 29  1  0  0  0  0
 14 15  1  0  0  0  0
 14 30  1  0  0  0  0
 14 31  1  0  0  0  0
 15 16  1  0  0  0  0
 15 32  1  0  0  0  0
 16 33  1  0  0  0  0
 16 34  1  0  0  0  0
M  END
> <s_m_source_file>
AV-unprocessed.smi

> <i_m_source_file_index>
626

> <i_lp_mmshare_version>
43012

> <i_f3d_flags>
0

> <s_epik_input>
W0NIM11bTkhdQyg9TylbQ0gyXWMxbm9jKG4xKVtDQEhdKFtDSDJdW0NAQEhdMjMpW0NAQEhdKFtDSDJdMylbQ0gyXVtDSDJdMg==

> <s_epik_cmdline>
J2VwaWtfcHl0aG9uJywgJy1waCcsICc3LjAnLCAnLXRuJywgJzgnLCAnLW1hJywgJzIwMCcsICctbWV0YWxfYmluZGluZycsICctaW1hZScsICc8aW5maWxlLm1hZT4nLCAnLW9tYWUnLCAnPG91dGZpbGUubWFlPic=

> <r_lp_tautomer_probability>
1

> <r_epik_Ionization_Penalty>
1.02916e-07

> <r_epik_Ionization_Penalty_Charging>
0

> <r_epik_Ionization_Penalty_Neutral>
1.02916e-07

> <r_epik_State_Penalty>
-0

> <r_epik_Charging_Adjusted_Penalty>
0

> <i_epik_Tot_Q>
0

> <i_epik_Tot_abs_Q>
0

> <r_epik_Metal_State_Penalty>
-0

> <b_epik_Metal_Only>
0

> <s_lp_Force_Field>
OPLS_2005

> <r_lp_Energy>
49.4755

> <b_lp_Chiralities_Consistent>
1

> <s_lp_Variant>
AV-unprocessed.smi:626-3

> <Gold.Version>
5.8.1

> <Gold.Id.Protein>
6NUR|6NUR_protein|mol2

> <Gold.PLP.Fitness>
41.2745

> <Gold.PLP.PLP>
-35.1290

> <Gold.PLP.part.hbond>
-2.6943

> <Gold.PLP.part.metal>
0.0000

> <Gold.PLP.part.buried>
-5.9285

> <Gold.PLP.part.nonpolar>
-27.9265

> <Gold.PLP.part.repulsive>
0.4325

> <Gold.PLP.ligand.clash>
0.0000

> <Gold.PLP.ligand.torsion>
0.2516

> <Gold.PLP.Chemscore.Hbond>
2.1882

> <Gold.PLP.Chemscore.CHOScore>
0.0000

> <Gold.PLP.Chemscore.Metal>
0.0000

> <Gold.Chemscore.Hbonds>
donor molecule, donor type, donor heavy atom, donor atom, acceptor molecule, acceptor atom, score
      P1  H  6934  6946       L1     4  0.07

> <Gold.PLP.Chemscore.Internal.Correction>
0.0841

> <Gold.Rescore>
     Score         DG    S(hbond)    S(metal)    S(lipo)     H(rot)  DE(clash)    DE(int)     intcor
     16.37     -19.14       2.09        0.00      92.30       1.61       0.30       2.48       ----

> <Gold.Chemscore.Fitness>
16.3676

> <Gold.Chemscore.DG>
-19.1422

> <Gold.Chemscore.ZeroCoef>
-5.4800

> <Gold.Chemscore.Hbond>
2.0926

> <Gold.Chemscore.Metal>
0.0000

> <Gold.Chemscore.Lipo>
92.3026

> <Gold.Chemscore.Internal_Hbond>
0.0000

> <Gold.Chemscore.DEClash>
0.2967

> <Gold.Chemscore.DEInternal>
2.4779

> <Gold.Chemscore.Rot>
1.6119

> <Gold.Chemscore.Internal.Correction>
   9.000000E+99

> <Gold.Chemscore.Hbonds>
donor molecule, donor type, donor heavy atom, donor atom, acceptor molecule, acceptor atom, score
      P1  H  6934  6946       L1     4  0.02

> <Gold.Chemscore.Hbond.Weighted>
-6.9894

> <Gold.Chemscore.Metal.Weighted>
-0.0000

> <Gold.Chemscore.Lipo.Weighted>
-10.7994

> <Gold.Chemscore.Internal_Hbond.Weighted>
0.0000

> <Gold.Chemscore.DEClash.Weighted>
0.2967

> <Gold.Chemscore.DEInternal.Weighted>
2.4779

> <Gold.Chemscore.Rot.Weighted>
4.1266

> <Gold.Chemscore.Internal.Correction.Weighted>
   9.000000E+99

> <Gold.Protein.RotatedTorsions>
[ 6907 6896 6895 6894 ] final -128.34 input  -60.11 | X-H torsion
[ 7974 7965 7964 7962 ] final  -83.98 input  175.53 | X-H torsion
[ 8008 7997 7996 7995 ] final  109.37 input   59.86 | X-H torsion
[ 10167 10162 10161 10158 ] final  -61.74 input  -65.29 | X-H torsion
[ 10718 10713 10712 10709 ] final   47.73 input   66.30 | X-H torsion
[ 10763 10752 10751 10750 ] final  -91.31 input  -60.55 | X-H torsion
[ 11005 11000 10999 10996 ] final  163.37 input  -57.11 | X-H torsion

> <Gold.Protein.ActiveResidues>
 VAL166  LYS551  ARG553  GLY616  TRP617  ASP618  TYR619  PRO620  LYS621  CYS622 
 ASP623  PHE694  ASN695  SER759  ASP760  ASP761  ALA762  ILE779  LEU786  VAL792 
 PHE793  MET794  SER795  GLU796  ALA797  LYS798  CYS799  TRP800  GLU811  SER814 

> <Gold.Protein.RotatedAtoms>
  150.9168  133.6929  159.2841 H   0  0  0  0  0  0  0  0  0  0  0  0  # atno 6907 bound_to 6896
  151.4397  135.1017  159.9676 H   0  0  0  0  0  0  0  0  0  0  0  0  # atno 6908 bound_to 6896
  152.4959  133.8579  159.7290 H   0  0  0  0  0  0  0  0  0  0  0  0  # atno 6909 bound_to 6896
  145.5128  140.9538  143.1698 H   0  0  0  0  0  0  0  0  0  0  0  0  # atno 7974 bound_to 7965
  156.1974  140.3059  155.9455 H   0  0  0  0  0  0  0  0  0  0  0  0  # atno 8008 bound_to 7997
  155.3034  140.0447  157.3048 H   0  0  0  0  0  0  0  0  0  0  0  0  # atno 8009 bound_to 7997
  154.5527  140.2296  155.8468 H   0  0  0  0  0  0  0  0  0  0  0  0  # atno 8010 bound_to 7997
  140.5986  143.2356  151.5980 H   0  0  0  0  0  0  0  0  0  0  0  0  # atno 10167 bound_to 10162
  157.4614  130.8199  149.7891 H   0  0  0  0  0  0  0  0  0  0  0  0  # atno 10718 bound_to 10713
  154.6748  135.5272  153.8185 H   0  0  0  0  0  0  0  0  0  0  0  0  # atno 10763 bound_to 10752
  153.0525  135.6538  154.0668 H   0  0  0  0  0  0  0  0  0  0  0  0  # atno 10764 bound_to 10752
  154.0563  135.2965  155.3312 H   0  0  0  0  0  0  0  0  0  0  0  0  # atno 10765 bound_to 10752
  140.2351  134.8094  157.3355 H   0  0  0  0  0  0  0  0  0  0  0  0  # atno 11005 bound_to 11000
  144.7718  139.6718  143.7191 LP  0  0  0  0  0  0  0  0  0  0  0  0  # atno 17320 bound_to 7965
  146.2156  139.5543  142.9652 LP  0  0  0  0  0  0  0  0  0  0  0  0  # atno 17321 bound_to 7965
  139.5275  144.3015  152.1069 LP  0  0  0  0  0  0  0  0  0  0  0  0  # atno 17342 bound_to 10162
  140.2192  144.4484  150.6350 LP  0  0  0  0  0  0  0  0  0  0  0  0  # atno 17343 bound_to 10162
  156.0030  130.3870  150.2533 LP  0  0  0  0  0  0  0  0  0  0  0  0  # atno 17370 bound_to 10713
  157.0710  131.0117  151.3190 LP  0  0  0  0  0  0  0  0  0  0  0  0  # atno 17371 bound_to 10713
  140.1711  134.4608  155.7831 LP  0  0  0  0  0  0  0  0  0  0  0  0  # atno 17394 bound_to 11000
  141.2215  133.6942  156.7708 LP  0  0  0  0  0  0  0  0  0  0  0  0  # atno 17395 bound_to 11000

$$$$
