AV-unprocessed.smi:3250|AV-procd|sdf|12427|dock10
  -GOLD-   2272018313D 1   1.00000     0.00000
 Structure written by MMmdl.
 39 40  0  0  0  0  0  0  0  0  2 V2000
  146.4789  129.7094  152.6303 C   0  0  0  0  0  0  0  0  0  0  0  0
  145.7270  130.2130  151.3905 C   0  0  0  0  0  0  0  0  0  0  0  0
  146.2940  131.4836  150.8662 N   0  3  1  0  0  0  0  0  0  0  0  0
  145.8918  131.8154  149.4756 C   0  0  0  0  0  0  0  0  0  0  0  0
  144.4660  132.3969  149.4226 C   0  0  0  0  0  0  0  0  0  0  0  0
  144.3682  133.5137  150.2985 O   0  0  0  0  0  0  0  0  0  0  0  0
  144.6215  133.1666  151.6555 C   0  0  2  0  0  0  0  0  0  0  0  0
  144.3808  134.4231  152.5098 C   0  0  0  0  0  0  0  0  0  0  0  0
  143.0984  134.3951  153.2019 N   0  0  0  0  0  0  0  0  0  0  0  0
  142.2973  135.5007  153.4242 C   0  0  0  0  0  0  0  0  0  0  0  0
  142.7484  136.6480  152.9134 N   0  0  0  0  0  0  0  0  0  0  0  0
  141.9871  137.7473  153.1066 C   0  0  0  0  0  0  0  0  0  0  0  0
  140.7712  137.6929  153.8167 C   0  0  0  0  0  0  0  0  0  0  0  0
  140.3901  136.4309  154.3152 C   0  0  0  0  0  0  0  0  0  0  0  0
  139.2106  136.3060  155.0193 O   0  0  0  0  0  0  0  0  0  0  0  0
  138.1451  137.1964  154.7065 C   0  0  0  0  0  0  0  0  0  0  0  0
  141.1642  135.3350  154.1156 N   0  0  0  0  0  0  0  0  0  0  0  0
  146.0720  132.6455  151.7608 C   0  0  0  0  0  0  0  0  0  0  0  0
  145.9891  128.8272  153.0427 H   0  0  0  0  0  0  0  0  0  0  0  0
  146.5010  130.4687  153.4126 H   0  0  0  0  0  0  0  0  0  0  0  0
  147.5072  129.4306  152.4020 H   0  0  0  0  0  0  0  0  0  0  0  0
  145.7085  129.4450  150.6172 H   0  0  0  0  0  0  0  0  0  0  0  0
  144.6886  130.3784  151.6803 H   0  0  0  0  0  0  0  0  0  0  0  0
  146.5922  132.5572  149.0898 H   0  0  0  0  0  0  0  0  0  0  0  0
  145.9780  130.9490  148.8211 H   0  0  0  0  0  0  0  0  0  0  0  0
  144.2372  132.7270  148.4093 H   0  0  0  0  0  0  0  0  0  0  0  0
  143.7179  131.6472  149.6832 H   0  0  0  0  0  0  0  0  0  0  0  0
  143.9166  132.3894  151.9548 H   0  0  0  0  0  0  0  0  0  0  0  0
  145.1738  134.5301  153.2502 H   0  0  0  0  0  0  0  0  0  0  0  0
  144.4260  135.3146  151.8828 H   0  0  0  0  0  0  0  0  0  0  0  0
  142.7501  133.5041  153.5251 H   0  0  0  0  0  0  0  0  0  0  0  0
  142.3502  138.6762  152.6924 H   0  0  0  0  0  0  0  0  0  0  0  0
  140.1629  138.5723  153.9687 H   0  0  0  0  0  0  0  0  0  0  0  0
  137.2933  136.9816  155.3519 H   0  0  0  0  0  0  0  0  0  0  0  0
  137.8167  137.0763  153.6730 H   0  0  0  0  0  0  0  0  0  0  0  0
  138.4311  138.2362  154.8719 H   0  0  0  0  0  0  0  0  0  0  0  0
  146.3234  132.3826  152.7891 H   0  0  0  0  0  0  0  0  0  0  0  0
  146.7643  133.4374  151.4711 H   0  0  0  0  0  0  0  0  0  0  0  0
  147.2933  131.3364  150.8497 H   0  0  0  0  0  0  0  0  0  0  0  0
  1  2  1  0  0  0  0
  1 19  1  0  0  0  0
  1 20  1  0  0  0  0
  1 21  1  0  0  0  0
  2  3  1  0  0  0  0
  2 22  1  0  0  0  0
  2 23  1  0  0  0  0
  3 18  1  0  0  0  0
  3  4  1  0  0  0  0
  3 39  1  0  0  0  0
  4  5  1  0  0  0  0
  4 24  1  0  0  0  0
  4 25  1  0  0  0  0
  5  6  1  0  0  0  0
  5 26  1  0  0  0  0
  5 27  1  0  0  0  0
  6  7  1  0  0  0  0
  7  8  1  0  0  0  0
  7 18  1  0  0  0  0
  7 28  1  0  0  0  0
  8  9  1  0  0  0  0
  8 29  1  0  0  0  0
  8 30  1  0  0  0  0
  9 10  1  0  0  0  0
  9 31  1  0  0  0  0
 10 17  1  0  0  0  0
 10 11  2  0  0  0  0
 11 12  1  0  0  0  0
 12 13  2  0  0  0  0
 12 32  1  0  0  0  0
 13 14  1  0  0  0  0
 13 33  1  0  0  0  0
 14 15  1  0  0  0  0
 14 17  2  0  0  0  0
 15 16  1  0  0  0  0
 16 34  1  0  0  0  0
 16 35  1  0  0  0  0
 16 36  1  0  0  0  0
 18 37  1  0  0  0  0
 18 38  1  0  0  0  0
M  CHG  1   3   1
M  END
> <s_m_source_file>
AV-unprocessed.smi

> <i_m_source_file_index>
3250

> <i_lp_mmshare_version>
43012

> <i_f3d_flags>
0

> <s_epik_input>
W0NIM11bQ0gyXU4xW0NIMl1bQ0gyXU9bQ0BIXShbQ0gyXTEpW0NIMl1bTkhdYzJuW2NIXVtjSF1jKG4yKU9bQ0gzXQ==

> <s_epik_cmdline>
J2VwaWtfcHl0aG9uJywgJy1waCcsICc3LjAnLCAnLXRuJywgJzgnLCAnLW1hJywgJzIwMCcsICctbWV0YWxfYmluZGluZycsICctaW1hZScsICc8aW5maWxlLm1hZT4nLCAnLW9tYWUnLCAnPG91dGZpbGUubWFlPic=

> <r_lp_tautomer_probability>
1

> <r_epik_Ionization_Penalty>
0.19684

> <r_epik_Ionization_Penalty_Charging>
0.178504

> <r_epik_Ionization_Penalty_Neutral>
0.0183356

> <r_epik_State_Penalty>
0.162939

> <r_epik_Charging_Adjusted_Penalty>
0.341443

> <i_epik_Tot_Q>
1

> <i_epik_Tot_abs_Q>
1

> <r_epik_Metal_State_Penalty>
0.1608

> <b_epik_Metal_Only>
0

> <s_lp_Force_Field>
OPLS_2005

> <r_lp_Energy>
9.61167

> <b_lp_Chiralities_Consistent>
1

> <s_lp_Variant>
AV-unprocessed.smi:3250-3

> <Gold.Version>
5.8.1

> <Gold.Id.Protein>
6NUR|6NUR_protein|mol2

> <Gold.PLP.Fitness>
43.0203

> <Gold.PLP.PLP>
-34.5373

> <Gold.PLP.part.hbond>
-3.7833

> <Gold.PLP.part.metal>
0.0000

> <Gold.PLP.part.buried>
-7.3663

> <Gold.PLP.part.nonpolar>
-24.8081

> <Gold.PLP.part.repulsive>
0.6273

> <Gold.PLP.ligand.clash>
0.0000

> <Gold.PLP.ligand.torsion>
1.2235

> <Gold.PLP.Chemscore.Hbond>
2.6313

> <Gold.PLP.Chemscore.CHOScore>
1.0000

> <Gold.PLP.Chemscore.Metal>
0.0000

> <Gold.Chemscore.Hbonds>
donor molecule, donor type, donor heavy atom, donor atom, acceptor molecule, acceptor atom, score
      L1  H     3    39       P1 10747  1.00
      L1  H     9    31       P1 10957  0.73
      P1  H 11000 11005       L1    15  0.90
      L1  C    12    32       P1 10175  1.00

> <Gold.PLP.Chemscore.Internal.Correction>
0.0362

> <Gold.Rescore>
     Score         DG    S(hbond)    S(metal)    S(lipo)     H(rot)  DE(clash)    DE(int)     intcor
     16.92     -18.25       2.61        0.00      72.22       1.71       0.08       1.26       ----

> <Gold.Chemscore.Fitness>
16.9151

> <Gold.Chemscore.DG>
-18.2523

> <Gold.Chemscore.ZeroCoef>
-5.4800

> <Gold.Chemscore.Hbond>
2.6069

> <Gold.Chemscore.Metal>
0.0000

> <Gold.Chemscore.Lipo>
72.2213

> <Gold.Chemscore.Internal_Hbond>
0.0000

> <Gold.Chemscore.DEClash>
0.0756

> <Gold.Chemscore.DEInternal>
1.2615

> <Gold.Chemscore.Rot>
1.7127

> <Gold.Chemscore.Internal.Correction>
   9.000000E+99

> <Gold.Chemscore.Hbonds>
donor molecule, donor type, donor heavy atom, donor atom, acceptor molecule, acceptor atom, score
      L1  H     3    39       P1 10747  1.00
      L1  H     9    31       P1 10957  0.72
      P1  H 11000 11005       L1    15  0.16

> <Gold.Chemscore.Hbond.Weighted>
-8.7070

> <Gold.Chemscore.Metal.Weighted>
-0.0000

> <Gold.Chemscore.Lipo.Weighted>
-8.4499

> <Gold.Chemscore.Internal_Hbond.Weighted>
0.0000

> <Gold.Chemscore.DEClash.Weighted>
0.0756

> <Gold.Chemscore.DEInternal.Weighted>
1.2615

> <Gold.Chemscore.Rot.Weighted>
4.3846

> <Gold.Chemscore.Internal.Correction.Weighted>
   9.000000E+99

> <Gold.Protein.RotatedTorsions>
[ 6907 6896 6895 6894 ] final  -90.29 input  -60.11 | X-H torsion
[ 7974 7965 7964 7962 ] final   -7.23 input  175.53 | X-H torsion
[ 8008 7997 7996 7995 ] final -118.71 input   59.86 | X-H torsion
[ 10167 10162 10161 10158 ] final  116.88 input  -65.29 | X-H torsion
[ 10718 10713 10712 10709 ] final -161.06 input   66.30 | X-H torsion
[ 10763 10752 10751 10750 ] final  -39.67 input  -60.55 | X-H torsion
[ 11005 11000 10999 10996 ] final   97.31 input  -57.11 | X-H torsion

> <Gold.Protein.ActiveResidues>
 VAL166  LYS551  ARG553  GLY616  TRP617  ASP618  TYR619  PRO620  LYS621  CYS622 
 ASP623  PHE694  ASN695  SER759  ASP760  ASP761  ALA762  ILE779  LEU786  VAL792 
 PHE793  MET794  SER795  GLU796  ALA797  LYS798  CYS799  TRP800  GLU811  SER814 

> <Gold.Protein.RotatedAtoms>
  150.6880  134.2455  159.4489 H   0  0  0  0  0  0  0  0  0  0  0  0  # atno 6907 bound_to 6896
  152.0396  134.9717  160.0583 H   0  0  0  0  0  0  0  0  0  0  0  0  # atno 6908 bound_to 6896
  152.1224  133.4326  159.4719 H   0  0  0  0  0  0  0  0  0  0  0  0  # atno 6909 bound_to 6896
  146.2312  140.2289  142.8339 H   0  0  0  0  0  0  0  0  0  0  0  0  # atno 7974 bound_to 7965
  155.1040  140.0396  157.2705 H   0  0  0  0  0  0  0  0  0  0  0  0  # atno 8008 bound_to 7997
  154.6736  140.2617  155.6956 H   0  0  0  0  0  0  0  0  0  0  0  0  # atno 8009 bound_to 7997
  156.2668  140.2792  156.1254 H   0  0  0  0  0  0  0  0  0  0  0  0  # atno 8010 bound_to 7997
  139.6216  144.7102  151.2622 H   0  0  0  0  0  0  0  0  0  0  0  0  # atno 10167 bound_to 10162
  156.5909  130.8770  151.2889 H   0  0  0  0  0  0  0  0  0  0  0  0  # atno 10718 bound_to 10713
  153.9333  135.6769  153.4745 H   0  0  0  0  0  0  0  0  0  0  0  0  # atno 10763 bound_to 10752
  153.0968  135.4847  154.8791 H   0  0  0  0  0  0  0  0  0  0  0  0  # atno 10764 bound_to 10752
  154.7416  135.3162  154.8675 H   0  0  0  0  0  0  0  0  0  0  0  0  # atno 10765 bound_to 10752
  139.8776  134.8994  156.4288 H   0  0  0  0  0  0  0  0  0  0  0  0  # atno 11005 bound_to 11000
  144.9574  140.8240  143.5535 LP  0  0  0  0  0  0  0  0  0  0  0  0  # atno 17320 bound_to 7965
  145.2255  139.2139  143.5070 LP  0  0  0  0  0  0  0  0  0  0  0  0  # atno 17321 bound_to 7965
  140.7385  143.6644  150.8135 LP  0  0  0  0  0  0  0  0  0  0  0  0  # atno 17342 bound_to 10162
  140.0256  143.5497  152.2782 LP  0  0  0  0  0  0  0  0  0  0  0  0  # atno 17343 bound_to 10162
  157.7304  130.9684  150.1830 LP  0  0  0  0  0  0  0  0  0  0  0  0  # atno 17370 bound_to 10713
  156.2550  130.3704  149.8191 LP  0  0  0  0  0  0  0  0  0  0  0  0  # atno 17371 bound_to 10713
  140.9081  133.7731  155.9759 LP  0  0  0  0  0  0  0  0  0  0  0  0  # atno 17394 bound_to 11000
  140.8576  134.2879  157.5248 LP  0  0  0  0  0  0  0  0  0  0  0  0  # atno 17395 bound_to 11000

$$$$
