AV-unprocessed.smi:252|AV-procd|sdf|1943|dock3
  -GOLD-   2262021 73D 1   1.00000     0.00000
 Structure written by MMmdl.
 56 59  0  0  0  0  0  0  0  0  1 V2000
  148.7321  140.9573  154.1545 C   0  0  0  0  0  0  0  0  0  0  0  0
  148.6315  141.1039  155.6811 C   0  0  0  0  0  0  0  0  0  0  0  0
  149.9741  141.3921  156.3606 C   0  0  0  0  0  0  0  0  0  0  0  0
  150.8430  140.5231  156.4422 O   0  0  0  0  0  0  0  0  0  0  0  0
  150.1272  142.6323  156.8498 N   0  0  0  0  0  0  0  0  0  0  0  0
  151.3124  143.1235  157.5452 C   0  0  1  0  0  0  0  0  0  0  0  0
  151.0979  144.5875  157.9691 C   0  0  0  0  0  0  0  0  0  0  0  0
  152.3007  145.0927  158.7803 C   0  0  0  0  0  0  0  0  0  0  0  0
  152.5813  144.1737  159.9796 C   0  0  0  0  0  0  0  0  0  0  0  0
  152.7402  142.7862  159.5456 N   0  0  0  0  0  0  0  0  0  0  0  0
  153.3269  141.9710  160.4587 C   0  0  0  0  0  0  0  0  0  0  0  0
  153.4711  142.3860  161.7460 N   0  0  0  0  0  0  0  0  0  0  0  0
  154.0557  141.5943  162.6496 C   0  0  0  0  0  0  0  0  0  0  0  0
  154.5606  140.3707  162.4843 N   0  0  0  0  0  0  0  0  0  0  0  0
  154.4159  139.9455  161.1967 C   0  0  0  0  0  0  0  0  0  0  0  0
  153.8120  140.6729  160.1320 C   0  0  0  0  0  0  0  0  0  0  0  0
  153.8242  139.9081  158.9713 N   0  0  0  0  0  0  0  0  0  0  0  0
  154.4083  138.7970  159.3273 C   0  0  0  0  0  0  0  0  0  0  0  0
  154.8100  138.7398  160.6428 N   0  0  0  0  0  0  0  0  0  0  0  0
  155.4817  137.6298  161.3008 C   0  0  0  0  0  0  0  0  0  0  0  0
  154.5218  136.5117  161.7948 C   0  0  2  0  0  0  0  0  0  0  0  0
  153.7989  135.9859  160.6978 O   0  0  0  0  0  0  0  0  0  0  0  0
  153.5346  136.9693  162.8621 C   0  0  0  0  0  0  0  0  0  0  0  0
  154.3621  136.8742  164.1402 C   0  0  0  0  0  0  0  0  0  0  0  0
  155.2869  135.8127  163.9207 O   0  0  0  0  0  0  0  0  0  0  0  0
  155.2245  135.3764  162.5648 C   0  0  2  0  0  0  0  0  0  0  0  0
  156.6144  134.9570  162.0636 C   0  0  0  0  0  0  0  0  0  0  0  0
  151.6202  142.2439  158.7743 C   0  0  0  0  0  0  0  0  0  0  0  0
  147.7566  140.7298  153.7244 H   0  0  0  0  0  0  0  0  0  0  0  0
  149.4112  140.1504  153.8761 H   0  0  0  0  0  0  0  0  0  0  0  0
  149.0897  141.8762  153.6886 H   0  0  0  0  0  0  0  0  0  0  0  0
  147.9376  141.9084  155.9271 H   0  0  0  0  0  0  0  0  0  0  0  0
  148.2152  140.1888  156.1042 H   0  0  0  0  0  0  0  0  0  0  0  0
  149.3632  143.2828  156.7382 H   0  0  0  0  0  0  0  0  0  0  0  0
  152.1648  143.0895  156.8638 H   0  0  0  0  0  0  0  0  0  0  0  0
  150.9496  145.2182  157.0917 H   0  0  0  0  0  0  0  0  0  0  0  0
  150.1925  144.6720  158.5720 H   0  0  0  0  0  0  0  0  0  0  0  0
  153.1824  145.1340  158.1395 H   0  0  0  0  0  0  0  0  0  0  0  0
  152.1193  146.1107  159.1257 H   0  0  0  0  0  0  0  0  0  0  0  0
  153.4645  144.5317  160.5076 H   0  0  0  0  0  0  0  0  0  0  0  0
  151.7535  144.2250  160.6878 H   0  0  0  0  0  0  0  0  0  0  0  0
  154.1310  141.9998  163.6478 H   0  0  0  0  0  0  0  0  0  0  0  0
  154.5699  137.9850  158.6333 H   0  0  0  0  0  0  0  0  0  0  0  0
  156.2121  137.2212  160.6017 H   0  0  0  0  0  0  0  0  0  0  0  0
  156.0560  138.0335  162.1355 H   0  0  0  0  0  0  0  0  0  0  0  0
  153.8755  136.5858  159.9719 H   0  0  0  0  0  0  0  0  0  0  0  0
  153.1066  137.9575  162.6990 H   0  0  0  0  0  0  0  0  0  0  0  0
  152.7015  136.2674  162.9311 H   0  0  0  0  0  0  0  0  0  0  0  0
  154.9205  137.7960  164.3056 H   0  0  0  0  0  0  0  0  0  0  0  0
  153.7454  136.6899  165.0203 H   0  0  0  0  0  0  0  0  0  0  0  0
  154.5771  134.4974  162.5615 H   0  0  0  0  0  0  0  0  0  0  0  0
  156.5792  134.6564  161.0160 H   0  0  0  0  0  0  0  0  0  0  0  0
  156.9912  134.1111  162.6388 H   0  0  0  0  0  0  0  0  0  0  0  0
  157.3399  135.7646  162.1605 H   0  0  0  0  0  0  0  0  0  0  0  0
  150.7415  142.1805  159.4182 H   0  0  0  0  0  0  0  0  0  0  0  0
  151.8543  141.2295  158.4478 H   0  0  0  0  0  0  0  0  0  0  0  0
  1  2  1  0  0  0  0
  1 29  1  0  0  0  0
  1 30  1  0  0  0  0
  1 31  1  0  0  0  0
  2  3  1  0  0  0  0
  2 32  1  0  0  0  0
  2 33  1  0  0  0  0
  3  4  2  0  0  0  0
  3  5  1  0  0  0  0
  5  6  1  0  0  0  0
  5 34  1  0  0  0  0
  6 28  1  0  0  0  0
  6  7  1  0  0  0  0
  6 35  1  0  0  0  0
  7  8  1  0  0  0  0
  7 36  1  0  0  0  0
  7 37  1  0  0  0  0
  8  9  1  0  0  0  0
  8 38  1  0  0  0  0
  8 39  1  0  0  0  0
  9 10  1  0  0  0  0
  9 40  1  0  0  0  0
  9 41  1  0  0  0  0
 10 11  1  0  0  0  0
 10 28  1  0  0  0  0
 11 16  1  0  0  0  0
 11 12  2  0  0  0  0
 12 13  1  0  0  0  0
 13 14  2  0  0  0  0
 13 42  1  0  0  0  0
 14 15  1  0  0  0  0
 15 19  1  0  0  0  0
 15 16  2  0  0  0  0
 16 17  1  0  0  0  0
 17 18  2  0  0  0  0
 18 19  1  0  0  0  0
 18 43  1  0  0  0  0
 19 20  1  0  0  0  0
 20 21  1  0  0  0  0
 20 44  1  0  0  0  0
 20 45  1  0  0  0  0
 21 26  1  0  0  0  0
 21 22  1  0  0  0  0
 21 23  1  0  0  0  0
 22 46  1  0  0  0  0
 23 24  1  0  0  0  0
 23 47  1  0  0  0  0
 23 48  1  0  0  0  0
 24 25  1  0  0  0  0
 24 49  1  0  0  0  0
 24 50  1  0  0  0  0
 25 26  1  0  0  0  0
 26 27  1  0  0  0  0
 26 51  1  0  0  0  0
 27 52  1  0  0  0  0
 27 53  1  0  0  0  0
 27 54  1  0  0  0  0
 28 55  1  0  0  0  0
 28 56  1  0  0  0  0
M  END
> <s_m_source_file>
AV-unprocessed.smi

> <i_m_source_file_index>
252

> <i_lp_mmshare_version>
43012

> <i_f3d_flags>
0

> <s_epik_input>
W0NIM11bQ0gyXUMoPU8pW05IXVtDQEBIXTFbQ0gyXVtDSDJdW0NIMl1OKFtDSDJdMSljKG5bY0hdbjIpYyhjMjMpbltjSF1uM1tDSDJdW0NAQF00KFtPSF0pW0NIMl1bQ0gyXU9bQ0BIXTRbQ0gzXQ==

> <s_epik_cmdline>
J2VwaWtfcHl0aG9uJywgJy1waCcsICc3LjAnLCAnLXRuJywgJzgnLCAnLW1hJywgJzIwMCcsICctbWV0YWxfYmluZGluZycsICctaW1hZScsICc8aW5maWxlLm1hZT4nLCAnLW9tYWUnLCAnPG91dGZpbGUubWFlPic=

> <r_lp_tautomer_probability>
1

> <r_epik_Ionization_Penalty>
0.00182575

> <r_epik_Ionization_Penalty_Charging>
0

> <r_epik_Ionization_Penalty_Neutral>
0.00182575

> <r_epik_State_Penalty>
0.00104524

> <r_epik_Charging_Adjusted_Penalty>
0.00104524

> <i_epik_Tot_Q>
0

> <i_epik_Tot_abs_Q>
0

> <r_epik_Metal_State_Penalty>
-0

> <b_epik_Metal_Only>
0

> <s_lp_Force_Field>
OPLS_2005

> <r_lp_Energy>
35.9235

> <b_lp_Chiralities_Consistent>
1

> <s_lp_Variant>
AV-unprocessed.smi:252-8

> <Gold.Version>
5.8.1

> <Gold.Id.Protein>
6NUR|6NUR_protein|mol2

> <Gold.PLP.Fitness>
55.9221

> <Gold.PLP.PLP>
-48.7917

> <Gold.PLP.part.hbond>
-3.0000

> <Gold.PLP.part.metal>
0.0000

> <Gold.PLP.part.buried>
-5.5600

> <Gold.PLP.part.nonpolar>
-42.1769

> <Gold.PLP.part.repulsive>
0.1356

> <Gold.PLP.ligand.clash>
0.0000

> <Gold.PLP.ligand.torsion>
0.6540

> <Gold.PLP.Chemscore.Hbond>
2.6752

> <Gold.PLP.Chemscore.CHOScore>
0.0000

> <Gold.PLP.Chemscore.Metal>
0.0000

> <Gold.Chemscore.Hbonds>
donor molecule, donor type, donor heavy atom, donor atom, acceptor molecule, acceptor atom, score
      L1  H     5    34       P1  8028  0.80
      P1  H  6896  6907       L1    22  1.00
      P1  H  7997  8008       L1    17  0.83

> <Gold.PLP.Chemscore.Internal.Correction>
0.4127

> <Gold.Rescore>
     Score         DG    S(hbond)    S(metal)    S(lipo)     H(rot)  DE(clash)    DE(int)     intcor
     16.93     -19.23       2.02        0.00     119.08       2.70       0.71       1.59       ----

> <Gold.Chemscore.Fitness>
16.9293

> <Gold.Chemscore.DG>
-19.2337

> <Gold.Chemscore.ZeroCoef>
-5.4800

> <Gold.Chemscore.Hbond>
2.0190

> <Gold.Chemscore.Metal>
0.0000

> <Gold.Chemscore.Lipo>
119.0836

> <Gold.Chemscore.Internal_Hbond>
0.0000

> <Gold.Chemscore.DEClash>
0.7112

> <Gold.Chemscore.DEInternal>
1.5932

> <Gold.Chemscore.Rot>
2.7041

> <Gold.Chemscore.Internal.Correction>
   9.000000E+99

> <Gold.Chemscore.Hbonds>
donor molecule, donor type, donor heavy atom, donor atom, acceptor molecule, acceptor atom, score
      L1  H     5    34       P1  8028  0.79
      P1  H  6896  6907       L1    22  0.29
      P1  H  7997  8008       L1    17  0.13

> <Gold.Chemscore.Hbond.Weighted>
-6.7435

> <Gold.Chemscore.Metal.Weighted>
-0.0000

> <Gold.Chemscore.Lipo.Weighted>
-13.9328

> <Gold.Chemscore.Internal_Hbond.Weighted>
0.0000

> <Gold.Chemscore.DEClash.Weighted>
0.7112

> <Gold.Chemscore.DEInternal.Weighted>
1.5932

> <Gold.Chemscore.Rot.Weighted>
6.9225

> <Gold.Chemscore.Internal.Correction.Weighted>
   9.000000E+99

> <Gold.Protein.RotatedTorsions>
[ 6907 6896 6895 6894 ] final   50.38 input  -60.11 | X-H torsion
[ 7974 7965 7964 7962 ] final  136.38 input  175.53 | X-H torsion
[ 8008 7997 7996 7995 ] final  -92.41 input   59.86 | X-H torsion
[ 10167 10162 10161 10158 ] final   86.84 input  -65.29 | X-H torsion
[ 10718 10713 10712 10709 ] final  -77.47 input   66.30 | X-H torsion
[ 10763 10752 10751 10750 ] final  -56.97 input  -60.55 | X-H torsion
[ 11005 11000 10999 10996 ] final   52.12 input  -57.11 | X-H torsion

> <Gold.Protein.ActiveResidues>
 VAL166  LYS551  ARG553  GLY616  TRP617  ASP618  TYR619  PRO620  LYS621  CYS622 
 ASP623  PHE694  ASN695  SER759  ASP760  ASP761  ALA762  ILE779  LEU786  VAL792 
 PHE793  MET794  SER795  GLU796  ALA797  LYS798  CYS799  TRP800  GLU811  SER814 

> <Gold.Protein.RotatedAtoms>
  152.3012  134.7609  160.0357 H   0  0  0  0  0  0  0  0  0  0  0  0  # atno 6907 bound_to 6896
  151.8121  133.3378  159.3567 H   0  0  0  0  0  0  0  0  0  0  0  0  # atno 6908 bound_to 6896
  150.7274  134.5583  159.5874 H   0  0  0  0  0  0  0  0  0  0  0  0  # atno 6909 bound_to 6896
  144.9571  139.4752  143.5498 H   0  0  0  0  0  0  0  0  0  0  0  0  # atno 7974 bound_to 7965
  154.7228  140.0509  157.0655 H   0  0  0  0  0  0  0  0  0  0  0  0  # atno 8008 bound_to 7997
  155.0405  140.3168  155.4707 H   0  0  0  0  0  0  0  0  0  0  0  0  # atno 8009 bound_to 7997
  156.2821  140.2133  156.5529 H   0  0  0  0  0  0  0  0  0  0  0  0  # atno 8010 bound_to 7997
  139.8835  144.6427  150.8817 H   0  0  0  0  0  0  0  0  0  0  0  0  # atno 10167 bound_to 10162
  156.0144  130.4492  150.3350 H   0  0  0  0  0  0  0  0  0  0  0  0  # atno 10718 bound_to 10713
  154.2151  135.6387  153.5127 H   0  0  0  0  0  0  0  0  0  0  0  0  # atno 10763 bound_to 10752
  152.9981  135.5483  154.6174 H   0  0  0  0  0  0  0  0  0  0  0  0  # atno 10764 bound_to 10752
  154.5620  135.2910  155.0883 H   0  0  0  0  0  0  0  0  0  0  0  0  # atno 10765 bound_to 10752
  140.0876  134.5253  155.8884 H   0  0  0  0  0  0  0  0  0  0  0  0  # atno 11005 bound_to 11000
  146.3341  139.8695  142.8842 LP  0  0  0  0  0  0  0  0  0  0  0  0  # atno 17320 bound_to 7965
  145.2756  141.0122  143.3747 LP  0  0  0  0  0  0  0  0  0  0  0  0  # atno 17321 bound_to 7965
  140.7740  143.3567  151.1908 LP  0  0  0  0  0  0  0  0  0  0  0  0  # atno 17342 bound_to 10162
  139.7175  143.9277  152.2972 LP  0  0  0  0  0  0  0  0  0  0  0  0  # atno 17343 bound_to 10162
  157.1447  131.0305  151.2912 LP  0  0  0  0  0  0  0  0  0  0  0  0  # atno 17370 bound_to 10713
  157.4442  130.7561  149.7095 LP  0  0  0  0  0  0  0  0  0  0  0  0  # atno 17371 bound_to 10713
  141.2067  133.6658  156.6262 LP  0  0  0  0  0  0  0  0  0  0  0  0  # atno 17394 bound_to 11000
  140.3398  134.7858  157.4389 LP  0  0  0  0  0  0  0  0  0  0  0  0  # atno 17395 bound_to 11000

$$$$
