AV-unprocessed.smi:2266|AV-procd|sdf|9147|dock1
  -GOLD-   2272012353D 1   1.00000     0.00000
 Structure written by MMmdl.
 33 34  0  0  0  0  0  0  0  0  1 V2000
  146.7040  139.2891  153.7622 C   0  0  0  0  0  0  0  0  0  0  0  0
  148.0718  139.5993  154.1787 N   0  0  0  0  0  0  0  0  0  0  0  0
  149.0768  138.6538  153.9304 C   0  0  0  0  0  0  0  0  0  0  0  0
  150.3494  138.8932  154.2940 C   0  0  0  0  0  0  0  0  0  0  0  0
  150.7006  140.0863  154.9256 N   0  0  0  0  0  0  0  0  0  0  0  0
  149.8183  141.0098  155.1878 C   0  0  0  0  0  0  0  0  0  0  0  0
  150.1357  142.2187  155.8205 N   0  0  0  0  0  0  0  0  0  0  0  0
  150.9739  142.4214  156.8567 C   0  0  0  0  0  0  0  0  0  0  0  0
  151.6244  141.5529  157.4413 O   0  0  0  0  0  0  0  0  0  0  0  0
  151.0179  143.7226  157.1864 N   0  0  0  0  0  0  0  0  0  0  0  0
  151.8152  144.3229  158.2586 C   0  0  0  0  0  0  0  0  0  0  0  0
  153.1624  144.8011  157.7067 C   0  0  0  0  0  0  0  0  0  0  0  0
  150.9869  145.2887  159.1333 C   0  0  0  0  0  0  0  0  0  0  0  0
  151.6230  144.6344  160.3626 C   0  0  0  0  0  0  0  0  0  0  0  0
  151.8342  143.3951  159.4883 C   0  0  0  0  0  0  0  0  0  0  0  0
  148.3564  140.7795  154.7933 C   0  0  0  0  0  0  0  0  0  0  0  0
  147.5068  141.6394  155.0342 O   0  0  0  0  0  0  0  0  0  0  0  0
  146.6268  138.3180  153.2720 H   0  0  0  0  0  0  0  0  0  0  0  0
  146.3382  140.0396  153.0599 H   0  0  0  0  0  0  0  0  0  0  0  0
  146.0357  139.2755  154.6240 H   0  0  0  0  0  0  0  0  0  0  0  0
  148.7571  137.7460  153.4397 H   0  0  0  0  0  0  0  0  0  0  0  0
  151.1449  138.1845  154.1167 H   0  0  0  0  0  0  0  0  0  0  0  0
  149.6841  143.0454  155.4573 H   0  0  0  0  0  0  0  0  0  0  0  0
  150.4485  144.3590  156.6478 H   0  0  0  0  0  0  0  0  0  0  0  0
  153.8088  145.1772  158.4997 H   0  0  0  0  0  0  0  0  0  0  0  0
  153.0402  145.6087  156.9847 H   0  0  0  0  0  0  0  0  0  0  0  0
  153.6983  143.9923  157.2093 H   0  0  0  0  0  0  0  0  0  0  0  0
  151.2299  146.3438  159.0054 H   0  0  0  0  0  0  0  0  0  0  0  0
  149.9093  145.1183  159.0832 H   0  0  0  0  0  0  0  0  0  0  0  0
  152.5571  145.1099  160.6658 H   0  0  0  0  0  0  0  0  0  0  0  0
  150.9471  144.4905  161.2059 H   0  0  0  0  0  0  0  0  0  0  0  0
  150.9888  142.7057  159.5346 H   0  0  0  0  0  0  0  0  0  0  0  0
  152.7791  142.8783  159.6589 H   0  0  0  0  0  0  0  0  0  0  0  0
  1  2  1  0  0  0  0
  1 18  1  0  0  0  0
  1 19  1  0  0  0  0
  1 20  1  0  0  0  0
  2 16  1  0  0  0  0
  2  3  1  0  0  0  0
  3  4  2  0  0  0  0
  3 21  1  0  0  0  0
  4  5  1  0  0  0  0
  4 22  1  0  0  0  0
  5  6  2  0  0  0  0
  6  7  1  0  0  0  0
  6 16  1  0  0  0  0
  7  8  1  0  0  0  0
  7 23  1  0  0  0  0
  8  9  2  0  0  0  0
  8 10  1  0  0  0  0
 10 11  1  0  0  0  0
 10 24  1  0  0  0  0
 11 15  1  0  0  0  0
 11 12  1  0  0  0  0
 11 13  1  0  0  0  0
 12 25  1  0  0  0  0
 12 26  1  0  0  0  0
 12 27  1  0  0  0  0
 13 14  1  0  0  0  0
 13 28  1  0  0  0  0
 13 29  1  0  0  0  0
 14 15  1  0  0  0  0
 14 30  1  0  0  0  0
 14 31  1  0  0  0  0
 15 32  1  0  0  0  0
 15 33  1  0  0  0  0
 16 17  2  0  0  0  0
M  END
> <s_m_source_file>
AV-unprocessed.smi

> <i_m_source_file_index>
2266

> <i_lp_mmshare_version>
43012

> <i_f3d_flags>
0

> <s_epik_input>
W0NIM11uMVtjSF1bY0hdbmMoYzE9TylbTkhdQyg9TylbTkhdQzIoW0NIM10pW0NIMl1bQ0gyXVtDSDJdMg==

> <s_epik_cmdline>
J2VwaWtfcHl0aG9uJywgJy1waCcsICc3LjAnLCAnLXRuJywgJzgnLCAnLW1hJywgJzIwMCcsICctbWV0YWxfYmluZGluZycsICctaW1hZScsICc8aW5maWxlLm1hZT4nLCAnLW9tYWUnLCAnPG91dGZpbGUubWFlPic=

> <r_lp_tautomer_probability>
1

> <r_epik_Ionization_Penalty>
0.000856168

> <r_epik_Ionization_Penalty_Charging>
1.7225e-07

> <r_epik_Ionization_Penalty_Neutral>
0.000855996

> <r_epik_State_Penalty>
-0

> <r_epik_Charging_Adjusted_Penalty>
1.7225e-07

> <i_epik_Tot_Q>
0

> <i_epik_Tot_abs_Q>
0

> <r_epik_Metal_State_Penalty>
-0

> <b_epik_Metal_Only>
0

> <s_lp_Force_Field>
OPLS_2005

> <r_lp_Energy>
29.342

> <b_lp_Chiralities_Consistent>
1

> <s_lp_Variant>
AV-unprocessed.smi:2266-1

> <Gold.Version>
5.8.1

> <Gold.Id.Protein>
6NUR|6NUR_protein|mol2

> <Gold.PLP.Fitness>
46.2337

> <Gold.PLP.PLP>
-35.5356

> <Gold.PLP.part.hbond>
-3.0000

> <Gold.PLP.part.metal>
0.0000

> <Gold.PLP.part.buried>
-5.0851

> <Gold.PLP.part.nonpolar>
-28.6064

> <Gold.PLP.part.repulsive>
0.3323

> <Gold.PLP.ligand.clash>
0.0000

> <Gold.PLP.ligand.torsion>
0.7246

> <Gold.PLP.Chemscore.Hbond>
2.9500

> <Gold.PLP.Chemscore.CHOScore>
1.0000

> <Gold.PLP.Chemscore.Metal>
0.0000

> <Gold.Chemscore.Hbonds>
donor molecule, donor type, donor heavy atom, donor atom, acceptor molecule, acceptor atom, score
      L1  H     7    23       P1  8028  1.00
      L1  H    10    24       P1  8028  1.00
      P1  H  7989  7998       L1     5  0.90
      L1  C     3    21       P1  7948  1.00

> <Gold.PLP.Chemscore.Internal.Correction>
0.2972

> <Gold.Rescore>
     Score         DG    S(hbond)    S(metal)    S(lipo)     H(rot)  DE(clash)    DE(int)     intcor
     17.11     -19.55       2.15        0.00      80.66       1.00       0.11       2.33       ----

> <Gold.Chemscore.Fitness>
17.1092

> <Gold.Chemscore.DG>
-19.5490

> <Gold.Chemscore.ZeroCoef>
-5.4800

> <Gold.Chemscore.Hbond>
2.1532

> <Gold.Chemscore.Metal>
0.0000

> <Gold.Chemscore.Lipo>
80.6608

> <Gold.Chemscore.Internal_Hbond>
0.0000

> <Gold.Chemscore.DEClash>
0.1087

> <Gold.Chemscore.DEInternal>
2.3311

> <Gold.Chemscore.Rot>
1.0000

> <Gold.Chemscore.Internal.Correction>
   9.000000E+99

> <Gold.Chemscore.Hbonds>
donor molecule, donor type, donor heavy atom, donor atom, acceptor molecule, acceptor atom, score
      L1  H     7    23       P1  8028  0.97
      L1  H    10    24       P1  8028  0.95
      P1  H  7989  7998       L1     5  0.05

> <Gold.Chemscore.Hbond.Weighted>
-7.1917

> <Gold.Chemscore.Metal.Weighted>
-0.0000

> <Gold.Chemscore.Lipo.Weighted>
-9.4373

> <Gold.Chemscore.Internal_Hbond.Weighted>
0.0000

> <Gold.Chemscore.DEClash.Weighted>
0.1087

> <Gold.Chemscore.DEInternal.Weighted>
2.3311

> <Gold.Chemscore.Rot.Weighted>
2.5600

> <Gold.Chemscore.Internal.Correction.Weighted>
   9.000000E+99

> <Gold.Protein.RotatedTorsions>
[ 6907 6896 6895 6894 ] final  144.04 input  -60.11 | X-H torsion
[ 7974 7965 7964 7962 ] final  148.53 input  175.53 | X-H torsion
[ 8008 7997 7996 7995 ] final  -11.76 input   59.86 | X-H torsion
[ 10167 10162 10161 10158 ] final   27.94 input  -65.29 | X-H torsion
[ 10718 10713 10712 10709 ] final   16.37 input   66.30 | X-H torsion
[ 10763 10752 10751 10750 ] final   18.45 input  -60.55 | X-H torsion
[ 11005 11000 10999 10996 ] final  -83.29 input  -57.11 | X-H torsion

> <Gold.Protein.ActiveResidues>
 VAL166  LYS551  ARG553  GLY616  TRP617  ASP618  TYR619  PRO620  LYS621  CYS622 
 ASP623  PHE694  ASN695  SER759  ASP760  ASP761  ALA762  ILE779  LEU786  VAL792 
 PHE793  MET794  SER795  GLU796  ALA797  LYS798  CYS799  TRP800  GLU811  SER814 

> <Gold.Protein.RotatedAtoms>
  152.1987  133.4825  159.5046 H   0  0  0  0  0  0  0  0  0  0  0  0  # atno 6907 bound_to 6896
  150.6965  134.1619  159.4188 H   0  0  0  0  0  0  0  0  0  0  0  0  # atno 6908 bound_to 6896
  151.9535  135.0157  160.0594 H   0  0  0  0  0  0  0  0  0  0  0  0  # atno 6909 bound_to 6896
  144.8506  139.6166  143.5975 H   0  0  0  0  0  0  0  0  0  0  0  0  # atno 7974 bound_to 7965
  154.5436  140.2294  155.8600 H   0  0  0  0  0  0  0  0  0  0  0  0  # atno 8008 bound_to 7997
  156.1882  140.3084  155.9241 H   0  0  0  0  0  0  0  0  0  0  0  0  # atno 8009 bound_to 7997
  155.3209  140.0440  157.3030 H   0  0  0  0  0  0  0  0  0  0  0  0  # atno 8010 bound_to 7997
  140.4896  144.0488  150.6292 H   0  0  0  0  0  0  0  0  0  0  0  0  # atno 10167 bound_to 10162
  157.0668  130.6332  149.5797 H   0  0  0  0  0  0  0  0  0  0  0  0  # atno 10718 bound_to 10713
  153.1248  135.6727  153.9276 H   0  0  0  0  0  0  0  0  0  0  0  0  # atno 10763 bound_to 10752
  153.8780  135.3061  155.3445 H   0  0  0  0  0  0  0  0  0  0  0  0  # atno 10764 bound_to 10752
  154.7654  135.4966  153.9625 H   0  0  0  0  0  0  0  0  0  0  0  0  # atno 10765 bound_to 10752
  141.1658  133.7287  156.8697 H   0  0  0  0  0  0  0  0  0  0  0  0  # atno 11005 bound_to 11000
  146.2782  139.6807  142.9248 LP  0  0  0  0  0  0  0  0  0  0  0  0  # atno 17320 bound_to 7965
  145.4507  141.0428  143.2806 LP  0  0  0  0  0  0  0  0  0  0  0  0  # atno 17321 bound_to 7965
  140.3753  143.2832  152.0231 LP  0  0  0  0  0  0  0  0  0  0  0  0  # atno 17342 bound_to 10162
  139.4848  144.6197  151.7278 LP  0  0  0  0  0  0  0  0  0  0  0  0  # atno 17343 bound_to 10162
  155.9962  130.5030  150.7488 LP  0  0  0  0  0  0  0  0  0  0  0  0  # atno 17370 bound_to 10713
  157.4910  131.0911  151.0427 LP  0  0  0  0  0  0  0  0  0  0  0  0  # atno 17371 bound_to 10713
  140.1790  134.9047  157.2925 LP  0  0  0  0  0  0  0  0  0  0  0  0  # atno 17394 bound_to 11000
  140.2416  134.3788  155.7478 LP  0  0  0  0  0  0  0  0  0  0  0  0  # atno 17395 bound_to 11000

$$$$
