AV-unprocessed.smi:429|AV-procd|sdf|2545|dock1
  -GOLD-   2262022503D 1   1.00000     0.00000
 Structure written by MMmdl.
 43 44  0  0  0  0  0  0  0  0  1 V2000
  152.0339  145.0028  159.0367 C   0  0  0  0  0  0  0  0  0  0  0  0
  152.2983  143.5319  158.6976 C   0  0  0  0  0  0  0  0  0  0  0  0
  151.2439  142.9469  157.7469 C   0  0  0  0  0  0  0  0  0  0  0  0
  151.5518  141.4910  157.3518 C   0  0  0  0  0  0  0  0  0  0  0  0
  150.6561  140.9724  156.2224 C   0  0  0  0  0  0  0  0  0  0  0  0
  151.1476  140.4472  155.2230 O   0  0  0  0  0  0  0  0  0  0  0  0
  149.3348  141.1352  156.3913 N   0  0  0  0  0  0  0  0  0  0  0  0
  148.3123  140.7143  155.4383 C   0  0  0  0  0  0  0  0  0  0  0  0
  147.0954  141.6269  155.3805 C   0  0  0  0  0  0  0  0  0  0  0  0
  146.7134  142.2902  154.1958 C   0  0  0  0  0  0  0  0  0  0  0  0
  145.5780  143.1223  154.2137 C   0  0  0  0  0  0  0  0  0  0  0  0
  144.8504  143.2736  155.4183 C   0  0  0  0  0  0  0  0  0  0  0  0
  143.7034  144.0967  155.4581 N   0  0  0  0  0  0  0  0  0  0  0  0
  142.4478  143.5002  155.9112 C   0  0  0  0  0  0  0  0  0  0  0  0
  141.3934  144.5917  156.1598 C   0  0  0  0  0  0  0  0  0  0  0  0
  141.2343  145.3808  154.9858 O   0  0  0  0  0  0  0  0  0  0  0  0
  142.4420  146.0430  154.6267 C   0  0  0  0  0  0  0  0  0  0  0  0
  143.5370  145.0050  154.3258 C   0  0  0  0  0  0  0  0  0  0  0  0
  145.2316  142.6466  156.5589 N   0  0  0  0  0  0  0  0  0  0  0  0
  146.3200  141.8491  156.5359 C   0  0  0  0  0  0  0  0  0  0  0  0
  152.7999  145.3902  159.7087 H   0  0  0  0  0  0  0  0  0  0  0  0
  151.0678  145.1262  159.5272 H   0  0  0  0  0  0  0  0  0  0  0  0
  152.0356  145.6207  158.1385 H   0  0  0  0  0  0  0  0  0  0  0  0
  153.2874  143.4403  158.2475 H   0  0  0  0  0  0  0  0  0  0  0  0
  152.3230  142.9499  159.6195 H   0  0  0  0  0  0  0  0  0  0  0  0
  150.2644  143.0004  158.2247 H   0  0  0  0  0  0  0  0  0  0  0  0
  151.1852  143.5656  156.8502 H   0  0  0  0  0  0  0  0  0  0  0  0
  152.5963  141.4102  157.0457 H   0  0  0  0  0  0  0  0  0  0  0  0
  151.4274  140.8369  158.2154 H   0  0  0  0  0  0  0  0  0  0  0  0
  149.0146  141.5779  157.2405 H   0  0  0  0  0  0  0  0  0  0  0  0
  148.7543  140.6216  154.4446 H   0  0  0  0  0  0  0  0  0  0  0  0
  147.9762  139.7163  155.7199 H   0  0  0  0  0  0  0  0  0  0  0  0
  147.2789  142.1706  153.2836 H   0  0  0  0  0  0  0  0  0  0  0  0
  145.2898  143.6421  153.3123 H   0  0  0  0  0  0  0  0  0  0  0  0
  142.0878  142.7991  155.1569 H   0  0  0  0  0  0  0  0  0  0  0  0
  142.6071  142.9372  156.8315 H   0  0  0  0  0  0  0  0  0  0  0  0
  140.4360  144.1375  156.4148 H   0  0  0  0  0  0  0  0  0  0  0  0
  141.6795  145.2249  157.0013 H   0  0  0  0  0  0  0  0  0  0  0  0
  142.2596  146.6610  153.7475 H   0  0  0  0  0  0  0  0  0  0  0  0
  142.7533  146.7148  155.4283 H   0  0  0  0  0  0  0  0  0  0  0  0
  144.4616  145.5278  154.0861 H   0  0  0  0  0  0  0  0  0  0  0  0
  143.2655  144.4217  153.4449 H   0  0  0  0  0  0  0  0  0  0  0  0
  146.5771  141.3728  157.4705 H   0  0  0  0  0  0  0  0  0  0  0  0
  1  2  1  0  0  0  0
  1 21  1  0  0  0  0
  1 22  1  0  0  0  0
  1 23  1  0  0  0  0
  2  3  1  0  0  0  0
  2 24  1  0  0  0  0
  2 25  1  0  0  0  0
  3  4  1  0  0  0  0
  3 26  1  0  0  0  0
  3 27  1  0  0  0  0
  4  5  1  0  0  0  0
  4 28  1  0  0  0  0
  4 29  1  0  0  0  0
  5  6  2  0  0  0  0
  5  7  1  0  0  0  0
  7  8  1  0  0  0  0
  7 30  1  0  0  0  0
  8  9  1  0  0  0  0
  8 31  1  0  0  0  0
  8 32  1  0  0  0  0
  9 20  1  0  0  0  0
  9 10  2  0  0  0  0
 10 11  1  0  0  0  0
 10 33  1  0  0  0  0
 11 12  2  0  0  0  0
 11 34  1  0  0  0  0
 12 13  1  0  0  0  0
 12 19  1  0  0  0  0
 13 18  1  0  0  0  0
 13 14  1  0  0  0  0
 14 15  1  0  0  0  0
 14 35  1  0  0  0  0
 14 36  1  0  0  0  0
 15 16  1  0  0  0  0
 15 37  1  0  0  0  0
 15 38  1  0  0  0  0
 16 17  1  0  0  0  0
 17 18  1  0  0  0  0
 17 39  1  0  0  0  0
 17 40  1  0  0  0  0
 18 41  1  0  0  0  0
 18 42  1  0  0  0  0
 19 20  2  0  0  0  0
 20 43  1  0  0  0  0
M  END
> <s_m_source_file>
AV-unprocessed.smi

> <i_m_source_file_index>
429

> <i_lp_mmshare_version>
43012

> <i_f3d_flags>
0

> <s_epik_input>
W0NIM11bQ0gyXVtDSDJdW0NIMl1DKD1PKVtOSF1bQ0gyXWMxW2NIXVtjSF1jKG5bY0hdMSlOMltDSDJdW0NIMl1PW0NIMl1bQ0gyXTI=

> <s_epik_cmdline>
J2VwaWtfcHl0aG9uJywgJy1waCcsICc3LjAnLCAnLXRuJywgJzgnLCAnLW1hJywgJzIwMCcsICctbWV0YWxfYmluZGluZycsICctaW1hZScsICc8aW5maWxlLm1hZT4nLCAnLW9tYWUnLCAnPG91dGZpbGUubWFlPic=

> <r_lp_tautomer_probability>
1

> <r_epik_Ionization_Penalty>
0.00508978

> <r_epik_Ionization_Penalty_Charging>
0

> <r_epik_Ionization_Penalty_Neutral>
0.00508978

> <r_epik_State_Penalty>
0.0037045

> <r_epik_Charging_Adjusted_Penalty>
0.0037045

> <i_epik_Tot_Q>
0

> <i_epik_Tot_abs_Q>
0

> <r_epik_Metal_State_Penalty>
-0

> <b_epik_Metal_Only>
0

> <s_lp_Force_Field>
OPLS_2005

> <r_lp_Energy>
15.7693

> <b_lp_Chiralities_Consistent>
1

> <s_lp_Variant>
AV-unprocessed.smi:429-1

> <Gold.Version>
5.8.1

> <Gold.Id.Protein>
6NUR|6NUR_protein|mol2

> <Gold.PLP.Fitness>
41.5360

> <Gold.PLP.PLP>
-39.1423

> <Gold.PLP.part.hbond>
-1.0000

> <Gold.PLP.part.metal>
0.0000

> <Gold.PLP.part.buried>
-6.6120

> <Gold.PLP.part.nonpolar>
-32.0610

> <Gold.PLP.part.repulsive>
0.3278

> <Gold.PLP.ligand.clash>
0.0000

> <Gold.PLP.ligand.torsion>
0.4808

> <Gold.PLP.Chemscore.Hbond>
1.0000

> <Gold.PLP.Chemscore.CHOScore>
0.0000

> <Gold.PLP.Chemscore.Metal>
0.0000

> <Gold.Chemscore.Hbonds>
donor molecule, donor type, donor heavy atom, donor atom, acceptor molecule, acceptor atom, score
      P1  H  7989  7998       L1     6  0.98

> <Gold.PLP.Chemscore.Internal.Correction>
0.3552

> <Gold.Rescore>
     Score         DG    S(hbond)    S(metal)    S(lipo)     H(rot)  DE(clash)    DE(int)     intcor
     14.93     -15.56       0.98        0.00      96.99       1.77       0.11       0.51       ----

> <Gold.Chemscore.Fitness>
14.9345

> <Gold.Chemscore.DG>
-15.5587

> <Gold.Chemscore.ZeroCoef>
-5.4800

> <Gold.Chemscore.Hbond>
0.9755

> <Gold.Chemscore.Metal>
0.0000

> <Gold.Chemscore.Lipo>
96.9883

> <Gold.Chemscore.Internal_Hbond>
0.0000

> <Gold.Chemscore.DEClash>
0.1115

> <Gold.Chemscore.DEInternal>
0.5127

> <Gold.Chemscore.Rot>
1.7684

> <Gold.Chemscore.Internal.Correction>
   9.000000E+99

> <Gold.Chemscore.Hbonds>
donor molecule, donor type, donor heavy atom, donor atom, acceptor molecule, acceptor atom, score
      P1  H  7989  7998       L1     6  0.93

> <Gold.Chemscore.Hbond.Weighted>
-3.2581

> <Gold.Chemscore.Metal.Weighted>
-0.0000

> <Gold.Chemscore.Lipo.Weighted>
-11.3476

> <Gold.Chemscore.Internal_Hbond.Weighted>
0.0000

> <Gold.Chemscore.DEClash.Weighted>
0.1115

> <Gold.Chemscore.DEInternal.Weighted>
0.5127

> <Gold.Chemscore.Rot.Weighted>
4.5271

> <Gold.Chemscore.Internal.Correction.Weighted>
   9.000000E+99

> <Gold.Protein.RotatedTorsions>
[ 6907 6896 6895 6894 ] final  132.00 input  -60.11 | X-H torsion
[ 7974 7965 7964 7962 ] final  -74.18 input  175.53 | X-H torsion
[ 8008 7997 7996 7995 ] final   16.00 input   59.86 | X-H torsion
[ 10167 10162 10161 10158 ] final  173.66 input  -65.29 | X-H torsion
[ 10718 10713 10712 10709 ] final  -28.44 input   66.30 | X-H torsion
[ 10763 10752 10751 10750 ] final  -15.96 input  -60.55 | X-H torsion
[ 11005 11000 10999 10996 ] final -141.92 input  -57.11 | X-H torsion

> <Gold.Protein.ActiveResidues>
 VAL166  LYS551  ARG553  GLY616  TRP617  ASP618  TYR619  PRO620  LYS621  CYS622 
 ASP623  PHE694  ASN695  SER759  ASP760  ASP761  ALA762  ILE779  LEU786  VAL792 
 PHE793  MET794  SER795  GLU796  ALA797  LYS798  CYS799  TRP800  GLU811  SER814 

> <Gold.Protein.RotatedAtoms>
  152.3369  133.6022  159.5848 H   0  0  0  0  0  0  0  0  0  0  0  0  # atno 6907 bound_to 6896
  150.7455  133.9782  159.3576 H   0  0  0  0  0  0  0  0  0  0  0  0  # atno 6908 bound_to 6896
  151.7651  135.0801  160.0402 H   0  0  0  0  0  0  0  0  0  0  0  0  # atno 6909 bound_to 6896
  145.6424  140.9307  143.1028 H   0  0  0  0  0  0  0  0  0  0  0  0  # atno 7974 bound_to 7965
  154.8707  140.2958  155.5483 H   0  0  0  0  0  0  0  0  0  0  0  0  # atno 8008 bound_to 7997
  156.3021  140.2461  156.3628 H   0  0  0  0  0  0  0  0  0  0  0  0  # atno 8009 bound_to 7997
  154.8820  140.0397  157.1777 H   0  0  0  0  0  0  0  0  0  0  0  0  # atno 8010 bound_to 7997
  139.5115  144.3236  152.0179 H   0  0  0  0  0  0  0  0  0  0  0  0  # atno 10167 bound_to 10162
  156.4252  130.4434  149.7155 H   0  0  0  0  0  0  0  0  0  0  0  0  # atno 10718 bound_to 10713
  153.5513  135.7011  153.5590 H   0  0  0  0  0  0  0  0  0  0  0  0  # atno 10763 bound_to 10752
  153.3513  135.3994  155.1648 H   0  0  0  0  0  0  0  0  0  0  0  0  # atno 10764 bound_to 10752
  154.8661  135.3766  154.5024 H   0  0  0  0  0  0  0  0  0  0  0  0  # atno 10765 bound_to 10752
  140.8277  134.2555  157.4871 H   0  0  0  0  0  0  0  0  0  0  0  0  # atno 11005 bound_to 11000
  144.7152  139.8222  143.7401 LP  0  0  0  0  0  0  0  0  0  0  0  0  # atno 17320 bound_to 7965
  146.1270  139.4298  143.0193 LP  0  0  0  0  0  0  0  0  0  0  0  0  # atno 17321 bound_to 7965
  140.2677  144.3998  150.6162 LP  0  0  0  0  0  0  0  0  0  0  0  0  # atno 17342 bound_to 10162
  140.6111  143.2169  151.6884 LP  0  0  0  0  0  0  0  0  0  0  0  0  # atno 17343 bound_to 10162
  156.4080  130.7708  151.2719 LP  0  0  0  0  0  0  0  0  0  0  0  0  # atno 17370 bound_to 10713
  157.7508  131.0220  150.3773 LP  0  0  0  0  0  0  0  0  0  0  0  0  # atno 17371 bound_to 10713
  139.8706  134.9569  156.4252 LP  0  0  0  0  0  0  0  0  0  0  0  0  # atno 17394 bound_to 11000
  140.9032  133.7765  155.9704 LP  0  0  0  0  0  0  0  0  0  0  0  0  # atno 17395 bound_to 11000

$$$$
