AV-unprocessed.smi:1512|AV-procd|sdf|6101|dock6
  -GOLD-   22720 6233D 1   1.00000     0.00000
 Structure written by MMmdl.
 44 46  0  0  0  0  0  0  0  0  3 V2000
  150.7591  141.0708  156.6289 C   0  0  0  0  0  0  0  0  0  0  0  0
  150.6700  142.4243  157.3536 C   0  0  1  0  0  0  0  0  0  0  0  0
  149.2694  142.8428  157.3773 N   0  0  0  0  0  0  0  0  0  0  0  0
  148.2863  142.2681  158.0869 C   0  0  0  0  0  0  0  0  0  0  0  0
  148.4661  141.3348  158.8699 O   0  0  0  0  0  0  0  0  0  0  0  0
  146.8802  142.8460  157.8794 C   0  0  0  0  0  0  0  0  0  0  0  0
  146.2175  143.1872  159.1497 N   0  0  0  0  0  0  0  0  0  0  0  0
  146.8066  144.2031  159.9253 C   0  0  0  0  0  0  0  0  0  0  0  0
  146.2919  144.5837  161.1032 C   0  0  0  0  0  0  0  0  0  0  0  0
  145.0979  143.9237  161.5720 C   0  0  0  0  0  0  0  0  0  0  0  0
  144.5134  142.9443  160.8441 C   0  0  0  0  0  0  0  0  0  0  0  0
  143.3176  142.3269  161.3707 N   0  3  0  0  0  0  0  0  0  0  0  0
  142.7965  141.4111  160.7417 O   0  0  0  0  0  0  0  0  0  0  0  0
  142.8556  142.7510  162.4260 O   0  5  0  0  0  0  0  0  0  0  0  0
  145.0882  142.5226  159.5497 C   0  0  0  0  0  0  0  0  0  0  0  0
  144.6005  141.6227  158.8626 O   0  0  0  0  0  0  0  0  0  0  0  0
  151.2158  142.3721  158.8027 C   0  0  2  0  0  0  0  0  0  0  0  0
  150.8433  143.6101  159.6596 C   0  0  0  0  0  0  0  0  0  0  0  0
  152.2005  144.0892  160.2020 C   0  0  1  0  0  0  0  0  0  0  0  0
  152.7411  143.0690  161.2202 C   0  0  0  0  0  0  0  0  0  0  0  0
  153.1578  141.8872  160.3253 C   0  0  0  0  0  0  0  0  0  0  0  0
  152.7615  142.3704  158.9167 C   0  0  2  0  0  0  0  0  0  0  0  0
  153.1054  143.8545  159.0008 C   0  0  0  0  0  0  0  0  0  0  0  0
  151.7904  140.7412  156.5091 H   0  0  0  0  0  0  0  0  0  0  0  0
  150.3276  141.1349  155.6293 H   0  0  0  0  0  0  0  0  0  0  0  0
  150.2214  140.2930  157.1724 H   0  0  0  0  0  0  0  0  0  0  0  0
  151.2640  143.1444  156.7887 H   0  0  0  0  0  0  0  0  0  0  0  0
  149.0201  143.6088  156.7685 H   0  0  0  0  0  0  0  0  0  0  0  0
  146.9667  143.7223  157.2357 H   0  0  0  0  0  0  0  0  0  0  0  0
  146.2643  142.1397  157.3189 H   0  0  0  0  0  0  0  0  0  0  0  0
  147.7016  144.6424  159.5090 H   0  0  0  0  0  0  0  0  0  0  0  0
  146.7607  145.3619  161.6875 H   0  0  0  0  0  0  0  0  0  0  0  0
  144.6712  144.2311  162.5156 H   0  0  0  0  0  0  0  0  0  0  0  0
  150.8165  141.4739  159.2768 H   0  0  0  0  0  0  0  0  0  0  0  0
  150.3950  144.3995  159.0550 H   0  0  0  0  0  0  0  0  0  0  0  0
  150.1385  143.3677  160.4556 H   0  0  0  0  0  0  0  0  0  0  0  0
  152.1843  145.1138  160.5746 H   0  0  0  0  0  0  0  0  0  0  0  0
  153.6044  143.4694  161.7536 H   0  0  0  0  0  0  0  0  0  0  0  0
  151.9903  142.7873  161.9591 H   0  0  0  0  0  0  0  0  0  0  0  0
  154.2343  141.7223  160.3880 H   0  0  0  0  0  0  0  0  0  0  0  0
  152.6630  140.9562  160.6040 H   0  0  0  0  0  0  0  0  0  0  0  0
  153.2785  141.8290  158.1257 H   0  0  0  0  0  0  0  0  0  0  0  0
  152.8100  144.4234  158.1176 H   0  0  0  0  0  0  0  0  0  0  0  0
  154.1598  144.0440  159.2108 H   0  0  0  0  0  0  0  0  0  0  0  0
  1  2  1  0  0  0  0
  1 24  1  0  0  0  0
  1 25  1  0  0  0  0
  1 26  1  0  0  0  0
  2  3  1  0  0  0  0
  2 17  1  0  0  0  0
  2 27  1  0  0  0  0
  3  4  1  0  0  0  0
  3 28  1  0  0  0  0
  4  5  2  0  0  0  0
  4  6  1  0  0  0  0
  6  7  1  0  0  0  0
  6 29  1  0  0  0  0
  6 30  1  0  0  0  0
  7 15  1  0  0  0  0
  7  8  1  0  0  0  0
  8  9  2  0  0  0  0
  8 31  1  0  0  0  0
  9 10  1  0  0  0  0
  9 32  1  0  0  0  0
 10 11  2  0  0  0  0
 10 33  1  0  0  0  0
 11 12  1  0  0  0  0
 11 15  1  0  0  0  0
 12 13  2  0  0  0  0
 12 14  1  0  0  0  0
 15 16  2  0  0  0  0
 17 22  1  0  0  0  0
 17 18  1  0  0  0  0
 17 34  1  0  0  0  0
 18 19  1  0  0  0  0
 18 35  1  0  0  0  0
 18 36  1  0  0  0  0
 19 23  1  0  0  0  0
 19 20  1  0  0  0  0
 19 37  1  0  0  0  0
 20 21  1  0  0  0  0
 20 38  1  0  0  0  0
 20 39  1  0  0  0  0
 21 22  1  0  0  0  0
 21 40  1  0  0  0  0
 21 41  1  0  0  0  0
 22 23  1  0  0  0  0
 22 42  1  0  0  0  0
 23 43  1  0  0  0  0
 23 44  1  0  0  0  0
M  CHG  1  12   1
M  CHG  1  14  -1
M  END
> <s_m_source_file>
AV-unprocessed.smi

> <i_m_source_file_index>
1512

> <i_lp_mmshare_version>
43012

> <i_f3d_flags>
0

> <s_epik_input>
W0NIMl0xW0NIMl1bQ0BIXShbQ0gyXTIpW0NAQEhdKFtDSDJdW0NAQEhdMTIpW0NASF0oW0NIM10pW05IXUMoPU8pW0NIMl1uM1tjSF1bY0hdW2NIXWMoW04rXSg9TylbTy1dKWMzPU8=

> <s_epik_cmdline>
J2VwaWtfcHl0aG9uJywgJy1waCcsICc3LjAnLCAnLXRuJywgJzgnLCAnLW1hJywgJzIwMCcsICctbWV0YWxfYmluZGluZycsICctaW1hZScsICc8aW5maWxlLm1hZT4nLCAnLW9tYWUnLCAnPG91dGZpbGUubWFlPic=

> <r_lp_tautomer_probability>
1

> <r_epik_Ionization_Penalty>
2.17697e-08

> <r_epik_Ionization_Penalty_Charging>
1.42735e-10

> <r_epik_Ionization_Penalty_Neutral>
2.16269e-08

> <r_epik_State_Penalty>
-0

> <r_epik_Charging_Adjusted_Penalty>
1.42735e-10

> <i_epik_Tot_Q>
0

> <i_epik_Tot_abs_Q>
2

> <r_epik_Metal_State_Penalty>
-0

> <b_epik_Metal_Only>
0

> <s_lp_Force_Field>
OPLS_2005

> <r_lp_Energy>
64.6124

> <b_lp_Chiralities_Consistent>
1

> <s_lp_Variant>
AV-unprocessed.smi:1512-2

> <Gold.Version>
5.8.1

> <Gold.Id.Protein>
6NUR|6NUR_protein|mol2

> <Gold.PLP.Fitness>
47.6891

> <Gold.PLP.PLP>
-42.6723

> <Gold.PLP.part.hbond>
-5.0000

> <Gold.PLP.part.metal>
0.0000

> <Gold.PLP.part.buried>
-3.2220

> <Gold.PLP.part.nonpolar>
-34.0219

> <Gold.PLP.part.repulsive>
0.0782

> <Gold.PLP.ligand.clash>
0.0000

> <Gold.PLP.ligand.torsion>
0.3930

> <Gold.PLP.Chemscore.Hbond>
1.0000

> <Gold.PLP.Chemscore.CHOScore>
0.9154

> <Gold.PLP.Chemscore.Metal>
0.0000

> <Gold.Chemscore.Hbonds>
donor molecule, donor type, donor heavy atom, donor atom, acceptor molecule, acceptor atom, score
      L1  H     3    28       P1  8028  1.00
      L1  C     8    31       P1  8029  0.79

> <Gold.PLP.Chemscore.Internal.Correction>
0.0565

> <Gold.Rescore>
     Score         DG    S(hbond)    S(metal)    S(lipo)     H(rot)  DE(clash)    DE(int)     intcor
     12.99     -17.15       0.96        0.00     110.51       1.75       0.92       3.24       ----

> <Gold.Chemscore.Fitness>
12.9899

> <Gold.Chemscore.DG>
-17.1547

> <Gold.Chemscore.ZeroCoef>
-5.4800

> <Gold.Chemscore.Hbond>
0.9635

> <Gold.Chemscore.Metal>
0.0000

> <Gold.Chemscore.Lipo>
110.5130

> <Gold.Chemscore.Internal_Hbond>
0.0000

> <Gold.Chemscore.DEClash>
0.9243

> <Gold.Chemscore.DEInternal>
3.2405

> <Gold.Chemscore.Rot>
1.7474

> <Gold.Chemscore.Internal.Correction>
   9.000000E+99

> <Gold.Chemscore.Hbonds>
donor molecule, donor type, donor heavy atom, donor atom, acceptor molecule, acceptor atom, score
      L1  H     3    28       P1  8028  0.76

> <Gold.Chemscore.Hbond.Weighted>
-3.2180

> <Gold.Chemscore.Metal.Weighted>
-0.0000

> <Gold.Chemscore.Lipo.Weighted>
-12.9300

> <Gold.Chemscore.Internal_Hbond.Weighted>
0.0000

> <Gold.Chemscore.DEClash.Weighted>
0.9243

> <Gold.Chemscore.DEInternal.Weighted>
3.2405

> <Gold.Chemscore.Rot.Weighted>
4.4733

> <Gold.Chemscore.Internal.Correction.Weighted>
   9.000000E+99

> <Gold.Protein.RotatedTorsions>
[ 6907 6896 6895 6894 ] final  -56.96 input  -60.11 | X-H torsion
[ 7974 7965 7964 7962 ] final  -50.07 input  175.53 | X-H torsion
[ 8008 7997 7996 7995 ] final -167.29 input   59.86 | X-H torsion
[ 10167 10162 10161 10158 ] final  111.90 input  -65.29 | X-H torsion
[ 10718 10713 10712 10709 ] final  -87.32 input   66.30 | X-H torsion
[ 10763 10752 10751 10750 ] final  132.34 input  -60.55 | X-H torsion
[ 11005 11000 10999 10996 ] final  135.26 input  -57.11 | X-H torsion

> <Gold.Protein.ActiveResidues>
 VAL166  LYS551  ARG553  GLY616  TRP617  ASP618  TYR619  PRO620  LYS621  CYS622 
 ASP623  PHE694  ASN695  SER759  ASP760  ASP761  ALA762  ILE779  LEU786  VAL792 
 PHE793  MET794  SER795  GLU796  ALA797  LYS798  CYS799  TRP800  GLU811  SER814 

> <Gold.Protein.RotatedAtoms>
  150.8125  134.7287  159.6700 H   0  0  0  0  0  0  0  0  0  0  0  0  # atno 6907 bound_to 6896
  152.4244  134.5892  159.9979 H   0  0  0  0  0  0  0  0  0  0  0  0  # atno 6908 bound_to 6896
  151.6098  133.3311  159.3101 H   0  0  0  0  0  0  0  0  0  0  0  0  # atno 6909 bound_to 6896
  145.9338  140.7725  142.9586 H   0  0  0  0  0  0  0  0  0  0  0  0  # atno 7974 bound_to 7965
  155.8757  140.1000  157.1520 H   0  0  0  0  0  0  0  0  0  0  0  0  # atno 8008 bound_to 7997
  154.4000  140.1338  156.4196 H   0  0  0  0  0  0  0  0  0  0  0  0  # atno 8009 bound_to 7997
  155.7700  140.3461  155.5244 H   0  0  0  0  0  0  0  0  0  0  0  0  # atno 8010 bound_to 7997
  139.6576  144.7129  151.1926 H   0  0  0  0  0  0  0  0  0  0  0  0  # atno 10167 bound_to 10162
  155.9986  130.4796  150.4849 H   0  0  0  0  0  0  0  0  0  0  0  0  # atno 10718 bound_to 10713
  153.7891  135.3157  155.3376 H   0  0  0  0  0  0  0  0  0  0  0  0  # atno 10763 bound_to 10752
  154.8133  135.4653  154.0577 H   0  0  0  0  0  0  0  0  0  0  0  0  # atno 10764 bound_to 10752
  153.1889  135.6905  153.8465 H   0  0  0  0  0  0  0  0  0  0  0  0  # atno 10765 bound_to 10752
  139.9968  134.9494  156.9982 H   0  0  0  0  0  0  0  0  0  0  0  0  # atno 11005 bound_to 11000
  144.6768  140.2169  143.7371 LP  0  0  0  0  0  0  0  0  0  0  0  0  # atno 17320 bound_to 7965
  145.8391  139.2121  143.1838 LP  0  0  0  0  0  0  0  0  0  0  0  0  # atno 17321 bound_to 7965
  140.7566  143.6046  150.8665 LP  0  0  0  0  0  0  0  0  0  0  0  0  # atno 17342 bound_to 10162
  139.9701  143.6067  152.2976 LP  0  0  0  0  0  0  0  0  0  0  0  0  # atno 17343 bound_to 10162
  157.2851  131.0615  151.2172 LP  0  0  0  0  0  0  0  0  0  0  0  0  # atno 17370 bound_to 10713
  157.3204  130.6934  149.6266 LP  0  0  0  0  0  0  0  0  0  0  0  0  # atno 17371 bound_to 10713
  140.4803  134.1296  155.7216 LP  0  0  0  0  0  0  0  0  0  0  0  0  # atno 17394 bound_to 11000
  141.1610  133.8792  157.1846 LP  0  0  0  0  0  0  0  0  0  0  0  0  # atno 17395 bound_to 11000

$$$$
