AV-unprocessed.smi:579|AV-procd|sdf|2987|dock10
  -GOLD-   2262023493D 1   1.00000     0.00000
 Structure written by MMmdl.
 26 27  0  0  0  0  0  0  0  0  1 V2000
  149.1101  138.8406  153.2846 N   0  0  0  0  0  0  0  0  0  0  0  0
  149.7908  139.5304  154.2867 C   0  0  0  0  0  0  0  0  0  0  0  0
  150.9809  139.0148  154.8365 C   0  0  0  0  0  0  0  0  0  0  0  0
  151.6339  139.7471  155.8465 C   0  0  0  0  0  0  0  0  0  0  0  0
  151.0711  140.9695  156.2703 C   0  0  0  0  0  0  0  0  0  0  0  0
  151.7190  141.7031  157.2741 N   0  0  0  0  0  0  0  0  0  0  0  0
  151.2077  143.0602  157.4204 C   0  0  0  0  0  0  0  0  0  0  0  0
  152.0521  143.8324  158.4489 C   0  0  0  0  0  0  0  0  0  0  0  0
  152.0684  143.1221  159.6841 O   0  0  0  0  0  0  0  0  0  0  0  0
  152.6363  141.8223  159.5472 C   0  0  0  0  0  0  0  0  0  0  0  0
  151.8056  140.9994  158.5477 C   0  0  0  0  0  0  0  0  0  0  0  0
  149.9263  141.4681  155.7438 N   0  0  0  0  0  0  0  0  0  0  0  0
  149.3059  140.7607  154.7754 C   0  0  0  0  0  0  0  0  0  0  0  0
  148.2562  139.2005  152.8830 H   0  0  0  0  0  0  0  0  0  0  0  0
  149.4529  137.9625  152.9215 H   0  0  0  0  0  0  0  0  0  0  0  0
  151.3894  138.0757  154.4929 H   0  0  0  0  0  0  0  0  0  0  0  0
  152.5484  139.3762  156.2860 H   0  0  0  0  0  0  0  0  0  0  0  0
  151.2314  143.5705  156.4568 H   0  0  0  0  0  0  0  0  0  0  0  0
  150.1666  143.0300  157.7452 H   0  0  0  0  0  0  0  0  0  0  0  0
  153.0713  143.9757  158.0861 H   0  0  0  0  0  0  0  0  0  0  0  0
  151.6299  144.8236  158.6142 H   0  0  0  0  0  0  0  0  0  0  0  0
  153.6742  141.9001  159.2193 H   0  0  0  0  0  0  0  0  0  0  0  0
  152.6454  141.3337  160.5215 H   0  0  0  0  0  0  0  0  0  0  0  0
  150.8045  140.8336  158.9482 H   0  0  0  0  0  0  0  0  0  0  0  0
  152.2610  140.0195  158.3984 H   0  0  0  0  0  0  0  0  0  0  0  0
  148.3971  141.1915  154.3812 H   0  0  0  0  0  0  0  0  0  0  0  0
  1  2  1  0  0  0  0
  1 14  1  0  0  0  0
  1 15  1  0  0  0  0
  2 13  1  0  0  0  0
  2  3  2  0  0  0  0
  3  4  1  0  0  0  0
  3 16  1  0  0  0  0
  4  5  2  0  0  0  0
  4 17  1  0  0  0  0
  5  6  1  0  0  0  0
  5 12  1  0  0  0  0
  6 11  1  0  0  0  0
  6  7  1  0  0  0  0
  7  8  1  0  0  0  0
  7 18  1  0  0  0  0
  7 19  1  0  0  0  0
  8  9  1  0  0  0  0
  8 20  1  0  0  0  0
  8 21  1  0  0  0  0
  9 10  1  0  0  0  0
 10 11  1  0  0  0  0
 10 22  1  0  0  0  0
 10 23  1  0  0  0  0
 11 24  1  0  0  0  0
 11 25  1  0  0  0  0
 12 13  2  0  0  0  0
 13 26  1  0  0  0  0
M  END
> <s_m_source_file>
AV-unprocessed.smi

> <i_m_source_file_index>
579

> <i_lp_mmshare_version>
43012

> <i_f3d_flags>
0

> <s_epik_input>
W05IMl1jMVtjSF1bY0hdYyhuW2NIXTEpTjJbQ0gyXVtDSDJdT1tDSDJdW0NIMl0y

> <s_epik_cmdline>
J2VwaWtfcHl0aG9uJywgJy1waCcsICc3LjAnLCAnLXRuJywgJzgnLCAnLW1hJywgJzIwMCcsICctbWV0YWxfYmluZGluZycsICctaW1hZScsICc8aW5maWxlLm1hZT4nLCAnLW9tYWUnLCAnPG91dGZpbGUubWFlPic=

> <r_lp_tautomer_probability>
1

> <r_epik_Ionization_Penalty>
0.00957298

> <r_epik_Ionization_Penalty_Charging>
0

> <r_epik_Ionization_Penalty_Neutral>
0.00957298

> <r_epik_State_Penalty>
0.00726246

> <r_epik_Charging_Adjusted_Penalty>
0.00726246

> <i_epik_Tot_Q>
0

> <i_epik_Tot_abs_Q>
0

> <r_epik_Metal_State_Penalty>
7.30711e-06

> <b_epik_Metal_Only>
0

> <s_lp_Force_Field>
OPLS_2005

> <r_lp_Energy>
21.013

> <b_lp_Chiralities_Consistent>
1

> <s_lp_Variant>
AV-unprocessed.smi:579-1

> <Gold.Version>
5.8.1

> <Gold.Id.Protein>
6NUR|6NUR_protein|mol2

> <Gold.PLP.Fitness>
30.7893

> <Gold.PLP.PLP>
-28.0825

> <Gold.PLP.part.hbond>
-2.0000

> <Gold.PLP.part.metal>
0.0000

> <Gold.PLP.part.buried>
-3.0549

> <Gold.PLP.part.nonpolar>
-23.9816

> <Gold.PLP.part.repulsive>
0.2085

> <Gold.PLP.ligand.clash>
0.0000

> <Gold.PLP.ligand.torsion>
0.1377

> <Gold.PLP.Chemscore.Hbond>
0.9600

> <Gold.PLP.Chemscore.CHOScore>
0.0000

> <Gold.PLP.Chemscore.Metal>
0.0000

> <Gold.Chemscore.Hbonds>
donor molecule, donor type, donor heavy atom, donor atom, acceptor molecule, acceptor atom, score
      L1  H     1    15       P1  7948  0.87

> <Gold.PLP.Chemscore.Internal.Correction>
0.1023

> <Gold.Rescore>
     Score         DG    S(hbond)    S(metal)    S(lipo)     H(rot)  DE(clash)    DE(int)     intcor
     13.75     -14.12       0.99        0.00      67.45       1.00       0.19       0.19       ----

> <Gold.Chemscore.Fitness>
13.7488

> <Gold.Chemscore.DG>
-14.1238

> <Gold.Chemscore.ZeroCoef>
-5.4800

> <Gold.Chemscore.Hbond>
0.9918

> <Gold.Chemscore.Metal>
0.0000

> <Gold.Chemscore.Lipo>
67.4468

> <Gold.Chemscore.Internal_Hbond>
0.0000

> <Gold.Chemscore.DEClash>
0.1864

> <Gold.Chemscore.DEInternal>
0.1887

> <Gold.Chemscore.Rot>
1.0000

> <Gold.Chemscore.Internal.Correction>
   9.000000E+99

> <Gold.Chemscore.Hbonds>
donor molecule, donor type, donor heavy atom, donor atom, acceptor molecule, acceptor atom, score
      L1  H     1    15       P1  7948  0.71

> <Gold.Chemscore.Hbond.Weighted>
-3.3126

> <Gold.Chemscore.Metal.Weighted>
-0.0000

> <Gold.Chemscore.Lipo.Weighted>
-7.8913

> <Gold.Chemscore.Internal_Hbond.Weighted>
0.0000

> <Gold.Chemscore.DEClash.Weighted>
0.1864

> <Gold.Chemscore.DEInternal.Weighted>
0.1887

> <Gold.Chemscore.Rot.Weighted>
2.5600

> <Gold.Chemscore.Internal.Correction.Weighted>
   9.000000E+99

> <Gold.Protein.RotatedTorsions>
[ 6907 6896 6895 6894 ] final -121.82 input  -60.11 | X-H torsion
[ 7974 7965 7964 7962 ] final   20.26 input  175.53 | X-H torsion
[ 8008 7997 7996 7995 ] final    8.21 input   59.86 | X-H torsion
[ 10167 10162 10161 10158 ] final  176.16 input  -65.29 | X-H torsion
[ 10718 10713 10712 10709 ] final    2.39 input   66.30 | X-H torsion
[ 10763 10752 10751 10750 ] final -177.48 input  -60.55 | X-H torsion
[ 11005 11000 10999 10996 ] final  -99.60 input  -57.11 | X-H torsion

> <Gold.Protein.ActiveResidues>
 VAL166  LYS551  ARG553  GLY616  TRP617  ASP618  TYR619  PRO620  LYS621  CYS622 
 ASP623  PHE694  ASN695  SER759  ASP760  ASP761  ALA762  ILE779  LEU786  VAL792 
 PHE793  MET794  SER795  GLU796  ALA797  LYS798  CYS799  TRP800  GLU811  SER814 

> <Gold.Protein.RotatedAtoms>
  150.8518  133.7775  159.3022 H   0  0  0  0  0  0  0  0  0  0  0  0  # atno 6907 bound_to 6896
  151.5445  135.1066  159.9944 H   0  0  0  0  0  0  0  0  0  0  0  0  # atno 6908 bound_to 6896
  152.4559  133.7678  159.6838 H   0  0  0  0  0  0  0  0  0  0  0  0  # atno 6909 bound_to 6896
  146.2118  139.8195  142.8683 H   0  0  0  0  0  0  0  0  0  0  0  0  # atno 7974 bound_to 7965
  154.7639  140.2789  155.6192 H   0  0  0  0  0  0  0  0  0  0  0  0  # atno 8008 bound_to 7997
  156.2921  140.2654  156.2352 H   0  0  0  0  0  0  0  0  0  0  0  0  # atno 8009 bound_to 7997
  154.9983  140.0373  157.2339 H   0  0  0  0  0  0  0  0  0  0  0  0  # atno 8010 bound_to 7997
  139.5204  144.2947  152.0432 H   0  0  0  0  0  0  0  0  0  0  0  0  # atno 10167 bound_to 10162
  156.8623  130.5591  149.5662 H   0  0  0  0  0  0  0  0  0  0  0  0  # atno 10718 bound_to 10713
  154.5595  135.2819  155.0932 H   0  0  0  0  0  0  0  0  0  0  0  0  # atno 10763 bound_to 10752
  154.2346  135.6368  153.5190 H   0  0  0  0  0  0  0  0  0  0  0  0  # atno 10764 bound_to 10752
  153.0025  135.5545  154.6186 H   0  0  0  0  0  0  0  0  0  0  0  0  # atno 10765 bound_to 10752
  141.1302  133.8334  157.0993 H   0  0  0  0  0  0  0  0  0  0  0  0  # atno 11005 bound_to 11000
  145.3111  141.0220  143.3554 LP  0  0  0  0  0  0  0  0  0  0  0  0  # atno 17320 bound_to 7965
  144.8935  139.4743  143.6666 LP  0  0  0  0  0  0  0  0  0  0  0  0  # atno 17321 bound_to 7965
  140.2397  144.4282  150.6265 LP  0  0  0  0  0  0  0  0  0  0  0  0  # atno 17342 bound_to 10162
  140.6299  143.2186  151.6518 LP  0  0  0  0  0  0  0  0  0  0  0  0  # atno 17343 bound_to 10162
  156.0770  130.5790  150.9493 LP  0  0  0  0  0  0  0  0  0  0  0  0  # atno 17370 bound_to 10713
  157.6243  131.0927  150.8563 LP  0  0  0  0  0  0  0  0  0  0  0  0  # atno 17371 bound_to 10713
  140.0343  134.9886  157.0841 LP  0  0  0  0  0  0  0  0  0  0  0  0  # atno 17394 bound_to 11000
  140.4235  134.1855  155.7165 LP  0  0  0  0  0  0  0  0  0  0  0  0  # atno 17395 bound_to 11000

$$$$
