AV-unprocessed.smi:899|AV-procd|sdf|4087|dock6
  -GOLD-   22720 1573D 1   1.00000     0.00000
 Structure written by MMmdl.
 33 34  0  0  0  0  0  0  0  0  1 V2000
  153.1449  139.4515  155.4432 N   0  0  0  0  0  0  0  0  0  0  0  0
  152.1490  140.0397  155.4193 C   0  0  0  0  0  0  0  0  0  0  0  0
  150.8829  140.7877  155.3887 C   0  0  0  0  0  0  0  0  0  0  0  0
  149.7255  139.9305  154.9197 C   0  0  0  0  0  0  0  0  0  0  0  0
  148.8707  140.3947  153.9011 C   0  0  0  0  0  0  0  0  0  0  0  0
  147.7962  139.5972  153.4632 C   0  0  0  0  0  0  0  0  0  0  0  0
  147.5595  138.3283  154.0308 C   0  0  0  0  0  0  0  0  0  0  0  0
  146.4894  137.6128  153.5380 O   0  0  0  0  0  0  0  0  0  0  0  0
  146.1151  137.8115  152.1822 C   0  0  0  0  0  0  0  0  0  0  0  0
  145.5139  136.5032  151.6454 C   0  0  0  0  0  0  0  0  0  0  0  0
  144.3179  136.1062  152.3460 N   0  0  0  0  0  0  0  0  0  0  0  0
  143.2784  136.9870  152.6024 C   0  0  0  0  0  0  0  0  0  0  0  0
  142.1554  136.6348  153.2739 C   0  0  0  0  0  0  0  0  0  0  0  0
  140.9025  137.7904  153.5547 Cl  0  0  0  0  0  0  0  0  0  0  0  0
  141.9978  135.2680  153.7703 C   0  0  0  0  0  0  0  0  0  0  0  0
  141.0234  134.8420  154.3870 O   0  0  0  0  0  0  0  0  0  0  0  0
  143.0734  134.4177  153.4957 N   0  0  0  0  0  0  0  0  0  0  0  0
  144.2341  134.7723  152.8073 C   0  0  0  0  0  0  0  0  0  0  0  0
  145.1225  133.9385  152.6309 O   0  0  0  0  0  0  0  0  0  0  0  0
  148.4221  137.8688  155.0583 C   0  0  0  0  0  0  0  0  0  0  0  0
  149.4967  138.6663  155.4976 C   0  0  0  0  0  0  0  0  0  0  0  0
  143.0054  133.4660  153.8260 H   0  0  0  0  0  0  0  0  0  0  0  0
  150.6807  141.1656  156.3911 H   0  0  0  0  0  0  0  0  0  0  0  0
  151.0081  141.6492  154.7323 H   0  0  0  0  0  0  0  0  0  0  0  0
  149.0371  141.3639  153.4537 H   0  0  0  0  0  0  0  0  0  0  0  0
  147.1474  139.9633  152.6810 H   0  0  0  0  0  0  0  0  0  0  0  0
  145.3853  138.6194  152.1097 H   0  0  0  0  0  0  0  0  0  0  0  0
  146.9885  138.0860  151.5883 H   0  0  0  0  0  0  0  0  0  0  0  0
  145.2320  136.6109  150.5969 H   0  0  0  0  0  0  0  0  0  0  0  0
  146.2176  135.6690  151.6892 H   0  0  0  0  0  0  0  0  0  0  0  0
  143.3641  138.0065  152.2535 H   0  0  0  0  0  0  0  0  0  0  0  0
  148.2817  136.9064  155.5266 H   0  0  0  0  0  0  0  0  0  0  0  0
  150.1459  138.3026  156.2806 H   0  0  0  0  0  0  0  0  0  0  0  0
  1  2  3  0  0  0  0
  2  3  1  0  0  0  0
  3  4  1  0  0  0  0
  3 23  1  0  0  0  0
  3 24  1  0  0  0  0
  4 21  1  0  0  0  0
  4  5  2  0  0  0  0
  5  6  1  0  0  0  0
  5 25  1  0  0  0  0
  6  7  2  0  0  0  0
  6 26  1  0  0  0  0
  7  8  1  0  0  0  0
  7 20  1  0  0  0  0
  8  9  1  0  0  0  0
  9 10  1  0  0  0  0
  9 27  1  0  0  0  0
  9 28  1  0  0  0  0
 10 11  1  0  0  0  0
 10 29  1  0  0  0  0
 10 30  1  0  0  0  0
 11 18  1  0  0  0  0
 11 12  1  0  0  0  0
 12 13  2  0  0  0  0
 12 31  1  0  0  0  0
 13 14  1  0  0  0  0
 13 15  1  0  0  0  0
 15 16  2  0  0  0  0
 15 17  1  0  0  0  0
 17 22  1  0  0  0  0
 17 18  1  0  0  0  0
 18 19  2  0  0  0  0
 20 21  2  0  0  0  0
 20 32  1  0  0  0  0
 21 33  1  0  0  0  0
M  END
> <s_m_source_file>
AV-unprocessed.smi

> <i_m_source_file_index>
899

> <i_lp_mmshare_version>
43012

> <i_f3d_flags>
0

> <s_epik_input>
TiNDW0NIMl1jMVtjSF1bY0hdYyhbY0hdW2NIXTEpT1tDSDJdW0NIMl1uMltjSF1jKENsKWMoPU8pW25IXWMyPU8=

> <s_epik_cmdline>
J2VwaWtfcHl0aG9uJywgJy1waCcsICc3LjAnLCAnLXRuJywgJzgnLCAnLW1hJywgJzIwMCcsICctbWV0YWxfYmluZGluZycsICctaW1hZScsICc8aW5maWxlLm1hZT4nLCAnLW9tYWUnLCAnPG91dGZpbGUubWFlPic=

> <r_lp_tautomer_probability>
0.999537

> <r_epik_Ionization_Penalty>
0.0457407

> <r_epik_Ionization_Penalty_Charging>
0.0457407

> <r_epik_Ionization_Penalty_Neutral>
1.03254e-10

> <r_epik_State_Penalty>
0.0388483

> <r_epik_Charging_Adjusted_Penalty>
0.0845889

> <i_epik_Tot_Q>
0

> <i_epik_Tot_abs_Q>
0

> <r_epik_Metal_State_Penalty>
2.50663

> <b_epik_Metal_Only>
0

> <s_lp_Force_Field>
OPLS_2005

> <r_lp_Energy>
13.2906

> <b_lp_Chiralities_Consistent>
1

> <s_lp_Variant>
AV-unprocessed.smi:899-1

> <Gold.Version>
5.8.1

> <Gold.Id.Protein>
6NUR|6NUR_protein|mol2

> <Gold.PLP.Fitness>
46.2143

> <Gold.PLP.PLP>
-33.2357

> <Gold.PLP.part.hbond>
-3.8781

> <Gold.PLP.part.metal>
0.0000

> <Gold.PLP.part.buried>
-2.1970

> <Gold.PLP.part.nonpolar>
-27.8401

> <Gold.PLP.part.repulsive>
0.4185

> <Gold.PLP.ligand.clash>
0.0000

> <Gold.PLP.ligand.torsion>
0.7815

> <Gold.PLP.Chemscore.Hbond>
2.9913

> <Gold.PLP.Chemscore.CHOScore>
1.8405

> <Gold.PLP.Chemscore.Metal>
0.0000

> <Gold.Chemscore.Hbonds>
donor molecule, donor type, donor heavy atom, donor atom, acceptor molecule, acceptor atom, score
      L1  H    17    22       P1 10957  1.00
      P1  H  7997  8009       L1     1  0.78
      P1  H 11000 11005       L1    16  1.00
      L1  C    12    31       P1 10171  0.84
      L1  C    12    31       P1 10175  1.00

> <Gold.PLP.Chemscore.Internal.Correction>
0.0463

> <Gold.Rescore>
     Score         DG    S(hbond)    S(metal)    S(lipo)     H(rot)  DE(clash)    DE(int)     intcor
     15.80     -16.64       2.97        0.00      61.42       2.32       0.09       0.76       ----

> <Gold.Chemscore.Fitness>
15.7968

> <Gold.Chemscore.DG>
-16.6443

> <Gold.Chemscore.ZeroCoef>
-5.4800

> <Gold.Chemscore.Hbond>
2.9674

> <Gold.Chemscore.Metal>
0.0000

> <Gold.Chemscore.Lipo>
61.4159

> <Gold.Chemscore.Internal_Hbond>
0.0000

> <Gold.Chemscore.DEClash>
0.0914

> <Gold.Chemscore.DEInternal>
0.7560

> <Gold.Chemscore.Rot>
2.3174

> <Gold.Chemscore.Internal.Correction>
   9.000000E+99

> <Gold.Chemscore.Hbonds>
donor molecule, donor type, donor heavy atom, donor atom, acceptor molecule, acceptor atom, score
      L1  H    17    22       P1 10957  0.98
      P1  H  7997  8009       L1     1  0.74
      P1  H 11000 11005       L1    16  0.95

> <Gold.Chemscore.Hbond.Weighted>
-9.9110

> <Gold.Chemscore.Metal.Weighted>
-0.0000

> <Gold.Chemscore.Lipo.Weighted>
-7.1857

> <Gold.Chemscore.Internal_Hbond.Weighted>
0.0000

> <Gold.Chemscore.DEClash.Weighted>
0.0914

> <Gold.Chemscore.DEInternal.Weighted>
0.7560

> <Gold.Chemscore.Rot.Weighted>
5.9324

> <Gold.Chemscore.Internal.Correction.Weighted>
   9.000000E+99

> <Gold.Protein.RotatedTorsions>
[ 6907 6896 6895 6894 ] final   68.25 input  -60.11 | X-H torsion
[ 7974 7965 7964 7962 ] final  128.95 input  175.53 | X-H torsion
[ 8008 7997 7996 7995 ] final -171.45 input   59.86 | X-H torsion
[ 10167 10162 10161 10158 ] final  141.59 input  -65.29 | X-H torsion
[ 10718 10713 10712 10709 ] final  -69.54 input   66.30 | X-H torsion
[ 10763 10752 10751 10750 ] final  -88.33 input  -60.55 | X-H torsion
[ 11005 11000 10999 10996 ] final   18.82 input  -57.11 | X-H torsion

> <Gold.Protein.ActiveResidues>
 VAL166  LYS551  ARG553  GLY616  TRP617  ASP618  TYR619  PRO620  LYS621  CYS622 
 ASP623  PHE694  ASN695  SER759  ASP760  ASP761  ALA762  ILE779  LEU786  VAL792 
 PHE793  MET794  SER795  GLU796  ALA797  LYS798  CYS799  TRP800  GLU811  SER814 

> <Gold.Protein.RotatedAtoms>
  152.4608  134.5189  159.9776 H   0  0  0  0  0  0  0  0  0  0  0  0  # atno 6907 bound_to 6896
  151.5239  133.3455  159.2914 H   0  0  0  0  0  0  0  0  0  0  0  0  # atno 6908 bound_to 6896
  150.8570  134.7941  159.7115 H   0  0  0  0  0  0  0  0  0  0  0  0  # atno 6909 bound_to 6896
  145.0340  139.4021  143.5135 H   0  0  0  0  0  0  0  0  0  0  0  0  # atno 7974 bound_to 7965
  155.9317  140.1092  157.1127 H   0  0  0  0  0  0  0  0  0  0  0  0  # atno 8008 bound_to 7997
  154.4072  140.1236  156.4877 H   0  0  0  0  0  0  0  0  0  0  0  0  # atno 8009 bound_to 7997
  155.7072  140.3471  155.4960 H   0  0  0  0  0  0  0  0  0  0  0  0  # atno 8010 bound_to 7997
  139.5016  144.6162  151.6159 H   0  0  0  0  0  0  0  0  0  0  0  0  # atno 10167 bound_to 10162
  156.0450  130.4314  150.2163 H   0  0  0  0  0  0  0  0  0  0  0  0  # atno 10718 bound_to 10713
  154.6434  135.5381  153.7816 H   0  0  0  0  0  0  0  0  0  0  0  0  # atno 10763 bound_to 10752
  153.0346  135.6465  154.1125 H   0  0  0  0  0  0  0  0  0  0  0  0  # atno 10764 bound_to 10752
  154.1048  135.2931  155.3223 H   0  0  0  0  0  0  0  0  0  0  0  0  # atno 10765 bound_to 10752
  140.4205  134.1524  155.7672 H   0  0  0  0  0  0  0  0  0  0  0  0  # atno 11005 bound_to 11000
  146.3502  139.9905  142.8686 LP  0  0  0  0  0  0  0  0  0  0  0  0  # atno 17320 bound_to 7965
  145.1734  140.9732  143.4308 LP  0  0  0  0  0  0  0  0  0  0  0  0  # atno 17321 bound_to 7965
  140.5850  143.9879  150.6290 LP  0  0  0  0  0  0  0  0  0  0  0  0  # atno 17342 bound_to 10162
  140.3041  143.3241  152.0943 LP  0  0  0  0  0  0  0  0  0  0  0  0  # atno 17343 bound_to 10162
  157.0254  130.9991  151.3328 LP  0  0  0  0  0  0  0  0  0  0  0  0  # atno 17370 bound_to 10713
  157.5315  130.8061  149.7922 LP  0  0  0  0  0  0  0  0  0  0  0  0  # atno 17371 bound_to 10713
  141.1786  133.8462  157.1337 LP  0  0  0  0  0  0  0  0  0  0  0  0  # atno 17394 bound_to 11000
  140.0203  134.9948  157.0579 LP  0  0  0  0  0  0  0  0  0  0  0  0  # atno 17395 bound_to 11000

$$$$
