AV-unprocessed.smi:1038|AV-procd|sdf|4521|dock4
  -GOLD-   22720 2533D 1   1.00000     0.00000
 Structure written by MMmdl.
 57 58  0  0  0  0  0  0  0  0  2 V2000
  150.8104  144.4636  160.3681 C   0  0  0  0  0  0  0  0  0  0  0  0
  151.4033  144.2743  161.6405 O   0  0  0  0  0  0  0  0  0  0  0  0
  151.9105  142.9615  161.8149 C   0  0  0  0  0  0  0  0  0  0  0  0
  152.8880  142.6230  160.6778 C   0  0  0  0  0  0  0  0  0  0  0  0
  153.3940  141.2466  160.7824 N   0  0  0  0  0  0  0  0  0  0  0  0
  153.0644  140.3692  159.7311 C   0  0  0  0  0  0  0  0  0  0  0  0
  153.4677  139.0838  159.7102 C   0  0  0  0  0  0  0  0  0  0  0  0
  153.0893  138.2234  158.5870 C   0  0  0  0  0  0  0  0  0  0  0  0
  153.8005  137.3367  158.1120 O   0  0  0  0  0  0  0  0  0  0  0  0
  151.8677  138.4851  158.0959 N   0  0  0  0  0  0  0  0  0  0  0  0
  151.2456  137.7811  156.9782 C   0  0  0  0  0  0  0  0  0  0  0  0
  150.1724  138.6405  156.2365 C   0  0  0  0  0  0  0  0  0  0  0  0
  149.9935  138.1267  154.8292 N   0  3  0  0  0  0  0  0  0  0  0  0
  149.3216  136.8059  154.7017 C   0  0  0  0  0  0  0  0  0  0  0  0
  151.2150  138.1504  153.9812 C   0  0  0  0  0  0  0  0  0  0  0  0
  148.8478  138.5516  157.0650 C   0  0  0  0  0  0  0  0  0  0  0  0
  147.5804  139.2013  156.4792 C   0  0  0  0  0  0  0  0  0  0  0  0
  147.6759  140.7137  156.2426 C   0  0  0  0  0  0  0  0  0  0  0  0
  148.5140  141.0533  155.0059 C   0  0  0  0  0  0  0  0  0  0  0  0
  150.0284  141.1327  155.2485 C   0  0  0  0  0  0  0  0  0  0  0  0
  150.6575  140.1263  156.2404 C   0  0  0  0  0  0  0  0  0  0  0  0
  154.2749  138.6202  160.8293 C   0  0  0  0  0  0  0  0  0  0  0  0
  154.5971  139.4572  161.8348 C   0  0  0  0  0  0  0  0  0  0  0  0
  154.1541  140.8543  161.8488 C   0  0  0  0  0  0  0  0  0  0  0  0
  154.4504  141.6215  162.7648 O   0  0  0  0  0  0  0  0  0  0  0  0
  150.4457  145.4870  160.2821 H   0  0  0  0  0  0  0  0  0  0  0  0
  149.9638  143.7910  160.2237 H   0  0  0  0  0  0  0  0  0  0  0  0
  151.5322  144.2949  159.5678 H   0  0  0  0  0  0  0  0  0  0  0  0
  152.4334  142.9017  162.7706 H   0  0  0  0  0  0  0  0  0  0  0  0
  151.0951  142.2367  161.8460 H   0  0  0  0  0  0  0  0  0  0  0  0
  152.4171  142.8096  159.7112 H   0  0  0  0  0  0  0  0  0  0  0  0
  153.7301  143.3155  160.7149 H   0  0  0  0  0  0  0  0  0  0  0  0
  152.4668  140.8191  158.9503 H   0  0  0  0  0  0  0  0  0  0  0  0
  151.3335  139.2254  158.5273 H   0  0  0  0  0  0  0  0  0  0  0  0
  152.0448  137.4813  156.2996 H   0  0  0  0  0  0  0  0  0  0  0  0
  150.8045  136.8621  157.3656 H   0  0  0  0  0  0  0  0  0  0  0  0
  149.9300  136.0029  155.1173 H   0  0  0  0  0  0  0  0  0  0  0  0
  149.1542  136.5736  153.6494 H   0  0  0  0  0  0  0  0  0  0  0  0
  148.3444  136.7750  155.1784 H   0  0  0  0  0  0  0  0  0  0  0  0
  151.9166  137.3669  154.2681 H   0  0  0  0  0  0  0  0  0  0  0  0
  151.7424  139.1012  154.0137 H   0  0  0  0  0  0  0  0  0  0  0  0
  150.9460  137.9763  152.9388 H   0  0  0  0  0  0  0  0  0  0  0  0
  148.6211  137.5069  157.2800 H   0  0  0  0  0  0  0  0  0  0  0  0
  149.0029  138.9947  158.0493 H   0  0  0  0  0  0  0  0  0  0  0  0
  147.2782  138.7034  155.5584 H   0  0  0  0  0  0  0  0  0  0  0  0
  146.7643  139.0215  157.1803 H   0  0  0  0  0  0  0  0  0  0  0  0
  146.6651  141.0890  156.0783 H   0  0  0  0  0  0  0  0  0  0  0  0
  148.0468  141.2324  157.1276 H   0  0  0  0  0  0  0  0  0  0  0  0
  148.3020  140.3366  154.2119 H   0  0  0  0  0  0  0  0  0  0  0  0
  148.1873  142.0164  154.6119 H   0  0  0  0  0  0  0  0  0  0  0  0
  150.5275  141.0629  154.2824 H   0  0  0  0  0  0  0  0  0  0  0  0
  150.2650  142.1343  155.6100 H   0  0  0  0  0  0  0  0  0  0  0  0
  150.5312  140.5337  157.2444 H   0  0  0  0  0  0  0  0  0  0  0  0
  151.7360  140.1570  156.0804 H   0  0  0  0  0  0  0  0  0  0  0  0
  154.6354  137.6035  160.8813 H   0  0  0  0  0  0  0  0  0  0  0  0
  155.1983  139.0911  162.6542 H   0  0  0  0  0  0  0  0  0  0  0  0
  149.3604  138.7866  154.3998 H   0  0  0  0  0  0  0  0  0  0  0  0
  1  2  1  0  0  0  0
  1 26  1  0  0  0  0
  1 27  1  0  0  0  0
  1 28  1  0  0  0  0
  2  3  1  0  0  0  0
  3  4  1  0  0  0  0
  3 29  1  0  0  0  0
  3 30  1  0  0  0  0
  4  5  1  0  0  0  0
  4 31  1  0  0  0  0
  4 32  1  0  0  0  0
  5 24  1  0  0  0  0
  5  6  1  0  0  0  0
  6  7  2  0  0  0  0
  6 33  1  0  0  0  0
  7  8  1  0  0  0  0
  7 22  1  0  0  0  0
  8  9  2  0  0  0  0
  8 10  1  0  0  0  0
 10 11  1  0  0  0  0
 10 34  1  0  0  0  0
 11 12  1  0  0  0  0
 11 35  1  0  0  0  0
 11 36  1  0  0  0  0
 12 21  1  0  0  0  0
 12 13  1  0  0  0  0
 12 16  1  0  0  0  0
 13 14  1  0  0  0  0
 13 15  1  0  0  0  0
 13 57  1  0  0  0  0
 14 37  1  0  0  0  0
 14 38  1  0  0  0  0
 14 39  1  0  0  0  0
 15 40  1  0  0  0  0
 15 41  1  0  0  0  0
 15 42  1  0  0  0  0
 16 17  1  0  0  0  0
 16 43  1  0  0  0  0
 16 44  1  0  0  0  0
 17 18  1  0  0  0  0
 17 45  1  0  0  0  0
 17 46  1  0  0  0  0
 18 19  1  0  0  0  0
 18 47  1  0  0  0  0
 18 48  1  0  0  0  0
 19 20  1  0  0  0  0
 19 49  1  0  0  0  0
 19 50  1  0  0  0  0
 20 21  1  0  0  0  0
 20 51  1  0  0  0  0
 20 52  1  0  0  0  0
 21 53  1  0  0  0  0
 21 54  1  0  0  0  0
 22 23  2  0  0  0  0
 22 55  1  0  0  0  0
 23 24  1  0  0  0  0
 23 56  1  0  0  0  0
 24 25  2  0  0  0  0
M  CHG  1  13   1
M  END
> <s_m_source_file>
AV-unprocessed.smi

> <i_m_source_file_index>
1038

> <i_lp_mmshare_version>
43012

> <i_f3d_flags>
0

> <s_epik_input>
W0NIM11PW0NIMl1bQ0gyXW4xW2NIXWMoW2NIXVtjSF1jMT1PKUMoPU8pW05IXVtDSDJdQzIoTihbQ0gzXSlbQ0gzXSlbQ0gyXVtDSDJdW0NIMl1bQ0gyXVtDSDJdW0NIMl0y

> <s_epik_cmdline>
J2VwaWtfcHl0aG9uJywgJy1waCcsICc3LjAnLCAnLXRuJywgJzgnLCAnLW1hJywgJzIwMCcsICctbWV0YWxfYmluZGluZycsICctaW1hZScsICc8aW5maWxlLm1hZT4nLCAnLW9tYWUnLCAnPG91dGZpbGUubWFlPic=

> <r_lp_tautomer_probability>
1

> <r_epik_Ionization_Penalty>
0.00379096

> <r_epik_Ionization_Penalty_Charging>
0.0037899

> <r_epik_Ionization_Penalty_Neutral>
1.06849e-06

> <r_epik_State_Penalty>
0.00270348

> <r_epik_Charging_Adjusted_Penalty>
0.00649338

> <i_epik_Tot_Q>
1

> <i_epik_Tot_abs_Q>
1

> <r_epik_Metal_State_Penalty>
-0

> <b_epik_Metal_Only>
0

> <s_lp_Force_Field>
OPLS_2005

> <r_lp_Energy>
50.9414

> <b_lp_Chiralities_Consistent>
1

> <s_lp_Variant>
AV-unprocessed.smi:1038-1

> <Gold.Version>
5.8.1

> <Gold.Id.Protein>
6NUR|6NUR_protein|mol2

> <Gold.PLP.Fitness>
38.3054

> <Gold.PLP.PLP>
-40.2799

> <Gold.PLP.part.hbond>
-1.0000

> <Gold.PLP.part.metal>
0.0000

> <Gold.PLP.part.buried>
-4.9488

> <Gold.PLP.part.nonpolar>
-33.2049

> <Gold.PLP.part.repulsive>
0.2763

> <Gold.PLP.ligand.clash>
0.0000

> <Gold.PLP.ligand.torsion>
1.1359

> <Gold.PLP.Chemscore.Hbond>
0.0000

> <Gold.PLP.Chemscore.CHOScore>
0.0000

> <Gold.PLP.Chemscore.Metal>
0.0000

> <Gold.PLP.Chemscore.Internal.Correction>
0.2974

> <Gold.Rescore>
     Score         DG    S(hbond)    S(metal)    S(lipo)     H(rot)  DE(clash)    DE(int)     intcor
     10.24     -12.72       0.00        0.00     102.65       1.86       1.33       1.14       ----

> <Gold.Chemscore.Fitness>
10.2381

> <Gold.Chemscore.DG>
-12.7161

> <Gold.Chemscore.ZeroCoef>
-5.4800

> <Gold.Chemscore.Hbond>
0.0000

> <Gold.Chemscore.Metal>
0.0000

> <Gold.Chemscore.Lipo>
102.6511

> <Gold.Chemscore.Internal_Hbond>
0.0000

> <Gold.Chemscore.DEClash>
1.3335

> <Gold.Chemscore.DEInternal>
1.1445

> <Gold.Chemscore.Rot>
1.8649

> <Gold.Chemscore.Internal.Correction>
   9.000000E+99

> <Gold.Chemscore.Hbond.Weighted>
-0.0000

> <Gold.Chemscore.Metal.Weighted>
-0.0000

> <Gold.Chemscore.Lipo.Weighted>
-12.0102

> <Gold.Chemscore.Internal_Hbond.Weighted>
0.0000

> <Gold.Chemscore.DEClash.Weighted>
1.3335

> <Gold.Chemscore.DEInternal.Weighted>
1.1445

> <Gold.Chemscore.Rot.Weighted>
4.7741

> <Gold.Chemscore.Internal.Correction.Weighted>
   9.000000E+99

> <Gold.Protein.RotatedTorsions>
[ 6907 6896 6895 6894 ] final   56.59 input  -60.11 | X-H torsion
[ 7974 7965 7964 7962 ] final -168.43 input  175.53 | X-H torsion
[ 8008 7997 7996 7995 ] final   43.28 input   59.86 | X-H torsion
[ 10167 10162 10161 10158 ] final   55.23 input  -65.29 | X-H torsion
[ 10718 10713 10712 10709 ] final  -12.56 input   66.30 | X-H torsion
[ 10763 10752 10751 10750 ] final  -56.56 input  -60.55 | X-H torsion
[ 11005 11000 10999 10996 ] final  -49.19 input  -57.11 | X-H torsion

> <Gold.Protein.ActiveResidues>
 VAL166  LYS551  ARG553  GLY616  TRP617  ASP618  TYR619  PRO620  LYS621  CYS622 
 ASP623  PHE694  ASN695  SER759  ASP760  ASP761  ALA762  ILE779  LEU786  VAL792 
 PHE793  MET794  SER795  GLU796  ALA797  LYS798  CYS799  TRP800  GLU811  SER814 

> <Gold.Protein.RotatedAtoms>
  152.3651  134.6816  160.0194 H   0  0  0  0  0  0  0  0  0  0  0  0  # atno 6907 bound_to 6896
  151.7127  133.3307  159.3303 H   0  0  0  0  0  0  0  0  0  0  0  0  # atno 6908 bound_to 6896
  150.7632  134.6452  159.6303 H   0  0  0  0  0  0  0  0  0  0  0  0  # atno 6909 bound_to 6896
  144.7203  140.2371  143.6296 H   0  0  0  0  0  0  0  0  0  0  0  0  # atno 7974 bound_to 7965
  155.3001  140.3384  155.4248 H   0  0  0  0  0  0  0  0  0  0  0  0  # atno 8008 bound_to 7997
  156.2005  140.1731  156.7948 H   0  0  0  0  0  0  0  0  0  0  0  0  # atno 8009 bound_to 7997
  154.5553  140.0697  156.8717 H   0  0  0  0  0  0  0  0  0  0  0  0  # atno 8010 bound_to 7997
  140.2217  144.3782  150.6448 H   0  0  0  0  0  0  0  0  0  0  0  0  # atno 10167 bound_to 10162
  156.6428  130.4933  149.6089 H   0  0  0  0  0  0  0  0  0  0  0  0  # atno 10718 bound_to 10713
  154.2086  135.6398  153.5108 H   0  0  0  0  0  0  0  0  0  0  0  0  # atno 10763 bound_to 10752
  152.9995  135.5468  154.6239 H   0  0  0  0  0  0  0  0  0  0  0  0  # atno 10764 bound_to 10752
  154.5670  135.2913  155.0837 H   0  0  0  0  0  0  0  0  0  0  0  0  # atno 10765 bound_to 10752
  141.0745  133.6670  156.3550 H   0  0  0  0  0  0  0  0  0  0  0  0  # atno 11005 bound_to 11000
  145.8355  139.2105  143.1858 LP  0  0  0  0  0  0  0  0  0  0  0  0  # atno 17320 bound_to 7965
  146.0393  140.8181  142.9837 LP  0  0  0  0  0  0  0  0  0  0  0  0  # atno 17321 bound_to 7965
  140.6250  143.2180  151.6615 LP  0  0  0  0  0  0  0  0  0  0  0  0  # atno 17342 bound_to 10162
  139.5142  144.3419  152.0732 LP  0  0  0  0  0  0  0  0  0  0  0  0  # atno 17343 bound_to 10162
  156.2145  130.6699  151.1304 LP  0  0  0  0  0  0  0  0  0  0  0  0  # atno 17370 bound_to 10713
  157.7165  131.0706  150.6304 LP  0  0  0  0  0  0  0  0  0  0  0  0  # atno 17371 bound_to 10713
  140.5603  134.5940  157.5432 LP  0  0  0  0  0  0  0  0  0  0  0  0  # atno 17394 bound_to 11000
  139.9557  134.7539  156.0347 LP  0  0  0  0  0  0  0  0  0  0  0  0  # atno 17395 bound_to 11000

$$$$
