AV-unprocessed.smi:44|AV-procd|sdf|401|dock8
  -GOLD-   2262016253D 1   1.00000     0.00000
 Structure written by MMmdl.
 29 31  0  0  0  0  0  0  0  0  3 V2000
  152.3311  137.7261  153.9781 O   0  0  0  0  0  0  0  0  0  0  0  0
  151.9307  138.7661  154.4969 C   0  0  0  0  0  0  0  0  0  0  0  0
  152.6270  139.6278  155.3058 N   0  5  0  0  0  0  0  0  0  0  0  0
  152.0416  140.7769  155.8253 C   0  0  0  0  0  0  0  0  0  0  0  0
  150.8373  141.1894  155.6465 N   0  0  0  0  0  0  0  0  0  0  0  0
  150.0408  140.3718  154.8303 C   0  0  0  0  0  0  0  0  0  0  0  0
  150.5175  139.2131  154.2624 C   0  0  0  0  0  0  0  0  0  0  0  0
  149.5316  138.6284  153.5140 N   0  3  0  0  0  0  0  0  0  0  0  0
  148.5003  139.4600  153.6610 C   0  0  0  0  0  0  0  0  0  0  0  0
  148.7303  140.5461  154.4560 N   0  0  0  0  0  0  0  0  0  0  0  0
  147.7559  141.6330  154.7656 C   0  0  1  0  0  0  0  0  0  0  0  0
  146.3254  141.2041  154.4173 C   0  0  0  0  0  0  0  0  0  0  0  0
  145.5383  141.8838  155.5155 C   0  0  0  0  0  0  0  0  0  0  0  0
  146.5003  141.7202  156.6936 C   0  0  2  0  0  0  0  0  0  0  0  0
  146.2869  142.6461  157.9033 C   0  0  0  0  0  0  0  0  0  0  0  0
  147.0492  142.2375  159.0199 O   0  0  0  0  0  0  0  0  0  0  0  0
  147.8019  141.8848  156.1394 O   0  0  0  0  0  0  0  0  0  0  0  0
  149.5766  137.7737  152.9739 H   0  0  0  0  0  0  0  0  0  0  0  0
  148.0968  142.5077  154.2102 H   0  0  0  0  0  0  0  0  0  0  0  0
  146.4428  140.6884  157.0434 H   0  0  0  0  0  0  0  0  0  0  0  0
  152.7393  141.3455  156.4452 H   0  0  0  0  0  0  0  0  0  0  0  0
  147.5504  139.2919  153.1862 H   0  0  0  0  0  0  0  0  0  0  0  0
  146.0497  141.5233  153.4120 H   0  0  0  0  0  0  0  0  0  0  0  0
  146.2213  140.1206  154.4904 H   0  0  0  0  0  0  0  0  0  0  0  0
  145.3840  142.9329  155.2618 H   0  0  0  0  0  0  0  0  0  0  0  0
  144.5653  141.4246  155.6925 H   0  0  0  0  0  0  0  0  0  0  0  0
  146.5887  143.6618  157.6464 H   0  0  0  0  0  0  0  0  0  0  0  0
  145.2314  142.6853  158.1741 H   0  0  0  0  0  0  0  0  0  0  0  0
  147.7911  142.8167  159.1041 H   0  0  0  0  0  0  0  0  0  0  0  0
  1  2  2  0  0  0  0
  2  7  1  0  0  0  0
  2  3  1  0  0  0  0
  3  4  1  0  0  0  0
  4 21  1  0  0  0  0
  4  5  2  0  0  0  0
  5  6  1  0  0  0  0
  6 10  1  0  0  0  0
  6  7  2  0  0  0  0
  7  8  1  0  0  0  0
  8  9  2  0  0  0  0
  8 18  1  0  0  0  0
  9 10  1  0  0  0  0
  9 22  1  0  0  0  0
 10 11  1  0  0  0  0
 11 19  1  0  0  0  0
 11 17  1  0  0  0  0
 11 12  1  0  0  0  0
 12 13  1  0  0  0  0
 12 23  1  0  0  0  0
 12 24  1  0  0  0  0
 13 14  1  0  0  0  0
 13 25  1  0  0  0  0
 13 26  1  0  0  0  0
 14 20  1  0  0  0  0
 14 15  1  0  0  0  0
 14 17  1  0  0  0  0
 15 16  1  0  0  0  0
 15 27  1  0  0  0  0
 15 28  1  0  0  0  0
 16 29  1  0  0  0  0
M  CHG  1   3  -1
M  CHG  1   8   1
M  END
> <s_m_source_file>
AV-unprocessed.smi

> <i_m_source_file_index>
44

> <i_lp_mmshare_version>
43012

> <i_f3d_flags>
0

> <s_epik_input>
bjFbY0hdW25IXWMoPU8pYyhjMTIpbltjSF1uMltDQEhdM1tDSDJdW0NIMl1bQ0BIXShPMylbQ0gyXVtPSF0=

> <s_epik_cmdline>
J2VwaWtfcHl0aG9uJywgJy1waCcsICc3LjAnLCAnLXRuJywgJzgnLCAnLW1hJywgJzIwMCcsICctbWV0YWxfYmluZGluZycsICctaW1hZScsICc8aW5maWxlLm1hZT4nLCAnLW9tYWUnLCAnPG91dGZpbGUubWFlPic=

> <r_lp_tautomer_probability>
0.144281

> <r_epik_Ionization_Penalty>
5.63685

> <r_epik_Ionization_Penalty_Charging>
5.58669

> <r_epik_Ionization_Penalty_Neutral>
0.0501585

> <r_epik_State_Penalty>
1.20809

> <r_epik_Charging_Adjusted_Penalty>
6.79478

> <i_epik_Tot_Q>
0

> <i_epik_Tot_abs_Q>
2

> <r_epik_Metal_State_Penalty>
1.52487

> <b_epik_Metal_Only>
0

> <s_epik_Chemistry_Notes>
This compound contains an acetal/aminal-like group ( X-CH(R)-Y where X, Y are N, S, or O) that may be acid/base labile, releasing an aldehyde.

> <s_lp_Force_Field>
OPLS_2005

> <r_lp_Energy>
46.8975

> <b_lp_Chiralities_Consistent>
1

> <s_lp_Variant>
AV-unprocessed.smi:44-7

> <Gold.Version>
5.8.1

> <Gold.Id.Protein>
6NUR|6NUR_protein|mol2

> <Gold.PLP.Fitness>
40.4282

> <Gold.PLP.PLP>
-26.6883

> <Gold.PLP.part.hbond>
-5.0000

> <Gold.PLP.part.metal>
0.0000

> <Gold.PLP.part.buried>
-3.8921

> <Gold.PLP.part.nonpolar>
-19.7104

> <Gold.PLP.part.repulsive>
0.3926

> <Gold.PLP.ligand.clash>
0.0000

> <Gold.PLP.ligand.torsion>
0.4172

> <Gold.PLP.Chemscore.Hbond>
4.8555

> <Gold.PLP.Chemscore.CHOScore>
0.0000

> <Gold.PLP.Chemscore.Metal>
0.0000

> <Gold.Chemscore.Hbonds>
donor molecule, donor type, donor heavy atom, donor atom, acceptor molecule, acceptor atom, score
      L1  H     8    18       P1  7948  2.00
      P1  H  6934  6946       L1    16  0.45
      P1  H  7997  8008       L1     3  1.00
      P1  H 10752 10765       L1     1  0.56

> <Gold.PLP.Chemscore.Internal.Correction>
0.0077

> <Gold.Rescore>
     Score         DG    S(hbond)    S(metal)    S(lipo)     H(rot)  DE(clash)    DE(int)     intcor
      9.87     -10.24       2.57        0.00      16.92       2.27       0.04       0.33       ----

> <Gold.Chemscore.Fitness>
9.8668

> <Gold.Chemscore.DG>
-10.2359

> <Gold.Chemscore.ZeroCoef>
-5.4800

> <Gold.Chemscore.Hbond>
2.5726

> <Gold.Chemscore.Metal>
0.0000

> <Gold.Chemscore.Lipo>
16.9221

> <Gold.Chemscore.Internal_Hbond>
0.0000

> <Gold.Chemscore.DEClash>
0.0391

> <Gold.Chemscore.DEInternal>
0.3301

> <Gold.Chemscore.Rot>
2.2720

> <Gold.Chemscore.Internal.Correction>
   9.000000E+99

> <Gold.Chemscore.Hbonds>
donor molecule, donor type, donor heavy atom, donor atom, acceptor molecule, acceptor atom, score
      L1  H     8    18       P1  7948  0.77
      P1  H  6934  6946       L1    16  0.35
      P1  H  7997  8008       L1     3  0.02
      P1  H 10752 10765       L1     1  0.57

> <Gold.Chemscore.Hbond.Weighted>
-8.5925

> <Gold.Chemscore.Metal.Weighted>
-0.0000

> <Gold.Chemscore.Lipo.Weighted>
-1.9799

> <Gold.Chemscore.Internal_Hbond.Weighted>
0.0000

> <Gold.Chemscore.DEClash.Weighted>
0.0391

> <Gold.Chemscore.DEInternal.Weighted>
0.3301

> <Gold.Chemscore.Rot.Weighted>
5.8164

> <Gold.Chemscore.Internal.Correction.Weighted>
   9.000000E+99

> <Gold.Protein.RotatedTorsions>
[ 6907 6896 6895 6894 ] final  132.14 input  -60.11 | X-H torsion
[ 7974 7965 7964 7962 ] final -177.29 input  175.53 | X-H torsion
[ 8008 7997 7996 7995 ] final  -25.42 input   59.86 | X-H torsion
[ 10167 10162 10161 10158 ] final   20.97 input  -65.29 | X-H torsion
[ 10718 10713 10712 10709 ] final -171.07 input   66.30 | X-H torsion
[ 10763 10752 10751 10750 ] final  153.58 input  -60.55 | X-H torsion
[ 11005 11000 10999 10996 ] final   13.79 input  -57.11 | X-H torsion

> <Gold.Protein.ActiveResidues>
 VAL166  LYS551  ARG553  GLY616  TRP617  ASP618  TYR619  PRO620  LYS621  CYS622 
 ASP623  PHE694  ASN695  SER759  ASP760  ASP761  ALA762  ILE779  LEU786  VAL792 
 PHE793  MET794  SER795  GLU796  ALA797  LYS798  CYS799  TRP800  GLU811  SER814 

> <Gold.Protein.RotatedAtoms>
  152.3354  133.6006  159.5838 H   0  0  0  0  0  0  0  0  0  0  0  0  # atno 6907 bound_to 6896
  150.7447  133.9803  159.3583 H   0  0  0  0  0  0  0  0  0  0  0  0  # atno 6908 bound_to 6896
  151.7674  135.0796  160.0406 H   0  0  0  0  0  0  0  0  0  0  0  0  # atno 6909 bound_to 6896
  144.7127  140.1042  143.6415 H   0  0  0  0  0  0  0  0  0  0  0  0  # atno 7974 bound_to 7965
  154.4477  140.1927  156.0617 H   0  0  0  0  0  0  0  0  0  0  0  0  # atno 8008 bound_to 7997
  156.0578  140.3300  155.7399 H   0  0  0  0  0  0  0  0  0  0  0  0  # atno 8009 bound_to 7997
  155.5458  140.0590  157.2851 H   0  0  0  0  0  0  0  0  0  0  0  0  # atno 8010 bound_to 7997
  140.5463  143.9589  150.6549 H   0  0  0  0  0  0  0  0  0  0  0  0  # atno 10167 bound_to 10162
  156.7355  130.9322  151.3107 H   0  0  0  0  0  0  0  0  0  0  0  0  # atno 10718 bound_to 10713
  154.1386  135.2822  155.3167 H   0  0  0  0  0  0  0  0  0  0  0  0  # atno 10763 bound_to 10752
  154.6304  135.5437  153.7677 H   0  0  0  0  0  0  0  0  0  0  0  0  # atno 10764 bound_to 10752
  153.0258  135.6461  154.1533 H   0  0  0  0  0  0  0  0  0  0  0  0  # atno 10765 bound_to 10752
  140.4768  134.0975  155.7743 H   0  0  0  0  0  0  0  0  0  0  0  0  # atno 11005 bound_to 11000
  145.9511  139.2734  143.1211 LP  0  0  0  0  0  0  0  0  0  0  0  0  # atno 17320 bound_to 7965
  145.9322  140.9040  143.0350 LP  0  0  0  0  0  0  0  0  0  0  0  0  # atno 17321 bound_to 7965
  140.3003  143.3265  152.0978 LP  0  0  0  0  0  0  0  0  0  0  0  0  # atno 17342 bound_to 10162
  139.5008  144.6701  151.6264 LP  0  0  0  0  0  0  0  0  0  0  0  0  # atno 17343 bound_to 10162
  157.6841  130.9168  150.0341 LP  0  0  0  0  0  0  0  0  0  0  0  0  # atno 17370 bound_to 10713
  156.1500  130.3642  149.9452 LP  0  0  0  0  0  0  0  0  0  0  0  0  # atno 17371 bound_to 10713
  141.1550  133.8898  157.1999 LP  0  0  0  0  0  0  0  0  0  0  0  0  # atno 17394 bound_to 11000
  139.9851  135.0085  156.9843 LP  0  0  0  0  0  0  0  0  0  0  0  0  # atno 17395 bound_to 11000

$$$$
