AV-unprocessed.smi:2345|AV-procd|sdf|9361|dock2
  -GOLD-   2272012583D 1   1.00000     0.00000
 Structure written by MMmdl.
 37 38  0  0  0  0  0  0  0  0  1 V2000
  151.3724  139.1636  154.4900 C   0  0  0  0  0  0  0  0  0  0  0  0
  150.0061  138.5545  154.1662 C   0  0  0  0  0  0  0  0  0  0  0  0
  148.9149  138.5619  155.6155 S   0  0  0  0  0  0  0  0  0  0  0  0
  148.0824  140.1630  155.3989 C   0  0  2  0  0  0  0  0  0  0  0  0
  146.8856  140.0675  154.4491 C   0  0  0  0  0  0  0  0  0  0  0  0
  146.7220  141.4852  153.9121 C   0  0  0  0  0  0  0  0  0  0  0  0
  148.1561  141.9857  153.7366 C   0  0  0  0  0  0  0  0  0  0  0  0
  148.9979  141.2528  154.8006 C   0  0  1  0  0  0  0  0  0  0  0  0
  149.4526  142.1709  155.8420 N   0  0  0  0  0  0  0  0  0  0  0  0
  150.3618  141.8795  156.7823 C   0  0  0  0  0  0  0  0  0  0  0  0
  150.9409  140.7959  156.8529 O   0  0  0  0  0  0  0  0  0  0  0  0
  150.5286  142.9093  157.6293 N   0  0  0  0  0  0  0  0  0  0  0  0
  151.3776  142.9944  158.7659 C   0  0  0  0  0  0  0  0  0  0  0  0
  152.1782  141.9267  159.2394 C   0  0  0  0  0  0  0  0  0  0  0  0
  152.9921  142.1436  160.3694 C   0  0  0  0  0  0  0  0  0  0  0  0
  153.0575  143.3222  161.0243 N   0  0  0  0  0  0  0  0  0  0  0  0
  152.3042  144.3420  160.5610 C   0  0  0  0  0  0  0  0  0  0  0  0
  151.4573  144.2313  159.4400 C   0  0  0  0  0  0  0  0  0  0  0  0
  150.7303  145.2967  159.0243 F   0  0  0  0  0  0  0  0  0  0  0  0
  152.0228  139.1455  153.6155 H   0  0  0  0  0  0  0  0  0  0  0  0
  151.8700  138.6111  155.2872 H   0  0  0  0  0  0  0  0  0  0  0  0
  151.2734  140.2010  154.8107 H   0  0  0  0  0  0  0  0  0  0  0  0
  149.5312  139.1144  153.3605 H   0  0  0  0  0  0  0  0  0  0  0  0
  150.1307  137.5295  153.8173 H   0  0  0  0  0  0  0  0  0  0  0  0
  147.7063  140.4837  156.3721 H   0  0  0  0  0  0  0  0  0  0  0  0
  147.1118  139.3916  153.6231 H   0  0  0  0  0  0  0  0  0  0  0  0
  145.9862  139.6996  154.9439 H   0  0  0  0  0  0  0  0  0  0  0  0
  146.1485  141.5211  152.9854 H   0  0  0  0  0  0  0  0  0  0  0  0
  146.2048  142.1001  154.6500 H   0  0  0  0  0  0  0  0  0  0  0  0
  148.5150  141.7089  152.7444 H   0  0  0  0  0  0  0  0  0  0  0  0
  148.2179  143.0728  153.8050 H   0  0  0  0  0  0  0  0  0  0  0  0
  149.8582  140.7903  154.3126 H   0  0  0  0  0  0  0  0  0  0  0  0
  149.0253  143.0854  155.8589 H   0  0  0  0  0  0  0  0  0  0  0  0
  149.9209  143.7030  157.4878 H   0  0  0  0  0  0  0  0  0  0  0  0
  152.1943  140.9612  158.7579 H   0  0  0  0  0  0  0  0  0  0  0  0
  153.6135  141.3485  160.7537 H   0  0  0  0  0  0  0  0  0  0  0  0
  152.3797  145.2753  161.0992 H   0  0  0  0  0  0  0  0  0  0  0  0
  1  2  1  0  0  0  0
  1 20  1  0  0  0  0
  1 21  1  0  0  0  0
  1 22  1  0  0  0  0
  2  3  1  0  0  0  0
  2 23  1  0  0  0  0
  2 24  1  0  0  0  0
  3  4  1  0  0  0  0
  4  8  1  0  0  0  0
  4  5  1  0  0  0  0
  4 25  1  0  0  0  0
  5  6  1  0  0  0  0
  5 26  1  0  0  0  0
  5 27  1  0  0  0  0
  6  7  1  0  0  0  0
  6 28  1  0  0  0  0
  6 29  1  0  0  0  0
  7  8  1  0  0  0  0
  7 30  1  0  0  0  0
  7 31  1  0  0  0  0
  8  9  1  0  0  0  0
  8 32  1  0  0  0  0
  9 10  1  0  0  0  0
  9 33  1  0  0  0  0
 10 11  2  0  0  0  0
 10 12  1  0  0  0  0
 12 13  1  0  0  0  0
 12 34  1  0  0  0  0
 13 18  1  0  0  0  0
 13 14  2  0  0  0  0
 14 15  1  0  0  0  0
 14 35  1  0  0  0  0
 15 16  2  0  0  0  0
 15 36  1  0  0  0  0
 16 17  1  0  0  0  0
 17 18  2  0  0  0  0
 17 37  1  0  0  0  0
 18 19  1  0  0  0  0
M  END
> <s_m_source_file>
AV-unprocessed.smi

> <i_m_source_file_index>
2345

> <i_lp_mmshare_version>
43012

> <i_f3d_flags>
0

> <s_epik_input>
W0NIM11bQ0gyXVNbQ0BASF0xW0NIMl1bQ0gyXVtDSDJdW0NASF0xW05IXUMoPU8pW05IXWMyW2NIXVtjSF1uW2NIXWMyRg==

> <s_epik_cmdline>
J2VwaWtfcHl0aG9uJywgJy1waCcsICc3LjAnLCAnLXRuJywgJzgnLCAnLW1hJywgJzIwMCcsICctbWV0YWxfYmluZGluZycsICctaW1hZScsICc8aW5maWxlLm1hZT4nLCAnLW9tYWUnLCAnPG91dGZpbGUubWFlPic=

> <r_epik_Ionization_Penalty>
0.00333745

> <r_epik_Ionization_Penalty_Charging>
0

> <r_epik_Ionization_Penalty_Neutral>
0.00333745

> <r_epik_State_Penalty>
0.00233401

> <r_epik_Charging_Adjusted_Penalty>
0.00233401

> <i_epik_Tot_Q>
0

> <i_epik_Tot_abs_Q>
0

> <r_epik_Metal_State_Penalty>
-0

> <b_epik_Metal_Only>
0

> <s_lp_Force_Field>
OPLS_2005

> <r_lp_Energy>
20.2563

> <b_lp_Chiralities_Consistent>
1

> <s_lp_Variant>
AV-unprocessed.smi:2345-1

> <Gold.Version>
5.8.1

> <Gold.Id.Protein>
6NUR|6NUR_protein|mol2

> <Gold.PLP.Fitness>
38.1826

> <Gold.PLP.PLP>
-35.6412

> <Gold.PLP.part.hbond>
-1.5924

> <Gold.PLP.part.metal>
0.0000

> <Gold.PLP.part.buried>
-3.2961

> <Gold.PLP.part.nonpolar>
-30.6005

> <Gold.PLP.part.repulsive>
0.2317

> <Gold.PLP.ligand.clash>
0.0000

> <Gold.PLP.ligand.torsion>
0.5937

> <Gold.PLP.Chemscore.Hbond>
1.2340

> <Gold.PLP.Chemscore.CHOScore>
0.0000

> <Gold.PLP.Chemscore.Metal>
0.0000

> <Gold.Chemscore.Hbonds>
donor molecule, donor type, donor heavy atom, donor atom, acceptor molecule, acceptor atom, score
      L1  H     9    33       P1  8028  1.00
      L1  H    12    34       P1  8028  0.22

> <Gold.PLP.Chemscore.Internal.Correction>
0.0269

> <Gold.Rescore>
     Score         DG    S(hbond)    S(metal)    S(lipo)     H(rot)  DE(clash)    DE(int)     intcor
     16.68     -18.60       1.68        0.00      93.55       1.35       0.16       1.75       ----

> <Gold.Chemscore.Fitness>
16.6821

> <Gold.Chemscore.DG>
-18.5966

> <Gold.Chemscore.ZeroCoef>
-5.4800

> <Gold.Chemscore.Hbond>
1.6828

> <Gold.Chemscore.Metal>
0.0000

> <Gold.Chemscore.Lipo>
93.5536

> <Gold.Chemscore.Internal_Hbond>
0.0000

> <Gold.Chemscore.DEClash>
0.1605

> <Gold.Chemscore.DEInternal>
1.7540

> <Gold.Chemscore.Rot>
1.3475

> <Gold.Chemscore.Internal.Correction>
   9.000000E+99

> <Gold.Chemscore.Hbonds>
donor molecule, donor type, donor heavy atom, donor atom, acceptor molecule, acceptor atom, score
      L1  H     9    33       P1  8028  0.99
      L1  H    12    34       P1  8028  0.17

> <Gold.Chemscore.Hbond.Weighted>
-5.6204

> <Gold.Chemscore.Metal.Weighted>
-0.0000

> <Gold.Chemscore.Lipo.Weighted>
-10.9458

> <Gold.Chemscore.Internal_Hbond.Weighted>
0.0000

> <Gold.Chemscore.DEClash.Weighted>
0.1605

> <Gold.Chemscore.DEInternal.Weighted>
1.7540

> <Gold.Chemscore.Rot.Weighted>
3.4496

> <Gold.Chemscore.Internal.Correction.Weighted>
   9.000000E+99

> <Gold.Protein.RotatedTorsions>
[ 6907 6896 6895 6894 ] final   41.29 input  -60.11 | X-H torsion
[ 7974 7965 7964 7962 ] final   -6.04 input  175.53 | X-H torsion
[ 8008 7997 7996 7995 ] final  134.52 input   59.86 | X-H torsion
[ 10167 10162 10161 10158 ] final   73.94 input  -65.29 | X-H torsion
[ 10718 10713 10712 10709 ] final -116.27 input   66.30 | X-H torsion
[ 10763 10752 10751 10750 ] final  146.85 input  -60.55 | X-H torsion
[ 11005 11000 10999 10996 ] final  -52.85 input  -57.11 | X-H torsion

> <Gold.Protein.ActiveResidues>
 VAL166  LYS551  ARG553  GLY616  TRP617  ASP618  TYR619  PRO620  LYS621  CYS622 
 ASP623  PHE694  ASN695  SER759  ASP760  ASP761  ALA762  ILE779  LEU786  VAL792 
 PHE793  MET794  SER795  GLU796  ALA797  LYS798  CYS799  TRP800  GLU811  SER814 

> <Gold.Protein.RotatedAtoms>
  152.1934  134.8652  160.0515 H   0  0  0  0  0  0  0  0  0  0  0  0  # atno 6907 bound_to 6896
  151.9533  133.3667  159.4016 H   0  0  0  0  0  0  0  0  0  0  0  0  # atno 6908 bound_to 6896
  150.6939  134.4241  159.5262 H   0  0  0  0  0  0  0  0  0  0  0  0  # atno 6909 bound_to 6896
  146.2340  140.2111  142.8335 H   0  0  0  0  0  0  0  0  0  0  0  0  # atno 7974 bound_to 7965
  156.2999  140.2494  156.3430 H   0  0  0  0  0  0  0  0  0  0  0  0  # atno 8008 bound_to 7997
  154.9037  140.0405  157.1926 H   0  0  0  0  0  0  0  0  0  0  0  0  # atno 8009 bound_to 7997
  154.8475  140.2900  155.5624 H   0  0  0  0  0  0  0  0  0  0  0  0  # atno 8010 bound_to 7997
  140.0191  144.5554  150.7596 H   0  0  0  0  0  0  0  0  0  0  0  0  # atno 10167 bound_to 10162
  156.0952  130.6126  150.9014 H   0  0  0  0  0  0  0  0  0  0  0  0  # atno 10718 bound_to 10713
  154.0287  135.2899  155.3371 H   0  0  0  0  0  0  0  0  0  0  0  0  # atno 10763 bound_to 10752
  154.7002  135.5191  153.8518 H   0  0  0  0  0  0  0  0  0  0  0  0  # atno 10764 bound_to 10752
  153.0649  135.6627  154.0501 H   0  0  0  0  0  0  0  0  0  0  0  0  # atno 10765 bound_to 10752
  141.0946  133.6627  156.4085 H   0  0  0  0  0  0  0  0  0  0  0  0  # atno 11005 bound_to 11000
  144.9705  140.8364  143.5458 LP  0  0  0  0  0  0  0  0  0  0  0  0  # atno 17320 bound_to 7965
  145.2093  139.2213  143.5152 LP  0  0  0  0  0  0  0  0  0  0  0  0  # atno 17321 bound_to 7965
  140.7350  143.2735  151.3813 LP  0  0  0  0  0  0  0  0  0  0  0  0  # atno 17342 bound_to 10162
  139.6152  144.1018  152.2338 LP  0  0  0  0  0  0  0  0  0  0  0  0  # atno 17343 bound_to 10162
  157.6111  131.0936  150.8793 LP  0  0  0  0  0  0  0  0  0  0  0  0  # atno 17370 bound_to 10713
  156.8932  130.5220  149.5285 LP  0  0  0  0  0  0  0  0  0  0  0  0  # atno 17371 bound_to 10713
  140.5171  134.6339  157.5305 LP  0  0  0  0  0  0  0  0  0  0  0  0  # atno 17394 bound_to 11000
  139.9779  134.7185  155.9914 LP  0  0  0  0  0  0  0  0  0  0  0  0  # atno 17395 bound_to 11000

$$$$
