AV-unprocessed.smi:1840|AV-procd|sdf|7493|dock2
  -GOLD-   22720 9193D 1   1.00000     0.00000
 Structure written by MMmdl.
 43 44  0  0  0  0  0  0  0  0  1 V2000
  145.0597  135.7665  151.1286 C   0  0  0  0  0  0  0  0  0  0  0  0
  145.5183  135.2586  152.5024 C   0  0  1  0  0  0  0  0  0  0  0  0
  145.7309  133.7302  152.4965 C   0  0  0  0  0  0  0  0  0  0  0  0
  145.0907  133.0799  151.3657 N   0  0  0  0  0  0  0  0  0  0  0  0
  145.6736  132.3277  150.3675 C   0  0  0  0  0  0  0  0  0  0  0  0
  144.6779  131.9369  149.5189 C   0  0  0  0  0  0  0  0  0  0  0  0
  143.5046  132.5006  150.0928 C   0  0  0  0  0  0  0  0  0  0  0  0
  143.7541  133.1820  151.1993 N   0  0  0  0  0  0  0  0  0  0  0  0
  146.7493  135.9519  152.8805 N   0  0  0  0  0  0  0  0  0  0  0  0
  146.9693  136.5676  154.0513 C   0  0  0  0  0  0  0  0  0  0  0  0
  146.1375  136.6515  154.9551 O   0  0  0  0  0  0  0  0  0  0  0  0
  148.2133  137.0626  154.1231 N   0  0  0  0  0  0  0  0  0  0  0  0
  148.7905  137.7734  155.2662 C   0  0  2  0  0  0  0  0  0  0  0  0
  148.0276  139.0931  155.5023 C   0  0  0  0  0  0  0  0  0  0  0  0
  148.3064  140.1341  154.4042 C   0  0  0  0  0  0  0  0  0  0  0  0
  149.8132  140.3853  154.2458 C   0  0  0  0  0  0  0  0  0  0  0  0
  150.5723  139.0762  153.9784 C   0  0  0  0  0  0  0  0  0  0  0  0
  150.3091  138.0318  155.0828 C   0  0  2  0  0  0  0  0  0  0  0  0
  151.1199  136.7466  154.8443 C   0  0  0  0  0  0  0  0  0  0  0  0
  144.1292  135.2868  150.8237 H   0  0  0  0  0  0  0  0  0  0  0  0
  145.8062  135.5632  150.3601 H   0  0  0  0  0  0  0  0  0  0  0  0
  144.8833  136.8427  151.1464 H   0  0  0  0  0  0  0  0  0  0  0  0
  144.7239  135.4950  153.2128 H   0  0  0  0  0  0  0  0  0  0  0  0
  146.7965  133.5023  152.4495 H   0  0  0  0  0  0  0  0  0  0  0  0
  145.3602  133.2884  153.4233 H   0  0  0  0  0  0  0  0  0  0  0  0
  146.7372  132.1424  150.3412 H   0  0  0  0  0  0  0  0  0  0  0  0
  144.7738  131.3410  148.6236 H   0  0  0  0  0  0  0  0  0  0  0  0
  142.4862  132.4382  149.7390 H   0  0  0  0  0  0  0  0  0  0  0  0
  147.5019  135.9346  152.2078 H   0  0  0  0  0  0  0  0  0  0  0  0
  148.8191  136.9279  153.3272 H   0  0  0  0  0  0  0  0  0  0  0  0
  148.6591  137.1663  156.1636 H   0  0  0  0  0  0  0  0  0  0  0  0
  146.9560  138.9033  155.5736 H   0  0  0  0  0  0  0  0  0  0  0  0
  148.3242  139.5084  156.4665 H   0  0  0  0  0  0  0  0  0  0  0  0
  147.8907  139.7919  153.4559 H   0  0  0  0  0  0  0  0  0  0  0  0
  147.7982  141.0686  154.6428 H   0  0  0  0  0  0  0  0  0  0  0  0
  149.9890  141.0894  153.4320 H   0  0  0  0  0  0  0  0  0  0  0  0
  150.2027  140.8549  155.1501 H   0  0  0  0  0  0  0  0  0  0  0  0
  150.2777  138.6750  153.0078 H   0  0  0  0  0  0  0  0  0  0  0  0
  151.6407  139.2841  153.9112 H   0  0  0  0  0  0  0  0  0  0  0  0
  150.6723  138.4575  156.0196 H   0  0  0  0  0  0  0  0  0  0  0  0
  150.8798  136.2954  153.8818 H   0  0  0  0  0  0  0  0  0  0  0  0
  150.9217  136.0063  155.6197 H   0  0  0  0  0  0  0  0  0  0  0  0
  152.1903  136.9528  154.8504 H   0  0  0  0  0  0  0  0  0  0  0  0
  1  2  1  0  0  0  0
  1 20  1  0  0  0  0
  1 21  1  0  0  0  0
  1 22  1  0  0  0  0
  2  3  1  0  0  0  0
  2  9  1  0  0  0  0
  2 23  1  0  0  0  0
  3  4  1  0  0  0  0
  3 24  1  0  0  0  0
  3 25  1  0  0  0  0
  4  8  1  0  0  0  0
  4  5  1  0  0  0  0
  5  6  2  0  0  0  0
  5 26  1  0  0  0  0
  6  7  1  0  0  0  0
  6 27  1  0  0  0  0
  7  8  2  0  0  0  0
  7 28  1  0  0  0  0
  9 10  1  0  0  0  0
  9 29  1  0  0  0  0
 10 11  2  0  0  0  0
 10 12  1  0  0  0  0
 12 13  1  0  0  0  0
 12 30  1  0  0  0  0
 13 18  1  0  0  0  0
 13 14  1  0  0  0  0
 13 31  1  0  0  0  0
 14 15  1  0  0  0  0
 14 32  1  0  0  0  0
 14 33  1  0  0  0  0
 15 16  1  0  0  0  0
 15 34  1  0  0  0  0
 15 35  1  0  0  0  0
 16 17  1  0  0  0  0
 16 36  1  0  0  0  0
 16 37  1  0  0  0  0
 17 18  1  0  0  0  0
 17 38  1  0  0  0  0
 17 39  1  0  0  0  0
 18 19  1  0  0  0  0
 18 40  1  0  0  0  0
 19 41  1  0  0  0  0
 19 42  1  0  0  0  0
 19 43  1  0  0  0  0
M  END
> <s_m_source_file>
AV-unprocessed.smi

> <i_m_source_file_index>
1840

> <i_lp_mmshare_version>
43012

> <i_f3d_flags>
0

> <s_epik_input>
bjFbY0hdW2NIXVtjSF1uMVtDSDJdW0NAQEhdKFtDSDNdKVtOSF1DKD1PKVtOSF1bQ0BASF0yW0NIMl1bQ0gyXVtDSDJdW0NIMl1bQ0BIXTJbQ0gzXQ==

> <s_epik_cmdline>
J2VwaWtfcHl0aG9uJywgJy1waCcsICc3LjAnLCAnLXRuJywgJzgnLCAnLW1hJywgJzIwMCcsICctbWV0YWxfYmluZGluZycsICctaW1hZScsICc8aW5maWxlLm1hZT4nLCAnLW9tYWUnLCAnPG91dGZpbGUubWFlPic=

> <r_lp_tautomer_probability>
1

> <r_epik_Ionization_Penalty>
7.38659e-05

> <r_epik_Ionization_Penalty_Charging>
0

> <r_epik_Ionization_Penalty_Neutral>
7.38659e-05

> <r_epik_State_Penalty>
-0

> <r_epik_Charging_Adjusted_Penalty>
0

> <i_epik_Tot_Q>
0

> <i_epik_Tot_abs_Q>
0

> <r_epik_Metal_State_Penalty>
-0

> <b_epik_Metal_Only>
0

> <s_lp_Force_Field>
OPLS_2005

> <r_lp_Energy>
6.71394

> <b_lp_Chiralities_Consistent>
1

> <s_lp_Variant>
AV-unprocessed.smi:1840-6

> <Gold.Version>
5.8.1

> <Gold.Id.Protein>
6NUR|6NUR_protein|mol2

> <Gold.PLP.Fitness>
39.2037

> <Gold.PLP.PLP>
-27.2696

> <Gold.PLP.part.hbond>
-2.0000

> <Gold.PLP.part.metal>
0.0000

> <Gold.PLP.part.buried>
-0.3261

> <Gold.PLP.part.nonpolar>
-24.9769

> <Gold.PLP.part.repulsive>
0.2277

> <Gold.PLP.ligand.clash>
0.0000

> <Gold.PLP.ligand.torsion>
0.7499

> <Gold.PLP.Chemscore.Hbond>
1.9760

> <Gold.PLP.Chemscore.CHOScore>
2.4881

> <Gold.PLP.Chemscore.Metal>
0.0000

> <Gold.Chemscore.Hbonds>
donor molecule, donor type, donor heavy atom, donor atom, acceptor molecule, acceptor atom, score
      L1  H     9    29       P1  7948  0.93
      L1  H    12    30       P1  7948  0.93
      L1  C     5    26       P1 10747  0.89
      L1  C     7    28       P1 10186  0.87
      L1  C     7    28       P1 10952  0.65

> <Gold.PLP.Chemscore.Internal.Correction>
0.0415

> <Gold.Rescore>
     Score         DG    S(hbond)    S(metal)    S(lipo)     H(rot)  DE(clash)    DE(int)     intcor
     16.18     -16.68       1.90        0.00      75.66       1.56       0.04       0.46       ----

> <Gold.Chemscore.Fitness>
16.1769

> <Gold.Chemscore.DG>
-16.6750

> <Gold.Chemscore.ZeroCoef>
-5.4800

> <Gold.Chemscore.Hbond>
1.8954

> <Gold.Chemscore.Metal>
0.0000

> <Gold.Chemscore.Lipo>
75.6574

> <Gold.Chemscore.Internal_Hbond>
0.0000

> <Gold.Chemscore.DEClash>
0.0396

> <Gold.Chemscore.DEInternal>
0.4585

> <Gold.Chemscore.Rot>
1.5576

> <Gold.Chemscore.Internal.Correction>
   9.000000E+99

> <Gold.Chemscore.Hbonds>
donor molecule, donor type, donor heavy atom, donor atom, acceptor molecule, acceptor atom, score
      L1  H     9    29       P1  7948  0.84
      L1  H    12    30       P1  7948  0.89

> <Gold.Chemscore.Hbond.Weighted>
-6.3306

> <Gold.Chemscore.Metal.Weighted>
-0.0000

> <Gold.Chemscore.Lipo.Weighted>
-8.8519

> <Gold.Chemscore.Internal_Hbond.Weighted>
0.0000

> <Gold.Chemscore.DEClash.Weighted>
0.0396

> <Gold.Chemscore.DEInternal.Weighted>
0.4585

> <Gold.Chemscore.Rot.Weighted>
3.9875

> <Gold.Chemscore.Internal.Correction.Weighted>
   9.000000E+99

> <Gold.Protein.RotatedTorsions>
[ 6907 6896 6895 6894 ] final   67.72 input  -60.11 | X-H torsion
[ 7974 7965 7964 7962 ] final -129.89 input  175.53 | X-H torsion
[ 8008 7997 7996 7995 ] final   54.45 input   59.86 | X-H torsion
[ 10167 10162 10161 10158 ] final   71.68 input  -65.29 | X-H torsion
[ 10718 10713 10712 10709 ] final   68.47 input   66.30 | X-H torsion
[ 10763 10752 10751 10750 ] final  -31.74 input  -60.55 | X-H torsion
[ 11005 11000 10999 10996 ] final -132.54 input  -57.11 | X-H torsion

> <Gold.Protein.ActiveResidues>
 VAL166  LYS551  ARG553  GLY616  TRP617  ASP618  TYR619  PRO620  LYS621  CYS622 
 ASP623  PHE694  ASN695  SER759  ASP760  ASP761  ALA762  ILE779  LEU786  VAL792 
 PHE793  MET794  SER795  GLU796  ALA797  LYS798  CYS799  TRP800  GLU811  SER814 

> <Gold.Protein.RotatedAtoms>
  152.4571  134.5266  159.9798 H   0  0  0  0  0  0  0  0  0  0  0  0  # atno 6907 bound_to 6896
  151.5324  133.3441  159.2928 H   0  0  0  0  0  0  0  0  0  0  0  0  # atno 6908 bound_to 6896
  150.8520  134.7878  159.7079 H   0  0  0  0  0  0  0  0  0  0  0  0  # atno 6909 bound_to 6896
  144.9528  140.7363  143.4777 H   0  0  0  0  0  0  0  0  0  0  0  0  # atno 7974 bound_to 7965
  155.4850  140.3469  155.4345 H   0  0  0  0  0  0  0  0  0  0  0  0  # atno 8008 bound_to 7997
  156.1014  140.1436  156.9490 H   0  0  0  0  0  0  0  0  0  0  0  0  # atno 8009 bound_to 7997
  154.4696  140.0905  156.7089 H   0  0  0  0  0  0  0  0  0  0  0  0  # atno 8010 bound_to 7997
  140.0434  144.5370  150.7417 H   0  0  0  0  0  0  0  0  0  0  0  0  # atno 10167 bound_to 10162
  157.6291  130.9375  150.0382 H   0  0  0  0  0  0  0  0  0  0  0  0  # atno 10718 bound_to 10713
  153.8024  135.6889  153.4853 H   0  0  0  0  0  0  0  0  0  0  0  0  # atno 10763 bound_to 10752
  153.1680  135.4554  154.9862 H   0  0  0  0  0  0  0  0  0  0  0  0  # atno 10764 bound_to 10752
  154.8001  135.3334  154.7511 H   0  0  0  0  0  0  0  0  0  0  0  0  # atno 10765 bound_to 10752
  140.9161  134.1505  157.4351 H   0  0  0  0  0  0  0  0  0  0  0  0  # atno 11005 bound_to 11000
  145.2818  139.1915  143.4787 LP  0  0  0  0  0  0  0  0  0  0  0  0  # atno 17320 bound_to 7965
  146.3327  140.2781  142.8609 LP  0  0  0  0  0  0  0  0  0  0  0  0  # atno 17321 bound_to 7965
  140.7250  143.2626  151.4152 LP  0  0  0  0  0  0  0  0  0  0  0  0  # atno 17342 bound_to 10162
  139.5999  144.1318  152.2186 LP  0  0  0  0  0  0  0  0  0  0  0  0  # atno 17343 bound_to 10162
  156.1482  130.3642  149.9478 LP  0  0  0  0  0  0  0  0  0  0  0  0  # atno 17370 bound_to 10713
  156.7504  130.9113  151.3637 LP  0  0  0  0  0  0  0  0  0  0  0  0  # atno 17371 bound_to 10713
  139.8766  134.9954  156.5742 LP  0  0  0  0  0  0  0  0  0  0  0  0  # atno 17394 bound_to 11000
  140.8048  133.8476  155.8758 LP  0  0  0  0  0  0  0  0  0  0  0  0  # atno 17395 bound_to 11000

$$$$
