AV-unprocessed.smi:2222|AV-procd|sdf|8987|dock4
  -GOLD-   2272012203D 1   1.00000     0.00000
 Structure written by MMmdl.
 34 35  0  0  0  0  0  0  0  0  1 V2000
  151.8536  145.5146  159.8285 C   0  0  0  0  0  0  0  0  0  0  0  0
  151.6739  144.4075  158.9575 O   0  0  0  0  0  0  0  0  0  0  0  0
  152.2290  143.1950  159.3183 C   0  0  0  0  0  0  0  0  0  0  0  0
  153.0688  143.0217  160.4480 C   0  0  0  0  0  0  0  0  0  0  0  0
  153.5856  141.7466  160.7357 C   0  0  0  0  0  0  0  0  0  0  0  0
  153.2449  140.6834  159.8809 C   0  0  0  0  0  0  0  0  0  0  0  0
  153.7620  139.2827  160.1318 C   0  0  0  0  0  0  0  0  0  0  0  0
  152.4480  140.8358  158.8043 N   0  0  0  0  0  0  0  0  0  0  0  0
  151.9434  142.0608  158.5149 C   0  0  0  0  0  0  0  0  0  0  0  0
  151.0957  142.3025  157.3992 N   0  0  0  0  0  0  0  0  0  0  0  0
  150.6572  141.4317  156.4685 C   0  0  0  0  0  0  0  0  0  0  0  0
  150.9760  140.2452  156.4136 O   0  0  0  0  0  0  0  0  0  0  0  0
  149.8459  141.9746  155.5430 N   0  0  0  0  0  0  0  0  0  0  0  0
  149.2180  141.3239  154.4307 C   0  0  2  0  0  0  0  0  0  0  0  0
  147.7623  141.6505  154.1767 C   0  0  0  0  0  0  0  0  0  0  0  0
  148.1407  140.2874  154.6926 C   0  0  2  0  0  0  0  0  0  0  0  0
  147.7596  139.8579  156.0960 C   0  0  0  0  0  0  0  0  0  0  0  0
  151.3539  146.3868  159.4074 H   0  0  0  0  0  0  0  0  0  0  0  0
  152.9090  145.7641  159.9450 H   0  0  0  0  0  0  0  0  0  0  0  0
  151.4152  145.3256  160.8094 H   0  0  0  0  0  0  0  0  0  0  0  0
  153.3276  143.8410  161.1012 H   0  0  0  0  0  0  0  0  0  0  0  0
  154.2260  141.5930  161.5919 H   0  0  0  0  0  0  0  0  0  0  0  0
  154.4991  139.2711  160.9350 H   0  0  0  0  0  0  0  0  0  0  0  0
  154.2331  138.8838  159.2331 H   0  0  0  0  0  0  0  0  0  0  0  0
  152.9411  138.6221  160.4119 H   0  0  0  0  0  0  0  0  0  0  0  0
  150.7730  143.2542  157.3043 H   0  0  0  0  0  0  0  0  0  0  0  0
  149.7086  142.9734  155.5987 H   0  0  0  0  0  0  0  0  0  0  0  0
  149.8139  141.1855  153.5298 H   0  0  0  0  0  0  0  0  0  0  0  0
  147.2682  142.3347  154.8644 H   0  0  0  0  0  0  0  0  0  0  0  0
  147.4366  141.7203  153.1408 H   0  0  0  0  0  0  0  0  0  0  0  0
  148.0945  139.4750  153.9696 H   0  0  0  0  0  0  0  0  0  0  0  0
  147.7389  140.7091  156.7770 H   0  0  0  0  0  0  0  0  0  0  0  0
  148.4778  139.1288  156.4714 H   0  0  0  0  0  0  0  0  0  0  0  0
  146.7705  139.3998  156.0894 H   0  0  0  0  0  0  0  0  0  0  0  0
  1  2  1  0  0  0  0
  1 18  1  0  0  0  0
  1 19  1  0  0  0  0
  1 20  1  0  0  0  0
  2  3  1  0  0  0  0
  3  9  1  0  0  0  0
  3  4  2  0  0  0  0
  4  5  1  0  0  0  0
  4 21  1  0  0  0  0
  5  6  2  0  0  0  0
  5 22  1  0  0  0  0
  6  7  1  0  0  0  0
  6  8  1  0  0  0  0
  7 23  1  0  0  0  0
  7 24  1  0  0  0  0
  7 25  1  0  0  0  0
  8  9  2  0  0  0  0
  9 10  1  0  0  0  0
 10 11  1  0  0  0  0
 10 26  1  0  0  0  0
 11 12  2  0  0  0  0
 11 13  1  0  0  0  0
 13 14  1  0  0  0  0
 13 27  1  0  0  0  0
 14 16  1  0  0  0  0
 14 15  1  0  0  0  0
 14 28  1  0  0  0  0
 15 16  1  0  0  0  0
 15 29  1  0  0  0  0
 15 30  1  0  0  0  0
 16 17  1  0  0  0  0
 16 31  1  0  0  0  0
 17 32  1  0  0  0  0
 17 33  1  0  0  0  0
 17 34  1  0  0  0  0
M  END
> <s_m_source_file>
AV-unprocessed.smi

> <i_m_source_file_index>
2222

> <i_lp_mmshare_version>
43012

> <i_f3d_flags>
0

> <s_epik_input>
W0NIM11PYzFbY0hdW2NIXWMoW0NIM10pbmMxW05IXUMoPU8pW05IXVtDQEBIXTJbQ0gyXVtDQEhdMltDSDNd

> <s_epik_cmdline>
J2VwaWtfcHl0aG9uJywgJy1waCcsICc3LjAnLCAnLXRuJywgJzgnLCAnLW1hJywgJzIwMCcsICctbWV0YWxfYmluZGluZycsICctaW1hZScsICc8aW5maWxlLm1hZT4nLCAnLW9tYWUnLCAnPG91dGZpbGUubWFlPic=

> <r_lp_tautomer_probability>
1

> <r_epik_Ionization_Penalty>
6.59103e-05

> <r_epik_Ionization_Penalty_Charging>
0

> <r_epik_Ionization_Penalty_Neutral>
6.59103e-05

> <r_epik_State_Penalty>
-0

> <r_epik_Charging_Adjusted_Penalty>
0

> <i_epik_Tot_Q>
0

> <i_epik_Tot_abs_Q>
0

> <r_epik_Metal_State_Penalty>
-0

> <b_epik_Metal_Only>
0

> <s_lp_Force_Field>
OPLS_2005

> <r_lp_Energy>
34.1661

> <b_lp_Chiralities_Consistent>
1

> <s_lp_Variant>
AV-unprocessed.smi:2222-3

> <Gold.Version>
5.8.1

> <Gold.Id.Protein>
6NUR|6NUR_protein|mol2

> <Gold.PLP.Fitness>
39.3774

> <Gold.PLP.PLP>
-36.6594

> <Gold.PLP.part.hbond>
-1.0000

> <Gold.PLP.part.metal>
0.0000

> <Gold.PLP.part.buried>
-5.1329

> <Gold.PLP.part.nonpolar>
-30.1687

> <Gold.PLP.part.repulsive>
0.2738

> <Gold.PLP.ligand.clash>
0.0000

> <Gold.PLP.ligand.torsion>
0.1609

> <Gold.PLP.Chemscore.Hbond>
1.0000

> <Gold.PLP.Chemscore.CHOScore>
0.0000

> <Gold.PLP.Chemscore.Metal>
0.0000

> <Gold.Chemscore.Hbonds>
donor molecule, donor type, donor heavy atom, donor atom, acceptor molecule, acceptor atom, score
      L1  H    13    27       P1  8028  1.00

> <Gold.PLP.Chemscore.Internal.Correction>
0.0399

> <Gold.Rescore>
     Score         DG    S(hbond)    S(metal)    S(lipo)     H(rot)  DE(clash)    DE(int)     intcor
     14.12     -15.55       1.00        0.00      84.22       1.22       0.07       1.36       ----

> <Gold.Chemscore.Fitness>
14.1239

> <Gold.Chemscore.DG>
-15.5540

> <Gold.Chemscore.ZeroCoef>
-5.4800

> <Gold.Chemscore.Hbond>
0.9986

> <Gold.Chemscore.Metal>
0.0000

> <Gold.Chemscore.Lipo>
84.2202

> <Gold.Chemscore.Internal_Hbond>
0.0000

> <Gold.Chemscore.DEClash>
0.0715

> <Gold.Chemscore.DEInternal>
1.3586

> <Gold.Chemscore.Rot>
1.2168

> <Gold.Chemscore.Internal.Correction>
   9.000000E+99

> <Gold.Chemscore.Hbonds>
donor molecule, donor type, donor heavy atom, donor atom, acceptor molecule, acceptor atom, score
      L1  H    13    27       P1  8028  0.99

> <Gold.Chemscore.Hbond.Weighted>
-3.3352

> <Gold.Chemscore.Metal.Weighted>
-0.0000

> <Gold.Chemscore.Lipo.Weighted>
-9.8538

> <Gold.Chemscore.Internal_Hbond.Weighted>
0.0000

> <Gold.Chemscore.DEClash.Weighted>
0.0715

> <Gold.Chemscore.DEInternal.Weighted>
1.3586

> <Gold.Chemscore.Rot.Weighted>
3.1150

> <Gold.Chemscore.Internal.Correction.Weighted>
   9.000000E+99

> <Gold.Protein.RotatedTorsions>
[ 6907 6896 6895 6894 ] final   79.45 input  -60.11 | X-H torsion
[ 7974 7965 7964 7962 ] final  136.07 input  175.53 | X-H torsion
[ 8008 7997 7996 7995 ] final -142.76 input   59.86 | X-H torsion
[ 10167 10162 10161 10158 ] final  -25.01 input  -65.29 | X-H torsion
[ 10718 10713 10712 10709 ] final  -24.13 input   66.30 | X-H torsion
[ 10763 10752 10751 10750 ] final  144.65 input  -60.55 | X-H torsion
[ 11005 11000 10999 10996 ] final   69.76 input  -57.11 | X-H torsion

> <Gold.Protein.ActiveResidues>
 VAL166  LYS551  ARG553  GLY616  TRP617  ASP618  TYR619  PRO620  LYS621  CYS622 
 ASP623  PHE694  ASN695  SER759  ASP760  ASP761  ALA762  ILE779  LEU786  VAL792 
 PHE793  MET794  SER795  GLU796  ALA797  LYS798  CYS799  TRP800  GLU811  SER814 

> <Gold.Protein.RotatedAtoms>
  152.5199  134.3509  159.9250 H   0  0  0  0  0  0  0  0  0  0  0  0  # atno 6907 bound_to 6896
  151.3460  133.3937  159.2683 H   0  0  0  0  0  0  0  0  0  0  0  0  # atno 6908 bound_to 6896
  150.9765  134.9147  159.7877 H   0  0  0  0  0  0  0  0  0  0  0  0  # atno 6909 bound_to 6896
  144.9601  139.4720  143.5483 H   0  0  0  0  0  0  0  0  0  0  0  0  # atno 7974 bound_to 7965
  155.4996  140.0574  157.2941 H   0  0  0  0  0  0  0  0  0  0  0  0  # atno 8008 bound_to 7997
  154.4592  140.1988  156.0242 H   0  0  0  0  0  0  0  0  0  0  0  0  # atno 8009 bound_to 7997
  156.0858  140.3240  155.7756 H   0  0  0  0  0  0  0  0  0  0  0  0  # atno 8010 bound_to 7997
  140.7287  143.4302  151.0814 H   0  0  0  0  0  0  0  0  0  0  0  0  # atno 10167 bound_to 10162
  156.4818  130.4547  149.6807 H   0  0  0  0  0  0  0  0  0  0  0  0  # atno 10718 bound_to 10713
  153.9925  135.2931  155.3410 H   0  0  0  0  0  0  0  0  0  0  0  0  # atno 10763 bound_to 10752
  154.7206  135.5110  153.8810 H   0  0  0  0  0  0  0  0  0  0  0  0  # atno 10764 bound_to 10752
  153.0803  135.6677  154.0175 H   0  0  0  0  0  0  0  0  0  0  0  0  # atno 10765 bound_to 10752
  139.9635  134.7020  156.0594 H   0  0  0  0  0  0  0  0  0  0  0  0  # atno 11005 bound_to 11000
  146.3350  139.8745  142.8834 LP  0  0  0  0  0  0  0  0  0  0  0  0  # atno 17320 bound_to 7965
  145.2712  141.0109  143.3770 LP  0  0  0  0  0  0  0  0  0  0  0  0  # atno 17321 bound_to 7965
  139.7958  143.8154  152.3157 LP  0  0  0  0  0  0  0  0  0  0  0  0  # atno 17342 bound_to 10162
  139.8153  144.7319  150.9643 LP  0  0  0  0  0  0  0  0  0  0  0  0  # atno 17343 bound_to 10162
  156.3514  130.7434  151.2394 LP  0  0  0  0  0  0  0  0  0  0  0  0  # atno 17370 bound_to 10713
  157.7482  131.0376  150.4463 LP  0  0  0  0  0  0  0  0  0  0  0  0  # atno 17371 bound_to 10713
  141.1314  133.6585  156.3475 LP  0  0  0  0  0  0  0  0  0  0  0  0  # atno 17394 bound_to 11000
  140.5447  134.6086  157.5390 LP  0  0  0  0  0  0  0  0  0  0  0  0  # atno 17395 bound_to 11000

$$$$
