AV-unprocessed.smi:1480|AV-procd|sdf|5985|dock7
  -GOLD-   22720 6 73D 1   1.00000     0.00000
 Structure written by MMmdl.
 37 38  0  0  0  0  0  0  0  0  1 V2000
  151.9588  145.8808  160.1018 C   0  0  0  0  0  0  0  0  0  0  0  0
  151.9176  144.5289  159.5415 N   0  0  0  0  0  0  0  0  0  0  0  0
  151.2274  144.4132  158.2491 C   0  0  0  0  0  0  0  0  0  0  0  0
  151.5482  143.1160  157.4956 C   0  0  0  0  0  0  0  0  0  0  0  0
  151.4210  141.9138  158.4398 C   0  0  1  0  0  0  0  0  0  0  0  0
  151.6757  140.6005  157.6855 C   0  0  0  0  0  0  0  0  0  0  0  0
  152.6844  139.9403  157.9352 O   0  0  0  0  0  0  0  0  0  0  0  0
  150.7449  140.2599  156.7753 N   0  0  0  0  0  0  0  0  0  0  0  0
  150.7059  139.1206  155.9303 C   0  0  0  0  0  0  0  0  0  0  0  0
  150.7939  139.1243  154.5055 C   0  0  0  0  0  0  0  0  0  0  0  0
  150.7055  137.8002  154.1836 C   0  0  0  0  0  0  0  0  0  0  0  0
  150.5783  137.0920  155.3622 N   0  0  0  0  0  0  0  0  0  0  0  0
  150.4485  135.6561  155.5420 C   0  0  0  0  0  0  0  0  0  0  0  0
  148.9810  135.2388  155.6695 C   0  0  0  0  0  0  0  0  0  0  0  0
  148.1788  135.5081  154.6363 N   0  0  0  0  0  0  0  0  0  0  0  0
  148.5751  134.6789  156.6857 O   0  0  0  0  0  0  0  0  0  0  0  0
  150.5726  137.9078  156.4395 N   0  0  0  0  0  0  0  0  0  0  0  0
  152.4024  142.0751  159.6184 C   0  0  0  0  0  0  0  0  0  0  0  0
  152.4247  143.4828  160.2380 C   0  0  0  0  0  0  0  0  0  0  0  0
  152.9365  143.6164  161.3499 O   0  0  0  0  0  0  0  0  0  0  0  0
  151.4896  145.9068  161.0864 H   0  0  0  0  0  0  0  0  0  0  0  0
  151.4342  146.6033  159.4753 H   0  0  0  0  0  0  0  0  0  0  0  0
  152.9903  146.2197  160.2057 H   0  0  0  0  0  0  0  0  0  0  0  0
  150.1543  144.4697  158.4365 H   0  0  0  0  0  0  0  0  0  0  0  0
  151.4781  145.2629  157.6124 H   0  0  0  0  0  0  0  0  0  0  0  0
  150.8784  143.0112  156.6407 H   0  0  0  0  0  0  0  0  0  0  0  0
  152.5607  143.1734  157.0925 H   0  0  0  0  0  0  0  0  0  0  0  0
  150.4040  141.8962  158.8371 H   0  0  0  0  0  0  0  0  0  0  0  0
  149.9643  140.8928  156.6793 H   0  0  0  0  0  0  0  0  0  0  0  0
  150.9034  139.9490  153.8179 H   0  0  0  0  0  0  0  0  0  0  0  0
  150.7249  137.3067  153.2230 H   0  0  0  0  0  0  0  0  0  0  0  0
  150.8976  135.1381  154.6931 H   0  0  0  0  0  0  0  0  0  0  0  0
  151.0128  135.3664  156.4296 H   0  0  0  0  0  0  0  0  0  0  0  0
  147.2030  135.2517  154.6731 H   0  0  0  0  0  0  0  0  0  0  0  0
  148.5533  135.9685  153.8195 H   0  0  0  0  0  0  0  0  0  0  0  0
  152.1603  141.3526  160.3991 H   0  0  0  0  0  0  0  0  0  0  0  0
  153.4224  141.8530  159.3006 H   0  0  0  0  0  0  0  0  0  0  0  0
  1  2  1  0  0  0  0
  1 21  1  0  0  0  0
  1 22  1  0  0  0  0
  1 23  1  0  0  0  0
  2 19  1  0  0  0  0
  2  3  1  0  0  0  0
  3  4  1  0  0  0  0
  3 24  1  0  0  0  0
  3 25  1  0  0  0  0
  4  5  1  0  0  0  0
  4 26  1  0  0  0  0
  4 27  1  0  0  0  0
  5  6  1  0  0  0  0
  5 18  1  0  0  0  0
  5 28  1  0  0  0  0
  6  7  2  0  0  0  0
  6  8  1  0  0  0  0
  8  9  1  0  0  0  0
  8 29  1  0  0  0  0
  9 17  2  0  0  0  0
  9 10  1  0  0  0  0
 10 11  2  0  0  0  0
 10 30  1  0  0  0  0
 11 12  1  0  0  0  0
 11 31  1  0  0  0  0
 12 13  1  0  0  0  0
 12 17  1  0  0  0  0
 13 14  1  0  0  0  0
 13 32  1  0  0  0  0
 13 33  1  0  0  0  0
 14 15  1  0  0  0  0
 14 16  2  0  0  0  0
 15 34  1  0  0  0  0
 15 35  1  0  0  0  0
 18 19  1  0  0  0  0
 18 36  1  0  0  0  0
 18 37  1  0  0  0  0
 19 20  2  0  0  0  0
M  END
> <s_m_source_file>
AV-unprocessed.smi

> <i_m_source_file_index>
1480

> <i_lp_mmshare_version>
43012

> <i_f3d_flags>
0

> <s_epik_input>
W0NIM11OMVtDSDJdW0NIMl1bQ0BIXShbQ0gyXUMxPU8pQyg9TylbTkhdYzJbY0hdW2NIXW4objIpW0NIMl1DKD1PKVtOSDJd

> <s_epik_cmdline>
J2VwaWtfcHl0aG9uJywgJy1waCcsICc3LjAnLCAnLXRuJywgJzgnLCAnLW1hJywgJzIwMCcsICctbWV0YWxfYmluZGluZycsICctaW1hZScsICc8aW5maWxlLm1hZT4nLCAnLW9tYWUnLCAnPG91dGZpbGUubWFlPic=

> <r_lp_tautomer_probability>
1

> <r_epik_Ionization_Penalty>
3.93272e-06

> <r_epik_Ionization_Penalty_Charging>
0

> <r_epik_Ionization_Penalty_Neutral>
3.93272e-06

> <r_epik_State_Penalty>
-0

> <r_epik_Charging_Adjusted_Penalty>
0

> <i_epik_Tot_Q>
0

> <i_epik_Tot_abs_Q>
0

> <r_epik_Metal_State_Penalty>
-0

> <b_epik_Metal_Only>
0

> <s_lp_Force_Field>
OPLS_2005

> <r_lp_Energy>
17.1692

> <b_lp_Chiralities_Consistent>
1

> <s_lp_Variant>
AV-unprocessed.smi:1480-1

> <Gold.Version>
5.8.1

> <Gold.Id.Protein>
6NUR|6NUR_protein|mol2

> <Gold.PLP.Fitness>
44.3437

> <Gold.PLP.PLP>
-37.5968

> <Gold.PLP.part.hbond>
-2.0000

> <Gold.PLP.part.metal>
0.0000

> <Gold.PLP.part.buried>
-1.2152

> <Gold.PLP.part.nonpolar>
-33.0289

> <Gold.PLP.part.repulsive>
0.1691

> <Gold.PLP.ligand.clash>
0.0000

> <Gold.PLP.ligand.torsion>
1.1194

> <Gold.PLP.Chemscore.Hbond>
1.9913

> <Gold.PLP.Chemscore.CHOScore>
1.0000

> <Gold.PLP.Chemscore.Metal>
0.0000

> <Gold.Chemscore.Hbonds>
donor molecule, donor type, donor heavy atom, donor atom, acceptor molecule, acceptor atom, score
      L1  H    15    35       P1  7948  1.00
      P1  H  7997  8010       L1     7  0.81
      L1  C    11    31       P1  7948  0.26
      L1  C    11    31       P1  7949  0.71

> <Gold.PLP.Chemscore.Internal.Correction>
0.0119

> <Gold.Rescore>
     Score         DG    S(hbond)    S(metal)    S(lipo)     H(rot)  DE(clash)    DE(int)     intcor
     13.89     -15.31       1.95        0.00      72.76       2.03       0.43       0.99       ----

> <Gold.Chemscore.Fitness>
13.8912

> <Gold.Chemscore.DG>
-15.3083

> <Gold.Chemscore.ZeroCoef>
-5.4800

> <Gold.Chemscore.Hbond>
1.9474

> <Gold.Chemscore.Metal>
0.0000

> <Gold.Chemscore.Lipo>
72.7584

> <Gold.Chemscore.Internal_Hbond>
0.0000

> <Gold.Chemscore.DEClash>
0.4311

> <Gold.Chemscore.DEInternal>
0.9860

> <Gold.Chemscore.Rot>
2.0269

> <Gold.Chemscore.Internal.Correction>
   9.000000E+99

> <Gold.Chemscore.Hbonds>
donor molecule, donor type, donor heavy atom, donor atom, acceptor molecule, acceptor atom, score
      L1  H    15    35       P1  7948  0.95
      P1  H  7997  8010       L1     7  0.76

> <Gold.Chemscore.Hbond.Weighted>
-6.5043

> <Gold.Chemscore.Metal.Weighted>
-0.0000

> <Gold.Chemscore.Lipo.Weighted>
-8.5127

> <Gold.Chemscore.Internal_Hbond.Weighted>
0.0000

> <Gold.Chemscore.DEClash.Weighted>
0.4311

> <Gold.Chemscore.DEInternal.Weighted>
0.9860

> <Gold.Chemscore.Rot.Weighted>
5.1888

> <Gold.Chemscore.Internal.Correction.Weighted>
   9.000000E+99

> <Gold.Protein.RotatedTorsions>
[ 6907 6896 6895 6894 ] final  102.55 input  -60.11 | X-H torsion
[ 7974 7965 7964 7962 ] final  158.05 input  175.53 | X-H torsion
[ 8008 7997 7996 7995 ] final   35.09 input   59.86 | X-H torsion
[ 10167 10162 10161 10158 ] final  -66.83 input  -65.29 | X-H torsion
[ 10718 10713 10712 10709 ] final  -35.81 input   66.30 | X-H torsion
[ 10763 10752 10751 10750 ] final  151.00 input  -60.55 | X-H torsion
[ 11005 11000 10999 10996 ] final  118.70 input  -57.11 | X-H torsion

> <Gold.Protein.ActiveResidues>
 VAL166  LYS551  ARG553  GLY616  TRP617  ASP618  TYR619  PRO620  LYS621  CYS622 
 ASP623  PHE694  ASN695  SER759  ASP760  ASP761  ALA762  ILE779  LEU786  VAL792 
 PHE793  MET794  SER795  GLU796  ALA797  LYS798  CYS799  TRP800  GLU811  SER814 

> <Gold.Protein.RotatedAtoms>
  152.5320  133.9959  159.7871 H   0  0  0  0  0  0  0  0  0  0  0  0  # atno 6907 bound_to 6896
  151.0186  133.5890  159.2681 H   0  0  0  0  0  0  0  0  0  0  0  0  # atno 6908 bound_to 6896
  151.2937  135.0756  159.9267 H   0  0  0  0  0  0  0  0  0  0  0  0  # atno 6909 bound_to 6896
  144.7868  139.7425  143.6238 H   0  0  0  0  0  0  0  0  0  0  0  0  # atno 7974 bound_to 7965
  155.1654  140.3287  155.4403 H   0  0  0  0  0  0  0  0  0  0  0  0  # atno 8008 bound_to 7997
  156.2528  140.1953  156.6710 H   0  0  0  0  0  0  0  0  0  0  0  0  # atno 8009 bound_to 7997
  154.6375  140.0574  156.9793 H   0  0  0  0  0  0  0  0  0  0  0  0  # atno 8010 bound_to 7997
  140.5628  143.2313  151.6694 H   0  0  0  0  0  0  0  0  0  0  0  0  # atno 10167 bound_to 10162
  156.3342  130.4284  149.7845 H   0  0  0  0  0  0  0  0  0  0  0  0  # atno 10718 bound_to 10713
  154.0966  135.2848  155.3260 H   0  0  0  0  0  0  0  0  0  0  0  0  # atno 10763 bound_to 10752
  154.6584  135.5343  153.7990 H   0  0  0  0  0  0  0  0  0  0  0  0  # atno 10764 bound_to 10752
  153.0394  135.6527  154.1132 H   0  0  0  0  0  0  0  0  0  0  0  0  # atno 10765 bound_to 10752
  139.9119  134.9622  156.7542 H   0  0  0  0  0  0  0  0  0  0  0  0  # atno 11005 bound_to 11000
  146.2103  139.5454  142.9685 LP  0  0  0  0  0  0  0  0  0  0  0  0  # atno 17320 bound_to 7965
  145.5901  141.0371  143.2075 LP  0  0  0  0  0  0  0  0  0  0  0  0  # atno 17321 bound_to 7965
  139.5078  144.3633  152.0541 LP  0  0  0  0  0  0  0  0  0  0  0  0  # atno 17342 bound_to 10162
  140.2761  144.3911  150.6134 LP  0  0  0  0  0  0  0  0  0  0  0  0  # atno 17343 bound_to 10162
  156.5106  130.8170  151.3167 LP  0  0  0  0  0  0  0  0  0  0  0  0  # atno 17370 bound_to 10713
  157.7436  130.9915  150.2603 LP  0  0  0  0  0  0  0  0  0  0  0  0  # atno 17371 bound_to 10713
  140.6749  133.9526  155.7877 LP  0  0  0  0  0  0  0  0  0  0  0  0  # atno 17394 bound_to 11000
  141.0551  134.0427  157.3732 LP  0  0  0  0  0  0  0  0  0  0  0  0  # atno 17395 bound_to 11000

$$$$
