AV-unprocessed.smi:2471|AV-procd|sdf|9740|dock7
  -GOLD-   2272013383D 1   1.00000     0.00000
 Structure written by MMmdl.
 40 41  0  0  0  0  0  0  0  0  1 V2000
  153.6178  141.8133  160.5936 C   0  0  0  0  0  0  0  0  0  0  0  0
  152.6974  142.8660  160.0122 C   0  0  0  0  0  0  0  0  0  0  0  0
  152.5045  144.0996  160.6642 C   0  0  0  0  0  0  0  0  0  0  0  0
  151.6405  145.0357  160.0685 C   0  0  0  0  0  0  0  0  0  0  0  0
  151.0091  144.7022  158.8546 C   0  0  0  0  0  0  0  0  0  0  0  0
  151.2569  143.4418  158.2655 C   0  0  0  0  0  0  0  0  0  0  0  0
  150.5735  143.2022  157.0434 N   0  0  0  0  0  0  0  0  0  0  0  0
  150.6093  142.0992  156.2747 C   0  0  0  0  0  0  0  0  0  0  0  0
  151.2550  141.0797  156.5202 O   0  0  0  0  0  0  0  0  0  0  0  0
  149.8403  142.2400  155.1852 N   0  0  0  0  0  0  0  0  0  0  0  0
  149.6570  141.2206  154.1561 C   0  0  0  0  0  0  0  0  0  0  0  0
  148.6160  140.1481  154.5577 C   0  0  1  0  0  0  0  0  0  0  0  0
  147.5534  140.7307  155.5195 C   0  0  0  0  0  0  0  0  0  0  0  0
  146.4867  139.6942  155.9047 C   0  0  0  0  0  0  0  0  0  0  0  0
  145.8096  139.1082  154.6588 C   0  0  0  0  0  0  0  0  0  0  0  0
  146.8508  138.4970  153.7117 C   0  0  0  0  0  0  0  0  0  0  0  0
  147.9280  139.5251  153.3174 C   0  0  2  0  0  0  0  0  0  0  0  0
  148.8789  138.8591  152.5101 O   0  0  0  0  0  0  0  0  0  0  0  0
  152.0931  142.5465  158.8477 N   0  0  0  0  0  0  0  0  0  0  0  0
  153.8941  142.0543  161.6205 H   0  0  0  0  0  0  0  0  0  0  0  0
  154.5305  141.7425  160.0016 H   0  0  0  0  0  0  0  0  0  0  0  0
  153.1313  140.8372  160.5942 H   0  0  0  0  0  0  0  0  0  0  0  0
  153.0045  144.3251  161.5947 H   0  0  0  0  0  0  0  0  0  0  0  0
  151.4643  145.9941  160.5342 H   0  0  0  0  0  0  0  0  0  0  0  0
  150.3420  145.4105  158.3846 H   0  0  0  0  0  0  0  0  0  0  0  0
  149.9936  143.9598  156.7152 H   0  0  0  0  0  0  0  0  0  0  0  0
  149.3436  143.1098  155.0590 H   0  0  0  0  0  0  0  0  0  0  0  0
  149.3419  141.7191  153.2391 H   0  0  0  0  0  0  0  0  0  0  0  0
  150.6226  140.7635  153.9347 H   0  0  0  0  0  0  0  0  0  0  0  0
  149.1361  139.3463  155.0852 H   0  0  0  0  0  0  0  0  0  0  0  0
  148.0265  141.1026  156.4286 H   0  0  0  0  0  0  0  0  0  0  0  0
  147.0686  141.5893  155.0528 H   0  0  0  0  0  0  0  0  0  0  0  0
  146.9472  138.8927  156.4839 H   0  0  0  0  0  0  0  0  0  0  0  0
  145.7389  140.1537  156.5516 H   0  0  0  0  0  0  0  0  0  0  0  0
  145.0819  138.3510  154.9515 H   0  0  0  0  0  0  0  0  0  0  0  0
  145.2534  139.8897  154.1393 H   0  0  0  0  0  0  0  0  0  0  0  0
  147.3183  137.6393  154.1986 H   0  0  0  0  0  0  0  0  0  0  0  0
  146.3551  138.1124  152.8197 H   0  0  0  0  0  0  0  0  0  0  0  0
  147.4695  140.3144  152.7200 H   0  0  0  0  0  0  0  0  0  0  0  0
  149.1250  139.4313  151.7995 H   0  0  0  0  0  0  0  0  0  0  0  0
  1  2  1  0  0  0  0
  1 20  1  0  0  0  0
  1 21  1  0  0  0  0
  1 22  1  0  0  0  0
  2 19  1  0  0  0  0
  2  3  2  0  0  0  0
  3  4  1  0  0  0  0
  3 23  1  0  0  0  0
  4  5  2  0  0  0  0
  4 24  1  0  0  0  0
  5  6  1  0  0  0  0
  5 25  1  0  0  0  0
  6  7  1  0  0  0  0
  6 19  2  0  0  0  0
  7  8  1  0  0  0  0
  7 26  1  0  0  0  0
  8  9  2  0  0  0  0
  8 10  1  0  0  0  0
 10 11  1  0  0  0  0
 10 27  1  0  0  0  0
 11 12  1  0  0  0  0
 11 28  1  0  0  0  0
 11 29  1  0  0  0  0
 12 17  1  0  0  0  0
 12 13  1  0  0  0  0
 12 30  1  0  0  0  0
 13 14  1  0  0  0  0
 13 31  1  0  0  0  0
 13 32  1  0  0  0  0
 14 15  1  0  0  0  0
 14 33  1  0  0  0  0
 14 34  1  0  0  0  0
 15 16  1  0  0  0  0
 15 35  1  0  0  0  0
 15 36  1  0  0  0  0
 16 17  1  0  0  0  0
 16 37  1  0  0  0  0
 16 38  1  0  0  0  0
 17 18  1  0  0  0  0
 17 39  1  0  0  0  0
 18 40  1  0  0  0  0
M  END
> <s_m_source_file>
AV-unprocessed.smi

> <i_m_source_file_index>
2471

> <i_lp_mmshare_version>
43012

> <i_f3d_flags>
0

> <s_epik_input>
W0NIM11jMVtjSF1bY0hdW2NIXWMobjEpW05IXUMoPU8pW05IXVtDSDJdW0NAQEhdMltDSDJdW0NIMl1bQ0gyXVtDSDJdW0NASF0yW09IXQ==

> <s_epik_cmdline>
J2VwaWtfcHl0aG9uJywgJy1waCcsICc3LjAnLCAnLXRuJywgJzgnLCAnLW1hJywgJzIwMCcsICctbWV0YWxfYmluZGluZycsICctaW1hZScsICc8aW5maWxlLm1hZT4nLCAnLW9tYWUnLCAnPG91dGZpbGUubWFlPic=

> <r_lp_tautomer_probability>
1

> <r_epik_Ionization_Penalty>
8.52237e-05

> <r_epik_Ionization_Penalty_Charging>
0

> <r_epik_Ionization_Penalty_Neutral>
8.52237e-05

> <r_epik_State_Penalty>
-0

> <r_epik_Charging_Adjusted_Penalty>
0

> <i_epik_Tot_Q>
0

> <i_epik_Tot_abs_Q>
0

> <r_epik_Metal_State_Penalty>
-0

> <b_epik_Metal_Only>
0

> <s_lp_Force_Field>
OPLS_2005

> <r_lp_Energy>
14.0215

> <b_lp_Chiralities_Consistent>
1

> <s_lp_Variant>
AV-unprocessed.smi:2471-4

> <Gold.Version>
5.8.1

> <Gold.Id.Protein>
6NUR|6NUR_protein|mol2

> <Gold.PLP.Fitness>
44.3011

> <Gold.PLP.PLP>
-36.3294

> <Gold.PLP.part.hbond>
-4.0000

> <Gold.PLP.part.metal>
0.0000

> <Gold.PLP.part.buried>
-5.2472

> <Gold.PLP.part.nonpolar>
-27.2272

> <Gold.PLP.part.repulsive>
0.2297

> <Gold.PLP.ligand.clash>
0.0000

> <Gold.PLP.ligand.torsion>
0.5166

> <Gold.PLP.Chemscore.Hbond>
3.0000

> <Gold.PLP.Chemscore.CHOScore>
0.0000

> <Gold.PLP.Chemscore.Metal>
0.0000

> <Gold.Chemscore.Hbonds>
donor molecule, donor type, donor heavy atom, donor atom, acceptor molecule, acceptor atom, score
      L1  H     7    26       P1  8028  1.00
      L1  H    10    27       P1  8028  1.00

> <Gold.PLP.Chemscore.Internal.Correction>
0.0048

> <Gold.Rescore>
     Score         DG    S(hbond)    S(metal)    S(lipo)     H(rot)  DE(clash)    DE(int)     intcor
     18.86     -20.73       2.95        0.00      84.07       1.73       0.11       1.76       ----

> <Gold.Chemscore.Fitness>
18.8649

> <Gold.Chemscore.DG>
-20.7341

> <Gold.Chemscore.ZeroCoef>
-5.4800

> <Gold.Chemscore.Hbond>
2.9512

> <Gold.Chemscore.Metal>
0.0000

> <Gold.Chemscore.Lipo>
84.0674

> <Gold.Chemscore.Internal_Hbond>
0.0000

> <Gold.Chemscore.DEClash>
0.1057

> <Gold.Chemscore.DEInternal>
1.7634

> <Gold.Chemscore.Rot>
1.7339

> <Gold.Chemscore.Internal.Correction>
   9.000000E+99

> <Gold.Chemscore.Hbonds>
donor molecule, donor type, donor heavy atom, donor atom, acceptor molecule, acceptor atom, score
      L1  H     7    26       P1  8028  0.98
      L1  H    10    27       P1  8028  0.95

> <Gold.Chemscore.Hbond.Weighted>
-9.8569

> <Gold.Chemscore.Metal.Weighted>
-0.0000

> <Gold.Chemscore.Lipo.Weighted>
-9.8359

> <Gold.Chemscore.Internal_Hbond.Weighted>
0.0000

> <Gold.Chemscore.DEClash.Weighted>
0.1057

> <Gold.Chemscore.DEInternal.Weighted>
1.7634

> <Gold.Chemscore.Rot.Weighted>
4.4387

> <Gold.Chemscore.Internal.Correction.Weighted>
   9.000000E+99

> <Gold.Protein.RotatedTorsions>
[ 6907 6896 6895 6894 ] final   -9.72 input  -60.11 | X-H torsion
[ 7974 7965 7964 7962 ] final   85.41 input  175.53 | X-H torsion
[ 8008 7997 7996 7995 ] final -140.05 input   59.86 | X-H torsion
[ 10167 10162 10161 10158 ] final  -59.75 input  -65.29 | X-H torsion
[ 10718 10713 10712 10709 ] final -148.26 input   66.30 | X-H torsion
[ 10763 10752 10751 10750 ] final   14.61 input  -60.55 | X-H torsion
[ 11005 11000 10999 10996 ] final   27.93 input  -57.11 | X-H torsion

> <Gold.Protein.ActiveResidues>
 VAL166  LYS551  ARG553  GLY616  TRP617  ASP618  TYR619  PRO620  LYS621  CYS622 
 ASP623  PHE694  ASN695  SER759  ASP760  ASP761  ALA762  ILE779  LEU786  VAL792 
 PHE793  MET794  SER795  GLU796  ALA797  LYS798  CYS799  TRP800  GLU811  SER814 

> <Gold.Protein.RotatedAtoms>
  151.4132  135.0988  159.9591 H   0  0  0  0  0  0  0  0  0  0  0  0  # atno 6907 bound_to 6896
  152.5013  133.8777  159.7341 H   0  0  0  0  0  0  0  0  0  0  0  0  # atno 6908 bound_to 6896
  150.9277  133.6747  159.2846 H   0  0  0  0  0  0  0  0  0  0  0  0  # atno 6909 bound_to 6896
  145.5859  139.2331  143.2326 H   0  0  0  0  0  0  0  0  0  0  0  0  # atno 7974 bound_to 7965
  155.4549  140.0541  157.2997 H   0  0  0  0  0  0  0  0  0  0  0  0  # atno 8008 bound_to 7997
  154.4761  140.2061  155.9830 H   0  0  0  0  0  0  0  0  0  0  0  0  # atno 8009 bound_to 7997
  156.1134  140.3200  155.8110 H   0  0  0  0  0  0  0  0  0  0  0  0  # atno 8010 bound_to 7997
  140.6115  143.2389  151.5697 H   0  0  0  0  0  0  0  0  0  0  0  0  # atno 10167 bound_to 10162
  156.4180  130.8015  151.2236 H   0  0  0  0  0  0  0  0  0  0  0  0  # atno 10718 bound_to 10713
  153.1605  135.6795  153.8749 H   0  0  0  0  0  0  0  0  0  0  0  0  # atno 10763 bound_to 10752
  153.8146  135.3138  155.3405 H   0  0  0  0  0  0  0  0  0  0  0  0  # atno 10764 bound_to 10752
  154.7929  135.4824  154.0182 H   0  0  0  0  0  0  0  0  0  0  0  0  # atno 10765 bound_to 10752
  140.3210  134.2543  155.7717 H   0  0  0  0  0  0  0  0  0  0  0  0  # atno 11005 bound_to 11000
  146.1682  140.6685  142.9245 LP  0  0  0  0  0  0  0  0  0  0  0  0  # atno 17320 bound_to 7965
  144.7373  140.4844  143.6894 LP  0  0  0  0  0  0  0  0  0  0  0  0  # atno 17321 bound_to 7965
  139.5365  144.2766  152.1262 LP  0  0  0  0  0  0  0  0  0  0  0  0  # atno 17342 bound_to 10162
  140.1967  144.4699  150.6452 LP  0  0  0  0  0  0  0  0  0  0  0  0  # atno 17343 bound_to 10162
  157.7508  131.0237  150.3844 LP  0  0  0  0  0  0  0  0  0  0  0  0  # atno 17370 bound_to 10713
  156.4156  130.3943  149.6861 LP  0  0  0  0  0  0  0  0  0  0  0  0  # atno 17371 bound_to 10713
  141.2086  133.7772  157.0046 LP  0  0  0  0  0  0  0  0  0  0  0  0  # atno 17394 bound_to 11000
  140.0942  134.9574  157.1823 LP  0  0  0  0  0  0  0  0  0  0  0  0  # atno 17395 bound_to 11000

$$$$
