AV-unprocessed.smi:2168|AV-procd|sdf|8821|dock6
  -GOLD-   2272012 13D 1   1.00000     0.00000
 Structure written by MMmdl.
 46 47  0  0  0  0  0  0  0  0  3 V2000
  153.4378  128.7924  155.1192 C   0  0  0  0  0  0  0  0  0  0  0  0
  153.2772  130.3209  155.1585 C   0  0  0  0  0  0  0  0  0  0  0  0
  153.0391  130.8433  156.5194 N   0  0  0  0  0  0  0  0  0  0  0  0
  153.8861  131.9701  156.9601 C   0  0  0  0  0  0  0  0  0  0  0  0
  154.5532  131.7247  158.3220 C   0  0  0  0  0  0  0  0  0  0  0  0
  151.5752  130.4539  157.3794 S   0  0  0  0  0  0  0  0  0  0  0  0
  151.6496  129.0176  157.6943 O   0  0  0  0  0  0  0  0  0  0  0  0
  151.4910  131.4008  158.5034 O   0  0  0  0  0  0  0  0  0  0  0  0
  150.5360  130.7973  156.1846 N   0  5  0  0  0  0  0  0  0  0  0  0
  150.7096  132.0188  155.4258 C   0  0  0  0  0  0  0  0  0  0  0  0
  149.5792  132.1991  154.4256 C   0  0  0  0  0  0  0  0  0  0  0  0
  148.6894  131.1402  154.1368 C   0  0  0  0  0  0  0  0  0  0  0  0
  147.6387  131.3448  153.2181 C   0  0  0  0  0  0  0  0  0  0  0  0
  147.4810  132.6067  152.5903 C   0  0  0  0  0  0  0  0  0  0  0  0
  146.4512  132.9055  151.6695 N   0  0  0  0  0  0  0  0  0  0  0  0
  145.6688  134.1210  151.8787 C   0  0  0  0  0  0  0  0  0  0  0  0
  144.8296  134.4481  150.6320 C   0  0  0  0  0  0  0  0  0  0  0  0
  144.0352  133.3225  150.2781 O   0  0  0  0  0  0  0  0  0  0  0  0
  144.8393  132.1993  149.9385 C   0  0  0  0  0  0  0  0  0  0  0  0
  145.6781  131.7749  151.1554 C   0  0  0  0  0  0  0  0  0  0  0  0
  148.3632  133.5875  152.9029 N   0  3  0  0  0  0  0  0  0  0  0  0
  149.3823  133.4371  153.7773 C   0  0  0  0  0  0  0  0  0  0  0  0
  153.5365  128.4450  154.0910 H   0  0  0  0  0  0  0  0  0  0  0  0
  152.5833  128.2802  155.5593 H   0  0  0  0  0  0  0  0  0  0  0  0
  154.3307  128.4708  155.6551 H   0  0  0  0  0  0  0  0  0  0  0  0
  154.1757  130.7901  154.7573 H   0  0  0  0  0  0  0  0  0  0  0  0
  152.4608  130.6236  154.5023 H   0  0  0  0  0  0  0  0  0  0  0  0
  154.6535  132.1627  156.2111 H   0  0  0  0  0  0  0  0  0  0  0  0
  153.2760  132.8725  157.0071 H   0  0  0  0  0  0  0  0  0  0  0  0
  155.2151  132.5526  158.5756 H   0  0  0  0  0  0  0  0  0  0  0  0
  155.1538  130.8155  158.3184 H   0  0  0  0  0  0  0  0  0  0  0  0
  153.8180  131.6434  159.1220 H   0  0  0  0  0  0  0  0  0  0  0  0
  150.7360  132.8977  156.0711 H   0  0  0  0  0  0  0  0  0  0  0  0
  151.6527  132.0254  154.8787 H   0  0  0  0  0  0  0  0  0  0  0  0
  148.7936  130.1742  154.6122 H   0  0  0  0  0  0  0  0  0  0  0  0
  146.9750  130.5193  153.0124 H   0  0  0  0  0  0  0  0  0  0  0  0
  145.0203  133.9867  152.7453 H   0  0  0  0  0  0  0  0  0  0  0  0
  146.3250  134.9671  152.0836 H   0  0  0  0  0  0  0  0  0  0  0  0
  144.1749  135.2961  150.8330 H   0  0  0  0  0  0  0  0  0  0  0  0
  145.4698  134.7328  149.7954 H   0  0  0  0  0  0  0  0  0  0  0  0
  144.1917  131.3803  149.6260 H   0  0  0  0  0  0  0  0  0  0  0  0
  145.4801  132.4393  149.0884 H   0  0  0  0  0  0  0  0  0  0  0  0
  146.3232  130.9479  150.8591 H   0  0  0  0  0  0  0  0  0  0  0  0
  145.0264  131.4051  151.9479 H   0  0  0  0  0  0  0  0  0  0  0  0
  149.9949  134.3152  153.9306 H   0  0  0  0  0  0  0  0  0  0  0  0
  148.2474  134.4982  152.4591 H   0  0  0  0  0  0  0  0  0  0  0  0
  1  2  1  0  0  0  0
  1 23  1  0  0  0  0
  1 24  1  0  0  0  0
  1 25  1  0  0  0  0
  2  3  1  0  0  0  0
  2 26  1  0  0  0  0
  2 27  1  0  0  0  0
  3  4  1  0  0  0  0
  3  6  1  0  0  0  0
  4  5  1  0  0  0  0
  4 28  1  0  0  0  0
  4 29  1  0  0  0  0
  5 30  1  0  0  0  0
  5 31  1  0  0  0  0
  5 32  1  0  0  0  0
  6  7  2  0  0  0  0
  6  8  2  0  0  0  0
  6  9  1  0  0  0  0
  9 10  1  0  0  0  0
 10 11  1  0  0  0  0
 10 33  1  0  0  0  0
 10 34  1  0  0  0  0
 11 22  1  0  0  0  0
 11 12  2  0  0  0  0
 12 13  1  0  0  0  0
 12 35  1  0  0  0  0
 13 14  2  0  0  0  0
 13 36  1  0  0  0  0
 14 15  1  0  0  0  0
 14 21  1  0  0  0  0
 15 20  1  0  0  0  0
 15 16  1  0  0  0  0
 16 17  1  0  0  0  0
 16 37  1  0  0  0  0
 16 38  1  0  0  0  0
 17 18  1  0  0  0  0
 17 39  1  0  0  0  0
 17 40  1  0  0  0  0
 18 19  1  0  0  0  0
 19 20  1  0  0  0  0
 19 41  1  0  0  0  0
 19 42  1  0  0  0  0
 20 43  1  0  0  0  0
 20 44  1  0  0  0  0
 21 22  2  0  0  0  0
 21 46  1  0  0  0  0
 22 45  1  0  0  0  0
M  CHG  1   9  -1
M  CHG  1  21   1
M  END
> <s_m_source_file>
AV-unprocessed.smi

> <i_m_source_file_index>
2168

> <i_lp_mmshare_version>
43012

> <i_f3d_flags>
0

> <s_epik_input>
W0NIM11bQ0gyXU4oW0NIMl1bQ0gzXSlTKD1PKSg9TylbTkhdW0NIMl1jMVtjSF1bY0hdYyhuW2NIXTEpTjJbQ0gyXVtDSDJdT1tDSDJdW0NIMl0y

> <s_epik_cmdline>
J2VwaWtfcHl0aG9uJywgJy1waCcsICc3LjAnLCAnLXRuJywgJzgnLCAnLW1hJywgJzIwMCcsICctbWV0YWxfYmluZGluZycsICctaW1hZScsICc8aW5maWxlLm1hZT4nLCAnLW9tYWUnLCAnPG91dGZpbGUubWFlPic=

> <r_lp_tautomer_probability>
0.999994

> <r_epik_Ionization_Penalty>
2.67026

> <r_epik_Ionization_Penalty_Charging>
2.67026

> <r_epik_Ionization_Penalty_Neutral>
4.07977e-08

> <r_epik_State_Penalty>
4.05768

> <r_epik_Charging_Adjusted_Penalty>
6.72795

> <i_epik_Tot_Q>
0

> <i_epik_Tot_abs_Q>
2

> <r_epik_Metal_State_Penalty>
2.91237

> <b_epik_Metal_Only>
1

> <s_lp_Force_Field>
OPLS_2005

> <r_lp_Energy>
13.0843

> <b_lp_Chiralities_Consistent>
1

> <s_lp_Variant>
AV-unprocessed.smi:2168-4

> <Gold.Version>
5.8.1

> <Gold.Id.Protein>
6NUR|6NUR_protein|mol2

> <Gold.PLP.Fitness>
42.8197

> <Gold.PLP.PLP>
-34.3172

> <Gold.PLP.part.hbond>
-2.0000

> <Gold.PLP.part.metal>
0.0000

> <Gold.PLP.part.buried>
-4.2622

> <Gold.PLP.part.nonpolar>
-28.1942

> <Gold.PLP.part.repulsive>
0.3402

> <Gold.PLP.ligand.clash>
0.0000

> <Gold.PLP.ligand.torsion>
2.1760

> <Gold.PLP.Chemscore.Hbond>
3.0000

> <Gold.PLP.Chemscore.CHOScore>
0.0000

> <Gold.PLP.Chemscore.Metal>
0.0000

> <Gold.Chemscore.Hbonds>
donor molecule, donor type, donor heavy atom, donor atom, acceptor molecule, acceptor atom, score
      L1  H    21    46       P1  7948  1.80
      P1  H  6896  6909       L1     8  0.99

> <Gold.PLP.Chemscore.Internal.Correction>
3.8545

> <Gold.Rescore>
     Score         DG    S(hbond)    S(metal)    S(lipo)     H(rot)  DE(clash)    DE(int)     intcor
     12.17     -14.66       1.42        0.00      75.40       1.72       0.00       2.49       ----

> <Gold.Chemscore.Fitness>
12.1719

> <Gold.Chemscore.DG>
-14.6586

> <Gold.Chemscore.ZeroCoef>
-5.4800

> <Gold.Chemscore.Hbond>
1.4219

> <Gold.Chemscore.Metal>
0.0000

> <Gold.Chemscore.Lipo>
75.4018

> <Gold.Chemscore.Internal_Hbond>
0.0000

> <Gold.Chemscore.DEClash>
0.0009

> <Gold.Chemscore.DEInternal>
2.4858

> <Gold.Chemscore.Rot>
1.7159

> <Gold.Chemscore.Internal.Correction>
   9.000000E+99

> <Gold.Chemscore.Hbonds>
donor molecule, donor type, donor heavy atom, donor atom, acceptor molecule, acceptor atom, score
      L1  H    21    46       P1  7948  0.17
      P1  H  6896  6909       L1     8  0.92

> <Gold.Chemscore.Hbond.Weighted>
-4.7492

> <Gold.Chemscore.Metal.Weighted>
-0.0000

> <Gold.Chemscore.Lipo.Weighted>
-8.8220

> <Gold.Chemscore.Internal_Hbond.Weighted>
0.0000

> <Gold.Chemscore.DEClash.Weighted>
0.0009

> <Gold.Chemscore.DEInternal.Weighted>
2.4858

> <Gold.Chemscore.Rot.Weighted>
4.3926

> <Gold.Chemscore.Internal.Correction.Weighted>
   9.000000E+99

> <Gold.Protein.RotatedTorsions>
[ 6907 6896 6895 6894 ] final  -47.32 input  -60.11 | X-H torsion
[ 7974 7965 7964 7962 ] final -176.28 input  175.53 | X-H torsion
[ 8008 7997 7996 7995 ] final  -90.03 input   59.86 | X-H torsion
[ 10167 10162 10161 10158 ] final  -55.02 input  -65.29 | X-H torsion
[ 10718 10713 10712 10709 ] final -154.94 input   66.30 | X-H torsion
[ 10763 10752 10751 10750 ] final  -41.89 input  -60.55 | X-H torsion
[ 11005 11000 10999 10996 ] final   66.80 input  -57.11 | X-H torsion

> <Gold.Protein.ActiveResidues>
 VAL166  LYS551  ARG553  GLY616  TRP617  ASP618  TYR619  PRO620  LYS621  CYS622 
 ASP623  PHE694  ASN695  SER759  ASP760  ASP761  ALA762  ILE779  LEU786  VAL792 
 PHE793  MET794  SER795  GLU796  ALA797  LYS798  CYS799  TRP800  GLU811  SER814 

> <Gold.Protein.RotatedAtoms>
  150.9020  134.8433  159.7366 H   0  0  0  0  0  0  0  0  0  0  0  0  # atno 6907 bound_to 6896
  152.4898  134.4488  159.9577 H   0  0  0  0  0  0  0  0  0  0  0  0  # atno 6908 bound_to 6896
  151.4539  133.3571  159.2834 H   0  0  0  0  0  0  0  0  0  0  0  0  # atno 6909 bound_to 6896
  144.7127  140.1193  143.6406 H   0  0  0  0  0  0  0  0  0  0  0  0  # atno 7974 bound_to 7965
  154.6937  140.0535  157.0389 H   0  0  0  0  0  0  0  0  0  0  0  0  # atno 8008 bound_to 7997
  155.0781  140.3206  155.4591 H   0  0  0  0  0  0  0  0  0  0  0  0  # atno 8009 bound_to 7997
  156.2737  140.2070  156.5909 H   0  0  0  0  0  0  0  0  0  0  0  0  # atno 8010 bound_to 7997
  140.6398  143.2501  151.5021 H   0  0  0  0  0  0  0  0  0  0  0  0  # atno 10167 bound_to 10162
  156.5060  130.8413  151.2628 H   0  0  0  0  0  0  0  0  0  0  0  0  # atno 10718 bound_to 10713
  153.9700  135.6729  153.4747 H   0  0  0  0  0  0  0  0  0  0  0  0  # atno 10763 bound_to 10752
  153.0797  135.4930  154.8474 H   0  0  0  0  0  0  0  0  0  0  0  0  # atno 10764 bound_to 10752
  154.7224  135.3120  154.8986 H   0  0  0  0  0  0  0  0  0  0  0  0  # atno 10765 bound_to 10752
  139.9810  134.6744  156.0263 H   0  0  0  0  0  0  0  0  0  0  0  0  # atno 11005 bound_to 11000
  145.9385  139.2653  143.1283 LP  0  0  0  0  0  0  0  0  0  0  0  0  # atno 17320 bound_to 7965
  145.9449  140.8952  143.0289 LP  0  0  0  0  0  0  0  0  0  0  0  0  # atno 17321 bound_to 7965
  139.5607  144.2163  152.1686 LP  0  0  0  0  0  0  0  0  0  0  0  0  # atno 17342 bound_to 10162
  140.1430  144.5184  150.6732 LP  0  0  0  0  0  0  0  0  0  0  0  0  # atno 17343 bound_to 10162
  157.7457  130.9965  150.2784 LP  0  0  0  0  0  0  0  0  0  0  0  0  # atno 17370 bound_to 10713
  156.3286  130.3797  149.7511 LP  0  0  0  0  0  0  0  0  0  0  0  0  # atno 17371 bound_to 10713
  141.1482  133.6552  156.3931 LP  0  0  0  0  0  0  0  0  0  0  0  0  # atno 17394 bound_to 11000
  140.5097  134.6407  157.5280 LP  0  0  0  0  0  0  0  0  0  0  0  0  # atno 17395 bound_to 11000

$$$$
