AV-unprocessed.smi:2217|AV-procd|sdf|8972|dock9
  -GOLD-   2272012183D 1   1.00000     0.00000
 Structure written by MMmdl.
 45 48  0  0  0  0  0  0  0  0  1 V2000
  146.8883  138.8069  151.1623 C   0  0  0  0  0  0  0  0  0  0  0  0
  147.5917  139.6511  152.2040 C   0  0  0  0  0  0  0  0  0  0  0  0
  147.3847  141.0413  152.2784 C   0  0  0  0  0  0  0  0  0  0  0  0
  148.0618  141.7756  153.2710 C   0  0  0  0  0  0  0  0  0  0  0  0
  148.9316  141.1095  154.1641 C   0  0  0  0  0  0  0  0  0  0  0  0
  149.5505  141.9584  155.1288 N   0  0  0  0  0  0  0  0  0  0  0  0
  150.5501  141.7326  156.0082 C   0  0  0  0  0  0  0  0  0  0  0  0
  151.0991  140.6342  156.0770 O   0  0  0  0  0  0  0  0  0  0  0  0
  150.8995  142.7667  156.7888 N   0  0  0  0  0  0  0  0  0  0  0  0
  151.9732  142.7422  157.7746 C   0  0  2  0  0  0  0  0  0  0  0  0
  151.8847  141.5212  158.7038 C   0  0  1  0  0  0  0  0  0  0  0  0
  152.9619  140.4721  158.6634 C   0  0  0  0  0  0  0  0  0  0  0  0
  153.8987  140.9021  159.7957 C   0  0  0  0  0  0  0  0  0  0  0  0
  153.6245  142.2888  159.9834 O   0  0  0  0  0  0  0  0  0  0  0  0
  152.2172  142.4705  159.8453 C   0  0  1  0  0  0  0  0  0  0  0  0
  151.7476  143.6689  158.9928 C   0  0  0  0  0  0  0  0  0  0  0  0
  150.3383  144.1813  159.3044 C   0  0  0  0  0  0  0  0  0  0  0  0
  150.4985  145.2619  160.3738 C   0  0  0  0  0  0  0  0  0  0  0  0
  151.9004  145.8394  160.1582 C   0  0  0  0  0  0  0  0  0  0  0  0
  152.5581  144.9593  159.0888 C   0  0  0  0  0  0  0  0  0  0  0  0
  149.1211  139.7676  154.0829 N   0  0  0  0  0  0  0  0  0  0  0  0
  148.4716  139.0632  153.1324 C   0  0  0  0  0  0  0  0  0  0  0  0
  146.3867  139.4301  150.4213 H   0  0  0  0  0  0  0  0  0  0  0  0
  146.1416  138.1698  151.6365 H   0  0  0  0  0  0  0  0  0  0  0  0
  147.6043  138.1700  150.6421 H   0  0  0  0  0  0  0  0  0  0  0  0
  146.7184  141.5405  151.5904 H   0  0  0  0  0  0  0  0  0  0  0  0
  147.9105  142.8431  153.3422 H   0  0  0  0  0  0  0  0  0  0  0  0
  149.1411  142.8789  155.1938 H   0  0  0  0  0  0  0  0  0  0  0  0
  150.3988  143.6369  156.6738 H   0  0  0  0  0  0  0  0  0  0  0  0
  152.9729  142.8587  157.3497 H   0  0  0  0  0  0  0  0  0  0  0  0
  150.8687  141.1311  158.7910 H   0  0  0  0  0  0  0  0  0  0  0  0
  152.5743  139.4656  158.8229 H   0  0  0  0  0  0  0  0  0  0  0  0
  153.4812  140.4843  157.7045 H   0  0  0  0  0  0  0  0  0  0  0  0
  153.6598  140.3653  160.7149 H   0  0  0  0  0  0  0  0  0  0  0  0
  154.9491  140.7283  159.5622 H   0  0  0  0  0  0  0  0  0  0  0  0
  151.6584  142.2799  160.7628 H   0  0  0  0  0  0  0  0  0  0  0  0
  149.8888  144.6328  158.4193 H   0  0  0  0  0  0  0  0  0  0  0  0
  149.6650  143.3890  159.6331 H   0  0  0  0  0  0  0  0  0  0  0  0
  149.7197  146.0222  160.3068 H   0  0  0  0  0  0  0  0  0  0  0  0
  150.4363  144.8126  161.3658 H   0  0  0  0  0  0  0  0  0  0  0  0
  151.8616  146.8800  159.8345 H   0  0  0  0  0  0  0  0  0  0  0  0
  152.4677  145.8056  161.0890 H   0  0  0  0  0  0  0  0  0  0  0  0
  153.6088  144.7799  159.3171 H   0  0  0  0  0  0  0  0  0  0  0  0
  152.5349  145.4788  158.1302 H   0  0  0  0  0  0  0  0  0  0  0  0
  148.6596  137.9996  153.1151 H   0  0  0  0  0  0  0  0  0  0  0  0
  1  2  1  0  0  0  0
  1 23  1  0  0  0  0
  1 24  1  0  0  0  0
  1 25  1  0  0  0  0
  2 22  1  0  0  0  0
  2  3  2  0  0  0  0
  3  4  1  0  0  0  0
  3 26  1  0  0  0  0
  4  5  2  0  0  0  0
  4 27  1  0  0  0  0
  5  6  1  0  0  0  0
  5 21  1  0  0  0  0
  6  7  1  0  0  0  0
  6 28  1  0  0  0  0
  7  8  2  0  0  0  0
  7  9  1  0  0  0  0
  9 10  1  0  0  0  0
  9 29  1  0  0  0  0
 10 16  1  0  0  0  0
 10 11  1  0  0  0  0
 10 30  1  0  0  0  0
 11 15  1  0  0  0  0
 11 12  1  0  0  0  0
 11 31  1  0  0  0  0
 12 13  1  0  0  0  0
 12 32  1  0  0  0  0
 12 33  1  0  0  0  0
 13 14  1  0  0  0  0
 13 34  1  0  0  0  0
 13 35  1  0  0  0  0
 14 15  1  0  0  0  0
 15 16  1  0  0  0  0
 15 36  1  0  0  0  0
 16 20  1  0  0  0  0
 16 17  1  0  0  0  0
 17 18  1  0  0  0  0
 17 37  1  0  0  0  0
 17 38  1  0  0  0  0
 18 19  1  0  0  0  0
 18 39  1  0  0  0  0
 18 40  1  0  0  0  0
 19 20  1  0  0  0  0
 19 41  1  0  0  0  0
 19 42  1  0  0  0  0
 20 43  1  0  0  0  0
 20 44  1  0  0  0  0
 21 22  2  0  0  0  0
 22 45  1  0  0  0  0
M  END
> <s_m_source_file>
AV-unprocessed.smi

> <i_m_source_file_index>
2217

> <i_lp_mmshare_version>
43012

> <i_f3d_flags>
0

> <s_epik_input>
W0NIM11jMVtjSF1bY0hdYyhuW2NIXTEpW05IXUMoPU8pW05IXVtDQEBIXTJbQ0BASF0oW0NIMl1bQ0gyXU8zKVtDQEhdM0MyNFtDSDJdW0NIMl1bQ0gyXVtDSDJdNA==

> <s_epik_cmdline>
J2VwaWtfcHl0aG9uJywgJy1waCcsICc3LjAnLCAnLXRuJywgJzgnLCAnLW1hJywgJzIwMCcsICctbWV0YWxfYmluZGluZycsICctaW1hZScsICc8aW5maWxlLm1hZT4nLCAnLW9tYWUnLCAnPG91dGZpbGUubWFlPic=

> <r_lp_tautomer_probability>
1

> <r_epik_Ionization_Penalty>
6.14796e-05

> <r_epik_Ionization_Penalty_Charging>
0

> <r_epik_Ionization_Penalty_Neutral>
6.14796e-05

> <r_epik_State_Penalty>
-0

> <r_epik_Charging_Adjusted_Penalty>
0

> <i_epik_Tot_Q>
0

> <i_epik_Tot_abs_Q>
0

> <r_epik_Metal_State_Penalty>
-0

> <b_epik_Metal_Only>
0

> <s_lp_Force_Field>
OPLS_2005

> <r_lp_Energy>
58.5561

> <b_lp_Chiralities_Consistent>
1

> <s_lp_Variant>
AV-unprocessed.smi:2217-5

> <Gold.Version>
5.8.1

> <Gold.Id.Protein>
6NUR|6NUR_protein|mol2

> <Gold.PLP.Fitness>
53.6865

> <Gold.PLP.PLP>
-45.3975

> <Gold.PLP.part.hbond>
-2.0000

> <Gold.PLP.part.metal>
0.0000

> <Gold.PLP.part.buried>
-1.0523

> <Gold.PLP.part.nonpolar>
-41.6267

> <Gold.PLP.part.repulsive>
0.3142

> <Gold.PLP.ligand.clash>
0.0000

> <Gold.PLP.ligand.torsion>
0.2639

> <Gold.PLP.Chemscore.Hbond>
1.8775

> <Gold.PLP.Chemscore.CHOScore>
1.0000

> <Gold.PLP.Chemscore.Metal>
0.0000

> <Gold.Chemscore.Hbonds>
donor molecule, donor type, donor heavy atom, donor atom, acceptor molecule, acceptor atom, score
      L1  H     6    28       P1  8028  1.00
      L1  H     9    29       P1  8028  0.79
      L1  C    22    45       P1  7948  1.00

> <Gold.PLP.Chemscore.Internal.Correction>
0.1842

> <Gold.Rescore>
     Score         DG    S(hbond)    S(metal)    S(lipo)     H(rot)  DE(clash)    DE(int)     intcor
     21.08     -24.99       1.58        0.00     143.48       1.00       1.65       2.26       ----

> <Gold.Chemscore.Fitness>
21.0755

> <Gold.Chemscore.DG>
-24.9854

> <Gold.Chemscore.ZeroCoef>
-5.4800

> <Gold.Chemscore.Hbond>
1.5804

> <Gold.Chemscore.Metal>
0.0000

> <Gold.Chemscore.Lipo>
143.4787

> <Gold.Chemscore.Internal_Hbond>
0.0000

> <Gold.Chemscore.DEClash>
1.6547

> <Gold.Chemscore.DEInternal>
2.2552

> <Gold.Chemscore.Rot>
1.0000

> <Gold.Chemscore.Internal.Correction>
   9.000000E+99

> <Gold.Chemscore.Hbonds>
donor molecule, donor type, donor heavy atom, donor atom, acceptor molecule, acceptor atom, score
      L1  H     6    28       P1  8028  1.00
      L1  H     9    29       P1  8028  0.75

> <Gold.Chemscore.Hbond.Weighted>
-5.2784

> <Gold.Chemscore.Metal.Weighted>
-0.0000

> <Gold.Chemscore.Lipo.Weighted>
-16.7870

> <Gold.Chemscore.Internal_Hbond.Weighted>
0.0000

> <Gold.Chemscore.DEClash.Weighted>
1.6547

> <Gold.Chemscore.DEInternal.Weighted>
2.2552

> <Gold.Chemscore.Rot.Weighted>
2.5600

> <Gold.Chemscore.Internal.Correction.Weighted>
   9.000000E+99

> <Gold.Protein.RotatedTorsions>
[ 6907 6896 6895 6894 ] final  116.74 input  -60.11 | X-H torsion
[ 7974 7965 7964 7962 ] final   70.96 input  175.53 | X-H torsion
[ 8008 7997 7996 7995 ] final  -55.50 input   59.86 | X-H torsion
[ 10167 10162 10161 10158 ] final  136.24 input  -65.29 | X-H torsion
[ 10718 10713 10712 10709 ] final -154.66 input   66.30 | X-H torsion
[ 10763 10752 10751 10750 ] final -127.16 input  -60.55 | X-H torsion
[ 11005 11000 10999 10996 ] final   -2.67 input  -57.11 | X-H torsion

> <Gold.Protein.ActiveResidues>
 VAL166  LYS551  ARG553  GLY616  TRP617  ASP618  TYR619  PRO620  LYS621  CYS622 
 ASP623  PHE694  ASN695  SER759  ASP760  ASP761  ALA762  ILE779  LEU786  VAL792 
 PHE793  MET794  SER795  GLU796  ALA797  LYS798  CYS799  TRP800  GLU811  SER814 

> <Gold.Protein.RotatedAtoms>
  152.4658  133.7919  159.6906 H   0  0  0  0  0  0  0  0  0  0  0  0  # atno 6907 bound_to 6896
  150.8622  133.7617  159.2995 H   0  0  0  0  0  0  0  0  0  0  0  0  # atno 6908 bound_to 6896
  151.5179  135.1069  159.9923 H   0  0  0  0  0  0  0  0  0  0  0  0  # atno 6909 bound_to 6896
  145.7717  139.2846  143.1317 H   0  0  0  0  0  0  0  0  0  0  0  0  # atno 7974 bound_to 7965
  154.4197  140.1151  156.5487 H   0  0  0  0  0  0  0  0  0  0  0  0  # atno 8008 bound_to 7997
  155.6433  140.3496  155.4703 H   0  0  0  0  0  0  0  0  0  0  0  0  # atno 8009 bound_to 7997
  155.9853  140.1168  157.0678 H   0  0  0  0  0  0  0  0  0  0  0  0  # atno 8010 bound_to 7997
  139.5187  144.6475  151.5399 H   0  0  0  0  0  0  0  0  0  0  0  0  # atno 10167 bound_to 10162
  156.5023  130.8397  151.2614 H   0  0  0  0  0  0  0  0  0  0  0  0  # atno 10718 bound_to 10713
  154.8750  135.3971  154.3549 H   0  0  0  0  0  0  0  0  0  0  0  0  # atno 10763 bound_to 10752
  153.4329  135.7025  153.6224 H   0  0  0  0  0  0  0  0  0  0  0  0  # atno 10764 bound_to 10752
  153.4838  135.3763  155.2425 H   0  0  0  0  0  0  0  0  0  0  0  0  # atno 10765 bound_to 10752
  140.6609  133.9321  155.8436 H   0  0  0  0  0  0  0  0  0  0  0  0  # atno 11005 bound_to 11000
  146.0163  140.8389  142.9946 LP  0  0  0  0  0  0  0  0  0  0  0  0  # atno 17320 bound_to 7965
  144.6811  140.2563  143.7325 LP  0  0  0  0  0  0  0  0  0  0  0  0  # atno 17321 bound_to 7965
  140.6265  143.9158  150.6569 LP  0  0  0  0  0  0  0  0  0  0  0  0  # atno 17342 bound_to 10162
  140.2448  143.3637  152.1456 LP  0  0  0  0  0  0  0  0  0  0  0  0  # atno 17343 bound_to 10162
  157.7461  130.9977  150.2827 LP  0  0  0  0  0  0  0  0  0  0  0  0  # atno 17370 bound_to 10713
  156.3321  130.3802  149.7482 LP  0  0  0  0  0  0  0  0  0  0  0  0  # atno 17371 bound_to 10713
  141.0466  134.0546  157.3837 LP  0  0  0  0  0  0  0  0  0  0  0  0  # atno 17394 bound_to 11000
  139.9013  135.0165  156.7282 LP  0  0  0  0  0  0  0  0  0  0  0  0  # atno 17395 bound_to 11000

$$$$
