AV-unprocessed.smi:3063|AV-procd|sdf|11685|dock1
  -GOLD-   2272017 93D 1   1.00000     0.00000
 Structure written by MMmdl.
 44 45  0  0  0  0  0  0  0  0  1 V2000
  146.7096  138.1094  157.0264 C   0  0  0  0  0  0  0  0  0  0  0  0
  146.6489  139.6281  156.8492 C   0  0  0  0  0  0  0  0  0  0  0  0
  146.9516  140.3368  157.8094 O   0  0  0  0  0  0  0  0  0  0  0  0
  146.2495  140.1412  155.6603 N   0  0  0  0  0  0  0  0  0  0  0  0
  145.9905  139.2799  154.4968 C   0  0  0  0  0  0  0  0  0  0  0  0
  147.2712  139.0648  153.6633 C   0  0  0  0  0  0  0  0  0  0  0  0
  147.8870  140.3794  153.1377 C   0  0  0  0  0  0  0  0  0  0  0  0
  148.3300  141.2499  154.2442 N   0  0  0  0  0  0  0  0  0  0  0  0
  149.5401  141.1754  154.8583 C   0  0  0  0  0  0  0  0  0  0  0  0
  150.3019  140.2150  154.7395 O   0  0  0  0  0  0  0  0  0  0  0  0
  149.8442  142.2355  155.6273 N   0  0  0  0  0  0  0  0  0  0  0  0
  151.0334  142.3773  156.4657 C   0  0  2  0  0  0  0  0  0  0  0  0
  150.7854  141.6729  157.8089 C   0  0  0  0  0  0  0  0  0  0  0  0
  151.4567  143.8579  156.6159 C   0  0  0  0  0  0  0  0  0  0  0  0
  151.7287  144.2530  157.9874 N   0  0  0  0  0  0  0  0  0  0  0  0
  152.6869  143.7523  158.8410 C   0  0  0  0  0  0  0  0  0  0  0  0
  152.5720  144.4226  160.0243 C   0  0  0  0  0  0  0  0  0  0  0  0
  151.4939  145.3228  159.7966 C   0  0  0  0  0  0  0  0  0  0  0  0
  150.9879  145.2158  158.5783 N   0  0  0  0  0  0  0  0  0  0  0  0
  147.3061  142.2221  154.6693 C   0  0  0  0  0  0  0  0  0  0  0  0
  146.0905  141.5806  155.3890 C   0  0  0  0  0  0  0  0  0  0  0  0
  145.7747  137.6412  156.7178 H   0  0  0  0  0  0  0  0  0  0  0  0
  146.8774  137.8524  158.0729 H   0  0  0  0  0  0  0  0  0  0  0  0
  147.5273  137.6867  156.4423 H   0  0  0  0  0  0  0  0  0  0  0  0
  145.5856  138.3152  154.8066 H   0  0  0  0  0  0  0  0  0  0  0  0
  145.2172  139.7172  153.8642 H   0  0  0  0  0  0  0  0  0  0  0  0
  148.0084  138.5184  154.2523 H   0  0  0  0  0  0  0  0  0  0  0  0
  147.0333  138.4226  152.8149 H   0  0  0  0  0  0  0  0  0  0  0  0
  148.7049  140.1625  152.4495 H   0  0  0  0  0  0  0  0  0  0  0  0
  147.1475  140.8989  152.5268 H   0  0  0  0  0  0  0  0  0  0  0  0
  149.1745  142.9903  155.6657 H   0  0  0  0  0  0  0  0  0  0  0  0
  151.8534  141.8495  155.9755 H   0  0  0  0  0  0  0  0  0  0  0  0
  151.6462  141.7765  158.4700 H   0  0  0  0  0  0  0  0  0  0  0  0
  150.6097  140.6067  157.6638 H   0  0  0  0  0  0  0  0  0  0  0  0
  149.9162  142.0808  158.3258 H   0  0  0  0  0  0  0  0  0  0  0  0
  152.3506  144.0470  156.0196 H   0  0  0  0  0  0  0  0  0  0  0  0
  150.6861  144.5185  156.2166 H   0  0  0  0  0  0  0  0  0  0  0  0
  153.3623  142.9704  158.5321 H   0  0  0  0  0  0  0  0  0  0  0  0
  153.1656  144.2879  160.9161 H   0  0  0  0  0  0  0  0  0  0  0  0
  151.0659  146.0444  160.4764 H   0  0  0  0  0  0  0  0  0  0  0  0
  147.7277  142.9910  155.3183 H   0  0  0  0  0  0  0  0  0  0  0  0
  146.9587  142.7751  153.7957 H   0  0  0  0  0  0  0  0  0  0  0  0
  145.2052  141.7235  154.7684 H   0  0  0  0  0  0  0  0  0  0  0  0
  145.8594  142.1431  156.2934 H   0  0  0  0  0  0  0  0  0  0  0  0
  1  2  1  0  0  0  0
  1 22  1  0  0  0  0
  1 23  1  0  0  0  0
  1 24  1  0  0  0  0
  2  3  2  0  0  0  0
  2  4  1  0  0  0  0
  4 21  1  0  0  0  0
  4  5  1  0  0  0  0
  5  6  1  0  0  0  0
  5 25  1  0  0  0  0
  5 26  1  0  0  0  0
  6  7  1  0  0  0  0
  6 27  1  0  0  0  0
  6 28  1  0  0  0  0
  7  8  1  0  0  0  0
  7 29  1  0  0  0  0
  7 30  1  0  0  0  0
  8  9  1  0  0  0  0
  8 20  1  0  0  0  0
  9 10  2  0  0  0  0
  9 11  1  0  0  0  0
 11 12  1  0  0  0  0
 11 31  1  0  0  0  0
 12 13  1  0  0  0  0
 12 14  1  0  0  0  0
 12 32  1  0  0  0  0
 13 33  1  0  0  0  0
 13 34  1  0  0  0  0
 13 35  1  0  0  0  0
 14 15  1  0  0  0  0
 14 36  1  0  0  0  0
 14 37  1  0  0  0  0
 15 19  1  0  0  0  0
 15 16  1  0  0  0  0
 16 17  2  0  0  0  0
 16 38  1  0  0  0  0
 17 18  1  0  0  0  0
 17 39  1  0  0  0  0
 18 19  2  0  0  0  0
 18 40  1  0  0  0  0
 20 21  1  0  0  0  0
 20 41  1  0  0  0  0
 20 42  1  0  0  0  0
 21 43  1  0  0  0  0
 21 44  1  0  0  0  0
M  END
> <s_m_source_file>
AV-unprocessed.smi

> <i_m_source_file_index>
3063

> <i_lp_mmshare_version>
43012

> <i_f3d_flags>
0

> <s_epik_input>
W0NIM11DKD1PKU4xW0NIMl1bQ0gyXVtDSDJdTihbQ0gyXVtDSDJdMSlDKD1PKVtOSF1bQ0BIXShbQ0gzXSlbQ0gyXW4yW2NIXVtjSF1bY0hdbjI=

> <s_epik_cmdline>
J2VwaWtfcHl0aG9uJywgJy1waCcsICc3LjAnLCAnLXRuJywgJzgnLCAnLW1hJywgJzIwMCcsICctbWV0YWxfYmluZGluZycsICctaW1hZScsICc8aW5maWxlLm1hZT4nLCAnLW9tYWUnLCAnPG91dGZpbGUubWFlPic=

> <r_lp_tautomer_probability>
1

> <r_epik_Ionization_Penalty>
6.19559e-05

> <r_epik_Ionization_Penalty_Charging>
0

> <r_epik_Ionization_Penalty_Neutral>
6.19559e-05

> <r_epik_State_Penalty>
-0

> <r_epik_Charging_Adjusted_Penalty>
0

> <i_epik_Tot_Q>
0

> <i_epik_Tot_abs_Q>
0

> <r_epik_Metal_State_Penalty>
-0

> <b_epik_Metal_Only>
0

> <s_lp_Force_Field>
OPLS_2005

> <r_lp_Energy>
38.8795

> <b_lp_Chiralities_Consistent>
1

> <s_lp_Variant>
AV-unprocessed.smi:3063-1

> <Gold.Version>
5.8.1

> <Gold.Id.Protein>
6NUR|6NUR_protein|mol2

> <Gold.PLP.Fitness>
39.1044

> <Gold.PLP.PLP>
-36.9684

> <Gold.PLP.part.hbond>
-2.2396

> <Gold.PLP.part.metal>
0.0000

> <Gold.PLP.part.buried>
1.0298

> <Gold.PLP.part.nonpolar>
-35.4633

> <Gold.PLP.part.repulsive>
0.4111

> <Gold.PLP.ligand.clash>
1.3396

> <Gold.PLP.ligand.torsion>
1.1603

> <Gold.PLP.Chemscore.Hbond>
1.9120

> <Gold.PLP.Chemscore.CHOScore>
0.0000

> <Gold.PLP.Chemscore.Metal>
0.0000

> <Gold.Chemscore.Hbonds>
donor molecule, donor type, donor heavy atom, donor atom, acceptor molecule, acceptor atom, score
      L1  H    11    31       P1  8028  0.96
      P1  H  7989  7998       L1    10  1.00

> <Gold.PLP.Chemscore.Internal.Correction>
0.0602

> <Gold.Rescore>
     Score         DG    S(hbond)    S(metal)    S(lipo)     H(rot)  DE(clash)    DE(int)     intcor
     13.48     -17.76       1.62        0.00      90.20       1.44       2.32       1.96       ----

> <Gold.Chemscore.Fitness>
13.4806

> <Gold.Chemscore.DG>
-17.7593

> <Gold.Chemscore.ZeroCoef>
-5.4800

> <Gold.Chemscore.Hbond>
1.6180

> <Gold.Chemscore.Metal>
0.0000

> <Gold.Chemscore.Lipo>
90.2014

> <Gold.Chemscore.Internal_Hbond>
0.0000

> <Gold.Chemscore.DEClash>
2.3206

> <Gold.Chemscore.DEInternal>
1.9581

> <Gold.Chemscore.Rot>
1.4368

> <Gold.Chemscore.Internal.Correction>
   9.000000E+99

> <Gold.Chemscore.Hbonds>
donor molecule, donor type, donor heavy atom, donor atom, acceptor molecule, acceptor atom, score
      L1  H    11    31       P1  8028  0.92
      P1  H  7989  7998       L1    10  0.34

> <Gold.Chemscore.Hbond.Weighted>
-5.4040

> <Gold.Chemscore.Metal.Weighted>
-0.0000

> <Gold.Chemscore.Lipo.Weighted>
-10.5536

> <Gold.Chemscore.Internal_Hbond.Weighted>
0.0000

> <Gold.Chemscore.DEClash.Weighted>
2.3206

> <Gold.Chemscore.DEInternal.Weighted>
1.9581

> <Gold.Chemscore.Rot.Weighted>
3.6782

> <Gold.Chemscore.Internal.Correction.Weighted>
   9.000000E+99

> <Gold.Protein.RotatedTorsions>
[ 6907 6896 6895 6894 ] final   20.33 input  -60.11 | X-H torsion
[ 7974 7965 7964 7962 ] final   46.68 input  175.53 | X-H torsion
[ 8008 7997 7996 7995 ] final  119.12 input   59.86 | X-H torsion
[ 10167 10162 10161 10158 ] final  -21.96 input  -65.29 | X-H torsion
[ 10718 10713 10712 10709 ] final -179.46 input   66.30 | X-H torsion
[ 10763 10752 10751 10750 ] final  -43.54 input  -60.55 | X-H torsion
[ 11005 11000 10999 10996 ] final -104.98 input  -57.11 | X-H torsion

> <Gold.Protein.ActiveResidues>
 VAL166  LYS551  ARG553  GLY616  TRP617  ASP618  TYR619  PRO620  LYS621  CYS622 
 ASP623  PHE694  ASN695  SER759  ASP760  ASP761  ALA762  ILE779  LEU786  VAL792 
 PHE793  MET794  SER795  GLU796  ALA797  LYS798  CYS799  TRP800  GLU811  SER814 

> <Gold.Protein.RotatedAtoms>
  151.8948  135.0402  160.0500 H   0  0  0  0  0  0  0  0  0  0  0  0  # atno 6907 bound_to 6896
  152.2407  133.5128  159.5276 H   0  0  0  0  0  0  0  0  0  0  0  0  # atno 6908 bound_to 6896
  150.7052  134.1009  159.4008 H   0  0  0  0  0  0  0  0  0  0  0  0  # atno 6909 bound_to 6896
  146.0367  139.4830  142.9804 H   0  0  0  0  0  0  0  0  0  0  0  0  # atno 7974 bound_to 7965
  156.2580  140.2860  156.0942 H   0  0  0  0  0  0  0  0  0  0  0  0  # atno 8008 bound_to 7997
  155.1429  140.0396  157.2820 H   0  0  0  0  0  0  0  0  0  0  0  0  # atno 8009 bound_to 7997
  154.6516  140.2546  155.7214 H   0  0  0  0  0  0  0  0  0  0  0  0  # atno 8010 bound_to 7997
  140.7284  143.4579  151.0422 H   0  0  0  0  0  0  0  0  0  0  0  0  # atno 10167 bound_to 10162
  156.8594  130.9746  151.3085 H   0  0  0  0  0  0  0  0  0  0  0  0  # atno 10718 bound_to 10713
  153.9972  135.6698  153.4757 H   0  0  0  0  0  0  0  0  0  0  0  0  # atno 10763 bound_to 10752
  153.0678  135.4991  154.8235 H   0  0  0  0  0  0  0  0  0  0  0  0  # atno 10764 bound_to 10752
  154.7074  135.3090  154.9212 H   0  0  0  0  0  0  0  0  0  0  0  0  # atno 10765 bound_to 10752
  141.1075  133.8769  157.1678 H   0  0  0  0  0  0  0  0  0  0  0  0  # atno 11005 bound_to 11000
  145.6952  141.0152  143.1534 LP  0  0  0  0  0  0  0  0  0  0  0  0  # atno 17320 bound_to 7965
  144.7055  139.8579  143.7431 LP  0  0  0  0  0  0  0  0  0  0  0  0  # atno 17321 bound_to 7965
  139.8261  143.7754  152.3178 LP  0  0  0  0  0  0  0  0  0  0  0  0  # atno 17342 bound_to 10162
  139.7853  144.7430  151.0030 LP  0  0  0  0  0  0  0  0  0  0  0  0  # atno 17343 bound_to 10162
  157.6259  130.8691  149.9188 LP  0  0  0  0  0  0  0  0  0  0  0  0  # atno 17370 bound_to 10713
  156.0785  130.3676  150.0629 LP  0  0  0  0  0  0  0  0  0  0  0  0  # atno 17371 bound_to 10713
  139.9952  135.0049  157.0066 LP  0  0  0  0  0  0  0  0  0  0  0  0  # atno 17394 bound_to 11000
  140.4864  134.1237  155.7225 LP  0  0  0  0  0  0  0  0  0  0  0  0  # atno 17395 bound_to 11000

$$$$
