AV-unprocessed.smi:1424|AV-procd|sdf|5799|dock7
  -GOLD-   22720 5453D 1   1.00000     0.00000
 Structure written by MMmdl.
 45 47  0  0  0  0  0  0  0  0  1 V2000
  151.3848  135.4056  155.6339 O   0  0  0  0  0  0  0  0  0  0  0  0
  150.6309  135.7203  154.7133 C   0  0  0  0  0  0  0  0  0  0  0  0
  150.5164  136.9710  154.2443 N   0  0  0  0  0  0  0  0  0  0  0  0
  151.2318  138.1373  154.7540 C   0  0  0  0  0  0  0  0  0  0  0  0
  150.2918  139.1493  155.4383 C   0  0  2  0  0  0  0  0  0  0  0  0
  149.6720  140.1838  154.4741 C   0  0  0  0  0  0  0  0  0  0  0  0
  149.0147  141.2934  155.3009 C   0  0  0  0  0  0  0  0  0  0  0  0
  150.0618  141.4833  156.7900 S   0  0  0  0  0  0  0  0  0  0  0  0
  150.9755  142.6209  156.6048 O   0  0  0  0  0  0  0  0  0  0  0  0
  149.2159  141.3785  157.9885 O   0  0  0  0  0  0  0  0  0  0  0  0
  151.0001  139.9249  156.5614 C   0  0  0  0  0  0  0  0  0  0  0  0
  149.8106  134.8817  154.0580 N   0  0  0  0  0  0  0  0  0  0  0  0
  149.6103  133.4866  154.2676 C   0  0  0  0  0  0  0  0  0  0  0  0
  150.5284  132.6810  154.9851 C   0  0  0  0  0  0  0  0  0  0  0  0
  150.2650  131.3081  155.1385 C   0  0  0  0  0  0  0  0  0  0  0  0
  149.0959  130.7844  154.5604 C   0  0  0  0  0  0  0  0  0  0  0  0
  148.2206  131.5333  153.8602 N   0  0  0  0  0  0  0  0  0  0  0  0
  148.4630  132.8586  153.7113 C   0  0  0  0  0  0  0  0  0  0  0  0
  147.5470  133.6074  152.9438 N   0  0  0  0  0  0  0  0  0  0  0  0
  147.5938  133.2964  151.5180 C   0  0  0  0  0  0  0  0  0  0  0  0
  146.1590  133.4210  151.0032 C   0  0  0  0  0  0  0  0  0  0  0  0
  145.3267  133.0755  152.2314 C   0  0  0  0  0  0  0  0  0  0  0  0
  146.1496  133.6768  153.3701 C   0  0  0  0  0  0  0  0  0  0  0  0
  149.8697  137.1335  153.4863 H   0  0  0  0  0  0  0  0  0  0  0  0
  151.9648  137.7780  155.4769 H   0  0  0  0  0  0  0  0  0  0  0  0
  151.8040  138.6223  153.9609 H   0  0  0  0  0  0  0  0  0  0  0  0
  149.4676  138.5999  155.8963 H   0  0  0  0  0  0  0  0  0  0  0  0
  150.4613  140.6205  153.8607 H   0  0  0  0  0  0  0  0  0  0  0  0
  148.9542  139.7282  153.7919 H   0  0  0  0  0  0  0  0  0  0  0  0
  148.9404  142.2408  154.7668 H   0  0  0  0  0  0  0  0  0  0  0  0
  148.0178  140.9945  155.6256 H   0  0  0  0  0  0  0  0  0  0  0  0
  151.0405  139.3704  157.4991 H   0  0  0  0  0  0  0  0  0  0  0  0
  152.0176  140.1921  156.2741 H   0  0  0  0  0  0  0  0  0  0  0  0
  149.1876  135.3070  153.3870 H   0  0  0  0  0  0  0  0  0  0  0  0
  151.4353  133.0849  155.4076 H   0  0  0  0  0  0  0  0  0  0  0  0
  150.9467  130.6714  155.6826 H   0  0  0  0  0  0  0  0  0  0  0  0
  148.8606  129.7346  154.6550 H   0  0  0  0  0  0  0  0  0  0  0  0
  148.2661  133.9717  150.9886 H   0  0  0  0  0  0  0  0  0  0  0  0
  147.9559  132.2775  151.3672 H   0  0  0  0  0  0  0  0  0  0  0  0
  145.9606  134.4503  150.7006 H   0  0  0  0  0  0  0  0  0  0  0  0
  145.9555  132.7716  150.1515 H   0  0  0  0  0  0  0  0  0  0  0  0
  144.3111  133.4695  152.1866 H   0  0  0  0  0  0  0  0  0  0  0  0
  145.2674  131.9923  152.3473 H   0  0  0  0  0  0  0  0  0  0  0  0
  145.9424  133.1863  154.3214 H   0  0  0  0  0  0  0  0  0  0  0  0
  145.8944  134.7296  153.4958 H   0  0  0  0  0  0  0  0  0  0  0  0
  1  2  2  0  0  0  0
  2  3  1  0  0  0  0
  2 12  1  0  0  0  0
  3  4  1  0  0  0  0
  3 24  1  0  0  0  0
  4  5  1  0  0  0  0
  4 25  1  0  0  0  0
  4 26  1  0  0  0  0
  5 11  1  0  0  0  0
  5  6  1  0  0  0  0
  5 27  1  0  0  0  0
  6  7  1  0  0  0  0
  6 28  1  0  0  0  0
  6 29  1  0  0  0  0
  7  8  1  0  0  0  0
  7 30  1  0  0  0  0
  7 31  1  0  0  0  0
  8  9  2  0  0  0  0
  8 10  2  0  0  0  0
  8 11  1  0  0  0  0
 11 32  1  0  0  0  0
 11 33  1  0  0  0  0
 12 13  1  0  0  0  0
 12 34  1  0  0  0  0
 13 18  1  0  0  0  0
 13 14  2  0  0  0  0
 14 15  1  0  0  0  0
 14 35  1  0  0  0  0
 15 16  2  0  0  0  0
 15 36  1  0  0  0  0
 16 17  1  0  0  0  0
 16 37  1  0  0  0  0
 17 18  2  0  0  0  0
 18 19  1  0  0  0  0
 19 23  1  0  0  0  0
 19 20  1  0  0  0  0
 20 21  1  0  0  0  0
 20 38  1  0  0  0  0
 20 39  1  0  0  0  0
 21 22  1  0  0  0  0
 21 40  1  0  0  0  0
 21 41  1  0  0  0  0
 22 23  1  0  0  0  0
 22 42  1  0  0  0  0
 22 43  1  0  0  0  0
 23 44  1  0  0  0  0
 23 45  1  0  0  0  0
M  END
> <s_m_source_file>
AV-unprocessed.smi

> <i_m_source_file_index>
1424

> <i_lp_mmshare_version>
43012

> <i_f3d_flags>
0

> <s_epik_input>
Tz1TMSg9TylbQ0gyXVtDSDJdW0NASF0oW0NIMl0xKVtDSDJdW05IXUMoPU8pW05IXWMyW2NIXVtjSF1bY0hdbmMyTjNbQ0gyXVtDSDJdW0NIMl1bQ0gyXTM=

> <s_epik_cmdline>
J2VwaWtfcHl0aG9uJywgJy1waCcsICc3LjAnLCAnLXRuJywgJzgnLCAnLW1hJywgJzIwMCcsICctbWV0YWxfYmluZGluZycsICctaW1hZScsICc8aW5maWxlLm1hZT4nLCAnLW9tYWUnLCAnPG91dGZpbGUubWFlPic=

> <r_lp_tautomer_probability>
1

> <r_epik_Ionization_Penalty>
0.0965651

> <r_epik_Ionization_Penalty_Charging>
0

> <r_epik_Ionization_Penalty_Neutral>
0.0965651

> <r_epik_State_Penalty>
0.0861592

> <r_epik_Charging_Adjusted_Penalty>
0.0861592

> <i_epik_Tot_Q>
0

> <i_epik_Tot_abs_Q>
0

> <r_epik_Metal_State_Penalty>
0.0740444

> <b_epik_Metal_Only>
0

> <s_lp_Force_Field>
OPLS_2005

> <r_lp_Energy>
33.9356

> <b_lp_Chiralities_Consistent>
1

> <s_lp_Variant>
AV-unprocessed.smi:1424-1

> <Gold.Version>
5.8.1

> <Gold.Id.Protein>
6NUR|6NUR_protein|mol2

> <Gold.PLP.Fitness>
41.8453

> <Gold.PLP.PLP>
-34.7476

> <Gold.PLP.part.hbond>
-4.5199

> <Gold.PLP.part.metal>
0.0000

> <Gold.PLP.part.buried>
-1.4036

> <Gold.PLP.part.nonpolar>
-28.3126

> <Gold.PLP.part.repulsive>
0.8737

> <Gold.PLP.ligand.clash>
0.0000

> <Gold.PLP.ligand.torsion>
0.5534

> <Gold.PLP.Chemscore.Hbond>
2.6960

> <Gold.PLP.Chemscore.CHOScore>
0.0000

> <Gold.PLP.Chemscore.Metal>
0.0000

> <Gold.Chemscore.Hbonds>
donor molecule, donor type, donor heavy atom, donor atom, acceptor molecule, acceptor atom, score
      L1  H     3    24       P1  7948  0.84
      L1  H    12    34       P1  7948  0.96
      P1  H 10752 10765       L1     1  0.95

> <Gold.PLP.Chemscore.Internal.Correction>
0.1165

> <Gold.Rescore>
     Score         DG    S(hbond)    S(metal)    S(lipo)     H(rot)  DE(clash)    DE(int)     intcor
     13.85     -15.97       1.82        0.00      70.03       1.47       0.23       1.89       ----

> <Gold.Chemscore.Fitness>
13.8492

> <Gold.Chemscore.DG>
-15.9717

> <Gold.Chemscore.ZeroCoef>
-5.4800

> <Gold.Chemscore.Hbond>
1.8180

> <Gold.Chemscore.Metal>
0.0000

> <Gold.Chemscore.Lipo>
70.0329

> <Gold.Chemscore.Internal_Hbond>
0.0000

> <Gold.Chemscore.DEClash>
0.2323

> <Gold.Chemscore.DEInternal>
1.8902

> <Gold.Chemscore.Rot>
1.4744

> <Gold.Chemscore.Internal.Correction>
   9.000000E+99

> <Gold.Chemscore.Hbonds>
donor molecule, donor type, donor heavy atom, donor atom, acceptor molecule, acceptor atom, score
      L1  H     3    24       P1  7948  0.39
      L1  H    12    34       P1  7948  0.28
      P1  H 10752 10765       L1     1  0.21

> <Gold.Chemscore.Hbond.Weighted>
-6.0723

> <Gold.Chemscore.Metal.Weighted>
-0.0000

> <Gold.Chemscore.Lipo.Weighted>
-8.1938

> <Gold.Chemscore.Internal_Hbond.Weighted>
0.0000

> <Gold.Chemscore.DEClash.Weighted>
0.2323

> <Gold.Chemscore.DEInternal.Weighted>
1.8902

> <Gold.Chemscore.Rot.Weighted>
3.7744

> <Gold.Chemscore.Internal.Correction.Weighted>
   9.000000E+99

> <Gold.Protein.RotatedTorsions>
[ 6907 6896 6895 6894 ] final  172.14 input  -60.11 | X-H torsion
[ 7974 7965 7964 7962 ] final   82.84 input  175.53 | X-H torsion
[ 8008 7997 7996 7995 ] final -164.53 input   59.86 | X-H torsion
[ 10167 10162 10161 10158 ] final   34.64 input  -65.29 | X-H torsion
[ 10718 10713 10712 10709 ] final  155.99 input   66.30 | X-H torsion
[ 10763 10752 10751 10750 ] final -171.03 input  -60.55 | X-H torsion
[ 11005 11000 10999 10996 ] final  -47.19 input  -57.11 | X-H torsion

> <Gold.Protein.ActiveResidues>
 VAL166  LYS551  ARG553  GLY616  TRP617  ASP618  TYR619  PRO620  LYS621  CYS622 
 ASP623  PHE694  ASN695  SER759  ASP760  ASP761  ALA762  ILE779  LEU786  VAL792 
 PHE793  MET794  SER795  GLU796  ALA797  LYS798  CYS799  TRP800  GLU811  SER814 

> <Gold.Protein.RotatedAtoms>
  151.7890  133.3357  159.3493 H   0  0  0  0  0  0  0  0  0  0  0  0  # atno 6907 bound_to 6896
  150.7399  134.5860  159.5972 H   0  0  0  0  0  0  0  0  0  0  0  0  # atno 6908 bound_to 6896
  152.3223  134.7366  160.0362 H   0  0  0  0  0  0  0  0  0  0  0  0  # atno 6909 bound_to 6896
  145.6197  139.2383  143.2145 H   0  0  0  0  0  0  0  0  0  0  0  0  # atno 7974 bound_to 7965
  155.8369  140.0942  157.1758 H   0  0  0  0  0  0  0  0  0  0  0  0  # atno 8008 bound_to 7997
  154.3981  140.1408  156.3742 H   0  0  0  0  0  0  0  0  0  0  0  0  # atno 8009 bound_to 7997
  155.8106  140.3450  155.5458 H   0  0  0  0  0  0  0  0  0  0  0  0  # atno 8010 bound_to 7997
  140.4296  144.1343  150.6158 H   0  0  0  0  0  0  0  0  0  0  0  0  # atno 10167 bound_to 10162
  157.2110  131.0697  151.1969 H   0  0  0  0  0  0  0  0  0  0  0  0  # atno 10718 bound_to 10713
  154.6351  135.2891  155.0171 H   0  0  0  0  0  0  0  0  0  0  0  0  # atno 10763 bound_to 10752
  154.1318  135.6532  153.4927 H   0  0  0  0  0  0  0  0  0  0  0  0  # atno 10764 bound_to 10752
  153.0298  135.5312  154.7194 H   0  0  0  0  0  0  0  0  0  0  0  0  # atno 10765 bound_to 10752
  141.0625  133.6704  156.3262 H   0  0  0  0  0  0  0  0  0  0  0  0  # atno 11005 bound_to 11000
  146.1440  140.7018  142.9353 LP  0  0  0  0  0  0  0  0  0  0  0  0  # atno 17320 bound_to 7965
  144.7236  140.4453  143.6990 LP  0  0  0  0  0  0  0  0  0  0  0  0  # atno 17321 bound_to 7965
  140.4442  143.2514  151.9433 LP  0  0  0  0  0  0  0  0  0  0  0  0  # atno 17342 bound_to 10162
  139.4784  144.5625  151.8216 LP  0  0  0  0  0  0  0  0  0  0  0  0  # atno 17343 bound_to 10162
  157.3672  130.7162  149.6541 LP  0  0  0  0  0  0  0  0  0  0  0  0  # atno 17370 bound_to 10713
  155.9690  130.4209  150.4443 LP  0  0  0  0  0  0  0  0  0  0  0  0  # atno 17371 bound_to 10713
  140.5840  134.5718  157.5485 LP  0  0  0  0  0  0  0  0  0  0  0  0  # atno 17394 bound_to 11000
  139.9446  134.7725  156.0594 LP  0  0  0  0  0  0  0  0  0  0  0  0  # atno 17395 bound_to 11000

$$$$
