AV-unprocessed.smi:2702|AV-procd|sdf|10431|dock10
  -GOLD-   2272014473D 1   1.00000     0.00000
 Structure written by MMmdl.
 47 48  0  0  0  0  0  0  0  0  1 V2000
  154.3488  133.3039  164.8758 C   0  0  0  0  0  0  0  0  0  0  0  0
  154.7362  134.4063  164.0747 O   0  0  0  0  0  0  0  0  0  0  0  0
  154.0689  135.6028  164.4379 C   0  0  0  0  0  0  0  0  0  0  0  0
  154.6462  136.7805  163.6797 C   0  0  0  0  0  0  0  0  0  0  0  0
  155.1552  137.8611  164.3163 C   0  0  0  0  0  0  0  0  0  0  0  0
  155.6915  138.9908  163.5569 C   0  0  0  0  0  0  0  0  0  0  0  0
  156.1749  139.9852  164.0986 O   0  0  0  0  0  0  0  0  0  0  0  0
  155.6129  138.8597  162.1997 N   0  0  0  0  0  0  0  0  0  0  0  0
  156.1025  139.9181  161.2972 C   0  0  0  0  0  0  0  0  0  0  0  0
  155.1012  140.3060  160.1992 C   0  0  0  0  0  0  0  0  0  0  0  0
  154.9405  139.5966  159.2048 O   0  0  0  0  0  0  0  0  0  0  0  0
  154.4216  141.4432  160.4081 N   0  0  0  0  0  0  0  0  0  0  0  0
  153.4176  142.0075  159.5092 C   0  0  1  0  0  0  0  0  0  0  0  0
  152.2500  141.0158  159.3451 C   0  0  0  0  0  0  0  0  0  0  0  0
  151.1890  141.5604  158.3775 C   0  0  0  0  0  0  0  0  0  0  0  0
  150.6928  142.9498  158.8076 C   0  0  0  0  0  0  0  0  0  0  0  0
  151.8632  143.9396  158.9776 C   0  0  1  0  0  0  0  0  0  0  0  0
  151.3678  145.3579  159.3054 C   0  0  0  0  0  0  0  0  0  0  0  0
  152.9235  143.4043  159.9770 C   0  0  1  0  0  0  0  0  0  0  0  0
  152.4497  143.4210  161.4493 C   0  0  0  0  0  0  0  0  0  0  0  0
  155.0695  137.7122  161.5879 C   0  0  0  0  0  0  0  0  0  0  0  0
  154.6045  136.7234  162.2831 N   0  0  0  0  0  0  0  0  0  0  0  0
  154.8878  132.4122  164.5557 H   0  0  0  0  0  0  0  0  0  0  0  0
  153.2806  133.1038  164.7817 H   0  0  0  0  0  0  0  0  0  0  0  0
  154.5816  133.4790  165.9270 H   0  0  0  0  0  0  0  0  0  0  0  0
  153.0035  135.5204  164.2153 H   0  0  0  0  0  0  0  0  0  0  0  0
  154.1616  135.7766  165.5114 H   0  0  0  0  0  0  0  0  0  0  0  0
  155.1714  137.8951  165.3959 H   0  0  0  0  0  0  0  0  0  0  0  0
  156.3651  140.8202  161.8528 H   0  0  0  0  0  0  0  0  0  0  0  0
  157.0339  139.6004  160.8244 H   0  0  0  0  0  0  0  0  0  0  0  0
  154.6175  141.9621  161.2517 H   0  0  0  0  0  0  0  0  0  0  0  0
  153.8788  142.1227  158.5259 H   0  0  0  0  0  0  0  0  0  0  0  0
  152.6227  140.0610  158.9718 H   0  0  0  0  0  0  0  0  0  0  0  0
  151.7916  140.8073  160.3125 H   0  0  0  0  0  0  0  0  0  0  0  0
  151.6111  141.6212  157.3735 H   0  0  0  0  0  0  0  0  0  0  0  0
  150.3495  140.8674  158.3172 H   0  0  0  0  0  0  0  0  0  0  0  0
  149.9929  143.3277  158.0616 H   0  0  0  0  0  0  0  0  0  0  0  0
  150.1294  142.8682  159.7376 H   0  0  0  0  0  0  0  0  0  0  0  0
  152.3575  144.0124  158.0074 H   0  0  0  0  0  0  0  0  0  0  0  0
  150.7700  145.3794  160.2165 H   0  0  0  0  0  0  0  0  0  0  0  0
  150.7435  145.7453  158.5000 H   0  0  0  0  0  0  0  0  0  0  0  0
  152.2028  146.0473  159.4331 H   0  0  0  0  0  0  0  0  0  0  0  0
  153.7775  144.0815  159.9255 H   0  0  0  0  0  0  0  0  0  0  0  0
  151.5755  142.7904  161.6069 H   0  0  0  0  0  0  0  0  0  0  0  0
  152.1925  144.4284  161.7747 H   0  0  0  0  0  0  0  0  0  0  0  0
  153.2301  143.0729  162.1259 H   0  0  0  0  0  0  0  0  0  0  0  0
  155.0722  137.7168  160.4967 H   0  0  0  0  0  0  0  0  0  0  0  0
  1  2  1  0  0  0  0
  1 23  1  0  0  0  0
  1 24  1  0  0  0  0
  1 25  1  0  0  0  0
  2  3  1  0  0  0  0
  3  4  1  0  0  0  0
  3 26  1  0  0  0  0
  3 27  1  0  0  0  0
  4 22  1  0  0  0  0
  4  5  2  0  0  0  0
  5  6  1  0  0  0  0
  5 28  1  0  0  0  0
  6  7  2  0  0  0  0
  6  8  1  0  0  0  0
  8  9  1  0  0  0  0
  8 21  1  0  0  0  0
  9 10  1  0  0  0  0
  9 29  1  0  0  0  0
  9 30  1  0  0  0  0
 10 11  2  0  0  0  0
 10 12  1  0  0  0  0
 12 13  1  0  0  0  0
 12 31  1  0  0  0  0
 13 19  1  0  0  0  0
 13 14  1  0  0  0  0
 13 32  1  0  0  0  0
 14 15  1  0  0  0  0
 14 33  1  0  0  0  0
 14 34  1  0  0  0  0
 15 16  1  0  0  0  0
 15 35  1  0  0  0  0
 15 36  1  0  0  0  0
 16 17  1  0  0  0  0
 16 37  1  0  0  0  0
 16 38  1  0  0  0  0
 17 18  1  0  0  0  0
 17 19  1  0  0  0  0
 17 39  1  0  0  0  0
 18 40  1  0  0  0  0
 18 41  1  0  0  0  0
 18 42  1  0  0  0  0
 19 20  1  0  0  0  0
 19 43  1  0  0  0  0
 20 44  1  0  0  0  0
 20 45  1  0  0  0  0
 20 46  1  0  0  0  0
 21 22  2  0  0  0  0
 21 47  1  0  0  0  0
M  END
> <s_m_source_file>
AV-unprocessed.smi

> <i_m_source_file_index>
2702

> <i_lp_mmshare_version>
43012

> <i_f3d_flags>
0

> <s_epik_input>
W0NIM11PW0NIMl1jMVtjSF1jKD1PKW4oW2NIXW4xKVtDSDJdQyg9TylbTkhdW0NAQEhdMltDSDJdW0NIMl1bQ0gyXVtDQEBIXShbQ0gzXSlbQ0BIXTJbQ0gzXQ==

> <s_epik_cmdline>
J2VwaWtfcHl0aG9uJywgJy1waCcsICc3LjAnLCAnLXRuJywgJzgnLCAnLW1hJywgJzIwMCcsICctbWV0YWxfYmluZGluZycsICctaW1hZScsICc8aW5maWxlLm1hZT4nLCAnLW9tYWUnLCAnPG91dGZpbGUubWFlPic=

> <r_lp_tautomer_probability>
1

> <r_epik_Ionization_Penalty>
1.22164e-06

> <r_epik_Ionization_Penalty_Charging>
3.17988e-07

> <r_epik_Ionization_Penalty_Neutral>
9.03656e-07

> <r_epik_State_Penalty>
-0

> <r_epik_Charging_Adjusted_Penalty>
3.17988e-07

> <i_epik_Tot_Q>
0

> <i_epik_Tot_abs_Q>
0

> <r_epik_Metal_State_Penalty>
-0

> <b_epik_Metal_Only>
0

> <s_lp_Force_Field>
OPLS_2005

> <r_lp_Energy>
18.9829

> <b_lp_Chiralities_Consistent>
1

> <s_lp_Variant>
AV-unprocessed.smi:2702-2

> <Gold.Version>
5.8.1

> <Gold.Id.Protein>
6NUR|6NUR_protein|mol2

> <Gold.PLP.Fitness>
49.4331

> <Gold.PLP.PLP>
-47.1842

> <Gold.PLP.part.hbond>
-1.0000

> <Gold.PLP.part.metal>
0.0000

> <Gold.PLP.part.buried>
-6.4081

> <Gold.PLP.part.nonpolar>
-39.6480

> <Gold.PLP.part.repulsive>
0.1020

> <Gold.PLP.ligand.clash>
0.0000

> <Gold.PLP.ligand.torsion>
0.3861

> <Gold.PLP.Chemscore.Hbond>
1.0000

> <Gold.PLP.Chemscore.CHOScore>
0.0000

> <Gold.PLP.Chemscore.Metal>
0.0000

> <Gold.Chemscore.Hbonds>
donor molecule, donor type, donor heavy atom, donor atom, acceptor molecule, acceptor atom, score
      P1  H  7997  8010       L1    11  1.00

> <Gold.PLP.Chemscore.Internal.Correction>
0.0212

> <Gold.Rescore>
     Score         DG    S(hbond)    S(metal)    S(lipo)     H(rot)  DE(clash)    DE(int)     intcor
     18.23     -18.80       1.00        0.00     127.57       1.93       0.12       0.44       ----

> <Gold.Chemscore.Fitness>
18.2344

> <Gold.Chemscore.DG>
-18.8038

> <Gold.Chemscore.ZeroCoef>
-5.4800

> <Gold.Chemscore.Hbond>
0.9985

> <Gold.Chemscore.Metal>
0.0000

> <Gold.Chemscore.Lipo>
127.5694

> <Gold.Chemscore.Internal_Hbond>
0.0000

> <Gold.Chemscore.DEClash>
0.1248

> <Gold.Chemscore.DEInternal>
0.4446

> <Gold.Chemscore.Rot>
1.9284

> <Gold.Chemscore.Internal.Correction>
   9.000000E+99

> <Gold.Chemscore.Hbonds>
donor molecule, donor type, donor heavy atom, donor atom, acceptor molecule, acceptor atom, score
      P1  H  7997  8010       L1    11  1.00

> <Gold.Chemscore.Hbond.Weighted>
-3.3350

> <Gold.Chemscore.Metal.Weighted>
-0.0000

> <Gold.Chemscore.Lipo.Weighted>
-14.9256

> <Gold.Chemscore.Internal_Hbond.Weighted>
0.0000

> <Gold.Chemscore.DEClash.Weighted>
0.1248

> <Gold.Chemscore.DEInternal.Weighted>
0.4446

> <Gold.Chemscore.Rot.Weighted>
4.9368

> <Gold.Chemscore.Internal.Correction.Weighted>
   9.000000E+99

> <Gold.Protein.RotatedTorsions>
[ 6907 6896 6895 6894 ] final  100.22 input  -60.11 | X-H torsion
[ 7974 7965 7964 7962 ] final  118.94 input  175.53 | X-H torsion
[ 8008 7997 7996 7995 ] final   -8.27 input   59.86 | X-H torsion
[ 10167 10162 10161 10158 ] final  -70.66 input  -65.29 | X-H torsion
[ 10718 10713 10712 10709 ] final -157.03 input   66.30 | X-H torsion
[ 10763 10752 10751 10750 ] final   98.23 input  -60.55 | X-H torsion
[ 11005 11000 10999 10996 ] final   -2.12 input  -57.11 | X-H torsion

> <Gold.Protein.ActiveResidues>
 VAL166  LYS551  ARG553  GLY616  TRP617  ASP618  TYR619  PRO620  LYS621  CYS622 
 ASP623  PHE694  ASN695  SER759  ASP760  ASP761  ALA762  ILE779  LEU786  VAL792 
 PHE793  MET794  SER795  GLU796  ALA797  LYS798  CYS799  TRP800  GLU811  SER814 

> <Gold.Protein.RotatedAtoms>
  152.5376  134.0309  159.8024 H   0  0  0  0  0  0  0  0  0  0  0  0  # atno 6907 bound_to 6896
  151.0480  133.5641  159.2652 H   0  0  0  0  0  0  0  0  0  0  0  0  # atno 6908 bound_to 6896
  151.2585  135.0654  159.9143 H   0  0  0  0  0  0  0  0  0  0  0  0  # atno 6909 bound_to 6896
  145.1492  139.3221  143.4575 H   0  0  0  0  0  0  0  0  0  0  0  0  # atno 7974 bound_to 7965
  154.5757  140.2385  155.8126 H   0  0  0  0  0  0  0  0  0  0  0  0  # atno 8008 bound_to 7997
  156.2141  140.3017  155.9757 H   0  0  0  0  0  0  0  0  0  0  0  0  # atno 8009 bound_to 7997
  155.2631  140.0415  157.2990 H   0  0  0  0  0  0  0  0  0  0  0  0  # atno 8010 bound_to 7997
  140.5335  143.2319  151.7219 H   0  0  0  0  0  0  0  0  0  0  0  0  # atno 10167 bound_to 10162
  156.5346  130.8536  151.2728 H   0  0  0  0  0  0  0  0  0  0  0  0  # atno 10718 bound_to 10713
  153.2866  135.4155  155.1128 H   0  0  0  0  0  0  0  0  0  0  0  0  # atno 10763 bound_to 10752
  154.8507  135.3508  154.6039 H   0  0  0  0  0  0  0  0  0  0  0  0  # atno 10764 bound_to 10752
  153.6461  135.7055  153.5283 H   0  0  0  0  0  0  0  0  0  0  0  0  # atno 10765 bound_to 10752
  140.6549  133.9372  155.8401 H   0  0  0  0  0  0  0  0  0  0  0  0  # atno 11005 bound_to 11000
  146.3496  140.1559  142.8591 LP  0  0  0  0  0  0  0  0  0  0  0  0  # atno 17320 bound_to 7965
  145.0449  140.8974  143.5030 LP  0  0  0  0  0  0  0  0  0  0  0  0  # atno 17321 bound_to 7965
  139.4962  144.4078  152.0113 LP  0  0  0  0  0  0  0  0  0  0  0  0  # atno 17342 bound_to 10162
  140.3182  144.3459  150.6016 LP  0  0  0  0  0  0  0  0  0  0  0  0  # atno 17343 bound_to 10162
  157.7416  130.9873  150.2456 LP  0  0  0  0  0  0  0  0  0  0  0  0  # atno 17370 bound_to 10713
  156.3028  130.3761  149.7734 LP  0  0  0  0  0  0  0  0  0  0  0  0  # atno 17371 bound_to 10713
  141.0509  134.0486  157.3785 LP  0  0  0  0  0  0  0  0  0  0  0  0  # atno 17394 bound_to 11000
  139.9033  135.0172  156.7370 LP  0  0  0  0  0  0  0  0  0  0  0  0  # atno 17395 bound_to 11000

$$$$
