AV-unprocessed.smi:1801|AV-procd|sdf|7269|dock9
  -GOLD-   22720 8523D 1   1.00000     0.00000
 Structure written by MMmdl.
 37 38  0  0  0  0  0  0  0  0  3 V2000
  149.6164  140.4641  156.6194 C   0  0  0  0  0  0  0  0  0  0  0  0
  150.8395  139.7098  157.1666 C   0  0  2  0  0  0  0  0  0  0  0  0
  150.5097  138.2093  157.3341 C   0  0  0  0  0  0  0  0  0  0  0  0
  149.2465  137.9826  158.0316 N   0  0  0  0  0  0  0  0  0  0  0  0
  148.8214  136.8156  158.5362 C   0  0  0  0  0  0  0  0  0  0  0  0
  149.5016  135.7975  158.3914 O   0  0  0  0  0  0  0  0  0  0  0  0
  147.6419  136.9055  159.1899 N   0  5  0  0  0  0  0  0  0  0  0  0
  147.4738  136.2701  160.3616 C   0  0  0  0  0  0  0  0  0  0  0  0
  147.2795  136.9300  161.5147 N   0  0  0  0  0  0  0  0  0  0  0  0
  147.1331  136.0870  162.6080 N   0  0  0  0  0  0  0  0  0  0  0  0
  147.2299  134.8066  162.2506 C   0  0  0  0  0  0  0  0  0  0  0  0
  147.5109  134.5143  160.5470 S   0  0  0  0  0  0  0  0  0  0  0  0
  151.3499  140.3461  158.4812 C   0  0  0  0  0  0  0  0  0  0  0  0
  152.0881  141.6094  158.2468 N   0  3  0  0  0  0  0  0  0  0  0  0
  151.2447  142.7179  157.7556 C   0  0  0  0  0  0  0  0  0  0  0  0
  151.9894  143.9883  158.1521 C   0  0  0  0  0  0  0  0  0  0  0  0
  152.5808  143.6211  159.5088 C   0  0  0  0  0  0  0  0  0  0  0  0
  152.8549  142.1147  159.4129 C   0  0  0  0  0  0  0  0  0  0  0  0
  148.7818  140.4283  157.3201 H   0  0  0  0  0  0  0  0  0  0  0  0
  149.2777  140.0291  155.6786 H   0  0  0  0  0  0  0  0  0  0  0  0
  149.8461  141.5123  156.4275 H   0  0  0  0  0  0  0  0  0  0  0  0
  151.6248  139.7863  156.4145 H   0  0  0  0  0  0  0  0  0  0  0  0
  150.4431  137.7310  156.3566 H   0  0  0  0  0  0  0  0  0  0  0  0
  151.3115  137.6998  157.8713 H   0  0  0  0  0  0  0  0  0  0  0  0
  148.6473  138.7850  158.1610 H   0  0  0  0  0  0  0  0  0  0  0  0
  147.1383  134.0297  162.9948 H   0  0  0  0  0  0  0  0  0  0  0  0
  150.5008  140.5399  159.1383 H   0  0  0  0  0  0  0  0  0  0  0  0
  152.0073  139.6679  159.0264 H   0  0  0  0  0  0  0  0  0  0  0  0
  151.0748  142.6479  156.6808 H   0  0  0  0  0  0  0  0  0  0  0  0
  150.2741  142.6931  158.2543 H   0  0  0  0  0  0  0  0  0  0  0  0
  152.7897  144.1898  157.4385 H   0  0  0  0  0  0  0  0  0  0  0  0
  151.3427  144.8653  158.1930 H   0  0  0  0  0  0  0  0  0  0  0  0
  153.4743  144.1980  159.7490 H   0  0  0  0  0  0  0  0  0  0  0  0
  151.8436  143.8090  160.2909 H   0  0  0  0  0  0  0  0  0  0  0  0
  152.5745  141.6158  160.3424 H   0  0  0  0  0  0  0  0  0  0  0  0
  153.9143  141.9202  159.2427 H   0  0  0  0  0  0  0  0  0  0  0  0
  152.7641  141.4301  157.5183 H   0  0  0  0  0  0  0  0  0  0  0  0
  1  2  1  0  0  0  0
  1 19  1  0  0  0  0
  1 20  1  0  0  0  0
  1 21  1  0  0  0  0
  2  3  1  0  0  0  0
  2 13  1  0  0  0  0
  2 22  1  0  0  0  0
  3  4  1  0  0  0  0
  3 23  1  0  0  0  0
  3 24  1  0  0  0  0
  4  5  1  0  0  0  0
  4 25  1  0  0  0  0
  5  6  2  0  0  0  0
  5  7  1  0  0  0  0
  7  8  1  0  0  0  0
  8 12  1  0  0  0  0
  8  9  2  0  0  0  0
  9 10  1  0  0  0  0
 10 11  2  0  0  0  0
 11 12  1  0  0  0  0
 11 26  1  0  0  0  0
 13 14  1  0  0  0  0
 13 27  1  0  0  0  0
 13 28  1  0  0  0  0
 14 18  1  0  0  0  0
 14 15  1  0  0  0  0
 14 37  1  0  0  0  0
 15 16  1  0  0  0  0
 15 29  1  0  0  0  0
 15 30  1  0  0  0  0
 16 17  1  0  0  0  0
 16 31  1  0  0  0  0
 16 32  1  0  0  0  0
 17 18  1  0  0  0  0
 17 33  1  0  0  0  0
 17 34  1  0  0  0  0
 18 35  1  0  0  0  0
 18 36  1  0  0  0  0
M  CHG  1   7  -1
M  CHG  1  14   1
M  END
> <s_m_source_file>
AV-unprocessed.smi

> <i_m_source_file_index>
1801

> <i_lp_mmshare_version>
43012

> <i_f3d_flags>
0

> <s_epik_input>
W0NIMl0xW0NIMl1bQ0gyXVtDSDJdTjFbQ0gyXVtDQEhdKFtDSDNdKVtDSDJdW05IXUMoPU8pW05IXWMybm5bY0hdczI=

> <s_epik_cmdline>
J2VwaWtfcHl0aG9uJywgJy1waCcsICc3LjAnLCAnLXRuJywgJzgnLCAnLW1hJywgJzIwMCcsICctbWV0YWxfYmluZGluZycsICctaW1hZScsICc8aW5maWxlLm1hZT4nLCAnLW9tYWUnLCAnPG91dGZpbGUubWFlPic=

> <r_lp_tautomer_probability>
1

> <r_epik_Ionization_Penalty>
3.29721

> <r_epik_Ionization_Penalty_Charging>
3.25987

> <r_epik_Ionization_Penalty_Neutral>
0.0373399

> <r_epik_State_Penalty>
3.2571

> <r_epik_Charging_Adjusted_Penalty>
6.51697

> <i_epik_Tot_Q>
0

> <i_epik_Tot_abs_Q>
2

> <r_epik_Metal_State_Penalty>
0.477553

> <b_epik_Metal_Only>
1

> <s_lp_Force_Field>
OPLS_2005

> <r_lp_Energy>
22.4794

> <b_lp_Chiralities_Consistent>
1

> <s_lp_Variant>
AV-unprocessed.smi:1801-3

> <Gold.Version>
5.8.1

> <Gold.Id.Protein>
6NUR|6NUR_protein|mol2

> <Gold.PLP.Fitness>
40.7817

> <Gold.PLP.PLP>
-35.0597

> <Gold.PLP.part.hbond>
-3.0470

> <Gold.PLP.part.metal>
0.0000

> <Gold.PLP.part.buried>
-5.4842

> <Gold.PLP.part.nonpolar>
-26.7956

> <Gold.PLP.part.repulsive>
0.2094

> <Gold.PLP.ligand.clash>
0.0000

> <Gold.PLP.ligand.torsion>
1.3338

> <Gold.PLP.Chemscore.Hbond>
2.7440

> <Gold.PLP.Chemscore.CHOScore>
0.0000

> <Gold.PLP.Chemscore.Metal>
0.0000

> <Gold.Chemscore.Hbonds>
donor molecule, donor type, donor heavy atom, donor atom, acceptor molecule, acceptor atom, score
      P1  H  6896  6907       L1     6  0.93
      P1  H  6931  6943       L1     9  0.50
      P1  H  6934  6947       L1     9  0.63

> <Gold.PLP.Chemscore.Internal.Correction>
0.1575

> <Gold.Rescore>
     Score         DG    S(hbond)    S(metal)    S(lipo)     H(rot)  DE(clash)    DE(int)     intcor
     15.71     -17.37       2.24        0.00      79.98       1.93       0.00       1.66       ----

> <Gold.Chemscore.Fitness>
15.7085

> <Gold.Chemscore.DG>
-17.3721

> <Gold.Chemscore.ZeroCoef>
-5.4800

> <Gold.Chemscore.Hbond>
2.2355

> <Gold.Chemscore.Metal>
0.0000

> <Gold.Chemscore.Lipo>
79.9788

> <Gold.Chemscore.Internal_Hbond>
0.0000

> <Gold.Chemscore.DEClash>
0.0015

> <Gold.Chemscore.DEInternal>
1.6622

> <Gold.Chemscore.Rot>
1.9266

> <Gold.Chemscore.Internal.Correction>
   9.000000E+99

> <Gold.Chemscore.Hbonds>
donor molecule, donor type, donor heavy atom, donor atom, acceptor molecule, acceptor atom, score
      P1  H  6896  6907       L1     6  0.88
      P1  H  6931  6943       L1     9  0.24
      P1  H  6934  6947       L1     9  0.30

> <Gold.Chemscore.Hbond.Weighted>
-7.4667

> <Gold.Chemscore.Metal.Weighted>
-0.0000

> <Gold.Chemscore.Lipo.Weighted>
-9.3575

> <Gold.Chemscore.Internal_Hbond.Weighted>
0.0000

> <Gold.Chemscore.DEClash.Weighted>
0.0015

> <Gold.Chemscore.DEInternal.Weighted>
1.6622

> <Gold.Chemscore.Rot.Weighted>
4.9321

> <Gold.Chemscore.Internal.Correction.Weighted>
   9.000000E+99

> <Gold.Protein.RotatedTorsions>
[ 6907 6896 6895 6894 ] final  -74.77 input  -60.11 | X-H torsion
[ 7974 7965 7964 7962 ] final  -98.34 input  175.53 | X-H torsion
[ 8008 7997 7996 7995 ] final -130.85 input   59.86 | X-H torsion
[ 10167 10162 10161 10158 ] final  103.45 input  -65.29 | X-H torsion
[ 10718 10713 10712 10709 ] final   40.57 input   66.30 | X-H torsion
[ 10763 10752 10751 10750 ] final  -24.52 input  -60.55 | X-H torsion
[ 11005 11000 10999 10996 ] final  -60.32 input  -57.11 | X-H torsion

> <Gold.Protein.ActiveResidues>
 VAL166  LYS551  ARG553  GLY616  TRP617  ASP618  TYR619  PRO620  LYS621  CYS622 
 ASP623  PHE694  ASN695  SER759  ASP760  ASP761  ALA762  ILE779  LEU786  VAL792 
 PHE793  MET794  SER795  GLU796  ALA797  LYS798  CYS799  TRP800  GLU811  SER814 

> <Gold.Protein.RotatedAtoms>
  150.7081  134.4820  159.5474 H   0  0  0  0  0  0  0  0  0  0  0  0  # atno 6907 bound_to 6896
  152.2455  134.8183  160.0463 H   0  0  0  0  0  0  0  0  0  0  0  0  # atno 6908 bound_to 6896
  151.8949  133.3489  159.3848 H   0  0  0  0  0  0  0  0  0  0  0  0  # atno 6909 bound_to 6896
  145.3218  140.9423  143.2711 H   0  0  0  0  0  0  0  0  0  0  0  0  # atno 7974 bound_to 7965
  155.3025  140.0453  157.3030 H   0  0  0  0  0  0  0  0  0  0  0  0  # atno 8008 bound_to 7997
  154.5478  140.2308  155.8501 H   0  0  0  0  0  0  0  0  0  0  0  0  # atno 8009 bound_to 7997
  156.1940  140.3043  155.9396 H   0  0  0  0  0  0  0  0  0  0  0  0  # atno 8010 bound_to 7997
  139.7262  144.7047  151.0795 H   0  0  0  0  0  0  0  0  0  0  0  0  # atno 10167 bound_to 10162
  157.3837  130.7768  149.7213 H   0  0  0  0  0  0  0  0  0  0  0  0  # atno 10718 bound_to 10713
  153.6851  135.6964  153.5106 H   0  0  0  0  0  0  0  0  0  0  0  0  # atno 10763 bound_to 10752
  153.2455  135.4292  155.0742 H   0  0  0  0  0  0  0  0  0  0  0  0  # atno 10764 bound_to 10752
  154.8389  135.3518  154.6394 H   0  0  0  0  0  0  0  0  0  0  0  0  # atno 10765 bound_to 10752
  141.1282  133.6621  156.5205 H   0  0  0  0  0  0  0  0  0  0  0  0  # atno 11005 bound_to 11000
  144.8933  139.4746  143.6667 LP  0  0  0  0  0  0  0  0  0  0  0  0  # atno 17320 bound_to 7965
  146.3079  139.7644  142.9042 LP  0  0  0  0  0  0  0  0  0  0  0  0  # atno 17321 bound_to 7965
  140.7763  143.5102  150.9661 LP  0  0  0  0  0  0  0  0  0  0  0  0  # atno 17342 bound_to 10162
  139.8790  143.7096  152.3159 LP  0  0  0  0  0  0  0  0  0  0  0  0  # atno 17343 bound_to 10162
  155.9781  130.4054  150.3666 LP  0  0  0  0  0  0  0  0  0  0  0  0  # atno 17370 bound_to 10713
  157.1773  131.0383  151.2766 LP  0  0  0  0  0  0  0  0  0  0  0  0  # atno 17371 bound_to 10713
  140.4296  134.7114  157.4934 LP  0  0  0  0  0  0  0  0  0  0  0  0  # atno 17394 bound_to 11000
  140.0303  134.6416  155.9116 LP  0  0  0  0  0  0  0  0  0  0  0  0  # atno 17395 bound_to 11000

$$$$
