AV-unprocessed.smi:1449|AV-procd|sdf|5896|dock7
  -GOLD-   22720 5583D 1   1.00000     0.00000
 Structure written by MMmdl.
 34 35  0  0  0  0  0  0  0  0  1 V2000
  145.5670  130.8899  151.0993 C   0  0  0  0  0  0  0  0  0  0  0  0
  146.2084  132.1201  150.7822 O   0  0  0  0  0  0  0  0  0  0  0  0
  145.5516  133.2971  151.0774 C   0  0  0  0  0  0  0  0  0  0  0  0
  146.1910  134.5176  150.7838 C   0  0  0  0  0  0  0  0  0  0  0  0
  145.5291  135.7238  151.0829 C   0  0  0  0  0  0  0  0  0  0  0  0
  144.2382  135.6704  151.6611 C   0  0  0  0  0  0  0  0  0  0  0  0
  143.4727  136.8103  152.0277 N   0  0  0  0  0  0  0  0  0  0  0  0
  142.4160  136.8899  152.8604 C   0  0  0  0  0  0  0  0  0  0  0  0
  141.9536  135.9478  153.4996 O   0  0  0  0  0  0  0  0  0  0  0  0
  141.8966  138.1255  152.9759 N   0  0  0  0  0  0  0  0  0  0  0  0
  140.7585  138.5607  153.7869 C   0  0  1  0  0  0  0  0  0  0  0  0
  139.4449  137.9497  153.2640 C   0  0  0  0  0  0  0  0  0  0  0  0
  138.3573  138.1313  154.3301 C   0  0  0  0  0  0  0  0  0  0  0  0
  139.2197  138.0961  155.9471 S   0  0  0  0  0  0  0  0  0  0  0  0
  138.9460  139.3534  156.6594 O   0  0  0  0  0  0  0  0  0  0  0  0
  139.0010  136.7945  156.5959 O   0  0  0  0  0  0  0  0  0  0  0  0
  140.9166  138.1447  155.2583 C   0  0  0  0  0  0  0  0  0  0  0  0
  143.6911  134.3980  151.9259 C   0  0  0  0  0  0  0  0  0  0  0  0
  144.3202  133.2382  151.6422 N   0  0  0  0  0  0  0  0  0  0  0  0
  146.2120  130.0618  150.8061 H   0  0  0  0  0  0  0  0  0  0  0  0
  144.6244  130.7813  150.5609 H   0  0  0  0  0  0  0  0  0  0  0  0
  145.3810  130.8003  152.1705 H   0  0  0  0  0  0  0  0  0  0  0  0
  147.1760  134.5292  150.3408 H   0  0  0  0  0  0  0  0  0  0  0  0
  146.0310  136.6557  150.8756 H   0  0  0  0  0  0  0  0  0  0  0  0
  143.7915  137.6851  151.6376 H   0  0  0  0  0  0  0  0  0  0  0  0
  142.3636  138.8536  152.4547 H   0  0  0  0  0  0  0  0  0  0  0  0
  140.6539  139.6460  153.7357 H   0  0  0  0  0  0  0  0  0  0  0  0
  139.1460  138.3852  152.3101 H   0  0  0  0  0  0  0  0  0  0  0  0
  139.5886  136.8816  153.0943 H   0  0  0  0  0  0  0  0  0  0  0  0
  137.8739  139.1032  154.2284 H   0  0  0  0  0  0  0  0  0  0  0  0
  137.5919  137.3560  154.2928 H   0  0  0  0  0  0  0  0  0  0  0  0
  141.3367  137.1416  155.3417 H   0  0  0  0  0  0  0  0  0  0  0  0
  141.5365  138.8300  155.8368 H   0  0  0  0  0  0  0  0  0  0  0  0
  142.7144  134.3053  152.3785 H   0  0  0  0  0  0  0  0  0  0  0  0
  1  2  1  0  0  0  0
  1 20  1  0  0  0  0
  1 21  1  0  0  0  0
  1 22  1  0  0  0  0
  2  3  1  0  0  0  0
  3 19  1  0  0  0  0
  3  4  2  0  0  0  0
  4  5  1  0  0  0  0
  4 23  1  0  0  0  0
  5  6  2  0  0  0  0
  5 24  1  0  0  0  0
  6  7  1  0  0  0  0
  6 18  1  0  0  0  0
  7  8  1  0  0  0  0
  7 25  1  0  0  0  0
  8  9  2  0  0  0  0
  8 10  1  0  0  0  0
 10 11  1  0  0  0  0
 10 26  1  0  0  0  0
 11 17  1  0  0  0  0
 11 12  1  0  0  0  0
 11 27  1  0  0  0  0
 12 13  1  0  0  0  0
 12 28  1  0  0  0  0
 12 29  1  0  0  0  0
 13 14  1  0  0  0  0
 13 30  1  0  0  0  0
 13 31  1  0  0  0  0
 14 15  2  0  0  0  0
 14 16  2  0  0  0  0
 14 17  1  0  0  0  0
 17 32  1  0  0  0  0
 17 33  1  0  0  0  0
 18 19  2  0  0  0  0
 18 34  1  0  0  0  0
M  END
> <s_m_source_file>
AV-unprocessed.smi

> <i_m_source_file_index>
1449

> <i_lp_mmshare_version>
43012

> <i_f3d_flags>
0

> <s_epik_input>
W0NIM11PYzFbY0hdW2NIXWMoW2NIXW4xKVtOSF1DKD1PKVtOSF1bQ0BASF0oW0NIMl0yKVtDSDJdW0NIMl1TMig9Tyk9Tw==

> <s_epik_cmdline>
J2VwaWtfcHl0aG9uJywgJy1waCcsICc3LjAnLCAnLXRuJywgJzgnLCAnLW1hJywgJzIwMCcsICctbWV0YWxfYmluZGluZycsICctaW1hZScsICc8aW5maWxlLm1hZT4nLCAnLW9tYWUnLCAnPG91dGZpbGUubWFlPic=

> <r_lp_tautomer_probability>
1

> <r_epik_Ionization_Penalty>
7.6506e-05

> <r_epik_Ionization_Penalty_Charging>
0

> <r_epik_Ionization_Penalty_Neutral>
7.6506e-05

> <r_epik_State_Penalty>
-0

> <r_epik_Charging_Adjusted_Penalty>
0

> <i_epik_Tot_Q>
0

> <i_epik_Tot_abs_Q>
0

> <r_epik_Metal_State_Penalty>
-0

> <b_epik_Metal_Only>
0

> <s_lp_Force_Field>
OPLS_2005

> <r_lp_Energy>
18.5668

> <b_lp_Chiralities_Consistent>
1

> <s_lp_Variant>
AV-unprocessed.smi:1449-2

> <Gold.Version>
5.8.1

> <Gold.Id.Protein>
6NUR|6NUR_protein|mol2

> <Gold.PLP.Fitness>
34.4384

> <Gold.PLP.PLP>
-26.4519

> <Gold.PLP.part.hbond>
-3.0000

> <Gold.PLP.part.metal>
0.0000

> <Gold.PLP.part.buried>
-6.2166

> <Gold.PLP.part.nonpolar>
-17.2048

> <Gold.PLP.part.repulsive>
0.8468

> <Gold.PLP.ligand.clash>
0.0000

> <Gold.PLP.ligand.torsion>
0.1135

> <Gold.PLP.Chemscore.Hbond>
2.7374

> <Gold.PLP.Chemscore.CHOScore>
0.0000

> <Gold.PLP.Chemscore.Metal>
0.0000

> <Gold.Chemscore.Hbonds>
donor molecule, donor type, donor heavy atom, donor atom, acceptor molecule, acceptor atom, score
      L1  H     7    25       P1 10171  0.75
      L1  H    10    26       P1 10175  0.98
      P1  H 11000 11005       L1    16  1.00

> <Gold.PLP.Chemscore.Internal.Correction>
0.0011

> <Gold.Rescore>
     Score         DG    S(hbond)    S(metal)    S(lipo)     H(rot)  DE(clash)    DE(int)     intcor
     15.40     -16.91       2.51        0.00      54.63       1.31       0.06       1.45       ----

> <Gold.Chemscore.Fitness>
15.3958

> <Gold.Chemscore.DG>
-16.9088

> <Gold.Chemscore.ZeroCoef>
-5.4800

> <Gold.Chemscore.Hbond>
2.5130

> <Gold.Chemscore.Metal>
0.0000

> <Gold.Chemscore.Lipo>
54.6261

> <Gold.Chemscore.Internal_Hbond>
0.0000

> <Gold.Chemscore.DEClash>
0.0626

> <Gold.Chemscore.DEInternal>
1.4504

> <Gold.Chemscore.Rot>
1.3109

> <Gold.Chemscore.Internal.Correction>
   9.000000E+99

> <Gold.Chemscore.Hbonds>
donor molecule, donor type, donor heavy atom, donor atom, acceptor molecule, acceptor atom, score
      L1  H     7    25       P1 10171  0.71
      L1  H    10    26       P1 10175  0.86
      P1  H 11000 11005       L1    16  0.97

> <Gold.Chemscore.Hbond.Weighted>
-8.3935

> <Gold.Chemscore.Metal.Weighted>
-0.0000

> <Gold.Chemscore.Lipo.Weighted>
-6.3913

> <Gold.Chemscore.Internal_Hbond.Weighted>
0.0000

> <Gold.Chemscore.DEClash.Weighted>
0.0626

> <Gold.Chemscore.DEInternal.Weighted>
1.4504

> <Gold.Chemscore.Rot.Weighted>
3.3559

> <Gold.Chemscore.Internal.Correction.Weighted>
   9.000000E+99

> <Gold.Protein.RotatedTorsions>
[ 6907 6896 6895 6894 ] final -155.98 input  -60.11 | X-H torsion
[ 7974 7965 7964 7962 ] final -149.84 input  175.53 | X-H torsion
[ 8008 7997 7996 7995 ] final  124.40 input   59.86 | X-H torsion
[ 10167 10162 10161 10158 ] final  173.72 input  -65.29 | X-H torsion
[ 10718 10713 10712 10709 ] final  179.89 input   66.30 | X-H torsion
[ 10763 10752 10751 10750 ] final   53.96 input  -60.55 | X-H torsion
[ 11005 11000 10999 10996 ] final  118.88 input  -57.11 | X-H torsion

> <Gold.Protein.ActiveResidues>
 VAL166  LYS551  ARG553  GLY616  TRP617  ASP618  TYR619  PRO620  LYS621  CYS622 
 ASP623  PHE694  ASN695  SER759  ASP760  ASP761  ALA762  ILE779  LEU786  VAL792 
 PHE793  MET794  SER795  GLU796  ALA797  LYS798  CYS799  TRP800  GLU811  SER814 

> <Gold.Protein.RotatedAtoms>
  151.2807  133.4211  159.2626 H   0  0  0  0  0  0  0  0  0  0  0  0  # atno 6907 bound_to 6896
  151.0363  134.9576  159.8148 H   0  0  0  0  0  0  0  0  0  0  0  0  # atno 6908 bound_to 6896
  152.5356  134.2767  159.9044 H   0  0  0  0  0  0  0  0  0  0  0  0  # atno 6909 bound_to 6896
  144.7943  140.5011  143.5751 H   0  0  0  0  0  0  0  0  0  0  0  0  # atno 7974 bound_to 7965
  156.2800  140.2740  156.1782 H   0  0  0  0  0  0  0  0  0  0  0  0  # atno 8008 bound_to 7997
  155.0583  140.0386  157.2586 H   0  0  0  0  0  0  0  0  0  0  0  0  # atno 8009 bound_to 7997
  154.7138  140.2674  155.6610 H   0  0  0  0  0  0  0  0  0  0  0  0  # atno 8010 bound_to 7997
  139.5117  144.3229  152.0185 H   0  0  0  0  0  0  0  0  0  0  0  0  # atno 10167 bound_to 10162
  156.8691  130.9778  151.3075 H   0  0  0  0  0  0  0  0  0  0  0  0  # atno 10718 bound_to 10713
  152.9800  135.5761  154.4827 H   0  0  0  0  0  0  0  0  0  0  0  0  # atno 10763 bound_to 10752
  154.4373  135.2775  155.1873 H   0  0  0  0  0  0  0  0  0  0  0  0  # atno 10764 bound_to 10752
  154.3556  135.6200  153.5718 H   0  0  0  0  0  0  0  0  0  0  0  0  # atno 10765 bound_to 10752
  139.9126  134.9624  156.7570 H   0  0  0  0  0  0  0  0  0  0  0  0  # atno 11005 bound_to 11000
  145.5714  139.1483  143.3286 LP  0  0  0  0  0  0  0  0  0  0  0  0  # atno 17320 bound_to 7965
  146.2206  140.5847  142.9019 LP  0  0  0  0  0  0  0  0  0  0  0  0  # atno 17321 bound_to 7965
  140.2670  144.4005  150.6165 LP  0  0  0  0  0  0  0  0  0  0  0  0  # atno 17342 bound_to 10162
  140.6116  143.2170  151.6875 LP  0  0  0  0  0  0  0  0  0  0  0  0  # atno 17343 bound_to 10162
  157.6206  130.8652  149.9102 LP  0  0  0  0  0  0  0  0  0  0  0  0  # atno 17370 bound_to 10713
  156.0736  130.3682  150.0725 LP  0  0  0  0  0  0  0  0  0  0  0  0  # atno 17371 bound_to 10713
  140.6728  133.9544  155.7866 LP  0  0  0  0  0  0  0  0  0  0  0  0  # atno 17394 bound_to 11000
  141.0566  134.0408  157.3715 LP  0  0  0  0  0  0  0  0  0  0  0  0  # atno 17395 bound_to 11000

$$$$
