AV-unprocessed.smi:2405|AV-procd|sdf|9512|dock9
  -GOLD-   2272013143D 1   1.00000     0.00000
 Structure written by MMmdl.
 36 37  0  0  0  0  0  0  0  0  2 V2000
  144.7041  133.0455  151.4125 C   0  0  0  0  0  0  0  0  0  0  0  0
  144.7009  134.2870  150.5142 C   0  0  0  0  0  0  0  0  0  0  0  0
  144.8557  135.5515  151.2899 C   0  0  0  0  0  0  0  0  0  0  0  0
  145.8514  136.4188  151.0916 N   0  0  0  0  0  0  0  0  0  0  0  0
  145.7474  137.5556  151.9006 C   0  0  0  0  0  0  0  0  0  0  0  0
  146.7719  138.6505  151.7984 C   0  0  0  0  0  0  0  0  0  0  0  0
  147.3166  139.0164  153.1821 C   0  0  0  0  0  0  0  0  0  0  0  0
  146.6197  139.6608  153.9657 O   0  0  0  0  0  0  0  0  0  0  0  0
  148.5606  138.6012  153.4691 N   0  0  0  0  0  0  0  0  0  0  0  0
  149.2370  138.7879  154.7485 C   0  0  2  0  0  0  0  0  0  0  0  0
  148.9814  140.2073  155.2890 C   0  0  0  0  0  0  0  0  0  0  0  0
  150.3209  140.9442  155.1907 C   0  0  0  0  0  0  0  0  0  0  0  0
  151.3862  139.8525  155.3491 C   0  0  1  0  0  0  0  0  0  0  0  0
  151.6570  139.5730  156.8416 C   0  0  0  0  0  0  0  0  0  0  0  0
  152.8234  139.6953  157.2784 O   0  0  0  0  0  0  0  0  0  0  0  0
  150.6710  139.2252  157.5280 O   0  5  0  0  0  0  0  0  0  0  0  0
  150.7686  138.6556  154.6015 C   0  0  0  0  0  0  0  0  0  0  0  0
  144.6518  137.5293  152.7285 C   0  0  0  0  0  0  0  0  0  0  0  0
  143.7006  136.0875  152.5043 S   0  0  0  0  0  0  0  0  0  0  0  0
  144.5899  132.1369  150.8211 H   0  0  0  0  0  0  0  0  0  0  0  0
  143.8859  133.0793  152.1328 H   0  0  0  0  0  0  0  0  0  0  0  0
  145.6376  132.9660  151.9702 H   0  0  0  0  0  0  0  0  0  0  0  0
  145.5104  134.2222  149.7867 H   0  0  0  0  0  0  0  0  0  0  0  0
  143.7715  134.3330  149.9452 H   0  0  0  0  0  0  0  0  0  0  0  0
  147.6043  138.3445  151.1636 H   0  0  0  0  0  0  0  0  0  0  0  0
  146.3382  139.5366  151.3329 H   0  0  0  0  0  0  0  0  0  0  0  0
  149.0605  138.0796  152.7640 H   0  0  0  0  0  0  0  0  0  0  0  0
  148.8626  138.0619  155.4728 H   0  0  0  0  0  0  0  0  0  0  0  0
  148.1863  140.7363  154.7619 H   0  0  0  0  0  0  0  0  0  0  0  0
  148.6813  140.1440  156.3359 H   0  0  0  0  0  0  0  0  0  0  0  0
  150.4174  141.4017  154.2053 H   0  0  0  0  0  0  0  0  0  0  0  0
  150.4034  141.7454  155.9269 H   0  0  0  0  0  0  0  0  0  0  0  0
  152.3278  140.1535  154.8879 H   0  0  0  0  0  0  0  0  0  0  0  0
  151.1309  137.6869  154.9483 H   0  0  0  0  0  0  0  0  0  0  0  0
  151.0568  138.7250  153.5510 H   0  0  0  0  0  0  0  0  0  0  0  0
  144.3406  138.2751  153.4447 H   0  0  0  0  0  0  0  0  0  0  0  0
  1  2  1  0  0  0  0
  1 20  1  0  0  0  0
  1 21  1  0  0  0  0
  1 22  1  0  0  0  0
  2  3  1  0  0  0  0
  2 23  1  0  0  0  0
  2 24  1  0  0  0  0
  3 19  1  0  0  0  0
  3  4  2  0  0  0  0
  4  5  1  0  0  0  0
  5  6  1  0  0  0  0
  5 18  2  0  0  0  0
  6  7  1  0  0  0  0
  6 25  1  0  0  0  0
  6 26  1  0  0  0  0
  7  8  2  0  0  0  0
  7  9  1  0  0  0  0
  9 10  1  0  0  0  0
  9 27  1  0  0  0  0
 10 17  1  0  0  0  0
 10 11  1  0  0  0  0
 10 28  1  0  0  0  0
 11 12  1  0  0  0  0
 11 29  1  0  0  0  0
 11 30  1  0  0  0  0
 12 13  1  0  0  0  0
 12 31  1  0  0  0  0
 12 32  1  0  0  0  0
 13 14  1  0  0  0  0
 13 17  1  0  0  0  0
 13 33  1  0  0  0  0
 14 15  2  0  0  0  0
 14 16  1  0  0  0  0
 17 34  1  0  0  0  0
 17 35  1  0  0  0  0
 18 19  1  0  0  0  0
 18 36  1  0  0  0  0
M  CHG  1  16  -1
M  END
> <s_m_source_file>
AV-unprocessed.smi

> <i_m_source_file_index>
2405

> <i_lp_mmshare_version>
43012

> <i_f3d_flags>
0

> <s_epik_input>
W0NIM11bQ0gyXWMxbmMoW2NIXXMxKVtDSDJdQyg9TylbTkhdW0NAQEhdMltDSDJdW0NIMl1bQ0BIXShbQ0gyXTIpQyg9TylbT0hd

> <s_epik_cmdline>
J2VwaWtfcHl0aG9uJywgJy1waCcsICc3LjAnLCAnLXRuJywgJzgnLCAnLW1hJywgJzIwMCcsICctbWV0YWxfYmluZGluZycsICctaW1hZScsICc8aW5maWxlLm1hZT4nLCAnLW9tYWUnLCAnPG91dGZpbGUubWFlPic=

> <r_epik_Ionization_Penalty>
0.000544611

> <r_epik_Ionization_Penalty_Charging>
0.000481685

> <r_epik_Ionization_Penalty_Neutral>
6.29266e-05

> <r_epik_State_Penalty>
0.00029893

> <r_epik_Charging_Adjusted_Penalty>
0.000780614

> <i_epik_Tot_Q>
-1

> <i_epik_Tot_abs_Q>
1

> <r_epik_Metal_State_Penalty>
-0

> <b_epik_Metal_Only>
0

> <s_lp_Force_Field>
OPLS_2005

> <r_lp_Energy>
8.39141

> <b_lp_Chiralities_Consistent>
1

> <s_lp_Variant>
AV-unprocessed.smi:2405-1

> <Gold.Version>
5.8.1

> <Gold.Id.Protein>
6NUR|6NUR_protein|mol2

> <Gold.PLP.Fitness>
41.6058

> <Gold.PLP.PLP>
-32.1618

> <Gold.PLP.part.hbond>
-3.0000

> <Gold.PLP.part.metal>
0.0000

> <Gold.PLP.part.buried>
2.7139

> <Gold.PLP.part.nonpolar>
-31.0019

> <Gold.PLP.part.repulsive>
0.5366

> <Gold.PLP.ligand.clash>
0.0000

> <Gold.PLP.ligand.torsion>
0.5151

> <Gold.PLP.Chemscore.Hbond>
2.7771

> <Gold.PLP.Chemscore.CHOScore>
0.7017

> <Gold.PLP.Chemscore.Metal>
0.0000

> <Gold.Chemscore.Hbonds>
donor molecule, donor type, donor heavy atom, donor atom, acceptor molecule, acceptor atom, score
      L1  H     9    27       P1  7948  0.80
      P1  H  7997  8009       L1    15  2.00
      L1  C    18    36       P1 10175  0.70

> <Gold.PLP.Chemscore.Internal.Correction>
0.0377

> <Gold.Rescore>
     Score         DG    S(hbond)    S(metal)    S(lipo)     H(rot)  DE(clash)    DE(int)     intcor
     11.58     -14.81       1.78        0.00      74.18       2.06       0.14       3.09       ----

> <Gold.Chemscore.Fitness>
11.5812

> <Gold.Chemscore.DG>
-14.8147

> <Gold.Chemscore.ZeroCoef>
-5.4800

> <Gold.Chemscore.Hbond>
1.7779

> <Gold.Chemscore.Metal>
0.0000

> <Gold.Chemscore.Lipo>
74.1798

> <Gold.Chemscore.Internal_Hbond>
0.0000

> <Gold.Chemscore.DEClash>
0.1428

> <Gold.Chemscore.DEInternal>
3.0908

> <Gold.Chemscore.Rot>
2.0635

> <Gold.Chemscore.Internal.Correction>
   9.000000E+99

> <Gold.Chemscore.Hbonds>
donor molecule, donor type, donor heavy atom, donor atom, acceptor molecule, acceptor atom, score
      L1  H     9    27       P1  7948  0.74
      P1  H  7997  8009       L1    15  1.00

> <Gold.Chemscore.Hbond.Weighted>
-5.9381

> <Gold.Chemscore.Metal.Weighted>
-0.0000

> <Gold.Chemscore.Lipo.Weighted>
-8.6790

> <Gold.Chemscore.Internal_Hbond.Weighted>
0.0000

> <Gold.Chemscore.DEClash.Weighted>
0.1428

> <Gold.Chemscore.DEInternal.Weighted>
3.0908

> <Gold.Chemscore.Rot.Weighted>
5.2825

> <Gold.Chemscore.Internal.Correction.Weighted>
   9.000000E+99

> <Gold.Protein.RotatedTorsions>
[ 6907 6896 6895 6894 ] final  165.10 input  -60.11 | X-H torsion
[ 7974 7965 7964 7962 ] final   88.80 input  175.53 | X-H torsion
[ 8008 7997 7996 7995 ] final -173.80 input   59.86 | X-H torsion
[ 10167 10162 10161 10158 ] final  -96.96 input  -65.29 | X-H torsion
[ 10718 10713 10712 10709 ] final   26.86 input   66.30 | X-H torsion
[ 10763 10752 10751 10750 ] final   63.05 input  -60.55 | X-H torsion
[ 11005 11000 10999 10996 ] final -106.61 input  -57.11 | X-H torsion

> <Gold.Protein.ActiveResidues>
 VAL166  LYS551  ARG553  GLY616  TRP617  ASP618  TYR619  PRO620  LYS621  CYS622 
 ASP623  PHE694  ASN695  SER759  ASP760  ASP761  ALA762  ILE779  LEU786  VAL792 
 PHE793  MET794  SER795  GLU796  ALA797  LYS798  CYS799  TRP800  GLU811  SER814 

> <Gold.Protein.RotatedAtoms>
  151.8996  133.3535  159.3825 H   0  0  0  0  0  0  0  0  0  0  0  0  # atno 6907 bound_to 6896
  150.7083  134.4842  159.5494 H   0  0  0  0  0  0  0  0  0  0  0  0  # atno 6908 bound_to 6896
  152.2428  134.8212  160.0508 H   0  0  0  0  0  0  0  0  0  0  0  0  # atno 6909 bound_to 6896
  145.5408  139.2288  143.2566 H   0  0  0  0  0  0  0  0  0  0  0  0  # atno 7974 bound_to 7965
  155.9620  140.1146  157.0887 H   0  0  0  0  0  0  0  0  0  0  0  0  # atno 8008 bound_to 7997
  154.4134  140.1180  156.5259 H   0  0  0  0  0  0  0  0  0  0  0  0  # atno 8009 bound_to 7997
  155.6708  140.3473  155.4820 H   0  0  0  0  0  0  0  0  0  0  0  0  # atno 8010 bound_to 7997
  140.2884  143.3237  152.0371 H   0  0  0  0  0  0  0  0  0  0  0  0  # atno 10167 bound_to 10162
  157.2125  130.6941  149.6234 H   0  0  0  0  0  0  0  0  0  0  0  0  # atno 10718 bound_to 10713
  153.0004  135.5443  154.6290 H   0  0  0  0  0  0  0  0  0  0  0  0  # atno 10763 bound_to 10752
  154.5572  135.2831  155.0956 H   0  0  0  0  0  0  0  0  0  0  0  0  # atno 10764 bound_to 10752
  154.2172  135.6457  153.5186 H   0  0  0  0  0  0  0  0  0  0  0  0  # atno 10765 bound_to 10752
  141.0996  133.8908  157.1876 H   0  0  0  0  0  0  0  0  0  0  0  0  # atno 11005 bound_to 11000
  146.1982  140.6228  142.9114 LP  0  0  0  0  0  0  0  0  0  0  0  0  # atno 17320 bound_to 7965
  144.7578  140.5349  143.6757 LP  0  0  0  0  0  0  0  0  0  0  0  0  # atno 17321 bound_to 7965
  139.4944  144.6542  151.6608 LP  0  0  0  0  0  0  0  0  0  0  0  0  # atno 17342 bound_to 10162
  140.5753  144.0039  150.6238 LP  0  0  0  0  0  0  0  0  0  0  0  0  # atno 17343 bound_to 10162
  155.9689  130.4546  150.5857 LP  0  0  0  0  0  0  0  0  0  0  0  0  # atno 17370 bound_to 10713
  157.3658  131.0757  151.1599 LP  0  0  0  0  0  0  0  0  0  0  0  0  # atno 17371 bound_to 10713
  139.9843  135.0087  156.9825 LP  0  0  0  0  0  0  0  0  0  0  0  0  # atno 17394 bound_to 11000
  140.5055  134.1054  155.7259 LP  0  0  0  0  0  0  0  0  0  0  0  0  # atno 17395 bound_to 11000

$$$$
