AV-unprocessed.smi:646|AV-procd|sdf|3168|dock1
  -GOLD-   22720 0 93D 1   1.00000     0.00000
 Structure written by MMmdl.
 44 45  0  0  0  0  0  0  0  0  1 V2000
  144.6059  134.9863  162.8286 C   0  0  0  0  0  0  0  0  0  0  0  0
  145.1504  134.9513  161.5157 O   0  0  0  0  0  0  0  0  0  0  0  0
  146.5737  135.0203  161.4177 C   0  0  2  0  0  0  0  0  0  0  0  0
  147.2146  133.9476  162.3122 C   0  0  0  0  0  0  0  0  0  0  0  0
  147.0977  136.4635  161.5347 C   0  0  0  0  0  0  0  0  0  0  0  0
  148.0236  136.1279  160.3674 C   0  0  2  0  0  0  0  0  0  0  0  0
  148.2029  137.2487  159.4531 N   0  0  0  0  0  0  0  0  0  0  0  0
  149.0554  137.2552  158.4178 C   0  0  0  0  0  0  0  0  0  0  0  0
  149.8385  136.3368  158.1774 O   0  0  0  0  0  0  0  0  0  0  0  0
  148.9965  138.4740  157.4975 C   0  0  0  0  0  0  0  0  0  0  0  0
  150.3760  138.7672  156.9633 C   0  0  0  0  0  0  0  0  0  0  0  0
  150.7362  139.1907  155.6517 C   0  0  0  0  0  0  0  0  0  0  0  0
  149.8393  139.4485  154.4752 C   0  0  0  0  0  0  0  0  0  0  0  0
  152.0404  139.3742  155.5325 N   0  0  0  0  0  0  0  0  0  0  0  0
  152.5861  139.0686  156.7830 O   0  0  0  0  0  0  0  0  0  0  0  0
  151.5763  138.7124  157.6168 C   0  0  0  0  0  0  0  0  0  0  0  0
  151.9569  138.3551  159.0134 C   0  0  0  0  0  0  0  0  0  0  0  0
  146.9741  135.0829  159.9077 C   0  0  0  0  0  0  0  0  0  0  0  0
  147.5356  133.7994  159.2880 C   0  0  0  0  0  0  0  0  0  0  0  0
  145.8822  135.5759  158.9348 C   0  0  0  0  0  0  0  0  0  0  0  0
  143.5190  135.0264  162.7615 H   0  0  0  0  0  0  0  0  0  0  0  0
  144.9337  135.8650  163.3843 H   0  0  0  0  0  0  0  0  0  0  0  0
  144.8611  134.0939  163.3992 H   0  0  0  0  0  0  0  0  0  0  0  0
  148.2916  133.8814  162.1586 H   0  0  0  0  0  0  0  0  0  0  0  0
  146.7952  132.9618  162.1109 H   0  0  0  0  0  0  0  0  0  0  0  0
  147.0692  134.1606  163.3707 H   0  0  0  0  0  0  0  0  0  0  0  0
  146.3500  137.2228  161.2979 H   0  0  0  0  0  0  0  0  0  0  0  0
  147.6122  136.6886  162.4692 H   0  0  0  0  0  0  0  0  0  0  0  0
  148.9594  135.6774  160.7063 H   0  0  0  0  0  0  0  0  0  0  0  0
  147.5947  138.0451  159.5765 H   0  0  0  0  0  0  0  0  0  0  0  0
  148.2863  138.2758  156.6942 H   0  0  0  0  0  0  0  0  0  0  0  0
  148.5987  139.3249  158.0516 H   0  0  0  0  0  0  0  0  0  0  0  0
  149.0755  138.6755  154.3896 H   0  0  0  0  0  0  0  0  0  0  0  0
  150.3974  139.4656  153.5384 H   0  0  0  0  0  0  0  0  0  0  0  0
  149.3303  140.4070  154.5786 H   0  0  0  0  0  0  0  0  0  0  0  0
  151.1669  138.6268  159.7137 H   0  0  0  0  0  0  0  0  0  0  0  0
  152.8664  138.8748  159.3160 H   0  0  0  0  0  0  0  0  0  0  0  0
  152.1335  137.2830  159.1012 H   0  0  0  0  0  0  0  0  0  0  0  0
  147.8594  133.9590  158.2589 H   0  0  0  0  0  0  0  0  0  0  0  0
  146.7908  133.0031  159.2798 H   0  0  0  0  0  0  0  0  0  0  0  0
  148.4029  133.4280  159.8332 H   0  0  0  0  0  0  0  0  0  0  0  0
  146.2848  135.7686  157.9399 H   0  0  0  0  0  0  0  0  0  0  0  0
  145.4125  136.5002  159.2713 H   0  0  0  0  0  0  0  0  0  0  0  0
  145.0876  134.8378  158.8213 H   0  0  0  0  0  0  0  0  0  0  0  0
  1  2  1  0  0  0  0
  1 21  1  0  0  0  0
  1 22  1  0  0  0  0
  1 23  1  0  0  0  0
  2  3  1  0  0  0  0
  3 18  1  0  0  0  0
  3  4  1  0  0  0  0
  3  5  1  0  0  0  0
  4 24  1  0  0  0  0
  4 25  1  0  0  0  0
  4 26  1  0  0  0  0
  5  6  1  0  0  0  0
  5 27  1  0  0  0  0
  5 28  1  0  0  0  0
  6  7  1  0  0  0  0
  6 18  1  0  0  0  0
  6 29  1  0  0  0  0
  7  8  1  0  0  0  0
  7 30  1  0  0  0  0
  8  9  2  0  0  0  0
  8 10  1  0  0  0  0
 10 11  1  0  0  0  0
 10 31  1  0  0  0  0
 10 32  1  0  0  0  0
 11 16  2  0  0  0  0
 11 12  1  0  0  0  0
 12 13  1  0  0  0  0
 12 14  2  0  0  0  0
 13 33  1  0  0  0  0
 13 34  1  0  0  0  0
 13 35  1  0  0  0  0
 14 15  1  0  0  0  0
 15 16  1  0  0  0  0
 16 17  1  0  0  0  0
 17 36  1  0  0  0  0
 17 37  1  0  0  0  0
 17 38  1  0  0  0  0
 18 19  1  0  0  0  0
 18 20  1  0  0  0  0
 19 39  1  0  0  0  0
 19 40  1  0  0  0  0
 19 41  1  0  0  0  0
 20 42  1  0  0  0  0
 20 43  1  0  0  0  0
 20 44  1  0  0  0  0
M  END
> <s_m_source_file>
AV-unprocessed.smi

> <i_m_source_file_index>
646

> <i_lp_mmshare_version>
43012

> <i_f3d_flags>
0

> <s_epik_input>
W0NIM11PW0NAQF0xKFtDSDNdKVtDSDJdW0NASF0oQzEoW0NIM10pW0NIM10pW05IXUMoPU8pW0NIMl1jMmMoW0NIM10pbm9jMltDSDNd

> <s_epik_cmdline>
J2VwaWtfcHl0aG9uJywgJy1waCcsICc3LjAnLCAnLXRuJywgJzgnLCAnLW1hJywgJzIwMCcsICctbWV0YWxfYmluZGluZycsICctaW1hZScsICc8aW5maWxlLm1hZT4nLCAnLW9tYWUnLCAnPG91dGZpbGUubWFlPic=

> <r_lp_tautomer_probability>
1

> <r_epik_Ionization_Penalty>
2.13169e-08

> <r_epik_Ionization_Penalty_Charging>
0

> <r_epik_Ionization_Penalty_Neutral>
2.13169e-08

> <r_epik_State_Penalty>
-0

> <r_epik_Charging_Adjusted_Penalty>
0

> <i_epik_Tot_Q>
0

> <i_epik_Tot_abs_Q>
0

> <r_epik_Metal_State_Penalty>
-0

> <b_epik_Metal_Only>
0

> <s_lp_Force_Field>
OPLS_2005

> <r_lp_Energy>
15.4726

> <b_lp_Chiralities_Consistent>
1

> <s_lp_Variant>
AV-unprocessed.smi:646-4

> <Gold.Version>
5.8.1

> <Gold.Id.Protein>
6NUR|6NUR_protein|mol2

> <Gold.PLP.Fitness>
34.1801

> <Gold.PLP.PLP>
-30.4432

> <Gold.PLP.part.hbond>
-3.0000

> <Gold.PLP.part.metal>
0.0000

> <Gold.PLP.part.buried>
-5.3453

> <Gold.PLP.part.nonpolar>
-23.2518

> <Gold.PLP.part.repulsive>
0.2314

> <Gold.PLP.ligand.clash>
0.0000

> <Gold.PLP.ligand.torsion>
0.9705

> <Gold.PLP.Chemscore.Hbond>
1.7632

> <Gold.PLP.Chemscore.CHOScore>
0.0000

> <Gold.PLP.Chemscore.Metal>
0.0000

> <Gold.Chemscore.Hbonds>
donor molecule, donor type, donor heavy atom, donor atom, acceptor molecule, acceptor atom, score
      P1  H  6896  6909       L1     9  0.23
      P1  H  7997  8010       L1    15  0.18

> <Gold.PLP.Chemscore.Internal.Correction>
0.3883

> <Gold.Rescore>
     Score         DG    S(hbond)    S(metal)    S(lipo)     H(rot)  DE(clash)    DE(int)     intcor
     14.61     -15.24       1.39        0.00      76.26       1.49       0.00       0.62       ----

> <Gold.Chemscore.Fitness>
14.6125

> <Gold.Chemscore.DG>
-15.2391

> <Gold.Chemscore.ZeroCoef>
-5.4800

> <Gold.Chemscore.Hbond>
1.3947

> <Gold.Chemscore.Metal>
0.0000

> <Gold.Chemscore.Lipo>
76.2599

> <Gold.Chemscore.Internal_Hbond>
0.0000

> <Gold.Chemscore.DEClash>
0.0038

> <Gold.Chemscore.DEInternal>
0.6228

> <Gold.Chemscore.Rot>
1.4928

> <Gold.Chemscore.Internal.Correction>
   9.000000E+99

> <Gold.Chemscore.Hbonds>
donor molecule, donor type, donor heavy atom, donor atom, acceptor molecule, acceptor atom, score
      P1  H  6896  6909       L1     9  0.22
      P1  H  7997  8010       L1    15  0.14

> <Gold.Chemscore.Hbond.Weighted>
-4.6583

> <Gold.Chemscore.Metal.Weighted>
-0.0000

> <Gold.Chemscore.Lipo.Weighted>
-8.9224

> <Gold.Chemscore.Internal_Hbond.Weighted>
0.0000

> <Gold.Chemscore.DEClash.Weighted>
0.0038

> <Gold.Chemscore.DEInternal.Weighted>
0.6228

> <Gold.Chemscore.Rot.Weighted>
3.8217

> <Gold.Chemscore.Internal.Correction.Weighted>
   9.000000E+99

> <Gold.Protein.RotatedTorsions>
[ 6907 6896 6895 6894 ] final   72.55 input  -60.11 | X-H torsion
[ 7974 7965 7964 7962 ] final -178.21 input  175.53 | X-H torsion
[ 8008 7997 7996 7995 ] final   26.44 input   59.86 | X-H torsion
[ 10167 10162 10161 10158 ] final  -21.61 input  -65.29 | X-H torsion
[ 10718 10713 10712 10709 ] final  135.39 input   66.30 | X-H torsion
[ 10763 10752 10751 10750 ] final   67.73 input  -60.55 | X-H torsion
[ 11005 11000 10999 10996 ] final -160.56 input  -57.11 | X-H torsion

> <Gold.Protein.ActiveResidues>
 VAL166  LYS551  ARG553  GLY616  TRP617  ASP618  TYR619  PRO620  LYS621  CYS622 
 ASP623  PHE694  ASN695  SER759  ASP760  ASP761  ALA762  ILE779  LEU786  VAL792 
 PHE793  MET794  SER795  GLU796  ALA797  LYS798  CYS799  TRP800  GLU811  SER814 

> <Gold.Protein.RotatedAtoms>
  152.4874  134.4554  159.9587 H   0  0  0  0  0  0  0  0  0  0  0  0  # atno 6907 bound_to 6896
  151.4548  133.3602  159.2808 H   0  0  0  0  0  0  0  0  0  0  0  0  # atno 6908 bound_to 6896
  150.8997  134.8432  159.7411 H   0  0  0  0  0  0  0  0  0  0  0  0  # atno 6909 bound_to 6896
  144.7130  140.0903  143.6421 H   0  0  0  0  0  0  0  0  0  0  0  0  # atno 7974 bound_to 7965
  155.0274  140.3154  155.4771 H   0  0  0  0  0  0  0  0  0  0  0  0  # atno 8008 bound_to 7997
  156.2880  140.2186  156.5336 H   0  0  0  0  0  0  0  0  0  0  0  0  # atno 8009 bound_to 7997
  154.7400  140.0474  157.0790 H   0  0  0  0  0  0  0  0  0  0  0  0  # atno 8010 bound_to 7997
  140.7283  143.4611  151.0378 H   0  0  0  0  0  0  0  0  0  0  0  0  # atno 10167 bound_to 10162
  157.4576  131.1071  150.9959 H   0  0  0  0  0  0  0  0  0  0  0  0  # atno 10718 bound_to 10713
  153.0200  135.5273  154.7025 H   0  0  0  0  0  0  0  0  0  0  0  0  # atno 10763 bound_to 10752
  154.6130  135.2880  155.0413 H   0  0  0  0  0  0  0  0  0  0  0  0  # atno 10764 bound_to 10752
  154.1428  135.6575  153.4998 H   0  0  0  0  0  0  0  0  0  0  0  0  # atno 10765 bound_to 10752
  140.6301  134.4660  157.5229 H   0  0  0  0  0  0  0  0  0  0  0  0  # atno 11005 bound_to 11000
  145.9626  139.2812  143.1146 LP  0  0  0  0  0  0  0  0  0  0  0  0  # atno 17320 bound_to 7965
  145.9204  140.9119  143.0408 LP  0  0  0  0  0  0  0  0  0  0  0  0  # atno 17321 bound_to 7965
  139.8296  143.7709  152.3179 LP  0  0  0  0  0  0  0  0  0  0  0  0  # atno 17342 bound_to 10162
  139.7820  144.7441  151.0075 LP  0  0  0  0  0  0  0  0  0  0  0  0  # atno 17343 bound_to 10162
  157.0767  130.5886  149.5412 LP  0  0  0  0  0  0  0  0  0  0  0  0  # atno 17370 bound_to 10713
  156.0014  130.5094  150.7676 LP  0  0  0  0  0  0  0  0  0  0  0  0  # atno 17371 bound_to 10713
  139.9119  134.8326  156.1498 LP  0  0  0  0  0  0  0  0  0  0  0  0  # atno 17394 bound_to 11000
  141.0681  133.6809  156.2086 LP  0  0  0  0  0  0  0  0  0  0  0  0  # atno 17395 bound_to 11000

$$$$
