AV-unprocessed.smi:49|AV-procd|sdf|467|dock9
  -GOLD-   2262016333D 1   1.00000     0.00000
 Structure written by MMmdl.
 28 29  0  0  0  0  0  0  0  0  2 V2000
  152.2233  144.0513  161.2013 C   0  0  0  0  0  0  0  0  0  0  0  0
  152.8203  143.5651  159.8759 C   0  0  0  0  0  0  0  0  0  0  0  0
  151.7687  143.2511  158.8639 C   0  0  0  0  0  0  0  0  0  0  0  0
  151.5829  141.9955  158.3557 N   0  0  0  0  0  0  0  0  0  0  0  0
  150.5986  142.2320  157.4907 C   0  0  0  0  0  0  0  0  0  0  0  0
  149.9296  141.2139  156.6166 C   0  0  2  0  0  0  0  0  0  0  0  0
  150.8463  140.5293  155.6019 C   0  0  0  0  0  0  0  0  0  0  0  0
  149.9062  140.2311  154.4349 C   0  0  1  0  0  0  0  0  0  0  0  0
  149.2438  139.0003  154.6478 O   0  0  0  0  0  0  0  0  0  0  0  0
  148.8884  141.3829  154.4664 C   0  0  0  0  0  0  0  0  0  0  0  0
  148.9390  141.9668  155.8229 N   0  3  0  0  0  0  0  0  0  0  0  0
  150.2328  143.5161  157.4798 N   0  0  0  0  0  0  0  0  0  0  0  0
  150.9901  144.2060  158.3582 N   0  0  0  0  0  0  0  0  0  0  0  0
  149.4049  140.4727  157.2217 H   0  0  0  0  0  0  0  0  0  0  0  0
  150.4363  140.1809  153.4832 H   0  0  0  0  0  0  0  0  0  0  0  0
  149.5144  143.9478  156.9158 H   0  0  0  0  0  0  0  0  0  0  0  0
  153.0098  144.2743  161.9227 H   0  0  0  0  0  0  0  0  0  0  0  0
  151.5730  143.2945  161.6411 H   0  0  0  0  0  0  0  0  0  0  0  0
  151.6348  144.9584  161.0591 H   0  0  0  0  0  0  0  0  0  0  0  0
  153.4889  144.3254  159.4701 H   0  0  0  0  0  0  0  0  0  0  0  0
  153.4302  142.6774  160.0481 H   0  0  0  0  0  0  0  0  0  0  0  0
  151.6104  141.2299  155.2604 H   0  0  0  0  0  0  0  0  0  0  0  0
  151.3581  139.6532  156.0023 H   0  0  0  0  0  0  0  0  0  0  0  0
  149.1017  138.5834  153.8110 H   0  0  0  0  0  0  0  0  0  0  0  0
  149.1770  142.1602  153.7582 H   0  0  0  0  0  0  0  0  0  0  0  0
  147.8778  141.0626  154.2088 H   0  0  0  0  0  0  0  0  0  0  0  0
  148.0334  141.9364  156.2683 H   0  0  0  0  0  0  0  0  0  0  0  0
  149.2504  142.9253  155.7484 H   0  0  0  0  0  0  0  0  0  0  0  0
  1  2  1  0  0  0  0
  1 17  1  0  0  0  0
  1 18  1  0  0  0  0
  1 19  1  0  0  0  0
  2 20  1  0  0  0  0
  2 21  1  0  0  0  0
  2  3  1  0  0  0  0
  3  4  1  0  0  0  0
  3 13  2  0  0  0  0
  4  5  2  0  0  0  0
  5  6  1  0  0  0  0
  5 12  1  0  0  0  0
  6 14  1  0  0  0  0
  6 11  1  0  0  0  0
  6  7  1  0  0  0  0
  7  8  1  0  0  0  0
  7 22  1  0  0  0  0
  7 23  1  0  0  0  0
  8 15  1  0  0  0  0
  8  9  1  0  0  0  0
  8 10  1  0  0  0  0
  9 24  1  0  0  0  0
 10 11  1  0  0  0  0
 10 25  1  0  0  0  0
 10 26  1  0  0  0  0
 11 27  1  0  0  0  0
 11 28  1  0  0  0  0
 12 13  1  0  0  0  0
 12 16  1  0  0  0  0
M  CHG  1  11   1
M  END
> <s_m_source_file>
AV-unprocessed.smi

> <i_m_source_file_index>
49

> <i_lp_mmshare_version>
43012

> <i_f3d_flags>
0

> <s_epik_input>
W0NIM11bQ0gyXWMxbmMobltuSF0xKVtDQEBIXTJbQ0gyXVtDQEBIXShbT0hdKVtDSDJdW05IXTI=

> <s_epik_cmdline>
J2VwaWtfcHl0aG9uJywgJy1waCcsICc3LjAnLCAnLXRuJywgJzgnLCAnLW1hJywgJzIwMCcsICctbWV0YWxfYmluZGluZycsICctaW1hZScsICc8aW5maWxlLm1hZT4nLCAnLW9tYWUnLCAnPG91dGZpbGUubWFlPic=

> <r_epik_Ionization_Penalty>
0.372103

> <r_epik_Ionization_Penalty_Charging>
0.0688988

> <r_epik_Ionization_Penalty_Neutral>
0.303204

> <r_epik_State_Penalty>
0.737493

> <r_epik_Charging_Adjusted_Penalty>
0.806392

> <i_epik_Tot_Q>
1

> <i_epik_Tot_abs_Q>
1

> <r_epik_Metal_State_Penalty>
1.01235

> <b_epik_Metal_Only>
0

> <s_lp_Force_Field>
OPLS_2005

> <r_lp_Energy>
18.9462

> <b_lp_Chiralities_Consistent>
1

> <s_lp_Variant>
AV-unprocessed.smi:49-5

> <Gold.Version>
5.8.1

> <Gold.Id.Protein>
6NUR|6NUR_protein|mol2

> <Gold.PLP.Fitness>
34.9195

> <Gold.PLP.PLP>
-26.0062

> <Gold.PLP.part.hbond>
-1.9828

> <Gold.PLP.part.metal>
0.0000

> <Gold.PLP.part.buried>
-1.1637

> <Gold.PLP.part.nonpolar>
-22.2409

> <Gold.PLP.part.repulsive>
0.2778

> <Gold.PLP.ligand.clash>
0.0000

> <Gold.PLP.ligand.torsion>
0.0291

> <Gold.PLP.Chemscore.Hbond>
2.9840

> <Gold.PLP.Chemscore.CHOScore>
0.0000

> <Gold.PLP.Chemscore.Metal>
0.0000

> <Gold.Chemscore.Hbonds>
donor molecule, donor type, donor heavy atom, donor atom, acceptor molecule, acceptor atom, score
      L1  H    11    28       P1  8028  2.00
      L1  H    12    16       P1  8028  1.00

> <Gold.PLP.Chemscore.Internal.Correction>
0.0196

> <Gold.Rescore>
     Score         DG    S(hbond)    S(metal)    S(lipo)     H(rot)  DE(clash)    DE(int)     intcor
     12.95     -13.00       1.87        0.00      52.18       1.89       0.03       0.03       ----

> <Gold.Chemscore.Fitness>
12.9491

> <Gold.Chemscore.DG>
-13.0006

> <Gold.Chemscore.ZeroCoef>
-5.4800

> <Gold.Chemscore.Hbond>
1.8712

> <Gold.Chemscore.Metal>
0.0000

> <Gold.Chemscore.Lipo>
52.1763

> <Gold.Chemscore.Internal_Hbond>
0.0000

> <Gold.Chemscore.DEClash>
0.0260

> <Gold.Chemscore.DEInternal>
0.0255

> <Gold.Chemscore.Rot>
1.8883

> <Gold.Chemscore.Internal.Correction>
   9.000000E+99

> <Gold.Chemscore.Hbonds>
donor molecule, donor type, donor heavy atom, donor atom, acceptor molecule, acceptor atom, score
      L1  H    11    28       P1  8028  0.94
      L1  H    12    16       P1  8028  0.80

> <Gold.Chemscore.Hbond.Weighted>
-6.2499

> <Gold.Chemscore.Metal.Weighted>
-0.0000

> <Gold.Chemscore.Lipo.Weighted>
-6.1046

> <Gold.Chemscore.Internal_Hbond.Weighted>
0.0000

> <Gold.Chemscore.DEClash.Weighted>
0.0260

> <Gold.Chemscore.DEInternal.Weighted>
0.0255

> <Gold.Chemscore.Rot.Weighted>
4.8340

> <Gold.Chemscore.Internal.Correction.Weighted>
   9.000000E+99

> <Gold.Protein.RotatedTorsions>
[ 6907 6896 6895 6894 ] final -138.78 input  -60.11 | X-H torsion
[ 7974 7965 7964 7962 ] final -153.18 input  175.53 | X-H torsion
[ 8008 7997 7996 7995 ] final  -66.11 input   59.86 | X-H torsion
[ 10167 10162 10161 10158 ] final  141.96 input  -65.29 | X-H torsion
[ 10718 10713 10712 10709 ] final -156.68 input   66.30 | X-H torsion
[ 10763 10752 10751 10750 ] final  -71.49 input  -60.55 | X-H torsion
[ 11005 11000 10999 10996 ] final  -14.57 input  -57.11 | X-H torsion

> <Gold.Protein.ActiveResidues>
 VAL166  LYS551  ARG553  GLY616  TRP617  ASP618  TYR619  PRO620  LYS621  CYS622 
 ASP623  PHE694  ASN695  SER759  ASP760  ASP761  ALA762  ILE779  LEU786  VAL792 
 PHE793  MET794  SER795  GLU796  ALA797  LYS798  CYS799  TRP800  GLU811  SER814 

> <Gold.Protein.RotatedAtoms>
  151.0394  133.5720  159.2652 H   0  0  0  0  0  0  0  0  0  0  0  0  # atno 6907 bound_to 6896
  151.2772  135.0702  159.9166 H   0  0  0  0  0  0  0  0  0  0  0  0  # atno 6908 bound_to 6896
  152.5361  134.0114  159.7994 H   0  0  0  0  0  0  0  0  0  0  0  0  # atno 6909 bound_to 6896
  144.7754  140.4560  143.5877 H   0  0  0  0  0  0  0  0  0  0  0  0  # atno 7974 bound_to 7965
  154.4714  140.0919  156.7153 H   0  0  0  0  0  0  0  0  0  0  0  0  # atno 8008 bound_to 7997
  155.4714  140.3464  155.4308 H   0  0  0  0  0  0  0  0  0  0  0  0  # atno 8009 bound_to 7997
  156.1045  140.1431  156.9411 H   0  0  0  0  0  0  0  0  0  0  0  0  # atno 8010 bound_to 7997
  139.5006  144.6138  151.6211 H   0  0  0  0  0  0  0  0  0  0  0  0  # atno 10167 bound_to 10162
  156.5299  130.8516  151.2712 H   0  0  0  0  0  0  0  0  0  0  0  0  # atno 10718 bound_to 10713
  154.4325  135.5960  153.6078 H   0  0  0  0  0  0  0  0  0  0  0  0  # atno 10763 bound_to 10752
  152.9800  135.5978  154.3821 H   0  0  0  0  0  0  0  0  0  0  0  0  # atno 10764 bound_to 10752
  154.3661  135.2841  155.2271 H   0  0  0  0  0  0  0  0  0  0  0  0  # atno 10765 bound_to 10752
  140.7877  133.8312  155.9351 H   0  0  0  0  0  0  0  0  0  0  0  0  # atno 11005 bound_to 11000
  145.6201  139.1523  143.3027 LP  0  0  0  0  0  0  0  0  0  0  0  0  # atno 17320 bound_to 7965
  146.1930  140.6312  142.9137 LP  0  0  0  0  0  0  0  0  0  0  0  0  # atno 17321 bound_to 7965
  140.5820  143.9929  150.6274 LP  0  0  0  0  0  0  0  0  0  0  0  0  # atno 17342 bound_to 10162
  140.3082  143.3216  152.0905 LP  0  0  0  0  0  0  0  0  0  0  0  0  # atno 17343 bound_to 10162
  157.7423  130.9888  150.2510 LP  0  0  0  0  0  0  0  0  0  0  0  0  # atno 17370 bound_to 10713
  156.3070  130.3766  149.7697 LP  0  0  0  0  0  0  0  0  0  0  0  0  # atno 17371 bound_to 10713
  140.9420  134.1888  157.4791 LP  0  0  0  0  0  0  0  0  0  0  0  0  # atno 17394 bound_to 11000
  139.8735  134.9875  156.5373 LP  0  0  0  0  0  0  0  0  0  0  0  0  # atno 17395 bound_to 11000

$$$$
