AV-unprocessed.smi:1517|AV-procd|sdf|6120|dock4
  -GOLD-   22720 6253D 1   1.00000     0.00000
 Structure written by MMmdl.
 42 44  0  0  0  0  0  0  0  0  2 V2000
  149.5305  140.8223  153.1841 O   0  0  0  0  0  0  0  0  0  0  0  0
  148.4743  140.8161  154.1183 C   0  0  0  0  0  0  0  0  0  0  0  0
  148.8352  141.7225  155.2999 C   0  0  0  0  0  0  0  0  0  0  0  0
  149.9220  141.1629  156.0857 N   0  0  0  0  0  0  0  0  0  0  0  0
  150.4824  141.9584  157.0907 C   0  0  0  0  0  0  0  0  0  0  0  0
  150.4007  143.3129  157.1767 N   0  3  0  0  0  0  0  0  0  0  0  0
  151.0686  143.7207  158.3350 C   0  0  0  0  0  0  0  0  0  0  0  0
  151.2659  144.9898  158.8704 C   0  0  0  0  0  0  0  0  0  0  0  0
  151.9888  145.0622  160.0793 C   0  0  0  0  0  0  0  0  0  0  0  0
  152.4842  143.9029  160.7111 C   0  0  0  0  0  0  0  0  0  0  0  0
  152.2806  142.6201  160.1612 C   0  0  0  0  0  0  0  0  0  0  0  0
  151.5680  142.5549  158.9646 C   0  0  0  0  0  0  0  0  0  0  0  0
  151.1825  141.4812  158.1526 N   0  0  0  0  0  0  0  0  0  0  0  0
  151.5273  140.1065  158.5445 C   0  0  0  0  0  0  0  0  0  0  0  0
  153.0505  139.8681  158.5667 C   0  0  2  0  0  0  0  0  0  0  0  0
  153.4007  139.1724  157.3880 O   0  0  0  0  0  0  0  0  0  0  0  0
  153.4974  139.1382  159.8292 C   0  0  0  0  0  0  0  0  0  0  0  0
  153.0235  137.8359  160.1055 C   0  0  0  0  0  0  0  0  0  0  0  0
  153.4088  137.1732  161.2866 C   0  0  0  0  0  0  0  0  0  0  0  0
  154.2668  137.8094  162.2031 C   0  0  0  0  0  0  0  0  0  0  0  0
  154.6314  137.1752  163.3423 F   0  0  0  0  0  0  0  0  0  0  0  0
  154.7410  139.1076  161.9365 C   0  0  0  0  0  0  0  0  0  0  0  0
  154.3586  139.7719  160.7548 C   0  0  0  0  0  0  0  0  0  0  0  0
  154.8091  141.0288  160.5243 F   0  0  0  0  0  0  0  0  0  0  0  0
  150.1250  140.1190  153.3973 H   0  0  0  0  0  0  0  0  0  0  0  0
  147.5648  141.1628  153.6271 H   0  0  0  0  0  0  0  0  0  0  0  0
  148.2987  139.7932  154.4528 H   0  0  0  0  0  0  0  0  0  0  0  0
  149.1261  142.7091  154.9369 H   0  0  0  0  0  0  0  0  0  0  0  0
  147.9631  141.8561  155.9419 H   0  0  0  0  0  0  0  0  0  0  0  0
  149.9818  140.1584  156.1729 H   0  0  0  0  0  0  0  0  0  0  0  0
  150.8853  145.8799  158.3912 H   0  0  0  0  0  0  0  0  0  0  0  0
  152.1653  146.0272  160.5324 H   0  0  0  0  0  0  0  0  0  0  0  0
  153.0315  143.9988  161.6377 H   0  0  0  0  0  0  0  0  0  0  0  0
  152.6624  141.7384  160.6546 H   0  0  0  0  0  0  0  0  0  0  0  0
  151.0924  139.9164  159.5268 H   0  0  0  0  0  0  0  0  0  0  0  0
  151.0334  139.4214  157.8542 H   0  0  0  0  0  0  0  0  0  0  0  0
  153.5630  140.8288  158.5117 H   0  0  0  0  0  0  0  0  0  0  0  0
  152.6333  139.1021  156.8409 H   0  0  0  0  0  0  0  0  0  0  0  0
  152.3540  137.3421  159.4163 H   0  0  0  0  0  0  0  0  0  0  0  0
  153.0409  136.1787  161.4921 H   0  0  0  0  0  0  0  0  0  0  0  0
  155.3955  139.5970  162.6427 H   0  0  0  0  0  0  0  0  0  0  0  0
  149.9269  143.9034  156.5056 H   0  0  0  0  0  0  0  0  0  0  0  0
  1  2  1  0  0  0  0
  1 25  1  0  0  0  0
  2  3  1  0  0  0  0
  2 26  1  0  0  0  0
  2 27  1  0  0  0  0
  3  4  1  0  0  0  0
  3 28  1  0  0  0  0
  3 29  1  0  0  0  0
  4  5  1  0  0  0  0
  4 30  1  0  0  0  0
  5 13  1  0  0  0  0
  5  6  2  0  0  0  0
  6  7  1  0  0  0  0
  6 42  1  0  0  0  0
  7 12  2  0  0  0  0
  7  8  1  0  0  0  0
  8  9  2  0  0  0  0
  8 31  1  0  0  0  0
  9 10  1  0  0  0  0
  9 32  1  0  0  0  0
 10 11  2  0  0  0  0
 10 33  1  0  0  0  0
 11 12  1  0  0  0  0
 11 34  1  0  0  0  0
 12 13  1  0  0  0  0
 13 14  1  0  0  0  0
 14 15  1  0  0  0  0
 14 35  1  0  0  0  0
 14 36  1  0  0  0  0
 15 16  1  0  0  0  0
 15 17  1  0  0  0  0
 15 37  1  0  0  0  0
 16 38  1  0  0  0  0
 17 23  1  0  0  0  0
 17 18  2  0  0  0  0
 18 19  1  0  0  0  0
 18 39  1  0  0  0  0
 19 20  2  0  0  0  0
 19 40  1  0  0  0  0
 20 21  1  0  0  0  0
 20 22  1  0  0  0  0
 22 23  2  0  0  0  0
 22 41  1  0  0  0  0
 23 24  1  0  0  0  0
M  CHG  1   6   1
M  END
> <s_m_source_file>
AV-unprocessed.smi

> <i_m_source_file_index>
1517

> <i_lp_mmshare_version>
43012

> <i_f3d_flags>
0

> <s_epik_input>
W09IXVtDSDJdW0NIMl1bTkhdYyhuMSluKGMoYzEyKVtjSF1bY0hdW2NIXVtjSF0yKVtDSDJdW0NASF0oW09IXSljM1tjSF1bY0hdYyhGKVtjSF1jM0Y=

> <s_epik_cmdline>
J2VwaWtfcHl0aG9uJywgJy1waCcsICc3LjAnLCAnLXRuJywgJzgnLCAnLW1hJywgJzIwMCcsICctbWV0YWxfYmluZGluZycsICctaW1hZScsICc8aW5maWxlLm1hZT4nLCAnLW9tYWUnLCAnPG91dGZpbGUubWFlPic=

> <r_epik_Ionization_Penalty>
0.0688096

> <r_epik_Ionization_Penalty_Charging>
0.0688055

> <r_epik_Ionization_Penalty_Neutral>
4.12262e-06

> <r_epik_State_Penalty>
0.0602293

> <r_epik_Charging_Adjusted_Penalty>
0.129035

> <i_epik_Tot_Q>
1

> <i_epik_Tot_abs_Q>
1

> <r_epik_Metal_State_Penalty>
2.77411

> <b_epik_Metal_Only>
0

> <s_lp_Force_Field>
OPLS_2005

> <r_lp_Energy>
18.8563

> <b_lp_Chiralities_Consistent>
1

> <s_lp_Variant>
AV-unprocessed.smi:1517-1

> <Gold.Version>
5.8.1

> <Gold.Id.Protein>
6NUR|6NUR_protein|mol2

> <Gold.PLP.Fitness>
63.9339

> <Gold.PLP.PLP>
-53.2821

> <Gold.PLP.part.hbond>
-3.4744

> <Gold.PLP.part.metal>
0.0000

> <Gold.PLP.part.buried>
-4.6794

> <Gold.PLP.part.nonpolar>
-44.3854

> <Gold.PLP.part.repulsive>
0.0772

> <Gold.PLP.ligand.clash>
0.0000

> <Gold.PLP.ligand.torsion>
0.6988

> <Gold.PLP.Chemscore.Hbond>
4.0000

> <Gold.PLP.Chemscore.CHOScore>
0.0000

> <Gold.PLP.Chemscore.Metal>
0.0000

> <Gold.Chemscore.Hbonds>
donor molecule, donor type, donor heavy atom, donor atom, acceptor molecule, acceptor atom, score
      L1  H     6    42       P1  8028  2.00
      P1  H  7997  8010       L1    16  0.99
      P1  H  8011  8017       L1     1  1.00

> <Gold.PLP.Chemscore.Internal.Correction>
0.0493

> <Gold.Rescore>
     Score         DG    S(hbond)    S(metal)    S(lipo)     H(rot)  DE(clash)    DE(int)     intcor
     19.43     -20.20       2.60        0.00     123.41       3.29       0.07       0.70       ----

> <Gold.Chemscore.Fitness>
19.4313

> <Gold.Chemscore.DG>
-20.2039

> <Gold.Chemscore.ZeroCoef>
-5.4800

> <Gold.Chemscore.Hbond>
2.6049

> <Gold.Chemscore.Metal>
0.0000

> <Gold.Chemscore.Lipo>
123.4127

> <Gold.Chemscore.Internal_Hbond>
0.0000

> <Gold.Chemscore.DEClash>
0.0688

> <Gold.Chemscore.DEInternal>
0.7038

> <Gold.Chemscore.Rot>
3.2874

> <Gold.Chemscore.Internal.Correction>
   9.000000E+99

> <Gold.Chemscore.Hbonds>
donor molecule, donor type, donor heavy atom, donor atom, acceptor molecule, acceptor atom, score
      L1  H     6    42       P1  8028  0.96
      P1  H  7997  8010       L1    16  0.30
      P1  H  8011  8017       L1     1  0.93

> <Gold.Chemscore.Hbond.Weighted>
-8.7004

> <Gold.Chemscore.Metal.Weighted>
-0.0000

> <Gold.Chemscore.Lipo.Weighted>
-14.4393

> <Gold.Chemscore.Internal_Hbond.Weighted>
0.0000

> <Gold.Chemscore.DEClash.Weighted>
0.0688

> <Gold.Chemscore.DEInternal.Weighted>
0.7038

> <Gold.Chemscore.Rot.Weighted>
8.4158

> <Gold.Chemscore.Internal.Correction.Weighted>
   9.000000E+99

> <Gold.Protein.RotatedTorsions>
[ 6907 6896 6895 6894 ] final  146.17 input  -60.11 | X-H torsion
[ 7974 7965 7964 7962 ] final  -54.96 input  175.53 | X-H torsion
[ 8008 7997 7996 7995 ] final   61.10 input   59.86 | X-H torsion
[ 10167 10162 10161 10158 ] final -176.41 input  -65.29 | X-H torsion
[ 10718 10713 10712 10709 ] final   62.43 input   66.30 | X-H torsion
[ 10763 10752 10751 10750 ] final -152.08 input  -60.55 | X-H torsion
[ 11005 11000 10999 10996 ] final  -49.88 input  -57.11 | X-H torsion

> <Gold.Protein.ActiveResidues>
 VAL166  LYS551  ARG553  GLY616  TRP617  ASP618  TYR619  PRO620  LYS621  CYS622 
 ASP623  PHE694  ASN695  SER759  ASP760  ASP761  ALA762  ILE779  LEU786  VAL792 
 PHE793  MET794  SER795  GLU796  ALA797  LYS798  CYS799  TRP800  GLU811  SER814 

> <Gold.Protein.RotatedAtoms>
  152.1714  133.4646  159.4910 H   0  0  0  0  0  0  0  0  0  0  0  0  # atno 6907 bound_to 6896
  150.6920  134.1949  159.4308 H   0  0  0  0  0  0  0  0  0  0  0  0  # atno 6908 bound_to 6896
  151.9856  135.0006  160.0610 H   0  0  0  0  0  0  0  0  0  0  0  0  # atno 6909 bound_to 6896
  145.8796  140.8154  142.9846 H   0  0  0  0  0  0  0  0  0  0  0  0  # atno 7974 bound_to 7965
  155.5929  140.3493  155.4571 H   0  0  0  0  0  0  0  0  0  0  0  0  # atno 8008 bound_to 7997
  156.0287  140.1270  157.0305 H   0  0  0  0  0  0  0  0  0  0  0  0  # atno 8009 bound_to 7997
  154.4343  140.1047  156.6054 H   0  0  0  0  0  0  0  0  0  0  0  0  # atno 8010 bound_to 7997
  139.5531  144.2058  152.1112 H   0  0  0  0  0  0  0  0  0  0  0  0  # atno 10167 bound_to 10162
  157.5900  130.9049  149.9586 H   0  0  0  0  0  0  0  0  0  0  0  0  # atno 10718 bound_to 10713
  154.8017  135.3245  154.7533 H   0  0  0  0  0  0  0  0  0  0  0  0  # atno 10763 bound_to 10752
  153.8200  135.6888  153.4833 H   0  0  0  0  0  0  0  0  0  0  0  0  # atno 10764 bound_to 10752
  153.1738  135.4613  154.9881 H   0  0  0  0  0  0  0  0  0  0  0  0  # atno 10765 bound_to 10752
  141.0785  133.6659  156.3650 H   0  0  0  0  0  0  0  0  0  0  0  0  # atno 11005 bound_to 11000
  144.6727  140.1364  143.7440 LP  0  0  0  0  0  0  0  0  0  0  0  0  # atno 17320 bound_to 7965
  145.9039  139.2447  143.1477 LP  0  0  0  0  0  0  0  0  0  0  0  0  # atno 17321 bound_to 7965
  140.1557  144.5073  150.6661 LP  0  0  0  0  0  0  0  0  0  0  0  0  # atno 17342 bound_to 10162
  140.6798  143.2321  151.5413 LP  0  0  0  0  0  0  0  0  0  0  0  0  # atno 17343 bound_to 10162
  156.0953  130.3660  150.0318 LP  0  0  0  0  0  0  0  0  0  0  0  0  # atno 17370 bound_to 10713
  156.8442  130.9436  151.3630 LP  0  0  0  0  0  0  0  0  0  0  0  0  # atno 17371 bound_to 10713
  140.5521  134.6017  157.5410 LP  0  0  0  0  0  0  0  0  0  0  0  0  # atno 17394 bound_to 11000
  139.9597  134.7473  156.0263 LP  0  0  0  0  0  0  0  0  0  0  0  0  # atno 17395 bound_to 11000

$$$$
