AV-unprocessed.smi:720|AV-procd|sdf|3498|dock3
  -GOLD-   22720 0493D 1   1.00000     0.00000
 Structure written by MMmdl.
 47 49  0  0  0  0  0  0  0  0  2 V2000
  145.3654  135.8472  151.2808 C   0  0  0  0  0  0  0  0  0  0  0  0
  145.0106  137.2485  151.6030 N   0  3  0  0  0  0  0  0  0  0  0  0
  144.3345  137.3496  152.9153 C   0  0  0  0  0  0  0  0  0  0  0  0
  146.1561  138.1859  151.4937 C   0  0  0  0  0  0  0  0  0  0  0  0
  146.9496  138.3094  152.8078 C   0  0  0  0  0  0  0  0  0  0  0  0
  147.1371  139.6948  153.1920 N   0  0  0  0  0  0  0  0  0  0  0  0
  146.4391  140.8081  152.7675 C   0  0  0  0  0  0  0  0  0  0  0  0
  146.9690  141.8929  153.4070 C   0  0  0  0  0  0  0  0  0  0  0  0
  147.9970  141.3290  154.2115 C   0  0  0  0  0  0  0  0  0  0  0  0
  148.8007  142.1510  155.0408 N   0  0  0  0  0  0  0  0  0  0  0  0
  150.0091  141.8650  155.5647 C   0  0  0  0  0  0  0  0  0  0  0  0
  150.6073  140.8030  155.4004 O   0  0  0  0  0  0  0  0  0  0  0  0
  150.5375  142.8565  156.3041 N   0  0  0  0  0  0  0  0  0  0  0  0
  151.8241  142.8678  157.0062 C   0  0  1  0  0  0  0  0  0  0  0  0
  152.5180  144.2422  156.8823 C   0  0  0  0  0  0  0  0  0  0  0  0
  152.7144  144.6682  158.3492 C   0  0  1  0  0  0  0  0  0  0  0  0
  151.3532  145.0443  158.9644 C   0  0  0  0  0  0  0  0  0  0  0  0
  150.6687  143.6756  159.1387 C   0  0  0  0  0  0  0  0  0  0  0  0
  151.7074  142.7004  158.5438 C   0  0  2  0  0  0  0  0  0  0  0  0
  153.0085  143.3348  159.0233 C   0  0  0  0  0  0  0  0  0  0  0  0
  148.0959  140.0130  154.0876 N   0  0  0  0  0  0  0  0  0  0  0  0
  146.1296  135.4700  151.9614 H   0  0  0  0  0  0  0  0  0  0  0  0
  145.7376  135.7539  150.2612 H   0  0  0  0  0  0  0  0  0  0  0  0
  144.4901  135.2020  151.3634 H   0  0  0  0  0  0  0  0  0  0  0  0
  145.0080  137.0651  153.7248 H   0  0  0  0  0  0  0  0  0  0  0  0
  143.4611  136.6976  152.9519 H   0  0  0  0  0  0  0  0  0  0  0  0
  143.9909  138.3685  153.0972 H   0  0  0  0  0  0  0  0  0  0  0  0
  146.8297  137.8188  150.7177 H   0  0  0  0  0  0  0  0  0  0  0  0
  145.8070  139.1646  151.1607 H   0  0  0  0  0  0  0  0  0  0  0  0
  146.4405  137.7977  153.6244 H   0  0  0  0  0  0  0  0  0  0  0  0
  147.9321  137.8465  152.7057 H   0  0  0  0  0  0  0  0  0  0  0  0
  145.6326  140.7375  152.0526 H   0  0  0  0  0  0  0  0  0  0  0  0
  146.6678  142.9259  153.3126 H   0  0  0  0  0  0  0  0  0  0  0  0
  148.4239  143.0634  155.2522 H   0  0  0  0  0  0  0  0  0  0  0  0
  149.9826  143.6955  156.3937 H   0  0  0  0  0  0  0  0  0  0  0  0
  152.4814  142.1015  156.5907 H   0  0  0  0  0  0  0  0  0  0  0  0
  153.4806  144.1369  156.3801 H   0  0  0  0  0  0  0  0  0  0  0  0
  151.9345  144.9737  156.3211 H   0  0  0  0  0  0  0  0  0  0  0  0
  153.4809  145.4321  158.4828 H   0  0  0  0  0  0  0  0  0  0  0  0
  151.4828  145.5336  159.9306 H   0  0  0  0  0  0  0  0  0  0  0  0
  150.7828  145.7162  158.3221 H   0  0  0  0  0  0  0  0  0  0  0  0
  150.5129  143.4643  160.1975 H   0  0  0  0  0  0  0  0  0  0  0  0
  149.6939  143.6268  158.6535 H   0  0  0  0  0  0  0  0  0  0  0  0
  151.5629  141.6676  158.8623 H   0  0  0  0  0  0  0  0  0  0  0  0
  153.9005  142.8400  158.6349 H   0  0  0  0  0  0  0  0  0  0  0  0
  153.0826  143.4053  160.1101 H   0  0  0  0  0  0  0  0  0  0  0  0
  144.3311  137.5446  150.9166 H   0  0  0  0  0  0  0  0  0  0  0  0
  1  2  1  0  0  0  0
  1 22  1  0  0  0  0
  1 23  1  0  0  0  0
  1 24  1  0  0  0  0
  2  3  1  0  0  0  0
  2  4  1  0  0  0  0
  2 47  1  0  0  0  0
  3 25  1  0  0  0  0
  3 26  1  0  0  0  0
  3 27  1  0  0  0  0
  4  5  1  0  0  0  0
  4 28  1  0  0  0  0
  4 29  1  0  0  0  0
  5  6  1  0  0  0  0
  5 30  1  0  0  0  0
  5 31  1  0  0  0  0
  6 21  1  0  0  0  0
  6  7  1  0  0  0  0
  7  8  2  0  0  0  0
  7 32  1  0  0  0  0
  8  9  1  0  0  0  0
  8 33  1  0  0  0  0
  9 10  1  0  0  0  0
  9 21  2  0  0  0  0
 10 11  1  0  0  0  0
 10 34  1  0  0  0  0
 11 12  2  0  0  0  0
 11 13  1  0  0  0  0
 13 14  1  0  0  0  0
 13 35  1  0  0  0  0
 14 19  1  0  0  0  0
 14 15  1  0  0  0  0
 14 36  1  0  0  0  0
 15 16  1  0  0  0  0
 15 37  1  0  0  0  0
 15 38  1  0  0  0  0
 16 20  1  0  0  0  0
 16 17  1  0  0  0  0
 16 39  1  0  0  0  0
 17 18  1  0  0  0  0
 17 40  1  0  0  0  0
 17 41  1  0  0  0  0
 18 19  1  0  0  0  0
 18 42  1  0  0  0  0
 18 43  1  0  0  0  0
 19 20  1  0  0  0  0
 19 44  1  0  0  0  0
 20 45  1  0  0  0  0
 20 46  1  0  0  0  0
M  CHG  1   2   1
M  END
> <s_m_source_file>
AV-unprocessed.smi

> <i_m_source_file_index>
720

> <i_lp_mmshare_version>
43012

> <i_f3d_flags>
0

> <s_epik_input>
W0NIM11OKFtDSDNdKVtDSDJdW0NIMl1uMVtjSF1bY0hdYyhuMSlbTkhdQyg9TylbTkhdW0NASF0oW0NIMl1bQ0BIXTIzKVtDQEhdKFtDSDJdMylbQ0gyXVtDSDJdMg==

> <s_epik_cmdline>
J2VwaWtfcHl0aG9uJywgJy1waCcsICc3LjAnLCAnLXRuJywgJzgnLCAnLW1hJywgJzIwMCcsICctbWV0YWxfYmluZGluZycsICctaW1hZScsICc8aW5maWxlLm1hZT4nLCAnLW9tYWUnLCAnPG91dGZpbGUubWFlPic=

> <r_lp_tautomer_probability>
1

> <r_epik_Ionization_Penalty>
0.0272832

> <r_epik_Ionization_Penalty_Charging>
0.027243

> <r_epik_Ionization_Penalty_Neutral>
4.01867e-05

> <r_epik_State_Penalty>
0.0222865

> <r_epik_Charging_Adjusted_Penalty>
0.0495295

> <i_epik_Tot_Q>
1

> <i_epik_Tot_abs_Q>
1

> <r_epik_Metal_State_Penalty>
0.0222866

> <b_epik_Metal_Only>
0

> <s_lp_Force_Field>
OPLS_2005

> <r_lp_Energy>
60.2388

> <b_lp_Chiralities_Consistent>
1

> <s_lp_Variant>
AV-unprocessed.smi:720-4

> <Gold.Version>
5.8.1

> <Gold.Id.Protein>
6NUR|6NUR_protein|mol2

> <Gold.PLP.Fitness>
48.1642

> <Gold.PLP.PLP>
-38.0762

> <Gold.PLP.part.hbond>
-4.0000

> <Gold.PLP.part.metal>
0.0000

> <Gold.PLP.part.buried>
0.7592

> <Gold.PLP.part.nonpolar>
-34.8877

> <Gold.PLP.part.repulsive>
0.5192

> <Gold.PLP.ligand.clash>
0.0000

> <Gold.PLP.ligand.torsion>
1.2152

> <Gold.PLP.Chemscore.Hbond>
3.3992

> <Gold.PLP.Chemscore.CHOScore>
0.7448

> <Gold.PLP.Chemscore.Metal>
0.0000

> <Gold.Chemscore.Hbonds>
donor molecule, donor type, donor heavy atom, donor atom, acceptor molecule, acceptor atom, score
      L1  H     2    47       P1 10171  0.99
      L1  H    10    34       P1  8028  0.88
      L1  H    13    35       P1  8028  0.94
      P1  H  7989  7998       L1    12  0.58
      L1  C     7    32       P1 10175  0.51

> <Gold.PLP.Chemscore.Internal.Correction>
0.0863

> <Gold.Rescore>
     Score         DG    S(hbond)    S(metal)    S(lipo)     H(rot)  DE(clash)    DE(int)     intcor
     18.27     -27.54       3.30        0.00     129.70       1.62       6.73       2.54       ----

> <Gold.Chemscore.Fitness>
18.2652

> <Gold.Chemscore.DG>
-27.5374

> <Gold.Chemscore.ZeroCoef>
-5.4800

> <Gold.Chemscore.Hbond>
3.3032

> <Gold.Chemscore.Metal>
0.0000

> <Gold.Chemscore.Lipo>
129.7002

> <Gold.Chemscore.Internal_Hbond>
0.0000

> <Gold.Chemscore.DEClash>
6.7322

> <Gold.Chemscore.DEInternal>
2.5399

> <Gold.Chemscore.Rot>
1.6212

> <Gold.Chemscore.Internal.Correction>
   9.000000E+99

> <Gold.Chemscore.Hbonds>
donor molecule, donor type, donor heavy atom, donor atom, acceptor molecule, acceptor atom, score
      L1  H     2    47       P1 10171  0.92
      L1  H    10    34       P1  8028  0.86
      L1  H    13    35       P1  8028  0.91
      P1  H  7989  7998       L1    12  0.37

> <Gold.Chemscore.Hbond.Weighted>
-11.0326

> <Gold.Chemscore.Metal.Weighted>
-0.0000

> <Gold.Chemscore.Lipo.Weighted>
-15.1749

> <Gold.Chemscore.Internal_Hbond.Weighted>
0.0000

> <Gold.Chemscore.DEClash.Weighted>
6.7322

> <Gold.Chemscore.DEInternal.Weighted>
2.5399

> <Gold.Chemscore.Rot.Weighted>
4.1502

> <Gold.Chemscore.Internal.Correction.Weighted>
   9.000000E+99

> <Gold.Protein.RotatedTorsions>
[ 6907 6896 6895 6894 ] final  168.51 input  -60.11 | X-H torsion
[ 7974 7965 7964 7962 ] final   46.78 input  175.53 | X-H torsion
[ 8008 7997 7996 7995 ] final  141.15 input   59.86 | X-H torsion
[ 10167 10162 10161 10158 ] final  123.95 input  -65.29 | X-H torsion
[ 10718 10713 10712 10709 ] final -129.65 input   66.30 | X-H torsion
[ 10763 10752 10751 10750 ] final -108.64 input  -60.55 | X-H torsion
[ 11005 11000 10999 10996 ] final -124.82 input  -57.11 | X-H torsion

> <Gold.Protein.ActiveResidues>
 VAL166  LYS551  ARG553  GLY616  TRP617  ASP618  TYR619  PRO620  LYS621  CYS622 
 ASP623  PHE694  ASN695  SER759  ASP760  ASP761  ALA762  ILE779  LEU786  VAL792 
 PHE793  MET794  SER795  GLU796  ALA797  LYS798  CYS799  TRP800  GLU811  SER814 

> <Gold.Protein.RotatedAtoms>
  151.8465  133.3432  159.3659 H   0  0  0  0  0  0  0  0  0  0  0  0  # atno 6907 bound_to 6896
  150.7219  134.5341  159.5724 H   0  0  0  0  0  0  0  0  0  0  0  0  # atno 6908 bound_to 6896
  152.2825  134.7813  160.0445 H   0  0  0  0  0  0  0  0  0  0  0  0  # atno 6909 bound_to 6896
  146.0359  139.4820  142.9809 H   0  0  0  0  0  0  0  0  0  0  0  0  # atno 7974 bound_to 7965
  156.2970  140.2323  156.4517 H   0  0  0  0  0  0  0  0  0  0  0  0  # atno 8008 bound_to 7997
  154.8095  140.0444  157.1353 H   0  0  0  0  0  0  0  0  0  0  0  0  # atno 8009 bound_to 7997
  154.9439  140.3033  155.5111 H   0  0  0  0  0  0  0  0  0  0  0  0  # atno 8010 bound_to 7997
  139.5769  144.6968  151.3629 H   0  0  0  0  0  0  0  0  0  0  0  0  # atno 10167 bound_to 10162
  156.2067  130.6892  151.0602 H   0  0  0  0  0  0  0  0  0  0  0  0  # atno 10718 bound_to 10713
  154.8147  135.4630  154.0611 H   0  0  0  0  0  0  0  0  0  0  0  0  # atno 10763 bound_to 10752
  153.2013  135.6869  153.8234 H   0  0  0  0  0  0  0  0  0  0  0  0  # atno 10764 bound_to 10752
  153.7718  135.3269  155.3330 H   0  0  0  0  0  0  0  0  0  0  0  0  # atno 10765 bound_to 10752
  140.9811  134.0671  157.3763 H   0  0  0  0  0  0  0  0  0  0  0  0  # atno 11005 bound_to 11000
  145.6965  141.0149  143.1527 LP  0  0  0  0  0  0  0  0  0  0  0  0  # atno 17320 bound_to 7965
  144.7051  139.8594  143.7432 LP  0  0  0  0  0  0  0  0  0  0  0  0  # atno 17321 bound_to 7965
  140.7051  143.7534  150.7468 LP  0  0  0  0  0  0  0  0  0  0  0  0  # atno 17342 bound_to 10162
  140.1056  143.4747  152.2400 LP  0  0  0  0  0  0  0  0  0  0  0  0  # atno 17343 bound_to 10162
  157.7016  131.0773  150.6801 LP  0  0  0  0  0  0  0  0  0  0  0  0  # atno 17370 bound_to 10713
  156.6860  130.4581  149.5613 LP  0  0  0  0  0  0  0  0  0  0  0  0  # atno 17371 bound_to 10713
  139.8951  135.0139  156.6983 LP  0  0  0  0  0  0  0  0  0  0  0  0  # atno 17394 bound_to 11000
  140.7185  133.9161  155.8131 LP  0  0  0  0  0  0  0  0  0  0  0  0  # atno 17395 bound_to 11000

$$$$
