AV-unprocessed.smi:249|AV-procd|sdf|1917|dock2
  -GOLD-   2262021 13D 1   1.00000     0.00000
 Structure written by MMmdl.
 64 67  0  0  0  0  0  0  0  0  2 V2000
  152.5290  142.7711  161.3147 C   0  0  0  0  0  0  0  0  0  0  0  0
  153.4322  142.4039  160.1256 C   0  0  0  0  0  0  0  0  0  0  0  0
  152.6754  142.0823  158.8807 N   0  3  1  0  0  0  0  0  0  0  0  0
  151.9173  140.8036  159.0090 C   0  0  0  0  0  0  0  0  0  0  0  0
  151.2422  140.3952  157.6927 C   0  0  0  0  0  0  0  0  0  0  0  0
  150.3009  141.5058  157.2061 C   0  0  2  0  0  0  0  0  0  0  0  0
  149.6008  141.1515  155.9638 N   0  0  0  0  0  0  0  0  0  0  0  0
  150.1079  140.0757  155.1145 C   0  0  0  0  0  0  0  0  0  0  0  0
  148.2931  141.4975  155.7977 C   0  0  0  0  0  0  0  0  0  0  0  0
  147.6636  141.1892  154.6315 N   0  0  0  0  0  0  0  0  0  0  0  0
  146.3859  141.5256  154.4354 C   0  0  0  0  0  0  0  0  0  0  0  0
  145.5553  142.1609  155.2623 N   0  0  0  0  0  0  0  0  0  0  0  0
  146.1696  142.4646  156.4402 C   0  0  0  0  0  0  0  0  0  0  0  0
  147.5212  142.1769  156.7878 C   0  0  0  0  0  0  0  0  0  0  0  0
  147.7783  142.6368  158.0753 N   0  0  0  0  0  0  0  0  0  0  0  0
  146.6526  143.1726  158.4597 C   0  0  0  0  0  0  0  0  0  0  0  0
  145.6265  143.0944  157.5466 N   0  0  0  0  0  0  0  0  0  0  0  0
  144.2775  143.6072  157.7111 C   0  0  0  0  0  0  0  0  0  0  0  0
  144.1231  145.1360  157.4732 C   0  0  2  0  0  0  0  0  0  0  0  0
  143.2523  145.7390  158.6024 C   0  0  0  0  0  0  0  0  0  0  0  0
  143.9056  145.6661  159.8531 O   0  0  0  0  0  0  0  0  0  0  0  0
  143.5500  145.4815  156.0655 C   0  0  2  0  0  0  0  0  0  0  0  0
  144.1185  144.6718  154.8978 C   0  0  0  0  0  0  0  0  0  0  0  0
  144.1671  145.6450  153.7168 C   0  0  0  0  0  0  0  0  0  0  0  0
  143.5761  146.8435  154.1916 O   0  0  0  0  0  0  0  0  0  0  0  0
  143.8210  146.9105  155.5838 C   0  0  0  0  0  0  0  0  0  0  0  0
  151.0983  142.8121  157.0742 C   0  0  0  0  0  0  0  0  0  0  0  0
  151.7941  143.1970  158.3983 C   0  0  2  0  0  0  0  0  0  0  0  0
  152.5486  144.5266  158.1881 C   0  0  0  0  0  0  0  0  0  0  0  0
  153.1171  142.8366  162.2305 H   0  0  0  0  0  0  0  0  0  0  0  0
  151.7576  142.0169  161.4739 H   0  0  0  0  0  0  0  0  0  0  0  0
  152.0423  143.7372  161.1862 H   0  0  0  0  0  0  0  0  0  0  0  0
  154.1487  143.2032  159.9307 H   0  0  0  0  0  0  0  0  0  0  0  0
  154.0098  141.5424  160.4526 H   0  0  0  0  0  0  0  0  0  0  0  0
  152.5775  139.9902  159.3042 H   0  0  0  0  0  0  0  0  0  0  0  0
  151.1689  140.9025  159.7970 H   0  0  0  0  0  0  0  0  0  0  0  0
  152.0063  140.1816  156.9448 H   0  0  0  0  0  0  0  0  0  0  0  0
  150.6881  139.4679  157.8407 H   0  0  0  0  0  0  0  0  0  0  0  0
  149.5565  141.6872  157.9827 H   0  0  0  0  0  0  0  0  0  0  0  0
  150.5146  140.4870  154.1905 H   0  0  0  0  0  0  0  0  0  0  0  0
  149.3199  139.3660  154.8593 H   0  0  0  0  0  0  0  0  0  0  0  0
  150.9012  139.5124  155.6040 H   0  0  0  0  0  0  0  0  0  0  0  0
  145.9689  141.2455  153.4793 H   0  0  0  0  0  0  0  0  0  0  0  0
  146.5358  143.6288  159.4320 H   0  0  0  0  0  0  0  0  0  0  0  0
  143.6154  143.0600  157.0388 H   0  0  0  0  0  0  0  0  0  0  0  0
  143.9656  143.3434  158.7222 H   0  0  0  0  0  0  0  0  0  0  0  0
  145.1064  145.6016  157.5510 H   0  0  0  0  0  0  0  0  0  0  0  0
  143.0448  146.7940  158.4284 H   0  0  0  0  0  0  0  0  0  0  0  0
  142.2907  145.2287  158.6657 H   0  0  0  0  0  0  0  0  0  0  0  0
  143.3654  146.0940  160.5001 H   0  0  0  0  0  0  0  0  0  0  0  0
  142.4674  145.3448  156.0806 H   0  0  0  0  0  0  0  0  0  0  0  0
  145.1248  144.3095  155.1099 H   0  0  0  0  0  0  0  0  0  0  0  0
  143.4932  143.8096  154.6681 H   0  0  0  0  0  0  0  0  0  0  0  0
  145.1992  145.8413  153.4230 H   0  0  0  0  0  0  0  0  0  0  0  0
  143.6298  145.2707  152.8449 H   0  0  0  0  0  0  0  0  0  0  0  0
  143.1683  147.6477  156.0520 H   0  0  0  0  0  0  0  0  0  0  0  0
  144.8582  147.2016  155.7597 H   0  0  0  0  0  0  0  0  0  0  0  0
  151.8504  142.7239  156.2892 H   0  0  0  0  0  0  0  0  0  0  0  0
  150.4244  143.6123  156.7648 H   0  0  0  0  0  0  0  0  0  0  0  0
  151.0226  143.3640  159.1521 H   0  0  0  0  0  0  0  0  0  0  0  0
  151.9158  145.2573  157.6830 H   0  0  0  0  0  0  0  0  0  0  0  0
  153.4401  144.3876  157.5756 H   0  0  0  0  0  0  0  0  0  0  0  0
  152.8456  144.9894  159.1284 H   0  0  0  0  0  0  0  0  0  0  0  0
  153.3664  141.9384  158.1582 H   0  0  0  0  0  0  0  0  0  0  0  0
  1  2  1  0  0  0  0
  1 30  1  0  0  0  0
  1 31  1  0  0  0  0
  1 32  1  0  0  0  0
  2  3  1  0  0  0  0
  2 33  1  0  0  0  0
  2 34  1  0  0  0  0
  3 28  1  0  0  0  0
  3  4  1  0  0  0  0
  3 64  1  0  0  0  0
  4  5  1  0  0  0  0
  4 35  1  0  0  0  0
  4 36  1  0  0  0  0
  5  6  1  0  0  0  0
  5 37  1  0  0  0  0
  5 38  1  0  0  0  0
  6  7  1  0  0  0  0
  6 27  1  0  0  0  0
  6 39  1  0  0  0  0
  7  8  1  0  0  0  0
  7  9  1  0  0  0  0
  8 40  1  0  0  0  0
  8 41  1  0  0  0  0
  8 42  1  0  0  0  0
  9 14  1  0  0  0  0
  9 10  2  0  0  0  0
 10 11  1  0  0  0  0
 11 12  2  0  0  0  0
 11 43  1  0  0  0  0
 12 13  1  0  0  0  0
 13 17  1  0  0  0  0
 13 14  2  0  0  0  0
 14 15  1  0  0  0  0
 15 16  2  0  0  0  0
 16 17  1  0  0  0  0
 16 44  1  0  0  0  0
 17 18  1  0  0  0  0
 18 19  1  0  0  0  0
 18 45  1  0  0  0  0
 18 46  1  0  0  0  0
 19 20  1  0  0  0  0
 19 22  1  0  0  0  0
 19 47  1  0  0  0  0
 20 21  1  0  0  0  0
 20 48  1  0  0  0  0
 20 49  1  0  0  0  0
 21 50  1  0  0  0  0
 22 26  1  0  0  0  0
 22 23  1  0  0  0  0
 22 51  1  0  0  0  0
 23 24  1  0  0  0  0
 23 52  1  0  0  0  0
 23 53  1  0  0  0  0
 24 25  1  0  0  0  0
 24 54  1  0  0  0  0
 24 55  1  0  0  0  0
 25 26  1  0  0  0  0
 26 56  1  0  0  0  0
 26 57  1  0  0  0  0
 27 28  1  0  0  0  0
 27 58  1  0  0  0  0
 27 59  1  0  0  0  0
 28 29  1  0  0  0  0
 28 60  1  0  0  0  0
 29 61  1  0  0  0  0
 29 62  1  0  0  0  0
 29 63  1  0  0  0  0
M  CHG  1   3   1
M  END
> <s_m_source_file>
AV-unprocessed.smi

> <i_m_source_file_index>
249

> <i_lp_mmshare_version>
43012

> <i_f3d_flags>
0

> <s_epik_input>
W0NIM11bQ0gyXU4xW0NIMl1bQ0gyXVtDQEhdKFtDSDJdW0NASF0xW0NIM10pTihbQ0gzXSljKG5bY0hdbjIpYyhjMjMpbltjSF1uM1tDSDJdW0NASF0oW0NIMl1bT0hdKVtDQEBIXTRbQ0gyXVtDSDJdT1tDSDJdNA==

> <s_epik_cmdline>
J2VwaWtfcHl0aG9uJywgJy1waCcsICc3LjAnLCAnLXRuJywgJzgnLCAnLW1hJywgJzIwMCcsICctbWV0YWxfYmluZGluZycsICctaW1hZScsICc8aW5maWxlLm1hZT4nLCAnLW9tYWUnLCAnPG91dGZpbGUubWFlPic=

> <r_lp_tautomer_probability>
1

> <r_epik_Ionization_Penalty>
0.00294688

> <r_epik_Ionization_Penalty_Charging>
0.00169971

> <r_epik_Ionization_Penalty_Neutral>
0.00124717

> <r_epik_State_Penalty>
-0

> <r_epik_Charging_Adjusted_Penalty>
0.00169971

> <i_epik_Tot_Q>
1

> <i_epik_Tot_abs_Q>
1

> <r_epik_Metal_State_Penalty>
-0

> <b_epik_Metal_Only>
0

> <s_lp_Force_Field>
OPLS_2005

> <r_lp_Energy>
53.9477

> <b_lp_Chiralities_Consistent>
1

> <s_lp_Variant>
AV-unprocessed.smi:249-20

> <Gold.Version>
5.8.1

> <Gold.Id.Protein>
6NUR|6NUR_protein|mol2

> <Gold.PLP.Fitness>
49.5887

> <Gold.PLP.PLP>
-50.0495

> <Gold.PLP.part.hbond>
-1.0587

> <Gold.PLP.part.metal>
0.0000

> <Gold.PLP.part.buried>
-6.8089

> <Gold.PLP.part.nonpolar>
-43.7858

> <Gold.PLP.part.repulsive>
0.5225

> <Gold.PLP.ligand.clash>
0.0000

> <Gold.PLP.ligand.torsion>
1.8882

> <Gold.PLP.Chemscore.Hbond>
0.0000

> <Gold.PLP.Chemscore.CHOScore>
0.8439

> <Gold.PLP.Chemscore.Metal>
0.0000

> <Gold.Chemscore.Hbonds>
donor molecule, donor type, donor heavy atom, donor atom, acceptor molecule, acceptor atom, score
      L1  C    11    43       P1 10175  0.83

> <Gold.PLP.Chemscore.Internal.Correction>
0.7840

> <Gold.Rescore>
     Score         DG    S(hbond)    S(metal)    S(lipo)     H(rot)  DE(clash)    DE(int)     intcor
     10.00     -12.88       0.00        0.00     121.27       2.65       0.02       2.85       ----

> <Gold.Chemscore.Fitness>
10.0045

> <Gold.Chemscore.DG>
-12.8806

> <Gold.Chemscore.ZeroCoef>
-5.4800

> <Gold.Chemscore.Hbond>
0.0000

> <Gold.Chemscore.Metal>
0.0000

> <Gold.Chemscore.Lipo>
121.2700

> <Gold.Chemscore.Internal_Hbond>
0.0000

> <Gold.Chemscore.DEClash>
0.0221

> <Gold.Chemscore.DEInternal>
2.8540

> <Gold.Chemscore.Rot>
2.6515

> <Gold.Chemscore.Internal.Correction>
   9.000000E+99

> <Gold.Chemscore.Hbond.Weighted>
-0.0000

> <Gold.Chemscore.Metal.Weighted>
-0.0000

> <Gold.Chemscore.Lipo.Weighted>
-14.1886

> <Gold.Chemscore.Internal_Hbond.Weighted>
0.0000

> <Gold.Chemscore.DEClash.Weighted>
0.0221

> <Gold.Chemscore.DEInternal.Weighted>
2.8540

> <Gold.Chemscore.Rot.Weighted>
6.7880

> <Gold.Chemscore.Internal.Correction.Weighted>
   9.000000E+99

> <Gold.Protein.RotatedTorsions>
[ 6907 6896 6895 6894 ] final -131.97 input  -60.11 | X-H torsion
[ 7974 7965 7964 7962 ] final   27.67 input  175.53 | X-H torsion
[ 8008 7997 7996 7995 ] final  145.74 input   59.86 | X-H torsion
[ 10167 10162 10161 10158 ] final -120.84 input  -65.29 | X-H torsion
[ 10718 10713 10712 10709 ] final   56.12 input   66.30 | X-H torsion
[ 10763 10752 10751 10750 ] final  165.94 input  -60.55 | X-H torsion
[ 11005 11000 10999 10996 ] final -163.73 input  -57.11 | X-H torsion

> <Gold.Protein.ActiveResidues>
 VAL166  LYS551  ARG553  GLY616  TRP617  ASP618  TYR619  PRO620  LYS621  CYS622 
 ASP623  PHE694  ASN695  SER759  ASP760  ASP761  ALA762  ILE779  LEU786  VAL792 
 PHE793  MET794  SER795  GLU796  ALA797  LYS798  CYS799  TRP800  GLU811  SER814 

> <Gold.Protein.RotatedAtoms>
  150.9570  133.6487  159.2761 H   0  0  0  0  0  0  0  0  0  0  0  0  # atno 6907 bound_to 6896
  151.3823  135.0940  159.9509 H   0  0  0  0  0  0  0  0  0  0  0  0  # atno 6908 bound_to 6896
  152.5133  133.9102  159.7539 H   0  0  0  0  0  0  0  0  0  0  0  0  # atno 6909 bound_to 6896
  146.1771  139.7160  142.8926 H   0  0  0  0  0  0  0  0  0  0  0  0  # atno 7974 bound_to 7965
  156.2875  140.2201  156.5264 H   0  0  0  0  0  0  0  0  0  0  0  0  # atno 8008 bound_to 7997
  154.7485  140.0482  157.0895 H   0  0  0  0  0  0  0  0  0  0  0  0  # atno 8009 bound_to 7997
  155.0139  140.3116  155.4822 H   0  0  0  0  0  0  0  0  0  0  0  0  # atno 8010 bound_to 7997
  140.0315  143.5244  152.2174 H   0  0  0  0  0  0  0  0  0  0  0  0  # atno 10167 bound_to 10162
  157.5404  130.8693  149.8814 H   0  0  0  0  0  0  0  0  0  0  0  0  # atno 10718 bound_to 10713
  154.3316  135.2754  155.2469 H   0  0  0  0  0  0  0  0  0  0  0  0  # atno 10763 bound_to 10752
  154.4778  135.5866  153.6371 H   0  0  0  0  0  0  0  0  0  0  0  0  # atno 10764 bound_to 10752
  152.9866  135.6104  154.3509 H   0  0  0  0  0  0  0  0  0  0  0  0  # atno 10765 bound_to 10752
  140.5948  134.5007  157.5198 H   0  0  0  0  0  0  0  0  0  0  0  0  # atno 11005 bound_to 11000
  145.4180  141.0403  143.2980 LP  0  0  0  0  0  0  0  0  0  0  0  0  # atno 17320 bound_to 7965
  144.8254  139.5719  143.6968 LP  0  0  0  0  0  0  0  0  0  0  0  0  # atno 17321 bound_to 7965
  139.6073  144.7599  151.3032 LP  0  0  0  0  0  0  0  0  0  0  0  0  # atno 17342 bound_to 10162
  140.7300  143.6892  150.7936 LP  0  0  0  0  0  0  0  0  0  0  0  0  # atno 17343 bound_to 10162
  156.0492  130.3721  150.1242 LP  0  0  0  0  0  0  0  0  0  0  0  0  # atno 17370 bound_to 10713
  156.9422  130.9748  151.3514 LP  0  0  0  0  0  0  0  0  0  0  0  0  # atno 17371 bound_to 10713
  139.9258  134.8059  156.1073 LP  0  0  0  0  0  0  0  0  0  0  0  0  # atno 17394 bound_to 11000
  141.0911  133.6714  156.2543 LP  0  0  0  0  0  0  0  0  0  0  0  0  # atno 17395 bound_to 11000

$$$$
