AV-unprocessed.smi:3072|AV-procd|sdf|11718|dock5
  -GOLD-   2272017123D 1   1.00000     0.00000
 Structure written by MMmdl.
 25 26  0  0  0  0  0  0  0  0  2 V2000
  151.2928  137.5548  156.0119 C   0  0  0  0  0  0  0  0  0  0  0  0
  151.4983  136.7428  154.9874 N   0  0  0  0  0  0  0  0  0  0  0  0
  151.1473  137.4820  153.9195 N   0  0  0  0  0  0  0  0  0  0  0  0
  150.7249  138.7453  154.2594 C   0  0  0  0  0  0  0  0  0  0  0  0
  150.8015  138.8364  155.6224 C   0  0  0  0  0  0  0  0  0  0  0  0
  150.4545  139.9961  156.5207 C   0  0  1  0  0  0  0  0  0  0  0  0
  151.6146  140.3347  157.4769 C   0  0  0  0  0  0  0  0  0  0  0  0
  151.2561  141.5460  158.3522 C   0  0  0  0  0  0  0  0  0  0  0  0
  150.8405  142.7468  157.4864 C   0  0  0  0  0  0  0  0  0  0  0  0
  149.7301  142.3790  156.5815 N   0  3  0  0  0  0  0  0  0  0  0  0
  150.0597  141.2396  155.6973 C   0  0  0  0  0  0  0  0  0  0  0  0
  151.2010  137.1158  152.9794 H   0  0  0  0  0  0  0  0  0  0  0  0
  151.5030  137.1922  157.0073 H   0  0  0  0  0  0  0  0  0  0  0  0
  150.4093  139.4617  153.5152 H   0  0  0  0  0  0  0  0  0  0  0  0
  149.5942  139.7245  157.1348 H   0  0  0  0  0  0  0  0  0  0  0  0
  151.8460  139.4762  158.1085 H   0  0  0  0  0  0  0  0  0  0  0  0
  152.5186  140.5553  156.9074 H   0  0  0  0  0  0  0  0  0  0  0  0
  150.4413  141.2817  159.0277 H   0  0  0  0  0  0  0  0  0  0  0  0
  152.1045  141.8153  158.9819 H   0  0  0  0  0  0  0  0  0  0  0  0
  150.5258  143.5781  158.1177 H   0  0  0  0  0  0  0  0  0  0  0  0
  151.6861  143.0986  156.8936 H   0  0  0  0  0  0  0  0  0  0  0  0
  148.9282  142.1288  157.1423 H   0  0  0  0  0  0  0  0  0  0  0  0
  150.8701  141.5337  155.0287 H   0  0  0  0  0  0  0  0  0  0  0  0
  149.1940  141.0211  155.0711 H   0  0  0  0  0  0  0  0  0  0  0  0
  149.4925  143.1784  156.0117 H   0  0  0  0  0  0  0  0  0  0  0  0
  1  5  1  0  0  0  0
  1  2  2  0  0  0  0
  1 13  1  0  0  0  0
  2  3  1  0  0  0  0
  3 12  1  0  0  0  0
  3  4  1  0  0  0  0
  4  5  2  0  0  0  0
  4 14  1  0  0  0  0
  5  6  1  0  0  0  0
  6 11  1  0  0  0  0
  6  7  1  0  0  0  0
  6 15  1  0  0  0  0
  7  8  1  0  0  0  0
  7 16  1  0  0  0  0
  7 17  1  0  0  0  0
  8  9  1  0  0  0  0
  8 18  1  0  0  0  0
  8 19  1  0  0  0  0
  9 10  1  0  0  0  0
  9 20  1  0  0  0  0
  9 21  1  0  0  0  0
 10 11  1  0  0  0  0
 10 22  1  0  0  0  0
 10 25  1  0  0  0  0
 11 23  1  0  0  0  0
 11 24  1  0  0  0  0
M  CHG  1  10   1
M  END
> <s_m_source_file>
AV-unprocessed.smi

> <i_m_source_file_index>
3072

> <i_lp_mmshare_version>
43012

> <i_f3d_flags>
0

> <s_epik_input>
W2NIXTFbbkhdbltjSF1jMVtDQEBIXTJbQ0gyXVtDSDJdW0NIMl1bTkhdW0NIMl0y

> <s_epik_cmdline>
J2VwaWtfcHl0aG9uJywgJy1waCcsICc3LjAnLCAnLXRuJywgJzgnLCAnLW1hJywgJzIwMCcsICctbWV0YWxfYmluZGluZycsICctaW1hZScsICc8aW5maWxlLm1hZT4nLCAnLW9tYWUnLCAnPG91dGZpbGUubWFlPic=

> <r_lp_tautomer_probability>
1

> <r_epik_Ionization_Penalty>
0.000160186

> <r_epik_Ionization_Penalty_Charging>
0.000157527

> <r_epik_Ionization_Penalty_Neutral>
2.65916e-06

> <r_epik_State_Penalty>
-0

> <r_epik_Charging_Adjusted_Penalty>
0.000157527

> <i_epik_Tot_Q>
1

> <i_epik_Tot_abs_Q>
1

> <r_epik_Metal_State_Penalty>
-0

> <b_epik_Metal_Only>
0

> <s_lp_Force_Field>
OPLS_2005

> <r_lp_Energy>
12.3326

> <b_lp_Chiralities_Consistent>
1

> <s_lp_Variant>
AV-unprocessed.smi:3072-2

> <Gold.Version>
5.8.1

> <Gold.Id.Protein>
6NUR|6NUR_protein|mol2

> <Gold.PLP.Fitness>
35.5308

> <Gold.PLP.PLP>
-20.6773

> <Gold.PLP.part.hbond>
-3.7422

> <Gold.PLP.part.metal>
0.0000

> <Gold.PLP.part.buried>
-4.0522

> <Gold.PLP.part.nonpolar>
-13.7830

> <Gold.PLP.part.repulsive>
0.3092

> <Gold.PLP.ligand.clash>
0.0000

> <Gold.PLP.ligand.torsion>
0.0794

> <Gold.PLP.Chemscore.Hbond>
4.0000

> <Gold.PLP.Chemscore.CHOScore>
1.0000

> <Gold.PLP.Chemscore.Metal>
0.0000

> <Gold.Chemscore.Hbonds>
donor molecule, donor type, donor heavy atom, donor atom, acceptor molecule, acceptor atom, score
      L1  H     3    12       P1  7949  1.00
      L1  H    10    25       P1  8028  2.00
      P1  H 10752 10764       L1     2  1.00
      L1  C     4    14       P1  7957  0.97

> <Gold.PLP.Chemscore.Internal.Correction>
0.0123

> <Gold.Rescore>
     Score         DG    S(hbond)    S(metal)    S(lipo)     H(rot)  DE(clash)    DE(int)     intcor
     18.73     -18.84       2.83        0.00      55.21       1.00       0.10       0.01       ----

> <Gold.Chemscore.Fitness>
18.7291

> <Gold.Chemscore.DG>
-18.8420

> <Gold.Chemscore.ZeroCoef>
-5.4800

> <Gold.Chemscore.Hbond>
2.8329

> <Gold.Chemscore.Metal>
0.0000

> <Gold.Chemscore.Lipo>
55.2130

> <Gold.Chemscore.Internal_Hbond>
0.0000

> <Gold.Chemscore.DEClash>
0.1014

> <Gold.Chemscore.DEInternal>
0.0115

> <Gold.Chemscore.Rot>
1.0000

> <Gold.Chemscore.Internal.Correction>
   9.000000E+99

> <Gold.Chemscore.Hbonds>
donor molecule, donor type, donor heavy atom, donor atom, acceptor molecule, acceptor atom, score
      L1  H     3    12       P1  7949  0.55
      L1  H    10    25       P1  8028  0.99
      P1  H 10752 10764       L1     2  0.70

> <Gold.Chemscore.Hbond.Weighted>
-9.4620

> <Gold.Chemscore.Metal.Weighted>
-0.0000

> <Gold.Chemscore.Lipo.Weighted>
-6.4599

> <Gold.Chemscore.Internal_Hbond.Weighted>
0.0000

> <Gold.Chemscore.DEClash.Weighted>
0.1014

> <Gold.Chemscore.DEInternal.Weighted>
0.0115

> <Gold.Chemscore.Rot.Weighted>
2.5600

> <Gold.Chemscore.Internal.Correction.Weighted>
   9.000000E+99

> <Gold.Protein.RotatedTorsions>
[ 6907 6896 6895 6894 ] final    5.07 input  -60.11 | X-H torsion
[ 7974 7965 7964 7962 ] final  163.40 input  175.53 | X-H torsion
[ 8008 7997 7996 7995 ] final   -6.23 input   59.86 | X-H torsion
[ 10167 10162 10161 10158 ] final  -69.76 input  -65.29 | X-H torsion
[ 10718 10713 10712 10709 ] final -159.60 input   66.30 | X-H torsion
[ 10763 10752 10751 10750 ] final  -64.29 input  -60.55 | X-H torsion
[ 11005 11000 10999 10996 ] final  -25.28 input  -57.11 | X-H torsion

> <Gold.Protein.ActiveResidues>
 VAL166  LYS551  ARG553  GLY616  TRP617  ASP618  TYR619  PRO620  LYS621  CYS622 
 ASP623  PHE694  ASN695  SER759  ASP760  ASP761  ALA762  ILE779  LEU786  VAL792 
 PHE793  MET794  SER795  GLU796  ALA797  LYS798  CYS799  TRP800  GLU811  SER814 

> <Gold.Protein.RotatedAtoms>
  151.6516  135.1001  160.0161 H   0  0  0  0  0  0  0  0  0  0  0  0  # atno 6907 bound_to 6896
  152.3997  133.6796  159.6315 H   0  0  0  0  0  0  0  0  0  0  0  0  # atno 6908 bound_to 6896
  150.7899  133.8729  159.3305 H   0  0  0  0  0  0  0  0  0  0  0  0  # atno 6909 bound_to 6896
  144.7592  139.8177  143.6339 H   0  0  0  0  0  0  0  0  0  0  0  0  # atno 7974 bound_to 7965
  154.5959  140.2438  155.7858 H   0  0  0  0  0  0  0  0  0  0  0  0  # atno 8008 bound_to 7997
  156.2278  140.2976  156.0065 H   0  0  0  0  0  0  0  0  0  0  0  0  # atno 8009 bound_to 7997
  155.2294  140.0403  157.2950 H   0  0  0  0  0  0  0  0  0  0  0  0  # atno 8010 bound_to 7997
  140.5406  143.2315  151.7097 H   0  0  0  0  0  0  0  0  0  0  0  0  # atno 10167 bound_to 10162
  156.5703  130.8685  151.2836 H   0  0  0  0  0  0  0  0  0  0  0  0  # atno 10718 bound_to 10713
  154.3279  135.6182  153.5538 H   0  0  0  0  0  0  0  0  0  0  0  0  # atno 10763 bound_to 10752
  152.9814  135.5740  154.4995 H   0  0  0  0  0  0  0  0  0  0  0  0  # atno 10764 bound_to 10752
  154.4676  135.2858  155.1644 H   0  0  0  0  0  0  0  0  0  0  0  0  # atno 10765 bound_to 10752
  140.8923  133.7580  156.0437 H   0  0  0  0  0  0  0  0  0  0  0  0  # atno 11005 bound_to 11000
  146.1636  139.4759  142.9973 LP  0  0  0  0  0  0  0  0  0  0  0  0  # atno 17320 bound_to 7965
  145.6677  141.0224  143.1674 LP  0  0  0  0  0  0  0  0  0  0  0  0  # atno 17321 bound_to 7965
  139.4987  144.3975  152.0216 LP  0  0  0  0  0  0  0  0  0  0  0  0  # atno 17342 bound_to 10162
  140.3084  144.3567  150.6040 LP  0  0  0  0  0  0  0  0  0  0  0  0  # atno 17343 bound_to 10162
  157.7349  130.9754  150.2056 LP  0  0  0  0  0  0  0  0  0  0  0  0  # atno 17370 bound_to 10713
  156.2720  130.3723  149.8022 LP  0  0  0  0  0  0  0  0  0  0  0  0  # atno 17371 bound_to 10713
  140.8332  134.3154  157.5341 LP  0  0  0  0  0  0  0  0  0  0  0  0  # atno 17394 bound_to 11000
  139.8731  134.9375  156.3688 LP  0  0  0  0  0  0  0  0  0  0  0  0  # atno 17395 bound_to 11000

$$$$
