AV-unprocessed.smi:1748|AV-procd|sdf|7043|dock3
  -GOLD-   22720 8263D 1   1.00000     0.00000
 Structure written by MMmdl.
 39 40  0  0  0  0  0  0  0  0  3 V2000
  144.2615  137.9515  154.7614 C   0  0  0  0  0  0  0  0  0  0  0  0
  145.1589  138.5897  153.7744 N   0  3  2  0  0  0  0  0  0  0  0  0
  145.7454  137.6082  152.8279 C   0  0  0  0  0  0  0  0  0  0  0  0
  146.5693  138.3162  151.7396 C   0  0  0  0  0  0  0  0  0  0  0  0
  147.6564  139.2048  152.3603 C   0  0  0  0  0  0  0  0  0  0  0  0
  147.0285  140.1910  153.3588 C   0  0  2  0  0  0  0  0  0  0  0  0
  148.0723  140.9906  153.9933 N   0  0  0  0  0  0  0  0  0  0  0  0
  148.8414  140.5852  155.0142 C   0  0  0  0  0  0  0  0  0  0  0  0
  148.7450  139.4694  155.5252 O   0  0  0  0  0  0  0  0  0  0  0  0
  149.7194  141.5421  155.3650 N   0  0  0  0  0  0  0  0  0  0  0  0
  150.6754  141.5363  156.3949 C   0  0  0  0  0  0  0  0  0  0  0  0
  150.8984  142.5715  157.2514 C   0  0  0  0  0  0  0  0  0  0  0  0
  151.9193  142.5155  158.2908 C   0  0  0  0  0  0  0  0  0  0  0  0
  152.2059  143.6375  159.2719 C   0  0  0  0  0  0  0  0  0  0  0  0
  152.6358  144.7186  158.6220 F   0  0  0  0  0  0  0  0  0  0  0  0
  151.0960  143.9680  159.9314 F   0  0  0  0  0  0  0  0  0  0  0  0
  153.1341  143.2833  160.1606 F   0  0  0  0  0  0  0  0  0  0  0  0
  152.6137  141.3224  158.2821 C   0  0  0  0  0  0  0  0  0  0  0  0
  152.4626  140.2558  157.4667 N   0  5  0  0  0  0  0  0  0  0  0  0
  151.5022  140.3160  156.5012 C   0  0  0  0  0  0  0  0  0  0  0  0
  151.3110  139.3807  155.7228 O   0  0  0  0  0  0  0  0  0  0  0  0
  146.1980  139.4328  154.4164 C   0  0  0  0  0  0  0  0  0  0  0  0
  144.8115  137.2585  155.3995 H   0  0  0  0  0  0  0  0  0  0  0  0
  143.4677  137.3979  154.2590 H   0  0  0  0  0  0  0  0  0  0  0  0
  143.7911  138.7027  155.3966 H   0  0  0  0  0  0  0  0  0  0  0  0
  146.3727  136.9025  153.3750 H   0  0  0  0  0  0  0  0  0  0  0  0
  144.9484  137.0283  152.3607 H   0  0  0  0  0  0  0  0  0  0  0  0
  147.0245  137.5786  151.0778 H   0  0  0  0  0  0  0  0  0  0  0  0
  145.9098  138.9237  151.1183 H   0  0  0  0  0  0  0  0  0  0  0  0
  148.3946  138.5798  152.8649 H   0  0  0  0  0  0  0  0  0  0  0  0
  148.1877  139.7452  151.5757 H   0  0  0  0  0  0  0  0  0  0  0  0
  146.3671  140.8589  152.8028 H   0  0  0  0  0  0  0  0  0  0  0  0
  148.2186  141.9221  153.6321 H   0  0  0  0  0  0  0  0  0  0  0  0
  149.7314  142.3754  154.7951 H   0  0  0  0  0  0  0  0  0  0  0  0
  150.3319  143.4844  157.1697 H   0  0  0  0  0  0  0  0  0  0  0  0
  153.4120  141.2109  159.0468 H   0  0  0  0  0  0  0  0  0  0  0  0
  145.7142  140.1438  155.0876 H   0  0  0  0  0  0  0  0  0  0  0  0
  146.8458  138.8065  155.0326 H   0  0  0  0  0  0  0  0  0  0  0  0
  144.5836  139.2131  153.2257 H   0  0  0  0  0  0  0  0  0  0  0  0
  1  2  1  0  0  0  0
  1 23  1  0  0  0  0
  1 24  1  0  0  0  0
  1 25  1  0  0  0  0
  2 22  1  0  0  0  0
  2  3  1  0  0  0  0
  2 39  1  0  0  0  0
  3  4  1  0  0  0  0
  3 26  1  0  0  0  0
  3 27  1  0  0  0  0
  4  5  1  0  0  0  0
  4 28  1  0  0  0  0
  4 29  1  0  0  0  0
  5  6  1  0  0  0  0
  5 30  1  0  0  0  0
  5 31  1  0  0  0  0
  6  7  1  0  0  0  0
  6 22  1  0  0  0  0
  6 32  1  0  0  0  0
  7  8  1  0  0  0  0
  7 33  1  0  0  0  0
  8  9  2  0  0  0  0
  8 10  1  0  0  0  0
 10 11  1  0  0  0  0
 10 34  1  0  0  0  0
 11 20  1  0  0  0  0
 11 12  2  0  0  0  0
 12 13  1  0  0  0  0
 12 35  1  0  0  0  0
 13 14  1  0  0  0  0
 13 18  2  0  0  0  0
 14 15  1  0  0  0  0
 14 16  1  0  0  0  0
 14 17  1  0  0  0  0
 18 19  1  0  0  0  0
 18 36  1  0  0  0  0
 19 20  1  0  0  0  0
 20 21  2  0  0  0  0
 22 37  1  0  0  0  0
 22 38  1  0  0  0  0
M  CHG  1   2   1
M  CHG  1  19  -1
M  END
> <s_m_source_file>
AV-unprocessed.smi

> <i_m_source_file_index>
1748

> <i_lp_mmshare_version>
43012

> <i_f3d_flags>
0

> <s_epik_input>
W0NIM11OMVtDSDJdW0NIMl1bQ0gyXVtDQEhdKFtDSDJdMSlbTkhdQyg9TylbTkhdYzJbY0hdYyhDKEYpKEYpRilbY0hdW25IXWMyPU8=

> <s_epik_cmdline>
J2VwaWtfcHl0aG9uJywgJy1waCcsICc3LjAnLCAnLXRuJywgJzgnLCAnLW1hJywgJzIwMCcsICctbWV0YWxfYmluZGluZycsICctaW1hZScsICc8aW5maWxlLm1hZT4nLCAnLW9tYWUnLCAnPG91dGZpbGUubWFlPic=

> <r_lp_tautomer_probability>
1

> <r_epik_Ionization_Penalty>
3.00907

> <r_epik_Ionization_Penalty_Charging>
0.148702

> <r_epik_Ionization_Penalty_Neutral>
2.86036

> <r_epik_State_Penalty>
2.85557

> <r_epik_Charging_Adjusted_Penalty>
3.00428

> <i_epik_Tot_Q>
0

> <i_epik_Tot_abs_Q>
2

> <r_epik_Metal_State_Penalty>
0.443779

> <b_epik_Metal_Only>
1

> <s_lp_Force_Field>
OPLS_2005

> <r_lp_Energy>
26.5131

> <b_lp_Chiralities_Consistent>
1

> <s_lp_Variant>
AV-unprocessed.smi:1748-8

> <Gold.Version>
5.8.1

> <Gold.Id.Protein>
6NUR|6NUR_protein|mol2

> <Gold.PLP.Fitness>
46.2100

> <Gold.PLP.PLP>
-35.6461

> <Gold.PLP.part.hbond>
-2.2688

> <Gold.PLP.part.metal>
0.0000

> <Gold.PLP.part.buried>
0.3386

> <Gold.PLP.part.nonpolar>
-34.7195

> <Gold.PLP.part.repulsive>
0.3180

> <Gold.PLP.ligand.clash>
0.0000

> <Gold.PLP.ligand.torsion>
0.6965

> <Gold.PLP.Chemscore.Hbond>
3.9840

> <Gold.PLP.Chemscore.CHOScore>
0.0000

> <Gold.PLP.Chemscore.Metal>
0.0000

> <Gold.Chemscore.Hbonds>
donor molecule, donor type, donor heavy atom, donor atom, acceptor molecule, acceptor atom, score
      L1  H     2    39       P1 10175  2.00
      P1  H  7997  8010       L1    19  1.76

> <Gold.PLP.Chemscore.Internal.Correction>
0.0048

> <Gold.Rescore>
     Score         DG    S(hbond)    S(metal)    S(lipo)     H(rot)  DE(clash)    DE(int)     intcor
     14.54     -22.71       3.07        0.00      81.56       1.00       2.79       5.38       ----

> <Gold.Chemscore.Fitness>
14.5401

> <Gold.Chemscore.DG>
-22.7093

> <Gold.Chemscore.ZeroCoef>
-5.4800

> <Gold.Chemscore.Hbond>
3.0680

> <Gold.Chemscore.Metal>
0.0000

> <Gold.Chemscore.Lipo>
81.5573

> <Gold.Chemscore.Internal_Hbond>
0.0000

> <Gold.Chemscore.DEClash>
2.7862

> <Gold.Chemscore.DEInternal>
5.3830

> <Gold.Chemscore.Rot>
1.0000

> <Gold.Chemscore.Internal.Correction>
   9.000000E+99

> <Gold.Chemscore.Hbonds>
donor molecule, donor type, donor heavy atom, donor atom, acceptor molecule, acceptor atom, score
      L1  H     2    39       P1 10175  1.00
      P1  H  7997  8010       L1    19  0.18

> <Gold.Chemscore.Hbond.Weighted>
-10.2471

> <Gold.Chemscore.Metal.Weighted>
-0.0000

> <Gold.Chemscore.Lipo.Weighted>
-9.5422

> <Gold.Chemscore.Internal_Hbond.Weighted>
0.0000

> <Gold.Chemscore.DEClash.Weighted>
2.7862

> <Gold.Chemscore.DEInternal.Weighted>
5.3830

> <Gold.Chemscore.Rot.Weighted>
2.5600

> <Gold.Chemscore.Internal.Correction.Weighted>
   9.000000E+99

> <Gold.Protein.RotatedTorsions>
[ 6907 6896 6895 6894 ] final  139.91 input  -60.11 | X-H torsion
[ 7974 7965 7964 7962 ] final    7.89 input  175.53 | X-H torsion
[ 8008 7997 7996 7995 ] final   56.35 input   59.86 | X-H torsion
[ 10167 10162 10161 10158 ] final  -36.60 input  -65.29 | X-H torsion
[ 10718 10713 10712 10709 ] final   74.46 input   66.30 | X-H torsion
[ 10763 10752 10751 10750 ] final  -59.39 input  -60.55 | X-H torsion
[ 11005 11000 10999 10996 ] final  104.88 input  -57.11 | X-H torsion

> <Gold.Protein.ActiveResidues>
 VAL166  LYS551  ARG553  GLY616  TRP617  ASP618  TYR619  PRO620  LYS621  CYS622 
 ASP623  PHE694  ASN695  SER759  ASP760  ASP761  ALA762  ILE779  LEU786  VAL792 
 PHE793  MET794  SER795  GLU796  ALA797  LYS798  CYS799  TRP800  GLU811  SER814 

> <Gold.Protein.RotatedAtoms>
  152.2493  133.5201  159.5315 H   0  0  0  0  0  0  0  0  0  0  0  0  # atno 6907 bound_to 6896
  150.7088  134.0982  159.3965 H   0  0  0  0  0  0  0  0  0  0  0  0  # atno 6908 bound_to 6896
  151.8902  135.0419  160.0548 H   0  0  0  0  0  0  0  0  0  0  0  0  # atno 6909 bound_to 6896
  146.2422  140.0016  142.8415 H   0  0  0  0  0  0  0  0  0  0  0  0  # atno 7974 bound_to 7965
  155.5161  140.3478  155.4397 H   0  0  0  0  0  0  0  0  0  0  0  0  # atno 8008 bound_to 7997
  156.0816  140.1388  156.9732 H   0  0  0  0  0  0  0  0  0  0  0  0  # atno 8009 bound_to 7997
  154.4583  140.0944  156.6797 H   0  0  0  0  0  0  0  0  0  0  0  0  # atno 8010 bound_to 7997
  140.7139  143.3398  151.2383 H   0  0  0  0  0  0  0  0  0  0  0  0  # atno 10167 bound_to 10162
  157.6593  130.9679  150.1214 H   0  0  0  0  0  0  0  0  0  0  0  0  # atno 10718 bound_to 10713
  154.2530  135.6322  153.5247 H   0  0  0  0  0  0  0  0  0  0  0  0  # atno 10763 bound_to 10752
  152.9909  135.5569  154.5786 H   0  0  0  0  0  0  0  0  0  0  0  0  # atno 10764 bound_to 10752
  154.5318  135.2889  155.1148 H   0  0  0  0  0  0  0  0  0  0  0  0  # atno 10765 bound_to 10752
  139.8796  134.9316  156.5428 H   0  0  0  0  0  0  0  0  0  0  0  0  # atno 11005 bound_to 11000
  145.1410  140.9571  143.4488 LP  0  0  0  0  0  0  0  0  0  0  0  0  # atno 17320 bound_to 7965
  145.0296  139.3352  143.6031 LP  0  0  0  0  0  0  0  0  0  0  0  0  # atno 17321 bound_to 7965
  139.6902  143.9705  152.2855 LP  0  0  0  0  0  0  0  0  0  0  0  0  # atno 17342 bound_to 10162
  139.9364  144.6709  150.8311 LP  0  0  0  0  0  0  0  0  0  0  0  0  # atno 17343 bound_to 10162
  156.2085  130.3665  149.8700 LP  0  0  0  0  0  0  0  0  0  0  0  0  # atno 17370 bound_to 10713
  156.6585  130.8772  151.3543 LP  0  0  0  0  0  0  0  0  0  0  0  0  # atno 17371 bound_to 10713
  140.8298  133.8288  155.8973 LP  0  0  0  0  0  0  0  0  0  0  0  0  # atno 17394 bound_to 11000
  140.9340  134.1986  157.4844 LP  0  0  0  0  0  0  0  0  0  0  0  0  # atno 17395 bound_to 11000

$$$$
