AV-unprocessed.smi:153|AV-procd|sdf|1265|dock10
  -GOLD-   2262018523D 1   1.00000     0.00000
 Structure written by MMmdl.
 59 62  0  0  0  0  0  0  0  0  1 V2000
  153.1835  141.3695  159.1443 C   0  0  0  0  0  0  0  0  0  0  0  0
  152.0240  142.3771  159.0833 C   0  0  1  0  0  0  0  0  0  0  0  0
  152.4457  143.4707  159.9014 O   0  0  0  0  0  0  0  0  0  0  0  0
  152.2475  144.7059  159.2323 C   0  0  0  0  0  0  0  0  0  0  0  0
  152.3842  144.3450  157.7604 C   0  0  0  0  0  0  0  0  0  0  0  0
  151.7031  142.9859  157.6893 C   0  0  2  0  0  0  0  0  0  0  0  0
  150.3062  143.2199  157.6266 O   0  0  0  0  0  0  0  0  0  0  0  0
  152.1094  142.1852  156.4207 C   0  0  0  0  0  0  0  0  0  0  0  0
  151.6222  140.8106  156.3535 N   0  0  0  0  0  0  0  0  0  0  0  0
  150.4424  140.3029  156.8526 C   0  0  0  0  0  0  0  0  0  0  0  0
  150.2456  139.0326  156.6341 N   0  0  0  0  0  0  0  0  0  0  0  0
  151.3589  138.6270  155.9079 C   0  0  0  0  0  0  0  0  0  0  0  0
  151.7905  137.3880  155.3450 C   0  0  0  0  0  0  0  0  0  0  0  0
  151.1133  136.2125  155.4738 N   0  0  0  0  0  0  0  0  0  0  0  0
  151.8630  135.0257  155.8794 C   0  0  0  0  0  0  0  0  0  0  0  0
  149.6998  136.2715  155.8478 C   0  0  0  0  0  0  0  0  0  0  0  0
  148.7397  136.0071  154.6653 C   0  0  1  0  0  0  0  0  0  0  0  0
  148.8413  137.0277  153.6918 O   0  0  0  0  0  0  0  0  0  0  0  0
  148.9678  134.6408  153.9796 C   0  0  0  0  0  0  0  0  0  0  0  0
  148.3640  134.4551  152.6561 N   0  0  0  0  0  0  0  0  0  0  0  0
  146.9028  134.4821  152.6832 C   0  0  0  0  0  0  0  0  0  0  0  0
  146.2975  134.2555  151.2868 C   0  0  0  0  0  0  0  0  0  0  0  0
  146.7726  133.0252  150.7509 O   0  0  0  0  0  0  0  0  0  0  0  0
  148.1925  132.9789  150.6630 C   0  0  0  0  0  0  0  0  0  0  0  0
  148.8005  133.1971  152.0589 C   0  0  0  0  0  0  0  0  0  0  0  0
  152.9577  137.4032  154.6459 N   0  0  0  0  0  0  0  0  0  0  0  0
  153.6639  138.5291  154.5201 C   0  0  0  0  0  0  0  0  0  0  0  0
  153.3930  139.7402  155.0059 N   0  0  0  0  0  0  0  0  0  0  0  0
  152.2191  139.7440  155.6999 C   0  0  0  0  0  0  0  0  0  0  0  0
  152.9152  140.4148  158.6974 H   0  0  0  0  0  0  0  0  0  0  0  0
  153.4545  141.1610  160.1793 H   0  0  0  0  0  0  0  0  0  0  0  0
  154.0727  141.7497  158.6409 H   0  0  0  0  0  0  0  0  0  0  0  0
  151.1375  141.9192  159.5254 H   0  0  0  0  0  0  0  0  0  0  0  0
  151.2465  145.0794  159.4519 H   0  0  0  0  0  0  0  0  0  0  0  0
  152.9708  145.4561  159.5524 H   0  0  0  0  0  0  0  0  0  0  0  0
  151.9495  145.0913  157.0941 H   0  0  0  0  0  0  0  0  0  0  0  0
  153.4422  144.2516  157.5114 H   0  0  0  0  0  0  0  0  0  0  0  0
  150.1625  144.1454  157.5018 H   0  0  0  0  0  0  0  0  0  0  0  0
  151.7638  142.7040  155.5258 H   0  0  0  0  0  0  0  0  0  0  0  0
  153.1967  142.1640  156.3437 H   0  0  0  0  0  0  0  0  0  0  0  0
  149.7179  140.8972  157.3882 H   0  0  0  0  0  0  0  0  0  0  0  0
  152.7448  134.8898  155.2520 H   0  0  0  0  0  0  0  0  0  0  0  0
  151.2500  134.1296  155.7818 H   0  0  0  0  0  0  0  0  0  0  0  0
  152.1842  135.1041  156.9186 H   0  0  0  0  0  0  0  0  0  0  0  0
  149.4703  135.6313  156.6966 H   0  0  0  0  0  0  0  0  0  0  0  0
  149.5208  137.2834  156.2133 H   0  0  0  0  0  0  0  0  0  0  0  0
  147.7095  136.0190  155.0227 H   0  0  0  0  0  0  0  0  0  0  0  0
  149.1051  136.6341  152.8742 H   0  0  0  0  0  0  0  0  0  0  0  0
  150.0477  134.5355  153.8673 H   0  0  0  0  0  0  0  0  0  0  0  0
  148.6697  133.8312  154.6479 H   0  0  0  0  0  0  0  0  0  0  0  0
  146.5303  133.7188  153.3680 H   0  0  0  0  0  0  0  0  0  0  0  0
  146.5478  135.4412  153.0577 H   0  0  0  0  0  0  0  0  0  0  0  0
  145.2096  134.2220  151.3455 H   0  0  0  0  0  0  0  0  0  0  0  0
  146.5574  135.0768  150.6169 H   0  0  0  0  0  0  0  0  0  0  0  0
  148.4942  132.0100  150.2653 H   0  0  0  0  0  0  0  0  0  0  0  0
  148.5469  133.7380  149.9637 H   0  0  0  0  0  0  0  0  0  0  0  0
  149.8882  133.1813  151.9814 H   0  0  0  0  0  0  0  0  0  0  0  0
  148.5225  132.3639  152.7064 H   0  0  0  0  0  0  0  0  0  0  0  0
  154.5796  138.4459  153.9536 H   0  0  0  0  0  0  0  0  0  0  0  0
  1  2  1  0  0  0  0
  1 30  1  0  0  0  0
  1 31  1  0  0  0  0
  1 32  1  0  0  0  0
  2  6  1  0  0  0  0
  2  3  1  0  0  0  0
  2 33  1  0  0  0  0
  3  4  1  0  0  0  0
  4  5  1  0  0  0  0
  4 34  1  0  0  0  0
  4 35  1  0  0  0  0
  5  6  1  0  0  0  0
  5 36  1  0  0  0  0
  5 37  1  0  0  0  0
  6  7  1  0  0  0  0
  6  8  1  0  0  0  0
  7 38  1  0  0  0  0
  8  9  1  0  0  0  0
  8 39  1  0  0  0  0
  8 40  1  0  0  0  0
  9 29  1  0  0  0  0
  9 10  1  0  0  0  0
 10 11  2  0  0  0  0
 10 41  1  0  0  0  0
 11 12  1  0  0  0  0
 12 29  2  0  0  0  0
 12 13  1  0  0  0  0
 13 14  1  0  0  0  0
 13 26  2  0  0  0  0
 14 15  1  0  0  0  0
 14 16  1  0  0  0  0
 15 42  1  0  0  0  0
 15 43  1  0  0  0  0
 15 44  1  0  0  0  0
 16 17  1  0  0  0  0
 16 45  1  0  0  0  0
 16 46  1  0  0  0  0
 17 18  1  0  0  0  0
 17 19  1  0  0  0  0
 17 47  1  0  0  0  0
 18 48  1  0  0  0  0
 19 20  1  0  0  0  0
 19 49  1  0  0  0  0
 19 50  1  0  0  0  0
 20 25  1  0  0  0  0
 20 21  1  0  0  0  0
 21 22  1  0  0  0  0
 21 51  1  0  0  0  0
 21 52  1  0  0  0  0
 22 23  1  0  0  0  0
 22 53  1  0  0  0  0
 22 54  1  0  0  0  0
 23 24  1  0  0  0  0
 24 25  1  0  0  0  0
 24 55  1  0  0  0  0
 24 56  1  0  0  0  0
 25 57  1  0  0  0  0
 25 58  1  0  0  0  0
 26 27  1  0  0  0  0
 27 28  2  0  0  0  0
 27 59  1  0  0  0  0
 28 29  1  0  0  0  0
M  END
> <s_m_source_file>
AV-unprocessed.smi

> <i_m_source_file_index>
153

> <i_lp_mmshare_version>
43012

> <i_f3d_flags>
0

> <s_epik_input>
W0NIMl0xW0NIMl1PW0NAQEhdKFtDSDNdKVtDQEBdMShbT0hdKVtDSDJdbihbY0hdbjIpYyhjMjMpbltjSF1uYzNOKFtDSDNdKVtDSDJdW0NASF0oW09IXSlbQ0gyXU40W0NIMl1bQ0gyXU9bQ0gyXVtDSDJdNA==

> <s_epik_cmdline>
J2VwaWtfcHl0aG9uJywgJy1waCcsICc3LjAnLCAnLXRuJywgJzgnLCAnLW1hJywgJzIwMCcsICctbWV0YWxfYmluZGluZycsICctaW1hZScsICc8aW5maWxlLm1hZT4nLCAnLW9tYWUnLCAnPG91dGZpbGUubWFlPic=

> <r_lp_tautomer_probability>
1

> <r_epik_Ionization_Penalty>
0.424123

> <r_epik_Ionization_Penalty_Charging>
0

> <r_epik_Ionization_Penalty_Neutral>
0.424123

> <r_epik_State_Penalty>
0.421495

> <r_epik_Charging_Adjusted_Penalty>
0.421495

> <i_epik_Tot_Q>
0

> <i_epik_Tot_abs_Q>
0

> <r_epik_Metal_State_Penalty>
0.421223

> <b_epik_Metal_Only>
0

> <s_lp_Force_Field>
OPLS_2005

> <r_lp_Energy>
59.9447

> <b_lp_Chiralities_Consistent>
1

> <s_lp_Variant>
AV-unprocessed.smi:153-16

> <Gold.Version>
5.8.1

> <Gold.Id.Protein>
6NUR|6NUR_protein|mol2

> <Gold.PLP.Fitness>
51.6481

> <Gold.PLP.PLP>
-44.3636

> <Gold.PLP.part.hbond>
-4.4574

> <Gold.PLP.part.metal>
0.0000

> <Gold.PLP.part.buried>
-9.3310

> <Gold.PLP.part.nonpolar>
-32.5787

> <Gold.PLP.part.repulsive>
1.4371

> <Gold.PLP.ligand.clash>
0.0000

> <Gold.PLP.ligand.torsion>
1.2794

> <Gold.PLP.Chemscore.Hbond>
3.0830

> <Gold.PLP.Chemscore.CHOScore>
0.0000

> <Gold.PLP.Chemscore.Metal>
0.0000

> <Gold.Chemscore.Hbonds>
donor molecule, donor type, donor heavy atom, donor atom, acceptor molecule, acceptor atom, score
      L1  H     7    38       P1  8028  0.12
      P1  H  7997  8010       L1    28  0.80
      P1  H 10752 10764       L1    26  0.26

> <Gold.PLP.Chemscore.Internal.Correction>
0.5943

> <Gold.Rescore>
     Score         DG    S(hbond)    S(metal)    S(lipo)     H(rot)  DE(clash)    DE(int)     intcor
      7.96     -14.25       2.00        0.00      94.87       3.52       1.54       4.75       ----

> <Gold.Chemscore.Fitness>
7.9598

> <Gold.Chemscore.DG>
-14.2490

> <Gold.Chemscore.ZeroCoef>
-5.4800

> <Gold.Chemscore.Hbond>
1.9979

> <Gold.Chemscore.Metal>
0.0000

> <Gold.Chemscore.Lipo>
94.8676

> <Gold.Chemscore.Internal_Hbond>
0.0000

> <Gold.Chemscore.DEClash>
1.5371

> <Gold.Chemscore.DEInternal>
4.7521

> <Gold.Chemscore.Rot>
3.5170

> <Gold.Chemscore.Internal.Correction>
   9.000000E+99

> <Gold.Chemscore.Hbonds>
donor molecule, donor type, donor heavy atom, donor atom, acceptor molecule, acceptor atom, score
      L1  H     7    38       P1  8028  0.07
      L1  H    18    48       P1  7948  0.03
      P1  H  7997  8010       L1    28  0.43
      P1  H 10752 10764       L1    26  0.04

> <Gold.Chemscore.Hbond.Weighted>
-6.6731

> <Gold.Chemscore.Metal.Weighted>
-0.0000

> <Gold.Chemscore.Lipo.Weighted>
-11.0995

> <Gold.Chemscore.Internal_Hbond.Weighted>
0.0000

> <Gold.Chemscore.DEClash.Weighted>
1.5371

> <Gold.Chemscore.DEInternal.Weighted>
4.7521

> <Gold.Chemscore.Rot.Weighted>
9.0036

> <Gold.Chemscore.Internal.Correction.Weighted>
   9.000000E+99

> <Gold.Protein.RotatedTorsions>
[ 6907 6896 6895 6894 ] final -158.41 input  -60.11 | X-H torsion
[ 7974 7965 7964 7962 ] final   78.17 input  175.53 | X-H torsion
[ 8008 7997 7996 7995 ] final  104.31 input   59.86 | X-H torsion
[ 10167 10162 10161 10158 ] final  123.64 input  -65.29 | X-H torsion
[ 10718 10713 10712 10709 ] final  167.56 input   66.30 | X-H torsion
[ 10763 10752 10751 10750 ] final  -76.37 input  -60.55 | X-H torsion
[ 11005 11000 10999 10996 ] final -139.13 input  -57.11 | X-H torsion

> <Gold.Protein.ActiveResidues>
 VAL166  LYS551  ARG553  GLY616  TRP617  ASP618  TYR619  PRO620  LYS621  CYS622 
 ASP623  PHE694  ASN695  SER759  ASP760  ASP761  ALA762  ILE779  LEU786  VAL792 
 PHE793  MET794  SER795  GLU796  ALA797  LYS798  CYS799  TRP800  GLU811  SER814 

> <Gold.Protein.RotatedAtoms>
  151.3177  133.4053  159.2651 H   0  0  0  0  0  0  0  0  0  0  0  0  # atno 6907 bound_to 6896
  151.0060  134.9360  159.7991 H   0  0  0  0  0  0  0  0  0  0  0  0  # atno 6908 bound_to 6896
  152.5288  134.3142  159.9177 H   0  0  0  0  0  0  0  0  0  0  0  0  # atno 6909 bound_to 6896
  145.6805  139.2522  143.1817 H   0  0  0  0  0  0  0  0  0  0  0  0  # atno 7974 bound_to 7965
  156.1562  140.3150  155.8729 H   0  0  0  0  0  0  0  0  0  0  0  0  # atno 8008 bound_to 7997
  155.3874  140.0491  157.3059 H   0  0  0  0  0  0  0  0  0  0  0  0  # atno 8009 bound_to 7997
  154.5103  140.2162  155.9180 H   0  0  0  0  0  0  0  0  0  0  0  0  # atno 8010 bound_to 7997
  139.5787  144.6976  151.3584 H   0  0  0  0  0  0  0  0  0  0  0  0  # atno 10167 bound_to 10162
  157.0497  131.0310  151.2685 H   0  0  0  0  0  0  0  0  0  0  0  0  # atno 10718 bound_to 10713
  154.4989  135.5800  153.6516 H   0  0  0  0  0  0  0  0  0  0  0  0  # atno 10763 bound_to 10752
  152.9875  135.6131  154.3028 H   0  0  0  0  0  0  0  0  0  0  0  0  # atno 10764 bound_to 10752
  154.2934  135.2848  155.2624 H   0  0  0  0  0  0  0  0  0  0  0  0  # atno 10765 bound_to 10752
  140.8549  134.2240  157.4740 H   0  0  0  0  0  0  0  0  0  0  0  0  # atno 11005 bound_to 11000
  146.0968  140.7591  142.9568 LP  0  0  0  0  0  0  0  0  0  0  0  0  # atno 17320 bound_to 7965
  144.7027  140.3724  143.7142 LP  0  0  0  0  0  0  0  0  0  0  0  0  # atno 17321 bound_to 7965
  140.7068  143.7494  150.7495 LP  0  0  0  0  0  0  0  0  0  0  0  0  # atno 17342 bound_to 10162
  140.1021  143.4778  152.2419 LP  0  0  0  0  0  0  0  0  0  0  0  0  # atno 17343 bound_to 10162
  157.5040  130.7897  149.7634 LP  0  0  0  0  0  0  0  0  0  0  0  0  # atno 17370 bound_to 10713
  156.0011  130.3879  150.2601 LP  0  0  0  0  0  0  0  0  0  0  0  0  # atno 17371 bound_to 10713
  139.8705  134.9701  156.4691 LP  0  0  0  0  0  0  0  0  0  0  0  0  # atno 17394 bound_to 11000
  140.8748  133.7961  155.9403 LP  0  0  0  0  0  0  0  0  0  0  0  0  # atno 17395 bound_to 11000

$$$$
