AV-unprocessed.smi:9|AV-procd|sdf|50|dock7
  -GOLD-   2262015163D 1   1.00000     0.00000
 Structure written by MMmdl.
 34 36  0  0  0  0  0  0  0  0  2 V2000
  148.2744  136.3781  161.2483 O   0  0  0  0  0  0  0  0  0  0  0  0
  147.7663  136.7756  160.2017 C   0  0  0  0  0  0  0  0  0  0  0  0
  146.5034  137.2935  160.0823 N   0  5  0  0  0  0  0  0  0  0  0  0
  146.0199  137.7237  158.8411 C   0  0  0  0  0  0  0  0  0  0  0  0
  144.5986  138.2776  158.8194 C   0  0  0  0  0  0  0  0  0  0  0  0
  144.5124  139.4147  159.5132 F   0  0  0  0  0  0  0  0  0  0  0  0
  144.2218  138.5273  157.5655 F   0  0  0  0  0  0  0  0  0  0  0  0
  143.7321  137.4135  159.3522 F   0  0  0  0  0  0  0  0  0  0  0  0
  146.6722  137.6749  157.7242 N   0  0  0  0  0  0  0  0  0  0  0  0
  147.9452  137.1553  157.8092 C   0  0  0  0  0  0  0  0  0  0  0  0
  148.5567  136.7037  158.9444 C   0  0  0  0  0  0  0  0  0  0  0  0
  149.8455  136.2552  158.6781 N   0  0  0  0  0  0  0  0  0  0  0  0
  149.9472  136.4621  157.3650 C   0  0  0  0  0  0  0  0  0  0  0  0
  148.8540  136.9843  156.7729 N   0  0  0  0  0  0  0  0  0  0  0  0
  148.6820  137.3090  155.3645 C   0  0  0  0  0  0  0  0  0  0  0  0
  149.8714  138.0818  154.7378 C   0  0  2  0  0  0  0  0  0  0  0  0
  149.5004  138.4246  153.4155 O   0  0  0  0  0  0  0  0  0  0  0  0
  151.1635  137.2355  154.7010 C   0  0  0  0  0  0  0  0  0  0  0  0
  152.3875  138.0809  154.3345 C   0  0  0  0  0  0  0  0  0  0  0  0
  152.4661  139.3156  155.2387 C   0  0  0  0  0  0  0  0  0  0  0  0
  151.2790  140.0806  155.0838 O   0  0  0  0  0  0  0  0  0  0  0  0
  150.0976  139.4047  155.5076 C   0  0  0  0  0  0  0  0  0  0  0  0
  150.8437  136.2195  156.8136 H   0  0  0  0  0  0  0  0  0  0  0  0
  148.4996  136.3828  154.8175 H   0  0  0  0  0  0  0  0  0  0  0  0
  147.7684  137.8975  155.2709 H   0  0  0  0  0  0  0  0  0  0  0  0
  149.3346  137.6278  152.9355 H   0  0  0  0  0  0  0  0  0  0  0  0
  151.3298  136.7934  155.6843 H   0  0  0  0  0  0  0  0  0  0  0  0
  151.0680  136.4040  154.0015 H   0  0  0  0  0  0  0  0  0  0  0  0
  153.2958  137.4853  154.4302 H   0  0  0  0  0  0  0  0  0  0  0  0
  152.3268  138.3929  153.2913 H   0  0  0  0  0  0  0  0  0  0  0  0
  152.6017  139.0322  156.2837 H   0  0  0  0  0  0  0  0  0  0  0  0
  153.3213  139.9310  154.9595 H   0  0  0  0  0  0  0  0  0  0  0  0
  149.2443  140.0731  155.3862 H   0  0  0  0  0  0  0  0  0  0  0  0
  150.1821  139.2069  156.5774 H   0  0  0  0  0  0  0  0  0  0  0  0
  1  2  2  0  0  0  0
  2 11  1  0  0  0  0
  2  3  1  0  0  0  0
  3  4  1  0  0  0  0
  4  5  1  0  0  0  0
  4  9  2  0  0  0  0
  5  6  1  0  0  0  0
  5  7  1  0  0  0  0
  5  8  1  0  0  0  0
  9 10  1  0  0  0  0
 10 14  1  0  0  0  0
 10 11  2  0  0  0  0
 11 12  1  0  0  0  0
 12 13  2  0  0  0  0
 13 14  1  0  0  0  0
 13 23  1  0  0  0  0
 14 15  1  0  0  0  0
 15 16  1  0  0  0  0
 15 24  1  0  0  0  0
 15 25  1  0  0  0  0
 16 22  1  0  0  0  0
 16 17  1  0  0  0  0
 16 18  1  0  0  0  0
 17 26  1  0  0  0  0
 18 19  1  0  0  0  0
 18 27  1  0  0  0  0
 18 28  1  0  0  0  0
 19 20  1  0  0  0  0
 19 29  1  0  0  0  0
 19 30  1  0  0  0  0
 20 21  1  0  0  0  0
 20 31  1  0  0  0  0
 20 32  1  0  0  0  0
 21 22  1  0  0  0  0
 22 33  1  0  0  0  0
 22 34  1  0  0  0  0
M  CHG  1   3  -1
M  END
> <s_m_source_file>
AV-unprocessed.smi

> <i_m_source_file_index>
9

> <i_lp_mmshare_version>
43012

> <i_f3d_flags>
0

> <s_epik_input>
RkMoRikoRiljKG4xKVtuSF1jKD1PKWMoYzEyKW5bY0hdbjJbQ0gyXVtDQEBdMyhbT0hdKVtDSDJdW0NIMl1bQ0gyXU9bQ0gyXTM=

> <s_epik_cmdline>
J2VwaWtfcHl0aG9uJywgJy1waCcsICc3LjAnLCAnLXRuJywgJzgnLCAnLW1hJywgJzIwMCcsICctbWV0YWxfYmluZGluZycsICctaW1hZScsICc8aW5maWxlLm1hZT4nLCAnLW9tYWUnLCAnPG91dGZpbGUubWFlPic=

> <r_lp_tautomer_probability>
1

> <r_epik_Ionization_Penalty>
0.188582

> <r_epik_Ionization_Penalty_Charging>
1.37005e-11

> <r_epik_Ionization_Penalty_Neutral>
0.188582

> <r_epik_State_Penalty>
0.012336

> <r_epik_Charging_Adjusted_Penalty>
0.012336

> <i_epik_Tot_Q>
-1

> <i_epik_Tot_abs_Q>
1

> <r_epik_Metal_State_Penalty>
0.0089237

> <b_epik_Metal_Only>
0

> <s_lp_Force_Field>
OPLS_2005

> <r_lp_Energy>
37.4202

> <b_lp_Chiralities_Consistent>
1

> <s_lp_Variant>
AV-unprocessed.smi:9-2

> <Gold.Version>
5.8.1

> <Gold.Id.Protein>
6NUR|6NUR_protein|mol2

> <Gold.PLP.Fitness>
38.4119

> <Gold.PLP.PLP>
-24.0883

> <Gold.PLP.part.hbond>
-6.0000

> <Gold.PLP.part.metal>
0.0000

> <Gold.PLP.part.buried>
-3.2425

> <Gold.PLP.part.nonpolar>
-15.4278

> <Gold.PLP.part.repulsive>
0.0429

> <Gold.PLP.ligand.clash>
0.0000

> <Gold.PLP.ligand.torsion>
0.2665

> <Gold.PLP.Chemscore.Hbond>
4.9500

> <Gold.PLP.Chemscore.CHOScore>
0.0000

> <Gold.PLP.Chemscore.Metal>
0.0000

> <Gold.Chemscore.Hbonds>
donor molecule, donor type, donor heavy atom, donor atom, acceptor molecule, acceptor atom, score
      L1  H    17    26       P1  7948  1.00
      P1  H  6896  6909       L1    12  1.00
      P1  H  6931  6943       L1     1  0.70
      P1  H  6934  6947       L1     3  0.89
      P1  H  7989  7998       L1    21  0.95

> <Gold.PLP.Chemscore.Internal.Correction>
0.0066

> <Gold.Rescore>
     Score         DG    S(hbond)    S(metal)    S(lipo)     H(rot)  DE(clash)    DE(int)     intcor
     13.88     -15.20       3.04        0.00      42.61       2.12       0.95       0.37       ----

> <Gold.Chemscore.Fitness>
13.8752

> <Gold.Chemscore.DG>
-15.1975

> <Gold.Chemscore.ZeroCoef>
-5.4800

> <Gold.Chemscore.Hbond>
3.0446

> <Gold.Chemscore.Metal>
0.0000

> <Gold.Chemscore.Lipo>
42.6123

> <Gold.Chemscore.Internal_Hbond>
0.0000

> <Gold.Chemscore.DEClash>
0.9501

> <Gold.Chemscore.DEInternal>
0.3722

> <Gold.Chemscore.Rot>
2.1239

> <Gold.Chemscore.Internal.Correction>
   9.000000E+99

> <Gold.Chemscore.Hbonds>
donor molecule, donor type, donor heavy atom, donor atom, acceptor molecule, acceptor atom, score
      L1  H    17    26       P1  7948  0.94
      P1  H  6896  6909       L1    12  0.96
      P1  H  6931  6943       L1     1  0.14
      P1  H  6934  6947       L1     3  0.01
      P1  H  7989  7998       L1    21  0.21

> <Gold.Chemscore.Hbond.Weighted>
-10.1691

> <Gold.Chemscore.Metal.Weighted>
-0.0000

> <Gold.Chemscore.Lipo.Weighted>
-4.9856

> <Gold.Chemscore.Internal_Hbond.Weighted>
0.0000

> <Gold.Chemscore.DEClash.Weighted>
0.9501

> <Gold.Chemscore.DEInternal.Weighted>
0.3722

> <Gold.Chemscore.Rot.Weighted>
5.4373

> <Gold.Chemscore.Internal.Correction.Weighted>
   9.000000E+99

> <Gold.Protein.RotatedTorsions>
[ 6907 6896 6895 6894 ] final   64.22 input  -60.11 | X-H torsion
[ 7974 7965 7964 7962 ] final  143.46 input  175.53 | X-H torsion
[ 8008 7997 7996 7995 ] final  162.86 input   59.86 | X-H torsion
[ 10167 10162 10161 10158 ] final    8.11 input  -65.29 | X-H torsion
[ 10718 10713 10712 10709 ] final  -40.16 input   66.30 | X-H torsion
[ 10763 10752 10751 10750 ] final  155.83 input  -60.55 | X-H torsion
[ 11005 11000 10999 10996 ] final  134.48 input  -57.11 | X-H torsion

> <Gold.Protein.ActiveResidues>
 VAL166  LYS551  ARG553  GLY616  TRP617  ASP618  TYR619  PRO620  LYS621  CYS622 
 ASP623  PHE694  ASN695  SER759  ASP760  ASP761  ALA762  ILE779  LEU786  VAL792 
 PHE793  MET794  SER795  GLU796  ALA797  LYS798  CYS799  TRP800  GLU811  SER814 

> <Gold.Protein.RotatedAtoms>
  152.4315  134.5769  159.9936 H   0  0  0  0  0  0  0  0  0  0  0  0  # atno 6907 bound_to 6896
  151.5891  133.3363  159.3032 H   0  0  0  0  0  0  0  0  0  0  0  0  # atno 6908 bound_to 6896
  150.8208  134.7450  159.6835 H   0  0  0  0  0  0  0  0  0  0  0  0  # atno 6909 bound_to 6896
  144.8919  139.5547  143.5794 H   0  0  0  0  0  0  0  0  0  0  0  0  # atno 7974 bound_to 7965
  156.2000  140.1739  156.7919 H   0  0  0  0  0  0  0  0  0  0  0  0  # atno 8008 bound_to 7997
  154.5579  140.0705  156.8804 H   0  0  0  0  0  0  0  0  0  0  0  0  # atno 8009 bound_to 7997
  155.2903  140.3355  155.4255 H   0  0  0  0  0  0  0  0  0  0  0  0  # atno 8010 bound_to 7997
  140.6333  143.7943  150.7325 H   0  0  0  0  0  0  0  0  0  0  0  0  # atno 10167 bound_to 10162
  156.2844  130.4221  149.8303 H   0  0  0  0  0  0  0  0  0  0  0  0  # atno 10718 bound_to 10713
  154.1747  135.2802  155.3070 H   0  0  0  0  0  0  0  0  0  0  0  0  # atno 10763 bound_to 10752
  154.6048  135.5518  153.7415 H   0  0  0  0  0  0  0  0  0  0  0  0  # atno 10764 bound_to 10752
  153.0155  135.6401  154.1887 H   0  0  0  0  0  0  0  0  0  0  0  0  # atno 10765 bound_to 10752
  139.9918  134.9512  156.9873 H   0  0  0  0  0  0  0  0  0  0  0  0  # atno 11005 bound_to 11000
  146.3058  139.7577  142.9057 LP  0  0  0  0  0  0  0  0  0  0  0  0  # atno 17320 bound_to 7965
  145.3769  141.0352  143.3199 LP  0  0  0  0  0  0  0  0  0  0  0  0  # atno 17321 bound_to 7965
  140.1559  143.4317  152.2100 LP  0  0  0  0  0  0  0  0  0  0  0  0  # atno 17342 bound_to 10162
  139.5546  144.7363  151.4334 LP  0  0  0  0  0  0  0  0  0  0  0  0  # atno 17343 bound_to 10162
  156.5739  130.8437  151.3364 LP  0  0  0  0  0  0  0  0  0  0  0  0  # atno 17370 bound_to 10713
  157.7324  130.9714  150.1926 LP  0  0  0  0  0  0  0  0  0  0  0  0  # atno 17371 bound_to 10713
  140.4894  134.1208  155.7230 LP  0  0  0  0  0  0  0  0  0  0  0  0  # atno 17394 bound_to 11000
  141.1572  133.8861  157.1946 LP  0  0  0  0  0  0  0  0  0  0  0  0  # atno 17395 bound_to 11000

$$$$
