AV-unprocessed.smi:110|AV-procd|sdf|1077|dock5
  -GOLD-   2262018163D 1   1.00000     0.00000
 Structure written by MMmdl.
 46 50  0  0  0  0  0  0  0  0  1 V2000
  148.4091  135.6704  154.2674 O   0  0  0  0  0  0  0  0  0  0  0  0
  147.4947  136.6820  154.6328 C   0  0  0  0  0  0  0  0  0  0  0  0
  148.2505  137.9643  155.0255 C   0  0  1  0  0  0  0  0  0  0  0  0
  149.6599  137.7409  155.0561 O   0  0  0  0  0  0  0  0  0  0  0  0
  150.3556  138.9115  154.7426 C   0  0  2  0  0  0  0  0  0  0  0  0
  151.1798  139.3032  155.9301 N   0  0  0  0  0  0  0  0  0  0  0  0
  152.2650  138.6276  156.4411 C   0  0  0  0  0  0  0  0  0  0  0  0
  152.8203  139.1693  157.4899 N   0  0  0  0  0  0  0  0  0  0  0  0
  152.0477  140.2960  157.7427 C   0  0  0  0  0  0  0  0  0  0  0  0
  152.0865  141.3339  158.7177 C   0  0  0  0  0  0  0  0  0  0  0  0
  153.0049  141.4280  159.7069 N   0  0  0  0  0  0  0  0  0  0  0  0
  153.9148  140.2935  159.9231 C   0  0  0  0  0  0  0  0  0  0  0  0
  154.4479  140.3872  161.3654 C   0  0  0  0  0  0  0  0  0  0  0  0
  153.8072  141.6566  161.8244 C   0  0  0  0  0  0  0  0  0  0  0  0
  153.9622  142.2881  163.0706 C   0  0  0  0  0  0  0  0  0  0  0  0
  153.2752  143.5013  163.2911 C   0  0  0  0  0  0  0  0  0  0  0  0
  152.4641  144.0586  162.2752 C   0  0  0  0  0  0  0  0  0  0  0  0
  152.3248  143.4069  161.0300 C   0  0  0  0  0  0  0  0  0  0  0  0
  152.9987  142.1857  160.8236 C   0  0  0  0  0  0  0  0  0  0  0  0
  151.1697  142.3290  158.6156 N   0  0  0  0  0  0  0  0  0  0  0  0
  150.2489  142.2947  157.6493 C   0  0  0  0  0  0  0  0  0  0  0  0
  150.0836  141.3850  156.6882 N   0  0  0  0  0  0  0  0  0  0  0  0
  151.0173  140.3936  156.7637 C   0  0  0  0  0  0  0  0  0  0  0  0
  149.3224  139.9902  154.3863 C   0  0  1  0  0  0  0  0  0  0  0  0
  149.7073  140.8013  153.2919 O   0  0  0  0  0  0  0  0  0  0  0  0
  148.0929  139.1482  154.0625 C   0  0  1  0  0  0  0  0  0  0  0  0
  148.0835  138.6994  152.7160 O   0  0  0  0  0  0  0  0  0  0  0  0
  147.9212  138.2919  156.0115 H   0  0  0  0  0  0  0  0  0  0  0  0
  151.0720  138.7078  153.9455 H   0  0  0  0  0  0  0  0  0  0  0  0
  149.1186  140.6174  155.2542 H   0  0  0  0  0  0  0  0  0  0  0  0
  147.1692  139.6981  154.2451 H   0  0  0  0  0  0  0  0  0  0  0  0
  148.6283  135.7792  153.3545 H   0  0  0  0  0  0  0  0  0  0  0  0
  146.7910  136.8670  153.8207 H   0  0  0  0  0  0  0  0  0  0  0  0
  146.9216  136.3094  155.4823 H   0  0  0  0  0  0  0  0  0  0  0  0
  152.6418  137.7145  156.0033 H   0  0  0  0  0  0  0  0  0  0  0  0
  153.3945  139.3478  159.7641 H   0  0  0  0  0  0  0  0  0  0  0  0
  154.7353  140.3460  159.2067 H   0  0  0  0  0  0  0  0  0  0  0  0
  154.1198  139.5481  161.9792 H   0  0  0  0  0  0  0  0  0  0  0  0
  155.5350  140.4600  161.4004 H   0  0  0  0  0  0  0  0  0  0  0  0
  154.5919  141.8596  163.8362 H   0  0  0  0  0  0  0  0  0  0  0  0
  153.3751  144.0104  164.2383 H   0  0  0  0  0  0  0  0  0  0  0  0
  151.9502  144.9919  162.4509 H   0  0  0  0  0  0  0  0  0  0  0  0
  151.7140  143.8434  160.2535 H   0  0  0  0  0  0  0  0  0  0  0  0
  149.5456  143.1142  157.6438 H   0  0  0  0  0  0  0  0  0  0  0  0
  149.6970  140.2710  152.5094 H   0  0  0  0  0  0  0  0  0  0  0  0
  148.6799  139.2399  152.2199 H   0  0  0  0  0  0  0  0  0  0  0  0
  1  2  1  0  0  0  0
  1 32  1  0  0  0  0
  2  3  1  0  0  0  0
  2 33  1  0  0  0  0
  2 34  1  0  0  0  0
  3 28  1  0  0  0  0
  3 26  1  0  0  0  0
  3  4  1  0  0  0  0
  4  5  1  0  0  0  0
  5 29  1  0  0  0  0
  5  6  1  0  0  0  0
  5 24  1  0  0  0  0
  6 23  1  0  0  0  0
  6  7  1  0  0  0  0
  7  8  2  0  0  0  0
  7 35  1  0  0  0  0
  8  9  1  0  0  0  0
  9 23  2  0  0  0  0
  9 10  1  0  0  0  0
 10 11  1  0  0  0  0
 10 20  2  0  0  0  0
 11 19  1  0  0  0  0
 11 12  1  0  0  0  0
 12 13  1  0  0  0  0
 12 36  1  0  0  0  0
 12 37  1  0  0  0  0
 13 14  1  0  0  0  0
 13 38  1  0  0  0  0
 13 39  1  0  0  0  0
 14 19  2  0  0  0  0
 14 15  1  0  0  0  0
 15 16  2  0  0  0  0
 15 40  1  0  0  0  0
 16 17  1  0  0  0  0
 16 41  1  0  0  0  0
 17 18  2  0  0  0  0
 17 42  1  0  0  0  0
 18 19  1  0  0  0  0
 18 43  1  0  0  0  0
 20 21  1  0  0  0  0
 21 22  2  0  0  0  0
 21 44  1  0  0  0  0
 22 23  1  0  0  0  0
 24 30  1  0  0  0  0
 24 25  1  0  0  0  0
 24 26  1  0  0  0  0
 25 45  1  0  0  0  0
 26 31  1  0  0  0  0
 26 27  1  0  0  0  0
 27 46  1  0  0  0  0
M  END
> <s_m_source_file>
AV-unprocessed.smi

> <i_m_source_file_index>
110

> <i_lp_mmshare_version>
43012

> <i_f3d_flags>
0

> <s_epik_input>
W09IXVtDSDJdW0NASF0xT1tDQEhdKFtDQEhdKFtPSF0pW0NAQEhdMVtPSF0pbihbY0hdbjIpYyhjMjMpbltjSF1uYzNOKFtDSDJdW0NIMl00KWMoYzQ1KVtjSF1bY0hdW2NIXVtjSF01

> <s_epik_cmdline>
J2VwaWtfcHl0aG9uJywgJy1waCcsICc3LjAnLCAnLXRuJywgJzgnLCAnLW1hJywgJzIwMCcsICctbWV0YWxfYmluZGluZycsICctaW1hZScsICc8aW5maWxlLm1hZT4nLCAnLW9tYWUnLCAnPG91dGZpbGUubWFlPic=

> <r_lp_tautomer_probability>
1

> <r_epik_Ionization_Penalty>
0.00068475

> <r_epik_Ionization_Penalty_Charging>
0

> <r_epik_Ionization_Penalty_Neutral>
0.00068475

> <r_epik_State_Penalty>
0.000417442

> <r_epik_Charging_Adjusted_Penalty>
0.000417442

> <i_epik_Tot_Q>
0

> <i_epik_Tot_abs_Q>
0

> <r_epik_Metal_State_Penalty>
-0

> <b_epik_Metal_Only>
0

> <s_epik_Chemistry_Notes>
This compound contains an acetal/aminal-like group ( X-CH(R)-Y where X, Y are N, S, or O) that may be acid/base labile, releasing an aldehyde.

> <s_lp_Force_Field>
OPLS_2005

> <r_lp_Energy>
64.5887

> <b_lp_Chiralities_Consistent>
1

> <s_lp_Variant>
AV-unprocessed.smi:110-15

> <Gold.Version>
5.8.1

> <Gold.Id.Protein>
6NUR|6NUR_protein|mol2

> <Gold.PLP.Fitness>
66.9624

> <Gold.PLP.PLP>
-52.9059

> <Gold.PLP.part.hbond>
-6.0359

> <Gold.PLP.part.metal>
0.0000

> <Gold.PLP.part.buried>
-3.5761

> <Gold.PLP.part.nonpolar>
-42.3770

> <Gold.PLP.part.repulsive>
0.2310

> <Gold.PLP.ligand.clash>
0.0000

> <Gold.PLP.ligand.torsion>
0.9000

> <Gold.PLP.Chemscore.Hbond>
4.5014

> <Gold.PLP.Chemscore.CHOScore>
0.7375

> <Gold.PLP.Chemscore.Metal>
0.0000

> <Gold.Chemscore.Hbonds>
donor molecule, donor type, donor heavy atom, donor atom, acceptor molecule, acceptor atom, score
      L1  H     1    32       P1  7948  1.00
      L1  H    25    45       P1  7957  0.60
      L1  H    27    46       P1  7957  1.00
      P1  H  7989  7998       L1    25  0.20
      P1  H  7997  8008       L1     8  1.00
      P1  H  8011  8017       L1    25  0.65
      L1  C    21    44       P1  8028  0.76

> <Gold.PLP.Chemscore.Internal.Correction>
0.1402

> <Gold.Rescore>
     Score         DG    S(hbond)    S(metal)    S(lipo)     H(rot)  DE(clash)    DE(int)     intcor
     15.83     -21.06       3.51        0.00     107.14       3.38       0.35       4.88       ----

> <Gold.Chemscore.Fitness>
15.8270

> <Gold.Chemscore.DG>
-21.0643

> <Gold.Chemscore.ZeroCoef>
-5.4800

> <Gold.Chemscore.Hbond>
3.5063

> <Gold.Chemscore.Metal>
0.0000

> <Gold.Chemscore.Lipo>
107.1420

> <Gold.Chemscore.Internal_Hbond>
0.0000

> <Gold.Chemscore.DEClash>
0.3533

> <Gold.Chemscore.DEInternal>
4.8840

> <Gold.Chemscore.Rot>
3.3837

> <Gold.Chemscore.Internal.Correction>
   9.000000E+99

> <Gold.Chemscore.Hbonds>
donor molecule, donor type, donor heavy atom, donor atom, acceptor molecule, acceptor atom, score
      L1  H     1    32       P1  7948  0.97
      L1  H    25    45       P1  7957  0.59
      L1  H    27    46       P1  7957  0.99
      P1  H  7989  7998       L1    25  0.01
      P1  H  7997  8008       L1     8  0.22
      P1  H  8011  8017       L1    25  0.06

> <Gold.Chemscore.Hbond.Weighted>
-11.7109

> <Gold.Chemscore.Metal.Weighted>
-0.0000

> <Gold.Chemscore.Lipo.Weighted>
-12.5356

> <Gold.Chemscore.Internal_Hbond.Weighted>
0.0000

> <Gold.Chemscore.DEClash.Weighted>
0.3533

> <Gold.Chemscore.DEInternal.Weighted>
4.8840

> <Gold.Chemscore.Rot.Weighted>
8.6622

> <Gold.Chemscore.Internal.Correction.Weighted>
   9.000000E+99

> <Gold.Protein.RotatedTorsions>
[ 6907 6896 6895 6894 ] final   44.68 input  -60.11 | X-H torsion
[ 7974 7965 7964 7962 ] final   16.94 input  175.53 | X-H torsion
[ 8008 7997 7996 7995 ] final  -87.07 input   59.86 | X-H torsion
[ 10167 10162 10161 10158 ] final -106.47 input  -65.29 | X-H torsion
[ 10718 10713 10712 10709 ] final   60.98 input   66.30 | X-H torsion
[ 10763 10752 10751 10750 ] final   -8.30 input  -60.55 | X-H torsion
[ 11005 11000 10999 10996 ] final   -1.21 input  -57.11 | X-H torsion

> <Gold.Protein.ActiveResidues>
 VAL166  LYS551  ARG553  GLY616  TRP617  ASP618  TYR619  PRO620  LYS621  CYS622 
 ASP623  PHE694  ASN695  SER759  ASP760  ASP761  ALA762  ILE779  LEU786  VAL792 
 PHE793  MET794  SER795  GLU796  ALA797  LYS798  CYS799  TRP800  GLU811  SER814 

> <Gold.Protein.RotatedAtoms>
  152.2354  134.8281  160.0467 H   0  0  0  0  0  0  0  0  0  0  0  0  # atno 6907 bound_to 6896
  151.9014  133.3534  159.3840 H   0  0  0  0  0  0  0  0  0  0  0  0  # atno 6908 bound_to 6896
  150.7038  134.4750  159.5487 H   0  0  0  0  0  0  0  0  0  0  0  0  # atno 6909 bound_to 6896
  146.2234  139.8675  142.8593 H   0  0  0  0  0  0  0  0  0  0  0  0  # atno 7974 bound_to 7965
  154.6590  140.0570  157.0041 H   0  0  0  0  0  0  0  0  0  0  0  0  # atno 8008 bound_to 7997
  155.1256  140.3251  155.4468 H   0  0  0  0  0  0  0  0  0  0  0  0  # atno 8009 bound_to 7997
  156.2610  140.1990  156.6377 H   0  0  0  0  0  0  0  0  0  0  0  0  # atno 8010 bound_to 7997
  140.1874  143.3918  152.1233 H   0  0  0  0  0  0  0  0  0  0  0  0  # atno 10167 bound_to 10162
  157.5793  130.8969  149.9403 H   0  0  0  0  0  0  0  0  0  0  0  0  # atno 10718 bound_to 10713
  153.4385  135.7013  153.6184 H   0  0  0  0  0  0  0  0  0  0  0  0  # atno 10763 bound_to 10752
  153.4569  135.3745  155.2316 H   0  0  0  0  0  0  0  0  0  0  0  0  # atno 10764 bound_to 10752
  154.8727  135.4010  154.3780 H   0  0  0  0  0  0  0  0  0  0  0  0  # atno 10765 bound_to 10752
  140.6448  133.9457  155.8346 H   0  0  0  0  0  0  0  0  0  0  0  0  # atno 11005 bound_to 11000
  145.2642  141.0087  143.3809 LP  0  0  0  0  0  0  0  0  0  0  0  0  # atno 17320 bound_to 7965
  144.9274  139.4338  143.6511 LP  0  0  0  0  0  0  0  0  0  0  0  0  # atno 17321 bound_to 7965
  139.5270  144.7114  151.5193 LP  0  0  0  0  0  0  0  0  0  0  0  0  # atno 17342 bound_to 10162
  140.6479  143.8757  150.6755 LP  0  0  0  0  0  0  0  0  0  0  0  0  # atno 17343 bound_to 10162
  156.0839  130.3670  150.0526 LP  0  0  0  0  0  0  0  0  0  0  0  0  # atno 17370 bound_to 10713
  156.8668  130.9510  151.3613 LP  0  0  0  0  0  0  0  0  0  0  0  0  # atno 17371 bound_to 10713
  141.0580  134.0388  157.3697 LP  0  0  0  0  0  0  0  0  0  0  0  0  # atno 17394 bound_to 11000
  139.9067  135.0181  156.7515 LP  0  0  0  0  0  0  0  0  0  0  0  0  # atno 17395 bound_to 11000

$$$$
