AV-unprocessed.smi:2424|AV-procd|sdf|9567|dock7
  -GOLD-   2272013193D 1   1.00000     0.00000
 Structure written by MMmdl.
 49 50  0  0  0  0  0  0  0  0  2 V2000
  147.2557  139.7723  153.5164 C   0  0  0  0  0  0  0  0  0  0  0  0
  148.5353  139.1394  154.0867 C   0  0  0  0  0  0  0  0  0  0  0  0
  148.3646  138.4260  155.4541 C   0  0  0  0  0  0  0  0  0  0  0  0
  147.9161  139.4730  156.5037 C   0  0  0  0  0  0  0  0  0  0  0  0
  148.7756  140.7466  156.5733 C   0  0  0  0  0  0  0  0  0  0  0  0
  147.5327  137.1099  155.4851 C   0  0  1  0  0  0  0  0  0  0  0  0
  147.4917  136.4122  154.1982 N   0  0  0  0  0  0  0  0  0  0  0  0
  146.5178  135.5896  153.7888 C   0  0  0  0  0  0  0  0  0  0  0  0
  145.5362  135.3073  154.4755 O   0  0  0  0  0  0  0  0  0  0  0  0
  146.7670  135.1432  152.5454 N   0  0  0  0  0  0  0  0  0  0  0  0
  146.0117  134.2592  151.7648 C   0  0  0  0  0  0  0  0  0  0  0  0
  144.6415  134.1930  151.9163 C   0  0  0  0  0  0  0  0  0  0  0  0
  143.7534  133.4124  151.2638 N   0  5  0  0  0  0  0  0  0  0  0  0
  144.2272  132.5560  150.3140 C   0  0  0  0  0  0  0  0  0  0  0  0
  143.4788  131.8099  149.6837 O   0  0  0  0  0  0  0  0  0  0  0  0
  145.6780  132.5295  150.0390 C   0  0  0  0  0  0  0  0  0  0  0  0
  146.2012  131.5848  148.9707 C   0  0  0  0  0  0  0  0  0  0  0  0
  146.5080  133.3439  150.7376 C   0  0  0  0  0  0  0  0  0  0  0  0
  148.5734  136.4952  156.4366 C   0  0  1  0  0  0  0  0  0  0  0  0
  148.9092  135.0060  156.3871 C   0  0  0  0  0  0  0  0  0  0  0  0
  149.5639  137.5576  155.9242 C   0  0  1  0  0  0  0  0  0  0  0  0
  150.3482  137.0926  154.8306 O   0  0  0  0  0  0  0  0  0  0  0  0
  151.3813  137.9909  154.4636 C   0  0  0  0  0  0  0  0  0  0  0  0
  147.4859  140.3595  152.6271 H   0  0  0  0  0  0  0  0  0  0  0  0
  146.7858  140.4403  154.2384 H   0  0  0  0  0  0  0  0  0  0  0  0
  146.5240  139.0208  153.2216 H   0  0  0  0  0  0  0  0  0  0  0  0
  148.9681  138.4645  153.3491 H   0  0  0  0  0  0  0  0  0  0  0  0
  149.2639  139.9458  154.1674 H   0  0  0  0  0  0  0  0  0  0  0  0
  146.8945  139.7893  156.2938 H   0  0  0  0  0  0  0  0  0  0  0  0
  147.8561  139.0264  157.4957 H   0  0  0  0  0  0  0  0  0  0  0  0
  148.3199  141.4766  157.2426 H   0  0  0  0  0  0  0  0  0  0  0  0
  148.8789  141.2178  155.5963 H   0  0  0  0  0  0  0  0  0  0  0  0
  149.7745  140.5428  156.9578 H   0  0  0  0  0  0  0  0  0  0  0  0
  146.5584  137.2210  155.9631 H   0  0  0  0  0  0  0  0  0  0  0  0
  148.2615  136.5848  153.5681 H   0  0  0  0  0  0  0  0  0  0  0  0
  147.6058  135.4886  152.1023 H   0  0  0  0  0  0  0  0  0  0  0  0
  144.1923  134.8642  152.6800 H   0  0  0  0  0  0  0  0  0  0  0  0
  147.2818  131.6736  148.8554 H   0  0  0  0  0  0  0  0  0  0  0  0
  145.7410  131.8062  148.0074 H   0  0  0  0  0  0  0  0  0  0  0  0
  145.9740  130.5509  149.2322 H   0  0  0  0  0  0  0  0  0  0  0  0
  147.5593  133.3022  150.5041 H   0  0  0  0  0  0  0  0  0  0  0  0
  148.2899  136.7588  157.4568 H   0  0  0  0  0  0  0  0  0  0  0  0
  149.2739  134.7003  155.4063 H   0  0  0  0  0  0  0  0  0  0  0  0
  148.0313  134.4002  156.6123 H   0  0  0  0  0  0  0  0  0  0  0  0
  149.6777  134.7522  157.1169 H   0  0  0  0  0  0  0  0  0  0  0  0
  150.1542  138.0377  156.7073 H   0  0  0  0  0  0  0  0  0  0  0  0
  151.9697  137.5589  153.6545 H   0  0  0  0  0  0  0  0  0  0  0  0
  152.0534  138.1948  155.2971 H   0  0  0  0  0  0  0  0  0  0  0  0
  150.9678  138.9363  154.1103 H   0  0  0  0  0  0  0  0  0  0  0  0
  1  2  1  0  0  0  0
  1 24  1  0  0  0  0
  1 25  1  0  0  0  0
  1 26  1  0  0  0  0
  2  3  1  0  0  0  0
  2 27  1  0  0  0  0
  2 28  1  0  0  0  0
  3 21  1  0  0  0  0
  3  4  1  0  0  0  0
  3  6  1  0  0  0  0
  4  5  1  0  0  0  0
  4 29  1  0  0  0  0
  4 30  1  0  0  0  0
  5 31  1  0  0  0  0
  5 32  1  0  0  0  0
  5 33  1  0  0  0  0
  6  7  1  0  0  0  0
  6 19  1  0  0  0  0
  6 34  1  0  0  0  0
  7  8  1  0  0  0  0
  7 35  1  0  0  0  0
  8  9  2  0  0  0  0
  8 10  1  0  0  0  0
 10 11  1  0  0  0  0
 10 36  1  0  0  0  0
 11 18  1  0  0  0  0
 11 12  2  0  0  0  0
 12 13  1  0  0  0  0
 12 37  1  0  0  0  0
 13 14  1  0  0  0  0
 14 15  2  0  0  0  0
 14 16  1  0  0  0  0
 16 17  1  0  0  0  0
 16 18  2  0  0  0  0
 17 38  1  0  0  0  0
 17 39  1  0  0  0  0
 17 40  1  0  0  0  0
 18 41  1  0  0  0  0
 19 20  1  0  0  0  0
 19 21  1  0  0  0  0
 19 42  1  0  0  0  0
 20 43  1  0  0  0  0
 20 44  1  0  0  0  0
 20 45  1  0  0  0  0
 21 22  1  0  0  0  0
 21 46  1  0  0  0  0
 22 23  1  0  0  0  0
 23 47  1  0  0  0  0
 23 48  1  0  0  0  0
 23 49  1  0  0  0  0
M  CHG  1  13  -1
M  END
> <s_m_source_file>
AV-unprocessed.smi

> <i_m_source_file_index>
2424

> <i_lp_mmshare_version>
43012

> <i_f3d_flags>
0

> <s_epik_input>
W0NIM11PW0NAQEhdMVtDQEhdKFtDSDNdKVtDQEBIXShDMShbQ0gyXVtDSDNdKVtDSDJdW0NIM10pW05IXUMoPU8pW05IXWMyW2NIXVtuSF1jKD1PKWMoW0NIM10pW2NIXTI=

> <s_epik_cmdline>
J2VwaWtfcHl0aG9uJywgJy1waCcsICc3LjAnLCAnLXRuJywgJzgnLCAnLW1hJywgJzIwMCcsICctbWV0YWxfYmluZGluZycsICctaW1hZScsICc8aW5maWxlLm1hZT4nLCAnLW9tYWUnLCAnPG91dGZpbGUubWFlPic=

> <r_lp_tautomer_probability>
1

> <r_epik_Ionization_Penalty>
7.6122

> <r_epik_Ionization_Penalty_Charging>
1.53843

> <r_epik_Ionization_Penalty_Neutral>
6.07377

> <r_epik_State_Penalty>
6.07371

> <r_epik_Charging_Adjusted_Penalty>
7.61214

> <i_epik_Tot_Q>
-1

> <i_epik_Tot_abs_Q>
1

> <r_epik_Metal_State_Penalty>
2.02136

> <b_epik_Metal_Only>
1

> <s_lp_Force_Field>
OPLS_2005

> <r_lp_Energy>
42.7103

> <b_lp_Chiralities_Consistent>
1

> <s_lp_Variant>
AV-unprocessed.smi:2424-9

> <Gold.Version>
5.8.1

> <Gold.Id.Protein>
6NUR|6NUR_protein|mol2

> <Gold.PLP.Fitness>
35.5565

> <Gold.PLP.PLP>
-27.7735

> <Gold.PLP.part.hbond>
-2.9523

> <Gold.PLP.part.metal>
0.0000

> <Gold.PLP.part.buried>
-5.0098

> <Gold.PLP.part.nonpolar>
-22.2474

> <Gold.PLP.part.repulsive>
1.2094

> <Gold.PLP.ligand.clash>
0.0000

> <Gold.PLP.ligand.torsion>
0.7924

> <Gold.PLP.Chemscore.Hbond>
2.9120

> <Gold.PLP.Chemscore.CHOScore>
0.0000

> <Gold.PLP.Chemscore.Metal>
0.0000

> <Gold.Chemscore.Hbonds>
donor molecule, donor type, donor heavy atom, donor atom, acceptor molecule, acceptor atom, score
      L1  H     7    35       P1  7948  0.91
      L1  H    10    36       P1  7948  0.99
      P1  H 10785 10796       L1    15  1.00

> <Gold.PLP.Chemscore.Internal.Correction>
0.6318

> <Gold.Rescore>
     Score         DG    S(hbond)    S(metal)    S(lipo)     H(rot)  DE(clash)    DE(int)     intcor
     17.20     -20.05       2.91        0.00      74.74       1.52       0.78       2.07       ----

> <Gold.Chemscore.Fitness>
17.2027

> <Gold.Chemscore.DG>
-20.0476

> <Gold.Chemscore.ZeroCoef>
-5.4800

> <Gold.Chemscore.Hbond>
2.9088

> <Gold.Chemscore.Metal>
0.0000

> <Gold.Chemscore.Lipo>
74.7390

> <Gold.Chemscore.Internal_Hbond>
0.0000

> <Gold.Chemscore.DEClash>
0.7786

> <Gold.Chemscore.DEInternal>
2.0663

> <Gold.Chemscore.Rot>
1.5204

> <Gold.Chemscore.Internal.Correction>
   9.000000E+99

> <Gold.Chemscore.Hbonds>
donor molecule, donor type, donor heavy atom, donor atom, acceptor molecule, acceptor atom, score
      L1  H     7    35       P1  7948  0.88
      L1  H    10    36       P1  7948  0.92
      P1  H 10785 10796       L1    15  0.95

> <Gold.Chemscore.Hbond.Weighted>
-9.7154

> <Gold.Chemscore.Metal.Weighted>
-0.0000

> <Gold.Chemscore.Lipo.Weighted>
-8.7445

> <Gold.Chemscore.Internal_Hbond.Weighted>
0.0000

> <Gold.Chemscore.DEClash.Weighted>
0.7786

> <Gold.Chemscore.DEInternal.Weighted>
2.0663

> <Gold.Chemscore.Rot.Weighted>
3.8922

> <Gold.Chemscore.Internal.Correction.Weighted>
   9.000000E+99

> <Gold.Protein.RotatedTorsions>
[ 6907 6896 6895 6894 ] final  -95.30 input  -60.11 | X-H torsion
[ 7974 7965 7964 7962 ] final -151.43 input  175.53 | X-H torsion
[ 8008 7997 7996 7995 ] final    0.96 input   59.86 | X-H torsion
[ 10167 10162 10161 10158 ] final   -3.38 input  -65.29 | X-H torsion
[ 10718 10713 10712 10709 ] final -149.27 input   66.30 | X-H torsion
[ 10763 10752 10751 10750 ] final  -31.26 input  -60.55 | X-H torsion
[ 11005 11000 10999 10996 ] final -133.12 input  -57.11 | X-H torsion

> <Gold.Protein.ActiveResidues>
 VAL166  LYS551  ARG553  GLY616  TRP617  ASP618  TYR619  PRO620  LYS621  CYS622 
 ASP623  PHE694  ASN695  SER759  ASP760  ASP761  ALA762  ILE779  LEU786  VAL792 
 PHE793  MET794  SER795  GLU796  ALA797  LYS798  CYS799  TRP800  GLU811  SER814 

> <Gold.Protein.RotatedAtoms>
  150.6961  134.1679  159.4200 H   0  0  0  0  0  0  0  0  0  0  0  0  # atno 6907 bound_to 6896
  151.9657  135.0099  160.0559 H   0  0  0  0  0  0  0  0  0  0  0  0  # atno 6908 bound_to 6896
  152.1886  133.4722  159.5033 H   0  0  0  0  0  0  0  0  0  0  0  0  # atno 6909 bound_to 6896
  144.7850  140.4799  143.5812 H   0  0  0  0  0  0  0  0  0  0  0  0  # atno 7974 bound_to 7965
  154.6741  140.2618  155.6976 H   0  0  0  0  0  0  0  0  0  0  0  0  # atno 8008 bound_to 7997
  156.2671  140.2823  156.1183 H   0  0  0  0  0  0  0  0  0  0  0  0  # atno 8009 bound_to 7997
  155.1126  140.0376  157.2718 H   0  0  0  0  0  0  0  0  0  0  0  0  # atno 8010 bound_to 7997
  140.6888  143.6547  150.8319 H   0  0  0  0  0  0  0  0  0  0  0  0  # atno 10167 bound_to 10162
  156.4310  130.8075  151.2302 H   0  0  0  0  0  0  0  0  0  0  0  0  # atno 10718 bound_to 10713
  153.7945  135.6895  153.4866 H   0  0  0  0  0  0  0  0  0  0  0  0  # atno 10763 bound_to 10752
  153.1728  135.4536  154.9924 H   0  0  0  0  0  0  0  0  0  0  0  0  # atno 10764 bound_to 10752
  154.8031  135.3346  154.7438 H   0  0  0  0  0  0  0  0  0  0  0  0  # atno 10765 bound_to 10752
  140.9109  134.1569  157.4390 H   0  0  0  0  0  0  0  0  0  0  0  0  # atno 11005 bound_to 11000
  145.5946  139.1498  143.3163 LP  0  0  0  0  0  0  0  0  0  0  0  0  # atno 17320 bound_to 7965
  146.2078  140.6070  142.9073 LP  0  0  0  0  0  0  0  0  0  0  0  0  # atno 17321 bound_to 7965
  140.0257  143.5496  152.2781 LP  0  0  0  0  0  0  0  0  0  0  0  0  # atno 17342 bound_to 10162
  139.6270  144.7638  151.2617 LP  0  0  0  0  0  0  0  0  0  0  0  0  # atno 17343 bound_to 10162
  157.7508  131.0198  150.3683 LP  0  0  0  0  0  0  0  0  0  0  0  0  # atno 17370 bound_to 10713
  156.4020  130.3917  149.6952 LP  0  0  0  0  0  0  0  0  0  0  0  0  # atno 17371 bound_to 10713
  139.8757  134.9935  156.5648 LP  0  0  0  0  0  0  0  0  0  0  0  0  # atno 17394 bound_to 11000
  140.8112  133.8428  155.8811 LP  0  0  0  0  0  0  0  0  0  0  0  0  # atno 17395 bound_to 11000

$$$$
