AV-unprocessed.smi:3161|AV-procd|sdf|12062|dock10
  -GOLD-   2272017493D 1   1.00000     0.00000
 Structure written by MMmdl.
 40 41  0  0  0  0  0  0  0  0  1 V2000
  146.8740  140.8749  153.6820 C   0  0  0  0  0  0  0  0  0  0  0  0
  148.2608  140.5275  154.1411 C   0  0  0  0  0  0  0  0  0  0  0  0
  149.2935  141.4152  154.5564 C   0  0  0  0  0  0  0  0  0  0  0  0
  150.4039  140.7864  154.9036 N   0  0  0  0  0  0  0  0  0  0  0  0
  150.1256  139.4785  154.7155 N   0  0  0  0  0  0  0  0  0  0  0  0
  151.1364  138.4731  155.0034 C   0  0  0  0  0  0  0  0  0  0  0  0
  151.8514  138.6709  156.3647 C   0  0  1  0  0  0  0  0  0  0  0  0
  153.1532  137.8608  156.4663 C   0  0  0  0  0  0  0  0  0  0  0  0
  152.1314  140.0781  156.6709 N   0  0  0  0  0  0  0  0  0  0  0  0
  151.3647  140.6488  157.7771 C   0  0  0  0  0  0  0  0  0  0  0  0
  152.0420  141.9170  158.3148 C   0  0  1  0  0  0  0  0  0  0  0  0
  151.5436  143.1789  157.5841 C   0  0  0  0  0  0  0  0  0  0  0  0
  152.1586  144.4399  158.2021 C   0  0  0  0  0  0  0  0  0  0  0  0
  151.9033  144.4506  159.7127 C   0  0  0  0  0  0  0  0  0  0  0  0
  152.3709  143.1287  160.3416 C   0  0  0  0  0  0  0  0  0  0  0  0
  151.7249  142.0330  159.7011 O   0  0  0  0  0  0  0  0  0  0  0  0
  148.8362  139.2943  154.2620 C   0  0  0  0  0  0  0  0  0  0  0  0
  146.7014  141.9513  153.6901 H   0  0  0  0  0  0  0  0  0  0  0  0
  146.1144  140.4234  154.3204 H   0  0  0  0  0  0  0  0  0  0  0  0
  146.6885  140.5281  152.6652 H   0  0  0  0  0  0  0  0  0  0  0  0
  149.2677  142.4933  154.6171 H   0  0  0  0  0  0  0  0  0  0  0  0
  150.6852  137.4838  154.9269 H   0  0  0  0  0  0  0  0  0  0  0  0
  151.8772  138.5129  154.2039 H   0  0  0  0  0  0  0  0  0  0  0  0
  151.1816  138.2847  157.1340 H   0  0  0  0  0  0  0  0  0  0  0  0
  152.9774  136.8072  156.2480 H   0  0  0  0  0  0  0  0  0  0  0  0
  153.5735  137.9214  157.4706 H   0  0  0  0  0  0  0  0  0  0  0  0
  153.9109  138.2243  155.7713 H   0  0  0  0  0  0  0  0  0  0  0  0
  153.1229  140.1952  156.8549 H   0  0  0  0  0  0  0  0  0  0  0  0
  150.3616  140.9055  157.4379 H   0  0  0  0  0  0  0  0  0  0  0  0
  151.2503  139.9213  158.5817 H   0  0  0  0  0  0  0  0  0  0  0  0
  153.1234  141.8322  158.1886 H   0  0  0  0  0  0  0  0  0  0  0  0
  151.7928  143.1253  156.5238 H   0  0  0  0  0  0  0  0  0  0  0  0
  150.4561  143.2352  157.6469 H   0  0  0  0  0  0  0  0  0  0  0  0
  153.2323  144.4574  158.0108 H   0  0  0  0  0  0  0  0  0  0  0  0
  151.7415  145.3342  157.7385 H   0  0  0  0  0  0  0  0  0  0  0  0
  152.4158  145.2935  160.1771 H   0  0  0  0  0  0  0  0  0  0  0  0
  150.8380  144.5872  159.9029 H   0  0  0  0  0  0  0  0  0  0  0  0
  153.4540  143.0217  160.2657 H   0  0  0  0  0  0  0  0  0  0  0  0
  152.1230  143.1109  161.4030 H   0  0  0  0  0  0  0  0  0  0  0  0
  148.4403  138.3096  154.0610 H   0  0  0  0  0  0  0  0  0  0  0  0
  1  2  1  0  0  0  0
  1 18  1  0  0  0  0
  1 19  1  0  0  0  0
  1 20  1  0  0  0  0
  2 17  2  0  0  0  0
  2  3  1  0  0  0  0
  3  4  2  0  0  0  0
  3 21  1  0  0  0  0
  4  5  1  0  0  0  0
  5  6  1  0  0  0  0
  5 17  1  0  0  0  0
  6  7  1  0  0  0  0
  6 22  1  0  0  0  0
  6 23  1  0  0  0  0
  7  8  1  0  0  0  0
  7  9  1  0  0  0  0
  7 24  1  0  0  0  0
  8 25  1  0  0  0  0
  8 26  1  0  0  0  0
  8 27  1  0  0  0  0
  9 10  1  0  0  0  0
  9 28  1  0  0  0  0
 10 11  1  0  0  0  0
 10 29  1  0  0  0  0
 10 30  1  0  0  0  0
 11 16  1  0  0  0  0
 11 12  1  0  0  0  0
 11 31  1  0  0  0  0
 12 13  1  0  0  0  0
 12 32  1  0  0  0  0
 12 33  1  0  0  0  0
 13 14  1  0  0  0  0
 13 34  1  0  0  0  0
 13 35  1  0  0  0  0
 14 15  1  0  0  0  0
 14 36  1  0  0  0  0
 14 37  1  0  0  0  0
 15 16  1  0  0  0  0
 15 38  1  0  0  0  0
 15 39  1  0  0  0  0
 17 40  1  0  0  0  0
M  END
> <s_m_source_file>
AV-unprocessed.smi

> <i_m_source_file_index>
3161

> <i_lp_mmshare_version>
43012

> <i_f3d_flags>
0

> <s_epik_input>
W0NIM11jMVtjSF1ubihbY0hdMSlbQ0gyXVtDQEhdKFtDSDNdKVtOSF1bQ0gyXVtDQEBIXTJbQ0gyXVtDSDJdW0NIMl1bQ0gyXU8y

> <s_epik_cmdline>
J2VwaWtfcHl0aG9uJywgJy1waCcsICc3LjAnLCAnLXRuJywgJzgnLCAnLW1hJywgJzIwMCcsICctbWV0YWxfYmluZGluZycsICctaW1hZScsICc8aW5maWxlLm1hZT4nLCAnLW9tYWUnLCAnPG91dGZpbGUubWFlPic=

> <r_lp_tautomer_probability>
1

> <r_epik_Ionization_Penalty>
2.51986

> <r_epik_Ionization_Penalty_Charging>
0

> <r_epik_Ionization_Penalty_Neutral>
2.51986

> <r_epik_State_Penalty>
2.68614

> <r_epik_Charging_Adjusted_Penalty>
2.68614

> <i_epik_Tot_Q>
0

> <i_epik_Tot_abs_Q>
0

> <r_epik_Metal_State_Penalty>
2.68606

> <b_epik_Metal_Only>
0

> <s_lp_Force_Field>
OPLS_2005

> <r_lp_Energy>
14.0123

> <b_lp_Chiralities_Consistent>
1

> <s_lp_Variant>
AV-unprocessed.smi:3161-8

> <Gold.Version>
5.8.1

> <Gold.Id.Protein>
6NUR|6NUR_protein|mol2

> <Gold.PLP.Fitness>
40.3627

> <Gold.PLP.PLP>
-38.1382

> <Gold.PLP.part.hbond>
-1.5354

> <Gold.PLP.part.metal>
0.0000

> <Gold.PLP.part.buried>
-3.2940

> <Gold.PLP.part.nonpolar>
-33.2927

> <Gold.PLP.part.repulsive>
0.0942

> <Gold.PLP.ligand.clash>
0.0000

> <Gold.PLP.ligand.torsion>
1.4950

> <Gold.PLP.Chemscore.Hbond>
0.7208

> <Gold.PLP.Chemscore.CHOScore>
1.0000

> <Gold.PLP.Chemscore.Metal>
0.0000

> <Gold.Chemscore.Hbonds>
donor molecule, donor type, donor heavy atom, donor atom, acceptor molecule, acceptor atom, score
      P1  H  7989  7998       L1     4  0.62
      L1  C     3    21       P1  8028  1.00

> <Gold.PLP.Chemscore.Internal.Correction>
0.0521

> <Gold.Rescore>
     Score         DG    S(hbond)    S(metal)    S(lipo)     H(rot)  DE(clash)    DE(int)     intcor
     15.23     -16.76       0.82        0.00     105.95       1.50       0.16       1.37       ----

> <Gold.Chemscore.Fitness>
15.2296

> <Gold.Chemscore.DG>
-16.7566

> <Gold.Chemscore.ZeroCoef>
-5.4800

> <Gold.Chemscore.Hbond>
0.8169

> <Gold.Chemscore.Metal>
0.0000

> <Gold.Chemscore.Lipo>
105.9479

> <Gold.Chemscore.Internal_Hbond>
0.0000

> <Gold.Chemscore.DEClash>
0.1593

> <Gold.Chemscore.DEInternal>
1.3678

> <Gold.Chemscore.Rot>
1.5030

> <Gold.Chemscore.Internal.Correction>
   9.000000E+99

> <Gold.Chemscore.Hbonds>
donor molecule, donor type, donor heavy atom, donor atom, acceptor molecule, acceptor atom, score
      P1  H  7989  7998       L1     4  0.05

> <Gold.Chemscore.Hbond.Weighted>
-2.7284

> <Gold.Chemscore.Metal.Weighted>
-0.0000

> <Gold.Chemscore.Lipo.Weighted>
-12.3959

> <Gold.Chemscore.Internal_Hbond.Weighted>
0.0000

> <Gold.Chemscore.DEClash.Weighted>
0.1593

> <Gold.Chemscore.DEInternal.Weighted>
1.3678

> <Gold.Chemscore.Rot.Weighted>
3.8477

> <Gold.Chemscore.Internal.Correction.Weighted>
   9.000000E+99

> <Gold.Protein.RotatedTorsions>
[ 6907 6896 6895 6894 ] final  118.30 input  -60.11 | X-H torsion
[ 7974 7965 7964 7962 ] final  140.83 input  175.53 | X-H torsion
[ 8008 7997 7996 7995 ] final  143.70 input   59.86 | X-H torsion
[ 10167 10162 10161 10158 ] final  -84.14 input  -65.29 | X-H torsion
[ 10718 10713 10712 10709 ] final -172.01 input   66.30 | X-H torsion
[ 10763 10752 10751 10750 ] final  -97.52 input  -60.55 | X-H torsion
[ 11005 11000 10999 10996 ] final  -10.40 input  -57.11 | X-H torsion

> <Gold.Protein.ActiveResidues>
 VAL166  LYS551  ARG553  GLY616  TRP617  ASP618  TYR619  PRO620  LYS621  CYS622 
 ASP623  PHE694  ASN695  SER759  ASP760  ASP761  ALA762  ILE779  LEU786  VAL792 
 PHE793  MET794  SER795  GLU796  ALA797  LYS798  CYS799  TRP800  GLU811  SER814 

> <Gold.Protein.RotatedAtoms>
  152.4553  133.7710  159.6798 H   0  0  0  0  0  0  0  0  0  0  0  0  # atno 6907 bound_to 6896
  150.8477  133.7826  159.3043 H   0  0  0  0  0  0  0  0  0  0  0  0  # atno 6908 bound_to 6896
  151.5431  135.1071  159.9983 H   0  0  0  0  0  0  0  0  0  0  0  0  # atno 6909 bound_to 6896
  144.9151  139.5241  143.5690 H   0  0  0  0  0  0  0  0  0  0  0  0  # atno 7974 bound_to 7965
  156.2924  140.2255  156.4933 H   0  0  0  0  0  0  0  0  0  0  0  0  # atno 8008 bound_to 7997
  154.7752  140.0464  157.1105 H   0  0  0  0  0  0  0  0  0  0  0  0  # atno 8009 bound_to 7997
  154.9825  140.3080  155.4943 H   0  0  0  0  0  0  0  0  0  0  0  0  # atno 8010 bound_to 7997
  140.4160  143.2603  151.8953 H   0  0  0  0  0  0  0  0  0  0  0  0  # atno 10167 bound_to 10162
  156.7493  130.9372  151.3114 H   0  0  0  0  0  0  0  0  0  0  0  0  # atno 10718 bound_to 10713
  154.7335  135.5043  153.9002 H   0  0  0  0  0  0  0  0  0  0  0  0  # atno 10763 bound_to 10752
  153.0972  135.6675  153.9749 H   0  0  0  0  0  0  0  0  0  0  0  0  # atno 10764 bound_to 10752
  153.9544  135.3054  155.3416 H   0  0  0  0  0  0  0  0  0  0  0  0  # atno 10765 bound_to 10752
  140.7444  133.8644  155.8993 H   0  0  0  0  0  0  0  0  0  0  0  0  # atno 11005 bound_to 11000
  146.3178  139.7987  142.8970 LP  0  0  0  0  0  0  0  0  0  0  0  0  # atno 17320 bound_to 7965
  145.3389  141.0283  143.3404 LP  0  0  0  0  0  0  0  0  0  0  0  0  # atno 17321 bound_to 7965
  139.4782  144.5487  151.8419 LP  0  0  0  0  0  0  0  0  0  0  0  0  # atno 17342 bound_to 10162
  140.4585  144.1755  150.5904 LP  0  0  0  0  0  0  0  0  0  0  0  0  # atno 17343 bound_to 10162
  157.6784  130.9116  150.0207 LP  0  0  0  0  0  0  0  0  0  0  0  0  # atno 17370 bound_to 10713
  156.1412  130.3642  149.9579 LP  0  0  0  0  0  0  0  0  0  0  0  0  # atno 17371 bound_to 10713
  140.9808  134.1408  157.4496 LP  0  0  0  0  0  0  0  0  0  0  0  0  # atno 17394 bound_to 11000
  139.8800  135.0010  156.6040 LP  0  0  0  0  0  0  0  0  0  0  0  0  # atno 17395 bound_to 11000

$$$$
