AV-unprocessed.smi:2122|AV-procd|sdf|8646|dock9
  -GOLD-   2272011393D 1   1.00000     0.00000
 Structure written by MMmdl.
 41 41  0  0  0  0  0  0  0  0  1 V2000
  151.7902  145.2617  160.5092 C   0  0  0  0  0  0  0  0  0  0  0  0
  151.9232  145.2388  158.9827 C   0  0  0  0  0  0  0  0  0  0  0  0
  152.2734  143.8458  158.4429 C   0  0  0  0  0  0  0  0  0  0  0  0
  151.0934  142.8646  158.5473 C   0  0  0  0  0  0  0  0  0  0  0  0
  151.2623  141.6978  157.7046 N   0  0  0  0  0  0  0  0  0  0  0  0
  150.4566  141.4158  156.5977 C   0  0  0  0  0  0  0  0  0  0  0  0
  149.4428  142.3054  156.2768 N   0  0  0  0  0  0  0  0  0  0  0  0
  150.6575  140.3128  155.8203 C   0  0  0  0  0  0  0  0  0  0  0  0
  149.8606  140.0128  154.7167 N   0  0  0  0  0  0  0  0  0  0  0  0
  150.1273  138.8189  153.9270 C   0  0  0  0  0  0  0  0  0  0  0  0
  148.9367  140.9632  154.0975 C   0  0  0  0  0  0  0  0  0  0  0  0
  147.4734  140.7775  154.5330 C   0  0  0  0  0  0  0  0  0  0  0  0
  146.6421  141.5488  153.6827 O   0  0  0  0  0  0  0  0  0  0  0  0
  146.7259  142.9364  153.9565 C   0  0  0  0  0  0  0  0  0  0  0  0
  151.7382  139.3694  156.1349 C   0  0  0  0  0  0  0  0  0  0  0  0
  151.9919  138.3350  155.5185 O   0  0  0  0  0  0  0  0  0  0  0  0
  152.5206  139.7174  157.2332 N   0  0  0  0  0  0  0  0  0  0  0  0
  152.3437  140.8442  158.0284 C   0  0  0  0  0  0  0  0  0  0  0  0
  153.1186  141.0525  158.9627 O   0  0  0  0  0  0  0  0  0  0  0  0
  153.2839  139.1003  157.4698 H   0  0  0  0  0  0  0  0  0  0  0  0
  151.5446  146.2630  160.8634 H   0  0  0  0  0  0  0  0  0  0  0  0
  152.7201  144.9571  160.9897 H   0  0  0  0  0  0  0  0  0  0  0  0
  151.0024  144.5870  160.8458 H   0  0  0  0  0  0  0  0  0  0  0  0
  150.9888  145.5802  158.5356 H   0  0  0  0  0  0  0  0  0  0  0  0
  152.6899  145.9519  158.6778 H   0  0  0  0  0  0  0  0  0  0  0  0
  152.5863  143.9287  157.4012 H   0  0  0  0  0  0  0  0  0  0  0  0
  153.1299  143.4519  158.9914 H   0  0  0  0  0  0  0  0  0  0  0  0
  150.9327  142.5212  159.5708 H   0  0  0  0  0  0  0  0  0  0  0  0
  150.1550  143.3361  158.2573 H   0  0  0  0  0  0  0  0  0  0  0  0
  149.2813  143.1399  156.8223 H   0  0  0  0  0  0  0  0  0  0  0  0
  148.8290  142.1565  155.4891 H   0  0  0  0  0  0  0  0  0  0  0  0
  150.8857  138.1919  154.3978 H   0  0  0  0  0  0  0  0  0  0  0  0
  150.4850  139.0904  152.9332 H   0  0  0  0  0  0  0  0  0  0  0  0
  149.2208  138.2232  153.8174 H   0  0  0  0  0  0  0  0  0  0  0  0
  149.2654  141.9768  154.3303 H   0  0  0  0  0  0  0  0  0  0  0  0
  148.9965  140.8600  153.0130 H   0  0  0  0  0  0  0  0  0  0  0  0
  147.1952  139.7242  154.4679 H   0  0  0  0  0  0  0  0  0  0  0  0
  147.3328  141.0954  155.5672 H   0  0  0  0  0  0  0  0  0  0  0  0
  146.0725  143.4842  153.2776 H   0  0  0  0  0  0  0  0  0  0  0  0
  147.7425  143.3061  153.8160 H   0  0  0  0  0  0  0  0  0  0  0  0
  146.4108  143.1563  154.9774 H   0  0  0  0  0  0  0  0  0  0  0  0
  1  2  1  0  0  0  0
  1 21  1  0  0  0  0
  1 22  1  0  0  0  0
  1 23  1  0  0  0  0
  2  3  1  0  0  0  0
  2 24  1  0  0  0  0
  2 25  1  0  0  0  0
  3  4  1  0  0  0  0
  3 26  1  0  0  0  0
  3 27  1  0  0  0  0
  4  5  1  0  0  0  0
  4 28  1  0  0  0  0
  4 29  1  0  0  0  0
  5 18  1  0  0  0  0
  5  6  1  0  0  0  0
  6  7  1  0  0  0  0
  6  8  2  0  0  0  0
  7 30  1  0  0  0  0
  7 31  1  0  0  0  0
  8  9  1  0  0  0  0
  8 15  1  0  0  0  0
  9 10  1  0  0  0  0
  9 11  1  0  0  0  0
 10 32  1  0  0  0  0
 10 33  1  0  0  0  0
 10 34  1  0  0  0  0
 11 12  1  0  0  0  0
 11 35  1  0  0  0  0
 11 36  1  0  0  0  0
 12 13  1  0  0  0  0
 12 37  1  0  0  0  0
 12 38  1  0  0  0  0
 13 14  1  0  0  0  0
 14 39  1  0  0  0  0
 14 40  1  0  0  0  0
 14 41  1  0  0  0  0
 15 16  2  0  0  0  0
 15 17  1  0  0  0  0
 17 20  1  0  0  0  0
 17 18  1  0  0  0  0
 18 19  2  0  0  0  0
M  END
> <s_m_source_file>
AV-unprocessed.smi

> <i_m_source_file_index>
2122

> <i_lp_mmshare_version>
43012

> <i_f3d_flags>
0

> <s_epik_input>
W0NIM11bQ0gyXVtDSDJdW0NIMl1uMWMoW05IMl0pYyhjKD1PKVtuSF1jMT1PKU4oW0NIM10pW0NIMl1bQ0gyXU9bQ0gzXQ==

> <s_epik_cmdline>
J2VwaWtfcHl0aG9uJywgJy1waCcsICc3LjAnLCAnLXRuJywgJzgnLCAnLW1hJywgJzIwMCcsICctbWV0YWxfYmluZGluZycsICctaW1hZScsICc8aW5maWxlLm1hZT4nLCAnLW9tYWUnLCAnPG91dGZpbGUubWFlPic=

> <r_lp_tautomer_probability>
1

> <r_epik_Ionization_Penalty>
2.26322e-05

> <r_epik_Ionization_Penalty_Charging>
2.75876e-06

> <r_epik_Ionization_Penalty_Neutral>
1.98734e-05

> <r_epik_State_Penalty>
-0

> <r_epik_Charging_Adjusted_Penalty>
2.75876e-06

> <i_epik_Tot_Q>
0

> <i_epik_Tot_abs_Q>
0

> <r_epik_Metal_State_Penalty>
-0

> <b_epik_Metal_Only>
0

> <s_epik_Chemistry_Notes>
This compound has an imine and may undergo hydrolysis.

> <s_lp_Force_Field>
OPLS_2005

> <r_lp_Energy>
20.5532

> <b_lp_Chiralities_Consistent>
1

> <s_lp_Variant>
AV-unprocessed.smi:2122-1

> <Gold.Version>
5.8.1

> <Gold.Id.Protein>
6NUR|6NUR_protein|mol2

> <Gold.PLP.Fitness>
38.8007

> <Gold.PLP.PLP>
-39.5294

> <Gold.PLP.part.hbond>
-1.0000

> <Gold.PLP.part.metal>
0.0000

> <Gold.PLP.part.buried>
-3.8190

> <Gold.PLP.part.nonpolar>
-34.8061

> <Gold.PLP.part.repulsive>
1.1351

> <Gold.PLP.ligand.clash>
20.9011

> <Gold.PLP.ligand.torsion>
0.5874

> <Gold.PLP.Chemscore.Hbond>
0.3040

> <Gold.PLP.Chemscore.CHOScore>
0.0000

> <Gold.PLP.Chemscore.Metal>
0.0000

> <Gold.Chemscore.Hbonds>
donor molecule, donor type, donor heavy atom, donor atom, acceptor molecule, acceptor atom, score
      L1  H     7    30       P1  8028  0.26

> <Gold.PLP.Chemscore.Internal.Correction>
20.4353

> <Gold.Rescore>
     Score         DG    S(hbond)    S(metal)    S(lipo)     H(rot)  DE(clash)    DE(int)     intcor
      6.21     -10.54       0.29        0.00      82.20       2.16       0.33       4.00       ----

> <Gold.Chemscore.Fitness>
6.2120

> <Gold.Chemscore.DG>
-10.5370

> <Gold.Chemscore.ZeroCoef>
-5.4800

> <Gold.Chemscore.Hbond>
0.2884

> <Gold.Chemscore.Metal>
0.0000

> <Gold.Chemscore.Lipo>
82.2049

> <Gold.Chemscore.Internal_Hbond>
0.0000

> <Gold.Chemscore.DEClash>
0.3287

> <Gold.Chemscore.DEInternal>
3.9963

> <Gold.Chemscore.Rot>
2.1579

> <Gold.Chemscore.Internal.Correction>
   9.000000E+99

> <Gold.Chemscore.Hbonds>
donor molecule, donor type, donor heavy atom, donor atom, acceptor molecule, acceptor atom, score
      L1  H     7    30       P1  8028  0.23

> <Gold.Chemscore.Hbond.Weighted>
-0.9632

> <Gold.Chemscore.Metal.Weighted>
-0.0000

> <Gold.Chemscore.Lipo.Weighted>
-9.6180

> <Gold.Chemscore.Internal_Hbond.Weighted>
0.0000

> <Gold.Chemscore.DEClash.Weighted>
0.3287

> <Gold.Chemscore.DEInternal.Weighted>
3.9963

> <Gold.Chemscore.Rot.Weighted>
5.5241

> <Gold.Chemscore.Internal.Correction.Weighted>
   9.000000E+99

> <Gold.Protein.RotatedTorsions>
[ 6907 6896 6895 6894 ] final  170.62 input  -60.11 | X-H torsion
[ 7974 7965 7964 7962 ] final -164.44 input  175.53 | X-H torsion
[ 8008 7997 7996 7995 ] final  147.66 input   59.86 | X-H torsion
[ 10167 10162 10161 10158 ] final  -30.65 input  -65.29 | X-H torsion
[ 10718 10713 10712 10709 ] final -177.14 input   66.30 | X-H torsion
[ 10763 10752 10751 10750 ] final -133.87 input  -60.55 | X-H torsion
[ 11005 11000 10999 10996 ] final  -64.92 input  -57.11 | X-H torsion

> <Gold.Protein.ActiveResidues>
 VAL166  LYS551  ARG553  GLY616  TRP617  ASP618  TYR619  PRO620  LYS621  CYS622 
 ASP623  PHE694  ASN695  SER759  ASP760  ASP761  ALA762  ILE779  LEU786  VAL792 
 PHE793  MET794  SER795  GLU796  ALA797  LYS798  CYS799  TRP800  GLU811  SER814 

> <Gold.Protein.RotatedAtoms>
  151.8131  133.3384  159.3561 H   0  0  0  0  0  0  0  0  0  0  0  0  # atno 6907 bound_to 6896
  150.7319  134.5645  159.5868 H   0  0  0  0  0  0  0  0  0  0  0  0  # atno 6908 bound_to 6896
  152.3060  134.7555  160.0398 H   0  0  0  0  0  0  0  0  0  0  0  0  # atno 6909 bound_to 6896
  144.7297  140.2961  143.6212 H   0  0  0  0  0  0  0  0  0  0  0  0  # atno 7974 bound_to 7965
  156.2817  140.2149  156.5573 H   0  0  0  0  0  0  0  0  0  0  0  0  # atno 8008 bound_to 7997
  154.7242  140.0501  157.0690 H   0  0  0  0  0  0  0  0  0  0  0  0  # atno 8009 bound_to 7997
  155.0439  140.3148  155.4718 H   0  0  0  0  0  0  0  0  0  0  0  0  # atno 8010 bound_to 7997
  140.7246  143.3832  151.1562 H   0  0  0  0  0  0  0  0  0  0  0  0  # atno 10167 bound_to 10162
  156.8250  130.9633  151.3110 H   0  0  0  0  0  0  0  0  0  0  0  0  # atno 10718 bound_to 10713
  154.8727  135.3752  154.4643 H   0  0  0  0  0  0  0  0  0  0  0  0  # atno 10763 bound_to 10752
  153.5309  135.7028  153.5689 H   0  0  0  0  0  0  0  0  0  0  0  0  # atno 10764 bound_to 10752
  153.3894  135.3976  155.1877 H   0  0  0  0  0  0  0  0  0  0  0  0  # atno 10765 bound_to 10752
  141.1439  133.6673  156.5908 H   0  0  0  0  0  0  0  0  0  0  0  0  # atno 11005 bound_to 11000
  145.7807  139.1890  143.2159 LP  0  0  0  0  0  0  0  0  0  0  0  0  # atno 17320 bound_to 7965
  146.0836  140.7736  142.9629 LP  0  0  0  0  0  0  0  0  0  0  0  0  # atno 17321 bound_to 7965
  139.7425  143.8903  152.3054 LP  0  0  0  0  0  0  0  0  0  0  0  0  # atno 17342 bound_to 10162
  139.8729  144.7059  150.8967 LP  0  0  0  0  0  0  0  0  0  0  0  0  # atno 17343 bound_to 10162
  157.6437  130.8826  149.9496 LP  0  0  0  0  0  0  0  0  0  0  0  0  # atno 17370 bound_to 10713
  156.0967  130.3659  150.0294 LP  0  0  0  0  0  0  0  0  0  0  0  0  # atno 17371 bound_to 10713
  140.3765  134.7561  157.4633 LP  0  0  0  0  0  0  0  0  0  0  0  0  # atno 17394 bound_to 11000
  140.0670  134.5915  155.8684 LP  0  0  0  0  0  0  0  0  0  0  0  0  # atno 17395 bound_to 11000

$$$$
