AV-unprocessed.smi:3330|AV-procd|sdf|12806|dock8
  -GOLD-   2272019173D 1   1.00000     0.00000
 Structure written by MMmdl.
 38 39  0  0  0  0  0  0  0  0  1 V2000
  149.8214  141.7822  158.1405 C   0  0  0  0  0  0  0  0  0  0  0  0
  150.9439  141.0118  158.8698 C   0  0  1  0  0  0  0  0  0  0  0  0
  151.2295  139.7865  158.1309 N   0  0  0  0  0  0  0  0  0  0  0  0
  151.6808  140.0592  156.7732 C   0  0  0  0  0  0  0  0  0  0  0  0
  152.3980  138.8265  156.1946 C   0  0  0  0  0  0  0  0  0  0  0  0
  151.4565  137.8745  155.5937 N   0  0  0  0  0  0  0  0  0  0  0  0
  151.4400  136.5600  155.8526 C   0  0  0  0  0  0  0  0  0  0  0  0
  152.1711  135.9371  156.6220 O   0  0  0  0  0  0  0  0  0  0  0  0
  150.3480  135.9213  155.0223 C   0  0  0  0  0  0  0  0  0  0  0  0
  149.8533  137.0975  154.3400 N   0  0  0  0  0  0  0  0  0  0  0  0
  150.5162  138.2075  154.6901 C   0  0  0  0  0  0  0  0  0  0  0  0
  150.2928  139.3338  154.2487 O   0  0  0  0  0  0  0  0  0  0  0  0
  152.2620  141.8222  158.9970 C   0  0  2  0  0  0  0  0  0  0  0  0
  153.2686  141.1631  159.9607 C   0  0  0  0  0  0  0  0  0  0  0  0
  152.0214  143.2048  159.3932 N   0  0  0  0  0  0  0  0  0  0  0  0
  151.6782  143.6865  160.6400 C   0  0  0  0  0  0  0  0  0  0  0  0
  151.5680  145.0437  160.5386 C   0  0  0  0  0  0  0  0  0  0  0  0
  151.8662  145.3055  159.1725 C   0  0  0  0  0  0  0  0  0  0  0  0
  152.1372  144.2052  158.4896 N   0  0  0  0  0  0  0  0  0  0  0  0
  149.5317  142.6801  158.6857 H   0  0  0  0  0  0  0  0  0  0  0  0
  148.9178  141.1840  158.0294 H   0  0  0  0  0  0  0  0  0  0  0  0
  150.1381  142.0883  157.1429 H   0  0  0  0  0  0  0  0  0  0  0  0
  150.6044  140.7573  159.8751 H   0  0  0  0  0  0  0  0  0  0  0  0
  150.3927  139.2224  158.0850 H   0  0  0  0  0  0  0  0  0  0  0  0
  150.8121  140.2949  156.1576 H   0  0  0  0  0  0  0  0  0  0  0  0
  152.3387  140.9271  156.7413 H   0  0  0  0  0  0  0  0  0  0  0  0
  153.1599  139.1323  155.4751 H   0  0  0  0  0  0  0  0  0  0  0  0
  152.9427  138.3222  156.9943 H   0  0  0  0  0  0  0  0  0  0  0  0
  150.7505  135.1893  154.3215 H   0  0  0  0  0  0  0  0  0  0  0  0
  149.5801  135.4651  155.6476 H   0  0  0  0  0  0  0  0  0  0  0  0
  149.0958  137.0694  153.6729 H   0  0  0  0  0  0  0  0  0  0  0  0
  152.7298  141.8633  158.0117 H   0  0  0  0  0  0  0  0  0  0  0  0
  153.5644  140.1725  159.6151 H   0  0  0  0  0  0  0  0  0  0  0  0
  152.8513  141.0516  160.9619 H   0  0  0  0  0  0  0  0  0  0  0  0
  154.1772  141.7603  160.0441 H   0  0  0  0  0  0  0  0  0  0  0  0
  151.5449  143.0304  161.4877 H   0  0  0  0  0  0  0  0  0  0  0  0
  151.3142  145.7430  161.3214 H   0  0  0  0  0  0  0  0  0  0  0  0
  151.8948  146.2559  158.6604 H   0  0  0  0  0  0  0  0  0  0  0  0
  1  2  1  0  0  0  0
  1 20  1  0  0  0  0
  1 21  1  0  0  0  0
  1 22  1  0  0  0  0
  2  3  1  0  0  0  0
  2 13  1  0  0  0  0
  2 23  1  0  0  0  0
  3  4  1  0  0  0  0
  3 24  1  0  0  0  0
  4  5  1  0  0  0  0
  4 25  1  0  0  0  0
  4 26  1  0  0  0  0
  5  6  1  0  0  0  0
  5 27  1  0  0  0  0
  5 28  1  0  0  0  0
  6 11  1  0  0  0  0
  6  7  1  0  0  0  0
  7  8  2  0  0  0  0
  7  9  1  0  0  0  0
  9 10  1  0  0  0  0
  9 29  1  0  0  0  0
  9 30  1  0  0  0  0
 10 11  1  0  0  0  0
 10 31  1  0  0  0  0
 11 12  2  0  0  0  0
 13 14  1  0  0  0  0
 13 15  1  0  0  0  0
 13 32  1  0  0  0  0
 14 33  1  0  0  0  0
 14 34  1  0  0  0  0
 14 35  1  0  0  0  0
 15 19  1  0  0  0  0
 15 16  1  0  0  0  0
 16 17  2  0  0  0  0
 16 36  1  0  0  0  0
 17 18  1  0  0  0  0
 17 37  1  0  0  0  0
 18 19  2  0  0  0  0
 18 38  1  0  0  0  0
M  END
> <s_m_source_file>
AV-unprocessed.smi

> <i_m_source_file_index>
3330

> <i_lp_mmshare_version>
43012

> <i_f3d_flags>
0

> <s_epik_input>
bjFbY0hdW2NIXVtjSF1uMVtDQEBIXShbQ0gzXSlbQ0BIXShbQ0gzXSlbTkhdW0NIMl1bQ0gyXU4yQyg9TylbQ0gyXVtOSF1DMj1P

> <s_epik_cmdline>
J2VwaWtfcHl0aG9uJywgJy1waCcsICc3LjAnLCAnLXRuJywgJzgnLCAnLW1hJywgJzIwMCcsICctbWV0YWxfYmluZGluZycsICctaW1hZScsICc8aW5maWxlLm1hZT4nLCAnLW9tYWUnLCAnPG91dGZpbGUubWFlPic=

> <r_lp_tautomer_probability>
1

> <r_epik_Ionization_Penalty>
2.2997

> <r_epik_Ionization_Penalty_Charging>
0

> <r_epik_Ionization_Penalty_Neutral>
2.2997

> <r_epik_State_Penalty>
2.44917

> <r_epik_Charging_Adjusted_Penalty>
2.44917

> <i_epik_Tot_Q>
0

> <i_epik_Tot_abs_Q>
0

> <r_epik_Metal_State_Penalty>
2.52438

> <b_epik_Metal_Only>
0

> <s_lp_Force_Field>
OPLS_2005

> <r_lp_Energy>
29.8527

> <b_lp_Chiralities_Consistent>
1

> <s_lp_Variant>
AV-unprocessed.smi:3330-6

> <Gold.Version>
5.8.1

> <Gold.Id.Protein>
6NUR|6NUR_protein|mol2

> <Gold.PLP.Fitness>
46.1743

> <Gold.PLP.PLP>
-39.7927

> <Gold.PLP.part.hbond>
-3.1465

> <Gold.PLP.part.metal>
0.0000

> <Gold.PLP.part.buried>
-4.8578

> <Gold.PLP.part.nonpolar>
-31.5071

> <Gold.PLP.part.repulsive>
0.4845

> <Gold.PLP.ligand.clash>
0.0000

> <Gold.PLP.ligand.torsion>
0.7547

> <Gold.PLP.Chemscore.Hbond>
2.5680

> <Gold.PLP.Chemscore.CHOScore>
0.0000

> <Gold.PLP.Chemscore.Metal>
0.0000

> <Gold.Chemscore.Hbonds>
donor molecule, donor type, donor heavy atom, donor atom, acceptor molecule, acceptor atom, score
      L1  H    10    31       P1  7948  0.61
      P1  H  7989  7998       L1    12  0.67
      P1  H 10752 10764       L1     8  0.90

> <Gold.PLP.Chemscore.Internal.Correction>
0.1870

> <Gold.Rescore>
     Score         DG    S(hbond)    S(metal)    S(lipo)     H(rot)  DE(clash)    DE(int)     intcor
     12.89     -15.53       2.12        0.00      82.32       2.60       1.15       1.49       ----

> <Gold.Chemscore.Fitness>
12.8928

> <Gold.Chemscore.DG>
-15.5330

> <Gold.Chemscore.ZeroCoef>
-5.4800

> <Gold.Chemscore.Hbond>
2.1154

> <Gold.Chemscore.Metal>
0.0000

> <Gold.Chemscore.Lipo>
82.3176

> <Gold.Chemscore.Internal_Hbond>
0.0000

> <Gold.Chemscore.DEClash>
1.1495

> <Gold.Chemscore.DEInternal>
1.4907

> <Gold.Chemscore.Rot>
2.5952

> <Gold.Chemscore.Internal.Correction>
   9.000000E+99

> <Gold.Chemscore.Hbonds>
donor molecule, donor type, donor heavy atom, donor atom, acceptor molecule, acceptor atom, score
      L1  H    10    31       P1  7948  0.58
      P1  H  7989  7998       L1    12  0.66
      P1  H 10752 10764       L1     8  0.17

> <Gold.Chemscore.Hbond.Weighted>
-7.0655

> <Gold.Chemscore.Metal.Weighted>
-0.0000

> <Gold.Chemscore.Lipo.Weighted>
-9.6312

> <Gold.Chemscore.Internal_Hbond.Weighted>
0.0000

> <Gold.Chemscore.DEClash.Weighted>
1.1495

> <Gold.Chemscore.DEInternal.Weighted>
1.4907

> <Gold.Chemscore.Rot.Weighted>
6.6437

> <Gold.Chemscore.Internal.Correction.Weighted>
   9.000000E+99

> <Gold.Protein.RotatedTorsions>
[ 6907 6896 6895 6894 ] final  113.96 input  -60.11 | X-H torsion
[ 7974 7965 7964 7962 ] final  -32.58 input  175.53 | X-H torsion
[ 8008 7997 7996 7995 ] final -128.52 input   59.86 | X-H torsion
[ 10167 10162 10161 10158 ] final  -16.06 input  -65.29 | X-H torsion
[ 10718 10713 10712 10709 ] final  161.46 input   66.30 | X-H torsion
[ 10763 10752 10751 10750 ] final   -0.37 input  -60.55 | X-H torsion
[ 11005 11000 10999 10996 ] final  -79.95 input  -57.11 | X-H torsion

> <Gold.Protein.ActiveResidues>
 VAL166  LYS551  ARG553  GLY616  TRP617  ASP618  TYR619  PRO620  LYS621  CYS622 
 ASP623  PHE694  ASN695  SER759  ASP760  ASP761  ALA762  ILE779  LEU786  VAL792 
 PHE793  MET794  SER795  GLU796  ALA797  LYS798  CYS799  TRP800  GLU811  SER814 

> <Gold.Protein.RotatedAtoms>
  152.4831  133.8303  159.7099 H   0  0  0  0  0  0  0  0  0  0  0  0  # atno 6907 bound_to 6896
  150.8895  133.7252  159.2915 H   0  0  0  0  0  0  0  0  0  0  0  0  # atno 6908 bound_to 6896
  151.4730  135.1051  159.9809 H   0  0  0  0  0  0  0  0  0  0  0  0  # atno 6909 bound_to 6896
  146.0979  140.5810  142.8834 H   0  0  0  0  0  0  0  0  0  0  0  0  # atno 7974 bound_to 7965
  155.2641  140.0437  157.3000 H   0  0  0  0  0  0  0  0  0  0  0  0  # atno 8008 bound_to 7997
  154.5693  140.2369  155.8185 H   0  0  0  0  0  0  0  0  0  0  0  0  # atno 8009 bound_to 7997
  156.2110  140.2999  155.9739 H   0  0  0  0  0  0  0  0  0  0  0  0  # atno 8010 bound_to 7997
  140.7228  143.5155  150.9697 H   0  0  0  0  0  0  0  0  0  0  0  0  # atno 10167 bound_to 10162
  157.1362  131.0529  151.2348 H   0  0  0  0  0  0  0  0  0  0  0  0  # atno 10718 bound_to 10713
  153.3310  135.6975  153.6947 H   0  0  0  0  0  0  0  0  0  0  0  0  # atno 10763 bound_to 10752
  153.5750  135.3509  155.2853 H   0  0  0  0  0  0  0  0  0  0  0  0  # atno 10764 bound_to 10752
  154.8618  135.4281  154.2499 H   0  0  0  0  0  0  0  0  0  0  0  0  # atno 10765 bound_to 10752
  141.1668  133.7128  156.8200 H   0  0  0  0  0  0  0  0  0  0  0  0  # atno 11005 bound_to 11000
  144.7409  140.4940  143.6870 LP  0  0  0  0  0  0  0  0  0  0  0  0  # atno 17320 bound_to 7965
  145.5913  139.1496  143.3181 LP  0  0  0  0  0  0  0  0  0  0  0  0  # atno 17321 bound_to 7965
  139.8870  143.7000  152.3150 LP  0  0  0  0  0  0  0  0  0  0  0  0  # atno 17342 bound_to 10162
  139.7303  144.7584  151.0813 LP  0  0  0  0  0  0  0  0  0  0  0  0  # atno 17343 bound_to 10162
  157.4348  130.7511  149.7020 LP  0  0  0  0  0  0  0  0  0  0  0  0  # atno 17370 bound_to 10713
  155.9798  130.4036  150.3567 LP  0  0  0  0  0  0  0  0  0  0  0  0  # atno 17371 bound_to 10713
  140.2126  134.8816  157.3291 LP  0  0  0  0  0  0  0  0  0  0  0  0  # atno 17394 bound_to 11000
  140.2071  134.4184  155.7632 LP  0  0  0  0  0  0  0  0  0  0  0  0  # atno 17395 bound_to 11000

$$$$
