AV-unprocessed.smi:3139|AV-procd|sdf|11956|dock5
  -GOLD-   2272017353D 1   1.00000     0.00000
 Structure written by MMmdl.
 33 33  0  0  0  0  0  0  0  0  2 V2000
  151.7396  143.9769  157.8171 C   0  0  0  0  0  0  0  0  0  0  0  0
  152.1760  142.6504  158.4729 C   0  0  2  0  0  0  0  0  0  0  0  0
  151.1531  141.5187  158.2784 C   0  0  0  0  0  0  0  0  0  0  0  0
  149.9937  141.6404  158.6769 O   0  0  0  0  0  0  0  0  0  0  0  0
  151.6011  140.4228  157.6457 N   0  0  0  0  0  0  0  0  0  0  0  0
  150.8104  139.2365  157.3164 C   0  0  0  0  0  0  0  0  0  0  0  0
  150.6224  139.0148  155.7879 C   0  0  0  0  0  0  0  0  0  0  0  0
  149.5258  137.9543  155.5610 C   0  0  0  0  0  0  0  0  0  0  0  0
  150.1857  140.3387  155.1140 C   0  0  0  0  0  0  0  0  0  0  0  0
  151.9349  138.4896  155.1487 C   0  0  0  0  0  0  0  0  0  0  0  0
  152.9508  139.2203  155.1756 O   0  0  0  0  0  0  0  0  0  0  0  0
  151.8987  137.3524  154.6270 O   0  5  0  0  0  0  0  0  0  0  0  0
  152.4966  142.8125  159.8870 N   0  0  0  0  0  0  0  0  0  0  0  0
  153.0371  141.8761  160.7453 C   0  0  0  0  0  0  0  0  0  0  0  0
  153.1251  142.4519  161.9801 C   0  0  0  0  0  0  0  0  0  0  0  0
  152.5947  143.7567  161.7822 C   0  0  0  0  0  0  0  0  0  0  0  0
  152.2123  143.9675  160.5335 N   0  0  0  0  0  0  0  0  0  0  0  0
  151.5714  143.8485  156.7472 H   0  0  0  0  0  0  0  0  0  0  0  0
  152.5084  144.7408  157.9363 H   0  0  0  0  0  0  0  0  0  0  0  0
  150.8176  144.3659  158.2515 H   0  0  0  0  0  0  0  0  0  0  0  0
  153.0932  142.3347  157.9728 H   0  0  0  0  0  0  0  0  0  0  0  0
  152.5642  140.4139  157.3422 H   0  0  0  0  0  0  0  0  0  0  0  0
  151.3277  138.3817  157.7539 H   0  0  0  0  0  0  0  0  0  0  0  0
  149.8391  139.2663  157.8129 H   0  0  0  0  0  0  0  0  0  0  0  0
  148.5707  138.2831  155.9719 H   0  0  0  0  0  0  0  0  0  0  0  0
  149.7749  137.0059  156.0394 H   0  0  0  0  0  0  0  0  0  0  0  0
  149.3735  137.7566  154.4991 H   0  0  0  0  0  0  0  0  0  0  0  0
  149.2866  140.7385  155.5837 H   0  0  0  0  0  0  0  0  0  0  0  0
  149.9602  140.1991  154.0559 H   0  0  0  0  0  0  0  0  0  0  0  0
  150.9565  141.1068  155.1874 H   0  0  0  0  0  0  0  0  0  0  0  0
  153.3100  140.8867  160.4087 H   0  0  0  0  0  0  0  0  0  0  0  0
  153.5046  142.0064  162.8876 H   0  0  0  0  0  0  0  0  0  0  0  0
  152.4728  144.5504  162.5045 H   0  0  0  0  0  0  0  0  0  0  0  0
  1  2  1  0  0  0  0
  1 18  1  0  0  0  0
  1 19  1  0  0  0  0
  1 20  1  0  0  0  0
  2  3  1  0  0  0  0
  2 13  1  0  0  0  0
  2 21  1  0  0  0  0
  3  4  2  0  0  0  0
  3  5  1  0  0  0  0
  5  6  1  0  0  0  0
  5 22  1  0  0  0  0
  6  7  1  0  0  0  0
  6 23  1  0  0  0  0
  6 24  1  0  0  0  0
  7  8  1  0  0  0  0
  7  9  1  0  0  0  0
  7 10  1  0  0  0  0
  8 25  1  0  0  0  0
  8 26  1  0  0  0  0
  8 27  1  0  0  0  0
  9 28  1  0  0  0  0
  9 29  1  0  0  0  0
  9 30  1  0  0  0  0
 10 11  2  0  0  0  0
 10 12  1  0  0  0  0
 13 17  1  0  0  0  0
 13 14  1  0  0  0  0
 14 15  2  0  0  0  0
 14 31  1  0  0  0  0
 15 16  1  0  0  0  0
 15 32  1  0  0  0  0
 16 17  2  0  0  0  0
 16 33  1  0  0  0  0
M  CHG  1  12  -1
M  END
> <s_m_source_file>
AV-unprocessed.smi

> <i_m_source_file_index>
3139

> <i_lp_mmshare_version>
43012

> <i_f3d_flags>
0

> <s_epik_input>
bjFbY0hdW2NIXVtjSF1uMVtDQEhdKFtDSDNdKUMoPU8pW05IXVtDSDJdQyhbQ0gzXSkoW0NIM10pQyg9TylbT0hd

> <s_epik_cmdline>
J2VwaWtfcHl0aG9uJywgJy1waCcsICc3LjAnLCAnLXRuJywgJzgnLCAnLW1hJywgJzIwMCcsICctbWV0YWxfYmluZGluZycsICctaW1hZScsICc8aW5maWxlLm1hZT4nLCAnLW9tYWUnLCAnPG91dGZpbGUubWFlPic=

> <r_lp_tautomer_probability>
1

> <r_epik_Ionization_Penalty>
0.00184643

> <r_epik_Ionization_Penalty_Charging>
0.00181045

> <r_epik_Ionization_Penalty_Neutral>
3.59763e-05

> <r_epik_State_Penalty>
0.00122842

> <r_epik_Charging_Adjusted_Penalty>
0.00303887

> <i_epik_Tot_Q>
-1

> <i_epik_Tot_abs_Q>
1

> <r_epik_Metal_State_Penalty>
-0

> <b_epik_Metal_Only>
0

> <s_lp_Force_Field>
OPLS_2005

> <r_lp_Energy>
5.55707

> <b_lp_Chiralities_Consistent>
1

> <s_lp_Variant>
AV-unprocessed.smi:3139-1

> <Gold.Version>
5.8.1

> <Gold.Id.Protein>
6NUR|6NUR_protein|mol2

> <Gold.PLP.Fitness>
48.3107

> <Gold.PLP.PLP>
-37.3781

> <Gold.PLP.part.hbond>
-2.3329

> <Gold.PLP.part.metal>
0.0000

> <Gold.PLP.part.buried>
-5.5565

> <Gold.PLP.part.nonpolar>
-30.0822

> <Gold.PLP.part.repulsive>
0.3024

> <Gold.PLP.ligand.clash>
0.0000

> <Gold.PLP.ligand.torsion>
0.2965

> <Gold.PLP.Chemscore.Hbond>
3.7920

> <Gold.PLP.Chemscore.CHOScore>
0.0000

> <Gold.PLP.Chemscore.Metal>
0.0000

> <Gold.Chemscore.Hbonds>
donor molecule, donor type, donor heavy atom, donor atom, acceptor molecule, acceptor atom, score
      P1  H  7997  8009       L1    11  2.00
      P1  H 10752 10763       L1    12  1.86

> <Gold.PLP.Chemscore.Internal.Correction>
0.1497

> <Gold.Rescore>
     Score         DG    S(hbond)    S(metal)    S(lipo)     H(rot)  DE(clash)    DE(int)     intcor
     14.48     -14.84       1.87        0.00      77.32       2.32       0.01       0.34       ----

> <Gold.Chemscore.Fitness>
14.4832

> <Gold.Chemscore.DG>
-14.8377

> <Gold.Chemscore.ZeroCoef>
-5.4800

> <Gold.Chemscore.Hbond>
1.8747

> <Gold.Chemscore.Metal>
0.0000

> <Gold.Chemscore.Lipo>
77.3168

> <Gold.Chemscore.Internal_Hbond>
0.0000

> <Gold.Chemscore.DEClash>
0.0144

> <Gold.Chemscore.DEInternal>
0.3402

> <Gold.Chemscore.Rot>
2.3241

> <Gold.Chemscore.Internal.Correction>
   9.000000E+99

> <Gold.Chemscore.Hbonds>
donor molecule, donor type, donor heavy atom, donor atom, acceptor molecule, acceptor atom, score
      P1  H  7997  8009       L1    11  1.00
      P1  H 10752 10763       L1    12  0.87

> <Gold.Chemscore.Hbond.Weighted>
-6.2614

> <Gold.Chemscore.Metal.Weighted>
-0.0000

> <Gold.Chemscore.Lipo.Weighted>
-9.0461

> <Gold.Chemscore.Internal_Hbond.Weighted>
0.0000

> <Gold.Chemscore.DEClash.Weighted>
0.0144

> <Gold.Chemscore.DEInternal.Weighted>
0.3402

> <Gold.Chemscore.Rot.Weighted>
5.9498

> <Gold.Chemscore.Internal.Correction.Weighted>
   9.000000E+99

> <Gold.Protein.RotatedTorsions>
[ 6907 6896 6895 6894 ] final -156.94 input  -60.11 | X-H torsion
[ 7974 7965 7964 7962 ] final   23.81 input  175.53 | X-H torsion
[ 8008 7997 7996 7995 ] final -136.39 input   59.86 | X-H torsion
[ 10167 10162 10161 10158 ] final   23.99 input  -65.29 | X-H torsion
[ 10718 10713 10712 10709 ] final   34.65 input   66.30 | X-H torsion
[ 10763 10752 10751 10750 ] final   47.10 input  -60.55 | X-H torsion
[ 11005 11000 10999 10996 ] final  111.62 input  -57.11 | X-H torsion

> <Gold.Protein.ActiveResidues>
 VAL166  LYS551  ARG553  GLY616  TRP617  ASP618  TYR619  PRO620  LYS621  CYS622 
 ASP623  PHE694  ASN695  SER759  ASP760  ASP761  ALA762  ILE779  LEU786  VAL792 
 PHE793  MET794  SER795  GLU796  ALA797  LYS798  CYS799  TRP800  GLU811  SER814 

> <Gold.Protein.RotatedAtoms>
  151.2953  133.4146  159.2635 H   0  0  0  0  0  0  0  0  0  0  0  0  # atno 6907 bound_to 6896
  151.0242  134.9492  159.8086 H   0  0  0  0  0  0  0  0  0  0  0  0  # atno 6908 bound_to 6896
  152.5331  134.2916  159.9097 H   0  0  0  0  0  0  0  0  0  0  0  0  # atno 6909 bound_to 6896
  146.1967  139.7692  142.8792 H   0  0  0  0  0  0  0  0  0  0  0  0  # atno 7974 bound_to 7965
  155.3945  140.0502  157.3039 H   0  0  0  0  0  0  0  0  0  0  0  0  # atno 8008 bound_to 7997
  154.5020  140.2160  155.9288 H   0  0  0  0  0  0  0  0  0  0  0  0  # atno 8009 bound_to 7997
  156.1479  140.3141  155.8606 H   0  0  0  0  0  0  0  0  0  0  0  0  # atno 8010 bound_to 7997
  140.5224  143.9980  150.6423 H   0  0  0  0  0  0  0  0  0  0  0  0  # atno 10167 bound_to 10162
  157.3130  130.7409  149.6737 H   0  0  0  0  0  0  0  0  0  0  0  0  # atno 10718 bound_to 10713
  152.9803  135.5987  154.3708 H   0  0  0  0  0  0  0  0  0  0  0  0  # atno 10763 bound_to 10752
  154.3381  135.2768  155.2439 H   0  0  0  0  0  0  0  0  0  0  0  0  # atno 10764 bound_to 10752
  154.4532  135.5984  153.6261 H   0  0  0  0  0  0  0  0  0  0  0  0  # atno 10765 bound_to 10752
  139.8908  134.9512  156.6461 H   0  0  0  0  0  0  0  0  0  0  0  0  # atno 11005 bound_to 11000
  145.3621  141.0327  143.3279 LP  0  0  0  0  0  0  0  0  0  0  0  0  # atno 17320 bound_to 7965
  144.8595  139.5199  143.6819 LP  0  0  0  0  0  0  0  0  0  0  0  0  # atno 17321 bound_to 7965
  140.3332  143.3065  152.0665 LP  0  0  0  0  0  0  0  0  0  0  0  0  # atno 17342 bound_to 10162
  139.4927  144.6494  151.6707 LP  0  0  0  0  0  0  0  0  0  0  0  0  # atno 17343 bound_to 10162
  155.9679  130.4245  150.4614 LP  0  0  0  0  0  0  0  0  0  0  0  0  # atno 17370 bound_to 10713
  157.2616  131.0568  151.2317 LP  0  0  0  0  0  0  0  0  0  0  0  0  # atno 17371 bound_to 10713
  140.7556  133.8860  155.8380 LP  0  0  0  0  0  0  0  0  0  0  0  0  # atno 17394 bound_to 11000
  140.9964  134.1209  157.4359 LP  0  0  0  0  0  0  0  0  0  0  0  0  # atno 17395 bound_to 11000

$$$$
