AV-unprocessed.smi:2073|AV-procd|sdf|8451|dock7
  -GOLD-   2272011143D 1   1.00000     0.00000
 Structure written by MMmdl.
 27 27  0  0  0  0  0  0  0  0  2 V2000
  152.5767  143.4747  159.1203 C   0  0  0  0  0  0  0  0  0  0  0  0
  152.5879  142.0028  159.5637 C   0  0  0  0  0  0  0  0  0  0  0  0
  153.9088  141.6358  160.2632 C   0  0  0  0  0  0  0  0  0  0  0  0
  152.3103  141.0779  158.3651 C   0  0  0  0  0  0  0  0  0  0  0  0
  153.1289  140.2049  158.0692 O   0  0  0  0  0  0  0  0  0  0  0  0
  151.1363  141.3746  157.7566 N   0  5  0  0  0  0  0  0  0  0  0  0
  150.8161  140.7681  156.6032 C   0  0  0  0  0  0  0  0  0  0  0  0
  151.4642  139.6937  156.1406 N   0  0  0  0  0  0  0  0  0  0  0  0
  150.9668  139.2197  154.9231 C   0  0  0  0  0  0  0  0  0  0  0  0
  151.5814  138.0077  154.2837 C   0  0  0  0  0  0  0  0  0  0  0  0
  151.2109  136.7394  155.0568 C   0  0  0  0  0  0  0  0  0  0  0  0
  150.4665  135.8292  154.4220 N   0  0  0  0  0  0  0  0  0  0  0  0
  151.5815  136.5885  156.2193 O   0  0  0  0  0  0  0  0  0  0  0  0
  149.9249  139.9700  154.4414 C   0  0  0  0  0  0  0  0  0  0  0  0
  149.5302  141.2851  155.5107 S   0  0  0  0  0  0  0  0  0  0  0  0
  151.6315  143.7378  158.6436 H   0  0  0  0  0  0  0  0  0  0  0  0
  153.3779  143.6842  158.4104 H   0  0  0  0  0  0  0  0  0  0  0  0
  152.7080  144.1398  159.9739 H   0  0  0  0  0  0  0  0  0  0  0  0
  151.7942  141.8746  160.3031 H   0  0  0  0  0  0  0  0  0  0  0  0
  153.9249  140.5843  160.5526 H   0  0  0  0  0  0  0  0  0  0  0  0
  154.0444  142.2260  161.1695 H   0  0  0  0  0  0  0  0  0  0  0  0
  154.7703  141.8186  159.6198 H   0  0  0  0  0  0  0  0  0  0  0  0
  151.2453  137.9123  153.2505 H   0  0  0  0  0  0  0  0  0  0  0  0
  152.6682  138.0942  154.2460 H   0  0  0  0  0  0  0  0  0  0  0  0
  150.1835  134.9880  154.9050 H   0  0  0  0  0  0  0  0  0  0  0  0
  150.1723  135.9939  153.4706 H   0  0  0  0  0  0  0  0  0  0  0  0
  149.3651  139.8269  153.5293 H   0  0  0  0  0  0  0  0  0  0  0  0
  1  2  1  0  0  0  0
  1 16  1  0  0  0  0
  1 17  1  0  0  0  0
  1 18  1  0  0  0  0
  2  3  1  0  0  0  0
  2  4  1  0  0  0  0
  2 19  1  0  0  0  0
  3 20  1  0  0  0  0
  3 21  1  0  0  0  0
  3 22  1  0  0  0  0
  4  5  2  0  0  0  0
  4  6  1  0  0  0  0
  6  7  1  0  0  0  0
  7 15  1  0  0  0  0
  7  8  2  0  0  0  0
  8  9  1  0  0  0  0
  9 10  1  0  0  0  0
  9 14  2  0  0  0  0
 10 11  1  0  0  0  0
 10 23  1  0  0  0  0
 10 24  1  0  0  0  0
 11 12  1  0  0  0  0
 11 13  2  0  0  0  0
 12 25  1  0  0  0  0
 12 26  1  0  0  0  0
 14 15  1  0  0  0  0
 14 27  1  0  0  0  0
M  CHG  1   6  -1
M  END
> <s_m_source_file>
AV-unprocessed.smi

> <i_m_source_file_index>
2073

> <i_lp_mmshare_version>
43012

> <i_f3d_flags>
0

> <s_epik_input>
W0NIM11bQ0hdKFtDSDNdKUMoPU8pW05IXWMxbmMoW2NIXXMxKVtDSDJdQyg9TylbTkgyXQ==

> <s_epik_cmdline>
J2VwaWtfcHl0aG9uJywgJy1waCcsICc3LjAnLCAnLXRuJywgJzgnLCAnLW1hJywgJzIwMCcsICctbWV0YWxfYmluZGluZycsICctaW1hZScsICc8aW5maWxlLm1hZT4nLCAnLW9tYWUnLCAnPG91dGZpbGUubWFlPic=

> <r_lp_tautomer_probability>
1

> <r_epik_Ionization_Penalty>
5.4698

> <r_epik_Ionization_Penalty_Charging>
4.98646

> <r_epik_Ionization_Penalty_Neutral>
0.483343

> <r_epik_State_Penalty>
4.98633

> <r_epik_Charging_Adjusted_Penalty>
9.97279

> <i_epik_Tot_Q>
-1

> <i_epik_Tot_abs_Q>
1

> <r_epik_Metal_State_Penalty>
1.11062

> <b_epik_Metal_Only>
1

> <s_lp_Force_Field>
OPLS_2005

> <r_lp_Energy>
-0.551018

> <b_lp_Chiralities_Consistent>
1

> <s_lp_Variant>
AV-unprocessed.smi:2073-2

> <Gold.Version>
5.8.1

> <Gold.Id.Protein>
6NUR|6NUR_protein|mol2

> <Gold.PLP.Fitness>
39.0641

> <Gold.PLP.PLP>
-30.4123

> <Gold.PLP.part.hbond>
-2.0000

> <Gold.PLP.part.metal>
0.0000

> <Gold.PLP.part.buried>
-2.0994

> <Gold.PLP.part.nonpolar>
-26.7410

> <Gold.PLP.part.repulsive>
0.0817

> <Gold.PLP.ligand.clash>
0.0000

> <Gold.PLP.ligand.torsion>
0.2092

> <Gold.PLP.Chemscore.Hbond>
2.0000

> <Gold.PLP.Chemscore.CHOScore>
1.0000

> <Gold.PLP.Chemscore.Metal>
0.0000

> <Gold.Chemscore.Hbonds>
donor molecule, donor type, donor heavy atom, donor atom, acceptor molecule, acceptor atom, score
      L1  H    12    26       P1  7948  0.30
      P1  H  7997  8010       L1     5  0.94
      P1  H 10752 10763       L1    13  0.02
      L1  C    14    27       P1  7957  1.00

> <Gold.PLP.Chemscore.Internal.Correction>
0.0702

> <Gold.Rescore>
     Score         DG    S(hbond)    S(metal)    S(lipo)     H(rot)  DE(clash)    DE(int)     intcor
     12.49     -14.56       1.97        0.00      62.87       1.90       0.06       2.01       ----

> <Gold.Chemscore.Fitness>
12.4925

> <Gold.Chemscore.DG>
-14.5610

> <Gold.Chemscore.ZeroCoef>
-5.4800

> <Gold.Chemscore.Hbond>
1.9737

> <Gold.Chemscore.Metal>
0.0000

> <Gold.Chemscore.Lipo>
62.8726

> <Gold.Chemscore.Internal_Hbond>
0.0000

> <Gold.Chemscore.DEClash>
0.0605

> <Gold.Chemscore.DEInternal>
2.0080

> <Gold.Chemscore.Rot>
1.9012

> <Gold.Chemscore.Internal.Correction>
   9.000000E+99

> <Gold.Chemscore.Hbonds>
donor molecule, donor type, donor heavy atom, donor atom, acceptor molecule, acceptor atom, score
      P1  H  7997  8010       L1     5  0.91

> <Gold.Chemscore.Hbond.Weighted>
-6.5920

> <Gold.Chemscore.Metal.Weighted>
-0.0000

> <Gold.Chemscore.Lipo.Weighted>
-7.3561

> <Gold.Chemscore.Internal_Hbond.Weighted>
0.0000

> <Gold.Chemscore.DEClash.Weighted>
0.0605

> <Gold.Chemscore.DEInternal.Weighted>
2.0080

> <Gold.Chemscore.Rot.Weighted>
4.8671

> <Gold.Chemscore.Internal.Correction.Weighted>
   9.000000E+99

> <Gold.Protein.RotatedTorsions>
[ 6907 6896 6895 6894 ] final  -57.99 input  -60.11 | X-H torsion
[ 7974 7965 7964 7962 ] final   -3.75 input  175.53 | X-H torsion
[ 8008 7997 7996 7995 ] final   44.50 input   59.86 | X-H torsion
[ 10167 10162 10161 10158 ] final -130.11 input  -65.29 | X-H torsion
[ 10718 10713 10712 10709 ] final   81.55 input   66.30 | X-H torsion
[ 10763 10752 10751 10750 ] final  113.81 input  -60.55 | X-H torsion
[ 11005 11000 10999 10996 ] final  -15.64 input  -57.11 | X-H torsion

> <Gold.Protein.ActiveResidues>
 VAL166  LYS551  ARG553  GLY616  TRP617  ASP618  TYR619  PRO620  LYS621  CYS622 
 ASP623  PHE694  ASN695  SER759  ASP760  ASP761  ALA762  ILE779  LEU786  VAL792 
 PHE793  MET794  SER795  GLU796  ALA797  LYS798  CYS799  TRP800  GLU811  SER814 

> <Gold.Protein.RotatedAtoms>
  150.8042  134.7156  159.6628 H   0  0  0  0  0  0  0  0  0  0  0  0  # atno 6907 bound_to 6896
  152.4160  134.6037  160.0016 H   0  0  0  0  0  0  0  0  0  0  0  0  # atno 6908 bound_to 6896
  151.6266  133.3298  159.3135 H   0  0  0  0  0  0  0  0  0  0  0  0  # atno 6909 bound_to 6896
  146.2384  140.1769  142.8332 H   0  0  0  0  0  0  0  0  0  0  0  0  # atno 7974 bound_to 7965
  155.3203  140.3396  155.4241 H   0  0  0  0  0  0  0  0  0  0  0  0  # atno 8008 bound_to 7997
  156.1912  140.1698  156.8125 H   0  0  0  0  0  0  0  0  0  0  0  0  # atno 8009 bound_to 7997
  154.5445  140.0718  156.8548 H   0  0  0  0  0  0  0  0  0  0  0  0  # atno 8010 bound_to 7997
  139.9328  143.6253  152.2525 H   0  0  0  0  0  0  0  0  0  0  0  0  # atno 10167 bound_to 10162
  157.6835  131.0009  150.2242 H   0  0  0  0  0  0  0  0  0  0  0  0  # atno 10718 bound_to 10713
  153.4980  135.3644  155.2525 H   0  0  0  0  0  0  0  0  0  0  0  0  # atno 10763 bound_to 10752
  154.8749  135.3993  154.3511 H   0  0  0  0  0  0  0  0  0  0  0  0  # atno 10764 bound_to 10752
  153.4143  135.7078  153.6404 H   0  0  0  0  0  0  0  0  0  0  0  0  # atno 10765 bound_to 10752
  140.7987  133.8231  155.9449 H   0  0  0  0  0  0  0  0  0  0  0  0  # atno 11005 bound_to 11000
  144.9966  140.8595  143.5307 LP  0  0  0  0  0  0  0  0  0  0  0  0  # atno 17320 bound_to 7965
  145.1782  139.2366  143.5306 LP  0  0  0  0  0  0  0  0  0  0  0  0  # atno 17321 bound_to 7965
  139.6768  144.7658  151.1681 LP  0  0  0  0  0  0  0  0  0  0  0  0  # atno 17342 bound_to 10162
  140.7633  143.5783  150.8922 LP  0  0  0  0  0  0  0  0  0  0  0  0  # atno 17343 bound_to 10162
  156.2888  130.3743  149.7862 LP  0  0  0  0  0  0  0  0  0  0  0  0  # atno 17370 bound_to 10713
  156.5528  130.8349  151.3305 LP  0  0  0  0  0  0  0  0  0  0  0  0  # atno 17371 bound_to 10713
  140.9316  134.2014  157.4860 LP  0  0  0  0  0  0  0  0  0  0  0  0  # atno 17394 bound_to 11000
  139.8724  134.9835  156.5201 LP  0  0  0  0  0  0  0  0  0  0  0  0  # atno 17395 bound_to 11000

$$$$
