AV-unprocessed.smi:430|AV-procd|sdf|2546|dock7
  -GOLD-   2262022513D 1   1.00000     0.00000
 Structure written by MMmdl.
 37 38  0  0  0  0  0  0  0  0  1 V2000
  146.7739  138.7637  151.7017 C   0  0  0  0  0  0  0  0  0  0  0  0
  146.8639  139.3878  153.1032 C   0  0  0  0  0  0  0  0  0  0  0  0
  148.0152  138.8379  153.9515 C   0  0  0  0  0  0  0  0  0  0  0  0
  147.8038  138.3002  155.0391 O   0  0  0  0  0  0  0  0  0  0  0  0
  149.2437  138.9841  153.4324 N   0  0  0  0  0  0  0  0  0  0  0  0
  150.4798  138.5259  154.0598 C   0  0  0  0  0  0  0  0  0  0  0  0
  150.9743  139.3852  155.2164 C   0  0  0  0  0  0  0  0  0  0  0  0
  150.3062  140.5834  155.5331 C   0  0  0  0  0  0  0  0  0  0  0  0
  150.7641  141.3635  156.6119 C   0  0  0  0  0  0  0  0  0  0  0  0
  151.8889  140.9245  157.3551 C   0  0  0  0  0  0  0  0  0  0  0  0
  152.3964  141.6537  158.4545 N   0  0  0  0  0  0  0  0  0  0  0  0
  152.6081  140.9565  159.7203 C   0  0  0  0  0  0  0  0  0  0  0  0
  153.4611  141.8117  160.6724 C   0  0  0  0  0  0  0  0  0  0  0  0
  152.8613  143.0917  160.8367 O   0  0  0  0  0  0  0  0  0  0  0  0
  152.7919  143.8008  159.6047 C   0  0  0  0  0  0  0  0  0  0  0  0
  151.9155  143.0269  158.6050 C   0  0  0  0  0  0  0  0  0  0  0  0
  152.5246  139.7675  157.0493 N   0  0  0  0  0  0  0  0  0  0  0  0
  152.0799  139.0228  156.0156 C   0  0  0  0  0  0  0  0  0  0  0  0
  145.9504  139.2018  151.1381 H   0  0  0  0  0  0  0  0  0  0  0  0
  146.6004  137.6883  151.7550 H   0  0  0  0  0  0  0  0  0  0  0  0
  147.6879  138.9312  151.1308 H   0  0  0  0  0  0  0  0  0  0  0  0
  146.9856  140.4676  153.0125 H   0  0  0  0  0  0  0  0  0  0  0  0
  145.9269  139.2216  153.6362 H   0  0  0  0  0  0  0  0  0  0  0  0
  149.3289  139.4378  152.5342 H   0  0  0  0  0  0  0  0  0  0  0  0
  150.3579  137.4955  154.3984 H   0  0  0  0  0  0  0  0  0  0  0  0
  151.2573  138.5073  153.2961 H   0  0  0  0  0  0  0  0  0  0  0  0
  149.4513  140.9047  154.9562 H   0  0  0  0  0  0  0  0  0  0  0  0
  150.2485  142.2845  156.8373 H   0  0  0  0  0  0  0  0  0  0  0  0
  151.6421  140.7371  160.1769 H   0  0  0  0  0  0  0  0  0  0  0  0
  153.1176  140.0074  159.5502 H   0  0  0  0  0  0  0  0  0  0  0  0
  153.5364  141.3267  161.6457 H   0  0  0  0  0  0  0  0  0  0  0  0
  154.4781  141.9206  160.2922 H   0  0  0  0  0  0  0  0  0  0  0  0
  152.3680  144.7882  159.7875 H   0  0  0  0  0  0  0  0  0  0  0  0
  153.7950  143.9553  159.2035 H   0  0  0  0  0  0  0  0  0  0  0  0
  151.9159  143.5609  157.6548 H   0  0  0  0  0  0  0  0  0  0  0  0
  150.8831  143.0004  158.9554 H   0  0  0  0  0  0  0  0  0  0  0  0
  152.6273  138.1102  155.8322 H   0  0  0  0  0  0  0  0  0  0  0  0
  1  2  1  0  0  0  0
  1 19  1  0  0  0  0
  1 20  1  0  0  0  0
  1 21  1  0  0  0  0
  2  3  1  0  0  0  0
  2 22  1  0  0  0  0
  2 23  1  0  0  0  0
  3  4  2  0  0  0  0
  3  5  1  0  0  0  0
  5  6  1  0  0  0  0
  5 24  1  0  0  0  0
  6  7  1  0  0  0  0
  6 25  1  0  0  0  0
  6 26  1  0  0  0  0
  7 18  1  0  0  0  0
  7  8  2  0  0  0  0
  8  9  1  0  0  0  0
  8 27  1  0  0  0  0
  9 10  2  0  0  0  0
  9 28  1  0  0  0  0
 10 11  1  0  0  0  0
 10 17  1  0  0  0  0
 11 16  1  0  0  0  0
 11 12  1  0  0  0  0
 12 13  1  0  0  0  0
 12 29  1  0  0  0  0
 12 30  1  0  0  0  0
 13 14  1  0  0  0  0
 13 31  1  0  0  0  0
 13 32  1  0  0  0  0
 14 15  1  0  0  0  0
 15 16  1  0  0  0  0
 15 33  1  0  0  0  0
 15 34  1  0  0  0  0
 16 35  1  0  0  0  0
 16 36  1  0  0  0  0
 17 18  2  0  0  0  0
 18 37  1  0  0  0  0
M  END
> <s_m_source_file>
AV-unprocessed.smi

> <i_m_source_file_index>
430

> <i_lp_mmshare_version>
43012

> <i_f3d_flags>
0

> <s_epik_input>
W0NIM11bQ0gyXUMoPU8pW05IXVtDSDJdYzFbY0hdW2NIXWMobltjSF0xKU4yW0NIMl1bQ0gyXU9bQ0gyXVtDSDJdMg==

> <s_epik_cmdline>
J2VwaWtfcHl0aG9uJywgJy1waCcsICc3LjAnLCAnLXRuJywgJzgnLCAnLW1hJywgJzIwMCcsICctbWV0YWxfYmluZGluZycsICctaW1hZScsICc8aW5maWxlLm1hZT4nLCAnLW9tYWUnLCAnPG91dGZpbGUubWFlPic=

> <r_lp_tautomer_probability>
1

> <r_epik_Ionization_Penalty>
0.00505548

> <r_epik_Ionization_Penalty_Charging>
0

> <r_epik_Ionization_Penalty_Neutral>
0.00505548

> <r_epik_State_Penalty>
0.00367784

> <r_epik_Charging_Adjusted_Penalty>
0.00367784

> <i_epik_Tot_Q>
0

> <i_epik_Tot_abs_Q>
0

> <r_epik_Metal_State_Penalty>
-0

> <b_epik_Metal_Only>
0

> <s_lp_Force_Field>
OPLS_2005

> <r_lp_Energy>
16.0515

> <b_lp_Chiralities_Consistent>
1

> <s_lp_Variant>
AV-unprocessed.smi:430-1

> <Gold.Version>
5.8.1

> <Gold.Id.Protein>
6NUR|6NUR_protein|mol2

> <Gold.PLP.Fitness>
44.3395

> <Gold.PLP.PLP>
-38.6127

> <Gold.PLP.part.hbond>
-2.7461

> <Gold.PLP.part.metal>
0.0000

> <Gold.PLP.part.buried>
-4.2714

> <Gold.PLP.part.nonpolar>
-33.1868

> <Gold.PLP.part.repulsive>
0.2023

> <Gold.PLP.ligand.clash>
0.0000

> <Gold.PLP.ligand.torsion>
0.3683

> <Gold.PLP.Chemscore.Hbond>
2.0000

> <Gold.PLP.Chemscore.CHOScore>
0.0000

> <Gold.PLP.Chemscore.Metal>
0.0000

> <Gold.Chemscore.Hbonds>
donor molecule, donor type, donor heavy atom, donor atom, acceptor molecule, acceptor atom, score
      L1  H     5    24       P1  7957  0.98
      P1  H  7997  8010       L1    17  0.95

> <Gold.PLP.Chemscore.Internal.Correction>
0.4635

> <Gold.Rescore>
     Score         DG    S(hbond)    S(metal)    S(lipo)     H(rot)  DE(clash)    DE(int)     intcor
     17.24     -17.66       1.54        0.00      95.47       1.62       0.09       0.33       ----

> <Gold.Chemscore.Fitness>
17.2441

> <Gold.Chemscore.DG>
-17.6633

> <Gold.Chemscore.ZeroCoef>
-5.4800

> <Gold.Chemscore.Hbond>
1.5434

> <Gold.Chemscore.Metal>
0.0000

> <Gold.Chemscore.Lipo>
95.4694

> <Gold.Chemscore.Internal_Hbond>
0.0000

> <Gold.Chemscore.DEClash>
0.0864

> <Gold.Chemscore.DEInternal>
0.3329

> <Gold.Chemscore.Rot>
1.6178

> <Gold.Chemscore.Internal.Correction>
   9.000000E+99

> <Gold.Chemscore.Hbonds>
donor molecule, donor type, donor heavy atom, donor atom, acceptor molecule, acceptor atom, score
      L1  H     5    24       P1  7957  0.91
      P1  H  7997  8010       L1    17  0.17

> <Gold.Chemscore.Hbond.Weighted>
-5.1550

> <Gold.Chemscore.Metal.Weighted>
-0.0000

> <Gold.Chemscore.Lipo.Weighted>
-11.1699

> <Gold.Chemscore.Internal_Hbond.Weighted>
0.0000

> <Gold.Chemscore.DEClash.Weighted>
0.0864

> <Gold.Chemscore.DEInternal.Weighted>
0.3329

> <Gold.Chemscore.Rot.Weighted>
4.1416

> <Gold.Chemscore.Internal.Correction.Weighted>
   9.000000E+99

> <Gold.Protein.RotatedTorsions>
[ 6907 6896 6895 6894 ] final   64.74 input  -60.11 | X-H torsion
[ 7974 7965 7964 7962 ] final   82.94 input  175.53 | X-H torsion
[ 8008 7997 7996 7995 ] final   74.44 input   59.86 | X-H torsion
[ 10167 10162 10161 10158 ] final  -71.70 input  -65.29 | X-H torsion
[ 10718 10713 10712 10709 ] final   -2.04 input   66.30 | X-H torsion
[ 10763 10752 10751 10750 ] final -133.51 input  -60.55 | X-H torsion
[ 11005 11000 10999 10996 ] final  -11.49 input  -57.11 | X-H torsion

> <Gold.Protein.ActiveResidues>
 VAL166  LYS551  ARG553  GLY616  TRP617  ASP618  TYR619  PRO620  LYS621  CYS622 
 ASP623  PHE694  ASN695  SER759  ASP760  ASP761  ALA762  ILE779  LEU786  VAL792 
 PHE793  MET794  SER795  GLU796  ALA797  LYS798  CYS799  TRP800  GLU811  SER814 

> <Gold.Protein.RotatedAtoms>
  152.4355  134.5695  159.9916 H   0  0  0  0  0  0  0  0  0  0  0  0  # atno 6907 bound_to 6896
  151.5807  133.3372  159.3016 H   0  0  0  0  0  0  0  0  0  0  0  0  # atno 6908 bound_to 6896
  150.8253  134.7515  159.6871 H   0  0  0  0  0  0  0  0  0  0  0  0  # atno 6909 bound_to 6896
  145.6185  139.2381  143.2152 H   0  0  0  0  0  0  0  0  0  0  0  0  # atno 7974 bound_to 7965
  155.7983  140.3477  155.5388 H   0  0  0  0  0  0  0  0  0  0  0  0  # atno 8008 bound_to 7997
  155.8563  140.0964  157.1662 H   0  0  0  0  0  0  0  0  0  0  0  0  # atno 8009 bound_to 7997
  154.4010  140.1367  156.3894 H   0  0  0  0  0  0  0  0  0  0  0  0  # atno 8010 bound_to 7997
  140.5252  143.2327  151.7360 H   0  0  0  0  0  0  0  0  0  0  0  0  # atno 10167 bound_to 10162
  156.7967  130.5379  149.5727 H   0  0  0  0  0  0  0  0  0  0  0  0  # atno 10718 bound_to 10713
  154.8731  135.3764  154.4584 H   0  0  0  0  0  0  0  0  0  0  0  0  # atno 10763 bound_to 10752
  153.5254  135.7028  153.5715 H   0  0  0  0  0  0  0  0  0  0  0  0  # atno 10764 bound_to 10752
  153.3943  135.3964  155.1910 H   0  0  0  0  0  0  0  0  0  0  0  0  # atno 10765 bound_to 10752
  140.7558  133.8555  155.9083 H   0  0  0  0  0  0  0  0  0  0  0  0  # atno 11005 bound_to 11000
  146.1450  140.7005  142.9349 LP  0  0  0  0  0  0  0  0  0  0  0  0  # atno 17320 bound_to 7965
  144.7241  140.4468  143.6986 LP  0  0  0  0  0  0  0  0  0  0  0  0  # atno 17321 bound_to 7965
  139.4936  144.4196  151.9992 LP  0  0  0  0  0  0  0  0  0  0  0  0  # atno 17342 bound_to 10162
  140.3295  144.3333  150.5990 LP  0  0  0  0  0  0  0  0  0  0  0  0  # atno 17343 bound_to 10162
  156.1126  130.6051  151.0071 LP  0  0  0  0  0  0  0  0  0  0  0  0  # atno 17370 bound_to 10713
  157.6574  131.0887  150.7916 LP  0  0  0  0  0  0  0  0  0  0  0  0  # atno 17371 bound_to 10713
  140.9709  134.1532  157.4577 LP  0  0  0  0  0  0  0  0  0  0  0  0  # atno 17394 bound_to 11000
  139.8779  134.9978  156.5866 LP  0  0  0  0  0  0  0  0  0  0  0  0  # atno 17395 bound_to 11000

$$$$
