AV-unprocessed.smi:1800|AV-procd|sdf|7265|dock2
  -GOLD-   22720 8513D 1   1.00000     0.00000
 Structure written by MMmdl.
 35 36  0  0  0  0  0  0  0  0  2 V2000
  151.8442  140.6303  157.9321 C   0  0  0  0  0  0  0  0  0  0  0  0
  152.6990  140.5253  159.2027 C   0  0  2  0  0  0  0  0  0  0  0  0
  153.0570  141.9218  159.7729 C   0  0  0  0  0  0  0  0  0  0  0  0
  152.4317  143.0387  159.0694 N   0  0  0  0  0  0  0  0  0  0  0  0
  153.0348  144.1144  158.4445 C   0  0  0  0  0  0  0  0  0  0  0  0
  152.0428  144.9031  157.9363 C   0  0  0  0  0  0  0  0  0  0  0  0
  150.8488  144.2283  158.3139 C   0  0  0  0  0  0  0  0  0  0  0  0
  151.0822  143.1245  159.0041 N   0  0  0  0  0  0  0  0  0  0  0  0
  153.9135  139.7830  158.8937 N   0  5  0  0  0  0  0  0  0  0  0  0
  155.0203  139.5320  160.0524 S   0  0  0  0  0  0  0  0  0  0  0  0
  155.9678  138.4584  159.7092 O   0  0  0  0  0  0  0  0  0  0  0  0
  155.5976  140.7922  160.5475 O   0  0  0  0  0  0  0  0  0  0  0  0
  153.9360  138.8764  161.4116 C   0  0  0  0  0  0  0  0  0  0  0  0
  154.7584  138.4467  162.6307 C   0  0  0  0  0  0  0  0  0  0  0  0
  155.2396  137.0315  162.3034 C   0  0  0  0  0  0  0  0  0  0  0  0
  154.1678  136.4280  161.3840 C   0  0  0  0  0  0  0  0  0  0  0  0
  153.2295  137.5801  160.9933 C   0  0  0  0  0  0  0  0  0  0  0  0
  150.9161  141.1672  158.1293 H   0  0  0  0  0  0  0  0  0  0  0  0
  151.5772  139.6424  157.5545 H   0  0  0  0  0  0  0  0  0  0  0  0
  152.3715  141.1606  157.1379 H   0  0  0  0  0  0  0  0  0  0  0  0
  152.0929  140.0093  159.9489 H   0  0  0  0  0  0  0  0  0  0  0  0
  152.7956  141.9779  160.8313 H   0  0  0  0  0  0  0  0  0  0  0  0
  154.1363  142.0698  159.7207 H   0  0  0  0  0  0  0  0  0  0  0  0
  154.1089  144.2205  158.4065 H   0  0  0  0  0  0  0  0  0  0  0  0
  152.1541  145.8203  157.3778 H   0  0  0  0  0  0  0  0  0  0  0  0
  149.8256  144.5091  158.1134 H   0  0  0  0  0  0  0  0  0  0  0  0
  153.2299  139.6632  161.6777 H   0  0  0  0  0  0  0  0  0  0  0  0
  155.5790  139.1247  162.8654 H   0  0  0  0  0  0  0  0  0  0  0  0
  154.1092  138.4123  163.5062 H   0  0  0  0  0  0  0  0  0  0  0  0
  156.1911  137.0817  161.7724 H   0  0  0  0  0  0  0  0  0  0  0  0
  155.3993  136.4351  163.2019 H   0  0  0  0  0  0  0  0  0  0  0  0
  154.6311  135.9856  160.5014 H   0  0  0  0  0  0  0  0  0  0  0  0
  153.6122  135.6377  161.8893 H   0  0  0  0  0  0  0  0  0  0  0  0
  152.2979  137.4868  161.5522 H   0  0  0  0  0  0  0  0  0  0  0  0
  152.9684  137.5661  159.9347 H   0  0  0  0  0  0  0  0  0  0  0  0
  1  2  1  0  0  0  0
  1 18  1  0  0  0  0
  1 19  1  0  0  0  0
  1 20  1  0  0  0  0
  2  3  1  0  0  0  0
  2  9  1  0  0  0  0
  2 21  1  0  0  0  0
  3  4  1  0  0  0  0
  3 22  1  0  0  0  0
  3 23  1  0  0  0  0
  4  8  1  0  0  0  0
  4  5  1  0  0  0  0
  5  6  2  0  0  0  0
  5 24  1  0  0  0  0
  6  7  1  0  0  0  0
  6 25  1  0  0  0  0
  7  8  2  0  0  0  0
  7 26  1  0  0  0  0
  9 10  1  0  0  0  0
 10 11  2  0  0  0  0
 10 12  2  0  0  0  0
 10 13  1  0  0  0  0
 13 17  1  0  0  0  0
 13 14  1  0  0  0  0
 13 27  1  0  0  0  0
 14 15  1  0  0  0  0
 14 28  1  0  0  0  0
 14 29  1  0  0  0  0
 15 16  1  0  0  0  0
 15 30  1  0  0  0  0
 15 31  1  0  0  0  0
 16 17  1  0  0  0  0
 16 32  1  0  0  0  0
 16 33  1  0  0  0  0
 17 34  1  0  0  0  0
 17 35  1  0  0  0  0
M  CHG  1   9  -1
M  END
> <s_m_source_file>
AV-unprocessed.smi

> <i_m_source_file_index>
1800

> <i_lp_mmshare_version>
43012

> <i_f3d_flags>
0

> <s_epik_input>
bjFbY0hdW2NIXVtjSF1uMVtDSDJdW0NAQEhdKFtDSDNdKVtOSF1TKD1PKSg9TylbQ0hdMltDSDJdW0NIMl1bQ0gyXVtDSDJdMg==

> <s_epik_cmdline>
J2VwaWtfcHl0aG9uJywgJy1waCcsICc3LjAnLCAnLXRuJywgJzgnLCAnLW1hJywgJzIwMCcsICctbWV0YWxfYmluZGluZycsICctaW1hZScsICc8aW5maWxlLm1hZT4nLCAnLW9tYWUnLCAnPG91dGZpbGUubWFlPic=

> <r_lp_tautomer_probability>
1

> <r_epik_Ionization_Penalty>
6.58538

> <r_epik_Ionization_Penalty_Charging>
6.58536

> <r_epik_Ionization_Penalty_Neutral>
2.3841e-05

> <r_epik_State_Penalty>
6.58535

> <r_epik_Charging_Adjusted_Penalty>
13.1707

> <i_epik_Tot_Q>
-1

> <i_epik_Tot_abs_Q>
1

> <r_epik_Metal_State_Penalty>
2.50999

> <b_epik_Metal_Only>
1

> <s_lp_Force_Field>
OPLS_2005

> <r_lp_Energy>
15.5641

> <b_lp_Chiralities_Consistent>
1

> <s_lp_Variant>
AV-unprocessed.smi:1800-3

> <Gold.Version>
5.8.1

> <Gold.Id.Protein>
6NUR|6NUR_protein|mol2

> <Gold.PLP.Fitness>
41.3588

> <Gold.PLP.PLP>
-33.6889

> <Gold.PLP.part.hbond>
-2.0000

> <Gold.PLP.part.metal>
0.0000

> <Gold.PLP.part.buried>
-3.6788

> <Gold.PLP.part.nonpolar>
-27.4013

> <Gold.PLP.part.repulsive>
0.0640

> <Gold.PLP.ligand.clash>
0.0000

> <Gold.PLP.ligand.torsion>
1.3388

> <Gold.PLP.Chemscore.Hbond>
2.0000

> <Gold.PLP.Chemscore.CHOScore>
1.0841

> <Gold.PLP.Chemscore.Metal>
0.0000

> <Gold.Chemscore.Hbonds>
donor molecule, donor type, donor heavy atom, donor atom, acceptor molecule, acceptor atom, score
      P1  H  7997  8010       L1     9  2.00
      L1  C     7    26       P1  8028  0.39
      L1  C     7    26       P1  8029  0.68

> <Gold.PLP.Chemscore.Internal.Correction>
1.0950

> <Gold.Rescore>
     Score         DG    S(hbond)    S(metal)    S(lipo)     H(rot)  DE(clash)    DE(int)     intcor
     11.78     -15.68       0.89        0.00      94.84       1.51       0.04       3.86       ----

> <Gold.Chemscore.Fitness>
11.7802

> <Gold.Chemscore.DG>
-15.6845

> <Gold.Chemscore.ZeroCoef>
-5.4800

> <Gold.Chemscore.Hbond>
0.8939

> <Gold.Chemscore.Metal>
0.0000

> <Gold.Chemscore.Lipo>
94.8405

> <Gold.Chemscore.Internal_Hbond>
0.0000

> <Gold.Chemscore.DEClash>
0.0447

> <Gold.Chemscore.DEInternal>
3.8597

> <Gold.Chemscore.Rot>
1.5146

> <Gold.Chemscore.Internal.Correction>
   9.000000E+99

> <Gold.Chemscore.Hbonds>
donor molecule, donor type, donor heavy atom, donor atom, acceptor molecule, acceptor atom, score
      P1  H  7997  8010       L1     9  0.39

> <Gold.Chemscore.Hbond.Weighted>
-2.9855

> <Gold.Chemscore.Metal.Weighted>
-0.0000

> <Gold.Chemscore.Lipo.Weighted>
-11.0963

> <Gold.Chemscore.Internal_Hbond.Weighted>
0.0000

> <Gold.Chemscore.DEClash.Weighted>
0.0447

> <Gold.Chemscore.DEInternal.Weighted>
3.8597

> <Gold.Chemscore.Rot.Weighted>
3.8773

> <Gold.Chemscore.Internal.Correction.Weighted>
   9.000000E+99

> <Gold.Protein.RotatedTorsions>
[ 6907 6896 6895 6894 ] final   21.16 input  -60.11 | X-H torsion
[ 7974 7965 7964 7962 ] final -121.65 input  175.53 | X-H torsion
[ 8008 7997 7996 7995 ] final    6.48 input   59.86 | X-H torsion
[ 10167 10162 10161 10158 ] final  -98.30 input  -65.29 | X-H torsion
[ 10718 10713 10712 10709 ] final  153.12 input   66.30 | X-H torsion
[ 10763 10752 10751 10750 ] final  155.25 input  -60.55 | X-H torsion
[ 11005 11000 10999 10996 ] final   33.64 input  -57.11 | X-H torsion

> <Gold.Protein.ActiveResidues>
 VAL166  LYS551  ARG553  GLY616  TRP617  ASP618  TYR619  PRO620  LYS621  CYS622 
 ASP623  PHE694  ASN695  SER759  ASP760  ASP761  ALA762  ILE779  LEU786  VAL792 
 PHE793  MET794  SER795  GLU796  ALA797  LYS798  CYS799  TRP800  GLU811  SER814 

> <Gold.Protein.RotatedAtoms>
  151.9075  135.0353  160.0511 H   0  0  0  0  0  0  0  0  0  0  0  0  # atno 6907 bound_to 6896
  152.2307  133.5051  159.5222 H   0  0  0  0  0  0  0  0  0  0  0  0  # atno 6908 bound_to 6896
  150.7025  134.1137  159.4052 H   0  0  0  0  0  0  0  0  0  0  0  0  # atno 6909 bound_to 6896
  145.0380  140.8122  143.4283 H   0  0  0  0  0  0  0  0  0  0  0  0  # atno 7974 bound_to 7965
  154.7416  140.2750  155.6368 H   0  0  0  0  0  0  0  0  0  0  0  0  # atno 8008 bound_to 7997
  156.2875  140.2696  156.2071 H   0  0  0  0  0  0  0  0  0  0  0  0  # atno 8009 bound_to 7997
  155.0251  140.0371  157.2442 H   0  0  0  0  0  0  0  0  0  0  0  0  # atno 8010 bound_to 7997
  140.2744  143.3323  152.0503 H   0  0  0  0  0  0  0  0  0  0  0  0  # atno 10167 bound_to 10162
  157.2489  131.0775  151.1743 H   0  0  0  0  0  0  0  0  0  0  0  0  # atno 10718 bound_to 10713
  154.1653  135.2807  155.3097 H   0  0  0  0  0  0  0  0  0  0  0  0  # atno 10763 bound_to 10752
  154.6116  135.5497  153.7483 H   0  0  0  0  0  0  0  0  0  0  0  0  # atno 10764 bound_to 10752
  153.0180  135.6417  154.1794 H   0  0  0  0  0  0  0  0  0  0  0  0  # atno 10765 bound_to 10752
  140.2611  134.3192  155.7857 H   0  0  0  0  0  0  0  0  0  0  0  0  # atno 11005 bound_to 11000
  145.1684  139.2418  143.5355 LP  0  0  0  0  0  0  0  0  0  0  0  0  # atno 17320 bound_to 7965
  146.3506  140.1429  142.8594 LP  0  0  0  0  0  0  0  0  0  0  0  0  # atno 17321 bound_to 7965
  139.4980  144.6635  151.6411 LP  0  0  0  0  0  0  0  0  0  0  0  0  # atno 17342 bound_to 10162
  140.5863  143.9857  150.6298 LP  0  0  0  0  0  0  0  0  0  0  0  0  # atno 17343 bound_to 10162
  157.3299  130.6980  149.6318 LP  0  0  0  0  0  0  0  0  0  0  0  0  # atno 17370 bound_to 10713
  155.9667  130.4310  150.4903 LP  0  0  0  0  0  0  0  0  0  0  0  0  # atno 17371 bound_to 10713
  141.2190  133.7410  156.9187 LP  0  0  0  0  0  0  0  0  0  0  0  0  # atno 17394 bound_to 11000
  140.1464  134.9259  157.2535 LP  0  0  0  0  0  0  0  0  0  0  0  0  # atno 17395 bound_to 11000

$$$$
