AV-unprocessed.smi:1703|AV-procd|sdf|6880|dock4
  -GOLD-   22720 8 83D 1   1.00000     0.00000
 Structure written by MMmdl.
 50 52  0  0  0  0  0  0  0  0  3 V2000
  141.7578  134.1564  158.1852 C   0  0  0  0  0  0  0  0  0  0  0  0
  142.2895  135.5900  158.0097 C   0  0  1  0  0  0  0  0  0  0  0  0
  142.6604  135.9347  156.5535 C   0  0  0  0  0  0  0  0  0  0  0  0
  141.4458  136.1363  155.7247 N   0  3  2  0  0  0  0  0  0  0  0  0
  141.7425  136.4249  154.2988 C   0  0  0  0  0  0  0  0  0  0  0  0
  142.4101  135.2351  153.5741 C   0  0  1  0  0  0  0  0  0  0  0  0
  141.4716  134.1871  153.4409 O   0  0  0  0  0  0  0  0  0  0  0  0
  142.9159  135.5794  152.1592 C   0  0  0  0  0  0  0  0  0  0  0  0
  144.3373  135.2497  151.9599 N   0  0  0  0  0  0  0  0  0  0  0  0
  145.4505  136.0087  152.1805 C   0  0  0  0  0  0  0  0  0  0  0  0
  145.4979  137.4155  152.6796 C   0  0  0  0  0  0  0  0  0  0  0  0
  146.0417  138.3034  151.7278 O   0  0  0  0  0  0  0  0  0  0  0  0
  146.5306  135.2498  151.8437 N   0  3  0  0  0  0  0  0  0  0  0  0
  146.1094  133.9950  151.4041 C   0  0  0  0  0  0  0  0  0  0  0  0
  146.8383  132.8966  150.9588 C   0  0  0  0  0  0  0  0  0  0  0  0
  146.0985  131.7593  150.5751 C   0  0  0  0  0  0  0  0  0  0  0  0
  144.6904  131.7441  150.6407 C   0  0  0  0  0  0  0  0  0  0  0  0
  143.9622  132.8639  151.0937 C   0  0  0  0  0  0  0  0  0  0  0  0
  144.7005  133.9853  151.4753 C   0  0  0  0  0  0  0  0  0  0  0  0
  140.5710  137.1611  156.3388 C   0  0  0  0  0  0  0  0  0  0  0  0
  140.2014  136.7600  157.7779 C   0  0  2  0  0  0  0  0  0  0  0  0
  139.3640  137.8364  158.4771 C   0  0  0  0  0  0  0  0  0  0  0  0
  141.3927  136.5682  158.5363 O   0  0  0  0  0  0  0  0  0  0  0  0
  142.5162  133.4264  157.9010 H   0  0  0  0  0  0  0  0  0  0  0  0
  140.8771  133.9620  157.5741 H   0  0  0  0  0  0  0  0  0  0  0  0
  141.4927  133.9652  159.2254 H   0  0  0  0  0  0  0  0  0  0  0  0
  143.1981  135.6627  158.6082 H   0  0  0  0  0  0  0  0  0  0  0  0
  143.2562  136.8487  156.5383 H   0  0  0  0  0  0  0  0  0  0  0  0
  143.2893  135.1469  156.1400 H   0  0  0  0  0  0  0  0  0  0  0  0
  140.8218  136.6774  153.7700 H   0  0  0  0  0  0  0  0  0  0  0  0
  142.3695  137.3160  154.2539 H   0  0  0  0  0  0  0  0  0  0  0  0
  143.2500  134.8571  154.1546 H   0  0  0  0  0  0  0  0  0  0  0  0
  141.9292  133.3606  153.4478 H   0  0  0  0  0  0  0  0  0  0  0  0
  142.3491  135.0204  151.4138 H   0  0  0  0  0  0  0  0  0  0  0  0
  142.7480  136.6310  151.9295 H   0  0  0  0  0  0  0  0  0  0  0  0
  144.4949  137.7468  152.9482 H   0  0  0  0  0  0  0  0  0  0  0  0
  146.1017  137.4571  153.5865 H   0  0  0  0  0  0  0  0  0  0  0  0
  145.4851  138.3006  150.9634 H   0  0  0  0  0  0  0  0  0  0  0  0
  147.9173  132.9066  150.9063 H   0  0  0  0  0  0  0  0  0  0  0  0
  146.6213  130.8817  150.2228 H   0  0  0  0  0  0  0  0  0  0  0  0
  144.1574  130.8546  150.3370 H   0  0  0  0  0  0  0  0  0  0  0  0
  142.8838  132.8341  151.1343 H   0  0  0  0  0  0  0  0  0  0  0  0
  141.0787  138.1273  156.3299 H   0  0  0  0  0  0  0  0  0  0  0  0
  139.6610  137.2712  155.7473 H   0  0  0  0  0  0  0  0  0  0  0  0
  139.6207  135.8375  157.7636 H   0  0  0  0  0  0  0  0  0  0  0  0
  138.4341  138.0226  157.9389 H   0  0  0  0  0  0  0  0  0  0  0  0
  139.9073  138.7796  158.5436 H   0  0  0  0  0  0  0  0  0  0  0  0
  139.1043  137.5300  159.4907 H   0  0  0  0  0  0  0  0  0  0  0  0
  140.9226  135.2727  155.7425 H   0  0  0  0  0  0  0  0  0  0  0  0
  147.4879  135.5716  151.9098 H   0  0  0  0  0  0  0  0  0  0  0  0
  1  2  1  0  0  0  0
  1 24  1  0  0  0  0
  1 25  1  0  0  0  0
  1 26  1  0  0  0  0
  2 23  1  0  0  0  0
  2  3  1  0  0  0  0
  2 27  1  0  0  0  0
  3  4  1  0  0  0  0
  3 28  1  0  0  0  0
  3 29  1  0  0  0  0
  4  5  1  0  0  0  0
  4 20  1  0  0  0  0
  4 49  1  0  0  0  0
  5  6  1  0  0  0  0
  5 30  1  0  0  0  0
  5 31  1  0  0  0  0
  6  7  1  0  0  0  0
  6  8  1  0  0  0  0
  6 32  1  0  0  0  0
  7 33  1  0  0  0  0
  8  9  1  0  0  0  0
  8 34  1  0  0  0  0
  8 35  1  0  0  0  0
  9 19  1  0  0  0  0
  9 10  1  0  0  0  0
 10 11  1  0  0  0  0
 10 13  2  0  0  0  0
 11 12  1  0  0  0  0
 11 36  1  0  0  0  0
 11 37  1  0  0  0  0
 12 38  1  0  0  0  0
 13 14  1  0  0  0  0
 13 50  1  0  0  0  0
 14 19  2  0  0  0  0
 14 15  1  0  0  0  0
 15 16  2  0  0  0  0
 15 39  1  0  0  0  0
 16 17  1  0  0  0  0
 16 40  1  0  0  0  0
 17 18  2  0  0  0  0
 17 41  1  0  0  0  0
 18 19  1  0  0  0  0
 18 42  1  0  0  0  0
 20 21  1  0  0  0  0
 20 43  1  0  0  0  0
 20 44  1  0  0  0  0
 21 22  1  0  0  0  0
 21 23  1  0  0  0  0
 21 45  1  0  0  0  0
 22 46  1  0  0  0  0
 22 47  1  0  0  0  0
 22 48  1  0  0  0  0
M  CHG  1   4   1
M  CHG  1  13   1
M  END
> <s_m_source_file>
AV-unprocessed.smi

> <i_m_source_file_index>
1703

> <i_lp_mmshare_version>
43012

> <i_f3d_flags>
0

> <s_epik_input>
W0NIM11bQ0BASF0xW0NIMl1OKFtDSDJdW0NASF0oTzEpW0NIM10pW0NIMl1bQ0BIXShbT0hdKVtDSDJdbihjKG4yKVtDSDJdW09IXSljKGMyMylbY0hdW2NIXVtjSF1bY0hdMw==

> <s_epik_cmdline>
J2VwaWtfcHl0aG9uJywgJy1waCcsICc3LjAnLCAnLXRuJywgJzgnLCAnLW1hJywgJzIwMCcsICctbWV0YWxfYmluZGluZycsICctaW1hZScsICc8aW5maWxlLm1hZT4nLCAnLW9tYWUnLCAnPG91dGZpbGUubWFlPic=

> <r_epik_Ionization_Penalty>
2.22579

> <r_epik_Ionization_Penalty_Charging>
2.22492

> <r_epik_Ionization_Penalty_Neutral>
0.000870007

> <r_epik_State_Penalty>
2.3141

> <r_epik_Charging_Adjusted_Penalty>
4.53902

> <i_epik_Tot_Q>
2

> <i_epik_Tot_abs_Q>
2

> <r_epik_Metal_State_Penalty>
6.36517

> <b_epik_Metal_Only>
0

> <s_lp_Force_Field>
OPLS_2005

> <r_lp_Energy>
31.7221

> <b_lp_Chiralities_Consistent>
1

> <s_lp_Variant>
AV-unprocessed.smi:1703-28

> <Gold.Version>
5.8.1

> <Gold.Id.Protein>
6NUR|6NUR_protein|mol2

> <Gold.PLP.Fitness>
48.2917

> <Gold.PLP.PLP>
-35.6448

> <Gold.PLP.part.hbond>
-5.3700

> <Gold.PLP.part.metal>
0.0000

> <Gold.PLP.part.buried>
-8.3165

> <Gold.PLP.part.nonpolar>
-22.8575

> <Gold.PLP.part.repulsive>
0.0826

> <Gold.PLP.ligand.clash>
0.0000

> <Gold.PLP.ligand.torsion>
1.1955

> <Gold.PLP.Chemscore.Hbond>
5.0000

> <Gold.PLP.Chemscore.CHOScore>
0.0000

> <Gold.PLP.Chemscore.Metal>
0.0000

> <Gold.Chemscore.Hbonds>
donor molecule, donor type, donor heavy atom, donor atom, acceptor molecule, acceptor atom, score
      L1  H     7    33       P1 10957  0.53
      L1  H    12    38       P1 10171  1.00
      L1  H    13    50       P1  7948  2.00

> <Gold.PLP.Chemscore.Internal.Correction>
0.0378

> <Gold.Rescore>
     Score         DG    S(hbond)    S(metal)    S(lipo)     H(rot)  DE(clash)    DE(int)     intcor
     16.93     -18.10       3.63        0.00      70.70       3.04       0.05       1.11       ----

> <Gold.Chemscore.Fitness>
16.9337

> <Gold.Chemscore.DG>
-18.0956

> <Gold.Chemscore.ZeroCoef>
-5.4800

> <Gold.Chemscore.Hbond>
3.6288

> <Gold.Chemscore.Metal>
0.0000

> <Gold.Chemscore.Lipo>
70.7017

> <Gold.Chemscore.Internal_Hbond>
0.0000

> <Gold.Chemscore.DEClash>
0.0538

> <Gold.Chemscore.DEInternal>
1.1082

> <Gold.Chemscore.Rot>
3.0378

> <Gold.Chemscore.Internal.Correction>
   9.000000E+99

> <Gold.Chemscore.Hbonds>
donor molecule, donor type, donor heavy atom, donor atom, acceptor molecule, acceptor atom, score
      L1  H     7    33       P1 10957  0.50
      L1  H    12    38       P1 10171  0.96
      L1  H    13    50       P1  7948  0.97

> <Gold.Chemscore.Hbond.Weighted>
-12.1202

> <Gold.Chemscore.Metal.Weighted>
-0.0000

> <Gold.Chemscore.Lipo.Weighted>
-8.2721

> <Gold.Chemscore.Internal_Hbond.Weighted>
0.0000

> <Gold.Chemscore.DEClash.Weighted>
0.0538

> <Gold.Chemscore.DEInternal.Weighted>
1.1082

> <Gold.Chemscore.Rot.Weighted>
7.7767

> <Gold.Chemscore.Internal.Correction.Weighted>
   9.000000E+99

> <Gold.Protein.RotatedTorsions>
[ 6907 6896 6895 6894 ] final   24.66 input  -60.11 | X-H torsion
[ 7974 7965 7964 7962 ] final  -20.45 input  175.53 | X-H torsion
[ 8008 7997 7996 7995 ] final  160.54 input   59.86 | X-H torsion
[ 10167 10162 10161 10158 ] final  -66.64 input  -65.29 | X-H torsion
[ 10718 10713 10712 10709 ] final  -23.01 input   66.30 | X-H torsion
[ 10763 10752 10751 10750 ] final   11.61 input  -60.55 | X-H torsion
[ 11005 11000 10999 10996 ] final    3.62 input  -57.11 | X-H torsion

> <Gold.Protein.ActiveResidues>
 VAL166  LYS551  ARG553  GLY616  TRP617  ASP618  TYR619  PRO620  LYS621  CYS622 
 ASP623  PHE694  ASN695  SER759  ASP760  ASP761  ALA762  ILE779  LEU786  VAL792 
 PHE793  MET794  SER795  GLU796  ALA797  LYS798  CYS799  TRP800  GLU811  SER814 

> <Gold.Protein.RotatedAtoms>
  151.9608  135.0124  160.0547 H   0  0  0  0  0  0  0  0  0  0  0  0  # atno 6907 bound_to 6896
  152.1870  133.4742  159.4996 H   0  0  0  0  0  0  0  0  0  0  0  0  # atno 6908 bound_to 6896
  150.6928  134.1678  159.4243 H   0  0  0  0  0  0  0  0  0  0  0  0  # atno 6909 bound_to 6896
  146.1787  140.4204  142.8503 H   0  0  0  0  0  0  0  0  0  0  0  0  # atno 7974 bound_to 7965
  156.2165  140.1801  156.7576 H   0  0  0  0  0  0  0  0  0  0  0  0  # atno 8008 bound_to 7997
  154.5800  140.0668  156.9119 H   0  0  0  0  0  0  0  0  0  0  0  0  # atno 8009 bound_to 7997
  155.2520  140.3329  155.4284 H   0  0  0  0  0  0  0  0  0  0  0  0  # atno 8010 bound_to 7997
  140.5642  143.2314  151.6667 H   0  0  0  0  0  0  0  0  0  0  0  0  # atno 10167 bound_to 10162
  156.4968  130.4579  149.6724 H   0  0  0  0  0  0  0  0  0  0  0  0  # atno 10718 bound_to 10713
  153.1908  135.6842  153.8355 H   0  0  0  0  0  0  0  0  0  0  0  0  # atno 10763 bound_to 10752
  153.7655  135.3203  155.3345 H   0  0  0  0  0  0  0  0  0  0  0  0  # atno 10764 bound_to 10752
  154.8116  135.4713  154.0629 H   0  0  0  0  0  0  0  0  0  0  0  0  # atno 10765 bound_to 10752
  140.5911  133.9923  155.8089 H   0  0  0  0  0  0  0  0  0  0  0  0  # atno 11005 bound_to 11000
  144.8279  140.6659  143.6310 LP  0  0  0  0  0  0  0  0  0  0  0  0  # atno 17320 bound_to 7965
  145.4137  139.1575  143.4112 LP  0  0  0  0  0  0  0  0  0  0  0  0  # atno 17321 bound_to 7965
  139.5085  144.3610  152.0562 LP  0  0  0  0  0  0  0  0  0  0  0  0  # atno 17342 bound_to 10162
  140.2740  144.3933  150.6141 LP  0  0  0  0  0  0  0  0  0  0  0  0  # atno 17343 bound_to 10162
  156.3372  130.7363  151.2302 LP  0  0  0  0  0  0  0  0  0  0  0  0  # atno 17370 bound_to 10713
  157.7467  131.0413  150.4642 LP  0  0  0  0  0  0  0  0  0  0  0  0  # atno 17371 bound_to 10713
  141.0934  133.9881  157.3200 LP  0  0  0  0  0  0  0  0  0  0  0  0  # atno 17394 bound_to 11000
  139.9274  135.0201  156.8281 LP  0  0  0  0  0  0  0  0  0  0  0  0  # atno 17395 bound_to 11000

$$$$
