AV-unprocessed.smi:287|AV-procd|sdf|2189|dock6
  -GOLD-   2262021583D 1   1.00000     0.00000
 Structure written by MMmdl.
 55 58  0  0  0  0  0  0  0  0  1 V2000
  153.1671  142.5956  162.5007 C   0  0  0  0  0  0  0  0  0  0  0  0
  152.6155  142.4511  161.1240 C   0  0  0  0  0  0  0  0  0  0  0  0
  152.3926  141.3844  160.3033 C   0  0  0  0  0  0  0  0  0  0  0  0
  151.8515  141.8899  159.0835 C   0  0  0  0  0  0  0  0  0  0  0  0
  151.4574  141.0590  157.8694 C   0  0  1  0  0  0  0  0  0  0  0  0
  151.1226  141.9864  156.6895 C   0  0  0  0  0  0  0  0  0  0  0  0
  152.5050  140.2280  157.4079 O   0  0  0  0  0  0  0  0  0  0  0  0
  150.2645  140.1191  158.1614 C   0  0  0  0  0  0  0  0  0  0  0  0
  149.9681  139.2160  157.0537 N   0  0  0  0  0  0  0  0  0  0  0  0
  148.7436  139.2175  156.4874 C   0  0  0  0  0  0  0  0  0  0  0  0
  147.9318  140.3017  156.5813 N   0  0  0  0  0  0  0  0  0  0  0  0
  146.7231  140.2774  156.0146 C   0  0  0  0  0  0  0  0  0  0  0  0
  146.1454  139.2908  155.3266 N   0  0  0  0  0  0  0  0  0  0  0  0
  146.9531  138.1944  155.2263 C   0  0  0  0  0  0  0  0  0  0  0  0
  148.2622  138.0876  155.7771 C   0  0  0  0  0  0  0  0  0  0  0  0
  148.7994  136.8434  155.4834 N   0  0  0  0  0  0  0  0  0  0  0  0
  147.8613  136.2524  154.7957 C   0  0  0  0  0  0  0  0  0  0  0  0
  146.7070  136.9811  154.6028 N   0  0  0  0  0  0  0  0  0  0  0  0
  145.5009  136.5260  153.8260 C   0  0  2  0  0  0  0  0  0  0  0  0
  145.7478  135.2446  153.3418 O   0  0  0  0  0  0  0  0  0  0  0  0
  146.1798  135.3228  151.9935 C   0  0  1  0  0  0  0  0  0  0  0  0
  145.9510  133.9807  151.2758 C   0  0  0  0  0  0  0  0  0  0  0  0
  146.9820  133.0526  151.5449 O   0  0  0  0  0  0  0  0  0  0  0  0
  145.4707  136.5544  151.4044 C   0  0  2  0  0  0  0  0  0  0  0  0
  146.3324  137.2267  150.5080 O   0  0  0  0  0  0  0  0  0  0  0  0
  145.1622  137.4309  152.6243 C   0  0  1  0  0  0  0  0  0  0  0  0
  143.7944  137.7875  152.6311 O   0  0  0  0  0  0  0  0  0  0  0  0
  151.7719  143.2490  159.2725 C   0  0  0  0  0  0  0  0  0  0  0  0
  151.2971  144.3881  158.4319 C   0  0  0  0  0  0  0  0  0  0  0  0
  152.2364  143.5971  160.5051 O   0  0  0  0  0  0  0  0  0  0  0  0
  144.7093  136.4955  154.5761 H   0  0  0  0  0  0  0  0  0  0  0  0
  147.2552  135.4957  152.0314 H   0  0  0  0  0  0  0  0  0  0  0  0
  144.5535  136.2793  150.8829 H   0  0  0  0  0  0  0  0  0  0  0  0
  145.7476  138.3498  152.6574 H   0  0  0  0  0  0  0  0  0  0  0  0
  153.5160  141.6360  162.8827 H   0  0  0  0  0  0  0  0  0  0  0  0
  152.4073  142.9757  163.1836 H   0  0  0  0  0  0  0  0  0  0  0  0
  154.0091  143.2880  162.5093 H   0  0  0  0  0  0  0  0  0  0  0  0
  152.6036  140.3534  160.5461 H   0  0  0  0  0  0  0  0  0  0  0  0
  150.2936  142.6520  156.9331 H   0  0  0  0  0  0  0  0  0  0  0  0
  150.8360  141.4194  155.8031 H   0  0  0  0  0  0  0  0  0  0  0  0
  151.9757  142.6112  156.4211 H   0  0  0  0  0  0  0  0  0  0  0  0
  152.2651  139.3280  157.5669 H   0  0  0  0  0  0  0  0  0  0  0  0
  150.5184  139.4981  159.0219 H   0  0  0  0  0  0  0  0  0  0  0  0
  149.3754  140.6875  158.4391 H   0  0  0  0  0  0  0  0  0  0  0  0
  150.6769  138.5267  156.8448 H   0  0  0  0  0  0  0  0  0  0  0  0
  146.1339  141.1751  156.1308 H   0  0  0  0  0  0  0  0  0  0  0  0
  147.9877  135.2525  154.4061 H   0  0  0  0  0  0  0  0  0  0  0  0
  145.0099  133.5431  151.6087 H   0  0  0  0  0  0  0  0  0  0  0  0
  145.8695  134.1318  150.1992 H   0  0  0  0  0  0  0  0  0  0  0  0
  147.5314  132.9833  150.7791 H   0  0  0  0  0  0  0  0  0  0  0  0
  145.8098  137.7965  149.9637 H   0  0  0  0  0  0  0  0  0  0  0  0
  143.7313  138.7304  152.6083 H   0  0  0  0  0  0  0  0  0  0  0  0
  150.2813  144.2105  158.0779 H   0  0  0  0  0  0  0  0  0  0  0  0
  151.9417  144.5211  157.5628 H   0  0  0  0  0  0  0  0  0  0  0  0
  151.2962  145.3217  158.9954 H   0  0  0  0  0  0  0  0  0  0  0  0
  1  2  1  0  0  0  0
  1 35  1  0  0  0  0
  1 36  1  0  0  0  0
  1 37  1  0  0  0  0
  2 30  1  0  0  0  0
  2  3  2  0  0  0  0
  3  4  1  0  0  0  0
  3 38  1  0  0  0  0
  4  5  1  0  0  0  0
  4 28  2  0  0  0  0
  5  6  1  0  0  0  0
  5  7  1  0  0  0  0
  5  8  1  0  0  0  0
  6 39  1  0  0  0  0
  6 40  1  0  0  0  0
  6 41  1  0  0  0  0
  7 42  1  0  0  0  0
  8  9  1  0  0  0  0
  8 43  1  0  0  0  0
  8 44  1  0  0  0  0
  9 10  1  0  0  0  0
  9 45  1  0  0  0  0
 10 15  1  0  0  0  0
 10 11  2  0  0  0  0
 11 12  1  0  0  0  0
 12 13  2  0  0  0  0
 12 46  1  0  0  0  0
 13 14  1  0  0  0  0
 14 18  1  0  0  0  0
 14 15  2  0  0  0  0
 15 16  1  0  0  0  0
 16 17  2  0  0  0  0
 17 18  1  0  0  0  0
 17 47  1  0  0  0  0
 18 19  1  0  0  0  0
 19 31  1  0  0  0  0
 19 26  1  0  0  0  0
 19 20  1  0  0  0  0
 20 21  1  0  0  0  0
 21 32  1  0  0  0  0
 21 22  1  0  0  0  0
 21 24  1  0  0  0  0
 22 23  1  0  0  0  0
 22 48  1  0  0  0  0
 22 49  1  0  0  0  0
 23 50  1  0  0  0  0
 24 33  1  0  0  0  0
 24 25  1  0  0  0  0
 24 26  1  0  0  0  0
 25 51  1  0  0  0  0
 26 34  1  0  0  0  0
 26 27  1  0  0  0  0
 27 52  1  0  0  0  0
 28 29  1  0  0  0  0
 28 30  1  0  0  0  0
 29 53  1  0  0  0  0
 29 54  1  0  0  0  0
 29 55  1  0  0  0  0
M  END
> <s_m_source_file>
AV-unprocessed.smi

> <i_m_source_file_index>
287

> <i_lp_mmshare_version>
43012

> <i_f3d_flags>
0

> <s_epik_input>
W0NIM11jMVtjSF1jKGMobzEpW0NIM10pW0NAQF0oW0NIM10pKFtPSF0pW0NIMl1bTkhdYyhuW2NIXW4yKWMoYzIzKW5bY0hdbjNbQ0BASF00T1tDQEhdKFtDSDJdW09IXSlbQ0BASF0oW09IXSlbQ0BIXTRbT0hd

> <s_epik_cmdline>
J2VwaWtfcHl0aG9uJywgJy1waCcsICc3LjAnLCAnLXRuJywgJzgnLCAnLW1hJywgJzIwMCcsICctbWV0YWxfYmluZGluZycsICctaW1hZScsICc8aW5maWxlLm1hZT4nLCAnLW9tYWUnLCAnPG91dGZpbGUubWFlPic=

> <r_lp_tautomer_probability>
1

> <r_epik_Ionization_Penalty>
0.000992612

> <r_epik_Ionization_Penalty_Charging>
0

> <r_epik_Ionization_Penalty_Neutral>
0.000992612

> <r_epik_State_Penalty>
-0

> <r_epik_Charging_Adjusted_Penalty>
0

> <i_epik_Tot_Q>
0

> <i_epik_Tot_abs_Q>
0

> <r_epik_Metal_State_Penalty>
-0

> <b_epik_Metal_Only>
0

> <s_epik_Chemistry_Notes>
This compound contains an acetal/aminal-like group ( X-CH(R)-Y where X, Y are N, S, or O) that may be acid/base labile, releasing an aldehyde.

> <s_lp_Force_Field>
OPLS_2005

> <r_lp_Energy>
40.6201

> <b_lp_Chiralities_Consistent>
1

> <s_lp_Variant>
AV-unprocessed.smi:287-13

> <Gold.Version>
5.8.1

> <Gold.Id.Protein>
6NUR|6NUR_protein|mol2

> <Gold.PLP.Fitness>
48.5210

> <Gold.PLP.PLP>
-39.0152

> <Gold.PLP.part.hbond>
-5.9828

> <Gold.PLP.part.metal>
0.0000

> <Gold.PLP.part.buried>
-0.9562

> <Gold.PLP.part.nonpolar>
-30.5698

> <Gold.PLP.part.repulsive>
0.2911

> <Gold.PLP.ligand.clash>
0.9197

> <Gold.PLP.ligand.torsion>
0.5342

> <Gold.PLP.Chemscore.Hbond>
3.7123

> <Gold.PLP.Chemscore.CHOScore>
0.0791

> <Gold.PLP.Chemscore.Metal>
0.0000

> <Gold.Chemscore.Hbonds>
donor molecule, donor type, donor heavy atom, donor atom, acceptor molecule, acceptor atom, score
      L1  H    25    51       P1 10171  0.74
      L1  H    27    52       P1 10175  1.00
      P1  H  7954  7966       L1    25  0.75
      P1  H  7997  8010       L1     7  0.98
      L1  C    17    47       P1  7948  0.03

> <Gold.PLP.Chemscore.Internal.Correction>
0.1198

> <Gold.Rescore>
     Score         DG    S(hbond)    S(metal)    S(lipo)     H(rot)  DE(clash)    DE(int)     intcor
     11.71     -13.31       2.87        0.00     100.34       5.27       0.13       1.47       ----

> <Gold.Chemscore.Fitness>
11.7124

> <Gold.Chemscore.DG>
-13.3105

> <Gold.Chemscore.ZeroCoef>
-5.4800

> <Gold.Chemscore.Hbond>
2.8666

> <Gold.Chemscore.Metal>
0.0000

> <Gold.Chemscore.Lipo>
100.3425

> <Gold.Chemscore.Internal_Hbond>
0.0000

> <Gold.Chemscore.DEClash>
0.1255

> <Gold.Chemscore.DEInternal>
1.4726

> <Gold.Chemscore.Rot>
5.2672

> <Gold.Chemscore.Internal.Correction>
   9.000000E+99

> <Gold.Chemscore.Hbonds>
donor molecule, donor type, donor heavy atom, donor atom, acceptor molecule, acceptor atom, score
      L1  H    25    51       P1 10171  0.73
      L1  H    27    52       P1 10175  1.00
      P1  H  7954  7966       L1    25  0.12
      P1  H  7997  8010       L1     7  0.39

> <Gold.Chemscore.Hbond.Weighted>
-9.5743

> <Gold.Chemscore.Metal.Weighted>
-0.0000

> <Gold.Chemscore.Lipo.Weighted>
-11.7401

> <Gold.Chemscore.Internal_Hbond.Weighted>
0.0000

> <Gold.Chemscore.DEClash.Weighted>
0.1255

> <Gold.Chemscore.DEInternal.Weighted>
1.4726

> <Gold.Chemscore.Rot.Weighted>
13.4839

> <Gold.Chemscore.Internal.Correction.Weighted>
   9.000000E+99

> <Gold.Protein.RotatedTorsions>
[ 6907 6896 6895 6894 ] final  -84.01 input  -60.11 | X-H torsion
[ 7974 7965 7964 7962 ] final  163.31 input  175.53 | X-H torsion
[ 8008 7997 7996 7995 ] final   63.79 input   59.86 | X-H torsion
[ 10167 10162 10161 10158 ] final -179.35 input  -65.29 | X-H torsion
[ 10718 10713 10712 10709 ] final  -48.11 input   66.30 | X-H torsion
[ 10763 10752 10751 10750 ] final  -97.54 input  -60.55 | X-H torsion
[ 11005 11000 10999 10996 ] final  110.85 input  -57.11 | X-H torsion

> <Gold.Protein.ActiveResidues>
 VAL166  LYS551  ARG553  GLY616  TRP617  ASP618  TYR619  PRO620  LYS621  CYS622 
 ASP623  PHE694  ASN695  SER759  ASP760  ASP761  ALA762  ILE779  LEU786  VAL792 
 PHE793  MET794  SER795  GLU796  ALA797  LYS798  CYS799  TRP800  GLU811  SER814 

> <Gold.Protein.RotatedAtoms>
  150.6880  134.3424  159.4873 H   0  0  0  0  0  0  0  0  0  0  0  0  # atno 6907 bound_to 6896
  152.1276  134.9156  160.0569 H   0  0  0  0  0  0  0  0  0  0  0  0  # atno 6908 bound_to 6896
  152.0339  133.3914  159.4345 H   0  0  0  0  0  0  0  0  0  0  0  0  # atno 6909 bound_to 6896
  144.7596  139.8164  143.6337 H   0  0  0  0  0  0  0  0  0  0  0  0  # atno 7974 bound_to 7965
  155.6358  140.3496  155.4698 H   0  0  0  0  0  0  0  0  0  0  0  0  # atno 8008 bound_to 7997
  155.9966  140.1204  157.0611 H   0  0  0  0  0  0  0  0  0  0  0  0  # atno 8009 bound_to 7997
  154.4235  140.1109  156.5625 H   0  0  0  0  0  0  0  0  0  0  0  0  # atno 8010 bound_to 7997
  139.5390  144.2416  152.0855 H   0  0  0  0  0  0  0  0  0  0  0  0  # atno 10167 bound_to 10162
  156.2020  130.4156  149.9229 H   0  0  0  0  0  0  0  0  0  0  0  0  # atno 10718 bound_to 10713
  154.7337  135.5042  153.9006 H   0  0  0  0  0  0  0  0  0  0  0  0  # atno 10763 bound_to 10752
  153.0974  135.6676  153.9745 H   0  0  0  0  0  0  0  0  0  0  0  0  # atno 10764 bound_to 10752
  153.9540  135.3055  155.3416 H   0  0  0  0  0  0  0  0  0  0  0  0  # atno 10765 bound_to 10752
  139.8890  134.9494  156.6342 H   0  0  0  0  0  0  0  0  0  0  0  0  # atno 11005 bound_to 11000
  146.1644  139.4770  142.9967 LP  0  0  0  0  0  0  0  0  0  0  0  0  # atno 17320 bound_to 7965
  145.6664  141.0227  143.1681 LP  0  0  0  0  0  0  0  0  0  0  0  0  # atno 17321 bound_to 7965
  140.1891  144.4769  150.6488 LP  0  0  0  0  0  0  0  0  0  0  0  0  # atno 17342 bound_to 10162
  140.6611  143.2252  151.5854 LP  0  0  0  0  0  0  0  0  0  0  0  0  # atno 17343 bound_to 10162
  156.6935  130.8905  151.3591 LP  0  0  0  0  0  0  0  0  0  0  0  0  # atno 17370 bound_to 10713
  157.6991  130.9313  150.0731 LP  0  0  0  0  0  0  0  0  0  0  0  0  # atno 17371 bound_to 10713
  140.7643  133.8791  155.8442 LP  0  0  0  0  0  0  0  0  0  0  0  0  # atno 17394 bound_to 11000
  140.9895  134.1297  157.4421 LP  0  0  0  0  0  0  0  0  0  0  0  0  # atno 17395 bound_to 11000

$$$$
