AV-unprocessed.smi:208|AV-procd|sdf|1605|dock5
  -GOLD-   2262019523D 1   1.00000     0.00000
 Structure written by MMmdl.
 50 53  0  0  0  0  0  0  0  0  1 V2000
  152.6368  144.4218  158.3932 C   0  0  0  0  0  0  0  0  0  0  0  0
  152.0219  143.0272  158.1901 C   0  0  0  0  0  0  0  0  0  0  0  0
  151.9555  142.1188  159.4426 C   0  0  2  0  0  0  0  0  0  0  0  0
  151.9789  142.9194  160.7678 C   0  0  0  0  0  0  0  0  0  0  0  0
  151.1458  143.8134  160.9241 O   0  0  0  0  0  0  0  0  0  0  0  0
  152.8950  142.6140  161.7183 N   0  0  0  0  0  0  0  0  0  0  0  0
  152.9216  143.3333  162.9923 C   0  0  0  0  0  0  0  0  0  0  0  0
  153.8978  141.5514  161.5751 C   0  0  0  0  0  0  0  0  0  0  0  0
  154.2097  141.2301  160.1080 C   0  0  0  0  0  0  0  0  0  0  0  0
  152.9720  141.0612  159.3566 N   0  0  0  0  0  0  0  0  0  0  0  0
  152.5435  139.7805  159.2723 C   0  0  0  0  0  0  0  0  0  0  0  0
  153.1967  138.8588  160.0222 N   0  0  0  0  0  0  0  0  0  0  0  0
  152.8139  137.5787  159.9910 C   0  0  0  0  0  0  0  0  0  0  0  0
  151.8189  137.0214  159.2977 N   0  0  0  0  0  0  0  0  0  0  0  0
  151.1526  137.9477  158.5508 C   0  0  0  0  0  0  0  0  0  0  0  0
  151.4430  139.3395  158.4832 C   0  0  0  0  0  0  0  0  0  0  0  0
  150.5396  139.9708  157.6367 N   0  0  0  0  0  0  0  0  0  0  0  0
  149.7641  139.0071  157.2226 C   0  0  0  0  0  0  0  0  0  0  0  0
  150.0682  137.7563  157.7117 N   0  0  0  0  0  0  0  0  0  0  0  0
  149.3694  136.5155  157.4121 C   0  0  0  0  0  0  0  0  0  0  0  0
  148.4071  136.0475  158.5240 C   0  0  0  0  0  0  0  0  0  0  0  0
  148.0914  134.5478  158.3817 C   0  0  0  0  0  0  0  0  0  0  0  0
  149.2207  133.7504  158.6764 O   0  0  0  0  0  0  0  0  0  0  0  0
  148.7659  136.4828  159.9522 C   0  0  0  0  0  0  0  0  0  0  0  0
  147.4363  136.9908  160.1893 O   0  0  0  0  0  0  0  0  0  0  0  0
  147.1834  136.9415  158.7692 C   0  0  0  0  0  0  0  0  0  0  0  0
  152.5528  145.0111  157.4800 H   0  0  0  0  0  0  0  0  0  0  0  0
  153.6968  144.3592  158.6363 H   0  0  0  0  0  0  0  0  0  0  0  0
  152.1357  144.9764  159.1867 H   0  0  0  0  0  0  0  0  0  0  0  0
  151.0134  143.1547  157.7942 H   0  0  0  0  0  0  0  0  0  0  0  0
  152.5744  142.5106  157.4043 H   0  0  0  0  0  0  0  0  0  0  0  0
  150.9659  141.6604  159.4105 H   0  0  0  0  0  0  0  0  0  0  0  0
  153.2613  144.3588  162.8413 H   0  0  0  0  0  0  0  0  0  0  0  0
  153.5893  142.8625  163.7149 H   0  0  0  0  0  0  0  0  0  0  0  0
  151.9296  143.3640  163.4457 H   0  0  0  0  0  0  0  0  0  0  0  0
  154.8226  141.8287  162.0825 H   0  0  0  0  0  0  0  0  0  0  0  0
  153.5212  140.6600  162.0781 H   0  0  0  0  0  0  0  0  0  0  0  0
  154.7858  142.0443  159.6708 H   0  0  0  0  0  0  0  0  0  0  0  0
  154.8439  140.3441  160.0430 H   0  0  0  0  0  0  0  0  0  0  0  0
  153.3867  136.9048  160.6106 H   0  0  0  0  0  0  0  0  0  0  0  0
  148.9468  139.1820  156.5379 H   0  0  0  0  0  0  0  0  0  0  0  0
  148.8310  136.6553  156.4741 H   0  0  0  0  0  0  0  0  0  0  0  0
  150.1154  135.7472  157.2055 H   0  0  0  0  0  0  0  0  0  0  0  0
  147.2625  134.2466  159.0223 H   0  0  0  0  0  0  0  0  0  0  0  0
  147.7804  134.3177  157.3620 H   0  0  0  0  0  0  0  0  0  0  0  0
  148.9233  132.9350  159.0506 H   0  0  0  0  0  0  0  0  0  0  0  0
  149.0295  135.6594  160.6168 H   0  0  0  0  0  0  0  0  0  0  0  0
  149.5092  137.2791  160.0049 H   0  0  0  0  0  0  0  0  0  0  0  0
  147.2564  137.9292  158.3108 H   0  0  0  0  0  0  0  0  0  0  0  0
  146.2300  136.4702  158.5278 H   0  0  0  0  0  0  0  0  0  0  0  0
  1  2  1  0  0  0  0
  1 27  1  0  0  0  0
  1 28  1  0  0  0  0
  1 29  1  0  0  0  0
  2  3  1  0  0  0  0
  2 30  1  0  0  0  0
  2 31  1  0  0  0  0
  3 10  1  0  0  0  0
  3  4  1  0  0  0  0
  3 32  1  0  0  0  0
  4  5  2  0  0  0  0
  4  6  1  0  0  0  0
  6  7  1  0  0  0  0
  6  8  1  0  0  0  0
  7 33  1  0  0  0  0
  7 34  1  0  0  0  0
  7 35  1  0  0  0  0
  8  9  1  0  0  0  0
  8 36  1  0  0  0  0
  8 37  1  0  0  0  0
  9 10  1  0  0  0  0
  9 38  1  0  0  0  0
  9 39  1  0  0  0  0
 10 11  1  0  0  0  0
 11 16  1  0  0  0  0
 11 12  2  0  0  0  0
 12 13  1  0  0  0  0
 13 14  2  0  0  0  0
 13 40  1  0  0  0  0
 14 15  1  0  0  0  0
 15 19  1  0  0  0  0
 15 16  2  0  0  0  0
 16 17  1  0  0  0  0
 17 18  2  0  0  0  0
 18 19  1  0  0  0  0
 18 41  1  0  0  0  0
 19 20  1  0  0  0  0
 20 21  1  0  0  0  0
 20 42  1  0  0  0  0
 20 43  1  0  0  0  0
 21 26  1  0  0  0  0
 21 22  1  0  0  0  0
 21 24  1  0  0  0  0
 22 23  1  0  0  0  0
 22 44  1  0  0  0  0
 22 45  1  0  0  0  0
 23 46  1  0  0  0  0
 24 25  1  0  0  0  0
 24 47  1  0  0  0  0
 24 48  1  0  0  0  0
 25 26  1  0  0  0  0
 26 49  1  0  0  0  0
 26 50  1  0  0  0  0
M  END
> <s_m_source_file>
AV-unprocessed.smi

> <i_m_source_file_index>
208

> <i_lp_mmshare_version>
43012

> <i_f3d_flags>
0

> <s_epik_input>
W0NIM11bQ0gyXVtDQEBIXTFDKD1PKU4oW0NIM10pW0NIMl1bQ0gyXU4xYyhuW2NIXW4yKWMoYzIzKW5bY0hdbjNbQ0gyXUM0KFtDSDJdW09IXSlbQ0gyXU9bQ0gyXTQ=

> <s_epik_cmdline>
J2VwaWtfcHl0aG9uJywgJy1waCcsICc3LjAnLCAnLXRuJywgJzgnLCAnLW1hJywgJzIwMCcsICctbWV0YWxfYmluZGluZycsICctaW1hZScsICc8aW5maWxlLm1hZT4nLCAnLW9tYWUnLCAnPG91dGZpbGUubWFlPic=

> <r_lp_tautomer_probability>
1

> <r_epik_Ionization_Penalty>
0.000581289

> <r_epik_Ionization_Penalty_Charging>
0

> <r_epik_Ionization_Penalty_Neutral>
0.000581289

> <r_epik_State_Penalty>
0.000280365

> <r_epik_Charging_Adjusted_Penalty>
0.000280365

> <i_epik_Tot_Q>
0

> <i_epik_Tot_abs_Q>
0

> <r_epik_Metal_State_Penalty>
-0

> <b_epik_Metal_Only>
0

> <s_lp_Force_Field>
OPLS_2005

> <r_lp_Energy>
41.1811

> <b_lp_Chiralities_Consistent>
1

> <s_lp_Variant>
AV-unprocessed.smi:208-1

> <Gold.Version>
5.8.1

> <Gold.Id.Protein>
6NUR|6NUR_protein|mol2

> <Gold.PLP.Fitness>
53.9363

> <Gold.PLP.PLP>
-47.5528

> <Gold.PLP.part.hbond>
-3.7416

> <Gold.PLP.part.metal>
0.0000

> <Gold.PLP.part.buried>
-6.4699

> <Gold.PLP.part.nonpolar>
-37.7109

> <Gold.PLP.part.repulsive>
0.1571

> <Gold.PLP.ligand.clash>
0.0000

> <Gold.PLP.ligand.torsion>
1.6216

> <Gold.PLP.Chemscore.Hbond>
2.9920

> <Gold.PLP.Chemscore.CHOScore>
0.0000

> <Gold.PLP.Chemscore.Metal>
0.0000

> <Gold.Chemscore.Hbonds>
donor molecule, donor type, donor heavy atom, donor atom, acceptor molecule, acceptor atom, score
      P1  H  6896  6908       L1    23  1.00
      P1  H  6896  6909       L1    14  1.00
      P1  H  6934  6947       L1    25  0.65

> <Gold.PLP.Chemscore.Internal.Correction>
0.6508

> <Gold.Rescore>
     Score         DG    S(hbond)    S(metal)    S(lipo)     H(rot)  DE(clash)    DE(int)     intcor
     13.61     -16.52       2.14        0.00      86.98       2.46       0.13       2.79       ----

> <Gold.Chemscore.Fitness>
13.6088

> <Gold.Chemscore.DG>
-16.5216

> <Gold.Chemscore.ZeroCoef>
-5.4800

> <Gold.Chemscore.Hbond>
2.1445

> <Gold.Chemscore.Metal>
0.0000

> <Gold.Chemscore.Lipo>
86.9763

> <Gold.Chemscore.Internal_Hbond>
0.0000

> <Gold.Chemscore.DEClash>
0.1274

> <Gold.Chemscore.DEInternal>
2.7854

> <Gold.Chemscore.Rot>
2.4598

> <Gold.Chemscore.Internal.Correction>
   9.000000E+99

> <Gold.Chemscore.Hbonds>
donor molecule, donor type, donor heavy atom, donor atom, acceptor molecule, acceptor atom, score
      P1  H  6896  6908       L1    23  0.30
      P1  H  6896  6909       L1    14  0.53
      P1  H  6934  6947       L1    25  0.45

> <Gold.Chemscore.Hbond.Weighted>
-7.1625

> <Gold.Chemscore.Metal.Weighted>
-0.0000

> <Gold.Chemscore.Lipo.Weighted>
-10.1762

> <Gold.Chemscore.Internal_Hbond.Weighted>
0.0000

> <Gold.Chemscore.DEClash.Weighted>
0.1274

> <Gold.Chemscore.DEInternal.Weighted>
2.7854

> <Gold.Chemscore.Rot.Weighted>
6.2972

> <Gold.Chemscore.Internal.Correction.Weighted>
   9.000000E+99

> <Gold.Protein.RotatedTorsions>
[ 6907 6896 6895 6894 ] final  123.22 input  -60.11 | X-H torsion
[ 7974 7965 7964 7962 ] final -161.33 input  175.53 | X-H torsion
[ 8008 7997 7996 7995 ] final   71.26 input   59.86 | X-H torsion
[ 10167 10162 10161 10158 ] final   66.95 input  -65.29 | X-H torsion
[ 10718 10713 10712 10709 ] final  -79.47 input   66.30 | X-H torsion
[ 10763 10752 10751 10750 ] final  -55.34 input  -60.55 | X-H torsion
[ 11005 11000 10999 10996 ] final -107.02 input  -57.11 | X-H torsion

> <Gold.Protein.ActiveResidues>
 VAL166  LYS551  ARG553  GLY616  TRP617  ASP618  TYR619  PRO620  LYS621  CYS622 
 ASP623  PHE694  ASN695  SER759  ASP760  ASP761  ALA762  ILE779  LEU786  VAL792 
 PHE793  MET794  SER795  GLU796  ALA797  LYS798  CYS799  TRP800  GLU811  SER814 

> <Gold.Protein.RotatedAtoms>
  152.4179  133.7068  159.6455 H   0  0  0  0  0  0  0  0  0  0  0  0  # atno 6907 bound_to 6896
  150.8056  133.8506  159.3213 H   0  0  0  0  0  0  0  0  0  0  0  0  # atno 6908 bound_to 6896
  151.6231  135.1032  160.0157 H   0  0  0  0  0  0  0  0  0  0  0  0  # atno 6909 bound_to 6896
  144.7395  140.3412  143.6134 H   0  0  0  0  0  0  0  0  0  0  0  0  # atno 7974 bound_to 7965
  155.7511  140.3488  155.5151 H   0  0  0  0  0  0  0  0  0  0  0  0  # atno 8008 bound_to 7997
  155.9003  140.1033  157.1376 H   0  0  0  0  0  0  0  0  0  0  0  0  # atno 8009 bound_to 7997
  154.4043  140.1287  156.4415 H   0  0  0  0  0  0  0  0  0  0  0  0  # atno 8010 bound_to 7997
  140.0949  144.4955  150.7075 H   0  0  0  0  0  0  0  0  0  0  0  0  # atno 10167 bound_to 10162
  156.0092  130.4546  150.3653 H   0  0  0  0  0  0  0  0  0  0  0  0  # atno 10718 bound_to 10713
  154.1892  135.6430  153.5055 H   0  0  0  0  0  0  0  0  0  0  0  0  # atno 10763 bound_to 10752
  153.0039  135.5424  154.6433 H   0  0  0  0  0  0  0  0  0  0  0  0  # atno 10764 bound_to 10752
  154.5817  135.2926  155.0698 H   0  0  0  0  0  0  0  0  0  0  0  0  # atno 10765 bound_to 10752
  141.0975  133.8944  157.1926 H   0  0  0  0  0  0  0  0  0  0  0  0  # atno 11005 bound_to 11000
  145.7372  139.1753  143.2397 LP  0  0  0  0  0  0  0  0  0  0  0  0  # atno 17320 bound_to 7965
  146.1162  140.7367  142.9479 LP  0  0  0  0  0  0  0  0  0  0  0  0  # atno 17321 bound_to 7965
  140.7009  143.2434  151.4867 LP  0  0  0  0  0  0  0  0  0  0  0  0  # atno 17342 bound_to 10162
  139.5704  144.1943  152.1827 LP  0  0  0  0  0  0  0  0  0  0  0  0  # atno 17343 bound_to 10162
  157.1739  131.0375  151.2782 LP  0  0  0  0  0  0  0  0  0  0  0  0  # atno 17370 bound_to 10713
  157.4205  130.7434  149.6909 LP  0  0  0  0  0  0  0  0  0  0  0  0  # atno 17371 bound_to 10713
  139.9816  135.0096  156.9763 LP  0  0  0  0  0  0  0  0  0  0  0  0  # atno 17394 bound_to 11000
  140.5104  134.1008  155.7269 LP  0  0  0  0  0  0  0  0  0  0  0  0  # atno 17395 bound_to 11000

$$$$
