AV-unprocessed.smi:1512|AV-procd|sdf|6103|dock6
  -GOLD-   22720 6233D 1   1.00000     0.00000
 Structure written by MMmdl.
 44 46  0  0  0  0  0  0  0  0  3 V2000
  152.5460  139.8747  158.2863 C   0  0  0  0  0  0  0  0  0  0  0  0
  151.7530  141.0746  157.7410 C   0  0  1  0  0  0  0  0  0  0  0  0
  150.5727  140.6010  157.0265 N   0  0  0  0  0  0  0  0  0  0  0  0
  150.5186  140.2414  155.7330 C   0  0  0  0  0  0  0  0  0  0  0  0
  151.5056  140.2404  154.9986 O   0  0  0  0  0  0  0  0  0  0  0  0
  149.1539  139.8287  155.1540 C   0  0  0  0  0  0  0  0  0  0  0  0
  148.1320  140.8928  155.1666 N   0  0  0  0  0  0  0  0  0  0  0  0
  147.7671  141.4311  153.9183 C   0  0  0  0  0  0  0  0  0  0  0  0
  146.8618  142.4132  153.8070 C   0  0  0  0  0  0  0  0  0  0  0  0
  146.2595  142.9259  155.0133 C   0  0  0  0  0  0  0  0  0  0  0  0
  146.5987  142.4294  156.2255 C   0  0  0  0  0  0  0  0  0  0  0  0
  145.9698  143.0019  157.3940 N   0  3  0  0  0  0  0  0  0  0  0  0
  145.0033  143.7430  157.2443 O   0  0  0  0  0  0  0  0  0  0  0  0
  146.4158  142.7127  158.5004 O   0  5  0  0  0  0  0  0  0  0  0  0
  147.5892  141.3386  156.3424 C   0  0  0  0  0  0  0  0  0  0  0  0
  147.9201  140.8487  157.4235 O   0  0  0  0  0  0  0  0  0  0  0  0
  151.3128  142.0379  158.8682 C   0  0  1  0  0  0  0  0  0  0  0  0
  152.4477  142.4988  159.8097 C   0  0  0  0  0  0  0  0  0  0  0  0
  152.2706  144.0285  159.8423 C   0  0  1  0  0  0  0  0  0  0  0  0
  152.7539  144.6193  158.5051 C   0  0  0  0  0  0  0  0  0  0  0  0
  151.6439  144.1934  157.5271 C   0  0  0  0  0  0  0  0  0  0  0  0
  150.6862  143.3857  158.4275 C   0  0  2  0  0  0  0  0  0  0  0  0
  150.7584  144.1823  159.7262 C   0  0  0  0  0  0  0  0  0  0  0  0
  153.4437  140.1990  158.8127 H   0  0  0  0  0  0  0  0  0  0  0  0
  152.8646  139.2121  157.4808 H   0  0  0  0  0  0  0  0  0  0  0  0
  151.9474  139.2859  158.9821 H   0  0  0  0  0  0  0  0  0  0  0  0
  152.3957  141.6161  157.0455 H   0  0  0  0  0  0  0  0  0  0  0  0
  149.7139  140.5687  157.5560 H   0  0  0  0  0  0  0  0  0  0  0  0
  149.3134  139.4802  154.1326 H   0  0  0  0  0  0  0  0  0  0  0  0
  148.8019  138.9486  155.6948 H   0  0  0  0  0  0  0  0  0  0  0  0
  148.2721  141.0002  153.0656 H   0  0  0  0  0  0  0  0  0  0  0  0
  146.5963  142.8156  152.8406 H   0  0  0  0  0  0  0  0  0  0  0  0
  145.5399  143.7278  154.9336 H   0  0  0  0  0  0  0  0  0  0  0  0
  150.5637  141.5197  159.4706 H   0  0  0  0  0  0  0  0  0  0  0  0
  152.3179  142.0674  160.8030 H   0  0  0  0  0  0  0  0  0  0  0  0
  153.4396  142.2162  159.4546 H   0  0  0  0  0  0  0  0  0  0  0  0
  152.7186  144.5023  160.7163 H   0  0  0  0  0  0  0  0  0  0  0  0
  152.8194  145.7067  158.5598 H   0  0  0  0  0  0  0  0  0  0  0  0
  153.7339  144.2390  158.2146 H   0  0  0  0  0  0  0  0  0  0  0  0
  151.1371  145.0722  157.1267 H   0  0  0  0  0  0  0  0  0  0  0  0
  152.0231  143.6259  156.6780 H   0  0  0  0  0  0  0  0  0  0  0  0
  149.6809  143.2876  158.0157 H   0  0  0  0  0  0  0  0  0  0  0  0
  150.2110  143.7221  160.5508 H   0  0  0  0  0  0  0  0  0  0  0  0
  150.4359  145.2197  159.6184 H   0  0  0  0  0  0  0  0  0  0  0  0
  1  2  1  0  0  0  0
  1 24  1  0  0  0  0
  1 25  1  0  0  0  0
  1 26  1  0  0  0  0
  2  3  1  0  0  0  0
  2 17  1  0  0  0  0
  2 27  1  0  0  0  0
  3  4  1  0  0  0  0
  3 28  1  0  0  0  0
  4  5  2  0  0  0  0
  4  6  1  0  0  0  0
  6  7  1  0  0  0  0
  6 29  1  0  0  0  0
  6 30  1  0  0  0  0
  7 15  1  0  0  0  0
  7  8  1  0  0  0  0
  8  9  2  0  0  0  0
  8 31  1  0  0  0  0
  9 10  1  0  0  0  0
  9 32  1  0  0  0  0
 10 11  2  0  0  0  0
 10 33  1  0  0  0  0
 11 12  1  0  0  0  0
 11 15  1  0  0  0  0
 12 13  2  0  0  0  0
 12 14  1  0  0  0  0
 15 16  2  0  0  0  0
 17 22  1  0  0  0  0
 17 18  1  0  0  0  0
 17 34  1  0  0  0  0
 18 19  1  0  0  0  0
 18 35  1  0  0  0  0
 18 36  1  0  0  0  0
 19 23  1  0  0  0  0
 19 20  1  0  0  0  0
 19 37  1  0  0  0  0
 20 21  1  0  0  0  0
 20 38  1  0  0  0  0
 20 39  1  0  0  0  0
 21 22  1  0  0  0  0
 21 40  1  0  0  0  0
 21 41  1  0  0  0  0
 22 23  1  0  0  0  0
 22 42  1  0  0  0  0
 23 43  1  0  0  0  0
 23 44  1  0  0  0  0
M  CHG  1  12   1
M  CHG  1  14  -1
M  END
> <s_m_source_file>
AV-unprocessed.smi

> <i_m_source_file_index>
1512

> <i_lp_mmshare_version>
43012

> <i_f3d_flags>
0

> <s_epik_input>
W0NIMl0xW0NIMl1bQ0BIXShbQ0gyXTIpW0NAQEhdKFtDSDJdW0NAQEhdMTIpW0NASF0oW0NIM10pW05IXUMoPU8pW0NIMl1uM1tjSF1bY0hdW2NIXWMoW04rXSg9TylbTy1dKWMzPU8=

> <s_epik_cmdline>
J2VwaWtfcHl0aG9uJywgJy1waCcsICc3LjAnLCAnLXRuJywgJzgnLCAnLW1hJywgJzIwMCcsICctbWV0YWxfYmluZGluZycsICctaW1hZScsICc8aW5maWxlLm1hZT4nLCAnLW9tYWUnLCAnPG91dGZpbGUubWFlPic=

> <r_lp_tautomer_probability>
1

> <r_epik_Ionization_Penalty>
2.17697e-08

> <r_epik_Ionization_Penalty_Charging>
1.42735e-10

> <r_epik_Ionization_Penalty_Neutral>
2.16269e-08

> <r_epik_State_Penalty>
-0

> <r_epik_Charging_Adjusted_Penalty>
1.42735e-10

> <i_epik_Tot_Q>
0

> <i_epik_Tot_abs_Q>
2

> <r_epik_Metal_State_Penalty>
-0

> <b_epik_Metal_Only>
0

> <s_lp_Force_Field>
OPLS_2005

> <r_lp_Energy>
64.3313

> <b_lp_Chiralities_Consistent>
1

> <s_lp_Variant>
AV-unprocessed.smi:1512-4

> <Gold.Version>
5.8.1

> <Gold.Id.Protein>
6NUR|6NUR_protein|mol2

> <Gold.PLP.Fitness>
49.7032

> <Gold.PLP.PLP>
-44.8477

> <Gold.PLP.part.hbond>
-1.0000

> <Gold.PLP.part.metal>
0.0000

> <Gold.PLP.part.buried>
-6.3920

> <Gold.PLP.part.nonpolar>
-37.8197

> <Gold.PLP.part.repulsive>
0.3458

> <Gold.PLP.ligand.clash>
0.0000

> <Gold.PLP.ligand.torsion>
0.5862

> <Gold.PLP.Chemscore.Hbond>
1.0000

> <Gold.PLP.Chemscore.CHOScore>
1.0000

> <Gold.PLP.Chemscore.Metal>
0.0000

> <Gold.Chemscore.Hbonds>
donor molecule, donor type, donor heavy atom, donor atom, acceptor molecule, acceptor atom, score
      P1  H  7989  7998       L1     5  1.00
      L1  C     8    31       P1  7957  1.00

> <Gold.PLP.Chemscore.Internal.Correction>
0.0278

> <Gold.Rescore>
     Score         DG    S(hbond)    S(metal)    S(lipo)     H(rot)  DE(clash)    DE(int)     intcor
     15.40     -17.90       1.00        0.00     115.94       1.75       0.09       2.41       ----

> <Gold.Chemscore.Fitness>
15.3977

> <Gold.Chemscore.DG>
-17.8953

> <Gold.Chemscore.ZeroCoef>
-5.4800

> <Gold.Chemscore.Hbond>
0.9951

> <Gold.Chemscore.Metal>
0.0000

> <Gold.Chemscore.Lipo>
115.9413

> <Gold.Chemscore.Internal_Hbond>
0.0000

> <Gold.Chemscore.DEClash>
0.0862

> <Gold.Chemscore.DEInternal>
2.4114

> <Gold.Chemscore.Rot>
1.7474

> <Gold.Chemscore.Internal.Correction>
   9.000000E+99

> <Gold.Chemscore.Hbonds>
donor molecule, donor type, donor heavy atom, donor atom, acceptor molecule, acceptor atom, score
      P1  H  7989  7998       L1     5  0.95

> <Gold.Chemscore.Hbond.Weighted>
-3.3235

> <Gold.Chemscore.Metal.Weighted>
-0.0000

> <Gold.Chemscore.Lipo.Weighted>
-13.5651

> <Gold.Chemscore.Internal_Hbond.Weighted>
0.0000

> <Gold.Chemscore.DEClash.Weighted>
0.0862

> <Gold.Chemscore.DEInternal.Weighted>
2.4114

> <Gold.Chemscore.Rot.Weighted>
4.4733

> <Gold.Chemscore.Internal.Correction.Weighted>
   9.000000E+99

> <Gold.Protein.RotatedTorsions>
[ 6907 6896 6895 6894 ] final   44.58 input  -60.11 | X-H torsion
[ 7974 7965 7964 7962 ] final -170.73 input  175.53 | X-H torsion
[ 8008 7997 7996 7995 ] final   -1.17 input   59.86 | X-H torsion
[ 10167 10162 10161 10158 ] final  -70.71 input  -65.29 | X-H torsion
[ 10718 10713 10712 10709 ] final  -61.87 input   66.30 | X-H torsion
[ 10763 10752 10751 10750 ] final  138.71 input  -60.55 | X-H torsion
[ 11005 11000 10999 10996 ] final  -89.92 input  -57.11 | X-H torsion

> <Gold.Protein.ActiveResidues>
 VAL166  LYS551  ARG553  GLY616  TRP617  ASP618  TYR619  PRO620  LYS621  CYS622 
 ASP623  PHE694  ASN695  SER759  ASP760  ASP761  ALA762  ILE779  LEU786  VAL792 
 PHE793  MET794  SER795  GLU796  ALA797  LYS798  CYS799  TRP800  GLU811  SER814 

> <Gold.Protein.RotatedAtoms>
  152.2342  134.8292  160.0469 H   0  0  0  0  0  0  0  0  0  0  0  0  # atno 6907 bound_to 6896
  151.9030  133.3537  159.3845 H   0  0  0  0  0  0  0  0  0  0  0  0  # atno 6908 bound_to 6896
  150.7034  134.4735  159.5481 H   0  0  0  0  0  0  0  0  0  0  0  0  # atno 6909 bound_to 6896
  144.7166  140.2028  143.6336 H   0  0  0  0  0  0  0  0  0  0  0  0  # atno 7974 bound_to 7965
  154.6498  140.2566  155.7227 H   0  0  0  0  0  0  0  0  0  0  0  0  # atno 8008 bound_to 7997
  156.2569  140.2870  156.0848 H   0  0  0  0  0  0  0  0  0  0  0  0  # atno 8009 bound_to 7997
  155.1468  140.0381  157.2802 H   0  0  0  0  0  0  0  0  0  0  0  0  # atno 8010 bound_to 7997
  140.5331  143.2320  151.7226 H   0  0  0  0  0  0  0  0  0  0  0  0  # atno 10167 bound_to 10162
  156.0893  130.4203  150.1054 H   0  0  0  0  0  0  0  0  0  0  0  0  # atno 10718 bound_to 10713
  153.8941  135.3029  155.3448 H   0  0  0  0  0  0  0  0  0  0  0  0  # atno 10763 bound_to 10752
  154.7702  135.4889  153.9637 H   0  0  0  0  0  0  0  0  0  0  0  0  # atno 10764 bound_to 10752
  153.1281  135.6798  153.9322 H   0  0  0  0  0  0  0  0  0  0  0  0  # atno 10765 bound_to 10752
  141.1575  133.7660  156.9664 H   0  0  0  0  0  0  0  0  0  0  0  0  # atno 11005 bound_to 11000
  145.8664  139.2249  143.1686 LP  0  0  0  0  0  0  0  0  0  0  0  0  # atno 17320 bound_to 7965
  146.0126  140.8422  142.9963 LP  0  0  0  0  0  0  0  0  0  0  0  0  # atno 17321 bound_to 7965
  139.4961  144.4084  152.0107 LP  0  0  0  0  0  0  0  0  0  0  0  0  # atno 17342 bound_to 10162
  140.3188  144.3452  150.6015 LP  0  0  0  0  0  0  0  0  0  0  0  0  # atno 17343 bound_to 10162
  156.9068  130.9638  151.3568 LP  0  0  0  0  0  0  0  0  0  0  0  0  # atno 17370 bound_to 10713
  157.6037  130.8531  149.8842 LP  0  0  0  0  0  0  0  0  0  0  0  0  # atno 17371 bound_to 10713
  140.1158  134.9448  157.2132 LP  0  0  0  0  0  0  0  0  0  0  0  0  # atno 17394 bound_to 11000
  140.3135  134.2997  155.7261 LP  0  0  0  0  0  0  0  0  0  0  0  0  # atno 17395 bound_to 11000

$$$$
