AV-unprocessed.smi:1493|AV-procd|sdf|6051|dock4
  -GOLD-   22720 6163D 1   1.00000     0.00000
 Structure written by MMmdl.
 34 34  0  0  0  0  0  0  0  0  1 V2000
  153.2547  142.6104  160.3777 C   0  0  0  0  0  0  0  0  0  0  0  0
  153.3825  143.5830  159.2004 C   0  0  0  0  0  0  0  0  0  0  0  0
  152.1245  144.4488  159.0111 C   0  0  0  0  0  0  0  0  0  0  0  0
  150.8158  143.6368  158.9693 C   0  0  1  0  0  0  0  0  0  0  0  0
  149.6085  144.4788  159.4059 C   0  0  0  0  0  0  0  0  0  0  0  0
  150.5825  143.1205  157.6219 N   0  0  0  0  0  0  0  0  0  0  0  0
  150.8226  141.8681  157.2036 C   0  0  0  0  0  0  0  0  0  0  0  0
  151.2904  140.9884  157.9280 O   0  0  0  0  0  0  0  0  0  0  0  0
  150.4983  141.5848  155.7292 C   0  0  0  0  0  0  0  0  0  0  0  0
  150.6141  140.1655  155.3645 N   0  0  0  0  0  0  0  0  0  0  0  0
  149.4842  139.6436  154.7532 N   0  0  0  0  0  0  0  0  0  0  0  0
  149.4676  138.4103  154.3749 C   0  0  0  0  0  0  0  0  0  0  0  0
  148.3294  137.9357  153.7708 O   0  0  0  0  0  0  0  0  0  0  0  0
  150.6114  137.5489  154.5789 C   0  0  0  0  0  0  0  0  0  0  0  0
  151.7063  138.0653  155.1789 C   0  0  0  0  0  0  0  0  0  0  0  0
  151.7589  139.4603  155.6204 C   0  0  0  0  0  0  0  0  0  0  0  0
  152.7417  139.9566  156.1706 O   0  0  0  0  0  0  0  0  0  0  0  0
  148.6125  137.2043  153.2438 H   0  0  0  0  0  0  0  0  0  0  0  0
  154.1594  142.0121  160.4873 H   0  0  0  0  0  0  0  0  0  0  0  0
  152.4186  141.9253  160.2341 H   0  0  0  0  0  0  0  0  0  0  0  0
  153.0940  143.1452  161.3140 H   0  0  0  0  0  0  0  0  0  0  0  0
  154.2543  144.2178  159.3605 H   0  0  0  0  0  0  0  0  0  0  0  0
  153.5770  143.0179  158.2880 H   0  0  0  0  0  0  0  0  0  0  0  0
  152.0688  145.1686  159.8288 H   0  0  0  0  0  0  0  0  0  0  0  0
  152.2205  145.0368  158.0970 H   0  0  0  0  0  0  0  0  0  0  0  0
  150.9151  142.8129  159.6780 H   0  0  0  0  0  0  0  0  0  0  0  0
  149.7452  144.8670  160.4156 H   0  0  0  0  0  0  0  0  0  0  0  0
  148.6945  143.8838  159.4042 H   0  0  0  0  0  0  0  0  0  0  0  0
  149.4544  145.3287  158.7402 H   0  0  0  0  0  0  0  0  0  0  0  0
  150.2034  143.7727  156.9508 H   0  0  0  0  0  0  0  0  0  0  0  0
  149.4932  141.9458  155.5025 H   0  0  0  0  0  0  0  0  0  0  0  0
  151.1699  142.1871  155.1149 H   0  0  0  0  0  0  0  0  0  0  0  0
  150.5813  136.5187  154.2558 H   0  0  0  0  0  0  0  0  0  0  0  0
  152.5680  137.4336  155.3373 H   0  0  0  0  0  0  0  0  0  0  0  0
  1  2  1  0  0  0  0
  1 19  1  0  0  0  0
  1 20  1  0  0  0  0
  1 21  1  0  0  0  0
  2  3  1  0  0  0  0
  2 22  1  0  0  0  0
  2 23  1  0  0  0  0
  3  4  1  0  0  0  0
  3 24  1  0  0  0  0
  3 25  1  0  0  0  0
  4  5  1  0  0  0  0
  4  6  1  0  0  0  0
  4 26  1  0  0  0  0
  5 27  1  0  0  0  0
  5 28  1  0  0  0  0
  5 29  1  0  0  0  0
  6  7  1  0  0  0  0
  6 30  1  0  0  0  0
  7  8  2  0  0  0  0
  7  9  1  0  0  0  0
  9 31  1  0  0  0  0
  9 32  1  0  0  0  0
  9 10  1  0  0  0  0
 10 11  1  0  0  0  0
 10 16  1  0  0  0  0
 11 12  2  0  0  0  0
 12 13  1  0  0  0  0
 12 14  1  0  0  0  0
 13 18  1  0  0  0  0
 14 33  1  0  0  0  0
 14 15  2  0  0  0  0
 15 34  1  0  0  0  0
 15 16  1  0  0  0  0
 16 17  2  0  0  0  0
M  END
> <s_m_source_file>
AV-unprocessed.smi

> <i_m_source_file_index>
1493

> <i_lp_mmshare_version>
43012

> <i_f3d_flags>
0

> <s_epik_input>
W0NIM11bQ0gyXVtDSDJdW0NASF0oW0NIM10pW05IXUMoPU8pW0NIMl1uMVtuSF1jKD1PKVtjSF1bY0hdYzE9Tw==

> <s_epik_cmdline>
J2VwaWtfcHl0aG9uJywgJy1waCcsICc3LjAnLCAnLXRuJywgJzgnLCAnLW1hJywgJzIwMCcsICctbWV0YWxfYmluZGluZycsICctaW1hZScsICc8aW5maWxlLm1hZT4nLCAnLW9tYWUnLCAnPG91dGZpbGUubWFlPic=

> <r_lp_tautomer_probability>
0.9996

> <r_epik_Ionization_Penalty>
2.12047

> <r_epik_Ionization_Penalty_Charging>
3.81971e-08

> <r_epik_Ionization_Penalty_Neutral>
2.12047

> <r_epik_State_Penalty>
1.69728

> <r_epik_Charging_Adjusted_Penalty>
1.69728

> <i_epik_Tot_Q>
0

> <i_epik_Tot_abs_Q>
0

> <r_epik_Metal_State_Penalty>
1.69728

> <b_epik_Metal_Only>
0

> <s_lp_Force_Field>
OPLS_2005

> <r_lp_Energy>
15.6532

> <b_lp_Chiralities_Consistent>
1

> <s_lp_Variant>
AV-unprocessed.smi:1493-4

> <Gold.Version>
5.8.1

> <Gold.Id.Protein>
6NUR|6NUR_protein|mol2

> <Gold.PLP.Fitness>
43.4666

> <Gold.PLP.PLP>
-35.6921

> <Gold.PLP.part.hbond>
-3.0000

> <Gold.PLP.part.metal>
0.0000

> <Gold.PLP.part.buried>
-2.5981

> <Gold.PLP.part.nonpolar>
-30.0495

> <Gold.PLP.part.repulsive>
0.1174

> <Gold.PLP.ligand.clash>
0.0000

> <Gold.PLP.ligand.torsion>
0.6287

> <Gold.PLP.Chemscore.Hbond>
3.0000

> <Gold.PLP.Chemscore.CHOScore>
0.0000

> <Gold.PLP.Chemscore.Metal>
0.0000

> <Gold.Chemscore.Hbonds>
donor molecule, donor type, donor heavy atom, donor atom, acceptor molecule, acceptor atom, score
      L1  H     6    30       P1  8028  0.93
      L1  H    13    18       P1  7948  1.00
      P1  H  7997  8008       L1    17  0.98

> <Gold.PLP.Chemscore.Internal.Correction>
0.0319

> <Gold.Rescore>
     Score         DG    S(hbond)    S(metal)    S(lipo)     H(rot)  DE(clash)    DE(int)     intcor
     12.79     -16.81       2.93        0.00      74.12       2.78       0.02       3.99       ----

> <Gold.Chemscore.Fitness>
12.7917

> <Gold.Chemscore.DG>
-16.8095

> <Gold.Chemscore.ZeroCoef>
-5.4800

> <Gold.Chemscore.Hbond>
2.9254

> <Gold.Chemscore.Metal>
0.0000

> <Gold.Chemscore.Lipo>
74.1172

> <Gold.Chemscore.Internal_Hbond>
0.0000

> <Gold.Chemscore.DEClash>
0.0241

> <Gold.Chemscore.DEInternal>
3.9936

> <Gold.Chemscore.Rot>
2.7785

> <Gold.Chemscore.Internal.Correction>
   9.000000E+99

> <Gold.Chemscore.Hbonds>
donor molecule, donor type, donor heavy atom, donor atom, acceptor molecule, acceptor atom, score
      L1  H     6    30       P1  8028  0.88
      L1  H    13    18       P1  7948  1.00
      P1  H  7997  8008       L1    17  0.93

> <Gold.Chemscore.Hbond.Weighted>
-9.7707

> <Gold.Chemscore.Metal.Weighted>
-0.0000

> <Gold.Chemscore.Lipo.Weighted>
-8.6717

> <Gold.Chemscore.Internal_Hbond.Weighted>
0.0000

> <Gold.Chemscore.DEClash.Weighted>
0.0241

> <Gold.Chemscore.DEInternal.Weighted>
3.9936

> <Gold.Chemscore.Rot.Weighted>
7.1129

> <Gold.Chemscore.Internal.Correction.Weighted>
   9.000000E+99

> <Gold.Protein.RotatedTorsions>
[ 6907 6896 6895 6894 ] final    3.15 input  -60.11 | X-H torsion
[ 7974 7965 7964 7962 ] final  158.58 input  175.53 | X-H torsion
[ 8008 7997 7996 7995 ] final  -22.32 input   59.86 | X-H torsion
[ 10167 10162 10161 10158 ] final  -75.15 input  -65.29 | X-H torsion
[ 10718 10713 10712 10709 ] final  144.13 input   66.30 | X-H torsion
[ 10763 10752 10751 10750 ] final  151.79 input  -60.55 | X-H torsion
[ 11005 11000 10999 10996 ] final  104.73 input  -57.11 | X-H torsion

> <Gold.Protein.ActiveResidues>
 VAL166  LYS551  ARG553  GLY616  TRP617  ASP618  TYR619  PRO620  LYS621  CYS622 
 ASP623  PHE694  ASN695  SER759  ASP760  ASP761  ALA762  ILE779  LEU786  VAL792 
 PHE793  MET794  SER795  GLU796  ALA797  LYS798  CYS799  TRP800  GLU811  SER814 

> <Gold.Protein.RotatedAtoms>
  151.6205  135.1032  160.0100 H   0  0  0  0  0  0  0  0  0  0  0  0  # atno 6907 bound_to 6896
  152.4160  133.7035  159.6448 H   0  0  0  0  0  0  0  0  0  0  0  0  # atno 6908 bound_to 6896
  150.8049  133.8456  159.3232 H   0  0  0  0  0  0  0  0  0  0  0  0  # atno 6909 bound_to 6896
  144.7837  139.7499  143.6249 H   0  0  0  0  0  0  0  0  0  0  0  0  # atno 7974 bound_to 7965
  154.4651  140.2011  156.0140 H   0  0  0  0  0  0  0  0  0  0  0  0  # atno 8008 bound_to 7997
  156.0912  140.3258  155.7789 H   0  0  0  0  0  0  0  0  0  0  0  0  # atno 8009 bound_to 7997
  155.4954  140.0549  157.2938 H   0  0  0  0  0  0  0  0  0  0  0  0  # atno 8010 bound_to 7997
  140.4966  143.2369  151.7820 H   0  0  0  0  0  0  0  0  0  0  0  0  # atno 10167 bound_to 10162
  157.3608  131.0965  151.0917 H   0  0  0  0  0  0  0  0  0  0  0  0  # atno 10718 bound_to 10713
  154.1095  135.2840  155.3233 H   0  0  0  0  0  0  0  0  0  0  0  0  # atno 10763 bound_to 10752
  154.6499  135.5372  153.7893 H   0  0  0  0  0  0  0  0  0  0  0  0  # atno 10764 bound_to 10752
  153.0350  135.6507  154.1255 H   0  0  0  0  0  0  0  0  0  0  0  0  # atno 10765 bound_to 10752
  139.8795  134.9311  156.5405 H   0  0  0  0  0  0  0  0  0  0  0  0  # atno 11005 bound_to 11000
  146.2059  139.5383  142.9713 LP  0  0  0  0  0  0  0  0  0  0  0  0  # atno 17320 bound_to 7965
  145.5979  141.0360  143.2034 LP  0  0  0  0  0  0  0  0  0  0  0  0  # atno 17321 bound_to 7965
  139.4863  144.4578  151.9578 LP  0  0  0  0  0  0  0  0  0  0  0  0  # atno 17342 bound_to 10162
  140.3666  144.2908  150.5926 LP  0  0  0  0  0  0  0  0  0  0  0  0  # atno 17343 bound_to 10162
  157.2057  130.6415  149.5755 LP  0  0  0  0  0  0  0  0  0  0  0  0  # atno 17370 bound_to 10713
  155.9737  130.4676  150.6331 LP  0  0  0  0  0  0  0  0  0  0  0  0  # atno 17371 bound_to 10713
  140.8314  133.8276  155.8987 LP  0  0  0  0  0  0  0  0  0  0  0  0  # atno 17394 bound_to 11000
  140.9325  134.2003  157.4854 LP  0  0  0  0  0  0  0  0  0  0  0  0  # atno 17395 bound_to 11000

$$$$
