AV-unprocessed.smi:2810|AV-procd|sdf|10828|dock5
  -GOLD-   2272015273D 1   1.00000     0.00000
 Structure written by MMmdl.
 39 40  0  0  0  0  0  0  0  0  1 V2000
  153.8934  140.0010  161.1360 C   0  0  0  0  0  0  0  0  0  0  0  0
  153.1701  140.7713  160.0520 C   0  0  0  0  0  0  0  0  0  0  0  0
  152.5416  140.1135  158.9742 C   0  0  0  0  0  0  0  0  0  0  0  0
  151.8980  140.9321  158.0190 C   0  0  0  0  0  0  0  0  0  0  0  0
  151.2439  140.3458  156.9142 N   0  0  0  0  0  0  0  0  0  0  0  0
  150.3612  141.3193  156.2726 C   0  0  0  0  0  0  0  0  0  0  0  0
  149.5278  140.6612  155.1648 C   0  0  0  0  0  0  0  0  0  0  0  0
  150.4036  140.0463  154.2321 O   0  0  0  0  0  0  0  0  0  0  0  0
  151.1560  139.0028  154.8373 C   0  0  0  0  0  0  0  0  0  0  0  0
  152.0560  139.5542  155.9697 C   0  0  2  0  0  0  0  0  0  0  0  0
  152.8353  138.3613  156.5650 C   0  0  0  0  0  0  0  0  0  0  0  0
  152.1467  137.3054  157.0116 N   0  0  0  0  0  0  0  0  0  0  0  0
  154.0620  138.4030  156.6299 O   0  0  0  0  0  0  0  0  0  0  0  0
  151.8878  142.2794  158.1597 N   0  0  0  0  0  0  0  0  0  0  0  0
  152.5185  142.8006  159.2164 C   0  0  0  0  0  0  0  0  0  0  0  0
  152.5148  144.3186  159.3389 C   0  0  0  0  0  0  0  0  0  0  0  0
  151.9201  144.7857  160.6764 C   0  0  0  0  0  0  0  0  0  0  0  0
  151.8567  144.9884  158.1223 C   0  0  0  0  0  0  0  0  0  0  0  0
  153.1586  142.1165  160.1696 N   0  0  0  0  0  0  0  0  0  0  0  0
  153.9358  138.9370  160.9016 H   0  0  0  0  0  0  0  0  0  0  0  0
  153.3806  140.1200  162.0907 H   0  0  0  0  0  0  0  0  0  0  0  0
  154.9151  140.3658  161.2454 H   0  0  0  0  0  0  0  0  0  0  0  0
  152.5568  139.0374  158.8813 H   0  0  0  0  0  0  0  0  0  0  0  0
  149.6861  141.7724  156.9998 H   0  0  0  0  0  0  0  0  0  0  0  0
  150.9625  142.1270  155.8513 H   0  0  0  0  0  0  0  0  0  0  0  0
  148.8324  139.9280  155.5772 H   0  0  0  0  0  0  0  0  0  0  0  0
  148.9301  141.4123  154.6481 H   0  0  0  0  0  0  0  0  0  0  0  0
  150.4761  138.2345  155.2118 H   0  0  0  0  0  0  0  0  0  0  0  0
  151.7628  138.5323  154.0625 H   0  0  0  0  0  0  0  0  0  0  0  0
  152.7843  140.2260  155.5112 H   0  0  0  0  0  0  0  0  0  0  0  0
  152.6381  136.5142  157.4012 H   0  0  0  0  0  0  0  0  0  0  0  0
  151.1387  137.3027  156.9540 H   0  0  0  0  0  0  0  0  0  0  0  0
  153.5568  144.6437  159.3392 H   0  0  0  0  0  0  0  0  0  0  0  0
  152.4565  144.3456  161.5175 H   0  0  0  0  0  0  0  0  0  0  0  0
  150.8704  144.5044  160.7663 H   0  0  0  0  0  0  0  0  0  0  0  0
  151.9818  145.8696  160.7759 H   0  0  0  0  0  0  0  0  0  0  0  0
  152.3500  144.6893  157.1970 H   0  0  0  0  0  0  0  0  0  0  0  0
  151.9161  146.0747  158.1924 H   0  0  0  0  0  0  0  0  0  0  0  0
  150.8032  144.7190  158.0400 H   0  0  0  0  0  0  0  0  0  0  0  0
  1  2  1  0  0  0  0
  1 20  1  0  0  0  0
  1 21  1  0  0  0  0
  1 22  1  0  0  0  0
  2 19  1  0  0  0  0
  2  3  2  0  0  0  0
  3  4  1  0  0  0  0
  3 23  1  0  0  0  0
  4  5  1  0  0  0  0
  4 14  2  0  0  0  0
  5 10  1  0  0  0  0
  5  6  1  0  0  0  0
  6  7  1  0  0  0  0
  6 24  1  0  0  0  0
  6 25  1  0  0  0  0
  7  8  1  0  0  0  0
  7 26  1  0  0  0  0
  7 27  1  0  0  0  0
  8  9  1  0  0  0  0
  9 10  1  0  0  0  0
  9 28  1  0  0  0  0
  9 29  1  0  0  0  0
 10 11  1  0  0  0  0
 10 30  1  0  0  0  0
 11 12  1  0  0  0  0
 11 13  2  0  0  0  0
 12 31  1  0  0  0  0
 12 32  1  0  0  0  0
 14 15  1  0  0  0  0
 15 16  1  0  0  0  0
 15 19  2  0  0  0  0
 16 17  1  0  0  0  0
 16 18  1  0  0  0  0
 16 33  1  0  0  0  0
 17 34  1  0  0  0  0
 17 35  1  0  0  0  0
 17 36  1  0  0  0  0
 18 37  1  0  0  0  0
 18 38  1  0  0  0  0
 18 39  1  0  0  0  0
M  END
> <s_m_source_file>
AV-unprocessed.smi

> <i_m_source_file_index>
2810

> <i_lp_mmshare_version>
43012

> <i_f3d_flags>
0

> <s_epik_input>
W0NIM11bQ0hdKFtDSDNdKWMobjEpbmMoW2NIXWMxW0NIM10pTjJbQ0gyXVtDSDJdT1tDSDJdW0NASF0yQyg9TylbTkgyXQ==

> <s_epik_cmdline>
J2VwaWtfcHl0aG9uJywgJy1waCcsICc3LjAnLCAnLXRuJywgJzgnLCAnLW1hJywgJzIwMCcsICctbWV0YWxfYmluZGluZycsICctaW1hZScsICc8aW5maWxlLm1hZT4nLCAnLW9tYWUnLCAnPG91dGZpbGUubWFlPic=

> <r_lp_tautomer_probability>
1

> <r_epik_Ionization_Penalty>
0.00607782

> <r_epik_Ionization_Penalty_Charging>
0

> <r_epik_Ionization_Penalty_Neutral>
0.00607782

> <r_epik_State_Penalty>
0.00441345

> <r_epik_Charging_Adjusted_Penalty>
0.00441345

> <i_epik_Tot_Q>
0

> <i_epik_Tot_abs_Q>
0

> <r_epik_Metal_State_Penalty>
-0

> <b_epik_Metal_Only>
0

> <s_lp_Force_Field>
OPLS_2005

> <r_lp_Energy>
6.30102

> <b_lp_Chiralities_Consistent>
1

> <s_lp_Variant>
AV-unprocessed.smi:2810-2

> <Gold.Version>
5.8.1

> <Gold.Id.Protein>
6NUR|6NUR_protein|mol2

> <Gold.PLP.Fitness>
42.6184

> <Gold.PLP.PLP>
-38.6444

> <Gold.PLP.part.hbond>
-1.5964

> <Gold.PLP.part.metal>
0.0000

> <Gold.PLP.part.buried>
-6.3900

> <Gold.PLP.part.nonpolar>
-32.0515

> <Gold.PLP.part.repulsive>
0.2703

> <Gold.PLP.ligand.clash>
0.2182

> <Gold.PLP.ligand.torsion>
0.3261

> <Gold.PLP.Chemscore.Hbond>
1.5280

> <Gold.PLP.Chemscore.CHOScore>
0.0000

> <Gold.PLP.Chemscore.Metal>
0.0000

> <Gold.Chemscore.Hbonds>
donor molecule, donor type, donor heavy atom, donor atom, acceptor molecule, acceptor atom, score
      P1  H  7989  7998       L1     8  1.00
      P1  H  7997  8008       L1    13  0.53

> <Gold.PLP.Chemscore.Internal.Correction>
0.2604

> <Gold.Rescore>
     Score         DG    S(hbond)    S(metal)    S(lipo)     H(rot)  DE(clash)    DE(int)     intcor
     14.78     -16.38       1.52        0.00      87.16       1.71       0.06       1.53       ----

> <Gold.Chemscore.Fitness>
14.7824

> <Gold.Chemscore.DG>
-16.3759

> <Gold.Chemscore.ZeroCoef>
-5.4800

> <Gold.Chemscore.Hbond>
1.5211

> <Gold.Chemscore.Metal>
0.0000

> <Gold.Chemscore.Lipo>
87.1583

> <Gold.Chemscore.Internal_Hbond>
0.0000

> <Gold.Chemscore.DEClash>
0.0626

> <Gold.Chemscore.DEInternal>
1.5309

> <Gold.Chemscore.Rot>
1.7117

> <Gold.Chemscore.Internal.Correction>
   9.000000E+99

> <Gold.Chemscore.Hbonds>
donor molecule, donor type, donor heavy atom, donor atom, acceptor molecule, acceptor atom, score
      P1  H  7989  7998       L1     8  0.25
      P1  H  7997  8008       L1    13  0.34

> <Gold.Chemscore.Hbond.Weighted>
-5.0804

> <Gold.Chemscore.Metal.Weighted>
-0.0000

> <Gold.Chemscore.Lipo.Weighted>
-10.1975

> <Gold.Chemscore.Internal_Hbond.Weighted>
0.0000

> <Gold.Chemscore.DEClash.Weighted>
0.0626

> <Gold.Chemscore.DEInternal.Weighted>
1.5309

> <Gold.Chemscore.Rot.Weighted>
4.3820

> <Gold.Chemscore.Internal.Correction.Weighted>
   9.000000E+99

> <Gold.Protein.RotatedTorsions>
[ 6907 6896 6895 6894 ] final   50.88 input  -60.11 | X-H torsion
[ 7974 7965 7964 7962 ] final   38.97 input  175.53 | X-H torsion
[ 8008 7997 7996 7995 ] final  -73.91 input   59.86 | X-H torsion
[ 10167 10162 10161 10158 ] final -168.03 input  -65.29 | X-H torsion
[ 10718 10713 10712 10709 ] final  109.63 input   66.30 | X-H torsion
[ 10763 10752 10751 10750 ] final  -20.83 input  -60.55 | X-H torsion
[ 11005 11000 10999 10996 ] final    8.83 input  -57.11 | X-H torsion

> <Gold.Protein.ActiveResidues>
 VAL166  LYS551  ARG553  GLY616  TRP617  ASP618  TYR619  PRO620  LYS621  CYS622 
 ASP623  PHE694  ASN695  SER759  ASP760  ASP761  ALA762  ILE779  LEU786  VAL792 
 PHE793  MET794  SER795  GLU796  ALA797  LYS798  CYS799  TRP800  GLU811  SER814 

> <Gold.Protein.RotatedAtoms>
  152.3066  134.7548  160.0345 H   0  0  0  0  0  0  0  0  0  0  0  0  # atno 6907 bound_to 6896
  151.8043  133.3368  159.3544 H   0  0  0  0  0  0  0  0  0  0  0  0  # atno 6908 bound_to 6896
  150.7299  134.5654  159.5908 H   0  0  0  0  0  0  0  0  0  0  0  0  # atno 6909 bound_to 6896
  146.1021  139.5708  142.9407 H   0  0  0  0  0  0  0  0  0  0  0  0  # atno 7974 bound_to 7965
  154.5287  140.0771  156.8305 H   0  0  0  0  0  0  0  0  0  0  0  0  # atno 8008 bound_to 7997
  155.3422  140.3408  155.4221 H   0  0  0  0  0  0  0  0  0  0  0  0  # atno 8009 bound_to 7997
  156.1758  140.1635  156.8352 H   0  0  0  0  0  0  0  0  0  0  0  0  # atno 8010 bound_to 7997
  139.6011  144.1009  152.1744 H   0  0  0  0  0  0  0  0  0  0  0  0  # atno 10167 bound_to 10162
  157.6533  131.0917  150.6482 H   0  0  0  0  0  0  0  0  0  0  0  0  # atno 10718 bound_to 10713
  153.6266  135.6990  153.5291 H   0  0  0  0  0  0  0  0  0  0  0  0  # atno 10763 bound_to 10752
  153.2894  135.4161  155.1152 H   0  0  0  0  0  0  0  0  0  0  0  0  # atno 10764 bound_to 10752
  154.8531  135.3621  154.5808 H   0  0  0  0  0  0  0  0  0  0  0  0  # atno 10765 bound_to 10752
  140.5326  134.0452  155.7878 H   0  0  0  0  0  0  0  0  0  0  0  0  # atno 11005 bound_to 11000
  145.5834  141.0379  143.2109 LP  0  0  0  0  0  0  0  0  0  0  0  0  # atno 17320 bound_to 7965
  144.7441  139.7368  143.7299 LP  0  0  0  0  0  0  0  0  0  0  0  0  # atno 17321 bound_to 7965
  140.0605  144.5860  150.7266 LP  0  0  0  0  0  0  0  0  0  0  0  0  # atno 17342 bound_to 10162
  140.7250  143.2627  151.4150 LP  0  0  0  0  0  0  0  0  0  0  0  0  # atno 17343 bound_to 10162
  156.6791  130.4562  149.5633 LP  0  0  0  0  0  0  0  0  0  0  0  0  # atno 17370 bound_to 10713
  156.1942  130.6579  151.1096 LP  0  0  0  0  0  0  0  0  0  0  0  0  # atno 17371 bound_to 10713
  141.1273  133.9362  157.2609 LP  0  0  0  0  0  0  0  0  0  0  0  0  # atno 17394 bound_to 11000
  139.9546  135.0168  156.9092 LP  0  0  0  0  0  0  0  0  0  0  0  0  # atno 17395 bound_to 11000

$$$$
