AV-unprocessed.smi:1254|AV-procd|sdf|5273|dock4
  -GOLD-   22720 4393D 1   1.00000     0.00000
 Structure written by MMmdl.
 45 46  0  0  0  0  0  0  0  0  1 V2000
  144.0212  131.7855  150.3927 C   0  0  0  0  0  0  0  0  0  0  0  0
  145.1975  132.1625  151.2263 C   0  0  0  0  0  0  0  0  0  0  0  0
  145.8788  133.3345  151.3966 C   0  0  0  0  0  0  0  0  0  0  0  0
  146.8911  132.9818  152.3364 C   0  0  0  0  0  0  0  0  0  0  0  0
  147.8820  133.8462  152.8696 N   0  0  0  0  0  0  0  0  0  0  0  0
  148.4768  133.7923  154.0730 C   0  0  0  0  0  0  0  0  0  0  0  0
  148.2303  132.9681  154.9535 O   0  0  0  0  0  0  0  0  0  0  0  0
  149.3886  134.7664  154.2058 N   0  0  0  0  0  0  0  0  0  0  0  0
  150.2007  135.0017  155.3953 C   0  0  0  0  0  0  0  0  0  0  0  0
  150.5691  136.4873  155.5429 C   0  0  2  0  0  0  0  0  0  0  0  0
  149.4666  137.4075  154.9831 C   0  0  0  0  0  0  0  0  0  0  0  0
  149.8284  138.8188  155.0665 N   0  0  0  0  0  0  0  0  0  0  0  0
  148.7552  139.6635  154.5397 C   0  0  0  0  0  0  0  0  0  0  0  0
  149.0941  141.1663  154.4005 C   0  0  0  0  0  0  0  0  0  0  0  0
  149.8623  141.6746  155.6307 C   0  0  0  0  0  0  0  0  0  0  0  0
  147.8317  142.0186  154.1842 C   0  0  0  0  0  0  0  0  0  0  0  0
  151.1009  139.0235  154.3796 C   0  0  0  0  0  0  0  0  0  0  0  0
  152.2018  138.0962  154.9208 C   0  0  0  0  0  0  0  0  0  0  0  0
  151.7743  136.7423  154.8252 O   0  0  0  0  0  0  0  0  0  0  0  0
  146.8268  131.7144  152.7010 N   0  0  0  0  0  0  0  0  0  0  0  0
  145.7439  131.1807  151.9927 O   0  0  0  0  0  0  0  0  0  0  0  0
  143.5607  132.6679  149.9481 H   0  0  0  0  0  0  0  0  0  0  0  0
  143.2667  131.2782  150.9941 H   0  0  0  0  0  0  0  0  0  0  0  0
  144.3190  131.1157  149.5860 H   0  0  0  0  0  0  0  0  0  0  0  0
  145.6714  134.2803  150.9196 H   0  0  0  0  0  0  0  0  0  0  0  0
  148.1778  134.5915  152.2569 H   0  0  0  0  0  0  0  0  0  0  0  0
  149.5235  135.4008  153.4323 H   0  0  0  0  0  0  0  0  0  0  0  0
  149.6993  134.6381  156.2939 H   0  0  0  0  0  0  0  0  0  0  0  0
  151.1099  134.4089  155.2918 H   0  0  0  0  0  0  0  0  0  0  0  0
  150.7261  136.7128  156.5995 H   0  0  0  0  0  0  0  0  0  0  0  0
  149.2660  137.1400  153.9442 H   0  0  0  0  0  0  0  0  0  0  0  0
  148.5409  137.2333  155.5328 H   0  0  0  0  0  0  0  0  0  0  0  0
  148.4016  139.2682  153.5860 H   0  0  0  0  0  0  0  0  0  0  0  0
  147.9032  139.5737  155.2150 H   0  0  0  0  0  0  0  0  0  0  0  0
  149.7522  141.3025  153.5410 H   0  0  0  0  0  0  0  0  0  0  0  0
  149.2702  141.5680  156.5403 H   0  0  0  0  0  0  0  0  0  0  0  0
  150.1233  142.7279  155.5251 H   0  0  0  0  0  0  0  0  0  0  0  0
  150.7914  141.1210  155.7701 H   0  0  0  0  0  0  0  0  0  0  0  0
  147.1557  141.9466  155.0369 H   0  0  0  0  0  0  0  0  0  0  0  0
  147.2776  141.7065  153.3000 H   0  0  0  0  0  0  0  0  0  0  0  0
  148.0870  143.0706  154.0531 H   0  0  0  0  0  0  0  0  0  0  0  0
  150.9767  138.8507  153.3095 H   0  0  0  0  0  0  0  0  0  0  0  0
  151.4304  140.0552  154.4972 H   0  0  0  0  0  0  0  0  0  0  0  0
  153.1198  138.2217  154.3466 H   0  0  0  0  0  0  0  0  0  0  0  0
  152.4365  138.3388  155.9584 H   0  0  0  0  0  0  0  0  0  0  0  0
  1  2  1  0  0  0  0
  1 22  1  0  0  0  0
  1 23  1  0  0  0  0
  1 24  1  0  0  0  0
  2 21  1  0  0  0  0
  2  3  2  0  0  0  0
  3  4  1  0  0  0  0
  3 25  1  0  0  0  0
  4  5  1  0  0  0  0
  4 20  2  0  0  0  0
  5  6  1  0  0  0  0
  5 26  1  0  0  0  0
  6  7  2  0  0  0  0
  6  8  1  0  0  0  0
  8  9  1  0  0  0  0
  8 27  1  0  0  0  0
  9 10  1  0  0  0  0
  9 28  1  0  0  0  0
  9 29  1  0  0  0  0
 10 19  1  0  0  0  0
 10 11  1  0  0  0  0
 10 30  1  0  0  0  0
 11 12  1  0  0  0  0
 11 31  1  0  0  0  0
 11 32  1  0  0  0  0
 12 13  1  0  0  0  0
 12 17  1  0  0  0  0
 13 14  1  0  0  0  0
 13 33  1  0  0  0  0
 13 34  1  0  0  0  0
 14 15  1  0  0  0  0
 14 16  1  0  0  0  0
 14 35  1  0  0  0  0
 15 36  1  0  0  0  0
 15 37  1  0  0  0  0
 15 38  1  0  0  0  0
 16 39  1  0  0  0  0
 16 40  1  0  0  0  0
 16 41  1  0  0  0  0
 17 18  1  0  0  0  0
 17 42  1  0  0  0  0
 17 43  1  0  0  0  0
 18 19  1  0  0  0  0
 18 44  1  0  0  0  0
 18 45  1  0  0  0  0
 20 21  1  0  0  0  0
M  END
> <s_m_source_file>
AV-unprocessed.smi

> <i_m_source_file_index>
1254

> <i_lp_mmshare_version>
43012

> <i_f3d_flags>
0

> <s_epik_input>
W0NIM11jMVtjSF1jKG5vMSlbTkhdQyg9TylbTkhdW0NIMl1bQ0BASF0yW0NIMl1OKFtDSDJdW0NIMl1PMilbQ0gyXVtDSF0oW0NIM10pW0NIM10=

> <s_epik_cmdline>
J2VwaWtfcHl0aG9uJywgJy1waCcsICc3LjAnLCAnLXRuJywgJzgnLCAnLW1hJywgJzIwMCcsICctbWV0YWxfYmluZGluZycsICctaW1hZScsICc8aW5maWxlLm1hZT4nLCAnLW9tYWUnLCAnPG91dGZpbGUubWFlPic=

> <r_epik_Ionization_Penalty>
1.11086

> <r_epik_Ionization_Penalty_Charging>
0

> <r_epik_Ionization_Penalty_Neutral>
1.11086

> <r_epik_State_Penalty>
1.16881

> <r_epik_Charging_Adjusted_Penalty>
1.16881

> <i_epik_Tot_Q>
0

> <i_epik_Tot_abs_Q>
0

> <r_epik_Metal_State_Penalty>
1.1835

> <b_epik_Metal_Only>
0

> <s_lp_Force_Field>
OPLS_2005

> <r_lp_Energy>
24.7903

> <b_lp_Chiralities_Consistent>
1

> <s_lp_Variant>
AV-unprocessed.smi:1254-5

> <Gold.Version>
5.8.1

> <Gold.Id.Protein>
6NUR|6NUR_protein|mol2

> <Gold.PLP.Fitness>
43.0834

> <Gold.PLP.PLP>
-36.3232

> <Gold.PLP.part.hbond>
-3.0000

> <Gold.PLP.part.metal>
0.0000

> <Gold.PLP.part.buried>
-4.0507

> <Gold.PLP.part.nonpolar>
-29.3112

> <Gold.PLP.part.repulsive>
0.5665

> <Gold.PLP.ligand.clash>
0.0000

> <Gold.PLP.ligand.torsion>
0.8708

> <Gold.PLP.Chemscore.Hbond>
2.8000

> <Gold.PLP.Chemscore.CHOScore>
0.0000

> <Gold.PLP.Chemscore.Metal>
0.0000

> <Gold.Chemscore.Hbonds>
donor molecule, donor type, donor heavy atom, donor atom, acceptor molecule, acceptor atom, score
      L1  H     5    26       P1  7948  0.90
      L1  H     8    27       P1  7948  0.70
      P1  H 10752 10764       L1    19  1.00

> <Gold.PLP.Chemscore.Internal.Correction>
0.1017

> <Gold.Rescore>
     Score         DG    S(hbond)    S(metal)    S(lipo)     H(rot)  DE(clash)    DE(int)     intcor
     15.94     -18.15       2.32        0.00      78.95       1.69       0.06       2.15       ----

> <Gold.Chemscore.Fitness>
15.9404

> <Gold.Chemscore.DG>
-18.1518

> <Gold.Chemscore.ZeroCoef>
-5.4800

> <Gold.Chemscore.Hbond>
2.3236

> <Gold.Chemscore.Metal>
0.0000

> <Gold.Chemscore.Lipo>
78.9540

> <Gold.Chemscore.Internal_Hbond>
0.0000

> <Gold.Chemscore.DEClash>
0.0580

> <Gold.Chemscore.DEInternal>
2.1534

> <Gold.Chemscore.Rot>
1.6900

> <Gold.Chemscore.Internal.Correction>
   9.000000E+99

> <Gold.Chemscore.Hbonds>
donor molecule, donor type, donor heavy atom, donor atom, acceptor molecule, acceptor atom, score
      L1  H     5    26       P1  7948  0.18
      L1  H     8    27       P1  7948  0.07
      P1  H 10752 10764       L1    19  0.92

> <Gold.Chemscore.Hbond.Weighted>
-7.7607

> <Gold.Chemscore.Metal.Weighted>
-0.0000

> <Gold.Chemscore.Lipo.Weighted>
-9.2376

> <Gold.Chemscore.Internal_Hbond.Weighted>
0.0000

> <Gold.Chemscore.DEClash.Weighted>
0.0580

> <Gold.Chemscore.DEInternal.Weighted>
2.1534

> <Gold.Chemscore.Rot.Weighted>
4.3265

> <Gold.Chemscore.Internal.Correction.Weighted>
   9.000000E+99

> <Gold.Protein.RotatedTorsions>
[ 6907 6896 6895 6894 ] final  124.80 input  -60.11 | X-H torsion
[ 7974 7965 7964 7962 ] final -132.93 input  175.53 | X-H torsion
[ 8008 7997 7996 7995 ] final    2.05 input   59.86 | X-H torsion
[ 10167 10162 10161 10158 ] final -108.09 input  -65.29 | X-H torsion
[ 10718 10713 10712 10709 ] final -138.15 input   66.30 | X-H torsion
[ 10763 10752 10751 10750 ] final  -71.19 input  -60.55 | X-H torsion
[ 11005 11000 10999 10996 ] final   84.67 input  -57.11 | X-H torsion

> <Gold.Protein.ActiveResidues>
 VAL166  LYS551  ARG553  GLY616  TRP617  ASP618  TYR619  PRO620  LYS621  CYS622 
 ASP623  PHE694  ASN695  SER759  ASP760  ASP761  ALA762  ILE779  LEU786  VAL792 
 PHE793  MET794  SER795  GLU796  ALA797  LYS798  CYS799  TRP800  GLU811  SER814 

> <Gold.Protein.RotatedAtoms>
  152.4047  133.6871  159.6345 H   0  0  0  0  0  0  0  0  0  0  0  0  # atno 6907 bound_to 6896
  150.7933  133.8730  159.3273 H   0  0  0  0  0  0  0  0  0  0  0  0  # atno 6908 bound_to 6896
  151.6487  135.1006  160.0207 H   0  0  0  0  0  0  0  0  0  0  0  0  # atno 6909 bound_to 6896
  144.9240  140.7049  143.4947 H   0  0  0  0  0  0  0  0  0  0  0  0  # atno 7974 bound_to 7965
  154.6869  140.2645  155.6851 H   0  0  0  0  0  0  0  0  0  0  0  0  # atno 8008 bound_to 7997
  156.2718  140.2799  156.1357 H   0  0  0  0  0  0  0  0  0  0  0  0  # atno 8009 bound_to 7997
  155.0951  140.0374  157.2670 H   0  0  0  0  0  0  0  0  0  0  0  0  # atno 8010 bound_to 7997
  140.1699  143.4051  152.1362 H   0  0  0  0  0  0  0  0  0  0  0  0  # atno 10167 bound_to 10162
  156.2961  130.7402  151.1441 H   0  0  0  0  0  0  0  0  0  0  0  0  # atno 10718 bound_to 10713
  154.4283  135.5970  153.6052 H   0  0  0  0  0  0  0  0  0  0  0  0  # atno 10763 bound_to 10752
  152.9797  135.5969  154.3870 H   0  0  0  0  0  0  0  0  0  0  0  0  # atno 10764 bound_to 10752
  154.3705  135.2841  155.2247 H   0  0  0  0  0  0  0  0  0  0  0  0  # atno 10765 bound_to 10752
  139.8993  134.8233  156.2477 H   0  0  0  0  0  0  0  0  0  0  0  0  # atno 11005 bound_to 11000
  145.3249  139.1777  143.4568 LP  0  0  0  0  0  0  0  0  0  0  0  0  # atno 17320 bound_to 7965
  146.3218  140.3272  142.8637 LP  0  0  0  0  0  0  0  0  0  0  0  0  # atno 17321 bound_to 7965
  139.5343  144.7192  151.4949 LP  0  0  0  0  0  0  0  0  0  0  0  0  # atno 17342 bound_to 10162
  140.6589  143.8541  150.6865 LP  0  0  0  0  0  0  0  0  0  0  0  0  # atno 17343 bound_to 10162
  157.7355  131.0571  150.5463 LP  0  0  0  0  0  0  0  0  0  0  0  0  # atno 17370 bound_to 10713
  156.5585  130.4249  149.6074 LP  0  0  0  0  0  0  0  0  0  0  0  0  # atno 17371 bound_to 10713
  141.0244  133.7023  156.1323 LP  0  0  0  0  0  0  0  0  0  0  0  0  # atno 17394 bound_to 11000
  140.7187  134.4382  157.5576 LP  0  0  0  0  0  0  0  0  0  0  0  0  # atno 17395 bound_to 11000

$$$$
