AV-unprocessed.smi:3078|AV-procd|sdf|11735|dock1
  -GOLD-   2272017133D 1   1.00000     0.00000
 Structure written by MMmdl.
 24 24  0  0  0  0  0  0  0  0  3 V2000
  152.6423  138.3754  154.7271 C   0  0  0  0  0  0  0  0  0  0  0  0
  151.2998  138.8968  154.5833 N   0  0  0  0  0  0  0  0  0  0  0  0
  150.1658  138.2478  154.1459 C   0  0  0  0  0  0  0  0  0  0  0  0
  149.1362  139.1490  154.1780 C   0  0  0  0  0  0  0  0  0  0  0  0
  147.6871  138.9624  153.8043 C   0  0  2  0  0  0  0  0  0  0  0  0
  147.5926  138.5569  152.3902 N   0  3  0  0  0  0  0  0  0  0  0  0
  146.8392  140.2220  154.0710 C   0  0  0  0  0  0  0  0  0  0  0  0
  145.4019  139.9076  154.1769 N   0  3  0  0  0  0  0  0  0  0  0  0
  149.7572  140.3366  154.6619 C   0  0  0  0  0  0  0  0  0  0  0  0
  151.0487  140.1833  154.8987 N   0  0  0  0  0  0  0  0  0  0  0  0
  152.6422  137.2943  154.5837 H   0  0  0  0  0  0  0  0  0  0  0  0
  153.0226  138.5992  155.7246 H   0  0  0  0  0  0  0  0  0  0  0  0
  153.2962  138.8323  153.9837 H   0  0  0  0  0  0  0  0  0  0  0  0
  150.1870  137.2086  153.8515 H   0  0  0  0  0  0  0  0  0  0  0  0
  147.2602  138.1405  154.3810 H   0  0  0  0  0  0  0  0  0  0  0  0
  148.1412  137.7211  152.2430 H   0  0  0  0  0  0  0  0  0  0  0  0
  147.9476  139.2948  151.7986 H   0  0  0  0  0  0  0  0  0  0  0  0
  147.1606  140.7208  154.9861 H   0  0  0  0  0  0  0  0  0  0  0  0
  146.9666  140.9388  153.2589 H   0  0  0  0  0  0  0  0  0  0  0  0
  144.8891  140.4277  153.4788 H   0  0  0  0  0  0  0  0  0  0  0  0
  145.0660  140.1612  155.0955 H   0  0  0  0  0  0  0  0  0  0  0  0
  149.3093  141.3024  154.8445 H   0  0  0  0  0  0  0  0  0  0  0  0
  145.2563  138.9188  154.0293 H   0  0  0  0  0  0  0  0  0  0  0  0
  146.6291  138.3691  152.1520 H   0  0  0  0  0  0  0  0  0  0  0  0
  1  2  1  0  0  0  0
  1 11  1  0  0  0  0
  1 12  1  0  0  0  0
  1 13  1  0  0  0  0
  2 10  1  0  0  0  0
  2  3  1  0  0  0  0
  3  4  2  0  0  0  0
  3 14  1  0  0  0  0
  4  5  1  0  0  0  0
  4  9  1  0  0  0  0
  5  6  1  0  0  0  0
  5  7  1  0  0  0  0
  5 15  1  0  0  0  0
  6 16  1  0  0  0  0
  6 17  1  0  0  0  0
  6 24  1  0  0  0  0
  7  8  1  0  0  0  0
  7 18  1  0  0  0  0
  7 19  1  0  0  0  0
  8 20  1  0  0  0  0
  8 21  1  0  0  0  0
  8 23  1  0  0  0  0
  9 10  2  0  0  0  0
  9 22  1  0  0  0  0
M  CHG  1   6   1
M  CHG  1   8   1
M  END
> <s_m_source_file>
AV-unprocessed.smi

> <i_m_source_file_index>
3078

> <i_lp_mmshare_version>
43012

> <i_f3d_flags>
0

> <s_epik_input>
W0NIM11uMVtjSF1jKFtjSF1uMSlbQ0BIXShbTkgyXSlbQ0gyXVtOSDJd

> <s_epik_cmdline>
J2VwaWtfcHl0aG9uJywgJy1waCcsICc3LjAnLCAnLXRuJywgJzgnLCAnLW1hJywgJzIwMCcsICctbWV0YWxfYmluZGluZycsICctaW1hZScsICc8aW5maWxlLm1hZT4nLCAnLW9tYWUnLCAnPG91dGZpbGUubWFlPic=

> <r_lp_tautomer_probability>
1

> <r_epik_Ionization_Penalty>
2.39325

> <r_epik_Ionization_Penalty_Charging>
2.39325

> <r_epik_Ionization_Penalty_Neutral>
1.68997e-07

> <r_epik_State_Penalty>
1.77229

> <r_epik_Charging_Adjusted_Penalty>
4.16555

> <i_epik_Tot_Q>
2

> <i_epik_Tot_abs_Q>
2

> <r_epik_Metal_State_Penalty>
1.77233

> <b_epik_Metal_Only>
0

> <s_lp_Force_Field>
OPLS_2005

> <r_lp_Energy>
8.51806

> <b_lp_Chiralities_Consistent>
1

> <s_lp_Variant>
AV-unprocessed.smi:3078-5

> <Gold.Version>
5.8.1

> <Gold.Id.Protein>
6NUR|6NUR_protein|mol2

> <Gold.PLP.Fitness>
40.7488

> <Gold.PLP.PLP>
-20.9879

> <Gold.PLP.part.hbond>
-3.8858

> <Gold.PLP.part.metal>
0.0000

> <Gold.PLP.part.buried>
-1.3313

> <Gold.PLP.part.nonpolar>
-16.1687

> <Gold.PLP.part.repulsive>
0.1384

> <Gold.PLP.ligand.clash>
0.0000

> <Gold.PLP.ligand.torsion>
0.1848

> <Gold.PLP.Chemscore.Hbond>
5.7320

> <Gold.PLP.Chemscore.CHOScore>
0.9725

> <Gold.PLP.Chemscore.Metal>
0.0000

> <Gold.Chemscore.Hbonds>
donor molecule, donor type, donor heavy atom, donor atom, acceptor molecule, acceptor atom, score
      L1  H     6    16       P1  7948  2.00
      L1  H     6    17       P1  7957  0.83
      L1  H     8    20       P1 10175  1.95
      P1  H  7989  7998       L1    10  0.86
      L1  C     3    14       P1  7948  0.91
      L1  C     3    14       P1  7949  0.07

> <Gold.PLP.Chemscore.Internal.Correction>
0.0171

> <Gold.Rescore>
     Score         DG    S(hbond)    S(metal)    S(lipo)     H(rot)  DE(clash)    DE(int)     intcor
     16.18     -16.48       2.97        0.00      40.55       1.43       0.07       0.24       ----

> <Gold.Chemscore.Fitness>
16.1752

> <Gold.Chemscore.DG>
-16.4841

> <Gold.Chemscore.ZeroCoef>
-5.4800

> <Gold.Chemscore.Hbond>
2.9705

> <Gold.Chemscore.Metal>
0.0000

> <Gold.Chemscore.Lipo>
40.5521

> <Gold.Chemscore.Internal_Hbond>
0.0000

> <Gold.Chemscore.DEClash>
0.0650

> <Gold.Chemscore.DEInternal>
0.2439

> <Gold.Chemscore.Rot>
1.4304

> <Gold.Chemscore.Internal.Correction>
   9.000000E+99

> <Gold.Chemscore.Hbonds>
donor molecule, donor type, donor heavy atom, donor atom, acceptor molecule, acceptor atom, score
      L1  H     6    16       P1  7948  1.00
      L1  H     6    17       P1  7957  0.83
      L1  H     8    20       P1 10175  0.90
      P1  H  7989  7998       L1    10  0.04

> <Gold.Chemscore.Hbond.Weighted>
-9.9213

> <Gold.Chemscore.Metal.Weighted>
-0.0000

> <Gold.Chemscore.Lipo.Weighted>
-4.7446

> <Gold.Chemscore.Internal_Hbond.Weighted>
0.0000

> <Gold.Chemscore.DEClash.Weighted>
0.0650

> <Gold.Chemscore.DEInternal.Weighted>
0.2439

> <Gold.Chemscore.Rot.Weighted>
3.6618

> <Gold.Chemscore.Internal.Correction.Weighted>
   9.000000E+99

> <Gold.Protein.RotatedTorsions>
[ 6907 6896 6895 6894 ] final   97.15 input  -60.11 | X-H torsion
[ 7974 7965 7964 7962 ] final   98.63 input  175.53 | X-H torsion
[ 8008 7997 7996 7995 ] final  169.68 input   59.86 | X-H torsion
[ 10167 10162 10161 10158 ] final  159.87 input  -65.29 | X-H torsion
[ 10718 10713 10712 10709 ] final   99.78 input   66.30 | X-H torsion
[ 10763 10752 10751 10750 ] final  -67.84 input  -60.55 | X-H torsion
[ 11005 11000 10999 10996 ] final -171.85 input  -57.11 | X-H torsion

> <Gold.Protein.ActiveResidues>
 VAL166  LYS551  ARG553  GLY616  TRP617  ASP618  TYR619  PRO620  LYS621  CYS622 
 ASP623  PHE694  ASN695  SER759  ASP760  ASP761  ALA762  ILE779  LEU786  VAL792 
 PHE793  MET794  SER795  GLU796  ALA797  LYS798  CYS799  TRP800  GLU811  SER814 

> <Gold.Protein.RotatedAtoms>
  152.5427  134.0777  159.8221 H   0  0  0  0  0  0  0  0  0  0  0  0  # atno 6907 bound_to 6896
  151.0883  133.5328  159.2624 H   0  0  0  0  0  0  0  0  0  0  0  0  # atno 6908 bound_to 6896
  151.2129  135.0497  159.8972 H   0  0  0  0  0  0  0  0  0  0  0  0  # atno 6909 bound_to 6896
  145.4096  139.2336  143.3255 H   0  0  0  0  0  0  0  0  0  0  0  0  # atno 7974 bound_to 7965
  156.1435  140.1558  156.8883 H   0  0  0  0  0  0  0  0  0  0  0  0  # atno 8008 bound_to 7997
  154.5008  140.0826  156.7831 H   0  0  0  0  0  0  0  0  0  0  0  0  # atno 8009 bound_to 7997
  155.4033  140.3415  155.4260 H   0  0  0  0  0  0  0  0  0  0  0  0  # atno 8010 bound_to 7997
  139.4835  144.4689  151.8603 H   0  0  0  0  0  0  0  0  0  0  0  0  # atno 10167 bound_to 10162
  157.6869  131.0679  150.5000 H   0  0  0  0  0  0  0  0  0  0  0  0  # atno 10718 bound_to 10713
  154.3803  135.6075  153.5787 H   0  0  0  0  0  0  0  0  0  0  0  0  # atno 10763 bound_to 10752
  152.9788  135.5859  154.4417 H   0  0  0  0  0  0  0  0  0  0  0  0  # atno 10764 bound_to 10752
  154.4186  135.2845  155.1968 H   0  0  0  0  0  0  0  0  0  0  0  0  # atno 10765 bound_to 10752
  140.5036  134.5869  157.4996 H   0  0  0  0  0  0  0  0  0  0  0  0  # atno 11005 bound_to 11000
  146.2711  140.4805  142.8814 LP  0  0  0  0  0  0  0  0  0  0  0  0  # atno 17320 bound_to 7965
  144.8318  140.6719  143.6286 LP  0  0  0  0  0  0  0  0  0  0  0  0  # atno 17321 bound_to 7965
  140.4156  144.2311  150.5888 LP  0  0  0  0  0  0  0  0  0  0  0  0  # atno 17342 bound_to 10162
  140.4924  143.2343  151.8800 LP  0  0  0  0  0  0  0  0  0  0  0  0  # atno 17343 bound_to 10162
  156.5322  130.4187  149.6195 LP  0  0  0  0  0  0  0  0  0  0  0  0  # atno 17370 bound_to 10713
  156.3059  130.7202  151.2084 LP  0  0  0  0  0  0  0  0  0  0  0  0  # atno 17371 bound_to 10713
  139.9699  134.7311  156.0063 LP  0  0  0  0  0  0  0  0  0  0  0  0  # atno 17394 bound_to 11000
  141.1422  133.6562  156.3764 LP  0  0  0  0  0  0  0  0  0  0  0  0  # atno 17395 bound_to 11000

$$$$
