AV-unprocessed.smi:3017|AV-procd|sdf|11476|dock6
  -GOLD-   2272016413D 1   1.00000     0.00000
 Structure written by MMmdl.
 37 38  0  0  0  0  0  0  0  0  1 V2000
  151.2420  144.5765  158.3713 C   0  0  0  0  0  0  0  0  0  0  0  0
  152.2104  144.1406  159.4801 C   0  0  1  0  0  0  0  0  0  0  0  0
  151.5036  144.0596  160.8467 C   0  0  0  0  0  0  0  0  0  0  0  0
  152.4740  143.6243  161.9561 C   0  0  0  0  0  0  0  0  0  0  0  0
  153.1509  142.2885  161.6124 C   0  0  0  0  0  0  0  0  0  0  0  0
  153.8660  142.3576  160.2477 C   0  0  1  0  0  0  0  0  0  0  0  0
  154.3717  141.0787  159.8875 O   0  0  0  0  0  0  0  0  0  0  0  0
  153.3908  140.0483  159.8597 C   0  0  0  0  0  0  0  0  0  0  0  0
  152.9001  139.8295  158.4263 C   0  0  0  0  0  0  0  0  0  0  0  0
  153.7099  139.4784  157.5685 O   0  0  0  0  0  0  0  0  0  0  0  0
  151.5928  140.0540  158.1923 N   0  0  0  0  0  0  0  0  0  0  0  0
  150.8828  139.9094  156.9714 C   0  0  0  0  0  0  0  0  0  0  0  0
  151.6587  140.0109  155.7924 C   0  0  0  0  0  0  0  0  0  0  0  0
  151.1247  139.9005  154.5556 N   0  0  0  0  0  0  0  0  0  0  0  0
  149.7936  139.6849  154.4896 C   0  0  0  0  0  0  0  0  0  0  0  0
  149.0050  139.5794  155.6527 C   0  0  0  0  0  0  0  0  0  0  0  0
  149.5454  139.6906  156.8857 N   0  0  0  0  0  0  0  0  0  0  0  0
  152.8859  142.7961  159.1449 C   0  0  0  0  0  0  0  0  0  0  0  0
  150.4356  143.8542  158.2410 H   0  0  0  0  0  0  0  0  0  0  0  0
  151.7585  144.6752  157.4162 H   0  0  0  0  0  0  0  0  0  0  0  0
  150.7903  145.5418  158.6022 H   0  0  0  0  0  0  0  0  0  0  0  0
  152.9902  144.9004  159.5497 H   0  0  0  0  0  0  0  0  0  0  0  0
  151.0689  145.0269  161.1013 H   0  0  0  0  0  0  0  0  0  0  0  0
  150.6737  143.3533  160.7924 H   0  0  0  0  0  0  0  0  0  0  0  0
  153.2342  144.3934  162.0993 H   0  0  0  0  0  0  0  0  0  0  0  0
  151.9403  143.5374  162.9029 H   0  0  0  0  0  0  0  0  0  0  0  0
  153.8531  142.0276  162.4038 H   0  0  0  0  0  0  0  0  0  0  0  0
  152.4011  141.4966  161.5916 H   0  0  0  0  0  0  0  0  0  0  0  0
  154.6798  143.0842  160.2910 H   0  0  0  0  0  0  0  0  0  0  0  0
  153.8129  139.1153  160.2354 H   0  0  0  0  0  0  0  0  0  0  0  0
  152.5371  140.3042  160.4878 H   0  0  0  0  0  0  0  0  0  0  0  0
  151.0423  140.3427  158.9880 H   0  0  0  0  0  0  0  0  0  0  0  0
  152.7239  140.1858  155.8392 H   0  0  0  0  0  0  0  0  0  0  0  0
  149.3555  139.5972  153.5064 H   0  0  0  0  0  0  0  0  0  0  0  0
  147.9404  139.4073  155.5945 H   0  0  0  0  0  0  0  0  0  0  0  0
  152.1238  142.0275  159.0061 H   0  0  0  0  0  0  0  0  0  0  0  0
  153.4191  142.8757  158.1969 H   0  0  0  0  0  0  0  0  0  0  0  0
  1  2  1  0  0  0  0
  1 19  1  0  0  0  0
  1 20  1  0  0  0  0
  1 21  1  0  0  0  0
  2 18  1  0  0  0  0
  2  3  1  0  0  0  0
  2 22  1  0  0  0  0
  3  4  1  0  0  0  0
  3 23  1  0  0  0  0
  3 24  1  0  0  0  0
  4  5  1  0  0  0  0
  4 25  1  0  0  0  0
  4 26  1  0  0  0  0
  5  6  1  0  0  0  0
  5 27  1  0  0  0  0
  5 28  1  0  0  0  0
  6  7  1  0  0  0  0
  6 18  1  0  0  0  0
  6 29  1  0  0  0  0
  7  8  1  0  0  0  0
  8  9  1  0  0  0  0
  8 30  1  0  0  0  0
  8 31  1  0  0  0  0
  9 10  2  0  0  0  0
  9 11  1  0  0  0  0
 11 12  1  0  0  0  0
 11 32  1  0  0  0  0
 12 17  1  0  0  0  0
 12 13  2  0  0  0  0
 13 14  1  0  0  0  0
 13 33  1  0  0  0  0
 14 15  2  0  0  0  0
 15 16  1  0  0  0  0
 15 34  1  0  0  0  0
 16 17  2  0  0  0  0
 16 35  1  0  0  0  0
 18 36  1  0  0  0  0
 18 37  1  0  0  0  0
M  END
> <s_m_source_file>
AV-unprocessed.smi

> <i_m_source_file_index>
3017

> <i_lp_mmshare_version>
43012

> <i_f3d_flags>
0

> <s_epik_input>
W0NIM11bQ0BASF0xW0NIMl1bQ0gyXVtDSDJdW0NASF0oW0NIMl0xKU9bQ0gyXUMoPU8pW05IXWMyW2NIXW5bY0hdW2NIXW4y

> <s_epik_cmdline>
J2VwaWtfcHl0aG9uJywgJy1waCcsICc3LjAnLCAnLXRuJywgJzgnLCAnLW1hJywgJzIwMCcsICctbWV0YWxfYmluZGluZycsICctaW1hZScsICc8aW5maWxlLm1hZT4nLCAnLW9tYWUnLCAnPG91dGZpbGUubWFlPic=

> <r_lp_tautomer_probability>
1

> <r_epik_Ionization_Penalty>
2.89243e-06

> <r_epik_Ionization_Penalty_Charging>
0

> <r_epik_Ionization_Penalty_Neutral>
2.89243e-06

> <r_epik_State_Penalty>
-0

> <r_epik_Charging_Adjusted_Penalty>
0

> <i_epik_Tot_Q>
0

> <i_epik_Tot_abs_Q>
0

> <r_epik_Metal_State_Penalty>
-0

> <b_epik_Metal_Only>
0

> <s_lp_Force_Field>
OPLS_2005

> <r_lp_Energy>
20.2083

> <b_lp_Chiralities_Consistent>
1

> <s_lp_Variant>
AV-unprocessed.smi:3017-2

> <Gold.Version>
5.8.1

> <Gold.Id.Protein>
6NUR|6NUR_protein|mol2

> <Gold.PLP.Fitness>
50.0008

> <Gold.PLP.PLP>
-41.8117

> <Gold.PLP.part.hbond>
-1.9891

> <Gold.PLP.part.metal>
0.0000

> <Gold.PLP.part.buried>
-5.8484

> <Gold.PLP.part.nonpolar>
-34.2608

> <Gold.PLP.part.repulsive>
0.2276

> <Gold.PLP.ligand.clash>
0.0000

> <Gold.PLP.ligand.torsion>
0.3993

> <Gold.PLP.Chemscore.Hbond>
1.9913

> <Gold.PLP.Chemscore.CHOScore>
1.0000

> <Gold.PLP.Chemscore.Metal>
0.0000

> <Gold.Chemscore.Hbonds>
donor molecule, donor type, donor heavy atom, donor atom, acceptor molecule, acceptor atom, score
      P1  H  7989  7998       L1    14  0.98
      P1  H  7997  8008       L1    10  0.23
      L1  C    15    34       P1  7957  1.00

> <Gold.PLP.Chemscore.Internal.Correction>
0.0139

> <Gold.Rescore>
     Score         DG    S(hbond)    S(metal)    S(lipo)     H(rot)  DE(clash)    DE(int)     intcor
     18.68     -20.60       1.91        0.00     107.63       1.51       0.02       1.90       ----

> <Gold.Chemscore.Fitness>
18.6822

> <Gold.Chemscore.DG>
-20.5975

> <Gold.Chemscore.ZeroCoef>
-5.4800

> <Gold.Chemscore.Hbond>
1.9148

> <Gold.Chemscore.Metal>
0.0000

> <Gold.Chemscore.Lipo>
107.6311

> <Gold.Chemscore.Internal_Hbond>
0.0000

> <Gold.Chemscore.DEClash>
0.0174

> <Gold.Chemscore.DEInternal>
1.8979

> <Gold.Chemscore.Rot>
1.5119

> <Gold.Chemscore.Internal.Correction>
   9.000000E+99

> <Gold.Chemscore.Hbonds>
donor molecule, donor type, donor heavy atom, donor atom, acceptor molecule, acceptor atom, score
      P1  H  7989  7998       L1    14  0.76
      P1  H  7997  8008       L1    10  0.23

> <Gold.Chemscore.Hbond.Weighted>
-6.3953

> <Gold.Chemscore.Metal.Weighted>
-0.0000

> <Gold.Chemscore.Lipo.Weighted>
-12.5928

> <Gold.Chemscore.Internal_Hbond.Weighted>
0.0000

> <Gold.Chemscore.DEClash.Weighted>
0.0174

> <Gold.Chemscore.DEInternal.Weighted>
1.8979

> <Gold.Chemscore.Rot.Weighted>
3.8706

> <Gold.Chemscore.Internal.Correction.Weighted>
   9.000000E+99

> <Gold.Protein.RotatedTorsions>
[ 6907 6896 6895 6894 ] final  111.03 input  -60.11 | X-H torsion
[ 7974 7965 7964 7962 ] final -123.90 input  175.53 | X-H torsion
[ 8008 7997 7996 7995 ] final  -67.18 input   59.86 | X-H torsion
[ 10167 10162 10161 10158 ] final -138.69 input  -65.29 | X-H torsion
[ 10718 10713 10712 10709 ] final  153.34 input   66.30 | X-H torsion
[ 10763 10752 10751 10750 ] final  168.86 input  -60.55 | X-H torsion
[ 11005 11000 10999 10996 ] final  -25.62 input  -57.11 | X-H torsion

> <Gold.Protein.ActiveResidues>
 VAL166  LYS551  ARG553  GLY616  TRP617  ASP618  TYR619  PRO620  LYS621  CYS622 
 ASP623  PHE694  ASN695  SER759  ASP760  ASP761  ALA762  ILE779  LEU786  VAL792 
 PHE793  MET794  SER795  GLU796  ALA797  LYS798  CYS799  TRP800  GLU811  SER814 

> <Gold.Protein.RotatedAtoms>
  152.4990  133.8715  159.7300 H   0  0  0  0  0  0  0  0  0  0  0  0  # atno 6907 bound_to 6896
  150.9201  133.6882  159.2841 H   0  0  0  0  0  0  0  0  0  0  0  0  # atno 6908 bound_to 6896
  151.4262  135.1008  159.9681 H   0  0  0  0  0  0  0  0  0  0  0  0  # atno 6909 bound_to 6896
  145.0137  140.7928  143.4423 H   0  0  0  0  0  0  0  0  0  0  0  0  # atno 7974 bound_to 7965
  154.4783  140.0898  156.7316 H   0  0  0  0  0  0  0  0  0  0  0  0  # atno 8008 bound_to 7997
  155.4538  140.3458  155.4286 H   0  0  0  0  0  0  0  0  0  0  0  0  # atno 8009 bound_to 7997
  156.1151  140.1458  156.9272 H   0  0  0  0  0  0  0  0  0  0  0  0  # atno 8010 bound_to 7997
  139.8453  143.7269  152.2661 H   0  0  0  0  0  0  0  0  0  0  0  0  # atno 10167 bound_to 10162
  157.2461  131.0769  151.1761 H   0  0  0  0  0  0  0  0  0  0  0  0  # atno 10718 bound_to 10713
  154.3748  135.2753  155.2246 H   0  0  0  0  0  0  0  0  0  0  0  0  # atno 10763 bound_to 10752
  154.4378  135.5962  153.6113 H   0  0  0  0  0  0  0  0  0  0  0  0  # atno 10764 bound_to 10752
  152.9837  135.6011  154.3983 H   0  0  0  0  0  0  0  0  0  0  0  0  # atno 10765 bound_to 10752
  140.8954  133.7560  156.0475 H   0  0  0  0  0  0  0  0  0  0  0  0  # atno 11005 bound_to 11000
  145.1988  139.2263  143.5204 LP  0  0  0  0  0  0  0  0  0  0  0  0  # atno 17320 bound_to 7965
  146.3474  140.1801  142.8589 LP  0  0  0  0  0  0  0  0  0  0  0  0  # atno 17321 bound_to 7965
  139.7518  144.7532  151.0494 LP  0  0  0  0  0  0  0  0  0  0  0  0  # atno 17342 bound_to 10162
  140.7793  143.4851  150.9967 LP  0  0  0  0  0  0  0  0  0  0  0  0  # atno 17343 bound_to 10162
  157.3328  130.6993  149.6334 LP  0  0  0  0  0  0  0  0  0  0  0  0  # atno 17370 bound_to 10713
  155.9668  130.4302  150.4868 LP  0  0  0  0  0  0  0  0  0  0  0  0  # atno 17371 bound_to 10713
  140.8295  134.3195  157.5354 LP  0  0  0  0  0  0  0  0  0  0  0  0  # atno 17394 bound_to 11000
  139.8735  134.9355  156.3636 LP  0  0  0  0  0  0  0  0  0  0  0  0  # atno 17395 bound_to 11000

$$$$
