AV-unprocessed.smi:2776|AV-procd|sdf|10706|dock7
  -GOLD-   2272015143D 1   1.00000     0.00000
 Structure written by MMmdl.
 26 27  0  0  0  0  0  0  0  0  2 V2000
  149.8774  138.9303  157.1162 O   0  0  0  0  0  0  0  0  0  0  0  0
  151.0730  138.5334  156.4717 C   0  0  2  0  0  0  0  0  0  0  0  0
  152.1337  139.6467  156.5970 C   0  0  0  0  0  0  0  0  0  0  0  0
  151.5420  140.9830  156.7588 N   0  0  0  0  0  0  0  0  0  0  0  0
  150.7084  141.6692  155.9306 C   0  0  0  0  0  0  0  0  0  0  0  0
  150.4373  142.8670  156.5189 N   0  3  0  0  0  0  0  0  0  0  0  0
  151.1085  142.9488  157.7409 C   0  0  0  0  0  0  0  0  0  0  0  0
  151.1469  143.9624  158.6931 C   0  0  0  0  0  0  0  0  0  0  0  0
  151.9377  143.7295  159.8375 C   0  0  0  0  0  0  0  0  0  0  0  0
  152.0107  144.6838  160.7952 F   0  0  0  0  0  0  0  0  0  0  0  0
  152.6530  142.5244  160.0022 C   0  0  0  0  0  0  0  0  0  0  0  0
  153.4026  142.3418  161.1149 F   0  0  0  0  0  0  0  0  0  0  0  0
  152.6049  141.5034  159.0301 C   0  0  0  0  0  0  0  0  0  0  0  0
  151.8204  141.7416  157.9023 C   0  0  0  0  0  0  0  0  0  0  0  0
  150.7590  138.1667  155.0085 C   0  0  0  0  0  0  0  0  0  0  0  0
  150.0190  137.0586  154.9650 F   0  0  0  0  0  0  0  0  0  0  0  0
  150.1138  139.1598  154.3956 F   0  0  0  0  0  0  0  0  0  0  0  0
  151.8968  137.9291  154.3561 F   0  0  0  0  0  0  0  0  0  0  0  0
  149.1658  138.4137  156.7687 H   0  0  0  0  0  0  0  0  0  0  0  0
  151.4367  137.6416  156.9841 H   0  0  0  0  0  0  0  0  0  0  0  0
  152.7593  139.4672  157.4719 H   0  0  0  0  0  0  0  0  0  0  0  0
  152.8065  139.6532  155.7393 H   0  0  0  0  0  0  0  0  0  0  0  0
  150.3307  141.3257  154.9782 H   0  0  0  0  0  0  0  0  0  0  0  0
  150.6022  144.8869  158.5704 H   0  0  0  0  0  0  0  0  0  0  0  0
  153.1615  140.5880  159.1650 H   0  0  0  0  0  0  0  0  0  0  0  0
  149.8386  143.5751  156.1130 H   0  0  0  0  0  0  0  0  0  0  0  0
  1  2  1  0  0  0  0
  1 19  1  0  0  0  0
  2  3  1  0  0  0  0
  2 15  1  0  0  0  0
  2 20  1  0  0  0  0
  3  4  1  0  0  0  0
  3 21  1  0  0  0  0
  3 22  1  0  0  0  0
  4 14  1  0  0  0  0
  4  5  1  0  0  0  0
  5  6  2  0  0  0  0
  5 23  1  0  0  0  0
  6  7  1  0  0  0  0
  6 26  1  0  0  0  0
  7 14  2  0  0  0  0
  7  8  1  0  0  0  0
  8  9  2  0  0  0  0
  8 24  1  0  0  0  0
  9 10  1  0  0  0  0
  9 11  1  0  0  0  0
 11 12  1  0  0  0  0
 11 13  2  0  0  0  0
 13 14  1  0  0  0  0
 13 25  1  0  0  0  0
 15 16  1  0  0  0  0
 15 17  1  0  0  0  0
 15 18  1  0  0  0  0
M  CHG  1   6   1
M  END
> <s_m_source_file>
AV-unprocessed.smi

> <i_m_source_file_index>
2776

> <i_lp_mmshare_version>
43012

> <i_f3d_flags>
0

> <s_epik_input>
RkMoRikoRilbQ0BIXShbT0hdKVtDSDJdbihbY0hdbjEpYyhjMTIpW2NIXWMoRiljKEYpW2NIXTI=

> <s_epik_cmdline>
J2VwaWtfcHl0aG9uJywgJy1waCcsICc3LjAnLCAnLXRuJywgJzgnLCAnLW1hJywgJzIwMCcsICctbWV0YWxfYmluZGluZycsICctaW1hZScsICc8aW5maWxlLm1hZT4nLCAnLW9tYWUnLCAnPG91dGZpbGUubWFlPic=

> <r_epik_Ionization_Penalty>
2.38424

> <r_epik_Ionization_Penalty_Charging>
2.37244

> <r_epik_Ionization_Penalty_Neutral>
0.0117937

> <r_epik_State_Penalty>
2.52832

> <r_epik_Charging_Adjusted_Penalty>
4.90076

> <i_epik_Tot_Q>
1

> <i_epik_Tot_abs_Q>
1

> <r_epik_Metal_State_Penalty>
6.61271

> <b_epik_Metal_Only>
0

> <s_lp_Force_Field>
OPLS_2005

> <r_lp_Energy>
13.8942

> <b_lp_Chiralities_Consistent>
1

> <s_lp_Variant>
AV-unprocessed.smi:2776-3

> <Gold.Version>
5.8.1

> <Gold.Id.Protein>
6NUR|6NUR_protein|mol2

> <Gold.PLP.Fitness>
46.5450

> <Gold.PLP.PLP>
-41.6931

> <Gold.PLP.part.hbond>
-1.0000

> <Gold.PLP.part.metal>
0.0000

> <Gold.PLP.part.buried>
-5.9162

> <Gold.PLP.part.nonpolar>
-35.2230

> <Gold.PLP.part.repulsive>
0.0719

> <Gold.PLP.ligand.clash>
0.0000

> <Gold.PLP.ligand.torsion>
0.5802

> <Gold.PLP.Chemscore.Hbond>
2.0000

> <Gold.PLP.Chemscore.CHOScore>
0.0000

> <Gold.PLP.Chemscore.Metal>
0.0000

> <Gold.Chemscore.Hbonds>
donor molecule, donor type, donor heavy atom, donor atom, acceptor molecule, acceptor atom, score
      L1  H     6    26       P1  8028  2.00

> <Gold.PLP.Chemscore.Internal.Correction>
0.0122

> <Gold.Rescore>
     Score         DG    S(hbond)    S(metal)    S(lipo)     H(rot)  DE(clash)    DE(int)     intcor
     11.66     -12.38       0.97        0.00      77.65       2.12       0.10       0.61       ----

> <Gold.Chemscore.Fitness>
11.6638

> <Gold.Chemscore.DG>
-12.3767

> <Gold.Chemscore.ZeroCoef>
-5.4800

> <Gold.Chemscore.Hbond>
0.9675

> <Gold.Chemscore.Metal>
0.0000

> <Gold.Chemscore.Lipo>
77.6531

> <Gold.Chemscore.Internal_Hbond>
0.0000

> <Gold.Chemscore.DEClash>
0.1012

> <Gold.Chemscore.DEInternal>
0.6117

> <Gold.Chemscore.Rot>
2.1173

> <Gold.Chemscore.Internal.Correction>
   9.000000E+99

> <Gold.Chemscore.Hbonds>
donor molecule, donor type, donor heavy atom, donor atom, acceptor molecule, acceptor atom, score
      L1  H     6    26       P1  8028  0.95

> <Gold.Chemscore.Hbond.Weighted>
-3.2315

> <Gold.Chemscore.Metal.Weighted>
-0.0000

> <Gold.Chemscore.Lipo.Weighted>
-9.0854

> <Gold.Chemscore.Internal_Hbond.Weighted>
0.0000

> <Gold.Chemscore.DEClash.Weighted>
0.1012

> <Gold.Chemscore.DEInternal.Weighted>
0.6117

> <Gold.Chemscore.Rot.Weighted>
5.4202

> <Gold.Chemscore.Internal.Correction.Weighted>
   9.000000E+99

> <Gold.Protein.RotatedTorsions>
[ 6907 6896 6895 6894 ] final   99.83 input  -60.11 | X-H torsion
[ 7974 7965 7964 7962 ] final   88.17 input  175.53 | X-H torsion
[ 8008 7997 7996 7995 ] final  -13.62 input   59.86 | X-H torsion
[ 10167 10162 10161 10158 ] final    1.23 input  -65.29 | X-H torsion
[ 10718 10713 10712 10709 ] final  108.40 input   66.30 | X-H torsion
[ 10763 10752 10751 10750 ] final  -63.21 input  -60.55 | X-H torsion
[ 11005 11000 10999 10996 ] final   32.39 input  -57.11 | X-H torsion

> <Gold.Protein.ActiveResidues>
 VAL166  LYS551  ARG553  GLY616  TRP617  ASP618  TYR619  PRO620  LYS621  CYS622 
 ASP623  PHE694  ASN695  SER759  ASP760  ASP761  ALA762  ILE779  LEU786  VAL792 
 PHE793  MET794  SER795  GLU796  ALA797  LYS798  CYS799  TRP800  GLU811  SER814 

> <Gold.Protein.RotatedAtoms>
  152.5384  134.0369  159.8049 H   0  0  0  0  0  0  0  0  0  0  0  0  # atno 6907 bound_to 6896
  151.0531  133.5599  159.2648 H   0  0  0  0  0  0  0  0  0  0  0  0  # atno 6908 bound_to 6896
  151.2526  135.0635  159.9121 H   0  0  0  0  0  0  0  0  0  0  0  0  # atno 6909 bound_to 6896
  145.5493  139.2294  143.2522 H   0  0  0  0  0  0  0  0  0  0  0  0  # atno 7974 bound_to 7965
  154.5277  140.2244  155.8860 H   0  0  0  0  0  0  0  0  0  0  0  0  # atno 8008 bound_to 7997
  156.1731  140.3117  155.8973 H   0  0  0  0  0  0  0  0  0  0  0  0  # atno 8009 bound_to 7997
  155.3517  140.0456  157.3037 H   0  0  0  0  0  0  0  0  0  0  0  0  # atno 8010 bound_to 7997
  140.6692  143.7095  150.7889 H   0  0  0  0  0  0  0  0  0  0  0  0  # atno 10167 bound_to 10162
  157.6588  131.0893  150.6300 H   0  0  0  0  0  0  0  0  0  0  0  0  # atno 10718 bound_to 10713
  154.3115  135.6214  153.5468 H   0  0  0  0  0  0  0  0  0  0  0  0  # atno 10763 bound_to 10752
  152.9829  135.5702  154.5171 H   0  0  0  0  0  0  0  0  0  0  0  0  # atno 10764 bound_to 10752
  154.4822  135.2863  155.1538 H   0  0  0  0  0  0  0  0  0  0  0  0  # atno 10765 bound_to 10752
  140.2740  134.3049  155.7819 H   0  0  0  0  0  0  0  0  0  0  0  0  # atno 11005 bound_to 11000
  146.1928  140.6315  142.9138 LP  0  0  0  0  0  0  0  0  0  0  0  0  # atno 17320 bound_to 7965
  144.7537  140.5255  143.6784 LP  0  0  0  0  0  0  0  0  0  0  0  0  # atno 17321 bound_to 7965
  140.0777  143.4999  152.2546 LP  0  0  0  0  0  0  0  0  0  0  0  0  # atno 17342 bound_to 10162
  139.5953  144.7565  151.3300 LP  0  0  0  0  0  0  0  0  0  0  0  0  # atno 17343 bound_to 10162
  156.6604  130.4510  149.5689 LP  0  0  0  0  0  0  0  0  0  0  0  0  # atno 17370 bound_to 10713
  156.2071  130.6656  151.1230 LP  0  0  0  0  0  0  0  0  0  0  0  0  # atno 17371 bound_to 10713
  141.2173  133.7484  156.9378 LP  0  0  0  0  0  0  0  0  0  0  0  0  # atno 17394 bound_to 11000
  140.1346  134.9333  157.2384 LP  0  0  0  0  0  0  0  0  0  0  0  0  # atno 17395 bound_to 11000

$$$$
