AV-unprocessed.smi:261|AV-procd|sdf|1998|dock9
  -GOLD-   2262021193D 1   1.00000     0.00000
 Structure written by MMmdl.
 51 54  0  0  0  0  0  0  0  0  1 V2000
  144.8799  137.4982  160.5463 C   0  0  0  0  0  0  0  0  0  0  0  0
  145.2617  136.4750  159.6409 O   0  0  0  0  0  0  0  0  0  0  0  0
  145.4845  136.9329  158.3127 C   0  0  2  0  0  0  0  0  0  0  0  0
  146.1850  135.8758  157.4480 C   0  0  0  0  0  0  0  0  0  0  0  0
  147.6819  136.0363  157.7572 C   0  0  2  0  0  0  0  0  0  0  0  0
  148.1281  135.1138  158.9122 C   0  0  0  0  0  0  0  0  0  0  0  0
  147.5324  135.2344  160.1034 N   0  0  0  0  0  0  0  0  0  0  0  0
  149.0260  134.2958  158.7240 O   0  0  0  0  0  0  0  0  0  0  0  0
  147.7999  137.4665  158.0445 N   0  0  0  0  0  0  0  0  0  0  0  0
  148.9556  138.1871  158.0084 C   0  0  0  0  0  0  0  0  0  0  0  0
  150.1065  137.5555  158.3617 N   0  0  0  0  0  0  0  0  0  0  0  0
  151.2752  138.2005  158.3433 C   0  0  0  0  0  0  0  0  0  0  0  0
  151.5223  139.4657  158.0063 N   0  0  0  0  0  0  0  0  0  0  0  0
  150.3774  140.1129  157.6474 C   0  0  0  0  0  0  0  0  0  0  0  0
  149.0635  139.5593  157.6243 C   0  0  0  0  0  0  0  0  0  0  0  0
  148.1632  140.5367  157.2141 N   0  0  0  0  0  0  0  0  0  0  0  0
  148.8959  141.5947  157.0065 C   0  0  0  0  0  0  0  0  0  0  0  0
  150.2424  141.4263  157.2294 N   0  0  0  0  0  0  0  0  0  0  0  0
  151.2916  142.4247  157.0736 C   0  0  0  0  0  0  0  0  0  0  0  0
  151.3559  143.4558  158.2267 C   0  0  1  0  0  0  0  0  0  0  0  0
  150.0974  144.0944  158.3226 O   0  0  0  0  0  0  0  0  0  0  0  0
  151.6836  142.8510  159.6076 C   0  0  1  0  0  0  0  0  0  0  0  0
  153.0577  142.1823  159.6986 C   0  0  0  0  0  0  0  0  0  0  0  0
  153.3852  142.2383  161.1811 C   0  0  0  0  0  0  0  0  0  0  0  0
  152.4628  143.3349  161.7165 C   0  0  0  0  0  0  0  0  0  0  0  0
  151.8422  143.8887  160.5647 O   0  0  0  0  0  0  0  0  0  0  0  0
  146.5103  138.0706  158.3664 C   0  0  0  0  0  0  0  0  0  0  0  0
  144.5483  137.2770  157.8696 H   0  0  0  0  0  0  0  0  0  0  0  0
  148.2448  135.7723  156.8623 H   0  0  0  0  0  0  0  0  0  0  0  0
  144.7378  137.0694  161.5381 H   0  0  0  0  0  0  0  0  0  0  0  0
  143.9441  137.9739  160.2535 H   0  0  0  0  0  0  0  0  0  0  0  0
  145.6522  138.2644  160.6217 H   0  0  0  0  0  0  0  0  0  0  0  0
  145.8113  134.8635  157.6033 H   0  0  0  0  0  0  0  0  0  0  0  0
  146.0161  136.1120  156.3965 H   0  0  0  0  0  0  0  0  0  0  0  0
  147.8194  134.6435  160.8702 H   0  0  0  0  0  0  0  0  0  0  0  0
  146.8040  135.9210  160.2337 H   0  0  0  0  0  0  0  0  0  0  0  0
  152.1353  137.6179  158.6384 H   0  0  0  0  0  0  0  0  0  0  0  0
  148.4644  142.5293  156.6827 H   0  0  0  0  0  0  0  0  0  0  0  0
  152.2463  141.9085  156.9692 H   0  0  0  0  0  0  0  0  0  0  0  0
  151.1285  142.9420  156.1273 H   0  0  0  0  0  0  0  0  0  0  0  0
  152.1033  144.2100  157.9782 H   0  0  0  0  0  0  0  0  0  0  0  0
  149.7993  144.3044  157.4509 H   0  0  0  0  0  0  0  0  0  0  0  0
  150.9038  142.1613  159.9371 H   0  0  0  0  0  0  0  0  0  0  0  0
  153.0731  141.1664  159.3069 H   0  0  0  0  0  0  0  0  0  0  0  0
  153.7934  142.7649  159.1421 H   0  0  0  0  0  0  0  0  0  0  0  0
  153.1681  141.2874  161.6692 H   0  0  0  0  0  0  0  0  0  0  0  0
  154.4378  142.4702  161.3460 H   0  0  0  0  0  0  0  0  0  0  0  0
  151.6995  142.9110  162.3706 H   0  0  0  0  0  0  0  0  0  0  0  0
  153.0023  144.1015  162.2730 H   0  0  0  0  0  0  0  0  0  0  0  0
  146.2760  138.8217  157.6106 H   0  0  0  0  0  0  0  0  0  0  0  0
  146.5194  138.5621  159.3406 H   0  0  0  0  0  0  0  0  0  0  0  0
  1  2  1  0  0  0  0
  1 30  1  0  0  0  0
  1 31  1  0  0  0  0
  1 32  1  0  0  0  0
  2  3  1  0  0  0  0
  3 28  1  0  0  0  0
  3 27  1  0  0  0  0
  3  4  1  0  0  0  0
  4  5  1  0  0  0  0
  4 33  1  0  0  0  0
  4 34  1  0  0  0  0
  5 29  1  0  0  0  0
  5  6  1  0  0  0  0
  5  9  1  0  0  0  0
  6  7  1  0  0  0  0
  6  8  2  0  0  0  0
  7 35  1  0  0  0  0
  7 36  1  0  0  0  0
  9 10  1  0  0  0  0
  9 27  1  0  0  0  0
 10 15  1  0  0  0  0
 10 11  2  0  0  0  0
 11 12  1  0  0  0  0
 12 13  2  0  0  0  0
 12 37  1  0  0  0  0
 13 14  1  0  0  0  0
 14 18  1  0  0  0  0
 14 15  2  0  0  0  0
 15 16  1  0  0  0  0
 16 17  2  0  0  0  0
 17 18  1  0  0  0  0
 17 38  1  0  0  0  0
 18 19  1  0  0  0  0
 19 20  1  0  0  0  0
 19 39  1  0  0  0  0
 19 40  1  0  0  0  0
 20 21  1  0  0  0  0
 20 22  1  0  0  0  0
 20 41  1  0  0  0  0
 21 42  1  0  0  0  0
 22 26  1  0  0  0  0
 22 23  1  0  0  0  0
 22 43  1  0  0  0  0
 23 24  1  0  0  0  0
 23 44  1  0  0  0  0
 23 45  1  0  0  0  0
 24 25  1  0  0  0  0
 24 46  1  0  0  0  0
 24 47  1  0  0  0  0
 25 26  1  0  0  0  0
 25 48  1  0  0  0  0
 25 49  1  0  0  0  0
 27 50  1  0  0  0  0
 27 51  1  0  0  0  0
M  END
> <s_m_source_file>
AV-unprocessed.smi

> <i_m_source_file_index>
261

> <i_lp_mmshare_version>
43012

> <i_f3d_flags>
0

> <s_epik_input>
W0NIM11PW0NASF0xW0NIMl1bQ0BASF0oQyg9TylbTkgyXSlOKFtDSDJdMSljKG5bY0hdbjIpYyhjMjMpbltjSF1uM1tDSDJdW0NASF0oW09IXSlbQ0BASF00W0NIMl1bQ0gyXVtDSDJdTzQ=

> <s_epik_cmdline>
J2VwaWtfcHl0aG9uJywgJy1waCcsICc3LjAnLCAnLXRuJywgJzgnLCAnLW1hJywgJzIwMCcsICctbWV0YWxfYmluZGluZycsICctaW1hZScsICc8aW5maWxlLm1hZT4nLCAnLW9tYWUnLCAnPG91dGZpbGUubWFlPic=

> <r_lp_tautomer_probability>
1

> <r_epik_Ionization_Penalty>
0.000713824

> <r_epik_Ionization_Penalty_Charging>
0

> <r_epik_Ionization_Penalty_Neutral>
0.000713824

> <r_epik_State_Penalty>
0.000402132

> <r_epik_Charging_Adjusted_Penalty>
0.000402132

> <i_epik_Tot_Q>
0

> <i_epik_Tot_abs_Q>
0

> <r_epik_Metal_State_Penalty>
-0

> <b_epik_Metal_Only>
0

> <s_lp_Force_Field>
OPLS_2005

> <r_lp_Energy>
45.1221

> <b_lp_Chiralities_Consistent>
1

> <s_lp_Variant>
AV-unprocessed.smi:261-16

> <Gold.Version>
5.8.1

> <Gold.Id.Protein>
6NUR|6NUR_protein|mol2

> <Gold.PLP.Fitness>
41.8058

> <Gold.PLP.PLP>
-34.1649

> <Gold.PLP.part.hbond>
-2.9929

> <Gold.PLP.part.metal>
0.0000

> <Gold.PLP.part.buried>
-7.1682

> <Gold.PLP.part.nonpolar>
-24.4086

> <Gold.PLP.part.repulsive>
0.1879

> <Gold.PLP.ligand.clash>
0.0000

> <Gold.PLP.ligand.torsion>
0.7398

> <Gold.PLP.Chemscore.Hbond>
2.0000

> <Gold.PLP.Chemscore.CHOScore>
1.0000

> <Gold.PLP.Chemscore.Metal>
0.0000

> <Gold.Chemscore.Hbonds>
donor molecule, donor type, donor heavy atom, donor atom, acceptor molecule, acceptor atom, score
      L1  H    21    42       P1  8028  1.00
      P1  H  6896  6908       L1     8  1.00
      L1  C    17    38       P1  8028  1.00

> <Gold.PLP.Chemscore.Internal.Correction>
0.1205

> <Gold.Rescore>
     Score         DG    S(hbond)    S(metal)    S(lipo)     H(rot)  DE(clash)    DE(int)     intcor
     10.10     -11.61       1.80        0.00      70.69       3.18       0.12       1.38       ----

> <Gold.Chemscore.Fitness>
10.1019

> <Gold.Chemscore.DG>
-11.6071

> <Gold.Chemscore.ZeroCoef>
-5.4800

> <Gold.Chemscore.Hbond>
1.7979

> <Gold.Chemscore.Metal>
0.0000

> <Gold.Chemscore.Lipo>
70.6906

> <Gold.Chemscore.Internal_Hbond>
0.0000

> <Gold.Chemscore.DEClash>
0.1218

> <Gold.Chemscore.DEInternal>
1.3835

> <Gold.Chemscore.Rot>
3.1831

> <Gold.Chemscore.Internal.Correction>
   9.000000E+99

> <Gold.Chemscore.Hbonds>
donor molecule, donor type, donor heavy atom, donor atom, acceptor molecule, acceptor atom, score
      L1  H    21    42       P1  8028  0.24
      P1  H  6896  6908       L1     8  1.00

> <Gold.Chemscore.Hbond.Weighted>
-6.0050

> <Gold.Chemscore.Metal.Weighted>
-0.0000

> <Gold.Chemscore.Lipo.Weighted>
-8.2708

> <Gold.Chemscore.Internal_Hbond.Weighted>
0.0000

> <Gold.Chemscore.DEClash.Weighted>
0.1218

> <Gold.Chemscore.DEInternal.Weighted>
1.3835

> <Gold.Chemscore.Rot.Weighted>
8.1486

> <Gold.Chemscore.Internal.Correction.Weighted>
   9.000000E+99

> <Gold.Protein.RotatedTorsions>
[ 6907 6896 6895 6894 ] final  153.03 input  -60.11 | X-H torsion
[ 7974 7965 7964 7962 ] final  -16.83 input  175.53 | X-H torsion
[ 8008 7997 7996 7995 ] final  -55.06 input   59.86 | X-H torsion
[ 10167 10162 10161 10158 ] final  160.80 input  -65.29 | X-H torsion
[ 10718 10713 10712 10709 ] final -175.80 input   66.30 | X-H torsion
[ 10763 10752 10751 10750 ] final -166.82 input  -60.55 | X-H torsion
[ 11005 11000 10999 10996 ] final  -74.76 input  -57.11 | X-H torsion

> <Gold.Protein.ActiveResidues>
 VAL166  LYS551  ARG553  GLY616  TRP617  ASP618  TYR619  PRO620  LYS621  CYS622 
 ASP623  PHE694  ASN695  SER759  ASP760  ASP761  ALA762  ILE779  LEU786  VAL792 
 PHE793  MET794  SER795  GLU796  ALA797  LYS798  CYS799  TRP800  GLU811  SER814 

> <Gold.Protein.RotatedAtoms>
  152.0785  133.4141  159.4490 H   0  0  0  0  0  0  0  0  0  0  0  0  # atno 6907 bound_to 6896
  150.6862  134.3010  159.4715 H   0  0  0  0  0  0  0  0  0  0  0  0  # atno 6908 bound_to 6896
  152.0849  134.9446  160.0623 H   0  0  0  0  0  0  0  0  0  0  0  0  # atno 6909 bound_to 6896
  146.1969  140.3692  142.8437 H   0  0  0  0  0  0  0  0  0  0  0  0  # atno 7974 bound_to 7965
  154.4182  140.1162  156.5415 H   0  0  0  0  0  0  0  0  0  0  0  0  # atno 8008 bound_to 7997
  155.6503  140.3496  155.4726 H   0  0  0  0  0  0  0  0  0  0  0  0  # atno 8009 bound_to 7997
  155.9798  140.1158  157.0726 H   0  0  0  0  0  0  0  0  0  0  0  0  # atno 8010 bound_to 7997
  139.4843  144.4599  151.8719 H   0  0  0  0  0  0  0  0  0  0  0  0  # atno 10167 bound_to 10162
  156.8052  130.9566  151.3117 H   0  0  0  0  0  0  0  0  0  0  0  0  # atno 10718 bound_to 10713
  154.6794  135.2952  154.9633 H   0  0  0  0  0  0  0  0  0  0  0  0  # atno 10763 bound_to 10752
  154.0633  135.6628  153.4818 H   0  0  0  0  0  0  0  0  0  0  0  0  # atno 10764 bound_to 10752
  153.0537  135.5157  154.7830 H   0  0  0  0  0  0  0  0  0  0  0  0  # atno 10765 bound_to 10752
  141.1638  133.6923  156.7414 H   0  0  0  0  0  0  0  0  0  0  0  0  # atno 11005 bound_to 11000
  144.8600  140.7126  143.6113 LP  0  0  0  0  0  0  0  0  0  0  0  0  # atno 17320 bound_to 7965
  145.3612  139.1681  143.4382 LP  0  0  0  0  0  0  0  0  0  0  0  0  # atno 17321 bound_to 7965
  140.4061  144.2430  150.5890 LP  0  0  0  0  0  0  0  0  0  0  0  0  # atno 17342 bound_to 10162
  140.5011  143.2317  151.8677 LP  0  0  0  0  0  0  0  0  0  0  0  0  # atno 17343 bound_to 10162
  157.6533  130.8903  149.9678 LP  0  0  0  0  0  0  0  0  0  0  0  0  # atno 17370 bound_to 10713
  156.1077  130.3652  150.0104 LP  0  0  0  0  0  0  0  0  0  0  0  0  # atno 17371 bound_to 10713
  140.2672  134.8421  157.3813 LP  0  0  0  0  0  0  0  0  0  0  0  0  # atno 17394 bound_to 11000
  140.1555  134.4794  155.7930 LP  0  0  0  0  0  0  0  0  0  0  0  0  # atno 17395 bound_to 11000

$$$$
