AV-unprocessed.smi:86|AV-procd|sdf|816|dock9
  -GOLD-   2262017223D 1   1.00000     0.00000
 Structure written by MMmdl.
 51 55  0  0  0  0  0  0  0  0  1 V2000
  145.2821  136.3968  159.6211 O   0  0  0  0  0  0  0  0  0  0  0  0
  146.0517  135.3773  159.0160 C   0  0  0  0  0  0  0  0  0  0  0  0
  147.4639  135.3016  159.6234 C   0  0  0  0  0  0  0  0  0  0  0  0
  148.2823  134.1617  158.9808 C   0  0  0  0  0  0  0  0  0  0  0  0
  148.0543  133.9899  157.5537 N   0  0  0  0  0  0  0  0  0  0  0  0
  148.3308  134.9056  156.5650 C   0  0  0  0  0  0  0  0  0  0  0  0
  148.0349  134.5215  155.3545 N   0  0  0  0  0  0  0  0  0  0  0  0
  147.5278  133.2356  155.5113 C   0  0  0  0  0  0  0  0  0  0  0  0
  147.0236  132.2397  154.6207 C   0  0  0  0  0  0  0  0  0  0  0  0
  146.9233  132.3834  153.2733 N   0  0  0  0  0  0  0  0  0  0  0  0
  147.1690  133.6593  152.6051 C   0  0  0  0  0  0  0  0  0  0  0  0
  146.3478  133.6136  151.3073 C   0  0  2  0  0  0  0  0  0  0  0  0
  144.9689  134.2841  151.4967 C   0  0  0  0  0  0  0  0  0  0  0  0
  143.9888  133.9242  150.3726 C   0  0  0  0  0  0  0  0  0  0  0  0
  143.8047  132.4013  150.2916 C   0  0  1  0  0  0  0  0  0  0  0  0
  142.9001  132.0909  149.2531 O   0  0  0  0  0  0  0  0  0  0  0  0
  145.1479  131.7018  150.0259 C   0  0  0  0  0  0  0  0  0  0  0  0
  146.2415  132.1036  151.0350 C   0  0  2  0  0  0  0  0  0  0  0  0
  146.1206  131.5045  152.4374 C   0  0  0  0  0  0  0  0  0  0  0  0
  146.6034  131.0710  155.1730 N   0  0  0  0  0  0  0  0  0  0  0  0
  146.6761  130.8758  156.4920 C   0  0  0  0  0  0  0  0  0  0  0  0
  147.1244  131.7066  157.4331 N   0  0  0  0  0  0  0  0  0  0  0  0
  147.5399  132.8871  156.8938 C   0  0  0  0  0  0  0  0  0  0  0  0
  148.1852  136.6515  159.7425 C   0  0  0  0  0  0  0  0  0  0  0  0
  147.8555  136.7677  161.1424 O   0  0  0  0  0  0  0  0  0  0  0  0
  147.4950  135.3706  161.1571 C   0  0  0  0  0  0  0  0  0  0  0  0
  145.5410  137.2271  159.2511 H   0  0  0  0  0  0  0  0  0  0  0  0
  145.5236  134.4338  159.1585 H   0  0  0  0  0  0  0  0  0  0  0  0
  146.0833  135.5419  157.9388 H   0  0  0  0  0  0  0  0  0  0  0  0
  149.3488  134.3285  159.1360 H   0  0  0  0  0  0  0  0  0  0  0  0
  148.0649  133.2109  159.4690 H   0  0  0  0  0  0  0  0  0  0  0  0
  148.7544  135.8776  156.7722 H   0  0  0  0  0  0  0  0  0  0  0  0
  146.8936  134.5169  153.2204 H   0  0  0  0  0  0  0  0  0  0  0  0
  148.2340  133.7337  152.3829 H   0  0  0  0  0  0  0  0  0  0  0  0
  146.8746  134.1129  150.4932 H   0  0  0  0  0  0  0  0  0  0  0  0
  144.5339  133.9794  152.4496 H   0  0  0  0  0  0  0  0  0  0  0  0
  145.0894  135.3664  151.5522 H   0  0  0  0  0  0  0  0  0  0  0  0
  143.0286  134.4083  150.5549 H   0  0  0  0  0  0  0  0  0  0  0  0
  144.3594  134.3116  149.4224 H   0  0  0  0  0  0  0  0  0  0  0  0
  143.3766  132.0350  151.2251 H   0  0  0  0  0  0  0  0  0  0  0  0
  142.1447  132.6528  149.3348 H   0  0  0  0  0  0  0  0  0  0  0  0
  145.0198  130.6187  150.0265 H   0  0  0  0  0  0  0  0  0  0  0  0
  145.4921  131.9661  149.0248 H   0  0  0  0  0  0  0  0  0  0  0  0
  147.1998  131.7713  150.6321 H   0  0  0  0  0  0  0  0  0  0  0  0
  146.4891  130.4787  152.4608 H   0  0  0  0  0  0  0  0  0  0  0  0
  145.0877  131.5125  152.7869 H   0  0  0  0  0  0  0  0  0  0  0  0
  146.3238  129.9173  156.8432 H   0  0  0  0  0  0  0  0  0  0  0  0
  149.2633  136.5932  159.5838 H   0  0  0  0  0  0  0  0  0  0  0  0
  147.7463  137.4473  159.1396 H   0  0  0  0  0  0  0  0  0  0  0  0
  146.5296  135.1883  161.6305 H   0  0  0  0  0  0  0  0  0  0  0  0
  148.2753  134.7640  161.6182 H   0  0  0  0  0  0  0  0  0  0  0  0
  1  2  1  0  0  0  0
  1 27  1  0  0  0  0
  2  3  1  0  0  0  0
  2 28  1  0  0  0  0
  2 29  1  0  0  0  0
  3 26  1  0  0  0  0
  3  4  1  0  0  0  0
  3 24  1  0  0  0  0
  4  5  1  0  0  0  0
  4 30  1  0  0  0  0
  4 31  1  0  0  0  0
  5 23  1  0  0  0  0
  5  6  1  0  0  0  0
  6  7  2  0  0  0  0
  6 32  1  0  0  0  0
  7  8  1  0  0  0  0
  8 23  2  0  0  0  0
  8  9  1  0  0  0  0
  9 10  1  0  0  0  0
  9 20  2  0  0  0  0
 10 19  1  0  0  0  0
 10 11  1  0  0  0  0
 11 12  1  0  0  0  0
 11 33  1  0  0  0  0
 11 34  1  0  0  0  0
 12 18  1  0  0  0  0
 12 13  1  0  0  0  0
 12 35  1  0  0  0  0
 13 14  1  0  0  0  0
 13 36  1  0  0  0  0
 13 37  1  0  0  0  0
 14 15  1  0  0  0  0
 14 38  1  0  0  0  0
 14 39  1  0  0  0  0
 15 16  1  0  0  0  0
 15 17  1  0  0  0  0
 15 40  1  0  0  0  0
 16 41  1  0  0  0  0
 17 18  1  0  0  0  0
 17 42  1  0  0  0  0
 17 43  1  0  0  0  0
 18 19  1  0  0  0  0
 18 44  1  0  0  0  0
 19 45  1  0  0  0  0
 19 46  1  0  0  0  0
 20 21  1  0  0  0  0
 21 22  2  0  0  0  0
 21 47  1  0  0  0  0
 22 23  1  0  0  0  0
 24 25  1  0  0  0  0
 24 48  1  0  0  0  0
 24 49  1  0  0  0  0
 25 26  1  0  0  0  0
 26 50  1  0  0  0  0
 26 51  1  0  0  0  0
M  END
> <s_m_source_file>
AV-unprocessed.smi

> <i_m_source_file_index>
86

> <i_lp_mmshare_version>
43012

> <i_f3d_flags>
0

> <s_epik_input>
W0NIMl0xT1tDSDJdQzEoW0NIMl1bT0hdKVtDSDJdbihbY0hdbjIpYyhjMjMpbltjSF1uYzNOKFtDSDJdNClbQ0gyXVtDQEBIXShbQ0BIXTQ1KVtDSDJdW0NASF0oW09IXSlbQ0gyXVtDSDJdNQ==

> <s_epik_cmdline>
J2VwaWtfcHl0aG9uJywgJy1waCcsICc3LjAnLCAnLXRuJywgJzgnLCAnLW1hJywgJzIwMCcsICctbWV0YWxfYmluZGluZycsICctaW1hZScsICc8aW5maWxlLm1hZT4nLCAnLW9tYWUnLCAnPG91dGZpbGUubWFlPic=

> <r_lp_tautomer_probability>
1

> <r_epik_Ionization_Penalty>
0.00425795

> <r_epik_Ionization_Penalty_Charging>
0

> <r_epik_Ionization_Penalty_Neutral>
0.00425795

> <r_epik_State_Penalty>
0.00299946

> <r_epik_Charging_Adjusted_Penalty>
0.00299946

> <i_epik_Tot_Q>
0

> <i_epik_Tot_abs_Q>
0

> <r_epik_Metal_State_Penalty>
-0

> <b_epik_Metal_Only>
0

> <s_lp_Force_Field>
OPLS_2005

> <r_lp_Energy>
53.5956

> <b_lp_Chiralities_Consistent>
1

> <s_lp_Variant>
AV-unprocessed.smi:86-5

> <Gold.Version>
5.8.1

> <Gold.Id.Protein>
6NUR|6NUR_protein|mol2

> <Gold.PLP.Fitness>
41.8261

> <Gold.PLP.PLP>
-31.6149

> <Gold.PLP.part.hbond>
-4.8855

> <Gold.PLP.part.metal>
0.0000

> <Gold.PLP.part.buried>
-3.8787

> <Gold.PLP.part.nonpolar>
-23.8633

> <Gold.PLP.part.repulsive>
0.1926

> <Gold.PLP.ligand.clash>
0.0000

> <Gold.PLP.ligand.torsion>
0.5399

> <Gold.PLP.Chemscore.Hbond>
3.6079

> <Gold.PLP.Chemscore.CHOScore>
0.0000

> <Gold.PLP.Chemscore.Metal>
0.0000

> <Gold.Chemscore.Hbonds>
donor molecule, donor type, donor heavy atom, donor atom, acceptor molecule, acceptor atom, score
      L1  H    16    41       P1 10186  0.83
      P1  H  6931  6943       L1    25  0.98
      P1  H  6934  6947       L1    25  0.10
      P1  H 10785 10796       L1    16  0.99

> <Gold.PLP.Chemscore.Internal.Correction>
0.4673

> <Gold.Rescore>
     Score         DG    S(hbond)    S(metal)    S(lipo)     H(rot)  DE(clash)    DE(int)     intcor
     14.29     -17.04       2.76        0.00      80.45       2.76       0.32       2.43       ----

> <Gold.Chemscore.Fitness>
14.2882

> <Gold.Chemscore.DG>
-17.0410

> <Gold.Chemscore.ZeroCoef>
-5.4800

> <Gold.Chemscore.Hbond>
2.7612

> <Gold.Chemscore.Metal>
0.0000

> <Gold.Chemscore.Lipo>
80.4454

> <Gold.Chemscore.Internal_Hbond>
0.0000

> <Gold.Chemscore.DEClash>
0.3196

> <Gold.Chemscore.DEInternal>
2.4332

> <Gold.Chemscore.Rot>
2.7630

> <Gold.Chemscore.Internal.Correction>
   9.000000E+99

> <Gold.Chemscore.Hbonds>
donor molecule, donor type, donor heavy atom, donor atom, acceptor molecule, acceptor atom, score
      L1  H    16    41       P1 10186  0.80
      P1  H  6931  6943       L1    25  0.54
      P1  H  6934  6947       L1    25  0.01
      P1  H 10785 10796       L1    16  0.60

> <Gold.Chemscore.Hbond.Weighted>
-9.2223

> <Gold.Chemscore.Metal.Weighted>
-0.0000

> <Gold.Chemscore.Lipo.Weighted>
-9.4121

> <Gold.Chemscore.Internal_Hbond.Weighted>
0.0000

> <Gold.Chemscore.DEClash.Weighted>
0.3196

> <Gold.Chemscore.DEInternal.Weighted>
2.4332

> <Gold.Chemscore.Rot.Weighted>
7.0734

> <Gold.Chemscore.Internal.Correction.Weighted>
   9.000000E+99

> <Gold.Protein.RotatedTorsions>
[ 6907 6896 6895 6894 ] final  149.14 input  -60.11 | X-H torsion
[ 7974 7965 7964 7962 ] final  -27.74 input  175.53 | X-H torsion
[ 8008 7997 7996 7995 ] final -110.03 input   59.86 | X-H torsion
[ 10167 10162 10161 10158 ] final  137.68 input  -65.29 | X-H torsion
[ 10718 10713 10712 10709 ] final  -81.93 input   66.30 | X-H torsion
[ 10763 10752 10751 10750 ] final  -91.79 input  -60.55 | X-H torsion
[ 11005 11000 10999 10996 ] final  175.85 input  -57.11 | X-H torsion

> <Gold.Protein.ActiveResidues>
 VAL166  LYS551  ARG553  GLY616  TRP617  ASP618  TYR619  PRO620  LYS621  CYS622 
 ASP623  PHE694  ASN695  SER759  ASP760  ASP761  ALA762  ILE779  LEU786  VAL792 
 PHE793  MET794  SER795  GLU796  ALA797  LYS798  CYS799  TRP800  GLU811  SER814 

> <Gold.Protein.RotatedAtoms>
  152.1321  133.4413  159.4725 H   0  0  0  0  0  0  0  0  0  0  0  0  # atno 6907 bound_to 6896
  150.6879  134.2408  159.4481 H   0  0  0  0  0  0  0  0  0  0  0  0  # atno 6908 bound_to 6896
  152.0293  134.9777  160.0623 H   0  0  0  0  0  0  0  0  0  0  0  0  # atno 6909 bound_to 6896
  146.1337  140.5192  142.8682 H   0  0  0  0  0  0  0  0  0  0  0  0  # atno 7974 bound_to 7965
  154.9683  140.0398  157.2222 H   0  0  0  0  0  0  0  0  0  0  0  0  # atno 8008 bound_to 7997
  154.7825  140.2821  155.6030 H   0  0  0  0  0  0  0  0  0  0  0  0  # atno 8009 bound_to 7997
  156.2938  140.2589  156.2654 H   0  0  0  0  0  0  0  0  0  0  0  0  # atno 8010 bound_to 7997
  139.5136  144.6396  151.5604 H   0  0  0  0  0  0  0  0  0  0  0  0  # atno 10167 bound_to 10162
  156.0042  130.4618  150.4027 H   0  0  0  0  0  0  0  0  0  0  0  0  # atno 10718 bound_to 10713
  154.6796  135.5255  153.8245 H   0  0  0  0  0  0  0  0  0  0  0  0  # atno 10763 bound_to 10752
  153.0555  135.6549  154.0596 H   0  0  0  0  0  0  0  0  0  0  0  0  # atno 10764 bound_to 10752
  154.0485  135.2971  155.3324 H   0  0  0  0  0  0  0  0  0  0  0  0  # atno 10765 bound_to 10752
  140.3667  134.7066  157.4366 H   0  0  0  0  0  0  0  0  0  0  0  0  # atno 11005 bound_to 11000
  144.7717  140.5651  143.6666 LP  0  0  0  0  0  0  0  0  0  0  0  0  # atno 17320 bound_to 7965
  145.5204  139.1477  143.3555 LP  0  0  0  0  0  0  0  0  0  0  0  0  # atno 17321 bound_to 7965
  140.6158  143.9351  150.6487 LP  0  0  0  0  0  0  0  0  0  0  0  0  # atno 17342 bound_to 10162
  140.2608  143.3525  152.1324 LP  0  0  0  0  0  0  0  0  0  0  0  0  # atno 17343 bound_to 10162
  157.2095  131.0457  151.2607 LP  0  0  0  0  0  0  0  0  0  0  0  0  # atno 17370 bound_to 10713
  157.3902  130.7278  149.6692 LP  0  0  0  0  0  0  0  0  0  0  0  0  # atno 17371 bound_to 10713
  140.0584  134.6031  155.8778 LP  0  0  0  0  0  0  0  0  0  0  0  0  # atno 17394 bound_to 11000
  141.1967  133.6593  156.5706 LP  0  0  0  0  0  0  0  0  0  0  0  0  # atno 17395 bound_to 11000

$$$$
