AV-unprocessed.smi:3220|AV-procd|sdf|12298|dock10
  -GOLD-   2272018143D 1   1.00000     0.00000
 Structure written by MMmdl.
 33 34  0  0  0  0  0  0  0  0  1 V2000
  153.6745  139.8199  159.7865 C   0  0  0  0  0  0  0  0  0  0  0  0
  152.6627  140.9375  159.4996 C   0  0  1  0  0  0  0  0  0  0  0  0
  153.2580  142.3266  159.8170 C   0  0  0  0  0  0  0  0  0  0  0  0
  152.3446  143.4146  159.5152 N   0  0  0  0  0  0  0  0  0  0  0  0
  151.8856  144.4077  160.3553 C   0  0  0  0  0  0  0  0  0  0  0  0
  151.0595  145.2102  159.6219 C   0  0  0  0  0  0  0  0  0  0  0  0
  151.0729  144.6166  158.3287 C   0  0  0  0  0  0  0  0  0  0  0  0
  151.8393  143.5397  158.2690 N   0  0  0  0  0  0  0  0  0  0  0  0
  152.2521  140.8544  158.0983 N   0  0  0  0  0  0  0  0  0  0  0  0
  151.6203  139.8183  157.5240 C   0  0  0  0  0  0  0  0  0  0  0  0
  151.3305  138.7840  158.1268 O   0  0  0  0  0  0  0  0  0  0  0  0
  151.2572  139.9850  156.0408 C   0  0  2  0  0  0  0  0  0  0  0  0
  150.4248  138.8154  155.4785 C   0  0  0  0  0  0  0  0  0  0  0  0
  151.2674  138.2677  154.3393 C   0  0  0  0  0  0  0  0  0  0  0  0
  152.6733  138.7181  154.7082 C   0  0  0  0  0  0  0  0  0  0  0  0
  152.4565  140.0052  155.2677 O   0  0  0  0  0  0  0  0  0  0  0  0
  153.9878  139.8337  160.8308 H   0  0  0  0  0  0  0  0  0  0  0  0
  154.5684  139.9235  159.1702 H   0  0  0  0  0  0  0  0  0  0  0  0
  153.2429  138.8385  159.5869 H   0  0  0  0  0  0  0  0  0  0  0  0
  151.8022  140.7650  160.1490 H   0  0  0  0  0  0  0  0  0  0  0  0
  153.5171  142.3905  160.8750 H   0  0  0  0  0  0  0  0  0  0  0  0
  154.1843  142.4827  159.2621 H   0  0  0  0  0  0  0  0  0  0  0  0
  152.1878  144.4640  161.3908 H   0  0  0  0  0  0  0  0  0  0  0  0
  150.5279  146.0882  159.9572 H   0  0  0  0  0  0  0  0  0  0  0  0
  150.5510  144.9334  157.4378 H   0  0  0  0  0  0  0  0  0  0  0  0
  152.4553  141.6566  157.5197 H   0  0  0  0  0  0  0  0  0  0  0  0
  150.7360  140.9315  155.8886 H   0  0  0  0  0  0  0  0  0  0  0  0
  150.2499  138.0382  156.2246 H   0  0  0  0  0  0  0  0  0  0  0  0
  149.4477  139.1458  155.1248 H   0  0  0  0  0  0  0  0  0  0  0  0
  151.1830  137.1866  154.2258 H   0  0  0  0  0  0  0  0  0  0  0  0
  150.9674  138.7330  153.3995 H   0  0  0  0  0  0  0  0  0  0  0  0
  153.1139  138.0555  155.4546 H   0  0  0  0  0  0  0  0  0  0  0  0
  153.3422  138.7603  153.8484 H   0  0  0  0  0  0  0  0  0  0  0  0
  1  2  1  0  0  0  0
  1 17  1  0  0  0  0
  1 18  1  0  0  0  0
  1 19  1  0  0  0  0
  2  3  1  0  0  0  0
  2  9  1  0  0  0  0
  2 20  1  0  0  0  0
  3  4  1  0  0  0  0
  3 21  1  0  0  0  0
  3 22  1  0  0  0  0
  4  8  1  0  0  0  0
  4  5  1  0  0  0  0
  5  6  2  0  0  0  0
  5 23  1  0  0  0  0
  6  7  1  0  0  0  0
  6 24  1  0  0  0  0
  7  8  2  0  0  0  0
  7 25  1  0  0  0  0
  9 10  1  0  0  0  0
  9 26  1  0  0  0  0
 10 11  2  0  0  0  0
 10 12  1  0  0  0  0
 12 16  1  0  0  0  0
 12 13  1  0  0  0  0
 12 27  1  0  0  0  0
 13 14  1  0  0  0  0
 13 28  1  0  0  0  0
 13 29  1  0  0  0  0
 14 15  1  0  0  0  0
 14 30  1  0  0  0  0
 14 31  1  0  0  0  0
 15 16  1  0  0  0  0
 15 32  1  0  0  0  0
 15 33  1  0  0  0  0
M  END
> <s_m_source_file>
AV-unprocessed.smi

> <i_m_source_file_index>
3220

> <i_lp_mmshare_version>
43012

> <i_f3d_flags>
0

> <s_epik_input>
bjFbY0hdW2NIXVtjSF1uMVtDSDJdW0NAQEhdKFtDSDNdKVtOSF1DKD1PKVtDQEBIXTJbQ0gyXVtDSDJdW0NIMl1PMg==

> <s_epik_cmdline>
J2VwaWtfcHl0aG9uJywgJy1waCcsICc3LjAnLCAnLXRuJywgJzgnLCAnLW1hJywgJzIwMCcsICctbWV0YWxfYmluZGluZycsICctaW1hZScsICc8aW5maWxlLm1hZT4nLCAnLW9tYWUnLCAnPG91dGZpbGUubWFlPic=

> <r_lp_tautomer_probability>
1

> <r_epik_Ionization_Penalty>
0.00033363

> <r_epik_Ionization_Penalty_Charging>
0

> <r_epik_Ionization_Penalty_Neutral>
0.00033363

> <r_epik_State_Penalty>
-0

> <r_epik_Charging_Adjusted_Penalty>
0

> <i_epik_Tot_Q>
0

> <i_epik_Tot_abs_Q>
0

> <r_epik_Metal_State_Penalty>
-0

> <b_epik_Metal_Only>
0

> <s_lp_Force_Field>
OPLS_2005

> <r_lp_Energy>
18.0853

> <b_lp_Chiralities_Consistent>
1

> <s_lp_Variant>
AV-unprocessed.smi:3220-2

> <Gold.Version>
5.8.1

> <Gold.Id.Protein>
6NUR|6NUR_protein|mol2

> <Gold.PLP.Fitness>
45.5905

> <Gold.PLP.PLP>
-39.1130

> <Gold.PLP.part.hbond>
-2.0000

> <Gold.PLP.part.metal>
0.0000

> <Gold.PLP.part.buried>
-5.6561

> <Gold.PLP.part.nonpolar>
-32.3849

> <Gold.PLP.part.repulsive>
0.1371

> <Gold.PLP.ligand.clash>
0.0000

> <Gold.PLP.ligand.torsion>
0.1144

> <Gold.PLP.Chemscore.Hbond>
1.2300

> <Gold.PLP.Chemscore.CHOScore>
0.9990

> <Gold.PLP.Chemscore.Metal>
0.0000

> <Gold.Chemscore.Hbonds>
donor molecule, donor type, donor heavy atom, donor atom, acceptor molecule, acceptor atom, score
      P1  H  7989  7998       L1    16  0.37
      P1  H  7997  8009       L1    16  0.66
      L1  C     7    25       P1  8028  0.99
      L1  C     7    25       P1  8029  0.01

> <Gold.PLP.Chemscore.Internal.Correction>
0.0194

> <Gold.Rescore>
     Score         DG    S(hbond)    S(metal)    S(lipo)     H(rot)  DE(clash)    DE(int)     intcor
     15.03     -15.38       0.95        0.00      92.94       1.62       0.01       0.33       ----

> <Gold.Chemscore.Fitness>
15.0310

> <Gold.Chemscore.DG>
-15.3755

> <Gold.Chemscore.ZeroCoef>
-5.4800

> <Gold.Chemscore.Hbond>
0.9503

> <Gold.Chemscore.Metal>
0.0000

> <Gold.Chemscore.Lipo>
92.9371

> <Gold.Chemscore.Internal_Hbond>
0.0000

> <Gold.Chemscore.DEClash>
0.0096

> <Gold.Chemscore.DEInternal>
0.3350

> <Gold.Chemscore.Rot>
1.6219

> <Gold.Chemscore.Internal.Correction>
   9.000000E+99

> <Gold.Chemscore.Hbonds>
donor molecule, donor type, donor heavy atom, donor atom, acceptor molecule, acceptor atom, score
      P1  H  7989  7998       L1    16  0.01
      P1  H  7997  8009       L1    16  0.09

> <Gold.Chemscore.Hbond.Weighted>
-3.1738

> <Gold.Chemscore.Metal.Weighted>
-0.0000

> <Gold.Chemscore.Lipo.Weighted>
-10.8736

> <Gold.Chemscore.Internal_Hbond.Weighted>
0.0000

> <Gold.Chemscore.DEClash.Weighted>
0.0096

> <Gold.Chemscore.DEInternal.Weighted>
0.3350

> <Gold.Chemscore.Rot.Weighted>
4.1520

> <Gold.Chemscore.Internal.Correction.Weighted>
   9.000000E+99

> <Gold.Protein.RotatedTorsions>
[ 6907 6896 6895 6894 ] final  159.90 input  -60.11 | X-H torsion
[ 7974 7965 7964 7962 ] final  -73.28 input  175.53 | X-H torsion
[ 8008 7997 7996 7995 ] final -153.58 input   59.86 | X-H torsion
[ 10167 10162 10161 10158 ] final  123.67 input  -65.29 | X-H torsion
[ 10718 10713 10712 10709 ] final  131.09 input   66.30 | X-H torsion
[ 10763 10752 10751 10750 ] final -110.63 input  -60.55 | X-H torsion
[ 11005 11000 10999 10996 ] final -122.06 input  -57.11 | X-H torsion

> <Gold.Protein.ActiveResidues>
 VAL166  LYS551  ARG553  GLY616  TRP617  ASP618  TYR619  PRO620  LYS621  CYS622 
 ASP623  PHE694  ASN695  SER759  ASP760  ASP761  ALA762  ILE779  LEU786  VAL792 
 PHE793  MET794  SER795  GLU796  ALA797  LYS798  CYS799  TRP800  GLU811  SER814 

> <Gold.Protein.RotatedAtoms>
  151.9787  133.3750  159.4098 H   0  0  0  0  0  0  0  0  0  0  0  0  # atno 6907 bound_to 6896
  150.6938  134.4062  159.5150 H   0  0  0  0  0  0  0  0  0  0  0  0  # atno 6908 bound_to 6896
  152.1778  134.8780  160.0580 H   0  0  0  0  0  0  0  0  0  0  0  0  # atno 6909 bound_to 6896
  145.6542  140.9273  143.0968 H   0  0  0  0  0  0  0  0  0  0  0  0  # atno 7974 bound_to 7965
  155.6731  140.0735  157.2513 H   0  0  0  0  0  0  0  0  0  0  0  0  # atno 8008 bound_to 7997
  154.4119  140.1695  156.1952 H   0  0  0  0  0  0  0  0  0  0  0  0  # atno 8009 bound_to 7997
  155.9600  140.3370  155.6485 H   0  0  0  0  0  0  0  0  0  0  0  0  # atno 8010 bound_to 7997
  139.5786  144.6975  151.3587 H   0  0  0  0  0  0  0  0  0  0  0  0  # atno 10167 bound_to 10162
  157.5000  131.1094  150.9440 H   0  0  0  0  0  0  0  0  0  0  0  0  # atno 10718 bound_to 10713
  154.8258  135.4557  154.0915 H   0  0  0  0  0  0  0  0  0  0  0  0  # atno 10763 bound_to 10752
  153.2230  135.6896  153.7984 H   0  0  0  0  0  0  0  0  0  0  0  0  # atno 10764 bound_to 10752
  153.7395  135.3314  155.3278 H   0  0  0  0  0  0  0  0  0  0  0  0  # atno 10765 bound_to 10752
  141.0024  134.0384  157.3521 H   0  0  0  0  0  0  0  0  0  0  0  0  # atno 11005 bound_to 11000
  144.7112  139.8366  143.7414 LP  0  0  0  0  0  0  0  0  0  0  0  0  # atno 17320 bound_to 7965
  146.1178  139.4192  143.0247 LP  0  0  0  0  0  0  0  0  0  0  0  0  # atno 17321 bound_to 7965
  140.7066  143.7497  150.7493 LP  0  0  0  0  0  0  0  0  0  0  0  0  # atno 17342 bound_to 10162
  140.1023  143.4776  152.2418 LP  0  0  0  0  0  0  0  0  0  0  0  0  # atno 17343 bound_to 10162
  157.0113  130.5638  149.5321 LP  0  0  0  0  0  0  0  0  0  0  0  0  # atno 17370 bound_to 10713
  156.0224  130.5318  150.8311 LP  0  0  0  0  0  0  0  0  0  0  0  0  # atno 17371 bound_to 10713
  139.9045  135.0175  156.7424 LP  0  0  0  0  0  0  0  0  0  0  0  0  # atno 17394 bound_to 11000
  140.6868  133.9425  155.7942 LP  0  0  0  0  0  0  0  0  0  0  0  0  # atno 17395 bound_to 11000

$$$$
