AV-unprocessed.smi:54|AV-procd|sdf|556|dock5
  -GOLD-   2262016453D 1   1.00000     0.00000
 Structure written by MMmdl.
 43 45  0  0  0  0  0  0  0  0  2 V2000
  152.9260  142.4203  161.9137 C   0  0  0  0  0  0  0  0  0  0  0  0
  152.9159  142.5706  160.3836 C   0  0  0  0  0  0  0  0  0  0  0  0
  151.6756  143.3444  159.9068 C   0  0  0  0  0  0  0  0  0  0  0  0
  152.9956  141.1969  159.7027 C   0  0  0  0  0  0  0  0  0  0  0  0
  153.5412  140.2639  160.2958 O   0  0  0  0  0  0  0  0  0  0  0  0
  152.4555  141.1349  158.4656 N   0  0  0  0  0  0  0  0  0  0  0  0
  152.4001  140.0518  157.5816 C   0  0  0  0  0  0  0  0  0  0  0  0
  151.3213  140.0520  156.8382 N   0  0  0  0  0  0  0  0  0  0  0  0
  151.2721  138.9821  155.9657 C   0  0  0  0  0  0  0  0  0  0  0  0
  152.1862  137.9728  155.8318 C   0  0  0  0  0  0  0  0  0  0  0  0
  151.8057  137.0678  154.8482 N   0  0  0  0  0  0  0  0  0  0  0  0
  150.6544  137.5860  154.4244 C   0  0  0  0  0  0  0  0  0  0  0  0
  150.2676  138.7225  155.0365 N   0  0  0  0  0  0  0  0  0  0  0  0
  149.0251  139.5023  154.7464 C   0  0  1  0  0  0  0  0  0  0  0  0
  148.2712  139.5678  155.9163 O   0  0  0  0  0  0  0  0  0  0  0  0
  147.6978  140.8601  156.0395 C   0  0  1  0  0  0  0  0  0  0  0  0
  147.3014  141.1379  157.5004 C   0  0  0  0  0  0  0  0  0  0  0  0
  146.5234  140.0757  158.0103 O   0  0  0  0  0  0  0  0  0  0  0  0
  148.7324  141.8005  155.4018 C   0  0  1  0  0  0  0  0  0  0  0  0
  149.7075  142.2276  156.3333 O   0  0  0  0  0  0  0  0  0  0  0  0
  149.3682  140.9397  154.3132 C   0  0  2  0  0  0  0  0  0  0  0  0
  148.7774  141.2439  153.0651 O   0  0  0  0  0  0  0  0  0  0  0  0
  153.3714  138.0189  156.7206 C   0  0  0  0  0  0  0  0  0  0  0  0
  154.2142  137.1275  156.6402 O   0  0  0  0  0  0  0  0  0  0  0  0
  153.4217  139.0815  157.5785 N   0  5  0  0  0  0  0  0  0  0  0  0
  148.5016  138.9245  153.9830 H   0  0  0  0  0  0  0  0  0  0  0  0
  146.8000  140.8622  155.4186 H   0  0  0  0  0  0  0  0  0  0  0  0
  148.2565  142.6968  155.0013 H   0  0  0  0  0  0  0  0  0  0  0  0
  150.4475  141.0862  154.2392 H   0  0  0  0  0  0  0  0  0  0  0  0
  153.8025  141.8660  162.2516 H   0  0  0  0  0  0  0  0  0  0  0  0
  152.0403  141.8937  162.2716 H   0  0  0  0  0  0  0  0  0  0  0  0
  152.9491  143.3954  162.4006 H   0  0  0  0  0  0  0  0  0  0  0  0
  153.7977  143.1478  160.1002 H   0  0  0  0  0  0  0  0  0  0  0  0
  151.6655  143.4455  158.8209 H   0  0  0  0  0  0  0  0  0  0  0  0
  151.6582  144.3495  160.3291 H   0  0  0  0  0  0  0  0  0  0  0  0
  150.7521  142.8460  160.2039 H   0  0  0  0  0  0  0  0  0  0  0  0
  152.1143  142.0148  158.1088 H   0  0  0  0  0  0  0  0  0  0  0  0
  150.0730  137.1242  153.6400 H   0  0  0  0  0  0  0  0  0  0  0  0
  148.1977  141.2303  158.1140 H   0  0  0  0  0  0  0  0  0  0  0  0
  146.7562  142.0773  157.5974 H   0  0  0  0  0  0  0  0  0  0  0  0
  146.7669  139.2822  157.5583 H   0  0  0  0  0  0  0  0  0  0  0  0
  149.5914  143.1532  156.4834 H   0  0  0  0  0  0  0  0  0  0  0  0
  148.9338  140.5219  152.4760 H   0  0  0  0  0  0  0  0  0  0  0  0
  1  2  1  0  0  0  0
  1 30  1  0  0  0  0
  1 31  1  0  0  0  0
  1 32  1  0  0  0  0
  2  3  1  0  0  0  0
  2  4  1  0  0  0  0
  2 33  1  0  0  0  0
  3 34  1  0  0  0  0
  3 35  1  0  0  0  0
  3 36  1  0  0  0  0
  4  5  2  0  0  0  0
  4  6  1  0  0  0  0
  6 37  1  0  0  0  0
  6  7  1  0  0  0  0
  7 25  1  0  0  0  0
  7  8  2  0  0  0  0
  8  9  1  0  0  0  0
  9 13  1  0  0  0  0
  9 10  2  0  0  0  0
 10 11  1  0  0  0  0
 10 23  1  0  0  0  0
 11 12  2  0  0  0  0
 12 13  1  0  0  0  0
 12 38  1  0  0  0  0
 13 14  1  0  0  0  0
 14 26  1  0  0  0  0
 14 21  1  0  0  0  0
 14 15  1  0  0  0  0
 15 16  1  0  0  0  0
 16 27  1  0  0  0  0
 16 17  1  0  0  0  0
 16 19  1  0  0  0  0
 17 18  1  0  0  0  0
 17 39  1  0  0  0  0
 17 40  1  0  0  0  0
 18 41  1  0  0  0  0
 19 28  1  0  0  0  0
 19 20  1  0  0  0  0
 19 21  1  0  0  0  0
 20 42  1  0  0  0  0
 21 29  1  0  0  0  0
 21 22  1  0  0  0  0
 22 43  1  0  0  0  0
 23 24  2  0  0  0  0
 23 25  1  0  0  0  0
M  CHG  1  25  -1
M  END
> <s_m_source_file>
AV-unprocessed.smi

> <i_m_source_file_index>
54

> <i_lp_mmshare_version>
43012

> <i_f3d_flags>
0

> <s_epik_input>
W0NIM11bQ0hdKFtDSDNdKUMoPU8pW05IXWMobjEpW25IXWMoPU8pYyhjMTIpbltjSF1uMltDQEBIXTNPW0NASF0oW0NIMl1bT0hdKVtDQEBIXShbT0hdKVtDQEhdM1tPSF0=

> <s_epik_cmdline>
J2VwaWtfcHl0aG9uJywgJy1waCcsICc3LjAnLCAnLXRuJywgJzgnLCAnLW1hJywgJzIwMCcsICctbWV0YWxfYmluZGluZycsICctaW1hZScsICc8aW5maWxlLm1hZT4nLCAnLW9tYWUnLCAnPG91dGZpbGUubWFlPic=

> <r_lp_tautomer_probability>
0.85571

> <r_epik_Ionization_Penalty>
1.75936

> <r_epik_Ionization_Penalty_Charging>
4.55893e-11

> <r_epik_Ionization_Penalty_Neutral>
1.75936

> <r_epik_State_Penalty>
1.72072

> <r_epik_Charging_Adjusted_Penalty>
1.72072

> <i_epik_Tot_Q>
-1

> <i_epik_Tot_abs_Q>
1

> <r_epik_Metal_State_Penalty>
0.400338

> <b_epik_Metal_Only>
1

> <s_epik_Chemistry_Notes>
This compound contains an acetal/aminal-like group ( X-CH(R)-Y where X, Y are N, S, or O) that may be acid/base labile, releasing an aldehyde.

> <s_lp_Force_Field>
OPLS_2005

> <r_lp_Energy>
57.3422

> <b_lp_Chiralities_Consistent>
1

> <s_lp_Variant>
AV-unprocessed.smi:54-28

> <Gold.Version>
5.8.1

> <Gold.Id.Protein>
6NUR|6NUR_protein|mol2

> <Gold.PLP.Fitness>
55.5381

> <Gold.PLP.PLP>
-36.2326

> <Gold.PLP.part.hbond>
-6.3392

> <Gold.PLP.part.metal>
0.0000

> <Gold.PLP.part.buried>
0.8540

> <Gold.PLP.part.nonpolar>
-30.4724

> <Gold.PLP.part.repulsive>
0.2119

> <Gold.PLP.ligand.clash>
0.0000

> <Gold.PLP.ligand.torsion>
0.9894

> <Gold.PLP.Chemscore.Hbond>
6.0375

> <Gold.PLP.Chemscore.CHOScore>
1.0463

> <Gold.PLP.Chemscore.Metal>
0.0000

> <Gold.Chemscore.Hbonds>
donor molecule, donor type, donor heavy atom, donor atom, acceptor molecule, acceptor atom, score
      L1  H    20    42       P1  8028  0.83
      L1  H    22    43       P1  7957  0.93
      P1  H  7997  8008       L1    25  1.90
      P1  H  8011  8017       L1    22  0.95
      P1  H 10752 10763       L1    24  0.31
      P1  H 10752 10765       L1    11  0.94
      L1  C    12    38       P1  7948  1.00
      L1  C    12    38       P1  7949  0.05

> <Gold.PLP.Chemscore.Internal.Correction>
0.0331

> <Gold.Rescore>
     Score         DG    S(hbond)    S(metal)    S(lipo)     H(rot)  DE(clash)    DE(int)     intcor
     10.97     -13.20       3.40        0.00      56.76       4.02       0.22       2.01       ----

> <Gold.Chemscore.Fitness>
10.9729

> <Gold.Chemscore.DG>
-13.2037

> <Gold.Chemscore.ZeroCoef>
-5.4800

> <Gold.Chemscore.Hbond>
3.4049

> <Gold.Chemscore.Metal>
0.0000

> <Gold.Chemscore.Lipo>
56.7571

> <Gold.Chemscore.Internal_Hbond>
0.0000

> <Gold.Chemscore.DEClash>
0.2170

> <Gold.Chemscore.DEInternal>
2.0139

> <Gold.Chemscore.Rot>
4.0192

> <Gold.Chemscore.Internal.Correction>
   9.000000E+99

> <Gold.Chemscore.Hbonds>
donor molecule, donor type, donor heavy atom, donor atom, acceptor molecule, acceptor atom, score
      L1  H    20    42       P1  8028  0.83
      L1  H    22    43       P1  7957  0.85
      P1  H  7997  8008       L1    25  0.12
      P1  H  8011  8017       L1    22  0.12
      P1  H 10752 10763       L1    24  0.31
      P1  H 10752 10765       L1    11  0.90

> <Gold.Chemscore.Hbond.Weighted>
-11.3724

> <Gold.Chemscore.Metal.Weighted>
-0.0000

> <Gold.Chemscore.Lipo.Weighted>
-6.6406

> <Gold.Chemscore.Internal_Hbond.Weighted>
0.0000

> <Gold.Chemscore.DEClash.Weighted>
0.2170

> <Gold.Chemscore.DEInternal.Weighted>
2.0139

> <Gold.Chemscore.Rot.Weighted>
10.2893

> <Gold.Chemscore.Internal.Correction.Weighted>
   9.000000E+99

> <Gold.Protein.RotatedTorsions>
[ 6907 6896 6895 6894 ] final -165.95 input  -60.11 | X-H torsion
[ 7974 7965 7964 7962 ] final  -29.94 input  175.53 | X-H torsion
[ 8008 7997 7996 7995 ] final  -92.62 input   59.86 | X-H torsion
[ 10167 10162 10161 10158 ] final  -37.06 input  -65.29 | X-H torsion
[ 10718 10713 10712 10709 ] final  166.04 input   66.30 | X-H torsion
[ 10763 10752 10751 10750 ] final  159.15 input  -60.55 | X-H torsion
[ 11005 11000 10999 10996 ] final   72.83 input  -57.11 | X-H torsion

> <Gold.Protein.ActiveResidues>
 VAL166  LYS551  ARG553  GLY616  TRP617  ASP618  TYR619  PRO620  LYS621  CYS622 
 ASP623  PHE694  ASN695  SER759  ASP760  ASP761  ALA762  ILE779  LEU786  VAL792 
 PHE793  MET794  SER795  GLU796  ALA797  LYS798  CYS799  TRP800  GLU811  SER814 

> <Gold.Protein.RotatedAtoms>
  151.4358  133.3657  159.2774 H   0  0  0  0  0  0  0  0  0  0  0  0  # atno 6907 bound_to 6896
  150.9192  134.8612  159.7488 H   0  0  0  0  0  0  0  0  0  0  0  0  # atno 6908 bound_to 6896
  152.4973  134.4294  159.9559 H   0  0  0  0  0  0  0  0  0  0  0  0  # atno 6909 bound_to 6896
  146.1179  140.5477  142.8748 H   0  0  0  0  0  0  0  0  0  0  0  0  # atno 7974 bound_to 7965
  154.7254  140.0507  157.0678 H   0  0  0  0  0  0  0  0  0  0  0  0  # atno 8008 bound_to 7997
  155.0372  140.3164  155.4718 H   0  0  0  0  0  0  0  0  0  0  0  0  # atno 8009 bound_to 7997
  156.2827  140.2139  156.5495 H   0  0  0  0  0  0  0  0  0  0  0  0  # atno 8010 bound_to 7997
  140.7127  143.3367  151.2448 H   0  0  0  0  0  0  0  0  0  0  0  0  # atno 10167 bound_to 10162
  157.0715  131.0367  151.2610 H   0  0  0  0  0  0  0  0  0  0  0  0  # atno 10718 bound_to 10713
  154.2273  135.2779  155.2903 H   0  0  0  0  0  0  0  0  0  0  0  0  # atno 10763 bound_to 10752
  154.5653  135.5635  153.7048 H   0  0  0  0  0  0  0  0  0  0  0  0  # atno 10764 bound_to 10752
  153.0028  135.6308  154.2414 H   0  0  0  0  0  0  0  0  0  0  0  0  # atno 10765 bound_to 10752
  139.9471  134.7294  156.0953 H   0  0  0  0  0  0  0  0  0  0  0  0  # atno 11005 bound_to 11000
  144.7570  140.5331  143.6762 LP  0  0  0  0  0  0  0  0  0  0  0  0  # atno 17320 bound_to 7965
  145.5527  139.1477  143.3385 LP  0  0  0  0  0  0  0  0  0  0  0  0  # atno 17321 bound_to 7965
  139.6864  143.9767  152.2836 LP  0  0  0  0  0  0  0  0  0  0  0  0  # atno 17342 bound_to 10162
  139.9414  144.6679  150.8263 LP  0  0  0  0  0  0  0  0  0  0  0  0  # atno 17343 bound_to 10162
  157.4874  130.7801  149.7473 LP  0  0  0  0  0  0  0  0  0  0  0  0  # atno 17370 bound_to 10713
  155.9949  130.3915  150.2840 LP  0  0  0  0  0  0  0  0  0  0  0  0  # atno 17371 bound_to 10713
  141.1124  133.6639  156.3011 LP  0  0  0  0  0  0  0  0  0  0  0  0  # atno 17394 bound_to 11000
  140.5809  134.5747  157.5479 LP  0  0  0  0  0  0  0  0  0  0  0  0  # atno 17395 bound_to 11000

$$$$
