AV-unprocessed.smi:1654|AV-procd|sdf|6643|dock2
  -GOLD-   22720 7343D 1   1.00000     0.00000
 Structure written by MMmdl.
 39 40  0  0  0  0  0  0  0  0  2 V2000
  152.7751  139.5345  156.4996 O   0  0  0  0  0  0  0  0  0  0  0  0
  151.4616  140.1971  156.5507 S   0  0  0  0  0  0  0  0  0  0  0  0
  150.9030  140.7152  155.2906 O   0  0  0  0  0  0  0  0  0  0  0  0
  150.3591  139.3990  157.4328 N   0  5  0  0  0  0  0  0  0  0  0  0
  149.1155  140.0664  157.7729 C   0  0  0  0  0  0  0  0  0  0  0  0
  147.9686  139.5069  156.9070 C   0  0  0  0  0  0  0  0  0  0  0  0
  147.4013  140.5128  155.9133 C   0  0  0  0  0  0  0  0  0  0  0  0
  148.1834  140.9984  154.8425 C   0  0  0  0  0  0  0  0  0  0  0  0
  147.6192  141.9380  153.9581 C   0  0  0  0  0  0  0  0  0  0  0  0
  146.2936  142.3586  154.1835 C   0  0  0  0  0  0  0  0  0  0  0  0
  145.5359  141.9084  155.2065 N   0  0  0  0  0  0  0  0  0  0  0  0
  146.0843  141.0065  156.0495 C   0  0  0  0  0  0  0  0  0  0  0  0
  151.6622  141.5625  157.6145 N   0  0  0  0  0  0  0  0  0  0  0  0
  151.8261  141.3235  159.0612 C   0  0  0  0  0  0  0  0  0  0  0  0
  153.0676  142.0583  159.5891 C   0  0  0  0  0  0  0  0  0  0  0  0
  152.8217  143.5081  160.0449 C   0  0  0  0  0  0  0  0  0  0  0  0
  151.8002  144.3162  159.2239 C   0  0  0  0  0  0  0  0  0  0  0  0
  151.8399  144.0665  157.7078 C   0  0  0  0  0  0  0  0  0  0  0  0
  151.0158  142.8427  157.2635 C   0  0  0  0  0  0  0  0  0  0  0  0
  148.8635  139.9307  158.8252 H   0  0  0  0  0  0  0  0  0  0  0  0
  149.1850  141.1436  157.6171 H   0  0  0  0  0  0  0  0  0  0  0  0
  148.3153  138.6326  156.3538 H   0  0  0  0  0  0  0  0  0  0  0  0
  147.1573  139.1579  157.5475 H   0  0  0  0  0  0  0  0  0  0  0  0
  149.1977  140.6555  154.6998 H   0  0  0  0  0  0  0  0  0  0  0  0
  148.1890  142.3268  153.1273 H   0  0  0  0  0  0  0  0  0  0  0  0
  145.8298  143.0782  153.5251 H   0  0  0  0  0  0  0  0  0  0  0  0
  145.4522  140.6684  156.8576 H   0  0  0  0  0  0  0  0  0  0  0  0
  150.9223  141.6066  159.6019 H   0  0  0  0  0  0  0  0  0  0  0  0
  151.9542  140.2581  159.2445 H   0  0  0  0  0  0  0  0  0  0  0  0
  153.4774  141.5044  160.4341 H   0  0  0  0  0  0  0  0  0  0  0  0
  153.8490  142.0381  158.8276 H   0  0  0  0  0  0  0  0  0  0  0  0
  152.4920  143.5045  161.0845 H   0  0  0  0  0  0  0  0  0  0  0  0
  153.7788  144.0309  160.0439 H   0  0  0  0  0  0  0  0  0  0  0  0
  150.7930  144.1213  159.5943 H   0  0  0  0  0  0  0  0  0  0  0  0
  151.9771  145.3751  159.4154 H   0  0  0  0  0  0  0  0  0  0  0  0
  151.4132  144.9411  157.2160 H   0  0  0  0  0  0  0  0  0  0  0  0
  152.8676  143.9975  157.3485 H   0  0  0  0  0  0  0  0  0  0  0  0
  150.8760  142.8997  156.1848 H   0  0  0  0  0  0  0  0  0  0  0  0
  150.0126  142.8696  157.6901 H   0  0  0  0  0  0  0  0  0  0  0  0
  1  2  2  0  0  0  0
  2  3  2  0  0  0  0
  2  4  1  0  0  0  0
  2 13  1  0  0  0  0
  4  5  1  0  0  0  0
  5  6  1  0  0  0  0
  5 20  1  0  0  0  0
  5 21  1  0  0  0  0
  6  7  1  0  0  0  0
  6 22  1  0  0  0  0
  6 23  1  0  0  0  0
  7 12  1  0  0  0  0
  7  8  2  0  0  0  0
  8  9  1  0  0  0  0
  8 24  1  0  0  0  0
  9 10  2  0  0  0  0
  9 25  1  0  0  0  0
 10 11  1  0  0  0  0
 10 26  1  0  0  0  0
 11 12  2  0  0  0  0
 12 27  1  0  0  0  0
 13 19  1  0  0  0  0
 13 14  1  0  0  0  0
 14 15  1  0  0  0  0
 14 28  1  0  0  0  0
 14 29  1  0  0  0  0
 15 16  1  0  0  0  0
 15 30  1  0  0  0  0
 15 31  1  0  0  0  0
 16 17  1  0  0  0  0
 16 32  1  0  0  0  0
 16 33  1  0  0  0  0
 17 18  1  0  0  0  0
 17 34  1  0  0  0  0
 17 35  1  0  0  0  0
 18 19  1  0  0  0  0
 18 36  1  0  0  0  0
 18 37  1  0  0  0  0
 19 38  1  0  0  0  0
 19 39  1  0  0  0  0
M  CHG  1   4  -1
M  END
> <s_m_source_file>
AV-unprocessed.smi

> <i_m_source_file_index>
1654

> <i_lp_mmshare_version>
43012

> <i_f3d_flags>
0

> <s_epik_input>
W0NIMl0xW0NIMl1bQ0gyXVtDSDJdW0NIMl1bQ0gyXU4xUyg9TykoPU8pW05IXVtDSDJdW0NIMl1jMltjSF1bY0hdW2NIXW5bY0hdMg==

> <s_epik_cmdline>
J2VwaWtfcHl0aG9uJywgJy1waCcsICc3LjAnLCAnLXRuJywgJzgnLCAnLW1hJywgJzIwMCcsICctbWV0YWxfYmluZGluZycsICctaW1hZScsICc8aW5maWxlLm1hZT4nLCAnLW9tYWUnLCAnPG91dGZpbGUubWFlPic=

> <r_lp_tautomer_probability>
1

> <r_epik_Ionization_Penalty>
3.13138

> <r_epik_Ionization_Penalty_Charging>
3.10426

> <r_epik_Ionization_Penalty_Neutral>
0.027117

> <r_epik_State_Penalty>
3.10111

> <r_epik_Charging_Adjusted_Penalty>
6.20538

> <i_epik_Tot_Q>
-1

> <i_epik_Tot_abs_Q>
1

> <r_epik_Metal_State_Penalty>
0.464106

> <b_epik_Metal_Only>
1

> <s_lp_Force_Field>
OPLS_2005

> <r_lp_Energy>
12.7892

> <b_lp_Chiralities_Consistent>
1

> <s_lp_Variant>
AV-unprocessed.smi:1654-2

> <Gold.Version>
5.8.1

> <Gold.Id.Protein>
6NUR|6NUR_protein|mol2

> <Gold.PLP.Fitness>
42.8615

> <Gold.PLP.PLP>
-38.4053

> <Gold.PLP.part.hbond>
-2.0000

> <Gold.PLP.part.metal>
0.0000

> <Gold.PLP.part.buried>
-4.8672

> <Gold.PLP.part.nonpolar>
-31.0678

> <Gold.PLP.part.repulsive>
0.2106

> <Gold.PLP.ligand.clash>
0.0000

> <Gold.PLP.ligand.torsion>
2.1259

> <Gold.PLP.Chemscore.Hbond>
1.8640

> <Gold.PLP.Chemscore.CHOScore>
0.0000

> <Gold.PLP.Chemscore.Metal>
0.0000

> <Gold.Chemscore.Hbonds>
donor molecule, donor type, donor heavy atom, donor atom, acceptor molecule, acceptor atom, score
      P1  H  7989  7998       L1     3  0.86
      P1  H  7997  8008       L1     1  1.00

> <Gold.PLP.Chemscore.Internal.Correction>
3.1161

> <Gold.Rescore>
     Score         DG    S(hbond)    S(metal)    S(lipo)     H(rot)  DE(clash)    DE(int)     intcor
     17.25     -19.45       1.93        0.00      92.14       1.27       0.14       2.07       ----

> <Gold.Chemscore.Fitness>
17.2490

> <Gold.Chemscore.DG>
-19.4523

> <Gold.Chemscore.ZeroCoef>
-5.4800

> <Gold.Chemscore.Hbond>
1.9322

> <Gold.Chemscore.Metal>
0.0000

> <Gold.Chemscore.Lipo>
92.1361

> <Gold.Chemscore.Internal_Hbond>
0.0000

> <Gold.Chemscore.DEClash>
0.1351

> <Gold.Chemscore.DEInternal>
2.0683

> <Gold.Chemscore.Rot>
1.2738

> <Gold.Chemscore.Internal.Correction>
   9.000000E+99

> <Gold.Chemscore.Hbonds>
donor molecule, donor type, donor heavy atom, donor atom, acceptor molecule, acceptor atom, score
      P1  H  7989  7998       L1     3  0.84
      P1  H  7997  8008       L1     1  0.98

> <Gold.Chemscore.Hbond.Weighted>
-6.4535

> <Gold.Chemscore.Metal.Weighted>
-0.0000

> <Gold.Chemscore.Lipo.Weighted>
-10.7799

> <Gold.Chemscore.Internal_Hbond.Weighted>
0.0000

> <Gold.Chemscore.DEClash.Weighted>
0.1351

> <Gold.Chemscore.DEInternal.Weighted>
2.0683

> <Gold.Chemscore.Rot.Weighted>
3.2610

> <Gold.Chemscore.Internal.Correction.Weighted>
   9.000000E+99

> <Gold.Protein.RotatedTorsions>
[ 6907 6896 6895 6894 ] final  -37.25 input  -60.11 | X-H torsion
[ 7974 7965 7964 7962 ] final  -76.62 input  175.53 | X-H torsion
[ 8008 7997 7996 7995 ] final  -31.93 input   59.86 | X-H torsion
[ 10167 10162 10161 10158 ] final  104.28 input  -65.29 | X-H torsion
[ 10718 10713 10712 10709 ] final -146.03 input   66.30 | X-H torsion
[ 10763 10752 10751 10750 ] final -164.80 input  -60.55 | X-H torsion
[ 11005 11000 10999 10996 ] final   77.11 input  -57.11 | X-H torsion

> <Gold.Protein.ActiveResidues>
 VAL166  LYS551  ARG553  GLY616  TRP617  ASP618  TYR619  PRO620  LYS621  CYS622 
 ASP623  PHE694  ASN695  SER759  ASP760  ASP761  ALA762  ILE779  LEU786  VAL792 
 PHE793  MET794  SER795  GLU796  ALA797  LYS798  CYS799  TRP800  GLU811  SER814 

> <Gold.Protein.RotatedAtoms>
  151.0171  134.9441  159.8038 H   0  0  0  0  0  0  0  0  0  0  0  0  # atno 6907 bound_to 6896
  152.5316  134.2952  159.9068 H   0  0  0  0  0  0  0  0  0  0  0  0  # atno 6908 bound_to 6896
  151.2959  133.4102  159.2670 H   0  0  0  0  0  0  0  0  0  0  0  0  # atno 6909 bound_to 6896
  145.6104  140.9388  143.1192 H   0  0  0  0  0  0  0  0  0  0  0  0  # atno 7974 bound_to 7965
  154.4197  140.1751  156.1645 H   0  0  0  0  0  0  0  0  0  0  0  0  # atno 8008 bound_to 7997
  155.9811  140.3377  155.6639 H   0  0  0  0  0  0  0  0  0  0  0  0  # atno 8009 bound_to 7997
  155.6499  140.0689  157.2581 H   0  0  0  0  0  0  0  0  0  0  0  0  # atno 8010 bound_to 7997
  139.7190  144.7062  151.0903 H   0  0  0  0  0  0  0  0  0  0  0  0  # atno 10167 bound_to 10162
  156.3898  130.7879  151.2080 H   0  0  0  0  0  0  0  0  0  0  0  0  # atno 10718 bound_to 10713
  154.6994  135.2985  154.9364 H   0  0  0  0  0  0  0  0  0  0  0  0  # atno 10763 bound_to 10752
  154.0301  135.6671  153.4784 H   0  0  0  0  0  0  0  0  0  0  0  0  # atno 10764 bound_to 10752
  153.0670  135.5082  154.8129 H   0  0  0  0  0  0  0  0  0  0  0  0  # atno 10765 bound_to 10752
  139.9268  134.7656  156.1481 H   0  0  0  0  0  0  0  0  0  0  0  0  # atno 11005 bound_to 11000
  144.7272  139.7838  143.7360 LP  0  0  0  0  0  0  0  0  0  0  0  0  # atno 17320 bound_to 7965
  146.1508  139.4591  143.0050 LP  0  0  0  0  0  0  0  0  0  0  0  0  # atno 17321 bound_to 7965
  140.7750  143.5191  150.9558 LP  0  0  0  0  0  0  0  0  0  0  0  0  # atno 17342 bound_to 10162
  139.8878  143.6992  152.3149 LP  0  0  0  0  0  0  0  0  0  0  0  0  # atno 17343 bound_to 10162
  157.7498  131.0319  150.4202 LP  0  0  0  0  0  0  0  0  0  0  0  0  # atno 17370 bound_to 10713
  156.4462  130.4002  149.6665 LP  0  0  0  0  0  0  0  0  0  0  0  0  # atno 17371 bound_to 10713
  141.0832  133.6745  156.2379 LP  0  0  0  0  0  0  0  0  0  0  0  0  # atno 17394 bound_to 11000
  140.6312  134.5262  157.5560 LP  0  0  0  0  0  0  0  0  0  0  0  0  # atno 17395 bound_to 11000

$$$$
