AV-unprocessed.smi:2702|AV-procd|sdf|10431|dock7
  -GOLD-   2272014473D 1   1.00000     0.00000
 Structure written by MMmdl.
 47 48  0  0  0  0  0  0  0  0  1 V2000
  152.2513  143.4228  161.3636 C   0  0  0  0  0  0  0  0  0  0  0  0
  152.1378  144.0378  160.0924 O   0  0  0  0  0  0  0  0  0  0  0  0
  152.7152  143.2590  159.0586 C   0  0  0  0  0  0  0  0  0  0  0  0
  151.8457  142.0561  158.7550 C   0  0  0  0  0  0  0  0  0  0  0  0
  150.5824  142.1864  158.2870 C   0  0  0  0  0  0  0  0  0  0  0  0
  149.7606  141.0063  158.0180 C   0  0  0  0  0  0  0  0  0  0  0  0
  148.6126  141.0826  157.5795 O   0  0  0  0  0  0  0  0  0  0  0  0
  150.3633  139.8119  158.2927 N   0  0  0  0  0  0  0  0  0  0  0  0
  149.6611  138.5322  158.0834 C   0  0  0  0  0  0  0  0  0  0  0  0
  149.7230  137.5881  159.2931 C   0  0  0  0  0  0  0  0  0  0  0  0
  150.7913  137.3439  159.8559 O   0  0  0  0  0  0  0  0  0  0  0  0
  148.5495  137.0728  159.6883 N   0  0  0  0  0  0  0  0  0  0  0  0
  148.3613  136.1591  160.8127 C   0  0  1  0  0  0  0  0  0  0  0  0
  147.4079  136.7925  161.8439 C   0  0  0  0  0  0  0  0  0  0  0  0
  147.2129  135.8741  163.0594 C   0  0  0  0  0  0  0  0  0  0  0  0
  146.7392  134.4740  162.6388 C   0  0  0  0  0  0  0  0  0  0  0  0
  147.6909  133.8439  161.6017 C   0  0  1  0  0  0  0  0  0  0  0  0
  147.2825  132.4027  161.2542 C   0  0  0  0  0  0  0  0  0  0  0  0
  147.8677  134.7573  160.3591 C   0  0  1  0  0  0  0  0  0  0  0  0
  146.6162  134.8165  159.4520 C   0  0  0  0  0  0  0  0  0  0  0  0
  151.6825  139.7333  158.7824 C   0  0  0  0  0  0  0  0  0  0  0  0
  152.3908  140.7936  159.0088 N   0  0  0  0  0  0  0  0  0  0  0  0
  151.7947  144.0607  162.1203 H   0  0  0  0  0  0  0  0  0  0  0  0
  153.2964  143.2712  161.6367 H   0  0  0  0  0  0  0  0  0  0  0  0
  151.7404  142.4591  161.3825 H   0  0  0  0  0  0  0  0  0  0  0  0
  152.8253  143.8594  158.1537 H   0  0  0  0  0  0  0  0  0  0  0  0
  153.7135  142.9263  159.3484 H   0  0  0  0  0  0  0  0  0  0  0  0
  150.1714  143.1688  158.1053 H   0  0  0  0  0  0  0  0  0  0  0  0
  148.6115  138.6947  157.8313 H   0  0  0  0  0  0  0  0  0  0  0  0
  150.0798  138.0173  157.2164 H   0  0  0  0  0  0  0  0  0  0  0  0
  147.7227  137.3275  159.1680 H   0  0  0  0  0  0  0  0  0  0  0  0
  149.3278  136.0350  161.3059 H   0  0  0  0  0  0  0  0  0  0  0  0
  147.8050  137.7523  162.1769 H   0  0  0  0  0  0  0  0  0  0  0  0
  146.4413  137.0045  161.3857 H   0  0  0  0  0  0  0  0  0  0  0  0
  148.1540  135.7897  163.6045 H   0  0  0  0  0  0  0  0  0  0  0  0
  146.4957  136.3181  163.7501 H   0  0  0  0  0  0  0  0  0  0  0  0
  146.6772  133.8361  163.5210 H   0  0  0  0  0  0  0  0  0  0  0  0
  145.7277  134.5330  162.2358 H   0  0  0  0  0  0  0  0  0  0  0  0
  148.6706  133.7706  162.0771 H   0  0  0  0  0  0  0  0  0  0  0  0
  146.2680  132.3517  160.8590 H   0  0  0  0  0  0  0  0  0  0  0  0
  147.3170  131.7669  162.1392 H   0  0  0  0  0  0  0  0  0  0  0  0
  147.9555  131.9700  160.5136 H   0  0  0  0  0  0  0  0  0  0  0  0
  148.6611  134.3174  159.7530 H   0  0  0  0  0  0  0  0  0  0  0  0
  145.7494  135.2208  159.9736 H   0  0  0  0  0  0  0  0  0  0  0  0
  146.3459  133.8291  159.0795 H   0  0  0  0  0  0  0  0  0  0  0  0
  146.7872  135.4371  158.5725 H   0  0  0  0  0  0  0  0  0  0  0  0
  152.0603  138.7237  158.9521 H   0  0  0  0  0  0  0  0  0  0  0  0
  1  2  1  0  0  0  0
  1 23  1  0  0  0  0
  1 24  1  0  0  0  0
  1 25  1  0  0  0  0
  2  3  1  0  0  0  0
  3  4  1  0  0  0  0
  3 26  1  0  0  0  0
  3 27  1  0  0  0  0
  4 22  1  0  0  0  0
  4  5  2  0  0  0  0
  5  6  1  0  0  0  0
  5 28  1  0  0  0  0
  6  7  2  0  0  0  0
  6  8  1  0  0  0  0
  8  9  1  0  0  0  0
  8 21  1  0  0  0  0
  9 10  1  0  0  0  0
  9 29  1  0  0  0  0
  9 30  1  0  0  0  0
 10 11  2  0  0  0  0
 10 12  1  0  0  0  0
 12 13  1  0  0  0  0
 12 31  1  0  0  0  0
 13 19  1  0  0  0  0
 13 14  1  0  0  0  0
 13 32  1  0  0  0  0
 14 15  1  0  0  0  0
 14 33  1  0  0  0  0
 14 34  1  0  0  0  0
 15 16  1  0  0  0  0
 15 35  1  0  0  0  0
 15 36  1  0  0  0  0
 16 17  1  0  0  0  0
 16 37  1  0  0  0  0
 16 38  1  0  0  0  0
 17 18  1  0  0  0  0
 17 19  1  0  0  0  0
 17 39  1  0  0  0  0
 18 40  1  0  0  0  0
 18 41  1  0  0  0  0
 18 42  1  0  0  0  0
 19 20  1  0  0  0  0
 19 43  1  0  0  0  0
 20 44  1  0  0  0  0
 20 45  1  0  0  0  0
 20 46  1  0  0  0  0
 21 22  2  0  0  0  0
 21 47  1  0  0  0  0
M  END
> <s_m_source_file>
AV-unprocessed.smi

> <i_m_source_file_index>
2702

> <i_lp_mmshare_version>
43012

> <i_f3d_flags>
0

> <s_epik_input>
W0NIM11PW0NIMl1jMVtjSF1jKD1PKW4oW2NIXW4xKVtDSDJdQyg9TylbTkhdW0NAQEhdMltDSDJdW0NIMl1bQ0gyXVtDQEBIXShbQ0gzXSlbQ0BIXTJbQ0gzXQ==

> <s_epik_cmdline>
J2VwaWtfcHl0aG9uJywgJy1waCcsICc3LjAnLCAnLXRuJywgJzgnLCAnLW1hJywgJzIwMCcsICctbWV0YWxfYmluZGluZycsICctaW1hZScsICc8aW5maWxlLm1hZT4nLCAnLW9tYWUnLCAnPG91dGZpbGUubWFlPic=

> <r_lp_tautomer_probability>
1

> <r_epik_Ionization_Penalty>
1.22164e-06

> <r_epik_Ionization_Penalty_Charging>
3.17988e-07

> <r_epik_Ionization_Penalty_Neutral>
9.03656e-07

> <r_epik_State_Penalty>
-0

> <r_epik_Charging_Adjusted_Penalty>
3.17988e-07

> <i_epik_Tot_Q>
0

> <i_epik_Tot_abs_Q>
0

> <r_epik_Metal_State_Penalty>
-0

> <b_epik_Metal_Only>
0

> <s_lp_Force_Field>
OPLS_2005

> <r_lp_Energy>
18.9829

> <b_lp_Chiralities_Consistent>
1

> <s_lp_Variant>
AV-unprocessed.smi:2702-2

> <Gold.Version>
5.8.1

> <Gold.Id.Protein>
6NUR|6NUR_protein|mol2

> <Gold.PLP.Fitness>
42.6421

> <Gold.PLP.PLP>
-40.1075

> <Gold.PLP.part.hbond>
-1.0000

> <Gold.PLP.part.metal>
0.0000

> <Gold.PLP.part.buried>
-6.9598

> <Gold.PLP.part.nonpolar>
-33.1254

> <Gold.PLP.part.repulsive>
0.2573

> <Gold.PLP.ligand.clash>
0.0000

> <Gold.PLP.ligand.torsion>
0.2662

> <Gold.PLP.Chemscore.Hbond>
1.0000

> <Gold.PLP.Chemscore.CHOScore>
0.0000

> <Gold.PLP.Chemscore.Metal>
0.0000

> <Gold.Chemscore.Hbonds>
donor molecule, donor type, donor heavy atom, donor atom, acceptor molecule, acceptor atom, score
      P1  H  6896  6908       L1    11  0.44

> <Gold.PLP.Chemscore.Internal.Correction>
0.0671

> <Gold.Rescore>
     Score         DG    S(hbond)    S(metal)    S(lipo)     H(rot)  DE(clash)    DE(int)     intcor
     14.25     -14.79       0.97        0.00      93.97       1.93       0.09       0.45       ----

> <Gold.Chemscore.Fitness>
14.2458

> <Gold.Chemscore.DG>
-14.7875

> <Gold.Chemscore.ZeroCoef>
-5.4800

> <Gold.Chemscore.Hbond>
0.9731

> <Gold.Chemscore.Metal>
0.0000

> <Gold.Chemscore.Lipo>
93.9669

> <Gold.Chemscore.Internal_Hbond>
0.0000

> <Gold.Chemscore.DEClash>
0.0936

> <Gold.Chemscore.DEInternal>
0.4481

> <Gold.Chemscore.Rot>
1.9284

> <Gold.Chemscore.Internal.Correction>
   9.000000E+99

> <Gold.Chemscore.Hbonds>
donor molecule, donor type, donor heavy atom, donor atom, acceptor molecule, acceptor atom, score
      P1  H  6896  6908       L1    11  0.37

> <Gold.Chemscore.Hbond.Weighted>
-3.2501

> <Gold.Chemscore.Metal.Weighted>
-0.0000

> <Gold.Chemscore.Lipo.Weighted>
-10.9941

> <Gold.Chemscore.Internal_Hbond.Weighted>
0.0000

> <Gold.Chemscore.DEClash.Weighted>
0.0936

> <Gold.Chemscore.DEInternal.Weighted>
0.4481

> <Gold.Chemscore.Rot.Weighted>
4.9368

> <Gold.Chemscore.Internal.Correction.Weighted>
   9.000000E+99

> <Gold.Protein.RotatedTorsions>
[ 6907 6896 6895 6894 ] final -136.95 input  -60.11 | X-H torsion
[ 7974 7965 7964 7962 ] final   -8.92 input  175.53 | X-H torsion
[ 8008 7997 7996 7995 ] final    6.13 input   59.86 | X-H torsion
[ 10167 10162 10161 10158 ] final    6.93 input  -65.29 | X-H torsion
[ 10718 10713 10712 10709 ] final   50.51 input   66.30 | X-H torsion
[ 10763 10752 10751 10750 ] final  -59.96 input  -60.55 | X-H torsion
[ 11005 11000 10999 10996 ] final -169.07 input  -57.11 | X-H torsion

> <Gold.Protein.ActiveResidues>
 VAL166  LYS551  ARG553  GLY616  TRP617  ASP618  TYR619  PRO620  LYS621  CYS622 
 ASP623  PHE694  ASN695  SER759  ASP760  ASP761  ALA762  ILE779  LEU786  VAL792 
 PHE793  MET794  SER795  GLU796  ALA797  LYS798  CYS799  TRP800  GLU811  SER814 

> <Gold.Protein.RotatedAtoms>
  151.0164  133.5917  159.2676 H   0  0  0  0  0  0  0  0  0  0  0  0  # atno 6907 bound_to 6896
  151.3050  135.0778  159.9262 H   0  0  0  0  0  0  0  0  0  0  0  0  # atno 6908 bound_to 6896
  152.5312  133.9839  159.7873 H   0  0  0  0  0  0  0  0  0  0  0  0  # atno 6909 bound_to 6896
  146.2267  140.2539  142.8348 H   0  0  0  0  0  0  0  0  0  0  0  0  # atno 7974 bound_to 7965
  154.7371  140.2741  155.6406 H   0  0  0  0  0  0  0  0  0  0  0  0  # atno 8008 bound_to 7997
  156.2864  140.2704  156.2013 H   0  0  0  0  0  0  0  0  0  0  0  0  # atno 8009 bound_to 7997
  155.0307  140.0371  157.2462 H   0  0  0  0  0  0  0  0  0  0  0  0  # atno 8010 bound_to 7997
  140.6400  143.7795  150.7415 H   0  0  0  0  0  0  0  0  0  0  0  0  # atno 10167 bound_to 10162
  157.4891  130.8364  149.8182 H   0  0  0  0  0  0  0  0  0  0  0  0  # atno 10718 bound_to 10713
  154.2618  135.6306  153.5277 H   0  0  0  0  0  0  0  0  0  0  0  0  # atno 10763 bound_to 10752
  152.9894  135.5589  154.5695 H   0  0  0  0  0  0  0  0  0  0  0  0  # atno 10764 bound_to 10752
  154.5246  135.2884  155.1208 H   0  0  0  0  0  0  0  0  0  0  0  0  # atno 10765 bound_to 10752
  140.5348  134.5580  157.5084 H   0  0  0  0  0  0  0  0  0  0  0  0  # atno 11005 bound_to 11000
  144.9390  140.8058  143.5642 LP  0  0  0  0  0  0  0  0  0  0  0  0  # atno 17320 bound_to 7965
  145.2489  139.2040  143.4953 LP  0  0  0  0  0  0  0  0  0  0  0  0  # atno 17321 bound_to 7965
  140.1425  143.4429  152.2184 LP  0  0  0  0  0  0  0  0  0  0  0  0  # atno 17342 bound_to 10162
  139.5610  144.7405  151.4156 LP  0  0  0  0  0  0  0  0  0  0  0  0  # atno 17343 bound_to 10162
  156.0163  130.3812  150.2099 LP  0  0  0  0  0  0  0  0  0  0  0  0  # atno 17370 bound_to 10713
  157.0287  131.0001  151.3318 LP  0  0  0  0  0  0  0  0  0  0  0  0  # atno 17371 bound_to 10713
  139.9535  134.7576  156.0395 LP  0  0  0  0  0  0  0  0  0  0  0  0  # atno 17394 bound_to 11000
  141.1261  133.6599  156.3339 LP  0  0  0  0  0  0  0  0  0  0  0  0  # atno 17395 bound_to 11000

$$$$
