AV-unprocessed.smi:1909|AV-procd|sdf|7735|dock3
  -GOLD-   22720 9473D 1   1.00000     0.00000
 Structure written by MMmdl.
 40 41  0  0  0  0  0  0  0  0  1 V2000
  146.3404  139.7832  152.3439 C   0  0  0  0  0  0  0  0  0  0  0  0
  147.3593  140.2193  153.3399 C   0  0  0  0  0  0  0  0  0  0  0  0
  148.2659  139.3989  153.8768 N   0  0  0  0  0  0  0  0  0  0  0  0
  149.1063  140.0459  154.7892 C   0  0  0  0  0  0  0  0  0  0  0  0
  150.1810  139.2745  155.5019 C   0  0  0  0  0  0  0  0  0  0  0  0
  151.2731  140.2134  156.0220 C   0  0  0  0  0  0  0  0  0  0  0  0
  152.3673  140.2524  155.4596 O   0  0  0  0  0  0  0  0  0  0  0  0
  150.9596  140.9713  157.0863 N   0  0  0  0  0  0  0  0  0  0  0  0
  151.8501  141.9102  157.7643 C   0  0  0  0  0  0  0  0  0  0  0  0
  152.0270  141.4188  159.2210 C   0  0  0  0  0  0  0  0  0  0  0  0
  153.1249  142.1388  160.0300 C   0  0  0  0  0  0  0  0  0  0  0  0
  152.6262  143.1954  161.0349 C   0  0  0  0  0  0  0  0  0  0  0  0
  151.5120  144.1434  160.5557 C   0  0  0  0  0  0  0  0  0  0  0  0
  151.8765  145.1091  159.4138 C   0  0  0  0  0  0  0  0  0  0  0  0
  152.2230  144.4782  158.0512 C   0  0  0  0  0  0  0  0  0  0  0  0
  151.2877  143.3428  157.5880 C   0  0  0  0  0  0  0  0  0  0  0  0
  148.8264  141.3837  154.9247 C   0  0  0  0  0  0  0  0  0  0  0  0
  147.4879  141.8737  153.9235 S   0  0  0  0  0  0  0  0  0  0  0  0
  146.2737  138.6952  152.3145 H   0  0  0  0  0  0  0  0  0  0  0  0
  146.6113  140.1452  151.3521 H   0  0  0  0  0  0  0  0  0  0  0  0
  145.3625  140.1850  152.6096 H   0  0  0  0  0  0  0  0  0  0  0  0
  149.7592  138.7114  156.3357 H   0  0  0  0  0  0  0  0  0  0  0  0
  150.6367  138.5413  154.8354 H   0  0  0  0  0  0  0  0  0  0  0  0
  150.0333  140.8701  157.4750 H   0  0  0  0  0  0  0  0  0  0  0  0
  152.8290  141.8651  157.2835 H   0  0  0  0  0  0  0  0  0  0  0  0
  151.0774  141.4243  159.7565 H   0  0  0  0  0  0  0  0  0  0  0  0
  152.3113  140.3661  159.1735 H   0  0  0  0  0  0  0  0  0  0  0  0
  153.6698  141.3885  160.6046 H   0  0  0  0  0  0  0  0  0  0  0  0
  153.8781  142.5591  159.3660 H   0  0  0  0  0  0  0  0  0  0  0  0
  152.2496  142.6690  161.9128 H   0  0  0  0  0  0  0  0  0  0  0  0
  153.4760  143.7802  161.3883 H   0  0  0  0  0  0  0  0  0  0  0  0
  150.6148  143.5800  160.3044 H   0  0  0  0  0  0  0  0  0  0  0  0
  151.2170  144.7526  161.4109 H   0  0  0  0  0  0  0  0  0  0  0  0
  151.0258  145.7756  159.2665 H   0  0  0  0  0  0  0  0  0  0  0  0
  152.6992  145.7519  159.7285 H   0  0  0  0  0  0  0  0  0  0  0  0
  152.1776  145.2786  157.3116 H   0  0  0  0  0  0  0  0  0  0  0  0
  153.2621  144.1550  158.0257 H   0  0  0  0  0  0  0  0  0  0  0  0
  151.1145  143.4956  156.5217 H   0  0  0  0  0  0  0  0  0  0  0  0
  150.3020  143.4364  158.0444 H   0  0  0  0  0  0  0  0  0  0  0  0
  149.3219  142.1070  155.5550 H   0  0  0  0  0  0  0  0  0  0  0  0
  1  2  1  0  0  0  0
  1 19  1  0  0  0  0
  1 20  1  0  0  0  0
  1 21  1  0  0  0  0
  2 18  1  0  0  0  0
  2  3  2  0  0  0  0
  3  4  1  0  0  0  0
  4  5  1  0  0  0  0
  4 17  2  0  0  0  0
  5  6  1  0  0  0  0
  5 22  1  0  0  0  0
  5 23  1  0  0  0  0
  6  7  2  0  0  0  0
  6  8  1  0  0  0  0
  8  9  1  0  0  0  0
  8 24  1  0  0  0  0
  9 16  1  0  0  0  0
  9 10  1  0  0  0  0
  9 25  1  0  0  0  0
 10 11  1  0  0  0  0
 10 26  1  0  0  0  0
 10 27  1  0  0  0  0
 11 12  1  0  0  0  0
 11 28  1  0  0  0  0
 11 29  1  0  0  0  0
 12 13  1  0  0  0  0
 12 30  1  0  0  0  0
 12 31  1  0  0  0  0
 13 14  1  0  0  0  0
 13 32  1  0  0  0  0
 13 33  1  0  0  0  0
 14 15  1  0  0  0  0
 14 34  1  0  0  0  0
 14 35  1  0  0  0  0
 15 16  1  0  0  0  0
 15 36  1  0  0  0  0
 15 37  1  0  0  0  0
 16 38  1  0  0  0  0
 16 39  1  0  0  0  0
 17 18  1  0  0  0  0
 17 40  1  0  0  0  0
M  END
> <s_m_source_file>
AV-unprocessed.smi

> <i_m_source_file_index>
1909

> <i_lp_mmshare_version>
43012

> <i_f3d_flags>
0

> <s_epik_input>
W0NIM11jMW5jKFtjSF1zMSlbQ0gyXUMoPU8pW05IXVtDSF0yW0NIMl1bQ0gyXVtDSDJdW0NIMl1bQ0gyXVtDSDJdW0NIMl0y

> <s_epik_cmdline>
J2VwaWtfcHl0aG9uJywgJy1waCcsICc3LjAnLCAnLXRuJywgJzgnLCAnLW1hJywgJzIwMCcsICctbWV0YWxfYmluZGluZycsICctaW1hZScsICc8aW5maWxlLm1hZT4nLCAnLW9tYWUnLCAnPG91dGZpbGUubWFlPic=

> <r_lp_tautomer_probability>
1

> <r_epik_Ionization_Penalty>
6.3061e-05

> <r_epik_Ionization_Penalty_Charging>
0

> <r_epik_Ionization_Penalty_Neutral>
6.3061e-05

> <r_epik_State_Penalty>
-0

> <r_epik_Charging_Adjusted_Penalty>
0

> <i_epik_Tot_Q>
0

> <i_epik_Tot_abs_Q>
0

> <r_epik_Metal_State_Penalty>
-0

> <b_epik_Metal_Only>
0

> <s_lp_Force_Field>
OPLS_2005

> <r_lp_Energy>
17.5912

> <b_lp_Chiralities_Consistent>
1

> <s_lp_Variant>
AV-unprocessed.smi:1909-1

> <Gold.Version>
5.8.1

> <Gold.Id.Protein>
6NUR|6NUR_protein|mol2

> <Gold.PLP.Fitness>
47.0004

> <Gold.PLP.PLP>
-42.1211

> <Gold.PLP.part.hbond>
-2.0000

> <Gold.PLP.part.metal>
0.0000

> <Gold.PLP.part.buried>
0.6896

> <Gold.PLP.part.nonpolar>
-41.1720

> <Gold.PLP.part.repulsive>
1.4319

> <Gold.PLP.ligand.clash>
0.0000

> <Gold.PLP.ligand.torsion>
0.4696

> <Gold.PLP.Chemscore.Hbond>
1.2718

> <Gold.PLP.Chemscore.CHOScore>
0.6592

> <Gold.PLP.Chemscore.Metal>
0.0000

> <Gold.Chemscore.Hbonds>
donor molecule, donor type, donor heavy atom, donor atom, acceptor molecule, acceptor atom, score
      P1  H  7989  7998       L1     7  0.36
      P1  H  7997  8009       L1     7  0.84
      L1  C    17    40       P1  8028  0.66

> <Gold.PLP.Chemscore.Internal.Correction>
0.0253

> <Gold.Rescore>
     Score         DG    S(hbond)    S(metal)    S(lipo)     H(rot)  DE(clash)    DE(int)     intcor
     18.65     -20.87       0.99        0.00     130.54       1.25       1.32       0.90       ----

> <Gold.Chemscore.Fitness>
18.6536

> <Gold.Chemscore.DG>
-20.8730

> <Gold.Chemscore.ZeroCoef>
-5.4800

> <Gold.Chemscore.Hbond>
0.9945

> <Gold.Chemscore.Metal>
0.0000

> <Gold.Chemscore.Lipo>
130.5436

> <Gold.Chemscore.Internal_Hbond>
0.0000

> <Gold.Chemscore.DEClash>
1.3230

> <Gold.Chemscore.DEInternal>
0.8964

> <Gold.Chemscore.Rot>
1.2508

> <Gold.Chemscore.Internal.Correction>
   9.000000E+99

> <Gold.Chemscore.Hbonds>
donor molecule, donor type, donor heavy atom, donor atom, acceptor molecule, acceptor atom, score
      P1  H  7989  7998       L1     7  0.07
      P1  H  7997  8009       L1     7  0.82

> <Gold.Chemscore.Hbond.Weighted>
-3.3216

> <Gold.Chemscore.Metal.Weighted>
-0.0000

> <Gold.Chemscore.Lipo.Weighted>
-15.2736

> <Gold.Chemscore.Internal_Hbond.Weighted>
0.0000

> <Gold.Chemscore.DEClash.Weighted>
1.3230

> <Gold.Chemscore.DEInternal.Weighted>
0.8964

> <Gold.Chemscore.Rot.Weighted>
3.2022

> <Gold.Chemscore.Internal.Correction.Weighted>
   9.000000E+99

> <Gold.Protein.RotatedTorsions>
[ 6907 6896 6895 6894 ] final -148.57 input  -60.11 | X-H torsion
[ 7974 7965 7964 7962 ] final -138.86 input  175.53 | X-H torsion
[ 8008 7997 7996 7995 ] final -144.98 input   59.86 | X-H torsion
[ 10167 10162 10161 10158 ] final  146.74 input  -65.29 | X-H torsion
[ 10718 10713 10712 10709 ] final  -26.02 input   66.30 | X-H torsion
[ 10763 10752 10751 10750 ] final  -81.22 input  -60.55 | X-H torsion
[ 11005 11000 10999 10996 ] final -171.24 input  -57.11 | X-H torsion

> <Gold.Protein.ActiveResidues>
 VAL166  LYS551  ARG553  GLY616  TRP617  ASP618  TYR619  PRO620  LYS621  CYS622 
 ASP623  PHE694  ASN695  SER759  ASP760  ASP761  ALA762  ILE779  LEU786  VAL792 
 PHE793  MET794  SER795  GLU796  ALA797  LYS798  CYS799  TRP800  GLU811  SER814 

> <Gold.Protein.RotatedAtoms>
  151.1717  133.4780  159.2593 H   0  0  0  0  0  0  0  0  0  0  0  0  # atno 6907 bound_to 6896
  151.1350  135.0149  159.8609 H   0  0  0  0  0  0  0  0  0  0  0  0  # atno 6908 bound_to 6896
  152.5461  134.1616  159.8613 H   0  0  0  0  0  0  0  0  0  0  0  0  # atno 6909 bound_to 6896
  144.8723  140.6386  143.5259 H   0  0  0  0  0  0  0  0  0  0  0  0  # atno 7974 bound_to 7965
  155.5357  140.0603  157.2880 H   0  0  0  0  0  0  0  0  0  0  0  0  # atno 8008 bound_to 7997
  154.4469  140.1928  156.0584 H   0  0  0  0  0  0  0  0  0  0  0  0  # atno 8009 bound_to 7997
  156.0621  140.3271  155.7477 H   0  0  0  0  0  0  0  0  0  0  0  0  # atno 8010 bound_to 7997
  139.4902  144.5807  151.6877 H   0  0  0  0  0  0  0  0  0  0  0  0  # atno 10167 bound_to 10162
  156.4567  130.4495  149.6955 H   0  0  0  0  0  0  0  0  0  0  0  0  # atno 10718 bound_to 10713
  154.5609  135.5634  153.7006 H   0  0  0  0  0  0  0  0  0  0  0  0  # atno 10763 bound_to 10752
  153.0017  135.6273  154.2246 H   0  0  0  0  0  0  0  0  0  0  0  0  # atno 10764 bound_to 10752
  154.2184  135.2870  155.2913 H   0  0  0  0  0  0  0  0  0  0  0  0  # atno 10765 bound_to 10752
  140.5105  134.5807  157.5017 H   0  0  0  0  0  0  0  0  0  0  0  0  # atno 11005 bound_to 11000
  145.4107  139.1581  143.4127 LP  0  0  0  0  0  0  0  0  0  0  0  0  # atno 17320 bound_to 7965
  146.2939  140.4210  142.8729 LP  0  0  0  0  0  0  0  0  0  0  0  0  # atno 17321 bound_to 7965
  140.5413  144.0575  150.6089 LP  0  0  0  0  0  0  0  0  0  0  0  0  # atno 17342 bound_to 10162
  140.3598  143.2914  152.0396 LP  0  0  0  0  0  0  0  0  0  0  0  0  # atno 17343 bound_to 10162
  156.3760  130.7554  151.2542 LP  0  0  0  0  0  0  0  0  0  0  0  0  # atno 17370 bound_to 10713
  157.7500  131.0309  150.4160 LP  0  0  0  0  0  0  0  0  0  0  0  0  # atno 17371 bound_to 10713
  139.9662  134.7369  156.0134 LP  0  0  0  0  0  0  0  0  0  0  0  0  # atno 17394 bound_to 11000
  141.1388  133.6569  156.3670 LP  0  0  0  0  0  0  0  0  0  0  0  0  # atno 17395 bound_to 11000

$$$$
