AV-unprocessed.smi:2332|AV-procd|sdf|9319|dock10
  -GOLD-   2272012543D 1   1.00000     0.00000
 Structure written by MMmdl.
 32 33  0  0  0  0  0  0  0  0  1 V2000
  146.7680  138.2232  152.6278 C   0  0  0  0  0  0  0  0  0  0  0  0
  148.0704  138.7043  153.0615 N   0  0  0  0  0  0  0  0  0  0  0  0
  148.3808  139.0128  154.3298 C   0  0  0  0  0  0  0  0  0  0  0  0
  147.5715  138.9230  155.2540 O   0  0  0  0  0  0  0  0  0  0  0  0
  149.8081  139.5154  154.5960 C   0  0  1  0  0  0  0  0  0  0  0  0
  149.9671  140.0834  156.0251 C   0  0  0  0  0  0  0  0  0  0  0  0
  151.3585  140.4436  156.2888 N   0  0  0  0  0  0  0  0  0  0  0  0
  151.5779  141.2085  157.4552 C   0  0  0  0  0  0  0  0  0  0  0  0
  150.8657  142.4150  157.6596 C   0  0  0  0  0  0  0  0  0  0  0  0
  151.0968  143.1605  158.8321 C   0  0  0  0  0  0  0  0  0  0  0  0
  152.0339  142.6819  159.7672 C   0  0  0  0  0  0  0  0  0  0  0  0
  152.3072  143.4143  160.9917 C   0  0  0  0  0  0  0  0  0  0  0  0
  152.5246  143.9975  161.9670 N   0  0  0  0  0  0  0  0  0  0  0  0
  152.7021  141.4754  159.4819 C   0  0  0  0  0  0  0  0  0  0  0  0
  152.4846  140.7584  158.3586 N   0  0  0  0  0  0  0  0  0  0  0  0
  152.3046  139.3720  155.9869 C   0  0  0  0  0  0  0  0  0  0  0  0
  152.0802  138.8494  154.5599 C   0  0  0  0  0  0  0  0  0  0  0  0
  150.7265  138.4368  154.4137 O   0  0  0  0  0  0  0  0  0  0  0  0
  146.7890  138.0045  151.5603 H   0  0  0  0  0  0  0  0  0  0  0  0
  145.9980  138.9746  152.8074 H   0  0  0  0  0  0  0  0  0  0  0  0
  146.4941  137.3098  153.1575 H   0  0  0  0  0  0  0  0  0  0  0  0
  148.7873  138.8037  152.3569 H   0  0  0  0  0  0  0  0  0  0  0  0
  150.0218  140.2950  153.8626 H   0  0  0  0  0  0  0  0  0  0  0  0
  149.3098  140.9441  156.1428 H   0  0  0  0  0  0  0  0  0  0  0  0
  149.6534  139.3432  156.7629 H   0  0  0  0  0  0  0  0  0  0  0  0
  150.1606  142.7830  156.9291 H   0  0  0  0  0  0  0  0  0  0  0  0
  150.5631  144.0845  159.0024 H   0  0  0  0  0  0  0  0  0  0  0  0
  153.4315  141.0699  160.1681 H   0  0  0  0  0  0  0  0  0  0  0  0
  153.3289  139.7346  156.0817 H   0  0  0  0  0  0  0  0  0  0  0  0
  152.1757  138.5616  156.7058 H   0  0  0  0  0  0  0  0  0  0  0  0
  152.3224  139.6149  153.8207 H   0  0  0  0  0  0  0  0  0  0  0  0
  152.7336  137.9993  154.3642 H   0  0  0  0  0  0  0  0  0  0  0  0
  1  2  1  0  0  0  0
  1 19  1  0  0  0  0
  1 20  1  0  0  0  0
  1 21  1  0  0  0  0
  2  3  1  0  0  0  0
  2 22  1  0  0  0  0
  3  4  2  0  0  0  0
  3  5  1  0  0  0  0
  5 18  1  0  0  0  0
  5  6  1  0  0  0  0
  5 23  1  0  0  0  0
  6  7  1  0  0  0  0
  6 24  1  0  0  0  0
  6 25  1  0  0  0  0
  7  8  1  0  0  0  0
  7 16  1  0  0  0  0
  8 15  1  0  0  0  0
  8  9  2  0  0  0  0
  9 10  1  0  0  0  0
  9 26  1  0  0  0  0
 10 11  2  0  0  0  0
 10 27  1  0  0  0  0
 11 12  1  0  0  0  0
 11 14  1  0  0  0  0
 12 13  3  0  0  0  0
 14 15  2  0  0  0  0
 14 28  1  0  0  0  0
 16 17  1  0  0  0  0
 16 29  1  0  0  0  0
 16 30  1  0  0  0  0
 17 18  1  0  0  0  0
 17 31  1  0  0  0  0
 17 32  1  0  0  0  0
M  END
> <s_m_source_file>
AV-unprocessed.smi

> <i_m_source_file_index>
2332

> <i_lp_mmshare_version>
43012

> <i_f3d_flags>
0

> <s_epik_input>
W0NIM11bTkhdQyg9TylbQ0BASF0xW0NIMl1OKFtDSDJdW0NIMl1PMSljMltjSF1bY0hdYyhDI04pW2NIXW4y

> <s_epik_cmdline>
J2VwaWtfcHl0aG9uJywgJy1waCcsICc3LjAnLCAnLXRuJywgJzgnLCAnLW1hJywgJzIwMCcsICctbWV0YWxfYmluZGluZycsICctaW1hZScsICc8aW5maWxlLm1hZT4nLCAnLW9tYWUnLCAnPG91dGZpbGUubWFlPic=

> <r_lp_tautomer_probability>
1

> <r_epik_Ionization_Penalty>
6.95229e-08

> <r_epik_Ionization_Penalty_Charging>
0

> <r_epik_Ionization_Penalty_Neutral>
6.95229e-08

> <r_epik_State_Penalty>
-0

> <r_epik_Charging_Adjusted_Penalty>
0

> <i_epik_Tot_Q>
0

> <i_epik_Tot_abs_Q>
0

> <r_epik_Metal_State_Penalty>
-0

> <b_epik_Metal_Only>
0

> <s_lp_Force_Field>
OPLS_2005

> <r_lp_Energy>
17.7289

> <b_lp_Chiralities_Consistent>
1

> <s_lp_Variant>
AV-unprocessed.smi:2332-2

> <Gold.Version>
5.8.1

> <Gold.Id.Protein>
6NUR|6NUR_protein|mol2

> <Gold.PLP.Fitness>
36.5451

> <Gold.PLP.PLP>
-34.4207

> <Gold.PLP.part.hbond>
-1.4336

> <Gold.PLP.part.metal>
0.0000

> <Gold.PLP.part.buried>
-4.3663

> <Gold.PLP.part.nonpolar>
-28.5760

> <Gold.PLP.part.repulsive>
0.5070

> <Gold.PLP.ligand.clash>
0.0000

> <Gold.PLP.ligand.torsion>
0.3532

> <Gold.PLP.Chemscore.Hbond>
0.8320

> <Gold.PLP.Chemscore.CHOScore>
0.0000

> <Gold.PLP.Chemscore.Metal>
0.0000

> <Gold.Chemscore.Hbonds>
donor molecule, donor type, donor heavy atom, donor atom, acceptor molecule, acceptor atom, score
      L1  H     2    22       P1  7957  0.90

> <Gold.PLP.Chemscore.Internal.Correction>
0.3350

> <Gold.Rescore>
     Score         DG    S(hbond)    S(metal)    S(lipo)     H(rot)  DE(clash)    DE(int)     intcor
     13.19     -13.69       0.95        0.00      72.43       1.35       0.07       0.42       ----

> <Gold.Chemscore.Fitness>
13.1941

> <Gold.Chemscore.DG>
-13.6853

> <Gold.Chemscore.ZeroCoef>
-5.4800

> <Gold.Chemscore.Hbond>
0.9541

> <Gold.Chemscore.Metal>
0.0000

> <Gold.Chemscore.Lipo>
72.4280

> <Gold.Chemscore.Internal_Hbond>
0.0000

> <Gold.Chemscore.DEClash>
0.0665

> <Gold.Chemscore.DEInternal>
0.4247

> <Gold.Chemscore.Rot>
1.3498

> <Gold.Chemscore.Internal.Correction>
   9.000000E+99

> <Gold.Chemscore.Hbonds>
donor molecule, donor type, donor heavy atom, donor atom, acceptor molecule, acceptor atom, score
      L1  H     2    22       P1  7957  0.84

> <Gold.Chemscore.Hbond.Weighted>
-3.1868

> <Gold.Chemscore.Metal.Weighted>
-0.0000

> <Gold.Chemscore.Lipo.Weighted>
-8.4741

> <Gold.Chemscore.Internal_Hbond.Weighted>
0.0000

> <Gold.Chemscore.DEClash.Weighted>
0.0665

> <Gold.Chemscore.DEInternal.Weighted>
0.4247

> <Gold.Chemscore.Rot.Weighted>
3.4556

> <Gold.Chemscore.Internal.Correction.Weighted>
   9.000000E+99

> <Gold.Protein.RotatedTorsions>
[ 6907 6896 6895 6894 ] final   -2.90 input  -60.11 | X-H torsion
[ 7974 7965 7964 7962 ] final  150.44 input  175.53 | X-H torsion
[ 8008 7997 7996 7995 ] final  -64.42 input   59.86 | X-H torsion
[ 10167 10162 10161 10158 ] final -131.08 input  -65.29 | X-H torsion
[ 10718 10713 10712 10709 ] final  164.57 input   66.30 | X-H torsion
[ 10763 10752 10751 10750 ] final   72.24 input  -60.55 | X-H torsion
[ 11005 11000 10999 10996 ] final -111.46 input  -57.11 | X-H torsion

> <Gold.Protein.ActiveResidues>
 VAL166  LYS551  ARG553  GLY616  TRP617  ASP618  TYR619  PRO620  LYS621  CYS622 
 ASP623  PHE694  ASN695  SER759  ASP760  ASP761  ALA762  ILE779  LEU786  VAL792 
 PHE793  MET794  SER795  GLU796  ALA797  LYS798  CYS799  TRP800  GLU811  SER814 

> <Gold.Protein.RotatedAtoms>
  151.5224  135.1067  159.9881 H   0  0  0  0  0  0  0  0  0  0  0  0  # atno 6907 bound_to 6896
  152.4614  133.7827  159.6870 H   0  0  0  0  0  0  0  0  0  0  0  0  # atno 6908 bound_to 6896
  150.8579  133.7624  159.3028 H   0  0  0  0  0  0  0  0  0  0  0  0  # atno 6909 bound_to 6896
  144.8364  139.6409  143.6036 H   0  0  0  0  0  0  0  0  0  0  0  0  # atno 7974 bound_to 7965
  154.4611  140.0954  156.6894 H   0  0  0  0  0  0  0  0  0  0  0  0  # atno 8008 bound_to 7997
  155.4993  140.3473  155.4350 H   0  0  0  0  0  0  0  0  0  0  0  0  # atno 8009 bound_to 7997
  156.0871  140.1388  156.9628 H   0  0  0  0  0  0  0  0  0  0  0  0  # atno 8010 bound_to 7997
  139.9226  143.6365  152.2550 H   0  0  0  0  0  0  0  0  0  0  0  0  # atno 10167 bound_to 10162
  157.0925  131.0421  151.2531 H   0  0  0  0  0  0  0  0  0  0  0  0  # atno 10718 bound_to 10713
  153.0447  135.5107  154.7715 H   0  0  0  0  0  0  0  0  0  0  0  0  # atno 10763 bound_to 10752
  154.6624  135.2940  154.9851 H   0  0  0  0  0  0  0  0  0  0  0  0  # atno 10764 bound_to 10752
  154.0698  135.6679  153.4875 H   0  0  0  0  0  0  0  0  0  0  0  0  # atno 10765 bound_to 10752
  141.0733  133.9344  157.2442 H   0  0  0  0  0  0  0  0  0  0  0  0  # atno 11005 bound_to 11000
  146.2662  139.6526  142.9328 LP  0  0  0  0  0  0  0  0  0  0  0  0  # atno 17320 bound_to 7965
  145.4786  141.0437  143.2658 LP  0  0  0  0  0  0  0  0  0  0  0  0  # atno 17321 bound_to 7965
  139.6849  144.7652  151.1542 LP  0  0  0  0  0  0  0  0  0  0  0  0  # atno 17342 bound_to 10162
  140.7658  143.5672  150.9035 LP  0  0  0  0  0  0  0  0  0  0  0  0  # atno 17343 bound_to 10162
  157.4709  130.7708  149.7323 LP  0  0  0  0  0  0  0  0  0  0  0  0  # atno 17370 bound_to 10713
  155.9894  130.3952  150.3073 LP  0  0  0  0  0  0  0  0  0  0  0  0  # atno 17371 bound_to 10713
  139.9545  135.0168  156.9089 LP  0  0  0  0  0  0  0  0  0  0  0  0  # atno 17394 bound_to 11000
  140.5628  134.0518  155.7404 LP  0  0  0  0  0  0  0  0  0  0  0  0  # atno 17395 bound_to 11000

$$$$
