AV-unprocessed.smi:1040|AV-procd|sdf|4526|dock5
  -GOLD-   22720 2543D 1   1.00000     0.00000
 Structure written by MMmdl.
 55 56  0  0  0  0  0  0  0  0  2 V2000
  151.6577  138.1173  154.2107 C   0  0  0  0  0  0  0  0  0  0  0  0
  150.3955  137.5255  154.8590 C   0  0  2  0  0  0  0  0  0  0  0  0
  150.0275  136.2676  154.2125 N   0  0  0  0  0  0  0  0  0  0  0  0
  150.0766  135.0533  154.7768 C   0  0  0  0  0  0  0  0  0  0  0  0
  150.4838  134.8459  155.9198 O   0  0  0  0  0  0  0  0  0  0  0  0
  149.6058  134.1133  153.9412 N   0  0  0  0  0  0  0  0  0  0  0  0
  149.4064  132.7301  154.2077 C   0  0  0  0  0  0  0  0  0  0  0  0
  150.2991  131.9702  155.0050 C   0  0  0  0  0  0  0  0  0  0  0  0
  150.0514  130.5987  155.2142 C   0  0  0  0  0  0  0  0  0  0  0  0
  148.9222  130.0069  154.6177 C   0  0  0  0  0  0  0  0  0  0  0  0
  148.1004  130.7545  153.8514 N   0  3  0  0  0  0  0  0  0  0  0  0
  148.2954  132.0754  153.6190 C   0  0  0  0  0  0  0  0  0  0  0  0
  147.3785  132.7581  152.8036 N   0  0  0  0  0  0  0  0  0  0  0  0
  146.8615  131.9464  151.7051 C   0  0  0  0  0  0  0  0  0  0  0  0
  146.0568  132.8131  150.7209 C   0  0  0  0  0  0  0  0  0  0  0  0
  144.9495  133.5901  151.4517 C   0  0  0  0  0  0  0  0  0  0  0  0
  145.5451  134.3992  152.6157 C   0  0  0  0  0  0  0  0  0  0  0  0
  146.3632  133.4938  153.5528 C   0  0  0  0  0  0  0  0  0  0  0  0
  149.2084  138.4950  154.8789 C   0  0  0  0  0  0  0  0  0  0  0  0
  148.9767  139.1692  155.8835 O   0  0  0  0  0  0  0  0  0  0  0  0
  148.4612  138.5356  153.7611 N   0  0  0  0  0  0  0  0  0  0  0  0
  147.2714  139.3502  153.4863 C   0  0  0  0  0  0  0  0  0  0  0  0
  146.7945  138.9811  152.0706 C   0  0  0  0  0  0  0  0  0  0  0  0
  147.6187  140.8538  153.5219 C   0  0  0  0  0  0  0  0  0  0  0  0
  146.1475  139.0280  154.4929 C   0  0  0  0  0  0  0  0  0  0  0  0
  151.9447  139.0543  154.6891 H   0  0  0  0  0  0  0  0  0  0  0  0
  151.5008  138.3206  153.1505 H   0  0  0  0  0  0  0  0  0  0  0  0
  152.5039  137.4349  154.2974 H   0  0  0  0  0  0  0  0  0  0  0  0
  150.6323  137.3082  155.9027 H   0  0  0  0  0  0  0  0  0  0  0  0
  149.6765  136.3401  153.2685 H   0  0  0  0  0  0  0  0  0  0  0  0
  149.2321  134.4469  153.0644 H   0  0  0  0  0  0  0  0  0  0  0  0
  151.1772  132.4146  155.4484 H   0  0  0  0  0  0  0  0  0  0  0  0
  150.7224  130.0078  155.8207 H   0  0  0  0  0  0  0  0  0  0  0  0
  148.6570  128.9649  154.7239 H   0  0  0  0  0  0  0  0  0  0  0  0
  147.6882  131.4624  151.1830 H   0  0  0  0  0  0  0  0  0  0  0  0
  146.2276  131.1540  152.1056 H   0  0  0  0  0  0  0  0  0  0  0  0
  146.7260  133.5152  150.2216 H   0  0  0  0  0  0  0  0  0  0  0  0
  145.6242  132.1884  149.9390 H   0  0  0  0  0  0  0  0  0  0  0  0
  144.4319  134.2526  150.7574 H   0  0  0  0  0  0  0  0  0  0  0  0
  144.2027  132.8929  151.8337 H   0  0  0  0  0  0  0  0  0  0  0  0
  146.1859  135.1891  152.2210 H   0  0  0  0  0  0  0  0  0  0  0  0
  144.7504  134.8950  153.1739 H   0  0  0  0  0  0  0  0  0  0  0  0
  145.7007  132.7891  154.0572 H   0  0  0  0  0  0  0  0  0  0  0  0
  146.8406  134.0963  154.3268 H   0  0  0  0  0  0  0  0  0  0  0  0
  148.7508  137.9285  153.0078 H   0  0  0  0  0  0  0  0  0  0  0  0
  145.9061  139.5484  151.7907 H   0  0  0  0  0  0  0  0  0  0  0  0
  146.5422  137.9221  151.9986 H   0  0  0  0  0  0  0  0  0  0  0  0
  147.5629  139.1879  151.3245 H   0  0  0  0  0  0  0  0  0  0  0  0
  148.4369  141.0889  152.8402 H   0  0  0  0  0  0  0  0  0  0  0  0
  147.9136  141.1841  154.5179 H   0  0  0  0  0  0  0  0  0  0  0  0
  146.7626  141.4615  153.2271 H   0  0  0  0  0  0  0  0  0  0  0  0
  145.2310  139.5620  154.2401 H   0  0  0  0  0  0  0  0  0  0  0  0
  146.4124  139.3145  155.5106 H   0  0  0  0  0  0  0  0  0  0  0  0
  145.9142  137.9627  154.5002 H   0  0  0  0  0  0  0  0  0  0  0  0
  147.2915  130.3012  153.4259 H   0  0  0  0  0  0  0  0  0  0  0  0
  1  2  1  0  0  0  0
  1 26  1  0  0  0  0
  1 27  1  0  0  0  0
  1 28  1  0  0  0  0
  2  3  1  0  0  0  0
  2 19  1  0  0  0  0
  2 29  1  0  0  0  0
  3  4  1  0  0  0  0
  3 30  1  0  0  0  0
  4  5  2  0  0  0  0
  4  6  1  0  0  0  0
  6  7  1  0  0  0  0
  6 31  1  0  0  0  0
  7 12  1  0  0  0  0
  7  8  2  0  0  0  0
  8  9  1  0  0  0  0
  8 32  1  0  0  0  0
  9 10  2  0  0  0  0
  9 33  1  0  0  0  0
 10 11  1  0  0  0  0
 10 34  1  0  0  0  0
 11 12  2  0  0  0  0
 11 55  1  0  0  0  0
 12 13  1  0  0  0  0
 13 18  1  0  0  0  0
 13 14  1  0  0  0  0
 14 15  1  0  0  0  0
 14 35  1  0  0  0  0
 14 36  1  0  0  0  0
 15 16  1  0  0  0  0
 15 37  1  0  0  0  0
 15 38  1  0  0  0  0
 16 17  1  0  0  0  0
 16 39  1  0  0  0  0
 16 40  1  0  0  0  0
 17 18  1  0  0  0  0
 17 41  1  0  0  0  0
 17 42  1  0  0  0  0
 18 43  1  0  0  0  0
 18 44  1  0  0  0  0
 19 20  2  0  0  0  0
 19 21  1  0  0  0  0
 21 22  1  0  0  0  0
 21 45  1  0  0  0  0
 22 23  1  0  0  0  0
 22 24  1  0  0  0  0
 22 25  1  0  0  0  0
 23 46  1  0  0  0  0
 23 47  1  0  0  0  0
 23 48  1  0  0  0  0
 24 49  1  0  0  0  0
 24 50  1  0  0  0  0
 24 51  1  0  0  0  0
 25 52  1  0  0  0  0
 25 53  1  0  0  0  0
 25 54  1  0  0  0  0
M  CHG  1  11   1
M  END
> <s_m_source_file>
AV-unprocessed.smi

> <i_m_source_file_index>
1040

> <i_lp_mmshare_version>
43012

> <i_f3d_flags>
0

> <s_epik_input>
W0NIM11DKFtDSDNdKShbQ0gzXSlbTkhdQyg9TylbQ0BIXShbQ0gzXSlbTkhdQyg9TylbTkhdYzFbY0hdW2NIXVtjSF1uYzFOMltDSDJdW0NIMl1bQ0gyXVtDSDJdW0NIMl0y

> <s_epik_cmdline>
J2VwaWtfcHl0aG9uJywgJy1waCcsICc3LjAnLCAnLXRuJywgJzgnLCAnLW1hJywgJzIwMCcsICctbWV0YWxfYmluZGluZycsICctaW1hZScsICc8aW5maWxlLm1hZT4nLCAnLW9tYWUnLCAnPG91dGZpbGUubWFlPic=

> <r_lp_tautomer_probability>
0.999994

> <r_epik_Ionization_Penalty>
1.20468

> <r_epik_Ionization_Penalty_Charging>
1.20466

> <r_epik_Ionization_Penalty_Neutral>
1.88859e-05

> <r_epik_State_Penalty>
1.27057

> <r_epik_Charging_Adjusted_Penalty>
2.47523

> <i_epik_Tot_Q>
1

> <i_epik_Tot_abs_Q>
1

> <r_epik_Metal_State_Penalty>
1.34448

> <b_epik_Metal_Only>
0

> <s_lp_Force_Field>
OPLS_2005

> <r_lp_Energy>
28.5731

> <b_lp_Chiralities_Consistent>
1

> <s_lp_Variant>
AV-unprocessed.smi:1040-3

> <Gold.Version>
5.8.1

> <Gold.Id.Protein>
6NUR|6NUR_protein|mol2

> <Gold.PLP.Fitness>
40.7197

> <Gold.PLP.PLP>
-37.0027

> <Gold.PLP.part.hbond>
-4.3975

> <Gold.PLP.part.metal>
0.0000

> <Gold.PLP.part.buried>
0.5096

> <Gold.PLP.part.nonpolar>
-33.9118

> <Gold.PLP.part.repulsive>
0.2947

> <Gold.PLP.ligand.clash>
0.0049

> <Gold.PLP.ligand.torsion>
1.5597

> <Gold.PLP.Chemscore.Hbond>
2.1787

> <Gold.PLP.Chemscore.CHOScore>
0.0000

> <Gold.PLP.Chemscore.Metal>
0.0000

> <Gold.Chemscore.Hbonds>
donor molecule, donor type, donor heavy atom, donor atom, acceptor molecule, acceptor atom, score
      L1  H     3    30       P1  7948  1.00
      L1  H     6    31       P1  7948  0.18
      L1  H    21    45       P1  7948  0.99

> <Gold.PLP.Chemscore.Internal.Correction>
0.3050

> <Gold.Rescore>
     Score         DG    S(hbond)    S(metal)    S(lipo)     H(rot)  DE(clash)    DE(int)     intcor
     13.55     -16.42       1.65        0.00      82.28       1.64       0.54       2.33       ----

> <Gold.Chemscore.Fitness>
13.5520

> <Gold.Chemscore.DG>
-16.4240

> <Gold.Chemscore.ZeroCoef>
-5.4800

> <Gold.Chemscore.Hbond>
1.6536

> <Gold.Chemscore.Metal>
0.0000

> <Gold.Chemscore.Lipo>
82.2759

> <Gold.Chemscore.Internal_Hbond>
0.0000

> <Gold.Chemscore.DEClash>
0.5380

> <Gold.Chemscore.DEInternal>
2.3340

> <Gold.Chemscore.Rot>
1.6428

> <Gold.Chemscore.Internal.Correction>
   9.000000E+99

> <Gold.Chemscore.Hbonds>
donor molecule, donor type, donor heavy atom, donor atom, acceptor molecule, acceptor atom, score
      L1  H     3    30       P1  7948  0.24
      L1  H    21    45       P1  7948  0.92

> <Gold.Chemscore.Hbond.Weighted>
-5.5232

> <Gold.Chemscore.Metal.Weighted>
-0.0000

> <Gold.Chemscore.Lipo.Weighted>
-9.6263

> <Gold.Chemscore.Internal_Hbond.Weighted>
0.0000

> <Gold.Chemscore.DEClash.Weighted>
0.5380

> <Gold.Chemscore.DEInternal.Weighted>
2.3340

> <Gold.Chemscore.Rot.Weighted>
4.2055

> <Gold.Chemscore.Internal.Correction.Weighted>
   9.000000E+99

> <Gold.Protein.RotatedTorsions>
[ 6907 6896 6895 6894 ] final  134.36 input  -60.11 | X-H torsion
[ 7974 7965 7964 7962 ] final  106.79 input  175.53 | X-H torsion
[ 8008 7997 7996 7995 ] final   97.13 input   59.86 | X-H torsion
[ 10167 10162 10161 10158 ] final  170.38 input  -65.29 | X-H torsion
[ 10718 10713 10712 10709 ] final   90.27 input   66.30 | X-H torsion
[ 10763 10752 10751 10750 ] final   31.57 input  -60.55 | X-H torsion
[ 11005 11000 10999 10996 ] final -129.00 input  -57.11 | X-H torsion

> <Gold.Protein.ActiveResidues>
 VAL166  LYS551  ARG553  GLY616  TRP617  ASP618  TYR619  PRO620  LYS621  CYS622 
 ASP623  PHE694  ASN695  SER759  ASP760  ASP761  ALA762  ILE779  LEU786  VAL792 
 PHE793  MET794  SER795  GLU796  ALA797  LYS798  CYS799  TRP800  GLU811  SER814 

> <Gold.Protein.RotatedAtoms>
  152.3121  133.5764  159.5687 H   0  0  0  0  0  0  0  0  0  0  0  0  # atno 6907 bound_to 6896
  150.7328  134.0136  159.3687 H   0  0  0  0  0  0  0  0  0  0  0  0  # atno 6908 bound_to 6896
  151.8028  135.0704  160.0453 H   0  0  0  0  0  0  0  0  0  0  0  0  # atno 6909 bound_to 6896
  145.3021  139.2566  143.3808 H   0  0  0  0  0  0  0  0  0  0  0  0  # atno 7974 bound_to 7965
  156.0869  140.3263  155.7765 H   0  0  0  0  0  0  0  0  0  0  0  0  # atno 8008 bound_to 7997
  155.5061  140.0573  157.2948 H   0  0  0  0  0  0  0  0  0  0  0  0  # atno 8009 bound_to 7997
  154.4614  140.1968  156.0250 H   0  0  0  0  0  0  0  0  0  0  0  0  # atno 8010 bound_to 7997
  139.5017  144.3602  151.9832 H   0  0  0  0  0  0  0  0  0  0  0  0  # atno 10167 bound_to 10162
  157.6958  131.0364  150.3552 H   0  0  0  0  0  0  0  0  0  0  0  0  # atno 10718 bound_to 10713
  153.0308  135.6435  154.1220 H   0  0  0  0  0  0  0  0  0  0  0  0  # atno 10763 bound_to 10752
  154.0942  135.2864  155.3267 H   0  0  0  0  0  0  0  0  0  0  0  0  # atno 10764 bound_to 10752
  154.6443  135.5448  153.7890 H   0  0  0  0  0  0  0  0  0  0  0  0  # atno 10765 bound_to 10752
  140.9469  134.1118  157.4099 H   0  0  0  0  0  0  0  0  0  0  0  0  # atno 11005 bound_to 11000
  146.3148  140.3537  142.8658 LP  0  0  0  0  0  0  0  0  0  0  0  0  # atno 17320 bound_to 7965
  144.9085  140.7729  143.5822 LP  0  0  0  0  0  0  0  0  0  0  0  0  # atno 17321 bound_to 7965
  140.3039  144.3616  150.6052 LP  0  0  0  0  0  0  0  0  0  0  0  0  # atno 17342 bound_to 10162
  140.5852  143.2170  151.7355 LP  0  0  0  0  0  0  0  0  0  0  0  0  # atno 17343 bound_to 10162
  156.3995  130.3913  149.6970 LP  0  0  0  0  0  0  0  0  0  0  0  0  # atno 17370 bound_to 10713
  156.4292  130.7807  151.2826 LP  0  0  0  0  0  0  0  0  0  0  0  0  # atno 17371 bound_to 10713
  139.8836  135.0054  156.6311 LP  0  0  0  0  0  0  0  0  0  0  0  0  # atno 17394 bound_to 11000
  140.7657  133.8780  155.8452 LP  0  0  0  0  0  0  0  0  0  0  0  0  # atno 17395 bound_to 11000

$$$$
