AV-unprocessed.smi:2329|AV-procd|sdf|9308|dock1
  -GOLD-   2272012523D 1   1.00000     0.00000
 Structure written by MMmdl.
 45 48  0  0  0  0  0  0  0  0  1 V2000
  152.9603  142.7477  161.8443 C   0  0  0  0  0  0  0  0  0  0  0  0
  152.3781  143.7173  160.8377 C   0  0  0  0  0  0  0  0  0  0  0  0
  152.4574  145.1091  161.0408 C   0  0  0  0  0  0  0  0  0  0  0  0
  151.8979  145.9540  160.0656 C   0  0  0  0  0  0  0  0  0  0  0  0
  151.2862  145.3769  158.9362 C   0  0  0  0  0  0  0  0  0  0  0  0
  151.2487  143.9702  158.8093 C   0  0  0  0  0  0  0  0  0  0  0  0
  150.6101  143.4904  157.6361 N   0  0  0  0  0  0  0  0  0  0  0  0
  150.8846  142.3763  156.9287 C   0  0  0  0  0  0  0  0  0  0  0  0
  151.7825  141.5785  157.1921 O   0  0  0  0  0  0  0  0  0  0  0  0
  150.0670  142.1835  155.8789 N   0  0  0  0  0  0  0  0  0  0  0  0
  150.0992  141.0722  154.9143 C   0  0  2  0  0  0  0  0  0  0  0  0
  148.8123  140.9091  154.0969 C   0  0  2  0  0  0  0  0  0  0  0  0
  147.6636  141.7813  153.7361 C   0  0  0  0  0  0  0  0  0  0  0  0
  146.5427  140.7309  153.9523 C   0  0  0  0  0  0  0  0  0  0  0  0
  147.1778  139.5972  154.5960 O   0  0  0  0  0  0  0  0  0  0  0  0
  148.2694  140.1620  155.2968 C   0  0  1  0  0  0  0  0  0  0  0  0
  149.7182  139.6692  155.5262 C   0  0  0  0  0  0  0  0  0  0  0  0
  150.1516  138.4018  154.7604 C   0  0  0  0  0  0  0  0  0  0  0  0
  150.8540  137.4606  155.7407 C   0  0  0  0  0  0  0  0  0  0  0  0
  150.3334  137.8771  157.1082 C   0  0  0  0  0  0  0  0  0  0  0  0
  150.1357  139.3838  156.9738 C   0  0  0  0  0  0  0  0  0  0  0  0
  151.7912  143.1634  159.7550 N   0  0  0  0  0  0  0  0  0  0  0  0
  153.3848  143.2732  162.7003 H   0  0  0  0  0  0  0  0  0  0  0  0
  153.7498  142.1530  161.3837 H   0  0  0  0  0  0  0  0  0  0  0  0
  152.1882  142.0703  162.2100 H   0  0  0  0  0  0  0  0  0  0  0  0
  152.9336  145.5211  161.9185 H   0  0  0  0  0  0  0  0  0  0  0  0
  151.9367  147.0271  160.1809 H   0  0  0  0  0  0  0  0  0  0  0  0
  150.8512  146.0115  158.1774 H   0  0  0  0  0  0  0  0  0  0  0  0
  149.8388  144.0492  157.3022 H   0  0  0  0  0  0  0  0  0  0  0  0
  149.3325  142.8636  155.7452 H   0  0  0  0  0  0  0  0  0  0  0  0
  151.0090  141.0398  154.3128 H   0  0  0  0  0  0  0  0  0  0  0  0
  149.0277  140.2412  153.2566 H   0  0  0  0  0  0  0  0  0  0  0  0
  147.5597  142.6315  154.4114 H   0  0  0  0  0  0  0  0  0  0  0  0
  147.7112  142.1428  152.7087 H   0  0  0  0  0  0  0  0  0  0  0  0
  145.7513  141.1336  154.5857 H   0  0  0  0  0  0  0  0  0  0  0  0
  146.0948  140.4127  153.0106 H   0  0  0  0  0  0  0  0  0  0  0  0
  147.9105  140.8073  156.1052 H   0  0  0  0  0  0  0  0  0  0  0  0
  149.2789  137.8953  154.3462 H   0  0  0  0  0  0  0  0  0  0  0  0
  150.8052  138.6315  153.9182 H   0  0  0  0  0  0  0  0  0  0  0  0
  150.6688  136.4086  155.5217 H   0  0  0  0  0  0  0  0  0  0  0  0
  151.9313  137.6251  155.6965 H   0  0  0  0  0  0  0  0  0  0  0  0
  149.3736  137.3952  157.2992 H   0  0  0  0  0  0  0  0  0  0  0  0
  151.0114  137.6100  157.9193 H   0  0  0  0  0  0  0  0  0  0  0  0
  151.0790  139.8854  157.1947 H   0  0  0  0  0  0  0  0  0  0  0  0
  149.4078  139.7499  157.6985 H   0  0  0  0  0  0  0  0  0  0  0  0
  1  2  1  0  0  0  0
  1 23  1  0  0  0  0
  1 24  1  0  0  0  0
  1 25  1  0  0  0  0
  2 22  1  0  0  0  0
  2  3  2  0  0  0  0
  3  4  1  0  0  0  0
  3 26  1  0  0  0  0
  4  5  2  0  0  0  0
  4 27  1  0  0  0  0
  5  6  1  0  0  0  0
  5 28  1  0  0  0  0
  6  7  1  0  0  0  0
  6 22  2  0  0  0  0
  7  8  1  0  0  0  0
  7 29  1  0  0  0  0
  8  9  2  0  0  0  0
  8 10  1  0  0  0  0
 10 11  1  0  0  0  0
 10 30  1  0  0  0  0
 11 17  1  0  0  0  0
 11 12  1  0  0  0  0
 11 31  1  0  0  0  0
 12 16  1  0  0  0  0
 12 13  1  0  0  0  0
 12 32  1  0  0  0  0
 13 14  1  0  0  0  0
 13 33  1  0  0  0  0
 13 34  1  0  0  0  0
 14 15  1  0  0  0  0
 14 35  1  0  0  0  0
 14 36  1  0  0  0  0
 15 16  1  0  0  0  0
 16 17  1  0  0  0  0
 16 37  1  0  0  0  0
 17 21  1  0  0  0  0
 17 18  1  0  0  0  0
 18 19  1  0  0  0  0
 18 38  1  0  0  0  0
 18 39  1  0  0  0  0
 19 20  1  0  0  0  0
 19 40  1  0  0  0  0
 19 41  1  0  0  0  0
 20 21  1  0  0  0  0
 20 42  1  0  0  0  0
 20 43  1  0  0  0  0
 21 44  1  0  0  0  0
 21 45  1  0  0  0  0
M  END
> <s_m_source_file>
AV-unprocessed.smi

> <i_m_source_file_index>
2329

> <i_lp_mmshare_version>
43012

> <i_f3d_flags>
0

> <s_epik_input>
W0NIM11jMVtjSF1bY0hdW2NIXWMobjEpW05IXUMoPU8pW05IXVtDQEBIXTJbQ0BASF0oW0NIMl1bQ0gyXU8zKVtDQEhdM0MyNFtDSDJdW0NIMl1bQ0gyXVtDSDJdNA==

> <s_epik_cmdline>
J2VwaWtfcHl0aG9uJywgJy1waCcsICc3LjAnLCAnLXRuJywgJzgnLCAnLW1hJywgJzIwMCcsICctbWV0YWxfYmluZGluZycsICctaW1hZScsICc8aW5maWxlLm1hZT4nLCAnLW9tYWUnLCAnPG91dGZpbGUubWFlPic=

> <r_lp_tautomer_probability>
1

> <r_epik_Ionization_Penalty>
8.97002e-05

> <r_epik_Ionization_Penalty_Charging>
0

> <r_epik_Ionization_Penalty_Neutral>
8.97002e-05

> <r_epik_State_Penalty>
-0

> <r_epik_Charging_Adjusted_Penalty>
0

> <i_epik_Tot_Q>
0

> <i_epik_Tot_abs_Q>
0

> <r_epik_Metal_State_Penalty>
-0

> <b_epik_Metal_Only>
0

> <s_lp_Force_Field>
OPLS_2005

> <r_lp_Energy>
90.3412

> <b_lp_Chiralities_Consistent>
1

> <s_lp_Variant>
AV-unprocessed.smi:2329-7

> <Gold.Version>
5.8.1

> <Gold.Id.Protein>
6NUR|6NUR_protein|mol2

> <Gold.PLP.Fitness>
43.8478

> <Gold.PLP.PLP>
-38.3307

> <Gold.PLP.part.hbond>
-2.0000

> <Gold.PLP.part.metal>
0.0000

> <Gold.PLP.part.buried>
-2.5721

> <Gold.PLP.part.nonpolar>
-31.7968

> <Gold.PLP.part.repulsive>
0.2498

> <Gold.PLP.ligand.clash>
0.0000

> <Gold.PLP.ligand.torsion>
0.3514

> <Gold.PLP.Chemscore.Hbond>
1.9833

> <Gold.PLP.Chemscore.CHOScore>
0.0000

> <Gold.PLP.Chemscore.Metal>
0.0000

> <Gold.Chemscore.Hbonds>
donor molecule, donor type, donor heavy atom, donor atom, acceptor molecule, acceptor atom, score
      L1  H     7    29       P1  8028  0.91
      L1  H    10    30       P1  8028  0.93

> <Gold.PLP.Chemscore.Internal.Correction>
0.2701

> <Gold.Rescore>
     Score         DG    S(hbond)    S(metal)    S(lipo)     H(rot)  DE(clash)    DE(int)     intcor
     15.84     -20.72       1.36        0.00     113.25       1.00       2.10       2.79       ----

> <Gold.Chemscore.Fitness>
15.8367

> <Gold.Chemscore.DG>
-20.7207

> <Gold.Chemscore.ZeroCoef>
-5.4800

> <Gold.Chemscore.Hbond>
1.3625

> <Gold.Chemscore.Metal>
0.0000

> <Gold.Chemscore.Lipo>
113.2470

> <Gold.Chemscore.Internal_Hbond>
0.0000

> <Gold.Chemscore.DEClash>
2.0973

> <Gold.Chemscore.DEInternal>
2.7867

> <Gold.Chemscore.Rot>
1.0000

> <Gold.Chemscore.Internal.Correction>
   9.000000E+99

> <Gold.Chemscore.Hbonds>
donor molecule, donor type, donor heavy atom, donor atom, acceptor molecule, acceptor atom, score
      L1  H     7    29       P1  8028  0.57
      L1  H    10    30       P1  8028  0.89

> <Gold.Chemscore.Hbond.Weighted>
-4.5508

> <Gold.Chemscore.Metal.Weighted>
-0.0000

> <Gold.Chemscore.Lipo.Weighted>
-13.2499

> <Gold.Chemscore.Internal_Hbond.Weighted>
0.0000

> <Gold.Chemscore.DEClash.Weighted>
2.0973

> <Gold.Chemscore.DEInternal.Weighted>
2.7867

> <Gold.Chemscore.Rot.Weighted>
2.5600

> <Gold.Chemscore.Internal.Correction.Weighted>
   9.000000E+99

> <Gold.Protein.RotatedTorsions>
[ 6907 6896 6895 6894 ] final   20.89 input  -60.11 | X-H torsion
[ 7974 7965 7964 7962 ] final  -33.80 input  175.53 | X-H torsion
[ 8008 7997 7996 7995 ] final -110.25 input   59.86 | X-H torsion
[ 10167 10162 10161 10158 ] final -131.68 input  -65.29 | X-H torsion
[ 10718 10713 10712 10709 ] final  109.89 input   66.30 | X-H torsion
[ 10763 10752 10751 10750 ] final -109.46 input  -60.55 | X-H torsion
[ 11005 11000 10999 10996 ] final -174.20 input  -57.11 | X-H torsion

> <Gold.Protein.ActiveResidues>
 VAL166  LYS551  ARG553  GLY616  TRP617  ASP618  TYR619  PRO620  LYS621  CYS622 
 ASP623  PHE694  ASN695  SER759  ASP760  ASP761  ALA762  ILE779  LEU786  VAL792 
 PHE793  MET794  SER795  GLU796  ALA797  LYS798  CYS799  TRP800  GLU811  SER814 

> <Gold.Protein.RotatedAtoms>
  151.9034  135.0369  160.0508 H   0  0  0  0  0  0  0  0  0  0  0  0  # atno 6907 bound_to 6896
  152.2339  133.5076  159.5240 H   0  0  0  0  0  0  0  0  0  0  0  0  # atno 6908 bound_to 6896
  150.7033  134.1096  159.4038 H   0  0  0  0  0  0  0  0  0  0  0  0  # atno 6909 bound_to 6896
  146.0881  140.5960  142.8877 H   0  0  0  0  0  0  0  0  0  0  0  0  # atno 7974 bound_to 7965
  154.9717  140.0397  157.2237 H   0  0  0  0  0  0  0  0  0  0  0  0  # atno 8008 bound_to 7997
  154.7795  140.2816  155.6052 H   0  0  0  0  0  0  0  0  0  0  0  0  # atno 8009 bound_to 7997
  156.2934  140.2594  156.2617 H   0  0  0  0  0  0  0  0  0  0  0  0  # atno 8010 bound_to 7997
  139.9164  143.6433  152.2564 H   0  0  0  0  0  0  0  0  0  0  0  0  # atno 10167 bound_to 10162
  157.6520  131.0922  150.6520 H   0  0  0  0  0  0  0  0  0  0  0  0  # atno 10718 bound_to 10713
  154.8194  135.4600  154.0736 H   0  0  0  0  0  0  0  0  0  0  0  0  # atno 10763 bound_to 10752
  153.2102  135.6881  153.8130 H   0  0  0  0  0  0  0  0  0  0  0  0  # atno 10764 bound_to 10752
  153.7584  135.3287  155.3310 H   0  0  0  0  0  0  0  0  0  0  0  0  # atno 10765 bound_to 10752
  140.4772  134.6110  157.4905 H   0  0  0  0  0  0  0  0  0  0  0  0  # atno 11005 bound_to 11000
  144.7340  140.4756  143.6917 LP  0  0  0  0  0  0  0  0  0  0  0  0  # atno 17320 bound_to 7965
  145.6091  139.1511  143.3086 LP  0  0  0  0  0  0  0  0  0  0  0  0  # atno 17321 bound_to 7965
  139.6898  144.7648  151.1458 LP  0  0  0  0  0  0  0  0  0  0  0  0  # atno 17342 bound_to 10162
  140.7673  143.5605  150.9104 LP  0  0  0  0  0  0  0  0  0  0  0  0  # atno 17343 bound_to 10162
  156.6831  130.4573  149.5622 LP  0  0  0  0  0  0  0  0  0  0  0  0  # atno 17370 bound_to 10713
  156.1915  130.6563  151.1067 LP  0  0  0  0  0  0  0  0  0  0  0  0  # atno 17371 bound_to 10713
  139.9849  134.7078  155.9793 LP  0  0  0  0  0  0  0  0  0  0  0  0  # atno 17394 bound_to 11000
  141.1549  133.6544  156.4128 LP  0  0  0  0  0  0  0  0  0  0  0  0  # atno 17395 bound_to 11000

$$$$
