AV-unprocessed.smi:2255|AV-procd|sdf|9125|dock4
  -GOLD-   2272012333D 1   1.00000     0.00000
 Structure written by MMmdl.
 46 47  0  0  0  0  0  0  0  0  1 V2000
  146.0299  129.3298  151.2008 C   0  0  0  0  0  0  0  0  0  0  0  0
  145.9930  130.8394  151.0885 C   0  0  0  0  0  0  0  0  0  0  0  0
  145.0224  131.4847  150.2976 C   0  0  0  0  0  0  0  0  0  0  0  0
  145.0484  132.8893  150.2316 C   0  0  0  0  0  0  0  0  0  0  0  0
  146.0374  133.5856  150.9527 C   0  0  0  0  0  0  0  0  0  0  0  0
  146.9743  132.8617  151.7241 C   0  0  0  0  0  0  0  0  0  0  0  0
  147.9334  133.6552  152.4075 N   0  0  0  0  0  0  0  0  0  0  0  0
  148.6752  133.3237  153.4790 C   0  0  0  0  0  0  0  0  0  0  0  0
  148.6039  132.2577  154.0913 O   0  0  0  0  0  0  0  0  0  0  0  0
  149.5147  134.3163  153.8090 N   0  0  0  0  0  0  0  0  0  0  0  0
  150.4736  134.2937  154.9123 C   0  0  0  0  0  0  0  0  0  0  0  0
  150.4542  135.6079  155.7216 C   0  0  0  0  0  0  0  0  0  0  0  0
  151.6179  136.5775  155.4313 C   0  0  0  0  0  0  0  0  0  0  0  0
  152.7510  136.2932  155.8224 O   0  0  0  0  0  0  0  0  0  0  0  0
  151.3630  137.7295  154.7627 N   0  0  0  0  0  0  0  0  0  0  0  0
  152.4231  138.7109  154.4990 C   0  0  0  0  0  0  0  0  0  0  0  0
  152.6840  139.6258  155.7133 C   0  0  0  0  0  0  0  0  0  0  0  0
  151.4447  140.0017  156.5555 C   0  0  0  0  0  0  0  0  0  0  0  0
  150.1701  140.3205  155.7490 C   0  0  0  0  0  0  0  0  0  0  0  0
  149.3541  139.0707  155.3566 C   0  0  0  0  0  0  0  0  0  0  0  0
  150.0344  138.1680  154.3108 C   0  0  0  0  0  0  0  0  0  0  0  0
  146.9403  131.5069  151.7815 N   0  0  0  0  0  0  0  0  0  0  0  0
  145.1550  128.8768  150.7340 H   0  0  0  0  0  0  0  0  0  0  0  0
  146.0519  129.0254  152.2475 H   0  0  0  0  0  0  0  0  0  0  0  0
  146.9209  128.9376  150.7096 H   0  0  0  0  0  0  0  0  0  0  0  0
  144.2782  130.9212  149.7541 H   0  0  0  0  0  0  0  0  0  0  0  0
  144.3238  133.4250  149.6364 H   0  0  0  0  0  0  0  0  0  0  0  0
  146.0724  134.6646  150.9112 H   0  0  0  0  0  0  0  0  0  0  0  0
  148.0836  134.5772  152.0263 H   0  0  0  0  0  0  0  0  0  0  0  0
  149.4966  135.1543  153.2464 H   0  0  0  0  0  0  0  0  0  0  0  0
  150.1970  133.4675  155.5674 H   0  0  0  0  0  0  0  0  0  0  0  0
  151.4869  134.0759  154.5701 H   0  0  0  0  0  0  0  0  0  0  0  0
  149.5078  136.1172  155.5384 H   0  0  0  0  0  0  0  0  0  0  0  0
  150.4786  135.3577  156.7822 H   0  0  0  0  0  0  0  0  0  0  0  0
  153.3477  138.2147  154.1988 H   0  0  0  0  0  0  0  0  0  0  0  0
  152.1587  139.3338  153.6442 H   0  0  0  0  0  0  0  0  0  0  0  0
  153.4099  139.1479  156.3723 H   0  0  0  0  0  0  0  0  0  0  0  0
  153.1681  140.5359  155.3579 H   0  0  0  0  0  0  0  0  0  0  0  0
  151.2290  139.2039  157.2673 H   0  0  0  0  0  0  0  0  0  0  0  0
  151.7043  140.8680  157.1648 H   0  0  0  0  0  0  0  0  0  0  0  0
  149.5294  140.9515  156.3660 H   0  0  0  0  0  0  0  0  0  0  0  0
  150.4128  140.9161  154.8683 H   0  0  0  0  0  0  0  0  0  0  0  0
  149.1217  138.4932  156.2518 H   0  0  0  0  0  0  0  0  0  0  0  0
  148.3921  139.3927  154.9566 H   0  0  0  0  0  0  0  0  0  0  0  0
  150.1158  138.7088  153.3673 H   0  0  0  0  0  0  0  0  0  0  0  0
  149.3854  137.3255  154.0762 H   0  0  0  0  0  0  0  0  0  0  0  0
  1  2  1  0  0  0  0
  1 23  1  0  0  0  0
  1 24  1  0  0  0  0
  1 25  1  0  0  0  0
  2 22  1  0  0  0  0
  2  3  2  0  0  0  0
  3  4  1  0  0  0  0
  3 26  1  0  0  0  0
  4  5  2  0  0  0  0
  4 27  1  0  0  0  0
  5  6  1  0  0  0  0
  5 28  1  0  0  0  0
  6  7  1  0  0  0  0
  6 22  2  0  0  0  0
  7  8  1  0  0  0  0
  7 29  1  0  0  0  0
  8  9  2  0  0  0  0
  8 10  1  0  0  0  0
 10 11  1  0  0  0  0
 10 30  1  0  0  0  0
 11 12  1  0  0  0  0
 11 31  1  0  0  0  0
 11 32  1  0  0  0  0
 12 13  1  0  0  0  0
 12 33  1  0  0  0  0
 12 34  1  0  0  0  0
 13 14  2  0  0  0  0
 13 15  1  0  0  0  0
 15 21  1  0  0  0  0
 15 16  1  0  0  0  0
 16 17  1  0  0  0  0
 16 35  1  0  0  0  0
 16 36  1  0  0  0  0
 17 18  1  0  0  0  0
 17 37  1  0  0  0  0
 17 38  1  0  0  0  0
 18 19  1  0  0  0  0
 18 39  1  0  0  0  0
 18 40  1  0  0  0  0
 19 20  1  0  0  0  0
 19 41  1  0  0  0  0
 19 42  1  0  0  0  0
 20 21  1  0  0  0  0
 20 43  1  0  0  0  0
 20 44  1  0  0  0  0
 21 45  1  0  0  0  0
 21 46  1  0  0  0  0
M  END
> <s_m_source_file>
AV-unprocessed.smi

> <i_m_source_file_index>
2255

> <i_lp_mmshare_version>
43012

> <i_f3d_flags>
0

> <s_epik_input>
W0NIM11jMVtjSF1bY0hdW2NIXWMobjEpW05IXUMoPU8pW05IXVtDSDJdW0NIMl1DKD1PKU4yW0NIMl1bQ0gyXVtDSDJdW0NIMl1bQ0gyXVtDSDJdMg==

> <s_epik_cmdline>
J2VwaWtfcHl0aG9uJywgJy1waCcsICc3LjAnLCAnLXRuJywgJzgnLCAnLW1hJywgJzIwMCcsICctbWV0YWxfYmluZGluZycsICctaW1hZScsICc8aW5maWxlLm1hZT4nLCAnLW9tYWUnLCAnPG91dGZpbGUubWFlPic=

> <r_lp_tautomer_probability>
1

> <r_epik_Ionization_Penalty>
7.16633e-05

> <r_epik_Ionization_Penalty_Charging>
0

> <r_epik_Ionization_Penalty_Neutral>
7.16633e-05

> <r_epik_State_Penalty>
-0

> <r_epik_Charging_Adjusted_Penalty>
0

> <i_epik_Tot_Q>
0

> <i_epik_Tot_abs_Q>
0

> <r_epik_Metal_State_Penalty>
-0

> <b_epik_Metal_Only>
0

> <s_lp_Force_Field>
OPLS_2005

> <r_lp_Energy>
24.0956

> <b_lp_Chiralities_Consistent>
1

> <s_lp_Variant>
AV-unprocessed.smi:2255-1

> <Gold.Version>
5.8.1

> <Gold.Id.Protein>
6NUR|6NUR_protein|mol2

> <Gold.PLP.Fitness>
48.9996

> <Gold.PLP.PLP>
-41.2071

> <Gold.PLP.part.hbond>
-3.0000

> <Gold.PLP.part.metal>
0.0000

> <Gold.PLP.part.buried>
-2.7410

> <Gold.PLP.part.nonpolar>
-35.2025

> <Gold.PLP.part.repulsive>
0.1824

> <Gold.PLP.ligand.clash>
0.0000

> <Gold.PLP.ligand.torsion>
0.6090

> <Gold.PLP.Chemscore.Hbond>
3.0000

> <Gold.PLP.Chemscore.CHOScore>
0.0000

> <Gold.PLP.Chemscore.Metal>
0.0000

> <Gold.Chemscore.Hbonds>
donor molecule, donor type, donor heavy atom, donor atom, acceptor molecule, acceptor atom, score
      L1  H     7    29       P1  7948  0.85
      L1  H    10    30       P1  7948  0.45
      P1  H 10752 10763       L1    14  0.11

> <Gold.PLP.Chemscore.Internal.Correction>
0.0105

> <Gold.Rescore>
     Score         DG    S(hbond)    S(metal)    S(lipo)     H(rot)  DE(clash)    DE(int)     intcor
     17.83     -20.79       2.60        0.00      89.24       1.49       1.30       1.66       ----

> <Gold.Chemscore.Fitness>
17.8266

> <Gold.Chemscore.DG>
-20.7919

> <Gold.Chemscore.ZeroCoef>
-5.4800

> <Gold.Chemscore.Hbond>
2.6039

> <Gold.Chemscore.Metal>
0.0000

> <Gold.Chemscore.Lipo>
89.2378

> <Gold.Chemscore.Internal_Hbond>
0.0000

> <Gold.Chemscore.DEClash>
1.3049

> <Gold.Chemscore.DEInternal>
1.6604

> <Gold.Chemscore.Rot>
1.4946

> <Gold.Chemscore.Internal.Correction>
   9.000000E+99

> <Gold.Chemscore.Hbonds>
donor molecule, donor type, donor heavy atom, donor atom, acceptor molecule, acceptor atom, score
      L1  H     7    29       P1  7948  0.14
      L1  H    10    30       P1  7948  0.02
      P1  H 10752 10763       L1    14  0.09

> <Gold.Chemscore.Hbond.Weighted>
-8.6971

> <Gold.Chemscore.Metal.Weighted>
-0.0000

> <Gold.Chemscore.Lipo.Weighted>
-10.4408

> <Gold.Chemscore.Internal_Hbond.Weighted>
0.0000

> <Gold.Chemscore.DEClash.Weighted>
1.3049

> <Gold.Chemscore.DEInternal.Weighted>
1.6604

> <Gold.Chemscore.Rot.Weighted>
3.8261

> <Gold.Chemscore.Internal.Correction.Weighted>
   9.000000E+99

> <Gold.Protein.RotatedTorsions>
[ 6907 6896 6895 6894 ] final -108.81 input  -60.11 | X-H torsion
[ 7974 7965 7964 7962 ] final   35.02 input  175.53 | X-H torsion
[ 8008 7997 7996 7995 ] final  -46.36 input   59.86 | X-H torsion
[ 10167 10162 10161 10158 ] final -114.82 input  -65.29 | X-H torsion
[ 10718 10713 10712 10709 ] final  -58.20 input   66.30 | X-H torsion
[ 10763 10752 10751 10750 ] final   94.62 input  -60.55 | X-H torsion
[ 11005 11000 10999 10996 ] final  -39.34 input  -57.11 | X-H torsion

> <Gold.Protein.ActiveResidues>
 VAL166  LYS551  ARG553  GLY616  TRP617  ASP618  TYR619  PRO620  LYS621  CYS622 
 ASP623  PHE694  ASN695  SER759  ASP760  ASP761  ALA762  ILE779  LEU786  VAL792 
 PHE793  MET794  SER795  GLU796  ALA797  LYS798  CYS799  TRP800  GLU811  SER814 

> <Gold.Protein.RotatedAtoms>
  150.7524  133.9621  159.3518 H   0  0  0  0  0  0  0  0  0  0  0  0  # atno 6907 bound_to 6896
  151.7548  135.0822  160.0346 H   0  0  0  0  0  0  0  0  0  0  0  0  # atno 6908 bound_to 6896
  152.3442  133.6066  159.5934 H   0  0  0  0  0  0  0  0  0  0  0  0  # atno 6909 bound_to 6896
  146.1312  139.6195  142.9225 H   0  0  0  0  0  0  0  0  0  0  0  0  # atno 7974 bound_to 7965
  154.4007  140.1373  156.3998 H   0  0  0  0  0  0  0  0  0  0  0  0  # atno 8008 bound_to 7997
  155.7835  140.3481  155.5290 H   0  0  0  0  0  0  0  0  0  0  0  0  # atno 8009 bound_to 7997
  155.8650  140.0962  157.1578 H   0  0  0  0  0  0  0  0  0  0  0  0  # atno 8010 bound_to 7997
  140.0968  143.4649  152.1836 H   0  0  0  0  0  0  0  0  0  0  0  0  # atno 10167 bound_to 10162
  156.1153  130.4171  150.0545 H   0  0  0  0  0  0  0  0  0  0  0  0  # atno 10718 bound_to 10713
  153.2437  135.4283  155.0725 H   0  0  0  0  0  0  0  0  0  0  0  0  # atno 10763 bound_to 10752
  154.8352  135.3409  154.6612 H   0  0  0  0  0  0  0  0  0  0  0  0  # atno 10764 bound_to 10752
  153.7035  135.7027  153.5113 H   0  0  0  0  0  0  0  0  0  0  0  0  # atno 10765 bound_to 10752
  141.0095  133.6915  156.2174 H   0  0  0  0  0  0  0  0  0  0  0  0  # atno 11005 bound_to 11000
  145.5256  141.0430  143.2411 LP  0  0  0  0  0  0  0  0  0  0  0  0  # atno 17320 bound_to 7965
  144.7692  139.6773  143.7202 LP  0  0  0  0  0  0  0  0  0  0  0  0  # atno 17321 bound_to 7965
  139.5693  144.7454  151.3934 LP  0  0  0  0  0  0  0  0  0  0  0  0  # atno 17342 bound_to 10162
  140.6999  143.7657  150.7386 LP  0  0  0  0  0  0  0  0  0  0  0  0  # atno 17343 bound_to 10162
  156.8497  130.9454  151.3626 LP  0  0  0  0  0  0  0  0  0  0  0  0  # atno 17370 bound_to 10713
  157.6336  130.8749  149.9318 LP  0  0  0  0  0  0  0  0  0  0  0  0  # atno 17371 bound_to 10713
  140.6757  134.4820  157.5588 LP  0  0  0  0  0  0  0  0  0  0  0  0  # atno 17394 bound_to 11000
  139.9082  134.8403  156.1627 LP  0  0  0  0  0  0  0  0  0  0  0  0  # atno 17395 bound_to 11000

$$$$
