AV-unprocessed.smi:236|AV-procd|sdf|1810|dock2
  -GOLD-   2262020393D 1   1.00000     0.00000
 Structure written by MMmdl.
 58 62  0  0  0  0  0  0  0  0  1 V2000
  143.7999  132.7409  148.5989 C   0  0  0  0  0  0  0  0  0  0  0  0
  144.1304  132.5666  150.0901 C   0  0  1  0  0  0  0  0  0  0  0  0
  145.1294  131.5598  150.2224 O   0  0  0  0  0  0  0  0  0  0  0  0
  145.8948  131.8358  151.3815 C   0  0  0  0  0  0  0  0  0  0  0  0
  146.0587  133.3448  151.3046 C   0  0  0  0  0  0  0  0  0  0  0  0
  144.6808  133.8153  150.8347 C   0  0  1  0  0  0  0  0  0  0  0  0
  144.8614  134.9284  149.9749 O   0  0  0  0  0  0  0  0  0  0  0  0
  143.7340  134.2352  151.9899 C   0  0  0  0  0  0  0  0  0  0  0  0
  144.3691  135.0375  153.0252 N   0  0  0  0  0  0  0  0  0  0  0  0
  144.3570  134.7981  154.3813 C   0  0  0  0  0  0  0  0  0  0  0  0
  145.0037  135.6694  155.1066 N   0  0  0  0  0  0  0  0  0  0  0  0
  145.5171  136.5680  154.1792 C   0  0  0  0  0  0  0  0  0  0  0  0
  146.3099  137.7476  154.2665 C   0  0  0  0  0  0  0  0  0  0  0  0
  146.7651  138.2900  155.4149 N   0  0  0  0  0  0  0  0  0  0  0  0
  146.3800  139.6839  155.5872 C   0  0  0  0  0  0  0  0  0  0  0  0
  147.0740  140.2659  156.8288 C   0  0  0  0  0  0  0  0  0  0  0  0
  146.7690  139.4596  157.9628 O   0  0  0  0  0  0  0  0  0  0  0  0
  147.2351  138.1186  157.8202 C   0  0  1  0  0  0  0  0  0  0  0  0
  146.9257  137.3643  159.1195 C   0  0  0  0  0  0  0  0  0  0  0  0
  147.6967  136.1749  159.1567 O   0  0  0  0  0  0  0  0  0  0  0  0
  148.3596  135.9916  160.3953 C   0  0  0  0  0  0  0  0  0  0  0  0
  147.3303  135.9585  161.5049 C   0  0  0  0  0  0  0  0  0  0  0  0
  147.7079  136.3298  162.9213 C   0  0  0  0  0  0  0  0  0  0  0  0
  147.3996  134.8952  162.5774 C   0  0  0  0  0  0  0  0  0  0  0  0
  146.5275  137.4848  156.6066 C   0  0  0  0  0  0  0  0  0  0  0  0
  146.6223  138.3918  153.1158 N   0  0  0  0  0  0  0  0  0  0  0  0
  146.1952  137.9109  151.9441 C   0  0  0  0  0  0  0  0  0  0  0  0
  145.4540  136.8263  151.7065 N   0  0  0  0  0  0  0  0  0  0  0  0
  145.1319  136.1814  152.8648 C   0  0  0  0  0  0  0  0  0  0  0  0
  143.0285  133.4970  148.4520 H   0  0  0  0  0  0  0  0  0  0  0  0
  143.4320  131.8073  148.1728 H   0  0  0  0  0  0  0  0  0  0  0  0
  144.6801  133.0381  148.0280 H   0  0  0  0  0  0  0  0  0  0  0  0
  143.2390  132.1969  150.5990 H   0  0  0  0  0  0  0  0  0  0  0  0
  145.3411  131.5425  152.2749 H   0  0  0  0  0  0  0  0  0  0  0  0
  146.8474  131.3058  151.3711 H   0  0  0  0  0  0  0  0  0  0  0  0
  146.3961  133.7825  152.2425 H   0  0  0  0  0  0  0  0  0  0  0  0
  146.8174  133.5704  150.5531 H   0  0  0  0  0  0  0  0  0  0  0  0
  145.2116  134.6181  149.1540 H   0  0  0  0  0  0  0  0  0  0  0  0
  142.8918  134.8036  151.5929 H   0  0  0  0  0  0  0  0  0  0  0  0
  143.3044  133.3514  152.4632 H   0  0  0  0  0  0  0  0  0  0  0  0
  143.8445  133.9538  154.8194 H   0  0  0  0  0  0  0  0  0  0  0  0
  146.6526  140.2594  154.7017 H   0  0  0  0  0  0  0  0  0  0  0  0
  145.2977  139.7563  155.7004 H   0  0  0  0  0  0  0  0  0  0  0  0
  148.1543  140.3162  156.6844 H   0  0  0  0  0  0  0  0  0  0  0  0
  146.7287  141.2835  157.0112 H   0  0  0  0  0  0  0  0  0  0  0  0
  148.3139  138.1168  157.6531 H   0  0  0  0  0  0  0  0  0  0  0  0
  147.1356  137.9942  159.9856 H   0  0  0  0  0  0  0  0  0  0  0  0
  145.8673  137.1006  159.1529 H   0  0  0  0  0  0  0  0  0  0  0  0
  148.9087  135.0489  160.3936 H   0  0  0  0  0  0  0  0  0  0  0  0
  149.0735  136.7971  160.5750 H   0  0  0  0  0  0  0  0  0  0  0  0
  146.3278  136.2344  161.1832 H   0  0  0  0  0  0  0  0  0  0  0  0
  148.7467  136.5869  163.1196 H   0  0  0  0  0  0  0  0  0  0  0  0
  146.9726  136.8763  163.5085 H   0  0  0  0  0  0  0  0  0  0  0  0
  146.4590  134.4834  162.9375 H   0  0  0  0  0  0  0  0  0  0  0  0
  148.2332  134.1961  162.5469 H   0  0  0  0  0  0  0  0  0  0  0  0
  145.4574  137.4130  156.8031 H   0  0  0  0  0  0  0  0  0  0  0  0
  146.8956  136.4709  156.4441 H   0  0  0  0  0  0  0  0  0  0  0  0
  146.4881  138.4772  151.0722 H   0  0  0  0  0  0  0  0  0  0  0  0
  1  2  1  0  0  0  0
  1 30  1  0  0  0  0
  1 31  1  0  0  0  0
  1 32  1  0  0  0  0
  2  6  1  0  0  0  0
  2  3  1  0  0  0  0
  2 33  1  0  0  0  0
  3  4  1  0  0  0  0
  4  5  1  0  0  0  0
  4 34  1  0  0  0  0
  4 35  1  0  0  0  0
  5  6  1  0  0  0  0
  5 36  1  0  0  0  0
  5 37  1  0  0  0  0
  6  7  1  0  0  0  0
  6  8  1  0  0  0  0
  7 38  1  0  0  0  0
  8  9  1  0  0  0  0
  8 39  1  0  0  0  0
  8 40  1  0  0  0  0
  9 29  1  0  0  0  0
  9 10  1  0  0  0  0
 10 11  2  0  0  0  0
 10 41  1  0  0  0  0
 11 12  1  0  0  0  0
 12 29  2  0  0  0  0
 12 13  1  0  0  0  0
 13 14  1  0  0  0  0
 13 26  2  0  0  0  0
 14 25  1  0  0  0  0
 14 15  1  0  0  0  0
 15 16  1  0  0  0  0
 15 42  1  0  0  0  0
 15 43  1  0  0  0  0
 16 17  1  0  0  0  0
 16 44  1  0  0  0  0
 16 45  1  0  0  0  0
 17 18  1  0  0  0  0
 18 19  1  0  0  0  0
 18 25  1  0  0  0  0
 18 46  1  0  0  0  0
 19 20  1  0  0  0  0
 19 47  1  0  0  0  0
 19 48  1  0  0  0  0
 20 21  1  0  0  0  0
 21 22  1  0  0  0  0
 21 49  1  0  0  0  0
 21 50  1  0  0  0  0
 22 24  1  0  0  0  0
 22 23  1  0  0  0  0
 22 51  1  0  0  0  0
 23 24  1  0  0  0  0
 23 52  1  0  0  0  0
 23 53  1  0  0  0  0
 24 54  1  0  0  0  0
 24 55  1  0  0  0  0
 25 56  1  0  0  0  0
 25 57  1  0  0  0  0
 26 27  1  0  0  0  0
 27 28  2  0  0  0  0
 27 58  1  0  0  0  0
 28 29  1  0  0  0  0
M  END
> <s_m_source_file>
AV-unprocessed.smi

> <i_m_source_file_index>
236

> <i_lp_mmshare_version>
43012

> <i_f3d_flags>
0

> <s_epik_input>
W0NIMl0xW0NIMl1PW0NAQEhdKFtDSDNdKVtDQEBdMShbT0hdKVtDSDJdbihbY0hdbjIpYyhjMjMpbltjSF1uYzNONFtDSDJdW0NIMl1PW0NASF0oW0NIMl00KVtDSDJdT1tDSDJdW0NIXTVbQ0gyXVtDSDJdNQ==

> <s_epik_cmdline>
J2VwaWtfcHl0aG9uJywgJy1waCcsICc3LjAnLCAnLXRuJywgJzgnLCAnLW1hJywgJzIwMCcsICctbWV0YWxfYmluZGluZycsICctaW1hZScsICc8aW5maWxlLm1hZT4nLCAnLW9tYWUnLCAnPG91dGZpbGUubWFlPic=

> <r_lp_tautomer_probability>
1

> <r_epik_Ionization_Penalty>
7.21838e-05

> <r_epik_Ionization_Penalty_Charging>
0

> <r_epik_Ionization_Penalty_Neutral>
7.21838e-05

> <r_epik_State_Penalty>
-0

> <r_epik_Charging_Adjusted_Penalty>
0

> <i_epik_Tot_Q>
0

> <i_epik_Tot_abs_Q>
0

> <r_epik_Metal_State_Penalty>
-0

> <b_epik_Metal_Only>
0

> <s_lp_Force_Field>
OPLS_2005

> <r_lp_Energy>
50.1764

> <b_lp_Chiralities_Consistent>
1

> <s_lp_Variant>
AV-unprocessed.smi:236-2

> <Gold.Version>
5.8.1

> <Gold.Id.Protein>
6NUR|6NUR_protein|mol2

> <Gold.PLP.Fitness>
45.3418

> <Gold.PLP.PLP>
-40.8590

> <Gold.PLP.part.hbond>
-1.5109

> <Gold.PLP.part.metal>
0.0000

> <Gold.PLP.part.buried>
-6.8586

> <Gold.PLP.part.nonpolar>
-33.4737

> <Gold.PLP.part.repulsive>
1.2578

> <Gold.PLP.ligand.clash>
0.0000

> <Gold.PLP.ligand.torsion>
1.3232

> <Gold.PLP.Chemscore.Hbond>
1.0000

> <Gold.PLP.Chemscore.CHOScore>
1.0375

> <Gold.PLP.Chemscore.Metal>
0.0000

> <Gold.Chemscore.Hbonds>
donor molecule, donor type, donor heavy atom, donor atom, acceptor molecule, acceptor atom, score
      L1  H     7    38       P1  7921  1.00
      L1  C    10    41       P1 10957  1.00
      L1  C    27    58       P1 10171  0.04

> <Gold.PLP.Chemscore.Internal.Correction>
1.0167

> <Gold.Rescore>
     Score         DG    S(hbond)    S(metal)    S(lipo)     H(rot)  DE(clash)    DE(int)     intcor
      7.57     -11.97       0.99        0.00      89.93       2.87       0.02       4.37       ----

> <Gold.Chemscore.Fitness>
7.5746

> <Gold.Chemscore.DG>
-11.9673

> <Gold.Chemscore.ZeroCoef>
-5.4800

> <Gold.Chemscore.Hbond>
0.9883

> <Gold.Chemscore.Metal>
0.0000

> <Gold.Chemscore.Lipo>
89.9337

> <Gold.Chemscore.Internal_Hbond>
0.0000

> <Gold.Chemscore.DEClash>
0.0203

> <Gold.Chemscore.DEInternal>
4.3724

> <Gold.Chemscore.Rot>
2.8655

> <Gold.Chemscore.Internal.Correction>
   9.000000E+99

> <Gold.Chemscore.Hbonds>
donor molecule, donor type, donor heavy atom, donor atom, acceptor molecule, acceptor atom, score
      L1  H     7    38       P1  7921  0.97

> <Gold.Chemscore.Hbond.Weighted>
-3.3009

> <Gold.Chemscore.Metal.Weighted>
-0.0000

> <Gold.Chemscore.Lipo.Weighted>
-10.5222

> <Gold.Chemscore.Internal_Hbond.Weighted>
0.0000

> <Gold.Chemscore.DEClash.Weighted>
0.0203

> <Gold.Chemscore.DEInternal.Weighted>
4.3724

> <Gold.Chemscore.Rot.Weighted>
7.3358

> <Gold.Chemscore.Internal.Correction.Weighted>
   9.000000E+99

> <Gold.Protein.RotatedTorsions>
[ 6907 6896 6895 6894 ] final  -82.80 input  -60.11 | X-H torsion
[ 7974 7965 7964 7962 ] final   32.92 input  175.53 | X-H torsion
[ 8008 7997 7996 7995 ] final  154.66 input   59.86 | X-H torsion
[ 10167 10162 10161 10158 ] final  143.48 input  -65.29 | X-H torsion
[ 10718 10713 10712 10709 ] final   53.60 input   66.30 | X-H torsion
[ 10763 10752 10751 10750 ] final  -27.47 input  -60.55 | X-H torsion
[ 11005 11000 10999 10996 ] final  107.84 input  -57.11 | X-H torsion

> <Gold.Protein.ActiveResidues>
 VAL166  LYS551  ARG553  GLY616  TRP617  ASP618  TYR619  PRO620  LYS621  CYS622 
 ASP623  PHE694  ASN695  SER759  ASP760  ASP761  ALA762  ILE779  LEU786  VAL792 
 PHE793  MET794  SER795  GLU796  ALA797  LYS798  CYS799  TRP800  GLU811  SER814 

> <Gold.Protein.RotatedAtoms>
  150.6893  134.3609  159.4949 H   0  0  0  0  0  0  0  0  0  0  0  0  # atno 6907 bound_to 6896
  152.1438  134.9039  160.0561 H   0  0  0  0  0  0  0  0  0  0  0  0  # atno 6908 bound_to 6896
  152.0163  133.3846  159.4277 H   0  0  0  0  0  0  0  0  0  0  0  0  # atno 6909 bound_to 6896
  146.1455  139.6464  142.9134 H   0  0  0  0  0  0  0  0  0  0  0  0  # atno 7974 bound_to 7965
  156.2519  140.1960  156.6681 H   0  0  0  0  0  0  0  0  0  0  0  0  # atno 8008 bound_to 7997
  154.6413  140.0583  156.9875 H   0  0  0  0  0  0  0  0  0  0  0  0  # atno 8009 bound_to 7997
  155.1558  140.3255  155.4424 H   0  0  0  0  0  0  0  0  0  0  0  0  # atno 8010 bound_to 7997
  139.4968  144.6037  151.6425 H   0  0  0  0  0  0  0  0  0  0  0  0  # atno 10167 bound_to 10162
  157.5182  130.8547  149.8523 H   0  0  0  0  0  0  0  0  0  0  0  0  # atno 10718 bound_to 10713
  153.7327  135.6938  153.4985 H   0  0  0  0  0  0  0  0  0  0  0  0  # atno 10763 bound_to 10752
  153.2124  135.4398  155.0394 H   0  0  0  0  0  0  0  0  0  0  0  0  # atno 10764 bound_to 10752
  154.8247  135.3440  154.6856 H   0  0  0  0  0  0  0  0  0  0  0  0  # atno 10765 bound_to 10752
  139.8834  134.9413  156.5881 H   0  0  0  0  0  0  0  0  0  0  0  0  # atno 11005 bound_to 11000
  145.4948  141.0438  143.2573 LP  0  0  0  0  0  0  0  0  0  0  0  0  # atno 17320 bound_to 7965
  144.7841  139.6464  143.7141 LP  0  0  0  0  0  0  0  0  0  0  0  0  # atno 17321 bound_to 7965
  140.5693  144.0136  150.6208 LP  0  0  0  0  0  0  0  0  0  0  0  0  # atno 17342 bound_to 10162
  140.3248  143.3114  152.0747 LP  0  0  0  0  0  0  0  0  0  0  0  0  # atno 17343 bound_to 10162
  156.0335  130.3758  150.1624 LP  0  0  0  0  0  0  0  0  0  0  0  0  # atno 17370 bound_to 10713
  156.9812  130.9865  151.3437 LP  0  0  0  0  0  0  0  0  0  0  0  0  # atno 17371 bound_to 10713
  140.7976  133.8531  155.8699 LP  0  0  0  0  0  0  0  0  0  0  0  0  # atno 17394 bound_to 11000
  140.9621  134.1642  157.4645 LP  0  0  0  0  0  0  0  0  0  0  0  0  # atno 17395 bound_to 11000

$$$$
