AV-unprocessed.smi:3314|AV-procd|sdf|12736|dock3
  -GOLD-   2272019 83D 1   1.00000     0.00000
 Structure written by MMmdl.
 37 38  0  0  0  0  0  0  0  0  1 V2000
  153.6453  140.8556  159.6648 C   0  0  0  0  0  0  0  0  0  0  0  0
  152.7280  141.9566  159.1753 C   0  0  0  0  0  0  0  0  0  0  0  0
  152.7408  143.2304  159.7752 C   0  0  0  0  0  0  0  0  0  0  0  0
  151.8601  144.2096  159.2748 C   0  0  0  0  0  0  0  0  0  0  0  0
  151.8220  145.6017  159.8696 C   0  0  0  0  0  0  0  0  0  0  0  0
  151.0086  143.9813  158.2522 N   0  0  0  0  0  0  0  0  0  0  0  0
  150.9877  142.7581  157.6671 C   0  0  0  0  0  0  0  0  0  0  0  0
  150.1301  142.4149  156.5890 N   0  0  0  0  0  0  0  0  0  0  0  0
  150.3204  141.4880  155.6313 C   0  0  0  0  0  0  0  0  0  0  0  0
  151.3138  140.7642  155.5481 O   0  0  0  0  0  0  0  0  0  0  0  0
  149.1928  141.3821  154.5977 C   0  0  1  0  0  0  0  0  0  0  0  0
  148.6735  139.9399  154.3999 C   0  0  0  0  0  0  0  0  0  0  0  0
  147.5645  139.8947  153.4559 N   0  0  0  0  0  0  0  0  0  0  0  0
  147.0798  138.5367  153.2619 C   0  0  0  0  0  0  0  0  0  0  0  0
  146.5042  140.7861  153.9075 C   0  0  0  0  0  0  0  0  0  0  0  0
  147.0185  142.2211  154.1162 C   0  0  0  0  0  0  0  0  0  0  0  0
  148.1150  142.2129  155.0261 O   0  0  0  0  0  0  0  0  0  0  0  0
  151.8403  141.7207  158.1064 C   0  0  0  0  0  0  0  0  0  0  0  0
  154.2831  141.2021  160.4786 H   0  0  0  0  0  0  0  0  0  0  0  0
  154.2857  140.5086  158.8536 H   0  0  0  0  0  0  0  0  0  0  0  0
  153.0597  140.0102  160.0265 H   0  0  0  0  0  0  0  0  0  0  0  0
  153.4074  143.4514  160.5963 H   0  0  0  0  0  0  0  0  0  0  0  0
  152.4935  145.6853  160.7245 H   0  0  0  0  0  0  0  0  0  0  0  0
  150.8132  145.8445  160.2049 H   0  0  0  0  0  0  0  0  0  0  0  0
  152.1238  146.3389  159.1252 H   0  0  0  0  0  0  0  0  0  0  0  0
  149.2702  142.9407  156.5328 H   0  0  0  0  0  0  0  0  0  0  0  0
  149.5738  141.7593  153.6466 H   0  0  0  0  0  0  0  0  0  0  0  0
  149.4850  139.3051  154.0416 H   0  0  0  0  0  0  0  0  0  0  0  0
  148.3536  139.5273  155.3587 H   0  0  0  0  0  0  0  0  0  0  0  0
  146.2730  138.5161  152.5286 H   0  0  0  0  0  0  0  0  0  0  0  0
  146.7032  138.1146  154.1947 H   0  0  0  0  0  0  0  0  0  0  0  0
  147.8780  137.8908  152.8947 H   0  0  0  0  0  0  0  0  0  0  0  0
  145.6912  140.7933  153.1805 H   0  0  0  0  0  0  0  0  0  0  0  0
  146.0828  140.4156  154.8433 H   0  0  0  0  0  0  0  0  0  0  0  0
  147.3296  142.6610  153.1677 H   0  0  0  0  0  0  0  0  0  0  0  0
  146.2266  142.8531  154.5186 H   0  0  0  0  0  0  0  0  0  0  0  0
  151.8139  140.7504  157.6317 H   0  0  0  0  0  0  0  0  0  0  0  0
  1  2  1  0  0  0  0
  1 19  1  0  0  0  0
  1 20  1  0  0  0  0
  1 21  1  0  0  0  0
  2 18  1  0  0  0  0
  2  3  2  0  0  0  0
  3  4  1  0  0  0  0
  3 22  1  0  0  0  0
  4  5  1  0  0  0  0
  4  6  2  0  0  0  0
  5 23  1  0  0  0  0
  5 24  1  0  0  0  0
  5 25  1  0  0  0  0
  6  7  1  0  0  0  0
  7  8  1  0  0  0  0
  7 18  2  0  0  0  0
  8  9  1  0  0  0  0
  8 26  1  0  0  0  0
  9 10  2  0  0  0  0
  9 11  1  0  0  0  0
 11 17  1  0  0  0  0
 11 12  1  0  0  0  0
 11 27  1  0  0  0  0
 12 13  1  0  0  0  0
 12 28  1  0  0  0  0
 12 29  1  0  0  0  0
 13 14  1  0  0  0  0
 13 15  1  0  0  0  0
 14 30  1  0  0  0  0
 14 31  1  0  0  0  0
 14 32  1  0  0  0  0
 15 16  1  0  0  0  0
 15 33  1  0  0  0  0
 15 34  1  0  0  0  0
 16 17  1  0  0  0  0
 16 35  1  0  0  0  0
 16 36  1  0  0  0  0
 18 37  1  0  0  0  0
M  END
> <s_m_source_file>
AV-unprocessed.smi

> <i_m_source_file_index>
3314

> <i_lp_mmshare_version>
43012

> <i_f3d_flags>
0

> <s_epik_input>
W0NIM11jMVtjSF1jKFtDSDNdKW5jKFtjSF0xKVtOSF1DKD1PKVtDQEBIXTJbQ0gyXU4oW0NIM10pW0NIMl1bQ0gyXU8y

> <s_epik_cmdline>
J2VwaWtfcHl0aG9uJywgJy1waCcsICc3LjAnLCAnLXRuJywgJzgnLCAnLW1hJywgJzIwMCcsICctbWV0YWxfYmluZGluZycsICctaW1hZScsICc8aW5maWxlLm1hZT4nLCAnLW9tYWUnLCAnPG91dGZpbGUubWFlPic=

> <r_epik_Ionization_Penalty>
0.55509

> <r_epik_Ionization_Penalty_Charging>
0

> <r_epik_Ionization_Penalty_Neutral>
0.55509

> <r_epik_State_Penalty>
0.632277

> <r_epik_Charging_Adjusted_Penalty>
0.632277

> <i_epik_Tot_Q>
0

> <i_epik_Tot_abs_Q>
0

> <r_epik_Metal_State_Penalty>
0.606221

> <b_epik_Metal_Only>
0

> <s_lp_Force_Field>
OPLS_2005

> <r_lp_Energy>
21.1919

> <b_lp_Chiralities_Consistent>
1

> <s_lp_Variant>
AV-unprocessed.smi:3314-6

> <Gold.Version>
5.8.1

> <Gold.Id.Protein>
6NUR|6NUR_protein|mol2

> <Gold.PLP.Fitness>
41.7415

> <Gold.PLP.PLP>
-38.3025

> <Gold.PLP.part.hbond>
-2.0000

> <Gold.PLP.part.metal>
0.0000

> <Gold.PLP.part.buried>
-4.9580

> <Gold.PLP.part.nonpolar>
-34.3281

> <Gold.PLP.part.repulsive>
3.7772

> <Gold.PLP.ligand.clash>
0.0000

> <Gold.PLP.ligand.torsion>
0.2689

> <Gold.PLP.Chemscore.Hbond>
1.3249

> <Gold.PLP.Chemscore.CHOScore>
0.0000

> <Gold.PLP.Chemscore.Metal>
0.0000

> <Gold.Chemscore.Hbonds>
donor molecule, donor type, donor heavy atom, donor atom, acceptor molecule, acceptor atom, score
      L1  H     8    26       P1  8028  0.61
      P1  H  7989  7998       L1    10  0.64

> <Gold.PLP.Chemscore.Internal.Correction>
0.0020

> <Gold.Rescore>
     Score         DG    S(hbond)    S(metal)    S(lipo)     H(rot)  DE(clash)    DE(int)     intcor
     14.46     -17.59       0.95        0.00      98.28       1.00       1.44       1.68       ----

> <Gold.Chemscore.Fitness>
14.4631

> <Gold.Chemscore.DG>
-17.5882

> <Gold.Chemscore.ZeroCoef>
-5.4800

> <Gold.Chemscore.Hbond>
0.9491

> <Gold.Chemscore.Metal>
0.0000

> <Gold.Chemscore.Lipo>
98.2757

> <Gold.Chemscore.Internal_Hbond>
0.0000

> <Gold.Chemscore.DEClash>
1.4429

> <Gold.Chemscore.DEInternal>
1.6822

> <Gold.Chemscore.Rot>
1.0000

> <Gold.Chemscore.Internal.Correction>
   9.000000E+99

> <Gold.Chemscore.Hbonds>
donor molecule, donor type, donor heavy atom, donor atom, acceptor molecule, acceptor atom, score
      L1  H     8    26       P1  8028  0.59
      P1  H  7989  7998       L1    10  0.14

> <Gold.Chemscore.Hbond.Weighted>
-3.1700

> <Gold.Chemscore.Metal.Weighted>
-0.0000

> <Gold.Chemscore.Lipo.Weighted>
-11.4983

> <Gold.Chemscore.Internal_Hbond.Weighted>
0.0000

> <Gold.Chemscore.DEClash.Weighted>
1.4429

> <Gold.Chemscore.DEInternal.Weighted>
1.6822

> <Gold.Chemscore.Rot.Weighted>
2.5600

> <Gold.Chemscore.Internal.Correction.Weighted>
   9.000000E+99

> <Gold.Protein.RotatedTorsions>
[ 6907 6896 6895 6894 ] final   26.79 input  -60.11 | X-H torsion
[ 7974 7965 7964 7962 ] final   88.68 input  175.53 | X-H torsion
[ 8008 7997 7996 7995 ] final -169.10 input   59.86 | X-H torsion
[ 10167 10162 10161 10158 ] final  154.27 input  -65.29 | X-H torsion
[ 10718 10713 10712 10709 ] final   61.75 input   66.30 | X-H torsion
[ 10763 10752 10751 10750 ] final  -11.73 input  -60.55 | X-H torsion
[ 11005 11000 10999 10996 ] final -124.94 input  -57.11 | X-H torsion

> <Gold.Protein.ActiveResidues>
 VAL166  LYS551  ARG553  GLY616  TRP617  ASP618  TYR619  PRO620  LYS621  CYS622 
 ASP623  PHE694  ASN695  SER759  ASP760  ASP761  ALA762  ILE779  LEU786  VAL792 
 PHE793  MET794  SER795  GLU796  ALA797  LYS798  CYS799  TRP800  GLU811  SER814 

> <Gold.Protein.RotatedAtoms>
  151.9928  134.9970  160.0561 H   0  0  0  0  0  0  0  0  0  0  0  0  # atno 6907 bound_to 6896
  152.1593  133.4566  159.4861 H   0  0  0  0  0  0  0  0  0  0  0  0  # atno 6908 bound_to 6896
  150.6885  134.2010  159.4365 H   0  0  0  0  0  0  0  0  0  0  0  0  # atno 6909 bound_to 6896
  145.5424  139.2289  143.2558 H   0  0  0  0  0  0  0  0  0  0  0  0  # atno 7974 bound_to 7965
  155.9004  140.1040  157.1354 H   0  0  0  0  0  0  0  0  0  0  0  0  # atno 8008 bound_to 7997
  154.4025  140.1293  156.4493 H   0  0  0  0  0  0  0  0  0  0  0  0  # atno 8009 bound_to 7997
  155.7429  140.3466  155.5115 H   0  0  0  0  0  0  0  0  0  0  0  0  # atno 8010 bound_to 7997
  139.4824  144.5201  151.7890 H   0  0  0  0  0  0  0  0  0  0  0  0  # atno 10167 bound_to 10162
  157.5851  130.9012  149.9501 H   0  0  0  0  0  0  0  0  0  0  0  0  # atno 10718 bound_to 10713
  153.4880  135.7017  153.5900 H   0  0  0  0  0  0  0  0  0  0  0  0  # atno 10763 bound_to 10752
  153.4085  135.3854  155.2034 H   0  0  0  0  0  0  0  0  0  0  0  0  # atno 10764 bound_to 10752
  154.8718  135.3898  154.4337 H   0  0  0  0  0  0  0  0  0  0  0  0  # atno 10765 bound_to 10752
  140.9802  134.0684  157.3774 H   0  0  0  0  0  0  0  0  0  0  0  0  # atno 11005 bound_to 11000
  146.1972  140.6245  142.9119 LP  0  0  0  0  0  0  0  0  0  0  0  0  # atno 17320 bound_to 7965
  144.7570  140.5331  143.6762 LP  0  0  0  0  0  0  0  0  0  0  0  0  # atno 17321 bound_to 7965
  140.4714  144.1581  150.5918 LP  0  0  0  0  0  0  0  0  0  0  0  0  # atno 17342 bound_to 10162
  140.4378  143.2539  151.9512 LP  0  0  0  0  0  0  0  0  0  0  0  0  # atno 17343 bound_to 10162
  156.0899  130.3664  150.0414 LP  0  0  0  0  0  0  0  0  0  0  0  0  # atno 17370 bound_to 10713
  156.8547  130.9471  151.3623 LP  0  0  0  0  0  0  0  0  0  0  0  0  # atno 17371 bound_to 10713
  139.8947  135.0137  156.6964 LP  0  0  0  0  0  0  0  0  0  0  0  0  # atno 17394 bound_to 11000
  140.7198  133.9150  155.8139 LP  0  0  0  0  0  0  0  0  0  0  0  0  # atno 17395 bound_to 11000

$$$$
