AV-unprocessed.smi:1266|AV-procd|sdf|5321|dock8
  -GOLD-   22720 4443D 1   1.00000     0.00000
 Structure written by MMmdl.
 40 41  0  0  0  0  0  0  0  0  3 V2000
  150.8152  140.6260  155.2250 O   0  0  0  0  0  0  0  0  0  0  0  0
  150.0169  141.5586  155.3268 C   0  0  0  0  0  0  0  0  0  0  0  0
  148.7858  141.6477  154.4135 C   0  0  0  0  0  0  0  0  0  0  0  0
  147.8789  140.4936  154.5347 N   0  0  0  0  0  0  0  0  0  0  0  0
  147.5184  139.8354  153.3422 C   0  0  0  0  0  0  0  0  0  0  0  0
  146.6959  138.7681  153.3336 C   0  0  0  0  0  0  0  0  0  0  0  0
  146.3326  138.1076  152.0990 N   0  3  0  0  0  0  0  0  0  0  0  0
  146.7914  138.5366  151.0452 O   0  0  0  0  0  0  0  0  0  0  0  0
  145.5776  137.1406  152.1405 O   0  5  0  0  0  0  0  0  0  0  0  0
  146.1820  138.3031  154.6074 C   0  0  0  0  0  0  0  0  0  0  0  0
  146.5181  138.9320  155.7508 C   0  0  0  0  0  0  0  0  0  0  0  0
  147.4085  140.0973  155.7570 C   0  0  0  0  0  0  0  0  0  0  0  0
  147.7134  140.6807  156.7973 O   0  0  0  0  0  0  0  0  0  0  0  0
  150.1461  142.5436  156.2291 N   0  0  0  0  0  0  0  0  0  0  0  0
  151.2294  142.6719  157.2012 C   0  0  0  0  0  0  0  0  0  0  0  0
  150.7830  142.0238  158.5288 C   0  0  0  0  0  0  0  0  0  0  0  0
  151.9432  141.7900  159.5115 C   0  0  0  0  0  0  0  0  0  0  0  0
  152.2831  142.9738  160.4342 C   0  0  0  0  0  0  0  0  0  0  0  0
  152.2315  144.3754  159.8017 C   0  0  0  0  0  0  0  0  0  0  0  0
  152.7292  144.4608  158.3501 C   0  0  0  0  0  0  0  0  0  0  0  0
  151.6246  144.1581  157.3233 C   0  0  0  0  0  0  0  0  0  0  0  0
  148.2572  142.5736  154.6450 H   0  0  0  0  0  0  0  0  0  0  0  0
  149.1152  141.7601  153.3788 H   0  0  0  0  0  0  0  0  0  0  0  0
  147.9486  140.2622  152.4475 H   0  0  0  0  0  0  0  0  0  0  0  0
  145.5241  137.4477  154.6539 H   0  0  0  0  0  0  0  0  0  0  0  0
  146.1233  138.5694  156.6885 H   0  0  0  0  0  0  0  0  0  0  0  0
  149.4409  143.2662  156.2415 H   0  0  0  0  0  0  0  0  0  0  0  0
  152.0910  142.1133  156.8304 H   0  0  0  0  0  0  0  0  0  0  0  0
  149.9846  142.5982  159.0004 H   0  0  0  0  0  0  0  0  0  0  0  0
  150.3508  141.0485  158.3001 H   0  0  0  0  0  0  0  0  0  0  0  0
  151.7017  140.9352  160.1443 H   0  0  0  0  0  0  0  0  0  0  0  0
  152.8333  141.4898  158.9574 H   0  0  0  0  0  0  0  0  0  0  0  0
  151.6100  142.9638  161.2920 H   0  0  0  0  0  0  0  0  0  0  0  0
  153.2795  142.8053  160.8449 H   0  0  0  0  0  0  0  0  0  0  0  0
  151.2142  144.7644  159.8588 H   0  0  0  0  0  0  0  0  0  0  0  0
  152.8281  145.0453  160.4219 H   0  0  0  0  0  0  0  0  0  0  0  0
  153.0705  145.4813  158.1729 H   0  0  0  0  0  0  0  0  0  0  0  0
  153.6010  143.8246  158.1929 H   0  0  0  0  0  0  0  0  0  0  0  0
  151.9697  144.5042  156.3482 H   0  0  0  0  0  0  0  0  0  0  0  0
  150.7433  144.7600  157.5499 H   0  0  0  0  0  0  0  0  0  0  0  0
  1  2  2  0  0  0  0
  2  3  1  0  0  0  0
  2 14  1  0  0  0  0
  3  4  1  0  0  0  0
  3 22  1  0  0  0  0
  3 23  1  0  0  0  0
  4 12  1  0  0  0  0
  4  5  1  0  0  0  0
  5  6  2  0  0  0  0
  5 24  1  0  0  0  0
  6  7  1  0  0  0  0
  6 10  1  0  0  0  0
  7  8  2  0  0  0  0
  7  9  1  0  0  0  0
 10 11  2  0  0  0  0
 10 25  1  0  0  0  0
 11 12  1  0  0  0  0
 11 26  1  0  0  0  0
 12 13  2  0  0  0  0
 14 15  1  0  0  0  0
 14 27  1  0  0  0  0
 15 21  1  0  0  0  0
 15 16  1  0  0  0  0
 15 28  1  0  0  0  0
 16 17  1  0  0  0  0
 16 29  1  0  0  0  0
 16 30  1  0  0  0  0
 17 18  1  0  0  0  0
 17 31  1  0  0  0  0
 17 32  1  0  0  0  0
 18 19  1  0  0  0  0
 18 33  1  0  0  0  0
 18 34  1  0  0  0  0
 19 20  1  0  0  0  0
 19 35  1  0  0  0  0
 19 36  1  0  0  0  0
 20 21  1  0  0  0  0
 20 37  1  0  0  0  0
 20 38  1  0  0  0  0
 21 39  1  0  0  0  0
 21 40  1  0  0  0  0
M  CHG  1   7   1
M  CHG  1   9  -1
M  END
> <s_m_source_file>
AV-unprocessed.smi

> <i_m_source_file_index>
1266

> <i_lp_mmshare_version>
43012

> <i_f3d_flags>
0

> <s_epik_input>
W0NIMl0xW0NIMl1bQ0gyXVtDSDJdW0NIMl1bQ0gyXVtDSF0xW05IXUMoPU8pW0NIMl1uMltjSF1jKFtOK10oPU8pW08tXSlbY0hdW2NIXWMyPU8=

> <s_epik_cmdline>
J2VwaWtfcHl0aG9uJywgJy1waCcsICc3LjAnLCAnLXRuJywgJzgnLCAnLW1hJywgJzIwMCcsICctbWV0YWxfYmluZGluZycsICctaW1hZScsICc8aW5maWxlLm1hZT4nLCAnLW9tYWUnLCAnPG91dGZpbGUubWFlPic=

> <r_lp_tautomer_probability>
1

> <r_epik_Ionization_Penalty>
2.02954e-08

> <r_epik_Ionization_Penalty_Charging>
8.05481e-11

> <r_epik_Ionization_Penalty_Neutral>
2.02148e-08

> <r_epik_State_Penalty>
-0

> <r_epik_Charging_Adjusted_Penalty>
8.05481e-11

> <i_epik_Tot_Q>
0

> <i_epik_Tot_abs_Q>
2

> <r_epik_Metal_State_Penalty>
-0

> <b_epik_Metal_Only>
0

> <s_lp_Force_Field>
OPLS_2005

> <r_lp_Energy>
25.8216

> <b_lp_Chiralities_Consistent>
1

> <s_lp_Variant>
AV-unprocessed.smi:1266-1

> <Gold.Version>
5.8.1

> <Gold.Id.Protein>
6NUR|6NUR_protein|mol2

> <Gold.PLP.Fitness>
51.4688

> <Gold.PLP.PLP>
-40.4943

> <Gold.PLP.part.hbond>
-3.0000

> <Gold.PLP.part.metal>
0.0000

> <Gold.PLP.part.buried>
-2.7591

> <Gold.PLP.part.nonpolar>
-35.3868

> <Gold.PLP.part.repulsive>
0.8158

> <Gold.PLP.ligand.clash>
0.0000

> <Gold.PLP.ligand.torsion>
0.3803

> <Gold.PLP.Chemscore.Hbond>
2.9040

> <Gold.PLP.Chemscore.CHOScore>
1.0000

> <Gold.PLP.Chemscore.Metal>
0.0000

> <Gold.Chemscore.Hbonds>
donor molecule, donor type, donor heavy atom, donor atom, acceptor molecule, acceptor atom, score
      L1  H    14    27       P1  8028  0.98
      P1  H  7954  7966       L1     8  1.00
      P1  H  7989  7998       L1     1  0.93
      L1  C     5    24       P1  7957  1.00

> <Gold.PLP.Chemscore.Internal.Correction>
0.0231

> <Gold.Rescore>
     Score         DG    S(hbond)    S(metal)    S(lipo)     H(rot)  DE(clash)    DE(int)     intcor
     19.06     -20.91       2.33        0.00      99.33       1.55       0.21       1.63       ----

> <Gold.Chemscore.Fitness>
19.0621

> <Gold.Chemscore.DG>
-20.9055

> <Gold.Chemscore.ZeroCoef>
-5.4800

> <Gold.Chemscore.Hbond>
2.3273

> <Gold.Chemscore.Metal>
0.0000

> <Gold.Chemscore.Lipo>
99.3289

> <Gold.Chemscore.Internal_Hbond>
0.0000

> <Gold.Chemscore.DEClash>
0.2136

> <Gold.Chemscore.DEInternal>
1.6298

> <Gold.Chemscore.Rot>
1.5505

> <Gold.Chemscore.Internal.Correction>
   9.000000E+99

> <Gold.Chemscore.Hbonds>
donor molecule, donor type, donor heavy atom, donor atom, acceptor molecule, acceptor atom, score
      L1  H    14    27       P1  8028  0.93
      P1  H  7954  7966       L1     8  0.96
      P1  H  7989  7998       L1     1  0.40

> <Gold.Chemscore.Hbond.Weighted>
-7.7732

> <Gold.Chemscore.Metal.Weighted>
-0.0000

> <Gold.Chemscore.Lipo.Weighted>
-11.6215

> <Gold.Chemscore.Internal_Hbond.Weighted>
0.0000

> <Gold.Chemscore.DEClash.Weighted>
0.2136

> <Gold.Chemscore.DEInternal.Weighted>
1.6298

> <Gold.Chemscore.Rot.Weighted>
3.9692

> <Gold.Chemscore.Internal.Correction.Weighted>
   9.000000E+99

> <Gold.Protein.RotatedTorsions>
[ 6907 6896 6895 6894 ] final  148.13 input  -60.11 | X-H torsion
[ 7974 7965 7964 7962 ] final   34.11 input  175.53 | X-H torsion
[ 8008 7997 7996 7995 ] final -140.87 input   59.86 | X-H torsion
[ 10167 10162 10161 10158 ] final   99.98 input  -65.29 | X-H torsion
[ 10718 10713 10712 10709 ] final -159.08 input   66.30 | X-H torsion
[ 10763 10752 10751 10750 ] final  -38.17 input  -60.55 | X-H torsion
[ 11005 11000 10999 10996 ] final    3.23 input  -57.11 | X-H torsion

> <Gold.Protein.ActiveResidues>
 VAL166  LYS551  ARG553  GLY616  TRP617  ASP618  TYR619  PRO620  LYS621  CYS622 
 ASP623  PHE694  ASN695  SER759  ASP760  ASP761  ALA762  ILE779  LEU786  VAL792 
 PHE793  MET794  SER795  GLU796  ALA797  LYS798  CYS799  TRP800  GLU811  SER814 

> <Gold.Protein.RotatedAtoms>
  152.1456  133.4490  159.4787 H   0  0  0  0  0  0  0  0  0  0  0  0  # atno 6907 bound_to 6896
  150.6890  134.2252  159.4422 H   0  0  0  0  0  0  0  0  0  0  0  0  # atno 6908 bound_to 6896
  152.0146  134.9857  160.0619 H   0  0  0  0  0  0  0  0  0  0  0  0  # atno 6909 bound_to 6896
  146.1375  139.6311  142.9185 H   0  0  0  0  0  0  0  0  0  0  0  0  # atno 7974 bound_to 7965
  155.4685  140.0551  157.2982 H   0  0  0  0  0  0  0  0  0  0  0  0  # atno 8008 bound_to 7997
  154.4708  140.2039  155.9954 H   0  0  0  0  0  0  0  0  0  0  0  0  # atno 8009 bound_to 7997
  156.1052  140.3213  155.8001 H   0  0  0  0  0  0  0  0  0  0  0  0  # atno 8010 bound_to 7997
  139.7568  144.6967  151.0350 H   0  0  0  0  0  0  0  0  0  0  0  0  # atno 10167 bound_to 10162
  156.5631  130.8656  151.2815 H   0  0  0  0  0  0  0  0  0  0  0  0  # atno 10718 bound_to 10713
  153.9084  135.6795  153.4752 H   0  0  0  0  0  0  0  0  0  0  0  0  # atno 10763 bound_to 10752
  153.1092  135.4791  154.9002 H   0  0  0  0  0  0  0  0  0  0  0  0  # atno 10764 bound_to 10752
  154.7540  135.3192  154.8460 H   0  0  0  0  0  0  0  0  0  0  0  0  # atno 10765 bound_to 10752
  140.5955  133.9884  155.8108 H   0  0  0  0  0  0  0  0  0  0  0  0  # atno 11005 bound_to 11000
  145.5123  141.0435  143.2481 LP  0  0  0  0  0  0  0  0  0  0  0  0  # atno 17320 bound_to 7965
  144.7756  139.6638  143.7176 LP  0  0  0  0  0  0  0  0  0  0  0  0  # atno 17321 bound_to 7965
  140.7803  143.4743  151.0103 LP  0  0  0  0  0  0  0  0  0  0  0  0  # atno 17342 bound_to 10162
  139.8430  143.7538  152.3180 LP  0  0  0  0  0  0  0  0  0  0  0  0  # atno 17343 bound_to 10162
  157.7364  130.9778  150.2135 LP  0  0  0  0  0  0  0  0  0  0  0  0  # atno 17370 bound_to 10713
  156.2781  130.3730  149.7963 LP  0  0  0  0  0  0  0  0  0  0  0  0  # atno 17371 bound_to 10713
  141.0907  133.9921  157.3242 LP  0  0  0  0  0  0  0  0  0  0  0  0  # atno 17394 bound_to 11000
  139.9255  135.0201  156.8219 LP  0  0  0  0  0  0  0  0  0  0  0  0  # atno 17395 bound_to 11000

$$$$
