AV-unprocessed.smi:3343|AV-procd|sdf|12893|dock10
  -GOLD-   2272019303D 1   1.00000     0.00000
 Structure written by MMmdl.
 41 42  0  0  0  0  0  0  0  0  1 V2000
  147.4475  142.0246  154.5825 C   0  0  0  0  0  0  0  0  0  0  0  0
  148.4743  141.0691  153.9410 C   0  0  2  0  0  0  0  0  0  0  0  0
  147.8604  139.7280  153.5066 C   0  0  0  0  0  0  0  0  0  0  0  0
  148.2756  138.6634  153.9658 O   0  0  0  0  0  0  0  0  0  0  0  0
  146.8826  139.8012  152.5907 N   0  0  0  0  0  0  0  0  0  0  0  0
  146.2913  138.6645  151.8962 C   0  0  0  0  0  0  0  0  0  0  0  0
  145.7509  137.6331  152.9035 C   0  0  0  0  0  0  0  0  0  0  0  0
  145.4714  136.3044  152.3561 N   0  0  0  0  0  0  0  0  0  0  0  0
  144.5925  135.5499  153.2515 C   0  0  0  0  0  0  0  0  0  0  0  0
  144.2927  134.1416  152.7051 C   0  0  0  0  0  0  0  0  0  0  0  0
  143.6627  134.2067  151.3887 N   0  0  0  0  0  0  0  0  0  0  0  0
  143.3648  132.8802  150.8712 C   0  0  0  0  0  0  0  0  0  0  0  0
  144.5352  134.9519  150.4850 C   0  0  0  0  0  0  0  0  0  0  0  0
  144.8432  136.3577  151.0316 C   0  0  0  0  0  0  0  0  0  0  0  0
  149.6203  140.8312  154.8126 N   0  0  0  0  0  0  0  0  0  0  0  0
  149.9549  141.4108  155.9678 C   0  0  0  0  0  0  0  0  0  0  0  0
  151.1106  140.9937  156.4656 N   0  0  0  0  0  0  0  0  0  0  0  0
  151.4663  140.0987  155.4969 C   0  0  0  0  0  0  0  0  0  0  0  0
  150.6148  139.9702  154.4797 N   0  0  0  0  0  0  0  0  0  0  0  0
  146.6286  142.2403  153.8957 H   0  0  0  0  0  0  0  0  0  0  0  0
  147.9129  142.9754  154.8434 H   0  0  0  0  0  0  0  0  0  0  0  0
  147.0140  141.6092  155.4933 H   0  0  0  0  0  0  0  0  0  0  0  0
  148.8515  141.5556  153.0399 H   0  0  0  0  0  0  0  0  0  0  0  0
  146.5931  140.7178  152.2827 H   0  0  0  0  0  0  0  0  0  0  0  0
  145.5072  138.9637  151.1982 H   0  0  0  0  0  0  0  0  0  0  0  0
  147.0812  138.2071  151.2994 H   0  0  0  0  0  0  0  0  0  0  0  0
  146.5119  137.5219  153.6770 H   0  0  0  0  0  0  0  0  0  0  0  0
  144.8710  138.0265  153.4157 H   0  0  0  0  0  0  0  0  0  0  0  0
  145.0573  135.4593  154.2339 H   0  0  0  0  0  0  0  0  0  0  0  0
  143.6561  136.0903  153.3985 H   0  0  0  0  0  0  0  0  0  0  0  0
  145.2174  133.5647  152.6504 H   0  0  0  0  0  0  0  0  0  0  0  0
  143.6377  133.6163  153.4010 H   0  0  0  0  0  0  0  0  0  0  0  0
  142.8756  132.9469  149.8990 H   0  0  0  0  0  0  0  0  0  0  0  0
  142.6947  132.3446  151.5444 H   0  0  0  0  0  0  0  0  0  0  0  0
  144.2739  132.2887  150.7544 H   0  0  0  0  0  0  0  0  0  0  0  0
  145.4682  134.4076  150.3309 H   0  0  0  0  0  0  0  0  0  0  0  0
  144.0615  135.0424  149.5068 H   0  0  0  0  0  0  0  0  0  0  0  0
  143.9251  136.9457  151.0747 H   0  0  0  0  0  0  0  0  0  0  0  0
  145.5037  136.8550  150.3233 H   0  0  0  0  0  0  0  0  0  0  0  0
  149.3459  142.1620  156.4491 H   0  0  0  0  0  0  0  0  0  0  0  0
  152.3841  139.5308  155.5382 H   0  0  0  0  0  0  0  0  0  0  0  0
  1  2  1  0  0  0  0
  1 20  1  0  0  0  0
  1 21  1  0  0  0  0
  1 22  1  0  0  0  0
  2  3  1  0  0  0  0
  2 15  1  0  0  0  0
  2 23  1  0  0  0  0
  3  4  2  0  0  0  0
  3  5  1  0  0  0  0
  5  6  1  0  0  0  0
  5 24  1  0  0  0  0
  6  7  1  0  0  0  0
  6 25  1  0  0  0  0
  6 26  1  0  0  0  0
  7  8  1  0  0  0  0
  7 27  1  0  0  0  0
  7 28  1  0  0  0  0
  8 14  1  0  0  0  0
  8  9  1  0  0  0  0
  9 10  1  0  0  0  0
  9 29  1  0  0  0  0
  9 30  1  0  0  0  0
 10 11  1  0  0  0  0
 10 31  1  0  0  0  0
 10 32  1  0  0  0  0
 11 12  1  0  0  0  0
 11 13  1  0  0  0  0
 12 33  1  0  0  0  0
 12 34  1  0  0  0  0
 12 35  1  0  0  0  0
 13 14  1  0  0  0  0
 13 36  1  0  0  0  0
 13 37  1  0  0  0  0
 14 38  1  0  0  0  0
 14 39  1  0  0  0  0
 15 19  1  0  0  0  0
 15 16  1  0  0  0  0
 16 17  2  0  0  0  0
 16 40  1  0  0  0  0
 17 18  1  0  0  0  0
 18 19  2  0  0  0  0
 18 41  1  0  0  0  0
M  END
> <s_m_source_file>
AV-unprocessed.smi

> <i_m_source_file_index>
3343

> <i_lp_mmshare_version>
43012

> <i_f3d_flags>
0

> <s_epik_input>
bjFbY0hdbltjSF1uMVtDQEhdKFtDSDNdKUMoPU8pW05IXVtDSDJdW0NIMl1OMltDSDJdW0NIMl1OKFtDSDNdKVtDSDJdW0NIMl0y

> <s_epik_cmdline>
J2VwaWtfcHl0aG9uJywgJy1waCcsICc3LjAnLCAnLXRuJywgJzgnLCAnLW1hJywgJzIwMCcsICctbWV0YWxfYmluZGluZycsICctaW1hZScsICc8aW5maWxlLm1hZT4nLCAnLW9tYWUnLCAnPG91dGZpbGUubWFlPic=

> <r_lp_tautomer_probability>
1

> <r_epik_Ionization_Penalty>
1.97295

> <r_epik_Ionization_Penalty_Charging>
0

> <r_epik_Ionization_Penalty_Neutral>
1.97295

> <r_epik_State_Penalty>
1.8027

> <r_epik_Charging_Adjusted_Penalty>
1.8027

> <i_epik_Tot_Q>
0

> <i_epik_Tot_abs_Q>
0

> <r_epik_Metal_State_Penalty>
1.8027

> <b_epik_Metal_Only>
0

> <s_lp_Force_Field>
OPLS_2005

> <r_lp_Energy>
39.2202

> <b_lp_Chiralities_Consistent>
1

> <s_lp_Variant>
AV-unprocessed.smi:3343-3

> <Gold.Version>
5.8.1

> <Gold.Id.Protein>
6NUR|6NUR_protein|mol2

> <Gold.PLP.Fitness>
37.8054

> <Gold.PLP.PLP>
-32.6035

> <Gold.PLP.part.hbond>
-2.0000

> <Gold.PLP.part.metal>
0.0000

> <Gold.PLP.part.buried>
-0.5348

> <Gold.PLP.part.nonpolar>
-30.7975

> <Gold.PLP.part.repulsive>
0.6310

> <Gold.PLP.ligand.clash>
0.0000

> <Gold.PLP.ligand.torsion>
0.4453

> <Gold.PLP.Chemscore.Hbond>
1.0000

> <Gold.PLP.Chemscore.CHOScore>
0.9882

> <Gold.PLP.Chemscore.Metal>
0.0000

> <Gold.Chemscore.Hbonds>
donor molecule, donor type, donor heavy atom, donor atom, acceptor molecule, acceptor atom, score
      P1  H  7989  7998       L1    19  0.55
      L1  C    16    40       P1  8028  0.52

> <Gold.PLP.Chemscore.Internal.Correction>
0.1277

> <Gold.Rescore>
     Score         DG    S(hbond)    S(metal)    S(lipo)     H(rot)  DE(clash)    DE(int)     intcor
      4.40      -7.67       0.75        0.00      53.15       2.56       0.14       3.13       ----

> <Gold.Chemscore.Fitness>
4.3969

> <Gold.Chemscore.DG>
-7.6696

> <Gold.Chemscore.ZeroCoef>
-5.4800

> <Gold.Chemscore.Hbond>
0.7541

> <Gold.Chemscore.Metal>
0.0000

> <Gold.Chemscore.Lipo>
53.1511

> <Gold.Chemscore.Internal_Hbond>
0.0000

> <Gold.Chemscore.DEClash>
0.1416

> <Gold.Chemscore.DEInternal>
3.1310

> <Gold.Chemscore.Rot>
2.5577

> <Gold.Chemscore.Internal.Correction>
   9.000000E+99

> <Gold.Chemscore.Hbonds>
donor molecule, donor type, donor heavy atom, donor atom, acceptor molecule, acceptor atom, score
      P1  H  7989  7998       L1    19  0.01

> <Gold.Chemscore.Hbond.Weighted>
-2.5186

> <Gold.Chemscore.Metal.Weighted>
-0.0000

> <Gold.Chemscore.Lipo.Weighted>
-6.2187

> <Gold.Chemscore.Internal_Hbond.Weighted>
0.0000

> <Gold.Chemscore.DEClash.Weighted>
0.1416

> <Gold.Chemscore.DEInternal.Weighted>
3.1310

> <Gold.Chemscore.Rot.Weighted>
6.5477

> <Gold.Chemscore.Internal.Correction.Weighted>
   9.000000E+99

> <Gold.Protein.RotatedTorsions>
[ 6907 6896 6895 6894 ] final   64.27 input  -60.11 | X-H torsion
[ 7974 7965 7964 7962 ] final  -67.45 input  175.53 | X-H torsion
[ 8008 7997 7996 7995 ] final  130.08 input   59.86 | X-H torsion
[ 10167 10162 10161 10158 ] final -152.19 input  -65.29 | X-H torsion
[ 10718 10713 10712 10709 ] final  -54.87 input   66.30 | X-H torsion
[ 10763 10752 10751 10750 ] final  -32.77 input  -60.55 | X-H torsion
[ 11005 11000 10999 10996 ] final -149.77 input  -57.11 | X-H torsion

> <Gold.Protein.ActiveResidues>
 VAL166  LYS551  ARG553  GLY616  TRP617  ASP618  TYR619  PRO620  LYS621  CYS622 
 ASP623  PHE694  ASN695  SER759  ASP760  ASP761  ALA762  ILE779  LEU786  VAL792 
 PHE793  MET794  SER795  GLU796  ALA797  LYS798  CYS799  TRP800  GLU811  SER814 

> <Gold.Protein.RotatedAtoms>
  152.4318  134.5763  159.9935 H   0  0  0  0  0  0  0  0  0  0  0  0  # atno 6907 bound_to 6896
  151.5884  133.3363  159.3030 H   0  0  0  0  0  0  0  0  0  0  0  0  # atno 6908 bound_to 6896
  150.8212  134.7456  159.6838 H   0  0  0  0  0  0  0  0  0  0  0  0  # atno 6909 bound_to 6896
  145.7291  140.9005  143.0590 H   0  0  0  0  0  0  0  0  0  0  0  0  # atno 7974 bound_to 7965
  156.2948  140.2604  156.2704 H   0  0  0  0  0  0  0  0  0  0  0  0  # atno 8008 bound_to 7997
  154.9701  140.0391  157.2249 H   0  0  0  0  0  0  0  0  0  0  0  0  # atno 8009 bound_to 7997
  154.7867  140.2804  155.6027 H   0  0  0  0  0  0  0  0  0  0  0  0  # atno 8010 bound_to 7997
  139.7203  143.8968  152.2501 H   0  0  0  0  0  0  0  0  0  0  0  0  # atno 10167 bound_to 10162
  156.1415  130.4154  150.0095 H   0  0  0  0  0  0  0  0  0  0  0  0  # atno 10718 bound_to 10713
  153.8193  135.6875  153.4829 H   0  0  0  0  0  0  0  0  0  0  0  0  # atno 10763 bound_to 10752
  153.1579  135.4591  154.9729 H   0  0  0  0  0  0  0  0  0  0  0  0  # atno 10764 bound_to 10752
  154.7934  135.3310  154.7666 H   0  0  0  0  0  0  0  0  0  0  0  0  # atno 10765 bound_to 10752
  140.7473  134.3447  157.5134 H   0  0  0  0  0  0  0  0  0  0  0  0  # atno 11005 bound_to 11000
  144.6897  139.9306  143.7471 LP  0  0  0  0  0  0  0  0  0  0  0  0  # atno 17320 bound_to 7965
  146.0555  139.3552  143.0613 LP  0  0  0  0  0  0  0  0  0  0  0  0  # atno 17321 bound_to 7965
  139.8862  144.6990  150.8821 LP  0  0  0  0  0  0  0  0  0  0  0  0  # atno 17342 bound_to 10162
  140.7752  143.3622  151.1807 LP  0  0  0  0  0  0  0  0  0  0  0  0  # atno 17343 bound_to 10162
  156.7979  130.9280  151.3646 LP  0  0  0  0  0  0  0  0  0  0  0  0  # atno 17370 bound_to 10713
  157.6580  130.8941  149.9769 LP  0  0  0  0  0  0  0  0  0  0  0  0  # atno 17371 bound_to 10713
  139.8794  134.9119  156.3048 LP  0  0  0  0  0  0  0  0  0  0  0  0  # atno 17394 bound_to 11000
  140.9783  133.7283  156.0634 LP  0  0  0  0  0  0  0  0  0  0  0  0  # atno 17395 bound_to 11000

$$$$
