AV-unprocessed.smi:3231|AV-procd|sdf|12337|dock3
  -GOLD-   2272018193D 1   1.00000     0.00000
 Structure written by MMmdl.
 40 41  0  0  0  0  0  0  0  0  1 V2000
  148.4781  138.8583  153.1448 O   0  0  0  0  0  0  0  0  0  0  0  0
  147.1316  139.2809  153.2098 C   0  0  2  0  0  0  0  0  0  0  0  0
  146.4028  138.6733  151.9997 C   0  0  0  0  0  0  0  0  0  0  0  0
  146.4485  137.2150  152.0296 N   0  0  0  0  0  0  0  0  0  0  0  0
  145.7757  136.5865  150.8962 C   0  0  0  0  0  0  0  0  0  0  0  0
  144.7512  135.5383  151.3592 C   0  0  0  0  0  0  0  0  0  0  0  0
  145.1033  134.1968  150.9302 N   0  0  0  0  0  0  0  0  0  0  0  0
  144.3407  133.2977  150.2147 C   0  0  0  0  0  0  0  0  0  0  0  0
  145.0940  132.1716  150.0443 C   0  0  0  0  0  0  0  0  0  0  0  0
  146.3181  132.4816  150.7001 C   0  0  0  0  0  0  0  0  0  0  0  0
  146.3202  133.6939  151.2306 N   0  0  0  0  0  0  0  0  0  0  0  0
  147.1101  140.8257  153.1902 C   0  0  0  0  0  0  0  0  0  0  0  0
  146.1809  141.4597  154.1270 N   0  0  0  0  0  0  0  0  0  0  0  0
  146.6066  141.2440  155.5060 C   0  0  0  0  0  0  0  0  0  0  0  0
  145.6465  141.8971  156.5149 C   0  0  0  0  0  0  0  0  0  0  0  0
  145.5383  143.2888  156.2357 O   0  0  0  0  0  0  0  0  0  0  0  0
  145.0812  143.5473  154.9124 C   0  0  0  0  0  0  0  0  0  0  0  0
  146.0363  142.8962  153.8967 C   0  0  0  0  0  0  0  0  0  0  0  0
  148.8356  139.1248  152.3117 H   0  0  0  0  0  0  0  0  0  0  0  0
  146.6907  138.8815  154.1225 H   0  0  0  0  0  0  0  0  0  0  0  0
  145.3687  139.0191  151.9738 H   0  0  0  0  0  0  0  0  0  0  0  0
  146.8726  139.0279  151.0812 H   0  0  0  0  0  0  0  0  0  0  0  0
  147.4138  136.9040  152.0718 H   0  0  0  0  0  0  0  0  0  0  0  0
  145.2812  137.3417  150.2840 H   0  0  0  0  0  0  0  0  0  0  0  0
  146.5134  136.1027  150.2553 H   0  0  0  0  0  0  0  0  0  0  0  0
  144.6830  135.5426  152.4477 H   0  0  0  0  0  0  0  0  0  0  0  0
  143.7559  135.7801  150.9837 H   0  0  0  0  0  0  0  0  0  0  0  0
  143.3387  133.5331  149.8883 H   0  0  0  0  0  0  0  0  0  0  0  0
  144.8138  131.2648  149.5291 H   0  0  0  0  0  0  0  0  0  0  0  0
  147.1991  131.8658  150.8059 H   0  0  0  0  0  0  0  0  0  0  0  0
  148.1222  141.1787  153.3937 H   0  0  0  0  0  0  0  0  0  0  0  0
  146.8789  141.1706  152.1812 H   0  0  0  0  0  0  0  0  0  0  0  0
  146.6685  140.1746  155.7110 H   0  0  0  0  0  0  0  0  0  0  0  0
  147.6100  141.6475  155.6510 H   0  0  0  0  0  0  0  0  0  0  0  0
  144.6609  141.4312  156.4684 H   0  0  0  0  0  0  0  0  0  0  0  0
  146.0165  141.7652  157.5316 H   0  0  0  0  0  0  0  0  0  0  0  0
  144.0674  143.1632  154.7894 H   0  0  0  0  0  0  0  0  0  0  0  0
  145.0369  144.6249  154.7546 H   0  0  0  0  0  0  0  0  0  0  0  0
  147.0119  143.3813  153.9570 H   0  0  0  0  0  0  0  0  0  0  0  0
  145.6537  143.0860  152.8951 H   0  0  0  0  0  0  0  0  0  0  0  0
  1  2  1  0  0  0  0
  1 19  1  0  0  0  0
  2  3  1  0  0  0  0
  2 12  1  0  0  0  0
  2 20  1  0  0  0  0
  3  4  1  0  0  0  0
  3 21  1  0  0  0  0
  3 22  1  0  0  0  0
  4  5  1  0  0  0  0
  4 23  1  0  0  0  0
  5  6  1  0  0  0  0
  5 24  1  0  0  0  0
  5 25  1  0  0  0  0
  6  7  1  0  0  0  0
  6 26  1  0  0  0  0
  6 27  1  0  0  0  0
  7 11  1  0  0  0  0
  7  8  1  0  0  0  0
  8  9  2  0  0  0  0
  8 28  1  0  0  0  0
  9 10  1  0  0  0  0
  9 29  1  0  0  0  0
 10 11  2  0  0  0  0
 10 30  1  0  0  0  0
 12 13  1  0  0  0  0
 12 31  1  0  0  0  0
 12 32  1  0  0  0  0
 13 18  1  0  0  0  0
 13 14  1  0  0  0  0
 14 15  1  0  0  0  0
 14 33  1  0  0  0  0
 14 34  1  0  0  0  0
 15 16  1  0  0  0  0
 15 35  1  0  0  0  0
 15 36  1  0  0  0  0
 16 17  1  0  0  0  0
 17 18  1  0  0  0  0
 17 37  1  0  0  0  0
 17 38  1  0  0  0  0
 18 39  1  0  0  0  0
 18 40  1  0  0  0  0
M  END
> <s_m_source_file>
AV-unprocessed.smi

> <i_m_source_file_index>
3231

> <i_lp_mmshare_version>
43012

> <i_f3d_flags>
0

> <s_epik_input>
W0NIMl0xW0NIMl1PW0NIMl1bQ0gyXU4xW0NIMl1bQ0BIXShbT0hdKVtDSDJdW05IXVtDSDJdW0NIMl1uMltjSF1bY0hdW2NIXW4y

> <s_epik_cmdline>
J2VwaWtfcHl0aG9uJywgJy1waCcsICc3LjAnLCAnLXRuJywgJzgnLCAnLW1hJywgJzIwMCcsICctbWV0YWxfYmluZGluZycsICctaW1hZScsICc8aW5maWxlLm1hZT4nLCAnLW9tYWUnLCAnPG91dGZpbGUubWFlPic=

> <r_lp_tautomer_probability>
1

> <r_epik_Ionization_Penalty>
2.37071

> <r_epik_Ionization_Penalty_Charging>
0

> <r_epik_Ionization_Penalty_Neutral>
2.37071

> <r_epik_State_Penalty>
1.72455

> <r_epik_Charging_Adjusted_Penalty>
1.72455

> <i_epik_Tot_Q>
0

> <i_epik_Tot_abs_Q>
0

> <r_epik_Metal_State_Penalty>
1.72366

> <b_epik_Metal_Only>
0

> <s_lp_Force_Field>
OPLS_2005

> <r_lp_Energy>
31.2728

> <b_lp_Chiralities_Consistent>
1

> <s_lp_Variant>
AV-unprocessed.smi:3231-7

> <Gold.Version>
5.8.1

> <Gold.Id.Protein>
6NUR|6NUR_protein|mol2

> <Gold.PLP.Fitness>
45.9301

> <Gold.PLP.PLP>
-36.5993

> <Gold.PLP.part.hbond>
-3.0000

> <Gold.PLP.part.metal>
0.0000

> <Gold.PLP.part.buried>
-4.0259

> <Gold.PLP.part.nonpolar>
-30.7630

> <Gold.PLP.part.repulsive>
0.5151

> <Gold.PLP.ligand.clash>
0.0000

> <Gold.PLP.ligand.torsion>
1.4236

> <Gold.PLP.Chemscore.Hbond>
2.0000

> <Gold.PLP.Chemscore.CHOScore>
2.0000

> <Gold.PLP.Chemscore.Metal>
0.0000

> <Gold.Chemscore.Hbonds>
donor molecule, donor type, donor heavy atom, donor atom, acceptor molecule, acceptor atom, score
      L1  H     1    19       P1  7957  1.00
      L1  H     4    23       P1  7948  1.00
      L1  C     8    28       P1 10186  1.00
      L1  C    10    30       P1 10747  1.00

> <Gold.PLP.Chemscore.Internal.Correction>
0.1781

> <Gold.Rescore>
     Score         DG    S(hbond)    S(metal)    S(lipo)     H(rot)  DE(clash)    DE(int)     intcor
     12.56     -15.02       1.99        0.00      84.14       2.72       1.11       1.35       ----

> <Gold.Chemscore.Fitness>
12.5603

> <Gold.Chemscore.DG>
-15.0167

> <Gold.Chemscore.ZeroCoef>
-5.4800

> <Gold.Chemscore.Hbond>
1.9913

> <Gold.Chemscore.Metal>
0.0000

> <Gold.Chemscore.Lipo>
84.1407

> <Gold.Chemscore.Internal_Hbond>
0.0000

> <Gold.Chemscore.DEClash>
1.1053

> <Gold.Chemscore.DEInternal>
1.3511

> <Gold.Chemscore.Rot>
2.7183

> <Gold.Chemscore.Internal.Correction>
   9.000000E+99

> <Gold.Chemscore.Hbonds>
donor molecule, donor type, donor heavy atom, donor atom, acceptor molecule, acceptor atom, score
      L1  H     1    19       P1  7957  0.99
      L1  H     4    23       P1  7948  1.00

> <Gold.Chemscore.Hbond.Weighted>
-6.6511

> <Gold.Chemscore.Metal.Weighted>
-0.0000

> <Gold.Chemscore.Lipo.Weighted>
-9.8445

> <Gold.Chemscore.Internal_Hbond.Weighted>
0.0000

> <Gold.Chemscore.DEClash.Weighted>
1.1053

> <Gold.Chemscore.DEInternal.Weighted>
1.3511

> <Gold.Chemscore.Rot.Weighted>
6.9589

> <Gold.Chemscore.Internal.Correction.Weighted>
   9.000000E+99

> <Gold.Protein.RotatedTorsions>
[ 6907 6896 6895 6894 ] final  175.62 input  -60.11 | X-H torsion
[ 7974 7965 7964 7962 ] final -152.68 input  175.53 | X-H torsion
[ 8008 7997 7996 7995 ] final  -32.61 input   59.86 | X-H torsion
[ 10167 10162 10161 10158 ] final -109.00 input  -65.29 | X-H torsion
[ 10718 10713 10712 10709 ] final   81.74 input   66.30 | X-H torsion
[ 10763 10752 10751 10750 ] final   99.22 input  -60.55 | X-H torsion
[ 11005 11000 10999 10996 ] final -136.77 input  -57.11 | X-H torsion

> <Gold.Protein.ActiveResidues>
 VAL166  LYS551  ARG553  GLY616  TRP617  ASP618  TYR619  PRO620  LYS621  CYS622 
 ASP623  PHE694  ASN695  SER759  ASP760  ASP761  ALA762  ILE779  LEU786  VAL792 
 PHE793  MET794  SER795  GLU796  ALA797  LYS798  CYS799  TRP800  GLU811  SER814 

> <Gold.Protein.RotatedAtoms>
  151.7333  133.3318  159.3345 H   0  0  0  0  0  0  0  0  0  0  0  0  # atno 6907 bound_to 6896
  150.7603  134.6343  159.6212 H   0  0  0  0  0  0  0  0  0  0  0  0  # atno 6908 bound_to 6896
  152.3577  134.6918  160.0268 H   0  0  0  0  0  0  0  0  0  0  0  0  # atno 6909 bound_to 6896
  144.7781  140.4629  143.5859 H   0  0  0  0  0  0  0  0  0  0  0  0  # atno 7974 bound_to 7965
  154.4174  140.1733  156.1755 H   0  0  0  0  0  0  0  0  0  0  0  0  # atno 8008 bound_to 7997
  155.9725  140.3384  155.6565 H   0  0  0  0  0  0  0  0  0  0  0  0  # atno 8009 bound_to 7997
  155.6606  140.0700  157.2546 H   0  0  0  0  0  0  0  0  0  0  0  0  # atno 8010 bound_to 7997
  140.1600  143.4128  152.1432 H   0  0  0  0  0  0  0  0  0  0  0  0  # atno 10167 bound_to 10162
  157.6840  131.0017  150.2271 H   0  0  0  0  0  0  0  0  0  0  0  0  # atno 10718 bound_to 10713
  153.2988  135.4121  155.1233 H   0  0  0  0  0  0  0  0  0  0  0  0  # atno 10763 bound_to 10752
  154.8543  135.3536  154.5881 H   0  0  0  0  0  0  0  0  0  0  0  0  # atno 10764 bound_to 10752
  153.6305  135.7061  153.5335 H   0  0  0  0  0  0  0  0  0  0  0  0  # atno 10765 bound_to 10752
  140.8774  134.1974  157.4613 H   0  0  0  0  0  0  0  0  0  0  0  0  # atno 11005 bound_to 11000
  145.6128  139.1515  143.3066 LP  0  0  0  0  0  0  0  0  0  0  0  0  # atno 17320 bound_to 7965
  146.1973  140.6243  142.9118 LP  0  0  0  0  0  0  0  0  0  0  0  0  # atno 17321 bound_to 7965
  139.5385  144.7234  151.4811 LP  0  0  0  0  0  0  0  0  0  0  0  0  # atno 17342 bound_to 10162
  140.6649  143.8420  150.6930 LP  0  0  0  0  0  0  0  0  0  0  0  0  # atno 17343 bound_to 10162
  156.2911  130.3746  149.7841 LP  0  0  0  0  0  0  0  0  0  0  0  0  # atno 17370 bound_to 10713
  156.5500  130.8337  151.3296 LP  0  0  0  0  0  0  0  0  0  0  0  0  # atno 17371 bound_to 10713
  139.8717  134.9802  156.5066 LP  0  0  0  0  0  0  0  0  0  0  0  0  # atno 17394 bound_to 11000
  140.8501  133.8138  155.9160 LP  0  0  0  0  0  0  0  0  0  0  0  0  # atno 17395 bound_to 11000

$$$$
