AV-unprocessed.smi:1803|AV-procd|sdf|7286|dock9
  -GOLD-   22720 8543D 1   1.00000     0.00000
 Structure written by MMmdl.
 36 38  0  0  0  0  0  0  0  0  2 V2000
  150.0488  134.2317  155.5049 O   0  0  0  0  0  0  0  0  0  0  0  0
  149.7230  134.7972  154.4627 C   0  0  0  0  0  0  0  0  0  0  0  0
  150.0998  136.0701  154.2152 N   0  0  0  0  0  0  0  0  0  0  0  0
  150.8755  136.9945  154.9744 C   0  0  0  0  0  0  0  0  0  0  0  0
  151.8032  136.6469  155.8811 N   0  0  0  0  0  0  0  0  0  0  0  0
  152.3942  137.7532  156.4758 N   0  0  0  0  0  0  0  0  0  0  0  0
  151.8860  138.8938  156.0019 C   0  0  0  0  0  0  0  0  0  0  0  0
  150.6350  138.7260  154.7833 S   0  0  0  0  0  0  0  0  0  0  0  0
  148.9787  134.2002  153.5172 N   0  0  0  0  0  0  0  0  0  0  0  0
  148.4699  132.8338  153.5705 C   0  0  1  0  0  0  0  0  0  0  0  0
  147.4098  132.5507  152.5127 C   0  0  0  0  0  0  0  0  0  0  0  0
  147.4251  131.0231  152.4412 C   0  0  0  0  0  0  0  0  0  0  0  0
  148.8274  130.6177  152.6910 N   0  3  2  0  0  0  0  0  0  0  0  0
  148.9780  129.3451  153.4384 C   0  0  0  0  0  0  0  0  0  0  0  0
  150.4660  129.0014  153.6363 C   0  0  0  0  0  0  0  0  0  0  0  0
  151.2897  130.1782  154.2004 C   0  0  0  0  0  0  0  0  0  0  0  0
  150.4255  131.4167  154.4833 C   0  0  0  0  0  0  0  0  0  0  0  0
  149.5542  131.7874  153.2616 C   0  0  2  0  0  0  0  0  0  0  0  0
  149.7532  136.4424  153.3428 H   0  0  0  0  0  0  0  0  0  0  0  0
  152.2487  139.8407  156.3737 H   0  0  0  0  0  0  0  0  0  0  0  0
  148.7529  134.7387  152.6924 H   0  0  0  0  0  0  0  0  0  0  0  0
  148.0274  132.6313  154.5482 H   0  0  0  0  0  0  0  0  0  0  0  0
  146.4300  132.9523  152.7728 H   0  0  0  0  0  0  0  0  0  0  0  0
  147.7059  132.9729  151.5508 H   0  0  0  0  0  0  0  0  0  0  0  0
  146.7770  130.6220  153.2222 H   0  0  0  0  0  0  0  0  0  0  0  0
  147.0654  130.6454  151.4839 H   0  0  0  0  0  0  0  0  0  0  0  0
  148.4796  129.4251  154.4059 H   0  0  0  0  0  0  0  0  0  0  0  0
  148.4788  128.5427  152.8941 H   0  0  0  0  0  0  0  0  0  0  0  0
  150.5536  128.1371  154.2955 H   0  0  0  0  0  0  0  0  0  0  0  0
  150.8942  128.6936  152.6814 H   0  0  0  0  0  0  0  0  0  0  0  0
  151.8077  129.8727  155.1102 H   0  0  0  0  0  0  0  0  0  0  0  0
  152.0689  130.4438  153.4849 H   0  0  0  0  0  0  0  0  0  0  0  0
  149.7924  131.2227  155.3503 H   0  0  0  0  0  0  0  0  0  0  0  0
  151.0633  132.2567  154.7593 H   0  0  0  0  0  0  0  0  0  0  0  0
  150.1997  132.1581  152.4633 H   0  0  0  0  0  0  0  0  0  0  0  0
  149.2452  130.4616  151.7848 H   0  0  0  0  0  0  0  0  0  0  0  0
  1  2  2  0  0  0  0
  2  3  1  0  0  0  0
  2  9  1  0  0  0  0
  3  4  1  0  0  0  0
  3 19  1  0  0  0  0
  4  8  1  0  0  0  0
  4  5  2  0  0  0  0
  5  6  1  0  0  0  0
  6  7  2  0  0  0  0
  7  8  1  0  0  0  0
  7 20  1  0  0  0  0
  9 10  1  0  0  0  0
  9 21  1  0  0  0  0
 10 18  1  0  0  0  0
 10 11  1  0  0  0  0
 10 22  1  0  0  0  0
 11 12  1  0  0  0  0
 11 23  1  0  0  0  0
 11 24  1  0  0  0  0
 12 13  1  0  0  0  0
 12 25  1  0  0  0  0
 12 26  1  0  0  0  0
 13 18  1  0  0  0  0
 13 14  1  0  0  0  0
 13 36  1  0  0  0  0
 14 15  1  0  0  0  0
 14 27  1  0  0  0  0
 14 28  1  0  0  0  0
 15 16  1  0  0  0  0
 15 29  1  0  0  0  0
 15 30  1  0  0  0  0
 16 17  1  0  0  0  0
 16 31  1  0  0  0  0
 16 32  1  0  0  0  0
 17 18  1  0  0  0  0
 17 33  1  0  0  0  0
 17 34  1  0  0  0  0
 18 35  1  0  0  0  0
M  CHG  1  13   1
M  END
> <s_m_source_file>
AV-unprocessed.smi

> <i_m_source_file_index>
1803

> <i_lp_mmshare_version>
43012

> <i_f3d_flags>
0

> <s_epik_input>
czFbY0hdbm5jMVtOSF1DKD1PKVtOSF1bQ0BIXShbQ0gyXVtDSDJdMilbQ0BASF0oTjIzKVtDSDJdW0NIMl1bQ0gyXVtDSDJdMw==

> <s_epik_cmdline>
J2VwaWtfcHl0aG9uJywgJy1waCcsICc3LjAnLCAnLXRuJywgJzgnLCAnLW1hJywgJzIwMCcsICctbWV0YWxfYmluZGluZycsICctaW1hZScsICc8aW5maWxlLm1hZT4nLCAnLW9tYWUnLCAnPG91dGZpbGUubWFlPic=

> <r_lp_tautomer_probability>
1

> <r_epik_Ionization_Penalty>
0.00213286

> <r_epik_Ionization_Penalty_Charging>
0.00107044

> <r_epik_Ionization_Penalty_Neutral>
0.00106242

> <r_epik_State_Penalty>
-0

> <r_epik_Charging_Adjusted_Penalty>
0.00107044

> <i_epik_Tot_Q>
1

> <i_epik_Tot_abs_Q>
1

> <r_epik_Metal_State_Penalty>
0.292783

> <b_epik_Metal_Only>
0

> <s_lp_Force_Field>
OPLS_2005

> <r_lp_Energy>
41.2336

> <b_lp_Chiralities_Consistent>
1

> <s_lp_Variant>
AV-unprocessed.smi:1803-8

> <Gold.Version>
5.8.1

> <Gold.Id.Protein>
6NUR|6NUR_protein|mol2

> <Gold.PLP.Fitness>
41.3026

> <Gold.PLP.PLP>
-29.9615

> <Gold.PLP.part.hbond>
-4.9141

> <Gold.PLP.part.metal>
0.0000

> <Gold.PLP.part.buried>
-2.3633

> <Gold.PLP.part.nonpolar>
-23.2802

> <Gold.PLP.part.repulsive>
0.1263

> <Gold.PLP.ligand.clash>
0.0000

> <Gold.PLP.ligand.torsion>
0.3335

> <Gold.PLP.Chemscore.Hbond>
4.0000

> <Gold.PLP.Chemscore.CHOScore>
0.0000

> <Gold.PLP.Chemscore.Metal>
0.0000

> <Gold.Chemscore.Hbonds>
donor molecule, donor type, donor heavy atom, donor atom, acceptor molecule, acceptor atom, score
      L1  H     3    19       P1  7948  1.00
      L1  H     9    21       P1  7948  0.65
      L1  H    13    36       P1 10747  0.41
      P1  H 10752 10764       L1     5  1.00

> <Gold.PLP.Chemscore.Internal.Correction>
0.0080

> <Gold.Rescore>
     Score         DG    S(hbond)    S(metal)    S(lipo)     H(rot)  DE(clash)    DE(int)     intcor
     18.55     -19.33       3.15        0.00      50.39       1.00       0.03       0.75       ----

> <Gold.Chemscore.Fitness>
18.5525

> <Gold.Chemscore.DG>
-19.3266

> <Gold.Chemscore.ZeroCoef>
-5.4800

> <Gold.Chemscore.Hbond>
3.1469

> <Gold.Chemscore.Metal>
0.0000

> <Gold.Chemscore.Lipo>
50.3920

> <Gold.Chemscore.Internal_Hbond>
0.0000

> <Gold.Chemscore.DEClash>
0.0268

> <Gold.Chemscore.DEInternal>
0.7474

> <Gold.Chemscore.Rot>
1.0000

> <Gold.Chemscore.Internal.Correction>
   9.000000E+99

> <Gold.Chemscore.Hbonds>
donor molecule, donor type, donor heavy atom, donor atom, acceptor molecule, acceptor atom, score
      L1  H     3    19       P1  7948  0.24
      L1  H     9    21       P1  7948  0.07
      L1  H    13    36       P1 10747  0.02
      P1  H 10752 10764       L1     5  0.56

> <Gold.Chemscore.Hbond.Weighted>
-10.5108

> <Gold.Chemscore.Metal.Weighted>
-0.0000

> <Gold.Chemscore.Lipo.Weighted>
-5.8959

> <Gold.Chemscore.Internal_Hbond.Weighted>
0.0000

> <Gold.Chemscore.DEClash.Weighted>
0.0268

> <Gold.Chemscore.DEInternal.Weighted>
0.7474

> <Gold.Chemscore.Rot.Weighted>
2.5600

> <Gold.Chemscore.Internal.Correction.Weighted>
   9.000000E+99

> <Gold.Protein.RotatedTorsions>
[ 6907 6896 6895 6894 ] final   95.72 input  -60.11 | X-H torsion
[ 7974 7965 7964 7962 ] final   -4.60 input  175.53 | X-H torsion
[ 8008 7997 7996 7995 ] final  169.23 input   59.86 | X-H torsion
[ 10167 10162 10161 10158 ] final  -50.23 input  -65.29 | X-H torsion
[ 10718 10713 10712 10709 ] final  -49.84 input   66.30 | X-H torsion
[ 10763 10752 10751 10750 ] final  -26.36 input  -60.55 | X-H torsion
[ 11005 11000 10999 10996 ] final  -50.31 input  -57.11 | X-H torsion

> <Gold.Protein.ActiveResidues>
 VAL166  LYS551  ARG553  GLY616  TRP617  ASP618  TYR619  PRO620  LYS621  CYS622 
 ASP623  PHE694  ASN695  SER759  ASP760  ASP761  ALA762  ILE779  LEU786  VAL792 
 PHE793  MET794  SER795  GLU796  ALA797  LYS798  CYS799  TRP800  GLU811  SER814 

> <Gold.Protein.RotatedAtoms>
  152.5441  134.0996  159.8311 H   0  0  0  0  0  0  0  0  0  0  0  0  # atno 6907 bound_to 6896
  151.1075  133.5190  159.2614 H   0  0  0  0  0  0  0  0  0  0  0  0  # atno 6908 bound_to 6896
  151.1921  135.0416  159.8891 H   0  0  0  0  0  0  0  0  0  0  0  0  # atno 6909 bound_to 6896
  146.2369  140.1896  142.8332 H   0  0  0  0  0  0  0  0  0  0  0  0  # atno 7974 bound_to 7965
  156.1476  140.1570  156.8821 H   0  0  0  0  0  0  0  0  0  0  0  0  # atno 8008 bound_to 7997
  154.5042  140.0817  156.7898 H   0  0  0  0  0  0  0  0  0  0  0  0  # atno 8009 bound_to 7997
  155.3958  140.3412  155.4256 H   0  0  0  0  0  0  0  0  0  0  0  0  # atno 8010 bound_to 7997
  140.6647  143.2666  151.4329 H   0  0  0  0  0  0  0  0  0  0  0  0  # atno 10167 bound_to 10162
  156.1856  130.4151  149.9444 H   0  0  0  0  0  0  0  0  0  0  0  0  # atno 10718 bound_to 10713
  153.7147  135.6948  153.5028 H   0  0  0  0  0  0  0  0  0  0  0  0  # atno 10763 bound_to 10752
  153.2247  135.4358  155.0527 H   0  0  0  0  0  0  0  0  0  0  0  0  # atno 10764 bound_to 10752
  154.8303  135.3469  154.6683 H   0  0  0  0  0  0  0  0  0  0  0  0  # atno 10765 bound_to 10752
  141.0809  133.6654  156.3712 H   0  0  0  0  0  0  0  0  0  0  0  0  # atno 11005 bound_to 11000
  144.9869  140.8511  143.5363 LP  0  0  0  0  0  0  0  0  0  0  0  0  # atno 17320 bound_to 7965
  145.1896  139.2308  143.5249 LP  0  0  0  0  0  0  0  0  0  0  0  0  # atno 17321 bound_to 7965
  139.5892  144.1536  152.2067 LP  0  0  0  0  0  0  0  0  0  0  0  0  # atno 17342 bound_to 10162
  140.0885  144.5640  150.7071 LP  0  0  0  0  0  0  0  0  0  0  0  0  # atno 17343 bound_to 10162
  156.7201  130.9003  151.3617 LP  0  0  0  0  0  0  0  0  0  0  0  0  # atno 17370 bound_to 10713
  157.6896  130.9220  150.0479 LP  0  0  0  0  0  0  0  0  0  0  0  0  # atno 17371 bound_to 10713
  140.5471  134.6063  157.5397 LP  0  0  0  0  0  0  0  0  0  0  0  0  # atno 17394 bound_to 11000
  139.9622  134.7432  156.0212 LP  0  0  0  0  0  0  0  0  0  0  0  0  # atno 17395 bound_to 11000

$$$$
