AV-unprocessed.smi:1456|AV-procd|sdf|5917|dock3
  -GOLD-   22720 6 03D 1   1.00000     0.00000
 Structure written by MMmdl.
 42 43  0  0  0  0  0  0  0  0  2 V2000
  147.8215  139.2814  155.7036 C   0  0  0  0  0  0  0  0  0  0  0  0
  148.4577  138.6901  154.4262 C   0  0  0  0  0  0  0  0  0  0  0  0
  147.3594  138.6945  153.3452 C   0  0  0  0  0  0  0  0  0  0  0  0
  149.6412  139.5438  153.9066 C   0  0  0  0  0  0  0  0  0  0  0  0
  150.9729  139.3414  154.6549 C   0  0  0  0  0  0  0  0  0  0  0  0
  151.0223  140.0018  155.9577 N   0  0  0  0  0  0  0  0  0  0  0  0
  152.0680  139.9905  156.7975 C   0  0  0  0  0  0  0  0  0  0  0  0
  153.1250  139.4077  156.5555 O   0  0  0  0  0  0  0  0  0  0  0  0
  151.8039  140.6942  157.9120 N   0  0  0  0  0  0  0  0  0  0  0  0
  152.6612  140.9400  159.0166 C   0  0  0  0  0  0  0  0  0  0  0  0
  153.5686  140.0703  159.4758 N   0  0  0  0  0  0  0  0  0  0  0  0
  154.2745  140.5774  160.5697 C   0  0  0  0  0  0  0  0  0  0  0  0
  153.8888  141.8441  160.9321 C   0  0  0  0  0  0  0  0  0  0  0  0
  152.6157  142.4535  159.9086 S   0  0  0  0  0  0  0  0  0  0  0  0
  151.3043  137.8434  154.7528 C   0  0  0  0  0  0  0  0  0  0  0  0
  150.1567  136.9455  155.2840 C   0  0  0  0  0  0  0  0  0  0  0  0
  150.4884  135.4855  154.9186 C   0  0  0  0  0  0  0  0  0  0  0  0
  150.0339  136.9966  156.8231 C   0  0  0  0  0  0  0  0  0  0  0  0
  148.8619  137.2691  154.6206 N   0  3  0  0  0  0  0  0  0  0  0  0
  147.3779  140.2566  155.4996 H   0  0  0  0  0  0  0  0  0  0  0  0
  148.5264  139.4382  156.5131 H   0  0  0  0  0  0  0  0  0  0  0  0
  147.0265  138.6387  156.0832 H   0  0  0  0  0  0  0  0  0  0  0  0
  147.0188  139.7076  153.1269 H   0  0  0  0  0  0  0  0  0  0  0  0
  146.4883  138.1170  153.6577 H   0  0  0  0  0  0  0  0  0  0  0  0
  147.7157  138.2627  152.4089 H   0  0  0  0  0  0  0  0  0  0  0  0
  149.8253  139.2793  152.8642 H   0  0  0  0  0  0  0  0  0  0  0  0
  149.3651  140.5989  153.8848 H   0  0  0  0  0  0  0  0  0  0  0  0
  151.7611  139.8008  154.0552 H   0  0  0  0  0  0  0  0  0  0  0  0
  150.1935  140.5016  156.2452 H   0  0  0  0  0  0  0  0  0  0  0  0
  150.8868  141.1104  157.9759 H   0  0  0  0  0  0  0  0  0  0  0  0
  155.0372  139.9672  161.0303 H   0  0  0  0  0  0  0  0  0  0  0  0
  154.2750  142.4532  161.7358 H   0  0  0  0  0  0  0  0  0  0  0  0
  151.5631  137.5123  153.7455 H   0  0  0  0  0  0  0  0  0  0  0  0
  152.2092  137.6945  155.3441 H   0  0  0  0  0  0  0  0  0  0  0  0
  151.4412  135.1732  155.3482 H   0  0  0  0  0  0  0  0  0  0  0  0
  150.5577  135.3473  153.8387 H   0  0  0  0  0  0  0  0  0  0  0  0
  149.7243  134.7980  155.2843 H   0  0  0  0  0  0  0  0  0  0  0  0
  150.9330  136.6007  157.2966 H   0  0  0  0  0  0  0  0  0  0  0  0
  149.1945  136.3942  157.1722 H   0  0  0  0  0  0  0  0  0  0  0  0
  149.9016  137.9974  157.2202 H   0  0  0  0  0  0  0  0  0  0  0  0
  148.1174  136.7783  155.0951 H   0  0  0  0  0  0  0  0  0  0  0  0
  148.9361  136.8846  153.6897 H   0  0  0  0  0  0  0  0  0  0  0  0
  1  2  1  0  0  0  0
  1 20  1  0  0  0  0
  1 21  1  0  0  0  0
  1 22  1  0  0  0  0
  2 19  1  0  0  0  0
  2  3  1  0  0  0  0
  2  4  1  0  0  0  0
  3 23  1  0  0  0  0
  3 24  1  0  0  0  0
  3 25  1  0  0  0  0
  4  5  1  0  0  0  0
  4 26  1  0  0  0  0
  4 27  1  0  0  0  0
  5  6  1  0  0  0  0
  5 15  1  0  0  0  0
  5 28  1  0  0  0  0
  6  7  1  0  0  0  0
  6 29  1  0  0  0  0
  7  8  2  0  0  0  0
  7  9  1  0  0  0  0
  9 10  1  0  0  0  0
  9 30  1  0  0  0  0
 10 14  1  0  0  0  0
 10 11  2  0  0  0  0
 11 12  1  0  0  0  0
 12 13  2  0  0  0  0
 12 31  1  0  0  0  0
 13 14  1  0  0  0  0
 13 32  1  0  0  0  0
 15 16  1  0  0  0  0
 15 33  1  0  0  0  0
 15 34  1  0  0  0  0
 16 17  1  0  0  0  0
 16 18  1  0  0  0  0
 16 19  1  0  0  0  0
 17 35  1  0  0  0  0
 17 36  1  0  0  0  0
 17 37  1  0  0  0  0
 18 38  1  0  0  0  0
 18 39  1  0  0  0  0
 18 40  1  0  0  0  0
 19 41  1  0  0  0  0
 19 42  1  0  0  0  0
M  CHG  1  19   1
M  END
> <s_m_source_file>
AV-unprocessed.smi

> <i_m_source_file_index>
1456

> <i_lp_mmshare_version>
43012

> <i_f3d_flags>
0

> <s_epik_input>
W0NIM11DMShbQ0gzXSlbQ0gyXVtDSF0oW0NIMl1DKFtDSDNdKShbQ0gzXSlbTkhdMSlbTkhdQyg9TylbTkhdYzJuW2NIXVtjSF1zMg==

> <s_epik_cmdline>
J2VwaWtfcHl0aG9uJywgJy1waCcsICc3LjAnLCAnLXRuJywgJzgnLCAnLW1hJywgJzIwMCcsICctbWV0YWxfYmluZGluZycsICctaW1hZScsICc8aW5maWxlLm1hZT4nLCAnLW9tYWUnLCAnPG91dGZpbGUubWFlPic=

> <r_lp_tautomer_probability>
1

> <r_epik_Ionization_Penalty>
0.000374891

> <r_epik_Ionization_Penalty_Charging>
0.000101406

> <r_epik_Ionization_Penalty_Neutral>
0.000273485

> <r_epik_State_Penalty>
-0

> <r_epik_Charging_Adjusted_Penalty>
0.000101406

> <i_epik_Tot_Q>
1

> <i_epik_Tot_abs_Q>
1

> <r_epik_Metal_State_Penalty>
0.0101225

> <b_epik_Metal_Only>
0

> <s_lp_Force_Field>
OPLS_2005

> <r_lp_Energy>
24.6198

> <b_lp_Chiralities_Consistent>
1

> <s_lp_Variant>
AV-unprocessed.smi:1456-1

> <Gold.Version>
5.8.1

> <Gold.Id.Protein>
6NUR|6NUR_protein|mol2

> <Gold.PLP.Fitness>
37.9164

> <Gold.PLP.PLP>
-29.4068

> <Gold.PLP.part.hbond>
-1.9327

> <Gold.PLP.part.metal>
0.0000

> <Gold.PLP.part.buried>
-1.2767

> <Gold.PLP.part.nonpolar>
-26.9720

> <Gold.PLP.part.repulsive>
0.1865

> <Gold.PLP.ligand.clash>
0.0000

> <Gold.PLP.ligand.torsion>
0.2540

> <Gold.PLP.Chemscore.Hbond>
3.0000

> <Gold.PLP.Chemscore.CHOScore>
0.0000

> <Gold.PLP.Chemscore.Metal>
0.0000

> <Gold.Chemscore.Hbonds>
donor molecule, donor type, donor heavy atom, donor atom, acceptor molecule, acceptor atom, score
      L1  H    19    42       P1  7948  2.00
      P1  H  7997  8010       L1     8  0.75

> <Gold.PLP.Chemscore.Internal.Correction>
0.0176

> <Gold.Rescore>
     Score         DG    S(hbond)    S(metal)    S(lipo)     H(rot)  DE(clash)    DE(int)     intcor
     17.35     -17.94       1.99        0.00      71.72       1.00       0.15       0.44       ----

> <Gold.Chemscore.Fitness>
17.3510

> <Gold.Chemscore.DG>
-17.9436

> <Gold.Chemscore.ZeroCoef>
-5.4800

> <Gold.Chemscore.Hbond>
1.9857

> <Gold.Chemscore.Metal>
0.0000

> <Gold.Chemscore.Lipo>
71.7207

> <Gold.Chemscore.Internal_Hbond>
0.0000

> <Gold.Chemscore.DEClash>
0.1524

> <Gold.Chemscore.DEInternal>
0.4403

> <Gold.Chemscore.Rot>
1.0000

> <Gold.Chemscore.Internal.Correction>
   9.000000E+99

> <Gold.Chemscore.Hbonds>
donor molecule, donor type, donor heavy atom, donor atom, acceptor molecule, acceptor atom, score
      L1  H    19    42       P1  7948  1.00
      P1  H  7997  8010       L1     8  0.72

> <Gold.Chemscore.Hbond.Weighted>
-6.6323

> <Gold.Chemscore.Metal.Weighted>
-0.0000

> <Gold.Chemscore.Lipo.Weighted>
-8.3913

> <Gold.Chemscore.Internal_Hbond.Weighted>
0.0000

> <Gold.Chemscore.DEClash.Weighted>
0.1524

> <Gold.Chemscore.DEInternal.Weighted>
0.4403

> <Gold.Chemscore.Rot.Weighted>
2.5600

> <Gold.Chemscore.Internal.Correction.Weighted>
   9.000000E+99

> <Gold.Protein.RotatedTorsions>
[ 6907 6896 6895 6894 ] final   51.41 input  -60.11 | X-H torsion
[ 7974 7965 7964 7962 ] final   10.54 input  175.53 | X-H torsion
[ 8008 7997 7996 7995 ] final   79.22 input   59.86 | X-H torsion
[ 10167 10162 10161 10158 ] final   26.73 input  -65.29 | X-H torsion
[ 10718 10713 10712 10709 ] final -111.70 input   66.30 | X-H torsion
[ 10763 10752 10751 10750 ] final  127.62 input  -60.55 | X-H torsion
[ 11005 11000 10999 10996 ] final -102.52 input  -57.11 | X-H torsion

> <Gold.Protein.ActiveResidues>
 VAL166  LYS551  ARG553  GLY616  TRP617  ASP618  TYR619  PRO620  LYS621  CYS622 
 ASP623  PHE694  ASN695  SER759  ASP760  ASP761  ALA762  ILE779  LEU786  VAL792 
 PHE793  MET794  SER795  GLU796  ALA797  LYS798  CYS799  TRP800  GLU811  SER814 

> <Gold.Protein.RotatedAtoms>
  152.3124  134.7481  160.0333 H   0  0  0  0  0  0  0  0  0  0  0  0  # atno 6907 bound_to 6896
  151.7957  133.3359  159.3520 H   0  0  0  0  0  0  0  0  0  0  0  0  # atno 6908 bound_to 6896
  150.7327  134.5731  159.5945 H   0  0  0  0  0  0  0  0  0  0  0  0  # atno 6909 bound_to 6896
  146.2386  139.9618  142.8457 H   0  0  0  0  0  0  0  0  0  0  0  0  # atno 7974 bound_to 7965
  155.8667  140.3451  155.5793 H   0  0  0  0  0  0  0  0  0  0  0  0  # atno 8008 bound_to 7997
  155.7873  140.0866  157.2047 H   0  0  0  0  0  0  0  0  0  0  0  0  # atno 8009 bound_to 7997
  154.4015  140.1489  156.3109 H   0  0  0  0  0  0  0  0  0  0  0  0  # atno 8010 bound_to 7997
  140.4998  144.0333  150.6328 H   0  0  0  0  0  0  0  0  0  0  0  0  # atno 10167 bound_to 10162
  156.0662  130.5881  150.8408 H   0  0  0  0  0  0  0  0  0  0  0  0  # atno 10718 bound_to 10713
  153.7124  135.3266  155.3249 H   0  0  0  0  0  0  0  0  0  0  0  0  # atno 10763 bound_to 10752
  154.8381  135.4480  154.1301 H   0  0  0  0  0  0  0  0  0  0  0  0  # atno 10764 bound_to 10752
  153.2398  135.6969  153.7875 H   0  0  0  0  0  0  0  0  0  0  0  0  # atno 10765 bound_to 10752
  141.1186  133.8565  157.1369 H   0  0  0  0  0  0  0  0  0  0  0  0  # atno 11005 bound_to 11000
  145.1763  140.9745  143.4292 LP  0  0  0  0  0  0  0  0  0  0  0  0  # atno 17320 bound_to 7965
  144.9982  139.3623  143.6180 LP  0  0  0  0  0  0  0  0  0  0  0  0  # atno 17321 bound_to 7965
  140.3626  143.2899  152.0367 LP  0  0  0  0  0  0  0  0  0  0  0  0  # atno 17342 bound_to 10162
  139.4869  144.6291  151.7105 LP  0  0  0  0  0  0  0  0  0  0  0  0  # atno 17343 bound_to 10162
  157.5705  131.0946  150.9425 LP  0  0  0  0  0  0  0  0  0  0  0  0  # atno 17370 bound_to 10713
  156.9642  130.5466  149.5287 LP  0  0  0  0  0  0  0  0  0  0  0  0  # atno 17371 bound_to 10713
  140.0125  134.9982  157.0426 LP  0  0  0  0  0  0  0  0  0  0  0  0  # atno 17394 bound_to 11000
  140.4575  134.1519  155.7187 LP  0  0  0  0  0  0  0  0  0  0  0  0  # atno 17395 bound_to 11000

$$$$
