AV-unprocessed.smi:1962|AV-procd|sdf|7925|dock4
  -GOLD-   2272010 93D 1   1.00000     0.00000
 Structure written by MMmdl.
 35 36  0  0  0  0  0  0  0  0  2 V2000
  151.5908  138.6817  157.3946 C   0  0  0  0  0  0  0  0  0  0  0  0
  150.6524  139.2124  158.4872 C   0  0  1  0  0  0  0  0  0  0  0  0
  150.1122  140.6218  158.1265 C   0  0  0  0  0  0  0  0  0  0  0  0
  150.9126  141.7291  158.6450 N   0  0  0  0  0  0  0  0  0  0  0  0
  150.9365  143.0492  158.2344 C   0  0  0  0  0  0  0  0  0  0  0  0
  151.8312  143.7099  159.0263 C   0  0  0  0  0  0  0  0  0  0  0  0
  152.3027  142.7037  159.9142 C   0  0  0  0  0  0  0  0  0  0  0  0
  151.7435  141.5257  159.6942 N   0  0  0  0  0  0  0  0  0  0  0  0
  149.5407  138.2681  158.6501 N   0  5  0  0  0  0  0  0  0  0  0  0
  149.6539  136.9045  158.6623 C   0  0  0  0  0  0  0  0  0  0  0  0
  150.5407  136.2422  158.1096 O   0  0  0  0  0  0  0  0  0  0  0  0
  148.6327  136.1059  159.4033 C   0  0  0  0  0  0  0  0  0  0  0  0
  147.9376  136.6679  160.3429 N   0  0  0  0  0  0  0  0  0  0  0  0
  146.9700  135.9877  161.0525 N   0  0  0  0  0  0  0  0  0  0  0  0
  146.1103  136.8330  161.8782 C   0  0  0  0  0  0  0  0  0  0  0  0
  146.8062  134.6418  161.0378 C   0  0  0  0  0  0  0  0  0  0  0  0
  145.9206  134.0528  161.6581 O   0  0  0  0  0  0  0  0  0  0  0  0
  147.8197  133.8408  160.2169 C   0  0  0  0  0  0  0  0  0  0  0  0
  148.3867  134.6527  159.0359 C   0  0  0  0  0  0  0  0  0  0  0  0
  152.4431  139.3468  157.2554 H   0  0  0  0  0  0  0  0  0  0  0  0
  151.0786  138.5940  156.4355 H   0  0  0  0  0  0  0  0  0  0  0  0
  151.9830  137.6980  157.6553 H   0  0  0  0  0  0  0  0  0  0  0  0
  151.2466  139.3028  159.3980 H   0  0  0  0  0  0  0  0  0  0  0  0
  150.0749  140.7298  157.0420 H   0  0  0  0  0  0  0  0  0  0  0  0
  149.0843  140.7330  158.4766 H   0  0  0  0  0  0  0  0  0  0  0  0
  150.3265  143.4006  157.4152 H   0  0  0  0  0  0  0  0  0  0  0  0
  152.1061  144.7529  158.9783 H   0  0  0  0  0  0  0  0  0  0  0  0
  153.0259  142.7944  160.7109 H   0  0  0  0  0  0  0  0  0  0  0  0
  145.0755  136.7721  161.5393 H   0  0  0  0  0  0  0  0  0  0  0  0
  146.4101  137.8816  161.8397 H   0  0  0  0  0  0  0  0  0  0  0  0
  146.1481  136.5199  162.9225 H   0  0  0  0  0  0  0  0  0  0  0  0
  148.6312  133.5556  160.8874 H   0  0  0  0  0  0  0  0  0  0  0  0
  147.3674  132.9154  159.8586 H   0  0  0  0  0  0  0  0  0  0  0  0
  147.7011  134.6082  158.1890 H   0  0  0  0  0  0  0  0  0  0  0  0
  149.3099  134.1723  158.7106 H   0  0  0  0  0  0  0  0  0  0  0  0
  1  2  1  0  0  0  0
  1 20  1  0  0  0  0
  1 21  1  0  0  0  0
  1 22  1  0  0  0  0
  2  3  1  0  0  0  0
  2  9  1  0  0  0  0
  2 23  1  0  0  0  0
  3  4  1  0  0  0  0
  3 24  1  0  0  0  0
  3 25  1  0  0  0  0
  4  8  1  0  0  0  0
  4  5  1  0  0  0  0
  5  6  2  0  0  0  0
  5 26  1  0  0  0  0
  6  7  1  0  0  0  0
  6 27  1  0  0  0  0
  7  8  2  0  0  0  0
  7 28  1  0  0  0  0
  9 10  1  0  0  0  0
 10 11  2  0  0  0  0
 10 12  1  0  0  0  0
 12 19  1  0  0  0  0
 12 13  2  0  0  0  0
 13 14  1  0  0  0  0
 14 15  1  0  0  0  0
 14 16  1  0  0  0  0
 15 29  1  0  0  0  0
 15 30  1  0  0  0  0
 15 31  1  0  0  0  0
 16 17  2  0  0  0  0
 16 18  1  0  0  0  0
 18 19  1  0  0  0  0
 18 32  1  0  0  0  0
 18 33  1  0  0  0  0
 19 34  1  0  0  0  0
 19 35  1  0  0  0  0
M  CHG  1   9  -1
M  END
> <s_m_source_file>
AV-unprocessed.smi

> <i_m_source_file_index>
1962

> <i_lp_mmshare_version>
43012

> <i_f3d_flags>
0

> <s_epik_input>
bjFbY0hdW2NIXVtjSF1uMVtDSDJdW0NAQEhdKFtDSDNdKVtOSF1DKD1PKUMyPU5OKFtDSDNdKUMoPU8pW0NIMl1bQ0gyXTI=

> <s_epik_cmdline>
J2VwaWtfcHl0aG9uJywgJy1waCcsICc3LjAnLCAnLXRuJywgJzgnLCAnLW1hJywgJzIwMCcsICctbWV0YWxfYmluZGluZycsICctaW1hZScsICc8aW5maWxlLm1hZT4nLCAnLW9tYWUnLCAnPG91dGZpbGUubWFlPic=

> <r_lp_tautomer_probability>
1

> <r_epik_Ionization_Penalty>
5.21086

> <r_epik_Ionization_Penalty_Charging>
5.21084

> <r_epik_Ionization_Penalty_Neutral>
2.41961e-05

> <r_epik_State_Penalty>
5.21075

> <r_epik_Charging_Adjusted_Penalty>
10.4216

> <i_epik_Tot_Q>
-1

> <i_epik_Tot_abs_Q>
1

> <r_epik_Metal_State_Penalty>
1.27477

> <b_epik_Metal_Only>
1

> <s_epik_Chemistry_Notes>
This compound has an imine and may undergo hydrolysis.

> <s_lp_Force_Field>
OPLS_2005

> <r_lp_Energy>
25.3594

> <b_lp_Chiralities_Consistent>
1

> <s_lp_Variant>
AV-unprocessed.smi:1962-4

> <Gold.Version>
5.8.1

> <Gold.Id.Protein>
6NUR|6NUR_protein|mol2

> <Gold.PLP.Fitness>
44.8481

> <Gold.PLP.PLP>
-37.3337

> <Gold.PLP.part.hbond>
-4.9814

> <Gold.PLP.part.metal>
0.0000

> <Gold.PLP.part.buried>
-4.4176

> <Gold.PLP.part.nonpolar>
-28.4715

> <Gold.PLP.part.repulsive>
0.0000

> <Gold.PLP.ligand.clash>
0.0000

> <Gold.PLP.ligand.torsion>
1.3024

> <Gold.PLP.Chemscore.Hbond>
2.3631

> <Gold.PLP.Chemscore.CHOScore>
1.0000

> <Gold.PLP.Chemscore.Metal>
0.0000

> <Gold.Chemscore.Hbonds>
donor molecule, donor type, donor heavy atom, donor atom, acceptor molecule, acceptor atom, score
      P1  H  6896  6908       L1    11  0.55
      L1  C     5    26       P1  8028  0.79

> <Gold.PLP.Chemscore.Internal.Correction>
0.0300

> <Gold.Rescore>
     Score         DG    S(hbond)    S(metal)    S(lipo)     H(rot)  DE(clash)    DE(int)     intcor
     13.48     -16.24       1.91        0.00      70.31       1.50       0.04       2.72       ----

> <Gold.Chemscore.Fitness>
13.4790

> <Gold.Chemscore.DG>
-16.2431

> <Gold.Chemscore.ZeroCoef>
-5.4800

> <Gold.Chemscore.Hbond>
1.9064

> <Gold.Chemscore.Metal>
0.0000

> <Gold.Chemscore.Lipo>
70.3133

> <Gold.Chemscore.Internal_Hbond>
0.0000

> <Gold.Chemscore.DEClash>
0.0431

> <Gold.Chemscore.DEInternal>
2.7210

> <Gold.Chemscore.Rot>
1.4964

> <Gold.Chemscore.Internal.Correction>
   9.000000E+99

> <Gold.Chemscore.Hbonds>
donor molecule, donor type, donor heavy atom, donor atom, acceptor molecule, acceptor atom, score
      P1  H  6896  6908       L1    11  0.11
      P1  H  6931  6943       L1    13  0.01

> <Gold.Chemscore.Hbond.Weighted>
-6.3673

> <Gold.Chemscore.Metal.Weighted>
-0.0000

> <Gold.Chemscore.Lipo.Weighted>
-8.2267

> <Gold.Chemscore.Internal_Hbond.Weighted>
0.0000

> <Gold.Chemscore.DEClash.Weighted>
0.0431

> <Gold.Chemscore.DEInternal.Weighted>
2.7210

> <Gold.Chemscore.Rot.Weighted>
3.8309

> <Gold.Chemscore.Internal.Correction.Weighted>
   9.000000E+99

> <Gold.Protein.RotatedTorsions>
[ 6907 6896 6895 6894 ] final -170.90 input  -60.11 | X-H torsion
[ 7974 7965 7964 7962 ] final  -98.50 input  175.53 | X-H torsion
[ 8008 7997 7996 7995 ] final  178.15 input   59.86 | X-H torsion
[ 10167 10162 10161 10158 ] final  161.72 input  -65.29 | X-H torsion
[ 10718 10713 10712 10709 ] final   89.10 input   66.30 | X-H torsion
[ 10763 10752 10751 10750 ] final  177.05 input  -60.55 | X-H torsion
[ 11005 11000 10999 10996 ] final  108.69 input  -57.11 | X-H torsion

> <Gold.Protein.ActiveResidues>
 VAL166  LYS551  ARG553  GLY616  TRP617  ASP618  TYR619  PRO620  LYS621  CYS622 
 ASP623  PHE694  ASN695  SER759  ASP760  ASP761  ALA762  ILE779  LEU786  VAL792 
 PHE793  MET794  SER795  GLU796  ALA797  LYS798  CYS799  TRP800  GLU811  SER814 

> <Gold.Protein.RotatedAtoms>
  151.5152  133.3477  159.2891 H   0  0  0  0  0  0  0  0  0  0  0  0  # atno 6907 bound_to 6896
  150.8687  134.8058  159.7149 H   0  0  0  0  0  0  0  0  0  0  0  0  # atno 6908 bound_to 6896
  152.4683  134.5033  159.9783 H   0  0  0  0  0  0  0  0  0  0  0  0  # atno 6909 bound_to 6896
  145.3198  140.9419  143.2722 H   0  0  0  0  0  0  0  0  0  0  0  0  # atno 7974 bound_to 7965
  156.0578  140.1340  156.9976 H   0  0  0  0  0  0  0  0  0  0  0  0  # atno 8008 bound_to 7997
  154.4466  140.0997  156.6543 H   0  0  0  0  0  0  0  0  0  0  0  0  # atno 8009 bound_to 7997
  155.5424  140.3461  155.4452 H   0  0  0  0  0  0  0  0  0  0  0  0  # atno 8010 bound_to 7997
  139.4852  144.4509  151.8831 H   0  0  0  0  0  0  0  0  0  0  0  0  # atno 10167 bound_to 10162
  157.6953  131.0320  150.3375 H   0  0  0  0  0  0  0  0  0  0  0  0  # atno 10718 bound_to 10713
  154.4893  135.2778  155.1509 H   0  0  0  0  0  0  0  0  0  0  0  0  # atno 10763 bound_to 10752
  154.3187  135.6214  153.5501 H   0  0  0  0  0  0  0  0  0  0  0  0  # atno 10764 bound_to 10752
  152.9886  135.5737  154.5311 H   0  0  0  0  0  0  0  0  0  0  0  0  # atno 10765 bound_to 10752
  139.8848  134.9437  156.6011 H   0  0  0  0  0  0  0  0  0  0  0  0  # atno 11005 bound_to 11000
  144.8948  139.4726  143.6660 LP  0  0  0  0  0  0  0  0  0  0  0  0  # atno 17320 bound_to 7965
  146.3086  139.7667  142.9037 LP  0  0  0  0  0  0  0  0  0  0  0  0  # atno 17321 bound_to 7965
  140.3966  144.2547  150.5896 LP  0  0  0  0  0  0  0  0  0  0  0  0  # atno 17342 bound_to 10162
  140.5097  143.2294  151.8555 LP  0  0  0  0  0  0  0  0  0  0  0  0  # atno 17343 bound_to 10162
  156.3840  130.3885  149.7080 LP  0  0  0  0  0  0  0  0  0  0  0  0  # atno 17370 bound_to 10713
  156.4453  130.7880  151.2902 LP  0  0  0  0  0  0  0  0  0  0  0  0  # atno 17371 bound_to 10713
  140.7883  133.8603  155.8624 LP  0  0  0  0  0  0  0  0  0  0  0  0  # atno 17394 bound_to 11000
  140.9700  134.1544  157.4584 LP  0  0  0  0  0  0  0  0  0  0  0  0  # atno 17395 bound_to 11000

$$$$
