AV-unprocessed.smi:1295|AV-procd|sdf|5407|dock10
  -GOLD-   22720 4563D 1   1.00000     0.00000
 Structure written by MMmdl.
 43 44  0  0  0  0  0  0  0  0  1 V2000
  146.6417  132.4082  160.8545 C   0  0  0  0  0  0  0  0  0  0  0  0
  147.0486  133.6696  160.1242 C   0  0  0  0  0  0  0  0  0  0  0  0
  147.4767  133.4470  158.8260 N   0  0  0  0  0  0  0  0  0  0  0  0
  147.8653  134.5423  158.0754 C   0  0  0  0  0  0  0  0  0  0  0  0
  148.3022  134.2135  156.6585 C   0  0  0  0  0  0  0  0  0  0  0  0
  147.8327  135.7963  158.5936 C   0  0  0  0  0  0  0  0  0  0  0  0
  148.2304  137.0345  157.7882 C   0  0  0  0  0  0  0  0  0  0  0  0
  149.5509  137.6916  158.1971 C   0  0  0  0  0  0  0  0  0  0  0  0
  150.0034  137.5144  159.3274 O   0  0  0  0  0  0  0  0  0  0  0  0
  150.1575  138.4352  157.2598 N   0  0  0  0  0  0  0  0  0  0  0  0
  151.4717  139.0652  157.3620 C   0  0  2  0  0  0  0  0  0  0  0  0
  151.5123  140.0246  158.5686 C   0  0  0  0  0  0  0  0  0  0  0  0
  150.6323  141.2678  158.3511 C   0  0  0  0  0  0  0  0  0  0  0  0
  151.0072  141.9931  157.0501 C   0  0  0  0  0  0  0  0  0  0  0  0
  150.9388  141.0459  155.8418 C   0  0  0  0  0  0  0  0  0  0  0  0
  151.8264  139.8002  156.0452 C   0  0  2  0  0  0  0  0  0  0  0  0
  151.7824  138.8747  154.8163 C   0  0  0  0  0  0  0  0  0  0  0  0
  147.3621  135.9717  159.9885 C   0  0  0  0  0  0  0  0  0  0  0  0
  147.2927  137.0839  160.5093 O   0  0  0  0  0  0  0  0  0  0  0  0
  146.9795  134.8277  160.7070 N   0  0  0  0  0  0  0  0  0  0  0  0
  147.5150  132.5316  158.4010 H   0  0  0  0  0  0  0  0  0  0  0  0
  146.4219  132.6173  161.9023 H   0  0  0  0  0  0  0  0  0  0  0  0
  147.4428  131.6693  160.8165 H   0  0  0  0  0  0  0  0  0  0  0  0
  145.7497  131.9779  160.3980 H   0  0  0  0  0  0  0  0  0  0  0  0
  149.3369  134.5163  156.4983 H   0  0  0  0  0  0  0  0  0  0  0  0
  147.6740  134.7344  155.9355 H   0  0  0  0  0  0  0  0  0  0  0  0
  148.2307  133.1445  156.4535 H   0  0  0  0  0  0  0  0  0  0  0  0
  147.4364  137.7757  157.8820 H   0  0  0  0  0  0  0  0  0  0  0  0
  148.2750  136.8092  156.7224 H   0  0  0  0  0  0  0  0  0  0  0  0
  149.6895  138.5299  156.3701 H   0  0  0  0  0  0  0  0  0  0  0  0
  152.2266  138.2937  157.5230 H   0  0  0  0  0  0  0  0  0  0  0  0
  151.2049  139.5030  159.4760 H   0  0  0  0  0  0  0  0  0  0  0  0
  152.5416  140.3431  158.7372 H   0  0  0  0  0  0  0  0  0  0  0  0
  149.5816  140.9767  158.3183 H   0  0  0  0  0  0  0  0  0  0  0  0
  150.7359  141.9473  159.1974 H   0  0  0  0  0  0  0  0  0  0  0  0
  150.3421  142.8429  156.8940 H   0  0  0  0  0  0  0  0  0  0  0  0
  152.0148  142.4013  157.1372 H   0  0  0  0  0  0  0  0  0  0  0  0
  149.9039  140.7434  155.6741 H   0  0  0  0  0  0  0  0  0  0  0  0
  151.2495  141.5811  154.9438 H   0  0  0  0  0  0  0  0  0  0  0  0
  152.8560  140.1482  156.1407 H   0  0  0  0  0  0  0  0  0  0  0  0
  150.7680  138.5381  154.5992 H   0  0  0  0  0  0  0  0  0  0  0  0
  152.4010  137.9899  154.9688 H   0  0  0  0  0  0  0  0  0  0  0  0
  152.1542  139.3872  153.9287 H   0  0  0  0  0  0  0  0  0  0  0  0
  1 22  1  0  0  0  0
  1 23  1  0  0  0  0
  1 24  1  0  0  0  0
  1  2  1  0  0  0  0
  2  3  1  0  0  0  0
  2 20  2  0  0  0  0
  3  4  1  0  0  0  0
  3 21  1  0  0  0  0
  4  6  2  0  0  0  0
  4  5  1  0  0  0  0
  5 25  1  0  0  0  0
  5 26  1  0  0  0  0
  5 27  1  0  0  0  0
  6 18  1  0  0  0  0
  6  7  1  0  0  0  0
  7  8  1  0  0  0  0
  7 28  1  0  0  0  0
  7 29  1  0  0  0  0
  8  9  2  0  0  0  0
  8 10  1  0  0  0  0
 10 11  1  0  0  0  0
 10 30  1  0  0  0  0
 11 16  1  0  0  0  0
 11 12  1  0  0  0  0
 11 31  1  0  0  0  0
 12 13  1  0  0  0  0
 12 32  1  0  0  0  0
 12 33  1  0  0  0  0
 13 14  1  0  0  0  0
 13 34  1  0  0  0  0
 13 35  1  0  0  0  0
 14 15  1  0  0  0  0
 14 36  1  0  0  0  0
 14 37  1  0  0  0  0
 15 16  1  0  0  0  0
 15 38  1  0  0  0  0
 15 39  1  0  0  0  0
 16 17  1  0  0  0  0
 16 40  1  0  0  0  0
 17 41  1  0  0  0  0
 17 42  1  0  0  0  0
 17 43  1  0  0  0  0
 18 19  2  0  0  0  0
 18 20  1  0  0  0  0
M  END
> <s_m_source_file>
AV-unprocessed.smi

> <i_m_source_file_index>
1295

> <i_lp_mmshare_version>
43012

> <i_f3d_flags>
0

> <s_epik_input>
W0NIM11jMW5jKFtDSDNdKWMoYyg9TylbbkhdMSlbQ0gyXUMoPU8pW05IXVtDQEBIXTJbQ0gyXVtDSDJdW0NIMl1bQ0gyXVtDQEhdMltDSDNd

> <s_epik_cmdline>
J2VwaWtfcHl0aG9uJywgJy1waCcsICc3LjAnLCAnLXRuJywgJzgnLCAnLW1hJywgJzIwMCcsICctbWV0YWxfYmluZGluZycsICctaW1hZScsICc8aW5maWxlLm1hZT4nLCAnLW9tYWUnLCAnPG91dGZpbGUubWFlPic=

> <r_lp_tautomer_probability>
0.156392

> <r_epik_Ionization_Penalty>
0.0136057

> <r_epik_Ionization_Penalty_Charging>
0.0134742

> <r_epik_Ionization_Penalty_Neutral>
0.000131572

> <r_epik_State_Penalty>
1.15342

> <r_epik_Charging_Adjusted_Penalty>
1.16689

> <i_epik_Tot_Q>
0

> <i_epik_Tot_abs_Q>
0

> <r_epik_Metal_State_Penalty>
1.31351

> <b_epik_Metal_Only>
0

> <s_lp_Force_Field>
OPLS_2005

> <r_lp_Energy>
13.3466

> <b_lp_Chiralities_Consistent>
1

> <s_lp_Variant>
AV-unprocessed.smi:1295-7

> <Gold.Version>
5.8.1

> <Gold.Id.Protein>
6NUR|6NUR_protein|mol2

> <Gold.PLP.Fitness>
36.0561

> <Gold.PLP.PLP>
-31.7293

> <Gold.PLP.part.hbond>
-3.0000

> <Gold.PLP.part.metal>
0.0000

> <Gold.PLP.part.buried>
-4.4743

> <Gold.PLP.part.nonpolar>
-24.1760

> <Gold.PLP.part.repulsive>
0.1053

> <Gold.PLP.ligand.clash>
0.0000

> <Gold.PLP.ligand.torsion>
0.4570

> <Gold.PLP.Chemscore.Hbond>
1.7440

> <Gold.PLP.Chemscore.CHOScore>
0.0000

> <Gold.PLP.Chemscore.Metal>
0.0000

> <Gold.Chemscore.Hbonds>
donor molecule, donor type, donor heavy atom, donor atom, acceptor molecule, acceptor atom, score
      P1  H  6934  6947       L1    19  1.00

> <Gold.PLP.Chemscore.Internal.Correction>
0.0087

> <Gold.Rescore>
     Score         DG    S(hbond)    S(metal)    S(lipo)     H(rot)  DE(clash)    DE(int)     intcor
     14.38     -14.97       1.77        0.00      62.95       1.48       0.03       0.55       ----

> <Gold.Chemscore.Fitness>
14.3831

> <Gold.Chemscore.DG>
-14.9662

> <Gold.Chemscore.ZeroCoef>
-5.4800

> <Gold.Chemscore.Hbond>
1.7695

> <Gold.Chemscore.Metal>
0.0000

> <Gold.Chemscore.Lipo>
62.9492

> <Gold.Chemscore.Internal_Hbond>
0.0000

> <Gold.Chemscore.DEClash>
0.0282

> <Gold.Chemscore.DEInternal>
0.5549

> <Gold.Chemscore.Rot>
1.4801

> <Gold.Chemscore.Internal.Correction>
   9.000000E+99

> <Gold.Chemscore.Hbonds>
donor molecule, donor type, donor heavy atom, donor atom, acceptor molecule, acceptor atom, score
      P1  H  6931  6943       L1    19  0.01
      P1  H  6934  6947       L1    19  0.97

> <Gold.Chemscore.Hbond.Weighted>
-5.9103

> <Gold.Chemscore.Metal.Weighted>
-0.0000

> <Gold.Chemscore.Lipo.Weighted>
-7.3651

> <Gold.Chemscore.Internal_Hbond.Weighted>
0.0000

> <Gold.Chemscore.DEClash.Weighted>
0.0282

> <Gold.Chemscore.DEInternal.Weighted>
0.5549

> <Gold.Chemscore.Rot.Weighted>
3.7891

> <Gold.Chemscore.Internal.Correction.Weighted>
   9.000000E+99

> <Gold.Protein.RotatedTorsions>
[ 6907 6896 6895 6894 ] final -168.49 input  -60.11 | X-H torsion
[ 7974 7965 7964 7962 ] final   -1.10 input  175.53 | X-H torsion
[ 8008 7997 7996 7995 ] final  153.98 input   59.86 | X-H torsion
[ 10167 10162 10161 10158 ] final  141.35 input  -65.29 | X-H torsion
[ 10718 10713 10712 10709 ] final   -8.30 input   66.30 | X-H torsion
[ 10763 10752 10751 10750 ] final  -24.90 input  -60.55 | X-H torsion
[ 11005 11000 10999 10996 ] final -172.72 input  -57.11 | X-H torsion

> <Gold.Protein.ActiveResidues>
 VAL166  LYS551  ARG553  GLY616  TRP617  ASP618  TYR619  PRO620  LYS621  CYS622 
 ASP623  PHE694  ASN695  SER759  ASP760  ASP761  ALA762  ILE779  LEU786  VAL792 
 PHE793  MET794  SER795  GLU796  ALA797  LYS798  CYS799  TRP800  GLU811  SER814 

> <Gold.Protein.RotatedAtoms>
  151.4764  133.3557  159.2831 H   0  0  0  0  0  0  0  0  0  0  0  0  # atno 6907 bound_to 6896
  150.8926  134.8333  159.7315 H   0  0  0  0  0  0  0  0  0  0  0  0  # atno 6908 bound_to 6896
  152.4832  134.4676  159.9677 H   0  0  0  0  0  0  0  0  0  0  0  0  # atno 6909 bound_to 6896
  146.2420  140.1370  142.8336 H   0  0  0  0  0  0  0  0  0  0  0  0  # atno 7974 bound_to 7965
  156.2554  140.1979  156.6575 H   0  0  0  0  0  0  0  0  0  0  0  0  # atno 8008 bound_to 7997
  154.6489  140.0574  156.9958 H   0  0  0  0  0  0  0  0  0  0  0  0  # atno 8009 bound_to 7997
  155.1448  140.3246  155.4447 H   0  0  0  0  0  0  0  0  0  0  0  0  # atno 8010 bound_to 7997
  139.5023  144.6177  151.6125 H   0  0  0  0  0  0  0  0  0  0  0  0  # atno 10167 bound_to 10162
  156.7046  130.5103  149.5908 H   0  0  0  0  0  0  0  0  0  0  0  0  # atno 10718 bound_to 10713
  153.6913  135.6961  153.5089 H   0  0  0  0  0  0  0  0  0  0  0  0  # atno 10763 bound_to 10752
  153.2411  135.4305  155.0698 H   0  0  0  0  0  0  0  0  0  0  0  0  # atno 10764 bound_to 10752
  154.8372  135.3508  154.6454 H   0  0  0  0  0  0  0  0  0  0  0  0  # atno 10765 bound_to 10752
  140.4939  134.5959  157.4964 H   0  0  0  0  0  0  0  0  0  0  0  0  # atno 11005 bound_to 11000
  145.0278  140.8846  143.5128 LP  0  0  0  0  0  0  0  0  0  0  0  0  # atno 17320 bound_to 7965
  145.1429  139.2561  143.5481 LP  0  0  0  0  0  0  0  0  0  0  0  0  # atno 17321 bound_to 7965
  140.5870  143.9847  150.6301 LP  0  0  0  0  0  0  0  0  0  0  0  0  # atno 17342 bound_to 10162
  140.3015  143.3257  152.0967 LP  0  0  0  0  0  0  0  0  0  0  0  0  # atno 17343 bound_to 10162
  156.1704  130.6433  151.0830 LP  0  0  0  0  0  0  0  0  0  0  0  0  # atno 17370 bound_to 10713
  157.6960  131.0794  150.6968 LP  0  0  0  0  0  0  0  0  0  0  0  0  # atno 17371 bound_to 10713
  139.9753  134.7225  155.9962 LP  0  0  0  0  0  0  0  0  0  0  0  0  # atno 17394 bound_to 11000
  141.1470  133.6554  156.3898 LP  0  0  0  0  0  0  0  0  0  0  0  0  # atno 17395 bound_to 11000

$$$$
