AV-unprocessed.smi:1950|AV-procd|sdf|7880|dock2
  -GOLD-   2272010 33D 1   1.00000     0.00000
 Structure written by MMmdl.
 32 33  0  0  0  0  0  0  0  0  2 V2000
  151.7459  145.2893  160.7008 C   0  0  0  0  0  0  0  0  0  0  0  0
  151.7459  143.7858  160.4156 C   0  0  0  0  0  0  0  0  0  0  0  0
  151.3603  143.0290  161.3071 O   0  0  0  0  0  0  0  0  0  0  0  0
  152.1643  143.3404  159.2063 N   0  0  0  0  0  0  0  0  0  0  0  0
  152.1334  141.9226  158.8279 C   0  0  0  0  0  0  0  0  0  0  0  0
  151.0525  141.7158  157.7513 C   0  0  0  0  0  0  0  0  0  0  0  0
  151.2888  142.6342  156.5335 C   0  0  0  0  0  0  0  0  0  0  0  0
  150.1547  142.5368  155.6184 N   0  0  0  0  0  0  0  0  0  0  0  0
  149.7980  141.4528  154.9142 C   0  0  0  0  0  0  0  0  0  0  0  0
  150.4574  140.4146  155.0051 O   0  0  0  0  0  0  0  0  0  0  0  0
  148.6986  141.6384  154.1484 N   0  5  0  0  0  0  0  0  0  0  0  0
  147.5347  141.9932  154.7177 C   0  0  0  0  0  0  0  0  0  0  0  0
  147.2666  141.7545  156.0115 N   0  0  0  0  0  0  0  0  0  0  0  0
  146.0080  142.1943  156.3987 N   0  0  0  0  0  0  0  0  0  0  0  0
  145.3531  142.7503  155.3799 C   0  0  0  0  0  0  0  0  0  0  0  0
  146.2117  142.7824  153.8544 S   0  0  0  0  0  0  0  0  0  0  0  0
  151.5147  144.0994  156.9718 C   0  0  0  0  0  0  0  0  0  0  0  0
  152.5758  144.1916  158.0827 C   0  0  0  0  0  0  0  0  0  0  0  0
  151.1191  145.8199  159.9838 H   0  0  0  0  0  0  0  0  0  0  0  0
  152.7585  145.6910  160.6538 H   0  0  0  0  0  0  0  0  0  0  0  0
  151.3537  145.4910  161.6982 H   0  0  0  0  0  0  0  0  0  0  0  0
  153.1102  141.6309  158.4394 H   0  0  0  0  0  0  0  0  0  0  0  0
  151.9421  141.2625  159.6750 H   0  0  0  0  0  0  0  0  0  0  0  0
  151.0372  140.6723  157.4349 H   0  0  0  0  0  0  0  0  0  0  0  0
  150.0729  141.9216  158.1858 H   0  0  0  0  0  0  0  0  0  0  0  0
  152.1890  142.2825  156.0260 H   0  0  0  0  0  0  0  0  0  0  0  0
  149.5861  143.3638  155.5097 H   0  0  0  0  0  0  0  0  0  0  0  0
  144.3570  143.1401  155.5268 H   0  0  0  0  0  0  0  0  0  0  0  0
  151.8197  144.7052  156.1180 H   0  0  0  0  0  0  0  0  0  0  0  0
  150.5780  144.5261  157.3340 H   0  0  0  0  0  0  0  0  0  0  0  0
  152.7329  145.2336  158.3570 H   0  0  0  0  0  0  0  0  0  0  0  0
  153.5381  143.8435  157.7049 H   0  0  0  0  0  0  0  0  0  0  0  0
  1  2  1  0  0  0  0
  1 19  1  0  0  0  0
  1 20  1  0  0  0  0
  1 21  1  0  0  0  0
  2  3  2  0  0  0  0
  2  4  1  0  0  0  0
  4 18  1  0  0  0  0
  4  5  1  0  0  0  0
  5  6  1  0  0  0  0
  5 22  1  0  0  0  0
  5 23  1  0  0  0  0
  6  7  1  0  0  0  0
  6 24  1  0  0  0  0
  6 25  1  0  0  0  0
  7  8  1  0  0  0  0
  7 17  1  0  0  0  0
  7 26  1  0  0  0  0
  8  9  1  0  0  0  0
  8 27  1  0  0  0  0
  9 10  2  0  0  0  0
  9 11  1  0  0  0  0
 11 12  1  0  0  0  0
 12 16  1  0  0  0  0
 12 13  2  0  0  0  0
 13 14  1  0  0  0  0
 14 15  2  0  0  0  0
 15 16  1  0  0  0  0
 15 28  1  0  0  0  0
 17 18  1  0  0  0  0
 17 29  1  0  0  0  0
 17 30  1  0  0  0  0
 18 31  1  0  0  0  0
 18 32  1  0  0  0  0
M  CHG  1  11  -1
M  END
> <s_m_source_file>
AV-unprocessed.smi

> <i_m_source_file_index>
1950

> <i_lp_mmshare_version>
43012

> <i_f3d_flags>
0

> <s_epik_input>
W0NIM11DKD1PKU4xW0NIMl1bQ0gyXVtDSF0oW0NIMl1bQ0gyXTEpW05IXUMoPU8pW05IXWMybm5bY0hdczI=

> <s_epik_cmdline>
J2VwaWtfcHl0aG9uJywgJy1waCcsICc3LjAnLCAnLXRuJywgJzgnLCAnLW1hJywgJzIwMCcsICctbWV0YWxfYmluZGluZycsICctaW1hZScsICc8aW5maWxlLm1hZT4nLCAnLW9tYWUnLCAnPG91dGZpbGUubWFlPic=

> <r_lp_tautomer_probability>
1

> <r_epik_Ionization_Penalty>
3.45176

> <r_epik_Ionization_Penalty_Charging>
3.40771

> <r_epik_Ionization_Penalty_Neutral>
0.0440522

> <r_epik_State_Penalty>
3.40583

> <r_epik_Charging_Adjusted_Penalty>
6.81354

> <i_epik_Tot_Q>
-1

> <i_epik_Tot_abs_Q>
1

> <r_epik_Metal_State_Penalty>
0.49593

> <b_epik_Metal_Only>
1

> <s_lp_Force_Field>
OPLS_2005

> <r_lp_Energy>
20.3266

> <b_lp_Chiralities_Consistent>
1

> <s_lp_Variant>
AV-unprocessed.smi:1950-2

> <Gold.Version>
5.8.1

> <Gold.Id.Protein>
6NUR|6NUR_protein|mol2

> <Gold.PLP.Fitness>
41.0145

> <Gold.PLP.PLP>
-35.7502

> <Gold.PLP.part.hbond>
-3.9882

> <Gold.PLP.part.metal>
0.0000

> <Gold.PLP.part.buried>
-0.3627

> <Gold.PLP.part.nonpolar>
-30.4283

> <Gold.PLP.part.repulsive>
0.7906

> <Gold.PLP.ligand.clash>
0.0000

> <Gold.PLP.ligand.torsion>
0.7285

> <Gold.PLP.Chemscore.Hbond>
2.2347

> <Gold.PLP.Chemscore.CHOScore>
0.0000

> <Gold.PLP.Chemscore.Metal>
0.0000

> <Gold.Chemscore.Hbonds>
donor molecule, donor type, donor heavy atom, donor atom, acceptor molecule, acceptor atom, score
      L1  H     8    27       P1  8028  0.99
      P1  H  6933  6945       L1     3  0.37
      P1  H  7989  7998       L1    10  0.65
      P1  H  8011  8017       L1    11  0.20

> <Gold.PLP.Chemscore.Internal.Correction>
0.0173

> <Gold.Rescore>
     Score         DG    S(hbond)    S(metal)    S(lipo)     H(rot)  DE(clash)    DE(int)     intcor
     14.76     -16.60       1.53        0.00      73.24       1.00       0.51       1.33       ----

> <Gold.Chemscore.Fitness>
14.7583

> <Gold.Chemscore.DG>
-16.5976

> <Gold.Chemscore.ZeroCoef>
-5.4800

> <Gold.Chemscore.Hbond>
1.5295

> <Gold.Chemscore.Metal>
0.0000

> <Gold.Chemscore.Lipo>
73.2404

> <Gold.Chemscore.Internal_Hbond>
0.0000

> <Gold.Chemscore.DEClash>
0.5074

> <Gold.Chemscore.DEInternal>
1.3319

> <Gold.Chemscore.Rot>
1.0000

> <Gold.Chemscore.Internal.Correction>
   9.000000E+99

> <Gold.Chemscore.Hbonds>
donor molecule, donor type, donor heavy atom, donor atom, acceptor molecule, acceptor atom, score
      L1  H     8    27       P1  8028  0.92
      P1  H  6933  6945       L1     3  0.35
      P1  H  7989  7998       L1    10  0.05
      P1  H  8011  8017       L1    11  0.03

> <Gold.Chemscore.Hbond.Weighted>
-5.1084

> <Gold.Chemscore.Metal.Weighted>
-0.0000

> <Gold.Chemscore.Lipo.Weighted>
-8.5691

> <Gold.Chemscore.Internal_Hbond.Weighted>
0.0000

> <Gold.Chemscore.DEClash.Weighted>
0.5074

> <Gold.Chemscore.DEInternal.Weighted>
1.3319

> <Gold.Chemscore.Rot.Weighted>
2.5600

> <Gold.Chemscore.Internal.Correction.Weighted>
   9.000000E+99

> <Gold.Protein.RotatedTorsions>
[ 6907 6896 6895 6894 ] final  141.05 input  -60.11 | X-H torsion
[ 7974 7965 7964 7962 ] final  -67.43 input  175.53 | X-H torsion
[ 8008 7997 7996 7995 ] final  -93.10 input   59.86 | X-H torsion
[ 10167 10162 10161 10158 ] final -160.54 input  -65.29 | X-H torsion
[ 10718 10713 10712 10709 ] final   23.05 input   66.30 | X-H torsion
[ 10763 10752 10751 10750 ] final -152.62 input  -60.55 | X-H torsion
[ 11005 11000 10999 10996 ] final   67.96 input  -57.11 | X-H torsion

> <Gold.Protein.ActiveResidues>
 VAL166  LYS551  ARG553  GLY616  TRP617  ASP618  TYR619  PRO620  LYS621  CYS622 
 ASP623  PHE694  ASN695  SER759  ASP760  ASP761  ALA762  ILE779  LEU786  VAL792 
 PHE793  MET794  SER795  GLU796  ALA797  LYS798  CYS799  TRP800  GLU811  SER814 

> <Gold.Protein.RotatedAtoms>
  152.2357  133.5094  159.5240 H   0  0  0  0  0  0  0  0  0  0  0  0  # atno 6907 bound_to 6896
  150.7050  134.1156  159.4025 H   0  0  0  0  0  0  0  0  0  0  0  0  # atno 6908 bound_to 6896
  151.9078  135.0351  160.0562 H   0  0  0  0  0  0  0  0  0  0  0  0  # atno 6909 bound_to 6896
  145.7293  140.9004  143.0589 H   0  0  0  0  0  0  0  0  0  0  0  0  # atno 7974 bound_to 7965
  154.7314  140.0502  157.0730 H   0  0  0  0  0  0  0  0  0  0  0  0  # atno 8008 bound_to 7997
  155.0297  140.3156  155.4744 H   0  0  0  0  0  0  0  0  0  0  0  0  # atno 8009 bound_to 7997
  156.2842  140.2152  156.5417 H   0  0  0  0  0  0  0  0  0  0  0  0  # atno 8010 bound_to 7997
  139.6532  144.0046  152.2176 H   0  0  0  0  0  0  0  0  0  0  0  0  # atno 10167 bound_to 10162
  157.1608  130.6716  149.6043 H   0  0  0  0  0  0  0  0  0  0  0  0  # atno 10718 bound_to 10713
  154.7982  135.3232  154.7615 H   0  0  0  0  0  0  0  0  0  0  0  0  # atno 10763 bound_to 10752
  153.8289  135.6881  153.4821 H   0  0  0  0  0  0  0  0  0  0  0  0  # atno 10764 bound_to 10752
  153.1684  135.4633  154.9812 H   0  0  0  0  0  0  0  0  0  0  0  0  # atno 10765 bound_to 10752
  139.9740  134.6853  156.0391 H   0  0  0  0  0  0  0  0  0  0  0  0  # atno 11005 bound_to 11000
  144.6897  139.9309  143.7471 LP  0  0  0  0  0  0  0  0  0  0  0  0  # atno 17320 bound_to 7965
  146.0553  139.3550  143.0614 LP  0  0  0  0  0  0  0  0  0  0  0  0  # atno 17321 bound_to 7965
  139.9766  144.6457  150.7939 LP  0  0  0  0  0  0  0  0  0  0  0  0  # atno 17342 bound_to 10162
  140.7547  143.3032  151.3027 LP  0  0  0  0  0  0  0  0  0  0  0  0  # atno 17343 bound_to 10162
  155.9754  130.4712  150.6458 LP  0  0  0  0  0  0  0  0  0  0  0  0  # atno 17370 bound_to 10713
  157.4134  131.0827  151.1199 LP  0  0  0  0  0  0  0  0  0  0  0  0  # atno 17371 bound_to 10713
  141.1418  133.6563  156.3752 LP  0  0  0  0  0  0  0  0  0  0  0  0  # atno 17394 bound_to 11000
  140.5234  134.6282  157.5326 LP  0  0  0  0  0  0  0  0  0  0  0  0  # atno 17395 bound_to 11000

$$$$
