AV-unprocessed.smi:2509|AV-procd|sdf|9869|dock2
  -GOLD-   2272013503D 1   1.00000     0.00000
 Structure written by MMmdl.
 45 46  0  0  0  0  0  0  0  0  1 V2000
  150.9913  142.7650  156.4241 C   0  0  0  0  0  0  0  0  0  0  0  0
  150.5057  141.4381  157.0543 C   0  0  0  0  0  0  0  0  0  0  0  0
  151.7774  140.7119  157.5526 C   0  0  0  0  0  0  0  0  0  0  0  0
  149.5831  141.7424  158.2487 C   0  0  0  0  0  0  0  0  0  0  0  0
  149.7471  140.5812  156.0260 C   0  0  0  0  0  0  0  0  0  0  0  0
  148.5847  140.0446  156.4187 N   0  0  0  0  0  0  0  0  0  0  0  0
  147.9725  139.1901  155.5729 C   0  0  0  0  0  0  0  0  0  0  0  0
  148.5358  138.8322  154.3319 C   0  0  0  0  0  0  0  0  0  0  0  0
  147.8210  137.9307  153.4969 N   0  0  0  0  0  0  0  0  0  0  0  0
  146.4971  137.7158  153.4165 C   0  0  0  0  0  0  0  0  0  0  0  0
  145.6328  138.3176  154.0523 O   0  0  0  0  0  0  0  0  0  0  0  0
  146.2219  136.7395  152.5407 N   0  0  0  0  0  0  0  0  0  0  0  0
  144.8886  136.2233  152.2510 C   0  0  0  0  0  0  0  0  0  0  0  0
  144.8309  134.6804  152.2783 C   0  0  1  0  0  0  0  0  0  0  0  0
  143.4921  134.1290  151.7601 C   0  0  0  0  0  0  0  0  0  0  0  0
  143.7978  132.7889  151.0725 C   0  0  0  0  0  0  0  0  0  0  0  0
  145.3071  132.5728  151.2056 C   0  0  0  0  0  0  0  0  0  0  0  0
  145.8837  133.9731  151.4111 C   0  0  2  0  0  0  0  0  0  0  0  0
  147.1530  133.9060  152.0290 O   0  0  0  0  0  0  0  0  0  0  0  0
  149.7864  139.4251  154.0333 C   0  0  0  0  0  0  0  0  0  0  0  0
  150.3875  140.2790  154.8892 N   0  0  0  0  0  0  0  0  0  0  0  0
  151.5699  143.3544  157.1364 H   0  0  0  0  0  0  0  0  0  0  0  0
  150.1605  143.3929  156.1000 H   0  0  0  0  0  0  0  0  0  0  0  0
  151.6272  142.5836  155.5567 H   0  0  0  0  0  0  0  0  0  0  0  0
  152.4395  140.4576  156.7240 H   0  0  0  0  0  0  0  0  0  0  0  0
  151.5406  139.7886  158.0825 H   0  0  0  0  0  0  0  0  0  0  0  0
  152.3442  141.3347  158.2454 H   0  0  0  0  0  0  0  0  0  0  0  0
  150.0875  142.3560  158.9958 H   0  0  0  0  0  0  0  0  0  0  0  0
  149.2580  140.8253  158.7414 H   0  0  0  0  0  0  0  0  0  0  0  0
  148.6890  142.2795  157.9310 H   0  0  0  0  0  0  0  0  0  0  0  0
  147.0248  138.7843  155.8956 H   0  0  0  0  0  0  0  0  0  0  0  0
  148.3944  137.3636  152.8896 H   0  0  0  0  0  0  0  0  0  0  0  0
  146.9936  136.2980  152.0625 H   0  0  0  0  0  0  0  0  0  0  0  0
  144.1729  136.6399  152.9619 H   0  0  0  0  0  0  0  0  0  0  0  0
  144.5931  136.5905  151.2679 H   0  0  0  0  0  0  0  0  0  0  0  0
  144.9454  134.3344  153.3074 H   0  0  0  0  0  0  0  0  0  0  0  0
  142.7746  134.0121  152.5730 H   0  0  0  0  0  0  0  0  0  0  0  0
  143.0464  134.8114  151.0349 H   0  0  0  0  0  0  0  0  0  0  0  0
  143.2375  131.9648  151.5156 H   0  0  0  0  0  0  0  0  0  0  0  0
  143.5194  132.8438  150.0195 H   0  0  0  0  0  0  0  0  0  0  0  0
  145.5021  131.9557  152.0843 H   0  0  0  0  0  0  0  0  0  0  0  0
  145.7366  132.0634  150.3425 H   0  0  0  0  0  0  0  0  0  0  0  0
  145.9758  134.4764  150.4475 H   0  0  0  0  0  0  0  0  0  0  0  0
  147.5503  134.7627  151.9918 H   0  0  0  0  0  0  0  0  0  0  0  0
  150.3289  139.2354  153.1213 H   0  0  0  0  0  0  0  0  0  0  0  0
  1  2  1  0  0  0  0
  1 22  1  0  0  0  0
  1 23  1  0  0  0  0
  1 24  1  0  0  0  0
  2  3  1  0  0  0  0
  2  4  1  0  0  0  0
  2  5  1  0  0  0  0
  3 25  1  0  0  0  0
  3 26  1  0  0  0  0
  3 27  1  0  0  0  0
  4 28  1  0  0  0  0
  4 29  1  0  0  0  0
  4 30  1  0  0  0  0
  5 21  1  0  0  0  0
  5  6  2  0  0  0  0
  6  7  1  0  0  0  0
  7  8  2  0  0  0  0
  7 31  1  0  0  0  0
  8  9  1  0  0  0  0
  8 20  1  0  0  0  0
  9 10  1  0  0  0  0
  9 32  1  0  0  0  0
 10 11  2  0  0  0  0
 10 12  1  0  0  0  0
 12 13  1  0  0  0  0
 12 33  1  0  0  0  0
 13 14  1  0  0  0  0
 13 34  1  0  0  0  0
 13 35  1  0  0  0  0
 14 18  1  0  0  0  0
 14 15  1  0  0  0  0
 14 36  1  0  0  0  0
 15 16  1  0  0  0  0
 15 37  1  0  0  0  0
 15 38  1  0  0  0  0
 16 17  1  0  0  0  0
 16 39  1  0  0  0  0
 16 40  1  0  0  0  0
 17 18  1  0  0  0  0
 17 41  1  0  0  0  0
 17 42  1  0  0  0  0
 18 19  1  0  0  0  0
 18 43  1  0  0  0  0
 19 44  1  0  0  0  0
 20 21  2  0  0  0  0
 20 45  1  0  0  0  0
M  END
> <s_m_source_file>
AV-unprocessed.smi

> <i_m_source_file_index>
2509

> <i_lp_mmshare_version>
43012

> <i_f3d_flags>
0

> <s_epik_input>
W0NIM11DKFtDSDNdKShbQ0gzXSljMW5bY0hdYyhbY0hdbjEpW05IXUMoPU8pW05IXVtDSDJdW0NAQEhdMltDSDJdW0NIMl1bQ0gyXVtDQEhdMltPSF0=

> <s_epik_cmdline>
J2VwaWtfcHl0aG9uJywgJy1waCcsICc3LjAnLCAnLXRuJywgJzgnLCAnLW1hJywgJzIwMCcsICctbWV0YWxfYmluZGluZycsICctaW1hZScsICc8aW5maWxlLm1hZT4nLCAnLW9tYWUnLCAnPG91dGZpbGUubWFlPic=

> <r_lp_tautomer_probability>
1

> <r_epik_Ionization_Penalty>
2.77586e-05

> <r_epik_Ionization_Penalty_Charging>
0

> <r_epik_Ionization_Penalty_Neutral>
2.77586e-05

> <r_epik_State_Penalty>
-0

> <r_epik_Charging_Adjusted_Penalty>
0

> <i_epik_Tot_Q>
0

> <i_epik_Tot_abs_Q>
0

> <r_epik_Metal_State_Penalty>
-0

> <b_epik_Metal_Only>
0

> <s_lp_Force_Field>
OPLS_2005

> <r_lp_Energy>
20.408

> <b_lp_Chiralities_Consistent>
1

> <s_lp_Variant>
AV-unprocessed.smi:2509-4

> <Gold.Version>
5.8.1

> <Gold.Id.Protein>
6NUR|6NUR_protein|mol2

> <Gold.PLP.Fitness>
40.7457

> <Gold.PLP.PLP>
-28.6141

> <Gold.PLP.part.hbond>
-4.0000

> <Gold.PLP.part.metal>
0.0000

> <Gold.PLP.part.buried>
-3.0083

> <Gold.PLP.part.nonpolar>
-21.8808

> <Gold.PLP.part.repulsive>
0.2597

> <Gold.PLP.ligand.clash>
0.0000

> <Gold.PLP.ligand.torsion>
0.4811

> <Gold.PLP.Chemscore.Hbond>
3.4780

> <Gold.PLP.Chemscore.CHOScore>
0.8371

> <Gold.PLP.Chemscore.Metal>
0.0000

> <Gold.Chemscore.Hbonds>
donor molecule, donor type, donor heavy atom, donor atom, acceptor molecule, acceptor atom, score
      L1  H     9    32       P1  7948  1.00
      L1  H    12    33       P1  7948  0.93
      L1  H    19    44       P1  7948  1.00
      P1  H  7989  7998       L1    21  0.55
      L1  C    20    45       P1  7957  0.84

> <Gold.PLP.Chemscore.Internal.Correction>
0.1487

> <Gold.Rescore>
     Score         DG    S(hbond)    S(metal)    S(lipo)     H(rot)  DE(clash)    DE(int)     intcor
     15.54     -18.42       2.87        0.00      70.39       1.91       0.22       2.66       ----

> <Gold.Chemscore.Fitness>
15.5431

> <Gold.Chemscore.DG>
-18.4168

> <Gold.Chemscore.ZeroCoef>
-5.4800

> <Gold.Chemscore.Hbond>
2.8728

> <Gold.Chemscore.Metal>
0.0000

> <Gold.Chemscore.Lipo>
70.3855

> <Gold.Chemscore.Internal_Hbond>
0.0000

> <Gold.Chemscore.DEClash>
0.2182

> <Gold.Chemscore.DEInternal>
2.6554

> <Gold.Chemscore.Rot>
1.9116

> <Gold.Chemscore.Internal.Correction>
   9.000000E+99

> <Gold.Chemscore.Hbonds>
donor molecule, donor type, donor heavy atom, donor atom, acceptor molecule, acceptor atom, score
      L1  H     9    32       P1  7948  0.99
      L1  H    12    33       P1  7948  0.90
      L1  H    19    44       P1  7948  0.68
      P1  H  7989  7998       L1    21  0.03

> <Gold.Chemscore.Hbond.Weighted>
-9.5952

> <Gold.Chemscore.Metal.Weighted>
-0.0000

> <Gold.Chemscore.Lipo.Weighted>
-8.2351

> <Gold.Chemscore.Internal_Hbond.Weighted>
0.0000

> <Gold.Chemscore.DEClash.Weighted>
0.2182

> <Gold.Chemscore.DEInternal.Weighted>
2.6554

> <Gold.Chemscore.Rot.Weighted>
4.8936

> <Gold.Chemscore.Internal.Correction.Weighted>
   9.000000E+99

> <Gold.Protein.RotatedTorsions>
[ 6907 6896 6895 6894 ] final  -35.71 input  -60.11 | X-H torsion
[ 7974 7965 7964 7962 ] final -167.86 input  175.53 | X-H torsion
[ 8008 7997 7996 7995 ] final  124.46 input   59.86 | X-H torsion
[ 10167 10162 10161 10158 ] final  177.27 input  -65.29 | X-H torsion
[ 10718 10713 10712 10709 ] final  106.16 input   66.30 | X-H torsion
[ 10763 10752 10751 10750 ] final   37.01 input  -60.55 | X-H torsion
[ 11005 11000 10999 10996 ] final   97.87 input  -57.11 | X-H torsion

> <Gold.Protein.ActiveResidues>
 VAL166  LYS551  ARG553  GLY616  TRP617  ASP618  TYR619  PRO620  LYS621  CYS622 
 ASP623  PHE694  ASN695  SER759  ASP760  ASP761  ALA762  ILE779  LEU786  VAL792 
 PHE793  MET794  SER795  GLU796  ALA797  LYS798  CYS799  TRP800  GLU811  SER814 

> <Gold.Protein.RotatedAtoms>
  151.0364  134.9576  159.8137 H   0  0  0  0  0  0  0  0  0  0  0  0  # atno 6907 bound_to 6896
  152.5355  134.2715  159.8983 H   0  0  0  0  0  0  0  0  0  0  0  0  # atno 6908 bound_to 6896
  151.2725  133.4206  159.2656 H   0  0  0  0  0  0  0  0  0  0  0  0  # atno 6909 bound_to 6896
  144.7214  140.2455  143.6285 H   0  0  0  0  0  0  0  0  0  0  0  0  # atno 7974 bound_to 7965
  156.2802  140.2739  156.1791 H   0  0  0  0  0  0  0  0  0  0  0  0  # atno 8008 bound_to 7997
  155.0575  140.0386  157.2583 H   0  0  0  0  0  0  0  0  0  0  0  0  # atno 8009 bound_to 7997
  154.7144  140.2675  155.6604 H   0  0  0  0  0  0  0  0  0  0  0  0  # atno 8010 bound_to 7997
  139.5246  144.2818  152.0540 H   0  0  0  0  0  0  0  0  0  0  0  0  # atno 10167 bound_to 10162
  157.6679  131.0844  150.5964 H   0  0  0  0  0  0  0  0  0  0  0  0  # atno 10718 bound_to 10713
  153.0054  135.6289  154.2077 H   0  0  0  0  0  0  0  0  0  0  0  0  # atno 10763 bound_to 10752
  154.1821  135.2813  155.3050 H   0  0  0  0  0  0  0  0  0  0  0  0  # atno 10764 bound_to 10752
  154.5827  135.5642  153.7260 H   0  0  0  0  0  0  0  0  0  0  0  0  # atno 10765 bound_to 10752
  139.8774  134.9021  156.4371 H   0  0  0  0  0  0  0  0  0  0  0  0  # atno 11005 bound_to 11000
  145.8278  139.2072  143.1900 LP  0  0  0  0  0  0  0  0  0  0  0  0  # atno 17320 bound_to 7965
  146.0457  140.8120  142.9806 LP  0  0  0  0  0  0  0  0  0  0  0  0  # atno 17321 bound_to 7965
  140.2273  144.4405  150.6315 LP  0  0  0  0  0  0  0  0  0  0  0  0  # atno 17342 bound_to 10162
  140.6379  143.2198  151.6355 LP  0  0  0  0  0  0  0  0  0  0  0  0  # atno 17343 bound_to 10162
  156.6265  130.4420  149.5802 LP  0  0  0  0  0  0  0  0  0  0  0  0  # atno 17370 bound_to 10713
  156.2315  130.6797  151.1468 LP  0  0  0  0  0  0  0  0  0  0  0  0  # atno 17371 bound_to 10713
  140.9026  133.7769  155.9697 LP  0  0  0  0  0  0  0  0  0  0  0  0  # atno 17394 bound_to 11000
  140.8634  134.2813  157.5224 LP  0  0  0  0  0  0  0  0  0  0  0  0  # atno 17395 bound_to 11000

$$$$
