AV-unprocessed.smi:2233|AV-procd|sdf|9041|dock4
  -GOLD-   2272012253D 1   1.00000     0.00000
 Structure written by MMmdl.
 42 43  0  0  0  0  0  0  0  0  1 V2000
  149.8943  144.7277  159.7706 C   0  0  0  0  0  0  0  0  0  0  0  0
  150.9449  144.5489  160.3667 C   0  0  0  0  0  0  0  0  0  0  0  0
  152.2209  144.3295  161.0703 C   0  0  0  0  0  0  0  0  0  0  0  0
  152.5144  142.8608  161.4275 C   0  0  0  0  0  0  0  0  0  0  0  0
  153.0652  142.0227  160.2593 C   0  0  0  0  0  0  0  0  0  0  0  0
  152.0902  141.9666  159.0693 C   0  0  0  0  0  0  0  0  0  0  0  0
  152.3272  140.7691  158.1426 C   0  0  0  0  0  0  0  0  0  0  0  0
  153.2686  140.0031  158.3480 O   0  0  0  0  0  0  0  0  0  0  0  0
  151.4402  140.6328  157.1412 N   0  0  0  0  0  0  0  0  0  0  0  0
  151.3946  139.6396  156.1216 C   0  0  0  0  0  0  0  0  0  0  0  0
  152.3787  138.6296  155.9806 C   0  0  0  0  0  0  0  0  0  0  0  0
  152.3600  137.6999  155.0026 N   0  0  0  0  0  0  0  0  0  0  0  0
  151.3508  137.7414  154.1099 C   0  0  0  0  0  0  0  0  0  0  0  0
  150.3289  138.7087  154.1439 C   0  0  0  0  0  0  0  0  0  0  0  0
  150.3504  139.6848  155.1653 C   0  0  0  0  0  0  0  0  0  0  0  0
  149.3540  140.6716  155.2461 N   0  0  0  0  0  0  0  0  0  0  0  0
  148.5740  140.8456  154.0277 C   0  0  0  0  0  0  0  0  0  0  0  0
  147.6300  142.0502  154.1832 C   0  0  0  0  0  0  0  0  0  0  0  0
  146.8068  141.8642  155.3316 O   0  0  0  0  0  0  0  0  0  0  0  0
  147.5719  141.7621  156.5301 C   0  0  0  0  0  0  0  0  0  0  0  0
  148.5228  140.5559  156.4365 C   0  0  0  0  0  0  0  0  0  0  0  0
  148.9788  144.8841  159.2455 H   0  0  0  0  0  0  0  0  0  0  0  0
  153.0186  144.7333  160.4463 H   0  0  0  0  0  0  0  0  0  0  0  0
  152.1961  144.9322  161.9787 H   0  0  0  0  0  0  0  0  0  0  0  0
  153.2358  142.8425  162.2452 H   0  0  0  0  0  0  0  0  0  0  0  0
  151.6090  142.3928  161.8167 H   0  0  0  0  0  0  0  0  0  0  0  0
  154.0174  142.4384  159.9273 H   0  0  0  0  0  0  0  0  0  0  0  0
  153.2738  141.0109  160.6100 H   0  0  0  0  0  0  0  0  0  0  0  0
  151.0652  141.9320  159.4415 H   0  0  0  0  0  0  0  0  0  0  0  0
  152.1769  142.8779  158.4764 H   0  0  0  0  0  0  0  0  0  0  0  0
  150.6606  141.2748  157.1503 H   0  0  0  0  0  0  0  0  0  0  0  0
  153.2254  138.5636  156.6461 H   0  0  0  0  0  0  0  0  0  0  0  0
  151.3599  136.9833  153.3408 H   0  0  0  0  0  0  0  0  0  0  0  0
  149.5462  138.6937  153.3998 H   0  0  0  0  0  0  0  0  0  0  0  0
  149.2418  140.9976  153.1790 H   0  0  0  0  0  0  0  0  0  0  0  0
  147.9911  139.9463  153.8256 H   0  0  0  0  0  0  0  0  0  0  0  0
  148.1960  142.9787  154.2748 H   0  0  0  0  0  0  0  0  0  0  0  0
  146.9958  142.1484  153.3021 H   0  0  0  0  0  0  0  0  0  0  0  0
  148.1306  142.6846  156.6963 H   0  0  0  0  0  0  0  0  0  0  0  0
  146.8944  141.6425  157.3755 H   0  0  0  0  0  0  0  0  0  0  0  0
  147.9464  139.6307  156.3938 H   0  0  0  0  0  0  0  0  0  0  0  0
  149.1517  140.5047  157.3263 H   0  0  0  0  0  0  0  0  0  0  0  0
  1  2  3  0  0  0  0
  1 22  1  0  0  0  0
  2  3  1  0  0  0  0
  3  4  1  0  0  0  0
  3 23  1  0  0  0  0
  3 24  1  0  0  0  0
  4  5  1  0  0  0  0
  4 25  1  0  0  0  0
  4 26  1  0  0  0  0
  5  6  1  0  0  0  0
  5 27  1  0  0  0  0
  5 28  1  0  0  0  0
  6  7  1  0  0  0  0
  6 29  1  0  0  0  0
  6 30  1  0  0  0  0
  7  8  2  0  0  0  0
  7  9  1  0  0  0  0
  9 10  1  0  0  0  0
  9 31  1  0  0  0  0
 10 15  1  0  0  0  0
 10 11  2  0  0  0  0
 11 12  1  0  0  0  0
 11 32  1  0  0  0  0
 12 13  2  0  0  0  0
 13 14  1  0  0  0  0
 13 33  1  0  0  0  0
 14 15  2  0  0  0  0
 14 34  1  0  0  0  0
 15 16  1  0  0  0  0
 16 21  1  0  0  0  0
 16 17  1  0  0  0  0
 17 18  1  0  0  0  0
 17 35  1  0  0  0  0
 17 36  1  0  0  0  0
 18 19  1  0  0  0  0
 18 37  1  0  0  0  0
 18 38  1  0  0  0  0
 19 20  1  0  0  0  0
 20 21  1  0  0  0  0
 20 39  1  0  0  0  0
 20 40  1  0  0  0  0
 21 41  1  0  0  0  0
 21 42  1  0  0  0  0
M  END
> <s_m_source_file>
AV-unprocessed.smi

> <i_m_source_file_index>
2233

> <i_lp_mmshare_version>
43012

> <i_f3d_flags>
0

> <s_epik_input>
W0NIXSNDW0NIMl1bQ0gyXVtDSDJdW0NIMl1DKD1PKVtOSF1jMVtjSF1uW2NIXVtjSF1jMU4yW0NIMl1bQ0gyXU9bQ0gyXVtDSDJdMg==

> <s_epik_cmdline>
J2VwaWtfcHl0aG9uJywgJy1waCcsICc3LjAnLCAnLXRuJywgJzgnLCAnLW1hJywgJzIwMCcsICctbWV0YWxfYmluZGluZycsICctaW1hZScsICc8aW5maWxlLm1hZT4nLCAnLW9tYWUnLCAnPG91dGZpbGUubWFlPic=

> <r_lp_tautomer_probability>
1

> <r_epik_Ionization_Penalty>
0.8765

> <r_epik_Ionization_Penalty_Charging>
0

> <r_epik_Ionization_Penalty_Neutral>
0.8765

> <r_epik_State_Penalty>
0.914306

> <r_epik_Charging_Adjusted_Penalty>
0.914306

> <i_epik_Tot_Q>
0

> <i_epik_Tot_abs_Q>
0

> <r_epik_Metal_State_Penalty>
0.361009

> <b_epik_Metal_Only>
0

> <s_lp_Force_Field>
OPLS_2005

> <r_lp_Energy>
23.7364

> <b_lp_Chiralities_Consistent>
1

> <s_lp_Variant>
AV-unprocessed.smi:2233-2

> <Gold.Version>
5.8.1

> <Gold.Id.Protein>
6NUR|6NUR_protein|mol2

> <Gold.PLP.Fitness>
49.3345

> <Gold.PLP.PLP>
-43.2278

> <Gold.PLP.part.hbond>
-2.0000

> <Gold.PLP.part.metal>
0.0000

> <Gold.PLP.part.buried>
-5.2785

> <Gold.PLP.part.nonpolar>
-36.6514

> <Gold.PLP.part.repulsive>
0.3534

> <Gold.PLP.ligand.clash>
0.0000

> <Gold.PLP.ligand.torsion>
0.4743

> <Gold.PLP.Chemscore.Hbond>
1.3017

> <Gold.PLP.Chemscore.CHOScore>
1.0000

> <Gold.PLP.Chemscore.Metal>
0.0000

> <Gold.Chemscore.Hbonds>
donor molecule, donor type, donor heavy atom, donor atom, acceptor molecule, acceptor atom, score
      P1  H  7997  8009       L1     8  1.00
      P1  H 10752 10763       L1    12  0.29
      L1  C    13    33       P1  7949  1.00

> <Gold.PLP.Chemscore.Internal.Correction>
0.1502

> <Gold.Rescore>
     Score         DG    S(hbond)    S(metal)    S(lipo)     H(rot)  DE(clash)    DE(int)     intcor
     16.48     -19.40       1.24        0.00     116.18       1.49       0.24       2.68       ----

> <Gold.Chemscore.Fitness>
16.4796

> <Gold.Chemscore.DG>
-19.4040

> <Gold.Chemscore.ZeroCoef>
-5.4800

> <Gold.Chemscore.Hbond>
1.2397

> <Gold.Chemscore.Metal>
0.0000

> <Gold.Chemscore.Lipo>
116.1820

> <Gold.Chemscore.Internal_Hbond>
0.0000

> <Gold.Chemscore.DEClash>
0.2439

> <Gold.Chemscore.DEInternal>
2.6804

> <Gold.Chemscore.Rot>
1.4882

> <Gold.Chemscore.Internal.Correction>
   9.000000E+99

> <Gold.Chemscore.Hbonds>
donor molecule, donor type, donor heavy atom, donor atom, acceptor molecule, acceptor atom, score
      P1  H  7997  8009       L1     8  0.91
      P1  H 10752 10763       L1    12  0.05

> <Gold.Chemscore.Hbond.Weighted>
-4.1406

> <Gold.Chemscore.Metal.Weighted>
-0.0000

> <Gold.Chemscore.Lipo.Weighted>
-13.5933

> <Gold.Chemscore.Internal_Hbond.Weighted>
0.0000

> <Gold.Chemscore.DEClash.Weighted>
0.2439

> <Gold.Chemscore.DEInternal.Weighted>
2.6804

> <Gold.Chemscore.Rot.Weighted>
3.8099

> <Gold.Chemscore.Internal.Correction.Weighted>
   9.000000E+99

> <Gold.Protein.RotatedTorsions>
[ 6907 6896 6895 6894 ] final  -51.11 input  -60.11 | X-H torsion
[ 7974 7965 7964 7962 ] final  -26.91 input  175.53 | X-H torsion
[ 8008 7997 7996 7995 ] final  146.09 input   59.86 | X-H torsion
[ 10167 10162 10161 10158 ] final   -5.06 input  -65.29 | X-H torsion
[ 10718 10713 10712 10709 ] final   53.94 input   66.30 | X-H torsion
[ 10763 10752 10751 10750 ] final   60.99 input  -60.55 | X-H torsion
[ 11005 11000 10999 10996 ] final   60.05 input  -57.11 | X-H torsion

> <Gold.Protein.ActiveResidues>
 VAL166  LYS551  ARG553  GLY616  TRP617  ASP618  TYR619  PRO620  LYS621  CYS622 
 ASP623  PHE694  ASN695  SER759  ASP760  ASP761  ALA762  ILE779  LEU786  VAL792 
 PHE793  MET794  SER795  GLU796  ALA797  LYS798  CYS799  TRP800  GLU811  SER814 

> <Gold.Protein.RotatedAtoms>
  150.8642  134.8002  159.7105 H   0  0  0  0  0  0  0  0  0  0  0  0  # atno 6907 bound_to 6896
  152.4669  134.5050  159.9746 H   0  0  0  0  0  0  0  0  0  0  0  0  # atno 6908 bound_to 6896
  151.5149  133.3439  159.2927 H   0  0  0  0  0  0  0  0  0  0  0  0  # atno 6909 bound_to 6896
  146.1394  140.5082  142.8659 H   0  0  0  0  0  0  0  0  0  0  0  0  # atno 7974 bound_to 7965
  156.2865  140.2192  156.5320 H   0  0  0  0  0  0  0  0  0  0  0  0  # atno 8008 bound_to 7997
  154.7441  140.0485  157.0858 H   0  0  0  0  0  0  0  0  0  0  0  0  # atno 8009 bound_to 7997
  155.0193  140.3122  155.4802 H   0  0  0  0  0  0  0  0  0  0  0  0  # atno 8010 bound_to 7997
  140.6950  143.6352  150.8486 H   0  0  0  0  0  0  0  0  0  0  0  0  # atno 10167 bound_to 10162
  157.5212  130.8566  149.8561 H   0  0  0  0  0  0  0  0  0  0  0  0  # atno 10718 bound_to 10713
  152.9937  135.5516  154.5963 H   0  0  0  0  0  0  0  0  0  0  0  0  # atno 10763 bound_to 10752
  154.5314  135.2814  155.1179 H   0  0  0  0  0  0  0  0  0  0  0  0  # atno 10764 bound_to 10752
  154.2493  135.6402  153.5287 H   0  0  0  0  0  0  0  0  0  0  0  0  # atno 10765 bound_to 10752
  140.0260  134.6083  155.9573 H   0  0  0  0  0  0  0  0  0  0  0  0  # atno 11005 bound_to 11000
  144.7775  140.5771  143.6628 LP  0  0  0  0  0  0  0  0  0  0  0  0  # atno 17320 bound_to 7965
  145.5082  139.1480  143.3619 LP  0  0  0  0  0  0  0  0  0  0  0  0  # atno 17321 bound_to 7965
  140.0069  143.5684  152.2854 LP  0  0  0  0  0  0  0  0  0  0  0  0  # atno 17342 bound_to 10162
  139.6394  144.7653  151.2370 LP  0  0  0  0  0  0  0  0  0  0  0  0  # atno 17343 bound_to 10162
  156.0355  130.3752  150.1573 LP  0  0  0  0  0  0  0  0  0  0  0  0  # atno 17370 bound_to 10713
  156.9760  130.9849  151.3448 LP  0  0  0  0  0  0  0  0  0  0  0  0  # atno 17371 bound_to 10713
  141.1803  133.6545  156.4991 LP  0  0  0  0  0  0  0  0  0  0  0  0  # atno 17394 bound_to 11000
  140.4307  134.7105  157.4940 LP  0  0  0  0  0  0  0  0  0  0  0  0  # atno 17395 bound_to 11000

$$$$
