AV-unprocessed.smi:2063|AV-procd|sdf|8409|dock2
  -GOLD-   2272011 93D 1   1.00000     0.00000
 Structure written by MMmdl.
 39 40  0  0  0  0  0  0  0  0  1 V2000
  151.8937  141.0847  157.5040 C   0  0  0  0  0  0  0  0  0  0  0  0
  150.6948  141.4954  156.6367 C   0  0  0  0  0  0  0  0  0  0  0  0
  149.5268  142.0403  157.4711 C   0  0  0  0  0  0  0  0  0  0  0  0
  150.2601  140.3904  155.7237 C   0  0  0  0  0  0  0  0  0  0  0  0
  151.0782  139.8432  154.8154 N   0  0  0  0  0  0  0  0  0  0  0  0
  150.4590  138.8422  154.0803 N   0  0  0  0  0  0  0  0  0  0  0  0
  149.1856  138.6609  154.4554 C   0  0  0  0  0  0  0  0  0  0  0  0
  148.3192  137.6998  153.8704 N   0  0  0  0  0  0  0  0  0  0  0  0
  147.0046  137.5197  154.0881 C   0  0  0  0  0  0  0  0  0  0  0  0
  146.3159  138.1783  154.8679 O   0  0  0  0  0  0  0  0  0  0  0  0
  146.5252  136.5143  153.3410 N   0  0  0  0  0  0  0  0  0  0  0  0
  145.1438  136.0375  153.3384 C   0  0  1  0  0  0  0  0  0  0  0  0
  144.2301  137.1933  152.9023 C   0  0  0  0  0  0  0  0  0  0  0  0
  145.0161  134.8096  152.4134 C   0  0  2  0  0  0  0  0  0  0  0  0
  145.1127  135.1197  150.9195 C   0  0  0  0  0  0  0  0  0  0  0  0
  144.3891  133.9526  150.2685 C   0  0  0  0  0  0  0  0  0  0  0  0
  143.5589  133.3494  151.4052 C   0  0  0  0  0  0  0  0  0  0  0  0
  143.7193  134.2389  152.5018 O   0  0  0  0  0  0  0  0  0  0  0  0
  148.6352  139.7075  155.7520 S   0  0  0  0  0  0  0  0  0  0  0  0
  152.7337  140.7667  156.8858 H   0  0  0  0  0  0  0  0  0  0  0  0
  151.6401  140.2607  158.1714 H   0  0  0  0  0  0  0  0  0  0  0  0
  152.2349  141.9166  158.1204 H   0  0  0  0  0  0  0  0  0  0  0  0
  151.0349  142.3163  156.0033 H   0  0  0  0  0  0  0  0  0  0  0  0
  148.7157  142.3871  156.8300 H   0  0  0  0  0  0  0  0  0  0  0  0
  149.8437  142.8831  158.0862 H   0  0  0  0  0  0  0  0  0  0  0  0
  149.1222  141.2779  158.1374 H   0  0  0  0  0  0  0  0  0  0  0  0
  148.7522  137.0744  153.2073 H   0  0  0  0  0  0  0  0  0  0  0  0
  147.1686  136.0301  152.7327 H   0  0  0  0  0  0  0  0  0  0  0  0
  144.8503  135.7483  154.3492 H   0  0  0  0  0  0  0  0  0  0  0  0
  143.1791  136.9066  152.9419 H   0  0  0  0  0  0  0  0  0  0  0  0
  144.4503  137.5111  151.8826 H   0  0  0  0  0  0  0  0  0  0  0  0
  144.3538  138.0580  153.5552 H   0  0  0  0  0  0  0  0  0  0  0  0
  145.7535  134.0504  152.6823 H   0  0  0  0  0  0  0  0  0  0  0  0
  144.5854  136.0475  150.6930 H   0  0  0  0  0  0  0  0  0  0  0  0
  146.1414  135.2230  150.5739 H   0  0  0  0  0  0  0  0  0  0  0  0
  143.7652  134.2883  149.4395 H   0  0  0  0  0  0  0  0  0  0  0  0
  145.0948  133.2167  149.8819 H   0  0  0  0  0  0  0  0  0  0  0  0
  142.5062  133.2426  151.1428 H   0  0  0  0  0  0  0  0  0  0  0  0
  143.9430  132.3661  151.6801 H   0  0  0  0  0  0  0  0  0  0  0  0
  1  2  1  0  0  0  0
  1 20  1  0  0  0  0
  1 21  1  0  0  0  0
  1 22  1  0  0  0  0
  2  3  1  0  0  0  0
  2  4  1  0  0  0  0
  2 23  1  0  0  0  0
  3 24  1  0  0  0  0
  3 25  1  0  0  0  0
  3 26  1  0  0  0  0
  4 19  1  0  0  0  0
  4  5  2  0  0  0  0
  5  6  1  0  0  0  0
  6  7  2  0  0  0  0
  7  8  1  0  0  0  0
  7 19  1  0  0  0  0
  8  9  1  0  0  0  0
  8 27  1  0  0  0  0
  9 10  2  0  0  0  0
  9 11  1  0  0  0  0
 11 12  1  0  0  0  0
 11 28  1  0  0  0  0
 12 13  1  0  0  0  0
 12 14  1  0  0  0  0
 12 29  1  0  0  0  0
 13 30  1  0  0  0  0
 13 31  1  0  0  0  0
 13 32  1  0  0  0  0
 14 18  1  0  0  0  0
 14 15  1  0  0  0  0
 14 33  1  0  0  0  0
 15 16  1  0  0  0  0
 15 34  1  0  0  0  0
 15 35  1  0  0  0  0
 16 17  1  0  0  0  0
 16 36  1  0  0  0  0
 16 37  1  0  0  0  0
 17 18  1  0  0  0  0
 17 38  1  0  0  0  0
 17 39  1  0  0  0  0
M  END
> <s_m_source_file>
AV-unprocessed.smi

> <i_m_source_file_index>
2063

> <i_lp_mmshare_version>
43012

> <i_f3d_flags>
0

> <s_epik_input>
W0NIM11bQ0hdKFtDSDNdKWMxbm5jKHMxKVtOSF1DKD1PKVtOSF1bQ0BIXShbQ0gzXSlbQ0BASF0yW0NIMl1bQ0gyXVtDSDJdTzI=

> <s_epik_cmdline>
J2VwaWtfcHl0aG9uJywgJy1waCcsICc3LjAnLCAnLXRuJywgJzgnLCAnLW1hJywgJzIwMCcsICctbWV0YWxfYmluZGluZycsICctaW1hZScsICc8aW5maWxlLm1hZT4nLCAnLW9tYWUnLCAnPG91dGZpbGUubWFlPic=

> <r_lp_tautomer_probability>
1

> <r_epik_Ionization_Penalty>
0.00050567

> <r_epik_Ionization_Penalty_Charging>
0

> <r_epik_Ionization_Penalty_Neutral>
0.00050567

> <r_epik_State_Penalty>
-0

> <r_epik_Charging_Adjusted_Penalty>
0

> <i_epik_Tot_Q>
0

> <i_epik_Tot_abs_Q>
0

> <r_epik_Metal_State_Penalty>
0.219912

> <b_epik_Metal_Only>
0

> <s_lp_Force_Field>
OPLS_2005

> <r_lp_Energy>
10.6095

> <b_lp_Chiralities_Consistent>
1

> <s_lp_Variant>
AV-unprocessed.smi:2063-2

> <Gold.Version>
5.8.1

> <Gold.Id.Protein>
6NUR|6NUR_protein|mol2

> <Gold.PLP.Fitness>
33.8829

> <Gold.PLP.PLP>
-25.5267

> <Gold.PLP.part.hbond>
-3.0000

> <Gold.PLP.part.metal>
0.0000

> <Gold.PLP.part.buried>
-5.2598

> <Gold.PLP.part.nonpolar>
-17.9486

> <Gold.PLP.part.repulsive>
0.4847

> <Gold.PLP.ligand.clash>
0.0000

> <Gold.PLP.ligand.torsion>
0.1377

> <Gold.PLP.Chemscore.Hbond>
2.8480

> <Gold.PLP.Chemscore.CHOScore>
0.0000

> <Gold.PLP.Chemscore.Metal>
0.0000

> <Gold.Chemscore.Hbonds>
donor molecule, donor type, donor heavy atom, donor atom, acceptor molecule, acceptor atom, score
      L1  H     8    27       P1  7948  1.00
      L1  H    11    28       P1  7948  0.85
      P1  H  7989  7998       L1     5  1.00

> <Gold.PLP.Chemscore.Internal.Correction>
0.0878

> <Gold.Rescore>
     Score         DG    S(hbond)    S(metal)    S(lipo)     H(rot)  DE(clash)    DE(int)     intcor
     13.81     -15.31       2.09        0.00      55.20       1.42       0.08       1.42       ----

> <Gold.Chemscore.Fitness>
13.8091

> <Gold.Chemscore.DG>
-15.3096

> <Gold.Chemscore.ZeroCoef>
-5.4800

> <Gold.Chemscore.Hbond>
2.0939

> <Gold.Chemscore.Metal>
0.0000

> <Gold.Chemscore.Lipo>
55.2033

> <Gold.Chemscore.Internal_Hbond>
0.0000

> <Gold.Chemscore.DEClash>
0.0843

> <Gold.Chemscore.DEInternal>
1.4162

> <Gold.Chemscore.Rot>
1.4152

> <Gold.Chemscore.Internal.Correction>
   9.000000E+99

> <Gold.Chemscore.Hbonds>
donor molecule, donor type, donor heavy atom, donor atom, acceptor molecule, acceptor atom, score
      L1  H     8    27       P1  7948  0.98
      L1  H    11    28       P1  7948  0.83
      P1  H  7989  7998       L1     5  0.25

> <Gold.Chemscore.Hbond.Weighted>
-6.9938

> <Gold.Chemscore.Metal.Weighted>
-0.0000

> <Gold.Chemscore.Lipo.Weighted>
-6.4588

> <Gold.Chemscore.Internal_Hbond.Weighted>
0.0000

> <Gold.Chemscore.DEClash.Weighted>
0.0843

> <Gold.Chemscore.DEInternal.Weighted>
1.4162

> <Gold.Chemscore.Rot.Weighted>
3.6229

> <Gold.Chemscore.Internal.Correction.Weighted>
   9.000000E+99

> <Gold.Protein.RotatedTorsions>
[ 6907 6896 6895 6894 ] final   41.38 input  -60.11 | X-H torsion
[ 7974 7965 7964 7962 ] final -171.54 input  175.53 | X-H torsion
[ 8008 7997 7996 7995 ] final  150.64 input   59.86 | X-H torsion
[ 10167 10162 10161 10158 ] final -156.64 input  -65.29 | X-H torsion
[ 10718 10713 10712 10709 ] final    0.81 input   66.30 | X-H torsion
[ 10763 10752 10751 10750 ] final    6.07 input  -60.55 | X-H torsion
[ 11005 11000 10999 10996 ] final -158.82 input  -57.11 | X-H torsion

> <Gold.Protein.ActiveResidues>
 VAL166  LYS551  ARG553  GLY616  TRP617  ASP618  TYR619  PRO620  LYS621  CYS622 
 ASP623  PHE694  ASN695  SER759  ASP760  ASP761  ALA762  ILE779  LEU786  VAL792 
 PHE793  MET794  SER795  GLU796  ALA797  LYS798  CYS799  TRP800  GLU811  SER814 

> <Gold.Protein.RotatedAtoms>
  152.1945  134.8643  160.0514 H   0  0  0  0  0  0  0  0  0  0  0  0  # atno 6907 bound_to 6896
  151.9519  133.3663  159.4011 H   0  0  0  0  0  0  0  0  0  0  0  0  # atno 6908 bound_to 6896
  150.6942  134.4255  159.5268 H   0  0  0  0  0  0  0  0  0  0  0  0  # atno 6909 bound_to 6896
  144.7156  140.1907  143.6349 H   0  0  0  0  0  0  0  0  0  0  0  0  # atno 7974 bound_to 7965
  156.2707  140.2069  156.6050 H   0  0  0  0  0  0  0  0  0  0  0  0  # atno 8008 bound_to 7997
  154.6877  140.0533  157.0355 H   0  0  0  0  0  0  0  0  0  0  0  0  # atno 8009 bound_to 7997
  155.0911  140.3196  155.4576 H   0  0  0  0  0  0  0  0  0  0  0  0  # atno 8010 bound_to 7997
  139.6834  143.9543  152.2348 H   0  0  0  0  0  0  0  0  0  0  0  0  # atno 10167 bound_to 10162
  156.8389  130.5514  149.5679 H   0  0  0  0  0  0  0  0  0  0  0  0  # atno 10718 bound_to 10713
  153.2520  135.6914  153.7669 H   0  0  0  0  0  0  0  0  0  0  0  0  # atno 10763 bound_to 10752
  153.6761  135.3336  155.3167 H   0  0  0  0  0  0  0  0  0  0  0  0  # atno 10764 bound_to 10752
  154.8398  135.4511  154.1480 H   0  0  0  0  0  0  0  0  0  0  0  0  # atno 10765 bound_to 10752
  140.6494  134.4466  157.5235 H   0  0  0  0  0  0  0  0  0  0  0  0  # atno 11005 bound_to 11000
  145.8771  139.2303  143.1627 LP  0  0  0  0  0  0  0  0  0  0  0  0  # atno 17320 bound_to 7965
  146.0030  140.8504  143.0009 LP  0  0  0  0  0  0  0  0  0  0  0  0  # atno 17321 bound_to 7965
  139.9339  144.6724  150.8334 LP  0  0  0  0  0  0  0  0  0  0  0  0  # atno 17342 bound_to 10162
  140.7659  143.3290  151.2452 LP  0  0  0  0  0  0  0  0  0  0  0  0  # atno 17343 bound_to 10162
  156.0891  130.5882  150.9702 LP  0  0  0  0  0  0  0  0  0  0  0  0  # atno 17370 bound_to 10713
  157.6366  131.0915  150.8336 LP  0  0  0  0  0  0  0  0  0  0  0  0  # atno 17371 bound_to 10713
  139.9051  134.8467  156.1738 LP  0  0  0  0  0  0  0  0  0  0  0  0  # atno 17394 bound_to 11000
  141.0548  133.6871  156.1839 LP  0  0  0  0  0  0  0  0  0  0  0  0  # atno 17395 bound_to 11000

$$$$
