AV-unprocessed.smi:2949|AV-procd|sdf|11285|dock6
  -GOLD-   2272016173D 1   1.00000     0.00000
 Structure written by MMmdl.
 35 36  0  0  0  0  0  0  0  0  2 V2000
  150.4479  142.5127  156.6290 N   0  0  0  0  0  0  0  0  0  0  0  0
  151.2949  142.2749  157.6334 C   0  0  0  0  0  0  0  0  0  0  0  0
  151.8697  140.6987  158.0877 S   0  0  0  0  0  0  0  0  0  0  0  0
  152.8240  141.4024  159.3581 C   0  0  0  0  0  0  0  0  0  0  0  0
  152.6826  142.7644  159.3958 C   0  0  0  0  0  0  0  0  0  0  0  0
  151.8144  143.2436  158.4166 N   0  3  0  0  0  0  0  0  0  0  0  0
  151.5092  144.6792  158.2503 C   0  0  0  0  0  0  0  0  0  0  0  0
  150.7481  145.2798  159.4409 C   0  0  0  0  0  0  0  0  0  0  0  0
  151.3053  146.0948  160.1811 O   0  0  0  0  0  0  0  0  0  0  0  0
  149.4753  144.8403  159.5706 N   0  0  0  0  0  0  0  0  0  0  0  0
  148.5200  145.1345  160.4848 C   0  0  0  0  0  0  0  0  0  0  0  0
  148.6834  146.0531  161.2860 O   0  0  0  0  0  0  0  0  0  0  0  0
  147.4031  144.3829  160.4704 N   0  0  0  0  0  0  0  0  0  0  0  0
  146.1872  144.6587  161.2300 C   0  0  0  0  0  0  0  0  0  0  0  0
  145.6971  143.4139  161.9994 C   0  0  0  0  0  0  0  0  0  0  0  0
  144.2164  143.2533  161.6493 C   0  0  0  0  0  0  0  0  0  0  0  0
  144.0908  143.8561  160.2539 C   0  0  0  0  0  0  0  0  0  0  0  0
  145.0411  145.0528  160.2811 C   0  0  0  0  0  0  0  0  0  0  0  0
  150.1397  143.4442  156.3901 H   0  0  0  0  0  0  0  0  0  0  0  0
  153.4302  140.7743  159.9945 H   0  0  0  0  0  0  0  0  0  0  0  0
  153.1501  143.4728  160.0649 H   0  0  0  0  0  0  0  0  0  0  0  0
  152.4382  145.2252  158.0796 H   0  0  0  0  0  0  0  0  0  0  0  0
  150.9086  144.7935  157.3468 H   0  0  0  0  0  0  0  0  0  0  0  0
  149.1843  144.1764  158.8676 H   0  0  0  0  0  0  0  0  0  0  0  0
  147.3941  143.5625  159.8808 H   0  0  0  0  0  0  0  0  0  0  0  0
  146.3728  145.4832  161.9209 H   0  0  0  0  0  0  0  0  0  0  0  0
  146.2367  142.5223  161.6757 H   0  0  0  0  0  0  0  0  0  0  0  0
  145.8517  143.5096  163.0746 H   0  0  0  0  0  0  0  0  0  0  0  0
  143.8848  142.2154  161.6913 H   0  0  0  0  0  0  0  0  0  0  0  0
  143.6086  143.8260  162.3511 H   0  0  0  0  0  0  0  0  0  0  0  0
  144.4291  143.1339  159.5097 H   0  0  0  0  0  0  0  0  0  0  0  0
  143.0669  144.1371  160.0064 H   0  0  0  0  0  0  0  0  0  0  0  0
  144.5161  145.9159  160.6929 H   0  0  0  0  0  0  0  0  0  0  0  0
  145.3799  145.3320  159.2822 H   0  0  0  0  0  0  0  0  0  0  0  0
  150.0887  141.7757  156.0390 H   0  0  0  0  0  0  0  0  0  0  0  0
  1  2  1  0  0  0  0
  1 19  1  0  0  0  0
  1 35  1  0  0  0  0
  2  6  2  0  0  0  0
  2  3  1  0  0  0  0
  3  4  1  0  0  0  0
  4  5  2  0  0  0  0
  4 20  1  0  0  0  0
  5  6  1  0  0  0  0
  5 21  1  0  0  0  0
  6  7  1  0  0  0  0
  7  8  1  0  0  0  0
  7 22  1  0  0  0  0
  7 23  1  0  0  0  0
  8  9  2  0  0  0  0
  8 10  1  0  0  0  0
 10 11  1  0  0  0  0
 10 24  1  0  0  0  0
 11 12  2  0  0  0  0
 11 13  1  0  0  0  0
 13 14  1  0  0  0  0
 13 25  1  0  0  0  0
 14 18  1  0  0  0  0
 14 15  1  0  0  0  0
 14 26  1  0  0  0  0
 15 16  1  0  0  0  0
 15 27  1  0  0  0  0
 15 28  1  0  0  0  0
 16 17  1  0  0  0  0
 16 29  1  0  0  0  0
 16 30  1  0  0  0  0
 17 18  1  0  0  0  0
 17 31  1  0  0  0  0
 17 32  1  0  0  0  0
 18 33  1  0  0  0  0
 18 34  1  0  0  0  0
M  CHG  1   6   1
M  END
> <s_m_source_file>
AV-unprocessed.smi

> <i_m_source_file_index>
2949

> <i_lp_mmshare_version>
43012

> <i_f3d_flags>
0

> <s_epik_input>
W0hdL049YzFcc1tjSF1bY0hdbjFbQ0gyXUMoPU8pW05IXUMoPU8pW05IXVtDSF0yW0NIMl1bQ0gyXVtDSDJdW0NIMl0y

> <s_epik_cmdline>
J2VwaWtfcHl0aG9uJywgJy1waCcsICc3LjAnLCAnLXRuJywgJzgnLCAnLW1hJywgJzIwMCcsICctbWV0YWxfYmluZGluZycsICctaW1hZScsICc8aW5maWxlLm1hZT4nLCAnLW9tYWUnLCAnPG91dGZpbGUubWFlPic=

> <r_lp_tautomer_probability>
1

> <r_epik_Ionization_Penalty>
0.019454

> <r_epik_Ionization_Penalty_Charging>
0

> <r_epik_Ionization_Penalty_Neutral>
0.019454

> <r_epik_State_Penalty>
0.0306361

> <r_epik_Charging_Adjusted_Penalty>
0.0306361

> <i_epik_Tot_Q>
1

> <i_epik_Tot_abs_Q>
1

> <r_epik_Metal_State_Penalty>
0.0306361

> <b_epik_Metal_Only>
0

> <s_lp_Force_Field>
OPLS_2005

> <r_lp_Energy>
26.5716

> <b_lp_Chiralities_Consistent>
1

> <s_lp_Variant>
AV-unprocessed.smi:2949-1

> <Gold.Version>
5.8.1

> <Gold.Id.Protein>
6NUR|6NUR_protein|mol2

> <Gold.PLP.Fitness>
44.8816

> <Gold.PLP.PLP>
-39.3426

> <Gold.PLP.part.hbond>
-5.6030

> <Gold.PLP.part.metal>
0.0000

> <Gold.PLP.part.buried>
-7.3621

> <Gold.PLP.part.nonpolar>
-28.8094

> <Gold.PLP.part.repulsive>
2.5781

> <Gold.PLP.ligand.clash>
0.0000

> <Gold.PLP.ligand.torsion>
0.2404

> <Gold.PLP.Chemscore.Hbond>
2.0000

> <Gold.PLP.Chemscore.CHOScore>
0.0000

> <Gold.PLP.Chemscore.Metal>
0.0000

> <Gold.Chemscore.Hbonds>
donor molecule, donor type, donor heavy atom, donor atom, acceptor molecule, acceptor atom, score
      L1  H     1    19       P1  8028  2.00

> <Gold.PLP.Chemscore.Internal.Correction>
0.0197

> <Gold.Rescore>
     Score         DG    S(hbond)    S(metal)    S(lipo)     H(rot)  DE(clash)    DE(int)     intcor
      9.76     -12.09       1.00        0.00      65.76       1.73       0.62       1.71       ----

> <Gold.Chemscore.Fitness>
9.7569

> <Gold.Chemscore.DG>
-12.0859

> <Gold.Chemscore.ZeroCoef>
-5.4800

> <Gold.Chemscore.Hbond>
0.9995

> <Gold.Chemscore.Metal>
0.0000

> <Gold.Chemscore.Lipo>
65.7604

> <Gold.Chemscore.Internal_Hbond>
0.0000

> <Gold.Chemscore.DEClash>
0.6166

> <Gold.Chemscore.DEInternal>
1.7124

> <Gold.Chemscore.Rot>
1.7291

> <Gold.Chemscore.Internal.Correction>
   9.000000E+99

> <Gold.Chemscore.Hbonds>
donor molecule, donor type, donor heavy atom, donor atom, acceptor molecule, acceptor atom, score
      L1  H     1    19       P1  8028  0.98

> <Gold.Chemscore.Hbond.Weighted>
-3.3384

> <Gold.Chemscore.Metal.Weighted>
-0.0000

> <Gold.Chemscore.Lipo.Weighted>
-7.6940

> <Gold.Chemscore.Internal_Hbond.Weighted>
0.0000

> <Gold.Chemscore.DEClash.Weighted>
0.6166

> <Gold.Chemscore.DEInternal.Weighted>
1.7124

> <Gold.Chemscore.Rot.Weighted>
4.4265

> <Gold.Chemscore.Internal.Correction.Weighted>
   9.000000E+99

> <Gold.Protein.RotatedTorsions>
[ 6907 6896 6895 6894 ] final   60.06 input  -60.11 | X-H torsion
[ 7974 7965 7964 7962 ] final   25.38 input  175.53 | X-H torsion
[ 8008 7997 7996 7995 ] final  -48.81 input   59.86 | X-H torsion
[ 10167 10162 10161 10158 ] final   10.92 input  -65.29 | X-H torsion
[ 10718 10713 10712 10709 ] final -139.56 input   66.30 | X-H torsion
[ 10763 10752 10751 10750 ] final   90.03 input  -60.55 | X-H torsion
[ 11005 11000 10999 10996 ] final   96.70 input  -57.11 | X-H torsion

> <Gold.Protein.ActiveResidues>
 VAL166  LYS551  ARG553  GLY616  TRP617  ASP618  TYR619  PRO620  LYS621  CYS622 
 ASP623  PHE694  ASN695  SER759  ASP760  ASP761  ALA762  ILE779  LEU786  VAL792 
 PHE793  MET794  SER795  GLU796  ALA797  LYS798  CYS799  TRP800  GLU811  SER814 

> <Gold.Protein.RotatedAtoms>
  152.3969  134.6350  160.0085 H   0  0  0  0  0  0  0  0  0  0  0  0  # atno 6907 bound_to 6896
  151.6567  133.3313  159.3172 H   0  0  0  0  0  0  0  0  0  0  0  0  # atno 6908 bound_to 6896
  150.7876  134.6916  159.6545 H   0  0  0  0  0  0  0  0  0  0  0  0  # atno 6909 bound_to 6896
  146.1891  139.7474  142.8844 H   0  0  0  0  0  0  0  0  0  0  0  0  # atno 7974 bound_to 7965
  154.4034  140.1312  156.4400 H   0  0  0  0  0  0  0  0  0  0  0  0  # atno 8008 bound_to 7997
  155.7468  140.3489  155.5111 H   0  0  0  0  0  0  0  0  0  0  0  0  # atno 8009 bound_to 7997
  155.8987  140.1015  157.1356 H   0  0  0  0  0  0  0  0  0  0  0  0  # atno 8010 bound_to 7997
  140.6164  143.8299  150.7123 H   0  0  0  0  0  0  0  0  0  0  0  0  # atno 10167 bound_to 10162
  156.3121  130.7488  151.1566 H   0  0  0  0  0  0  0  0  0  0  0  0  # atno 10718 bound_to 10713
  153.1933  135.4448  155.0176 H   0  0  0  0  0  0  0  0  0  0  0  0  # atno 10763 bound_to 10752
  154.8103  135.3292  154.7324 H   0  0  0  0  0  0  0  0  0  0  0  0  # atno 10764 bound_to 10752
  153.7776  135.6980  153.4950 H   0  0  0  0  0  0  0  0  0  0  0  0  # atno 10765 bound_to 10752
  139.8780  134.8964  156.4198 H   0  0  0  0  0  0  0  0  0  0  0  0  # atno 11005 bound_to 11000
  145.3846  141.0363  143.3158 LP  0  0  0  0  0  0  0  0  0  0  0  0  # atno 17320 bound_to 7965
  144.8453  139.5406  143.6881 LP  0  0  0  0  0  0  0  0  0  0  0  0  # atno 17321 bound_to 7965
  140.1879  143.4061  152.1885 LP  0  0  0  0  0  0  0  0  0  0  0  0  # atno 17342 bound_to 10162
  139.5402  144.7249  151.4759 LP  0  0  0  0  0  0  0  0  0  0  0  0  # atno 17343 bound_to 10162
  157.7393  131.0530  150.5238 LP  0  0  0  0  0  0  0  0  0  0  0  0  # atno 17370 bound_to 10713
  156.5379  130.4201  149.6168 LP  0  0  0  0  0  0  0  0  0  0  0  0  # atno 17371 bound_to 10713
  140.9142  133.7690  155.9827 LP  0  0  0  0  0  0  0  0  0  0  0  0  # atno 17394 bound_to 11000
  140.8513  134.2951  157.5274 LP  0  0  0  0  0  0  0  0  0  0  0  0  # atno 17395 bound_to 11000

$$$$
