AV-unprocessed.smi:1704|AV-procd|sdf|6881|dock1
  -GOLD-   22720 8 83D 1   1.00000     0.00000
 Structure written by MMmdl.
 41 43  0  0  0  0  0  0  0  0  1 V2000
  147.7770  140.0011  154.2240 C   0  0  0  0  0  0  0  0  0  0  0  0
  148.7898  138.9692  154.5163 N   0  0  0  0  0  0  0  0  0  0  0  0
  148.3650  137.6804  154.7077 C   0  0  0  0  0  0  0  0  0  0  0  0
  147.1888  137.3167  154.6781 O   0  0  0  0  0  0  0  0  0  0  0  0
  149.4519  136.7285  154.9620 C   0  0  0  0  0  0  0  0  0  0  0  0
  150.7522  137.1018  155.0417 C   0  0  0  0  0  0  0  0  0  0  0  0
  151.5776  136.0155  155.3067 N   0  0  0  0  0  0  0  0  0  0  0  0
  150.7017  135.0124  155.3701 C   0  0  0  0  0  0  0  0  0  0  0  0
  149.4114  135.3482  155.1626 N   0  0  0  0  0  0  0  0  0  0  0  0
  148.2733  134.4361  155.1728 C   0  0  0  0  0  0  0  0  0  0  0  0
  148.4643  133.1594  154.3118 C   0  0  0  0  0  0  0  0  0  0  0  0
  148.8481  133.5610  153.0092 O   0  0  0  0  0  0  0  0  0  0  0  0
  149.5721  132.2302  154.8696 C   0  0  0  0  0  0  0  0  0  0  0  0
  149.6706  130.8890  154.1199 C   0  0  0  0  0  0  0  0  0  0  0  0
  148.3175  130.1662  154.0781 C   0  0  0  0  0  0  0  0  0  0  0  0
  147.2380  131.0613  153.4552 C   0  0  0  0  0  0  0  0  0  0  0  0
  147.1205  132.4004  154.2047 C   0  0  0  0  0  0  0  0  0  0  0  0
  151.0815  138.4675  154.8569 N   0  0  0  0  0  0  0  0  0  0  0  0
  152.4970  138.8345  154.9608 C   0  0  0  0  0  0  0  0  0  0  0  0
  150.1066  139.3939  154.5755 C   0  0  0  0  0  0  0  0  0  0  0  0
  150.3996  140.5769  154.3817 O   0  0  0  0  0  0  0  0  0  0  0  0
  146.7480  139.6411  154.1944 H   0  0  0  0  0  0  0  0  0  0  0  0
  147.9718  140.4589  153.2529 H   0  0  0  0  0  0  0  0  0  0  0  0
  147.8064  140.7891  154.9783 H   0  0  0  0  0  0  0  0  0  0  0  0
  151.0091  133.9956  155.5654 H   0  0  0  0  0  0  0  0  0  0  0  0
  148.0916  134.1484  156.2093 H   0  0  0  0  0  0  0  0  0  0  0  0
  147.3807  134.9799  154.8650 H   0  0  0  0  0  0  0  0  0  0  0  0
  148.5450  134.4447  152.8671 H   0  0  0  0  0  0  0  0  0  0  0  0
  150.5432  132.7250  154.8351 H   0  0  0  0  0  0  0  0  0  0  0  0
  149.3720  132.0278  155.9225 H   0  0  0  0  0  0  0  0  0  0  0  0
  150.0256  131.0591  153.1029 H   0  0  0  0  0  0  0  0  0  0  0  0
  150.4146  130.2524  154.5997 H   0  0  0  0  0  0  0  0  0  0  0  0
  148.4074  129.2405  153.5088 H   0  0  0  0  0  0  0  0  0  0  0  0
  148.0215  129.8815  155.0884 H   0  0  0  0  0  0  0  0  0  0  0  0
  147.4722  131.2424  152.4056 H   0  0  0  0  0  0  0  0  0  0  0  0
  146.2774  130.5457  153.4692 H   0  0  0  0  0  0  0  0  0  0  0  0
  146.7397  132.2020  155.2077 H   0  0  0  0  0  0  0  0  0  0  0  0
  146.3721  133.0274  153.7182 H   0  0  0  0  0  0  0  0  0  0  0  0
  152.6928  139.9039  154.8765 H   0  0  0  0  0  0  0  0  0  0  0  0
  153.0685  138.3342  154.1783 H   0  0  0  0  0  0  0  0  0  0  0  0
  152.8953  138.5115  155.9233 H   0  0  0  0  0  0  0  0  0  0  0  0
  1  2  1  0  0  0  0
  1 22  1  0  0  0  0
  1 23  1  0  0  0  0
  1 24  1  0  0  0  0
  2 20  1  0  0  0  0
  2  3  1  0  0  0  0
  3  4  2  0  0  0  0
  3  5  1  0  0  0  0
  5  9  1  0  0  0  0
  5  6  2  0  0  0  0
  6  7  1  0  0  0  0
  6 18  1  0  0  0  0
  7  8  2  0  0  0  0
  8  9  1  0  0  0  0
  8 25  1  0  0  0  0
  9 10  1  0  0  0  0
 10 11  1  0  0  0  0
 10 26  1  0  0  0  0
 10 27  1  0  0  0  0
 11 17  1  0  0  0  0
 11 12  1  0  0  0  0
 11 13  1  0  0  0  0
 12 28  1  0  0  0  0
 13 14  1  0  0  0  0
 13 29  1  0  0  0  0
 13 30  1  0  0  0  0
 14 15  1  0  0  0  0
 14 31  1  0  0  0  0
 14 32  1  0  0  0  0
 15 16  1  0  0  0  0
 15 33  1  0  0  0  0
 15 34  1  0  0  0  0
 16 17  1  0  0  0  0
 16 35  1  0  0  0  0
 16 36  1  0  0  0  0
 17 37  1  0  0  0  0
 17 38  1  0  0  0  0
 18 19  1  0  0  0  0
 18 20  1  0  0  0  0
 19 39  1  0  0  0  0
 19 40  1  0  0  0  0
 19 41  1  0  0  0  0
 20 21  2  0  0  0  0
M  END
> <s_m_source_file>
AV-unprocessed.smi

> <i_m_source_file_index>
1704

> <i_lp_mmshare_version>
43012

> <i_f3d_flags>
0

> <s_epik_input>
Tz1jMW4oW0NIM10pYyg9TyluKFtDSDNdKWMoYzEyKW5bY0hdbjJbQ0gyXUMzKFtPSF0pW0NIMl1bQ0gyXVtDSDJdW0NIMl1bQ0gyXTM=

> <s_epik_cmdline>
J2VwaWtfcHl0aG9uJywgJy1waCcsICc3LjAnLCAnLXRuJywgJzgnLCAnLW1hJywgJzIwMCcsICctbWV0YWxfYmluZGluZycsICctaW1hZScsICc8aW5maWxlLm1hZT4nLCAnLW9tYWUnLCAnPG91dGZpbGUubWFlPic=

> <r_lp_tautomer_probability>
1

> <r_epik_Ionization_Penalty>
6.70257e-06

> <r_epik_Ionization_Penalty_Charging>
6.65152e-09

> <r_epik_Ionization_Penalty_Neutral>
6.69592e-06

> <r_epik_State_Penalty>
-0

> <r_epik_Charging_Adjusted_Penalty>
6.65152e-09

> <i_epik_Tot_Q>
0

> <i_epik_Tot_abs_Q>
0

> <r_epik_Metal_State_Penalty>
-0

> <b_epik_Metal_Only>
0

> <s_lp_Force_Field>
OPLS_2005

> <r_lp_Energy>
39.0788

> <b_lp_Chiralities_Consistent>
1

> <s_lp_Variant>
AV-unprocessed.smi:1704-1

> <Gold.Version>
5.8.1

> <Gold.Id.Protein>
6NUR|6NUR_protein|mol2

> <Gold.PLP.Fitness>
38.1330

> <Gold.PLP.PLP>
-30.5574

> <Gold.PLP.part.hbond>
-2.6840

> <Gold.PLP.part.metal>
0.0000

> <Gold.PLP.part.buried>
-1.5613

> <Gold.PLP.part.nonpolar>
-25.7889

> <Gold.PLP.part.repulsive>
0.3052

> <Gold.PLP.ligand.clash>
0.0000

> <Gold.PLP.ligand.torsion>
0.1634

> <Gold.PLP.Chemscore.Hbond>
2.6328

> <Gold.PLP.Chemscore.CHOScore>
0.0000

> <Gold.PLP.Chemscore.Metal>
0.0000

> <Gold.Chemscore.Hbonds>
donor molecule, donor type, donor heavy atom, donor atom, acceptor molecule, acceptor atom, score
      L1  H    12    28       P1  7948  0.70
      P1  H  7989  7998       L1    21  0.91
      P1  H 10752 10765       L1     7  1.00

> <Gold.PLP.Chemscore.Internal.Correction>
0.0041

> <Gold.Rescore>
     Score         DG    S(hbond)    S(metal)    S(lipo)     H(rot)  DE(clash)    DE(int)     intcor
     14.09     -14.30       2.43        0.00      46.17       1.84       0.07       0.15       ----

> <Gold.Chemscore.Fitness>
14.0892

> <Gold.Chemscore.DG>
-14.3010

> <Gold.Chemscore.ZeroCoef>
-5.4800

> <Gold.Chemscore.Hbond>
2.4332

> <Gold.Chemscore.Metal>
0.0000

> <Gold.Chemscore.Lipo>
46.1691

> <Gold.Chemscore.Internal_Hbond>
0.0000

> <Gold.Chemscore.DEClash>
0.0659

> <Gold.Chemscore.DEInternal>
0.1459

> <Gold.Chemscore.Rot>
1.8389

> <Gold.Chemscore.Internal.Correction>
   9.000000E+99

> <Gold.Chemscore.Hbonds>
donor molecule, donor type, donor heavy atom, donor atom, acceptor molecule, acceptor atom, score
      L1  H    12    28       P1  7948  0.11
      P1  H  7989  7998       L1    21  0.79
      P1  H 10752 10765       L1     7  0.80

> <Gold.Chemscore.Hbond.Weighted>
-8.1268

> <Gold.Chemscore.Metal.Weighted>
-0.0000

> <Gold.Chemscore.Lipo.Weighted>
-5.4018

> <Gold.Chemscore.Internal_Hbond.Weighted>
0.0000

> <Gold.Chemscore.DEClash.Weighted>
0.0659

> <Gold.Chemscore.DEInternal.Weighted>
0.1459

> <Gold.Chemscore.Rot.Weighted>
4.7076

> <Gold.Chemscore.Internal.Correction.Weighted>
   9.000000E+99

> <Gold.Protein.RotatedTorsions>
[ 6907 6896 6895 6894 ] final -107.98 input  -60.11 | X-H torsion
[ 7974 7965 7964 7962 ] final   26.52 input  175.53 | X-H torsion
[ 8008 7997 7996 7995 ] final  174.63 input   59.86 | X-H torsion
[ 10167 10162 10161 10158 ] final  -87.35 input  -65.29 | X-H torsion
[ 10718 10713 10712 10709 ] final   74.98 input   66.30 | X-H torsion
[ 10763 10752 10751 10750 ] final -165.84 input  -60.55 | X-H torsion
[ 11005 11000 10999 10996 ] final  107.10 input  -57.11 | X-H torsion

> <Gold.Protein.ActiveResidues>
 VAL166  LYS551  ARG553  GLY616  TRP617  ASP618  TYR619  PRO620  LYS621  CYS622 
 ASP623  PHE694  ASN695  SER759  ASP760  ASP761  ALA762  ILE779  LEU786  VAL792 
 PHE793  MET794  SER795  GLU796  ALA797  LYS798  CYS799  TRP800  GLU811  SER814 

> <Gold.Protein.RotatedAtoms>
  150.7475  133.9745  159.3556 H   0  0  0  0  0  0  0  0  0  0  0  0  # atno 6907 bound_to 6896
  151.7681  135.0791  160.0365 H   0  0  0  0  0  0  0  0  0  0  0  0  # atno 6908 bound_to 6896
  152.3357  133.5972  159.5877 H   0  0  0  0  0  0  0  0  0  0  0  0  # atno 6909 bound_to 6896
  146.1833  139.7317  142.8884 H   0  0  0  0  0  0  0  0  0  0  0  0  # atno 7974 bound_to 7965
  156.0954  140.1429  156.9537 H   0  0  0  0  0  0  0  0  0  0  0  0  # atno 8008 bound_to 7997
  154.4668  140.0923  156.7087 H   0  0  0  0  0  0  0  0  0  0  0  0  # atno 8009 bound_to 7997
  155.4850  140.3446  155.4348 H   0  0  0  0  0  0  0  0  0  0  0  0  # atno 8010 bound_to 7997
  140.3853  143.2730  151.9333 H   0  0  0  0  0  0  0  0  0  0  0  0  # atno 10167 bound_to 10162
  157.6615  130.9704  150.1288 H   0  0  0  0  0  0  0  0  0  0  0  0  # atno 10718 bound_to 10713
  154.6892  135.2968  154.9504 H   0  0  0  0  0  0  0  0  0  0  0  0  # atno 10763 bound_to 10752
  154.0473  135.6649  153.4800 H   0  0  0  0  0  0  0  0  0  0  0  0  # atno 10764 bound_to 10752
  153.0600  135.5121  154.7975 H   0  0  0  0  0  0  0  0  0  0  0  0  # atno 10765 bound_to 10752
  139.8823  134.9390  156.5768 H   0  0  0  0  0  0  0  0  0  0  0  0  # atno 11005 bound_to 11000
  145.4012  141.0385  143.3069 LP  0  0  0  0  0  0  0  0  0  0  0  0  # atno 17320 bound_to 7965
  144.8353  139.5560  143.6925 LP  0  0  0  0  0  0  0  0  0  0  0  0  # atno 17321 bound_to 7965
  139.4792  144.5780  151.7980 LP  0  0  0  0  0  0  0  0  0  0  0  0  # atno 17342 bound_to 10162
  140.4896  144.1330  150.5947 LP  0  0  0  0  0  0  0  0  0  0  0  0  # atno 17343 bound_to 10162
  156.2140  130.3669  149.8635 LP  0  0  0  0  0  0  0  0  0  0  0  0  # atno 17370 bound_to 10713
  156.6506  130.8742  151.3530 LP  0  0  0  0  0  0  0  0  0  0  0  0  # atno 17371 bound_to 10713
  140.8057  133.8469  155.8766 LP  0  0  0  0  0  0  0  0  0  0  0  0  # atno 17394 bound_to 11000
  140.9552  134.1727  157.4697 LP  0  0  0  0  0  0  0  0  0  0  0  0  # atno 17395 bound_to 11000

$$$$
