AV-unprocessed.smi:560|AV-procd|sdf|2930|dock8
  -GOLD-   2262023423D 1   1.00000     0.00000
 Structure written by MMmdl.
 42 43  0  0  0  0  0  0  0  0  2 V2000
  152.1177  139.7071  158.9402 C   0  0  0  0  0  0  0  0  0  0  0  0
  151.3171  140.6075  157.9775 C   0  0  2  0  0  0  0  0  0  0  0  0
  151.4041  140.1493  156.5119 C   0  0  0  0  0  0  0  0  0  0  0  0
  152.4924  140.0435  155.9455 O   0  0  0  0  0  0  0  0  0  0  0  0
  150.2364  139.8736  155.9081 N   0  0  0  0  0  0  0  0  0  0  0  0
  150.0791  139.4556  154.5161 C   0  0  2  0  0  0  0  0  0  0  0  0
  148.6416  138.9694  154.2630 C   0  0  0  0  0  0  0  0  0  0  0  0
  148.3634  137.6107  154.9322 C   0  0  0  0  0  0  0  0  0  0  0  0
  149.3503  136.5870  154.5038 N   0  3  2  0  0  0  0  0  0  0  0  0
  149.0226  135.2326  155.0193 C   0  0  0  0  0  0  0  0  0  0  0  0
  147.6348  134.7472  154.5876 C   0  0  0  0  0  0  0  0  0  0  0  0
  147.3947  134.6974  153.2754 N   0  0  0  0  0  0  0  0  0  0  0  0
  146.7965  134.4074  155.4207 O   0  0  0  0  0  0  0  0  0  0  0  0
  150.7432  137.0081  154.8112 C   0  0  0  0  0  0  0  0  0  0  0  0
  151.0788  138.3467  154.1314 C   0  0  0  0  0  0  0  0  0  0  0  0
  151.7000  142.0098  158.0991 N   0  0  0  0  0  0  0  0  0  0  0  0
  151.2002  143.0897  157.4000 C   0  0  0  0  0  0  0  0  0  0  0  0
  151.8758  144.1993  157.8199 C   0  0  0  0  0  0  0  0  0  0  0  0
  152.7893  143.6936  158.7858 C   0  0  0  0  0  0  0  0  0  0  0  0
  152.6877  142.3844  158.9452 N   0  0  0  0  0  0  0  0  0  0  0  0
  151.7737  138.6735  158.8906 H   0  0  0  0  0  0  0  0  0  0  0  0
  151.9992  140.0398  159.9718 H   0  0  0  0  0  0  0  0  0  0  0  0
  153.1848  139.7124  158.7138 H   0  0  0  0  0  0  0  0  0  0  0  0
  150.2677  140.5354  158.2682 H   0  0  0  0  0  0  0  0  0  0  0  0
  149.3914  139.9942  156.4474 H   0  0  0  0  0  0  0  0  0  0  0  0
  150.2572  140.3267  153.8828 H   0  0  0  0  0  0  0  0  0  0  0  0
  147.9234  139.7131  154.6108 H   0  0  0  0  0  0  0  0  0  0  0  0
  148.4814  138.8745  153.1880 H   0  0  0  0  0  0  0  0  0  0  0  0
  148.3867  137.7085  156.0188 H   0  0  0  0  0  0  0  0  0  0  0  0
  147.3573  137.2847  154.6663 H   0  0  0  0  0  0  0  0  0  0  0  0
  149.7914  134.5201  154.7156 H   0  0  0  0  0  0  0  0  0  0  0  0
  149.0205  135.2460  156.1101 H   0  0  0  0  0  0  0  0  0  0  0  0
  146.4956  134.3899  152.9331 H   0  0  0  0  0  0  0  0  0  0  0  0
  148.1159  134.9738  152.6241 H   0  0  0  0  0  0  0  0  0  0  0  0
  150.8720  137.0901  155.8916 H   0  0  0  0  0  0  0  0  0  0  0  0
  151.4488  136.2505  154.4695 H   0  0  0  0  0  0  0  0  0  0  0  0
  151.0590  138.2091  153.0495 H   0  0  0  0  0  0  0  0  0  0  0  0
  152.0991  138.6446  154.3757 H   0  0  0  0  0  0  0  0  0  0  0  0
  150.4123  142.9805  156.6694 H   0  0  0  0  0  0  0  0  0  0  0  0
  151.7397  145.2173  157.4867 H   0  0  0  0  0  0  0  0  0  0  0  0
  153.5203  144.2342  159.3688 H   0  0  0  0  0  0  0  0  0  0  0  0
  149.2779  136.5261  153.4977 H   0  0  0  0  0  0  0  0  0  0  0  0
  1  2  1  0  0  0  0
  1 21  1  0  0  0  0
  1 22  1  0  0  0  0
  1 23  1  0  0  0  0
  2  3  1  0  0  0  0
  2 16  1  0  0  0  0
  2 24  1  0  0  0  0
  3  4  2  0  0  0  0
  3  5  1  0  0  0  0
  5  6  1  0  0  0  0
  5 25  1  0  0  0  0
  6 15  1  0  0  0  0
  6  7  1  0  0  0  0
  6 26  1  0  0  0  0
  7  8  1  0  0  0  0
  7 27  1  0  0  0  0
  7 28  1  0  0  0  0
  8  9  1  0  0  0  0
  8 29  1  0  0  0  0
  8 30  1  0  0  0  0
  9 10  1  0  0  0  0
  9 14  1  0  0  0  0
  9 42  1  0  0  0  0
 10 11  1  0  0  0  0
 10 31  1  0  0  0  0
 10 32  1  0  0  0  0
 11 12  1  0  0  0  0
 11 13  2  0  0  0  0
 12 33  1  0  0  0  0
 12 34  1  0  0  0  0
 14 15  1  0  0  0  0
 14 35  1  0  0  0  0
 14 36  1  0  0  0  0
 15 37  1  0  0  0  0
 15 38  1  0  0  0  0
 16 20  1  0  0  0  0
 16 17  1  0  0  0  0
 17 18  2  0  0  0  0
 17 39  1  0  0  0  0
 18 19  1  0  0  0  0
 18 40  1  0  0  0  0
 19 20  2  0  0  0  0
 19 41  1  0  0  0  0
M  CHG  1   9   1
M  END
> <s_m_source_file>
AV-unprocessed.smi

> <i_m_source_file_index>
560

> <i_lp_mmshare_version>
43012

> <i_f3d_flags>
0

> <s_epik_input>
bjFbY0hdW2NIXVtjSF1uMVtDQEhdKFtDSDNdKUMoPU8pW05IXVtDSF0yW0NIMl1bQ0gyXU4oW0NIMl1bQ0gyXTIpW0NIMl1DKD1PKVtOSDJd

> <s_epik_cmdline>
J2VwaWtfcHl0aG9uJywgJy1waCcsICc3LjAnLCAnLXRuJywgJzgnLCAnLW1hJywgJzIwMCcsICctbWV0YWxfYmluZGluZycsICctaW1hZScsICc8aW5maWxlLm1hZT4nLCAnLW9tYWUnLCAnPG91dGZpbGUubWFlPic=

> <r_lp_tautomer_probability>
1

> <r_epik_Ionization_Penalty>
1.02943

> <r_epik_Ionization_Penalty_Charging>
1.02936

> <r_epik_Ionization_Penalty_Neutral>
7.4537e-05

> <r_epik_State_Penalty>
1.08036

> <r_epik_Charging_Adjusted_Penalty>
2.10972

> <i_epik_Tot_Q>
1

> <i_epik_Tot_abs_Q>
1

> <r_epik_Metal_State_Penalty>
1.09347

> <b_epik_Metal_Only>
0

> <s_lp_Force_Field>
OPLS_2005

> <r_lp_Energy>
16.2494

> <b_lp_Chiralities_Consistent>
1

> <s_lp_Variant>
AV-unprocessed.smi:560-5

> <Gold.Version>
5.8.1

> <Gold.Id.Protein>
6NUR|6NUR_protein|mol2

> <Gold.PLP.Fitness>
49.0998

> <Gold.PLP.PLP>
-34.5226

> <Gold.PLP.part.hbond>
-3.0000

> <Gold.PLP.part.metal>
0.0000

> <Gold.PLP.part.buried>
-3.8657

> <Gold.PLP.part.nonpolar>
-27.7495

> <Gold.PLP.part.repulsive>
0.0922

> <Gold.PLP.ligand.clash>
0.0000

> <Gold.PLP.ligand.torsion>
0.2686

> <Gold.PLP.Chemscore.Hbond>
4.0000

> <Gold.PLP.Chemscore.CHOScore>
0.9947

> <Gold.PLP.Chemscore.Metal>
0.0000

> <Gold.Chemscore.Hbonds>
donor molecule, donor type, donor heavy atom, donor atom, acceptor molecule, acceptor atom, score
      L1  H     9    42       P1  7948  2.00
      L1  H    12    34       P1  7948  0.99
      P1  H  7997  8008       L1     4  1.00
      L1  C    17    39       P1  8028  0.99

> <Gold.PLP.Chemscore.Internal.Correction>
0.1301

> <Gold.Rescore>
     Score         DG    S(hbond)    S(metal)    S(lipo)     H(rot)  DE(clash)    DE(int)     intcor
     17.03     -18.56       2.99        0.00      81.66       2.52       0.10       1.44       ----

> <Gold.Chemscore.Fitness>
17.0267

> <Gold.Chemscore.DG>
-18.5649

> <Gold.Chemscore.ZeroCoef>
-5.4800

> <Gold.Chemscore.Hbond>
2.9919

> <Gold.Chemscore.Metal>
0.0000

> <Gold.Chemscore.Lipo>
81.6597

> <Gold.Chemscore.Internal_Hbond>
0.0000

> <Gold.Chemscore.DEClash>
0.0993

> <Gold.Chemscore.DEInternal>
1.4389

> <Gold.Chemscore.Rot>
2.5243

> <Gold.Chemscore.Internal.Correction>
   9.000000E+99

> <Gold.Chemscore.Hbonds>
donor molecule, donor type, donor heavy atom, donor atom, acceptor molecule, acceptor atom, score
      L1  H     9    42       P1  7948  0.93
      L1  H    12    34       P1  7948  0.77
      P1  H  7997  8008       L1     4  1.00

> <Gold.Chemscore.Hbond.Weighted>
-9.9929

> <Gold.Chemscore.Metal.Weighted>
-0.0000

> <Gold.Chemscore.Lipo.Weighted>
-9.5542

> <Gold.Chemscore.Internal_Hbond.Weighted>
0.0000

> <Gold.Chemscore.DEClash.Weighted>
0.0993

> <Gold.Chemscore.DEInternal.Weighted>
1.4389

> <Gold.Chemscore.Rot.Weighted>
6.4622

> <Gold.Chemscore.Internal.Correction.Weighted>
   9.000000E+99

> <Gold.Protein.RotatedTorsions>
[ 6907 6896 6895 6894 ] final  175.62 input  -60.11 | X-H torsion
[ 7974 7965 7964 7962 ] final  178.69 input  175.53 | X-H torsion
[ 8008 7997 7996 7995 ] final  -32.40 input   59.86 | X-H torsion
[ 10167 10162 10161 10158 ] final -169.48 input  -65.29 | X-H torsion
[ 10718 10713 10712 10709 ] final  -30.04 input   66.30 | X-H torsion
[ 10763 10752 10751 10750 ] final   94.98 input  -60.55 | X-H torsion
[ 11005 11000 10999 10996 ] final -112.22 input  -57.11 | X-H torsion

> <Gold.Protein.ActiveResidues>
 VAL166  LYS551  ARG553  GLY616  TRP617  ASP618  TYR619  PRO620  LYS621  CYS622 
 ASP623  PHE694  ASN695  SER759  ASP760  ASP761  ALA762  ILE779  LEU786  VAL792 
 PHE793  MET794  SER795  GLU796  ALA797  LYS798  CYS799  TRP800  GLU811  SER814 

> <Gold.Protein.RotatedAtoms>
  151.7333  133.3318  159.3345 H   0  0  0  0  0  0  0  0  0  0  0  0  # atno 6907 bound_to 6896
  150.7604  134.6344  159.6213 H   0  0  0  0  0  0  0  0  0  0  0  0  # atno 6908 bound_to 6896
  152.3578  134.6918  160.0268 H   0  0  0  0  0  0  0  0  0  0  0  0  # atno 6909 bound_to 6896
  144.7153  140.0436  143.6437 H   0  0  0  0  0  0  0  0  0  0  0  0  # atno 7974 bound_to 7965
  154.4181  140.1738  156.1721 H   0  0  0  0  0  0  0  0  0  0  0  0  # atno 8008 bound_to 7997
  155.9751  140.3382  155.6587 H   0  0  0  0  0  0  0  0  0  0  0  0  # atno 8009 bound_to 7997
  155.6574  140.0697  157.2557 H   0  0  0  0  0  0  0  0  0  0  0  0  # atno 8010 bound_to 7997
  139.5920  144.1192  152.1646 H   0  0  0  0  0  0  0  0  0  0  0  0  # atno 10167 bound_to 10162
  156.4048  130.4397  149.7296 H   0  0  0  0  0  0  0  0  0  0  0  0  # atno 10718 bound_to 10713
  153.2479  135.4270  155.0767 H   0  0  0  0  0  0  0  0  0  0  0  0  # atno 10763 bound_to 10752
  154.8369  135.3418  154.6555 H   0  0  0  0  0  0  0  0  0  0  0  0  # atno 10764 bound_to 10752
  153.6976  135.7030  153.5129 H   0  0  0  0  0  0  0  0  0  0  0  0  # atno 10765 bound_to 10752
  141.0688  133.9415  157.2526 H   0  0  0  0  0  0  0  0  0  0  0  0  # atno 11005 bound_to 11000
  146.0003  139.3085  143.0932 LP  0  0  0  0  0  0  0  0  0  0  0  0  # atno 17320 bound_to 7965
  145.8801  140.9368  143.0606 LP  0  0  0  0  0  0  0  0  0  0  0  0  # atno 17321 bound_to 7965
  140.0769  144.5733  150.7151 LP  0  0  0  0  0  0  0  0  0  0  0  0  # atno 17342 bound_to 10162
  140.7181  143.2563  151.4368 LP  0  0  0  0  0  0  0  0  0  0  0  0  # atno 17343 bound_to 10162
  156.4298  130.7809  151.2829 LP  0  0  0  0  0  0  0  0  0  0  0  0  # atno 17370 bound_to 10713
  157.7505  131.0157  150.3517 LP  0  0  0  0  0  0  0  0  0  0  0  0  # atno 17371 bound_to 10713
  139.9502  135.0177  156.8972 LP  0  0  0  0  0  0  0  0  0  0  0  0  # atno 17394 bound_to 11000
  140.5718  134.0436  155.7433 LP  0  0  0  0  0  0  0  0  0  0  0  0  # atno 17395 bound_to 11000

$$$$
