AV-unprocessed.smi:467|AV-procd|sdf|2646|dock2
  -GOLD-   2262023 53D 1   1.00000     0.00000
 Structure written by MMmdl.
 45 47  0  0  0  0  0  0  0  0  2 V2000
  153.5861  143.0450  162.1039 C   0  0  0  0  0  0  0  0  0  0  0  0
  153.0541  142.5571  160.7678 C   0  0  0  0  0  0  0  0  0  0  0  0
  153.3284  141.2319  160.3615 C   0  0  0  0  0  0  0  0  0  0  0  0
  152.8546  140.7405  159.1254 C   0  0  0  0  0  0  0  0  0  0  0  0
  153.0051  139.4970  158.5358 N   0  0  0  0  0  0  0  0  0  0  0  0
  152.3424  139.6596  157.3947 C   0  0  0  0  0  0  0  0  0  0  0  0
  151.7751  140.8614  157.1760 N   0  0  0  0  0  0  0  0  0  0  0  0
  151.0086  141.2658  156.0106 C   0  0  0  0  0  0  0  0  0  0  0  0
  149.5136  141.4659  156.3253 C   0  0  1  0  0  0  0  0  0  0  0  0
  149.3300  142.7129  156.9696 O   0  0  0  0  0  0  0  0  0  0  0  0
  148.6518  141.4367  155.0478 C   0  0  0  0  0  0  0  0  0  0  0  0
  147.4756  142.3393  155.1358 N   0  3  0  0  0  0  0  0  0  0  0  0
  146.7718  142.4844  153.8394 C   0  0  0  0  0  0  0  0  0  0  0  0
  145.6008  143.4731  153.9701 C   0  0  0  0  0  0  0  0  0  0  0  0
  144.7156  143.0319  154.9919 O   0  0  0  0  0  0  0  0  0  0  0  0
  145.3553  142.9728  156.2605 C   0  0  0  0  0  0  0  0  0  0  0  0
  146.5172  141.9661  156.2060 C   0  0  0  0  0  0  0  0  0  0  0  0
  152.0908  141.6176  158.3005 C   0  0  0  0  0  0  0  0  0  0  0  0
  151.8085  142.9374  158.6957 C   0  0  0  0  0  0  0  0  0  0  0  0
  152.2915  143.4128  159.9330 C   0  0  0  0  0  0  0  0  0  0  0  0
  151.9853  144.8408  160.3489 C   0  0  0  0  0  0  0  0  0  0  0  0
  154.1898  142.2814  162.5952 H   0  0  0  0  0  0  0  0  0  0  0  0
  152.7629  143.3021  162.7710 H   0  0  0  0  0  0  0  0  0  0  0  0
  154.2114  143.9278  161.9681 H   0  0  0  0  0  0  0  0  0  0  0  0
  153.9086  140.5795  160.9976 H   0  0  0  0  0  0  0  0  0  0  0  0
  152.2626  138.8574  156.6755 H   0  0  0  0  0  0  0  0  0  0  0  0
  151.4405  142.1823  155.6068 H   0  0  0  0  0  0  0  0  0  0  0  0
  151.1318  140.5012  155.2422 H   0  0  0  0  0  0  0  0  0  0  0  0
  149.1981  140.6812  157.0123 H   0  0  0  0  0  0  0  0  0  0  0  0
  149.1711  143.3741  156.3128 H   0  0  0  0  0  0  0  0  0  0  0  0
  149.2771  141.7251  154.2011 H   0  0  0  0  0  0  0  0  0  0  0  0
  148.3095  140.4221  154.8373 H   0  0  0  0  0  0  0  0  0  0  0  0
  147.4667  142.8407  153.0779 H   0  0  0  0  0  0  0  0  0  0  0  0
  146.4050  141.5107  153.5103 H   0  0  0  0  0  0  0  0  0  0  0  0
  145.9613  144.4786  154.1931 H   0  0  0  0  0  0  0  0  0  0  0  0
  145.0532  143.5327  153.0294 H   0  0  0  0  0  0  0  0  0  0  0  0
  145.7104  143.9630  156.5505 H   0  0  0  0  0  0  0  0  0  0  0  0
  144.6257  142.6645  157.0097 H   0  0  0  0  0  0  0  0  0  0  0  0
  146.1291  140.9635  156.0190 H   0  0  0  0  0  0  0  0  0  0  0  0
  147.0152  141.9389  157.1747 H   0  0  0  0  0  0  0  0  0  0  0  0
  151.2266  143.5801  158.0521 H   0  0  0  0  0  0  0  0  0  0  0  0
  151.3706  145.3491  159.6055 H   0  0  0  0  0  0  0  0  0  0  0  0
  152.9082  145.4093  160.4656 H   0  0  0  0  0  0  0  0  0  0  0  0
  151.4459  144.8568  161.2962 H   0  0  0  0  0  0  0  0  0  0  0  0
  147.8364  143.2548  155.3656 H   0  0  0  0  0  0  0  0  0  0  0  0
  1  2  1  0  0  0  0
  1 22  1  0  0  0  0
  1 23  1  0  0  0  0
  1 24  1  0  0  0  0
  2 20  1  0  0  0  0
  2  3  2  0  0  0  0
  3  4  1  0  0  0  0
  3 25  1  0  0  0  0
  4 18  2  0  0  0  0
  4  5  1  0  0  0  0
  5  6  2  0  0  0  0
  6  7  1  0  0  0  0
  6 26  1  0  0  0  0
  7  8  1  0  0  0  0
  7 18  1  0  0  0  0
  8  9  1  0  0  0  0
  8 27  1  0  0  0  0
  8 28  1  0  0  0  0
  9 10  1  0  0  0  0
  9 11  1  0  0  0  0
  9 29  1  0  0  0  0
 10 30  1  0  0  0  0
 11 12  1  0  0  0  0
 11 31  1  0  0  0  0
 11 32  1  0  0  0  0
 12 17  1  0  0  0  0
 12 13  1  0  0  0  0
 12 45  1  0  0  0  0
 13 14  1  0  0  0  0
 13 33  1  0  0  0  0
 13 34  1  0  0  0  0
 14 15  1  0  0  0  0
 14 35  1  0  0  0  0
 14 36  1  0  0  0  0
 15 16  1  0  0  0  0
 16 17  1  0  0  0  0
 16 37  1  0  0  0  0
 16 38  1  0  0  0  0
 17 39  1  0  0  0  0
 17 40  1  0  0  0  0
 18 19  1  0  0  0  0
 19 20  2  0  0  0  0
 19 41  1  0  0  0  0
 20 21  1  0  0  0  0
 21 42  1  0  0  0  0
 21 43  1  0  0  0  0
 21 44  1  0  0  0  0
M  CHG  1  12   1
M  END
> <s_m_source_file>
AV-unprocessed.smi

> <i_m_source_file_index>
467

> <i_lp_mmshare_version>
43012

> <i_f3d_flags>
0

> <s_epik_input>
W0NIM11jKFtjSF0xKWMoW0NIM10pW2NIXWMoYzEyKW4oW2NIXW4yKVtDSDJdW0NASF0oW09IXSlbQ0gyXU4zW0NIMl1bQ0gyXU9bQ0gyXVtDSDJdMw==

> <s_epik_cmdline>
J2VwaWtfcHl0aG9uJywgJy1waCcsICc3LjAnLCAnLXRuJywgJzgnLCAnLW1hJywgJzIwMCcsICctbWV0YWxfYmluZGluZycsICctaW1hZScsICc8aW5maWxlLm1hZT4nLCAnLW9tYWUnLCAnPG91dGZpbGUubWFlPic=

> <r_epik_Ionization_Penalty>
0.695168

> <r_epik_Ionization_Penalty_Charging>
0.608065

> <r_epik_Ionization_Penalty_Neutral>
0.0871028

> <r_epik_State_Penalty>
0.731876

> <r_epik_Charging_Adjusted_Penalty>
1.33994

> <i_epik_Tot_Q>
1

> <i_epik_Tot_abs_Q>
1

> <r_epik_Metal_State_Penalty>
0.652189

> <b_epik_Metal_Only>
0

> <s_lp_Force_Field>
OPLS_2005

> <r_lp_Energy>
21.2169

> <b_lp_Chiralities_Consistent>
1

> <s_lp_Variant>
AV-unprocessed.smi:467-4

> <Gold.Version>
5.8.1

> <Gold.Id.Protein>
6NUR|6NUR_protein|mol2

> <Gold.PLP.Fitness>
54.2160

> <Gold.PLP.PLP>
-46.6154

> <Gold.PLP.part.hbond>
-2.1872

> <Gold.PLP.part.metal>
0.0000

> <Gold.PLP.part.buried>
-7.0583

> <Gold.PLP.part.nonpolar>
-36.5173

> <Gold.PLP.part.repulsive>
0.2804

> <Gold.PLP.ligand.clash>
0.0000

> <Gold.PLP.ligand.torsion>
0.7170

> <Gold.PLP.Chemscore.Hbond>
3.0000

> <Gold.PLP.Chemscore.CHOScore>
0.0000

> <Gold.PLP.Chemscore.Metal>
0.0000

> <Gold.Chemscore.Hbonds>
donor molecule, donor type, donor heavy atom, donor atom, acceptor molecule, acceptor atom, score
      L1  H    10    30       P1  8028  0.98
      L1  H    12    45       P1  8028  2.00

> <Gold.PLP.Chemscore.Internal.Correction>
0.0346

> <Gold.Rescore>
     Score         DG    S(hbond)    S(metal)    S(lipo)     H(rot)  DE(clash)    DE(int)     intcor
     16.36     -20.03       1.80        0.00     119.09       2.10       1.63       2.04       ----

> <Gold.Chemscore.Fitness>
16.3616

> <Gold.Chemscore.DG>
-20.0297

> <Gold.Chemscore.ZeroCoef>
-5.4800

> <Gold.Chemscore.Hbond>
1.7951

> <Gold.Chemscore.Metal>
0.0000

> <Gold.Chemscore.Lipo>
119.0857

> <Gold.Chemscore.Internal_Hbond>
0.0000

> <Gold.Chemscore.DEClash>
1.6255

> <Gold.Chemscore.DEInternal>
2.0426

> <Gold.Chemscore.Rot>
2.1011

> <Gold.Chemscore.Internal.Correction>
   9.000000E+99

> <Gold.Chemscore.Hbonds>
donor molecule, donor type, donor heavy atom, donor atom, acceptor molecule, acceptor atom, score
      L1  H    10    30       P1  8028  0.92
      L1  H    12    45       P1  8028  0.55

> <Gold.Chemscore.Hbond.Weighted>
-5.9956

> <Gold.Chemscore.Metal.Weighted>
-0.0000

> <Gold.Chemscore.Lipo.Weighted>
-13.9330

> <Gold.Chemscore.Internal_Hbond.Weighted>
0.0000

> <Gold.Chemscore.DEClash.Weighted>
1.6255

> <Gold.Chemscore.DEInternal.Weighted>
2.0426

> <Gold.Chemscore.Rot.Weighted>
5.3789

> <Gold.Chemscore.Internal.Correction.Weighted>
   9.000000E+99

> <Gold.Protein.RotatedTorsions>
[ 6907 6896 6895 6894 ] final -139.28 input  -60.11 | X-H torsion
[ 7974 7965 7964 7962 ] final   45.64 input  175.53 | X-H torsion
[ 8008 7997 7996 7995 ] final  162.80 input   59.86 | X-H torsion
[ 10167 10162 10161 10158 ] final -118.32 input  -65.29 | X-H torsion
[ 10718 10713 10712 10709 ] final  -14.02 input   66.30 | X-H torsion
[ 10763 10752 10751 10750 ] final   88.33 input  -60.55 | X-H torsion
[ 11005 11000 10999 10996 ] final  178.40 input  -57.11 | X-H torsion

> <Gold.Protein.ActiveResidues>
 VAL166  LYS551  ARG553  GLY616  TRP617  ASP618  TYR619  PRO620  LYS621  CYS622 
 ASP623  PHE694  ASN695  SER759  ASP760  ASP761  ALA762  ILE779  LEU786  VAL792 
 PHE793  MET794  SER795  GLU796  ALA797  LYS798  CYS799  TRP800  GLU811  SER814 

> <Gold.Protein.RotatedAtoms>
  151.0458  133.5667  159.2646 H   0  0  0  0  0  0  0  0  0  0  0  0  # atno 6907 bound_to 6896
  151.2696  135.0679  159.9139 H   0  0  0  0  0  0  0  0  0  0  0  0  # atno 6908 bound_to 6896
  152.5373  134.0190  159.8027 H   0  0  0  0  0  0  0  0  0  0  0  0  # atno 6909 bound_to 6896
  146.0462  139.4943  142.9747 H   0  0  0  0  0  0  0  0  0  0  0  0  # atno 7974 bound_to 7965
  156.2005  140.1740  156.7910 H   0  0  0  0  0  0  0  0  0  0  0  0  # atno 8008 bound_to 7997
  154.5585  140.0704  156.8812 H   0  0  0  0  0  0  0  0  0  0  0  0  # atno 8009 bound_to 7997
  155.2893  140.3354  155.4256 H   0  0  0  0  0  0  0  0  0  0  0  0  # atno 8010 bound_to 7997
  140.0587  143.4988  152.2043 H   0  0  0  0  0  0  0  0  0  0  0  0  # atno 10167 bound_to 10162
  156.6219  130.4878  149.6161 H   0  0  0  0  0  0  0  0  0  0  0  0  # atno 10718 bound_to 10713
  153.1758  135.4511  154.9963 H   0  0  0  0  0  0  0  0  0  0  0  0  # atno 10763 bound_to 10752
  154.7997  135.3251  154.7583 H   0  0  0  0  0  0  0  0  0  0  0  0  # atno 10764 bound_to 10752
  153.8053  135.6959  153.4904 H   0  0  0  0  0  0  0  0  0  0  0  0  # atno 10765 bound_to 10752
  140.3947  134.6831  157.4528 H   0  0  0  0  0  0  0  0  0  0  0  0  # atno 11005 bound_to 11000
  145.6802  141.0193  143.1611 LP  0  0  0  0  0  0  0  0  0  0  0  0  # atno 17320 bound_to 7965
  144.7099  139.8412  143.7418 LP  0  0  0  0  0  0  0  0  0  0  0  0  # atno 17321 bound_to 7965
  139.5907  144.7549  151.3408 LP  0  0  0  0  0  0  0  0  0  0  0  0  # atno 17342 bound_to 10162
  140.7182  143.7208  150.7697 LP  0  0  0  0  0  0  0  0  0  0  0  0  # atno 17343 bound_to 10162
  156.2305  130.6791  151.1458 LP  0  0  0  0  0  0  0  0  0  0  0  0  # atno 17370 bound_to 10713
  157.7225  131.0672  150.6075 LP  0  0  0  0  0  0  0  0  0  0  0  0  # atno 17371 bound_to 10713
  140.0380  134.6308  155.9017 LP  0  0  0  0  0  0  0  0  0  0  0  0  # atno 17394 bound_to 11000
  141.1878  133.6561  156.5298 LP  0  0  0  0  0  0  0  0  0  0  0  0  # atno 17395 bound_to 11000

$$$$
