AV-unprocessed.smi:352|AV-procd|sdf|2401|dock4
  -GOLD-   2262022333D 1   1.00000     0.00000
 Structure written by MMmdl.
 45 46  0  0  0  0  0  0  0  0  2 V2000
  143.6936  132.1291  149.9680 C   0  0  0  0  0  0  0  0  0  0  0  0
  144.6634  133.0253  150.6586 C   0  0  0  0  0  0  0  0  0  0  0  0
  144.8998  134.3692  150.5878 C   0  0  0  0  0  0  0  0  0  0  0  0
  145.9666  134.5547  151.5146 C   0  0  0  0  0  0  0  0  0  0  0  0
  146.6006  135.7833  151.8333 N   0  0  0  0  0  0  0  0  0  0  0  0
  146.0352  136.9832  152.0478 C   0  0  0  0  0  0  0  0  0  0  0  0
  144.8322  137.2286  151.9710 O   0  0  0  0  0  0  0  0  0  0  0  0
  146.9579  137.9016  152.3692 N   0  0  0  0  0  0  0  0  0  0  0  0
  146.6940  139.3098  152.6689 C   0  0  0  0  0  0  0  0  0  0  0  0
  146.6387  139.6291  154.2000 C   0  0  0  0  0  0  0  0  0  0  0  0
  145.2223  139.4161  154.6842 N   0  3  0  0  0  0  0  0  0  0  0  0
  144.8726  140.0113  156.0005 C   0  0  0  0  0  0  0  0  0  0  0  0
  144.7293  138.0154  154.6073 C   0  0  0  0  0  0  0  0  0  0  0  0
  147.6348  138.7021  154.9606 C   0  0  0  0  0  0  0  0  0  0  0  0
  149.1144  138.9681  154.6218 C   0  0  0  0  0  0  0  0  0  0  0  0
  149.4973  140.4344  154.8604 C   0  0  0  0  0  0  0  0  0  0  0  0
  148.5658  141.3836  154.0956 C   0  0  0  0  0  0  0  0  0  0  0  0
  147.0919  141.1065  154.4459 C   0  0  0  0  0  0  0  0  0  0  0  0
  146.3402  133.4282  152.0927 N   0  0  0  0  0  0  0  0  0  0  0  0
  145.5100  132.4413  151.5487 O   0  0  0  0  0  0  0  0  0  0  0  0
  142.9156  132.7081  149.4701 H   0  0  0  0  0  0  0  0  0  0  0  0
  143.2115  131.4578  150.6789 H   0  0  0  0  0  0  0  0  0  0  0  0
  144.1976  131.5221  149.2159 H   0  0  0  0  0  0  0  0  0  0  0  0
  144.3832  135.0859  149.9672 H   0  0  0  0  0  0  0  0  0  0  0  0
  147.6049  135.7362  151.9214 H   0  0  0  0  0  0  0  0  0  0  0  0
  147.9239  137.6087  152.3882 H   0  0  0  0  0  0  0  0  0  0  0  0
  147.4893  139.8835  152.1945 H   0  0  0  0  0  0  0  0  0  0  0  0
  145.7959  139.6377  152.1477 H   0  0  0  0  0  0  0  0  0  0  0  0
  145.5392  139.6656  156.7905 H   0  0  0  0  0  0  0  0  0  0  0  0
  143.8553  139.7426  156.2880 H   0  0  0  0  0  0  0  0  0  0  0  0
  144.8935  141.1001  155.9695 H   0  0  0  0  0  0  0  0  0  0  0  0
  145.2105  137.3810  155.3520 H   0  0  0  0  0  0  0  0  0  0  0  0
  144.8801  137.5702  153.6257 H   0  0  0  0  0  0  0  0  0  0  0  0
  143.6562  137.9834  154.7982 H   0  0  0  0  0  0  0  0  0  0  0  0
  147.5072  138.8228  156.0365 H   0  0  0  0  0  0  0  0  0  0  0  0
  147.4244  137.6536  154.7493 H   0  0  0  0  0  0  0  0  0  0  0  0
  149.7493  138.3229  155.2298 H   0  0  0  0  0  0  0  0  0  0  0  0
  149.3190  138.6978  153.5858 H   0  0  0  0  0  0  0  0  0  0  0  0
  149.4450  140.6542  155.9275 H   0  0  0  0  0  0  0  0  0  0  0  0
  150.5318  140.6043  154.5606 H   0  0  0  0  0  0  0  0  0  0  0  0
  148.8121  142.4147  154.3507 H   0  0  0  0  0  0  0  0  0  0  0  0
  148.7390  141.2981  153.0239 H   0  0  0  0  0  0  0  0  0  0  0  0
  146.4467  141.8051  153.9137 H   0  0  0  0  0  0  0  0  0  0  0  0
  147.0014  141.3632  155.5006 H   0  0  0  0  0  0  0  0  0  0  0  0
  144.6547  139.9266  154.0229 H   0  0  0  0  0  0  0  0  0  0  0  0
  1  2  1  0  0  0  0
  1 21  1  0  0  0  0
  1 22  1  0  0  0  0
  1 23  1  0  0  0  0
  2 20  1  0  0  0  0
  2  3  2  0  0  0  0
  3  4  1  0  0  0  0
  3 24  1  0  0  0  0
  4  5  1  0  0  0  0
  4 19  2  0  0  0  0
  5  6  1  0  0  0  0
  5 25  1  0  0  0  0
  6  7  2  0  0  0  0
  6  8  1  0  0  0  0
  8  9  1  0  0  0  0
  8 26  1  0  0  0  0
  9 10  1  0  0  0  0
  9 27  1  0  0  0  0
  9 28  1  0  0  0  0
 10 18  1  0  0  0  0
 10 11  1  0  0  0  0
 10 14  1  0  0  0  0
 11 12  1  0  0  0  0
 11 13  1  0  0  0  0
 11 45  1  0  0  0  0
 12 29  1  0  0  0  0
 12 30  1  0  0  0  0
 12 31  1  0  0  0  0
 13 32  1  0  0  0  0
 13 33  1  0  0  0  0
 13 34  1  0  0  0  0
 14 15  1  0  0  0  0
 14 35  1  0  0  0  0
 14 36  1  0  0  0  0
 15 16  1  0  0  0  0
 15 37  1  0  0  0  0
 15 38  1  0  0  0  0
 16 17  1  0  0  0  0
 16 39  1  0  0  0  0
 16 40  1  0  0  0  0
 17 18  1  0  0  0  0
 17 41  1  0  0  0  0
 17 42  1  0  0  0  0
 18 43  1  0  0  0  0
 18 44  1  0  0  0  0
 19 20  1  0  0  0  0
M  CHG  1  11   1
M  END
> <s_m_source_file>
AV-unprocessed.smi

> <i_m_source_file_index>
352

> <i_lp_mmshare_version>
43012

> <i_f3d_flags>
0

> <s_epik_input>
W0NIM11jMVtjSF1jKG5vMSlbTkhdQyg9TylbTkhdW0NIMl1DMihOKFtDSDNdKVtDSDNdKVtDSDJdW0NIMl1bQ0gyXVtDSDJdW0NIMl0y

> <s_epik_cmdline>
J2VwaWtfcHl0aG9uJywgJy1waCcsICc3LjAnLCAnLXRuJywgJzgnLCAnLW1hJywgJzIwMCcsICctbWV0YWxfYmluZGluZycsICctaW1hZScsICc8aW5maWxlLm1hZT4nLCAnLW9tYWUnLCAnPG91dGZpbGUubWFlPic=

> <r_epik_Ionization_Penalty>
0.00254175

> <r_epik_Ionization_Penalty_Charging>
0.00251809

> <r_epik_Ionization_Penalty_Neutral>
2.36624e-05

> <r_epik_State_Penalty>
0.00174714

> <r_epik_Charging_Adjusted_Penalty>
0.00426523

> <i_epik_Tot_Q>
1

> <i_epik_Tot_abs_Q>
1

> <r_epik_Metal_State_Penalty>
-0

> <b_epik_Metal_Only>
0

> <s_lp_Force_Field>
OPLS_2005

> <r_lp_Energy>
33.762

> <b_lp_Chiralities_Consistent>
1

> <s_lp_Variant>
AV-unprocessed.smi:352-1

> <Gold.Version>
5.8.1

> <Gold.Id.Protein>
6NUR|6NUR_protein|mol2

> <Gold.PLP.Fitness>
36.1820

> <Gold.PLP.PLP>
-26.8225

> <Gold.PLP.part.hbond>
-2.8392

> <Gold.PLP.part.metal>
0.0000

> <Gold.PLP.part.buried>
-2.3717

> <Gold.PLP.part.nonpolar>
-25.4035

> <Gold.PLP.part.repulsive>
2.9482

> <Gold.PLP.ligand.clash>
0.0000

> <Gold.PLP.ligand.torsion>
1.2049

> <Gold.PLP.Chemscore.Hbond>
3.8873

> <Gold.PLP.Chemscore.CHOScore>
0.0000

> <Gold.PLP.Chemscore.Metal>
0.0000

> <Gold.Chemscore.Hbonds>
donor molecule, donor type, donor heavy atom, donor atom, acceptor molecule, acceptor atom, score
      L1  H     5    25       P1  7948  0.68
      L1  H     8    26       P1  7948  0.80
      L1  H    11    45       P1 10175  2.00

> <Gold.PLP.Chemscore.Internal.Correction>
0.1076

> <Gold.Rescore>
     Score         DG    S(hbond)    S(metal)    S(lipo)     H(rot)  DE(clash)    DE(int)     intcor
     16.13     -19.24       2.88        0.00      69.24       1.55       1.62       1.50       ----

> <Gold.Chemscore.Fitness>
16.1254

> <Gold.Chemscore.DG>
-19.2427

> <Gold.Chemscore.ZeroCoef>
-5.4800

> <Gold.Chemscore.Hbond>
2.8804

> <Gold.Chemscore.Metal>
0.0000

> <Gold.Chemscore.Lipo>
69.2393

> <Gold.Chemscore.Internal_Hbond>
0.0000

> <Gold.Chemscore.DEClash>
1.6219

> <Gold.Chemscore.DEInternal>
1.4954

> <Gold.Chemscore.Rot>
1.5464

> <Gold.Chemscore.Internal.Correction>
   9.000000E+99

> <Gold.Chemscore.Hbonds>
donor molecule, donor type, donor heavy atom, donor atom, acceptor molecule, acceptor atom, score
      L1  H     5    25       P1  7948  0.68
      L1  H     8    26       P1  7948  0.80
      L1  H    11    45       P1 10175  1.00

> <Gold.Chemscore.Hbond.Weighted>
-9.6206

> <Gold.Chemscore.Metal.Weighted>
-0.0000

> <Gold.Chemscore.Lipo.Weighted>
-8.1010

> <Gold.Chemscore.Internal_Hbond.Weighted>
0.0000

> <Gold.Chemscore.DEClash.Weighted>
1.6219

> <Gold.Chemscore.DEInternal.Weighted>
1.4954

> <Gold.Chemscore.Rot.Weighted>
3.9588

> <Gold.Chemscore.Internal.Correction.Weighted>
   9.000000E+99

> <Gold.Protein.RotatedTorsions>
[ 6907 6896 6895 6894 ] final   -9.76 input  -60.11 | X-H torsion
[ 7974 7965 7964 7962 ] final -168.94 input  175.53 | X-H torsion
[ 8008 7997 7996 7995 ] final -178.99 input   59.86 | X-H torsion
[ 10167 10162 10161 10158 ] final   60.02 input  -65.29 | X-H torsion
[ 10718 10713 10712 10709 ] final -154.43 input   66.30 | X-H torsion
[ 10763 10752 10751 10750 ] final  151.22 input  -60.55 | X-H torsion
[ 11005 11000 10999 10996 ] final  170.69 input  -57.11 | X-H torsion

> <Gold.Protein.ActiveResidues>
 VAL166  LYS551  ARG553  GLY616  TRP617  ASP618  TYR619  PRO620  LYS621  CYS622 
 ASP623  PHE694  ASN695  SER759  ASP760  ASP761  ALA762  ILE779  LEU786  VAL792 
 PHE793  MET794  SER795  GLU796  ALA797  LYS798  CYS799  TRP800  GLU811  SER814 

> <Gold.Protein.RotatedAtoms>
  151.4127  135.0987  159.9589 H   0  0  0  0  0  0  0  0  0  0  0  0  # atno 6907 bound_to 6896
  152.5015  133.8782  159.7343 H   0  0  0  0  0  0  0  0  0  0  0  0  # atno 6908 bound_to 6896
  150.9280  133.6743  159.2845 H   0  0  0  0  0  0  0  0  0  0  0  0  # atno 6909 bound_to 6896
  144.7194  140.2295  143.6306 H   0  0  0  0  0  0  0  0  0  0  0  0  # atno 7974 bound_to 7965
  156.0253  140.1270  157.0315 H   0  0  0  0  0  0  0  0  0  0  0  0  # atno 8008 bound_to 7997
  154.4327  140.1060  156.6091 H   0  0  0  0  0  0  0  0  0  0  0  0  # atno 8009 bound_to 7997
  155.5886  140.3469  155.4562 H   0  0  0  0  0  0  0  0  0  0  0  0  # atno 8010 bound_to 7997
  140.1702  144.4285  150.6665 H   0  0  0  0  0  0  0  0  0  0  0  0  # atno 10167 bound_to 10162
  156.4992  130.8383  151.2602 H   0  0  0  0  0  0  0  0  0  0  0  0  # atno 10718 bound_to 10713
  154.1003  135.2846  155.3253 H   0  0  0  0  0  0  0  0  0  0  0  0  # atno 10763 bound_to 10752
  154.6560  135.5352  153.7962 H   0  0  0  0  0  0  0  0  0  0  0  0  # atno 10764 bound_to 10752
  153.0381  135.6522  154.1167 H   0  0  0  0  0  0  0  0  0  0  0  0  # atno 10765 bound_to 10752
  140.3111  134.7516  157.3991 H   0  0  0  0  0  0  0  0  0  0  0  0  # atno 11005 bound_to 11000
  145.8425  139.2136  143.1819 LP  0  0  0  0  0  0  0  0  0  0  0  0  # atno 17320 bound_to 7965
  146.0334  140.8236  142.9864 LP  0  0  0  0  0  0  0  0  0  0  0  0  # atno 17321 bound_to 7965
  140.6587  143.2245  151.5907 LP  0  0  0  0  0  0  0  0  0  0  0  0  # atno 17342 bound_to 10162
  139.5341  144.2830  152.1214 LP  0  0  0  0  0  0  0  0  0  0  0  0  # atno 17343 bound_to 10162
  157.7465  130.9987  150.2864 LP  0  0  0  0  0  0  0  0  0  0  0  0  # atno 17370 bound_to 10713
  156.3350  130.3806  149.7458 LP  0  0  0  0  0  0  0  0  0  0  0  0  # atno 17371 bound_to 10713
  140.1024  134.5454  155.8340 LP  0  0  0  0  0  0  0  0  0  0  0  0  # atno 17394 bound_to 11000
  141.2108  133.6699  156.6535 LP  0  0  0  0  0  0  0  0  0  0  0  0  # atno 17395 bound_to 11000

$$$$
