AV-unprocessed.smi:2078|AV-procd|sdf|8465|dock1
  -GOLD-   2272011163D 1   1.00000     0.00000
 Structure written by MMmdl.
 42 43  0  0  0  0  0  0  0  0  2 V2000
  137.6134  137.6078  154.9987 C   0  0  0  0  0  0  0  0  0  0  0  0
  138.9486  138.0585  154.5145 C   0  0  0  0  0  0  0  0  0  0  0  0
  139.9648  137.4225  153.8581 C   0  0  0  0  0  0  0  0  0  0  0  0
  140.9357  138.4475  153.7038 C   0  0  0  0  0  0  0  0  0  0  0  0
  142.1672  138.1936  153.0472 N   0  0  0  0  0  0  0  0  0  0  0  0
  142.9063  137.0726  153.1060 C   0  0  0  0  0  0  0  0  0  0  0  0
  142.6009  136.0517  153.7231 O   0  0  0  0  0  0  0  0  0  0  0  0
  144.0423  137.1945  152.4038 N   0  0  0  0  0  0  0  0  0  0  0  0
  145.0521  136.1497  152.2777 C   0  0  0  0  0  0  0  0  0  0  0  0
  145.5340  135.9988  150.8211 C   0  0  0  0  0  0  0  0  0  0  0  0
  145.3356  134.6227  150.3020 N   0  3  1  0  0  0  0  0  0  0  0  0
  146.4267  133.7024  150.7135 C   0  0  0  0  0  0  0  0  0  0  0  0
  146.2788  132.3301  150.0374 C   0  0  0  0  0  0  0  0  0  0  0  0
  144.9005  131.7175  150.3256 C   0  0  0  0  0  0  0  0  0  0  0  0
  143.7666  132.6937  149.9614 C   0  0  2  0  0  0  0  0  0  0  0  0
  143.5511  132.8207  148.4430 C   0  0  0  0  0  0  0  0  0  0  0  0
  143.9966  134.0629  150.6334 C   0  0  0  0  0  0  0  0  0  0  0  0
  140.5486  139.6031  154.2216 N   0  0  0  0  0  0  0  0  0  0  0  0
  139.2733  139.3596  154.7444 O   0  0  0  0  0  0  0  0  0  0  0  0
  137.4513  136.5538  154.7724 H   0  0  0  0  0  0  0  0  0  0  0  0
  136.8173  138.1815  154.5239 H   0  0  0  0  0  0  0  0  0  0  0  0
  137.5285  137.7393  156.0775 H   0  0  0  0  0  0  0  0  0  0  0  0
  140.0023  136.3917  153.5387 H   0  0  0  0  0  0  0  0  0  0  0  0
  142.5322  138.9533  152.4918 H   0  0  0  0  0  0  0  0  0  0  0  0
  144.2166  138.0639  151.9205 H   0  0  0  0  0  0  0  0  0  0  0  0
  145.8775  136.3725  152.9543 H   0  0  0  0  0  0  0  0  0  0  0  0
  144.6152  135.2121  152.6220 H   0  0  0  0  0  0  0  0  0  0  0  0
  144.9698  136.7031  150.2080 H   0  0  0  0  0  0  0  0  0  0  0  0
  146.5840  136.2768  150.7171 H   0  0  0  0  0  0  0  0  0  0  0  0
  147.3937  134.1284  150.4429 H   0  0  0  0  0  0  0  0  0  0  0  0
  146.4214  133.5920  151.7992 H   0  0  0  0  0  0  0  0  0  0  0  0
  146.4239  132.4325  148.9617 H   0  0  0  0  0  0  0  0  0  0  0  0
  147.0625  131.6581  150.3884 H   0  0  0  0  0  0  0  0  0  0  0  0
  144.7832  130.7755  149.7887 H   0  0  0  0  0  0  0  0  0  0  0  0
  144.8354  131.4734  151.3868 H   0  0  0  0  0  0  0  0  0  0  0  0
  142.8419  132.2820  150.3679 H   0  0  0  0  0  0  0  0  0  0  0  0
  144.4203  133.2464  147.9417 H   0  0  0  0  0  0  0  0  0  0  0  0
  142.6978  133.4628  148.2226 H   0  0  0  0  0  0  0  0  0  0  0  0
  143.3518  131.8476  147.9931 H   0  0  0  0  0  0  0  0  0  0  0  0
  143.9142  133.9585  151.7166 H   0  0  0  0  0  0  0  0  0  0  0  0
  143.2054  134.7486  150.3320 H   0  0  0  0  0  0  0  0  0  0  0  0
  145.3879  134.6869  149.2954 H   0  0  0  0  0  0  0  0  0  0  0  0
  1  2  1  0  0  0  0
  1 20  1  0  0  0  0
  1 21  1  0  0  0  0
  1 22  1  0  0  0  0
  2 19  1  0  0  0  0
  2  3  2  0  0  0  0
  3  4  1  0  0  0  0
  3 23  1  0  0  0  0
  4  5  1  0  0  0  0
  4 18  2  0  0  0  0
  5  6  1  0  0  0  0
  5 24  1  0  0  0  0
  6  7  2  0  0  0  0
  6  8  1  0  0  0  0
  8  9  1  0  0  0  0
  8 25  1  0  0  0  0
  9 10  1  0  0  0  0
  9 26  1  0  0  0  0
  9 27  1  0  0  0  0
 10 11  1  0  0  0  0
 10 28  1  0  0  0  0
 10 29  1  0  0  0  0
 11 17  1  0  0  0  0
 11 12  1  0  0  0  0
 11 42  1  0  0  0  0
 12 13  1  0  0  0  0
 12 30  1  0  0  0  0
 12 31  1  0  0  0  0
 13 14  1  0  0  0  0
 13 32  1  0  0  0  0
 13 33  1  0  0  0  0
 14 15  1  0  0  0  0
 14 34  1  0  0  0  0
 14 35  1  0  0  0  0
 15 16  1  0  0  0  0
 15 17  1  0  0  0  0
 15 36  1  0  0  0  0
 16 37  1  0  0  0  0
 16 38  1  0  0  0  0
 16 39  1  0  0  0  0
 17 40  1  0  0  0  0
 17 41  1  0  0  0  0
 18 19  1  0  0  0  0
M  CHG  1  11   1
M  END
> <s_m_source_file>
AV-unprocessed.smi

> <i_m_source_file_index>
2078

> <i_lp_mmshare_version>
43012

> <i_f3d_flags>
0

> <s_epik_input>
W0NIM11jMVtjSF1jKG5vMSlbTkhdQyg9TylbTkhdW0NIMl1bQ0gyXU4yW0NIMl1bQ0gyXVtDSDJdW0NAQEhdKFtDSDNdKVtDSDJdMg==

> <s_epik_cmdline>
J2VwaWtfcHl0aG9uJywgJy1waCcsICc3LjAnLCAnLXRuJywgJzgnLCAnLW1hJywgJzIwMCcsICctbWV0YWxfYmluZGluZycsICctaW1hZScsICc8aW5maWxlLm1hZT4nLCAnLW9tYWUnLCAnPG91dGZpbGUubWFlPic=

> <r_epik_Ionization_Penalty>
0.00216453

> <r_epik_Ionization_Penalty_Charging>
0.00212879

> <r_epik_Ionization_Penalty_Neutral>
3.57418e-05

> <r_epik_State_Penalty>
0.00146033

> <r_epik_Charging_Adjusted_Penalty>
0.00358912

> <i_epik_Tot_Q>
1

> <i_epik_Tot_abs_Q>
1

> <r_epik_Metal_State_Penalty>
0.0215827

> <b_epik_Metal_Only>
0

> <s_lp_Force_Field>
OPLS_2005

> <r_lp_Energy>
15.3695

> <b_lp_Chiralities_Consistent>
1

> <s_lp_Variant>
AV-unprocessed.smi:2078-3

> <Gold.Version>
5.8.1

> <Gold.Id.Protein>
6NUR|6NUR_protein|mol2

> <Gold.PLP.Fitness>
44.5404

> <Gold.PLP.PLP>
-39.0508

> <Gold.PLP.part.hbond>
-3.2454

> <Gold.PLP.part.metal>
0.0000

> <Gold.PLP.part.buried>
-4.1994

> <Gold.PLP.part.nonpolar>
-31.6548

> <Gold.PLP.part.repulsive>
0.7485

> <Gold.PLP.ligand.clash>
0.0000

> <Gold.PLP.ligand.torsion>
0.9097

> <Gold.PLP.Chemscore.Hbond>
2.4236

> <Gold.PLP.Chemscore.CHOScore>
0.0000

> <Gold.PLP.Chemscore.Metal>
0.0000

> <Gold.Chemscore.Hbonds>
donor molecule, donor type, donor heavy atom, donor atom, acceptor molecule, acceptor atom, score
      L1  H     5    24       P1 10175  0.94
      L1  H     8    25       P1 10171  0.36
      L1  H    11    42       P1  7921  1.00

> <Gold.PLP.Chemscore.Internal.Correction>
0.0381

> <Gold.Rescore>
     Score         DG    S(hbond)    S(metal)    S(lipo)     H(rot)  DE(clash)    DE(int)     intcor
     19.31     -20.80       2.35        0.00      98.25       1.57       0.28       1.21       ----

> <Gold.Chemscore.Fitness>
19.3133

> <Gold.Chemscore.DG>
-20.8005

> <Gold.Chemscore.ZeroCoef>
-5.4800

> <Gold.Chemscore.Hbond>
2.3486

> <Gold.Chemscore.Metal>
0.0000

> <Gold.Chemscore.Lipo>
98.2455

> <Gold.Chemscore.Internal_Hbond>
0.0000

> <Gold.Chemscore.DEClash>
0.2754

> <Gold.Chemscore.DEInternal>
1.2117

> <Gold.Chemscore.Rot>
1.5697

> <Gold.Chemscore.Internal.Correction>
   9.000000E+99

> <Gold.Chemscore.Hbonds>
donor molecule, donor type, donor heavy atom, donor atom, acceptor molecule, acceptor atom, score
      L1  H     5    24       P1 10175  0.89
      L1  H     8    25       P1 10171  0.35
      L1  H    11    42       P1  7921  0.99

> <Gold.Chemscore.Hbond.Weighted>
-7.8442

> <Gold.Chemscore.Metal.Weighted>
-0.0000

> <Gold.Chemscore.Lipo.Weighted>
-11.4947

> <Gold.Chemscore.Internal_Hbond.Weighted>
0.0000

> <Gold.Chemscore.DEClash.Weighted>
0.2754

> <Gold.Chemscore.DEInternal.Weighted>
1.2117

> <Gold.Chemscore.Rot.Weighted>
4.0185

> <Gold.Chemscore.Internal.Correction.Weighted>
   9.000000E+99

> <Gold.Protein.RotatedTorsions>
[ 6907 6896 6895 6894 ] final -163.18 input  -60.11 | X-H torsion
[ 7974 7965 7964 7962 ] final  143.33 input  175.53 | X-H torsion
[ 8008 7997 7996 7995 ] final  174.80 input   59.86 | X-H torsion
[ 10167 10162 10161 10158 ] final  -28.98 input  -65.29 | X-H torsion
[ 10718 10713 10712 10709 ] final -148.47 input   66.30 | X-H torsion
[ 10763 10752 10751 10750 ] final   49.28 input  -60.55 | X-H torsion
[ 11005 11000 10999 10996 ] final  -69.02 input  -57.11 | X-H torsion

> <Gold.Protein.ActiveResidues>
 VAL166  LYS551  ARG553  GLY616  TRP617  ASP618  TYR619  PRO620  LYS621  CYS622 
 ASP623  PHE694  ASN695  SER759  ASP760  ASP761  ALA762  ILE779  LEU786  VAL792 
 PHE793  MET794  SER795  GLU796  ALA797  LYS798  CYS799  TRP800  GLU811  SER814 

> <Gold.Protein.RotatedAtoms>
  151.3920  133.3786  159.2721 H   0  0  0  0  0  0  0  0  0  0  0  0  # atno 6907 bound_to 6896
  150.9498  134.8900  159.7675 H   0  0  0  0  0  0  0  0  0  0  0  0  # atno 6908 bound_to 6896
  152.5107  134.3874  159.9424 H   0  0  0  0  0  0  0  0  0  0  0  0  # atno 6909 bound_to 6896
  144.8930  139.5531  143.5789 H   0  0  0  0  0  0  0  0  0  0  0  0  # atno 7974 bound_to 7965
  156.0937  140.1425  156.9559 H   0  0  0  0  0  0  0  0  0  0  0  0  # atno 8008 bound_to 7997
  154.4658  140.0927  156.7062 H   0  0  0  0  0  0  0  0  0  0  0  0  # atno 8009 bound_to 7997
  155.4877  140.3447  155.4352 H   0  0  0  0  0  0  0  0  0  0  0  0  # atno 8010 bound_to 7997
  140.7265  143.3965  151.1338 H   0  0  0  0  0  0  0  0  0  0  0  0  # atno 10167 bound_to 10162
  156.4207  130.8027  151.2250 H   0  0  0  0  0  0  0  0  0  0  0  0  # atno 10718 bound_to 10713
  152.9787  135.5917  154.4063 H   0  0  0  0  0  0  0  0  0  0  0  0  # atno 10763 bound_to 10752
  154.3703  135.2767  155.2272 H   0  0  0  0  0  0  0  0  0  0  0  0  # atno 10764 bound_to 10752
  154.4230  135.6054  153.6076 H   0  0  0  0  0  0  0  0  0  0  0  0  # atno 10765 bound_to 10752
  141.1545  133.6754  156.6536 H   0  0  0  0  0  0  0  0  0  0  0  0  # atno 11005 bound_to 11000
  146.3065  139.7598  142.9052 LP  0  0  0  0  0  0  0  0  0  0  0  0  # atno 17320 bound_to 7965
  145.3749  141.0349  143.3210 LP  0  0  0  0  0  0  0  0  0  0  0  0  # atno 17321 bound_to 7965
  139.7579  143.8680  152.3093 LP  0  0  0  0  0  0  0  0  0  0  0  0  # atno 17342 bound_to 10162
  139.8556  144.7143  150.9161 LP  0  0  0  0  0  0  0  0  0  0  0  0  # atno 17343 bound_to 10162
  157.7508  131.0229  150.3812 LP  0  0  0  0  0  0  0  0  0  0  0  0  # atno 17370 bound_to 10713
  156.4128  130.3937  149.6879 LP  0  0  0  0  0  0  0  0  0  0  0  0  # atno 17371 bound_to 10713
  140.3301  134.7935  157.4320 LP  0  0  0  0  0  0  0  0  0  0  0  0  # atno 17394 bound_to 11000
  140.1023  134.5455  155.8341 LP  0  0  0  0  0  0  0  0  0  0  0  0  # atno 17395 bound_to 11000

$$$$
