AV-unprocessed.smi:519|AV-procd|sdf|2795|dock3
  -GOLD-   2262023273D 1   1.00000     0.00000
 Structure written by MMmdl.
 36 38  0  0  0  0  0  0  0  0  1 V2000
  151.8131  139.3525  154.6659 O   0  0  0  0  0  0  0  0  0  0  0  0
  151.6566  139.0396  156.0355 C   0  0  0  0  0  0  0  0  0  0  0  0
  151.8383  140.2137  156.9551 C   0  0  0  0  0  0  0  0  0  0  0  0
  152.7538  140.2448  157.9264 N   0  0  0  0  0  0  0  0  0  0  0  0
  152.5611  141.4907  158.4897 C   0  0  0  0  0  0  0  0  0  0  0  0
  153.2199  142.1227  159.5685 C   0  0  0  0  0  0  0  0  0  0  0  0
  152.8441  143.4205  159.9723 C   0  0  0  0  0  0  0  0  0  0  0  0
  151.8083  144.1042  159.3034 C   0  0  0  0  0  0  0  0  0  0  0  0
  151.1404  143.4930  158.2252 C   0  0  0  0  0  0  0  0  0  0  0  0
  151.5171  142.1962  157.8281 C   0  0  0  0  0  0  0  0  0  0  0  0
  151.0712  141.3265  156.8375 N   0  0  0  0  0  0  0  0  0  0  0  0
  149.9975  141.5807  155.8877 C   0  0  0  0  0  0  0  0  0  0  0  0
  148.6140  141.5393  156.5534 C   0  0  0  0  0  0  0  0  0  0  0  0
  147.6347  142.0139  155.6383 O   0  0  0  0  0  0  0  0  0  0  0  0
  146.4894  142.5958  156.1399 C   0  0  0  0  0  0  0  0  0  0  0  0
  146.1653  142.6405  157.5201 C   0  0  0  0  0  0  0  0  0  0  0  0
  144.9735  143.2515  157.9557 C   0  0  0  0  0  0  0  0  0  0  0  0
  144.0903  143.8232  157.0221 C   0  0  0  0  0  0  0  0  0  0  0  0
  144.4021  143.7852  155.6508 C   0  0  0  0  0  0  0  0  0  0  0  0
  145.5949  143.1768  155.2125 C   0  0  0  0  0  0  0  0  0  0  0  0
  145.9542  143.1490  153.5229 Cl  0  0  0  0  0  0  0  0  0  0  0  0
  151.5452  138.6051  154.1540 H   0  0  0  0  0  0  0  0  0  0  0  0
  150.6594  138.6246  156.1840 H   0  0  0  0  0  0  0  0  0  0  0  0
  152.3769  138.2634  156.2938 H   0  0  0  0  0  0  0  0  0  0  0  0
  154.0147  141.6070  160.0868 H   0  0  0  0  0  0  0  0  0  0  0  0
  153.3525  143.8932  160.7997 H   0  0  0  0  0  0  0  0  0  0  0  0
  151.5245  145.0971  159.6202 H   0  0  0  0  0  0  0  0  0  0  0  0
  150.3428  144.0120  157.7147 H   0  0  0  0  0  0  0  0  0  0  0  0
  150.1621  142.5582  155.4330 H   0  0  0  0  0  0  0  0  0  0  0  0
  150.0518  140.8554  155.0760 H   0  0  0  0  0  0  0  0  0  0  0  0
  148.3860  140.5146  156.8494 H   0  0  0  0  0  0  0  0  0  0  0  0
  148.6192  142.1572  157.4525 H   0  0  0  0  0  0  0  0  0  0  0  0
  146.8149  142.2119  158.2678 H   0  0  0  0  0  0  0  0  0  0  0  0
  144.7369  143.2804  159.0093 H   0  0  0  0  0  0  0  0  0  0  0  0
  143.1758  144.2903  157.3569 H   0  0  0  0  0  0  0  0  0  0  0  0
  143.7243  144.2244  154.9338 H   0  0  0  0  0  0  0  0  0  0  0  0
  1  2  1  0  0  0  0
  1 22  1  0  0  0  0
  2  3  1  0  0  0  0
  2 23  1  0  0  0  0
  2 24  1  0  0  0  0
  3 11  1  0  0  0  0
  3  4  2  0  0  0  0
  4  5  1  0  0  0  0
  5 10  2  0  0  0  0
  5  6  1  0  0  0  0
  6  7  2  0  0  0  0
  6 25  1  0  0  0  0
  7  8  1  0  0  0  0
  7 26  1  0  0  0  0
  8  9  2  0  0  0  0
  8 27  1  0  0  0  0
  9 10  1  0  0  0  0
  9 28  1  0  0  0  0
 10 11  1  0  0  0  0
 11 12  1  0  0  0  0
 12 13  1  0  0  0  0
 12 29  1  0  0  0  0
 12 30  1  0  0  0  0
 13 14  1  0  0  0  0
 13 31  1  0  0  0  0
 13 32  1  0  0  0  0
 14 15  1  0  0  0  0
 15 20  1  0  0  0  0
 15 16  2  0  0  0  0
 16 17  1  0  0  0  0
 16 33  1  0  0  0  0
 17 18  2  0  0  0  0
 17 34  1  0  0  0  0
 18 19  1  0  0  0  0
 18 35  1  0  0  0  0
 19 20  2  0  0  0  0
 19 36  1  0  0  0  0
 20 21  1  0  0  0  0
M  END
> <s_m_source_file>
AV-unprocessed.smi

> <i_m_source_file_index>
519

> <i_lp_mmshare_version>
43012

> <i_f3d_flags>
0

> <s_epik_input>
W2NIXTFbY0hdW2NIXVtjSF1jKGMxMiluKGMobjIpW0NIMl1bT0hdKVtDSDJdW0NIMl1PYzNbY0hdW2NIXVtjSF1bY0hdYzNDbA==

> <s_epik_cmdline>
J2VwaWtfcHl0aG9uJywgJy1waCcsICc3LjAnLCAnLXRuJywgJzgnLCAnLW1hJywgJzIwMCcsICctbWV0YWxfYmluZGluZycsICctaW1hZScsICc8aW5maWxlLm1hZT4nLCAnLW9tYWUnLCAnPG91dGZpbGUubWFlPic=

> <r_lp_tautomer_probability>
1

> <r_epik_Ionization_Penalty>
0.045213

> <r_epik_Ionization_Penalty_Charging>
0

> <r_epik_Ionization_Penalty_Neutral>
0.045213

> <r_epik_State_Penalty>
0.0382996

> <r_epik_Charging_Adjusted_Penalty>
0.0382996

> <i_epik_Tot_Q>
0

> <i_epik_Tot_abs_Q>
0

> <r_epik_Metal_State_Penalty>
3.95633e-05

> <b_epik_Metal_Only>
0

> <s_lp_Force_Field>
OPLS_2005

> <r_lp_Energy>
15.9183

> <b_lp_Chiralities_Consistent>
1

> <s_lp_Variant>
AV-unprocessed.smi:519-1

> <Gold.Version>
5.8.1

> <Gold.Id.Protein>
6NUR|6NUR_protein|mol2

> <Gold.PLP.Fitness>
44.8491

> <Gold.PLP.PLP>
-39.6041

> <Gold.PLP.part.hbond>
-2.0000

> <Gold.PLP.part.metal>
0.0000

> <Gold.PLP.part.buried>
-5.3920

> <Gold.PLP.part.nonpolar>
-32.0238

> <Gold.PLP.part.repulsive>
1.1459

> <Gold.PLP.ligand.clash>
0.0000

> <Gold.PLP.ligand.torsion>
0.3661

> <Gold.PLP.Chemscore.Hbond>
1.9760

> <Gold.PLP.Chemscore.CHOScore>
0.0000

> <Gold.PLP.Chemscore.Metal>
0.0000

> <Gold.Chemscore.Hbonds>
donor molecule, donor type, donor heavy atom, donor atom, acceptor molecule, acceptor atom, score
      P1  H  7989  7998       L1     1  1.00
      P1  H  7997  8008       L1     4  0.96

> <Gold.PLP.Chemscore.Internal.Correction>
0.0492

> <Gold.Rescore>
     Score         DG    S(hbond)    S(metal)    S(lipo)     H(rot)  DE(clash)    DE(int)     intcor
     15.94     -16.42       1.37        0.00     101.87       2.17       0.14       0.34       ----

> <Gold.Chemscore.Fitness>
15.9413

> <Gold.Chemscore.DG>
-16.4217

> <Gold.Chemscore.ZeroCoef>
-5.4800

> <Gold.Chemscore.Hbond>
1.3735

> <Gold.Chemscore.Metal>
0.0000

> <Gold.Chemscore.Lipo>
101.8675

> <Gold.Chemscore.Internal_Hbond>
0.0000

> <Gold.Chemscore.DEClash>
0.1408

> <Gold.Chemscore.DEInternal>
0.3397

> <Gold.Chemscore.Rot>
2.1735

> <Gold.Chemscore.Internal.Correction>
   9.000000E+99

> <Gold.Chemscore.Hbonds>
donor molecule, donor type, donor heavy atom, donor atom, acceptor molecule, acceptor atom, score
      P1  H  7989  7998       L1     1  0.48
      P1  H  7997  8008       L1     4  0.29

> <Gold.Chemscore.Hbond.Weighted>
-4.5874

> <Gold.Chemscore.Metal.Weighted>
-0.0000

> <Gold.Chemscore.Lipo.Weighted>
-11.9185

> <Gold.Chemscore.Internal_Hbond.Weighted>
0.0000

> <Gold.Chemscore.DEClash.Weighted>
0.1408

> <Gold.Chemscore.DEInternal.Weighted>
0.3397

> <Gold.Chemscore.Rot.Weighted>
5.5642

> <Gold.Chemscore.Internal.Correction.Weighted>
   9.000000E+99

> <Gold.Protein.RotatedTorsions>
[ 6907 6896 6895 6894 ] final   55.13 input  -60.11 | X-H torsion
[ 7974 7965 7964 7962 ] final -169.89 input  175.53 | X-H torsion
[ 8008 7997 7996 7995 ] final  -78.00 input   59.86 | X-H torsion
[ 10167 10162 10161 10158 ] final  -90.84 input  -65.29 | X-H torsion
[ 10718 10713 10712 10709 ] final    1.82 input   66.30 | X-H torsion
[ 10763 10752 10751 10750 ] final  -84.61 input  -60.55 | X-H torsion
[ 11005 11000 10999 10996 ] final   95.55 input  -57.11 | X-H torsion

> <Gold.Protein.ActiveResidues>
 VAL166  LYS551  ARG553  GLY616  TRP617  ASP618  TYR619  PRO620  LYS621  CYS622 
 ASP623  PHE694  ASN695  SER759  ASP760  ASP761  ALA762  ILE779  LEU786  VAL792 
 PHE793  MET794  SER795  GLU796  ALA797  LYS798  CYS799  TRP800  GLU811  SER814 

> <Gold.Protein.RotatedAtoms>
  152.3508  134.7008  160.0236 H   0  0  0  0  0  0  0  0  0  0  0  0  # atno 6907 bound_to 6896
  151.7363  133.3314  159.3362 H   0  0  0  0  0  0  0  0  0  0  0  0  # atno 6908 bound_to 6896
  150.7539  134.6251  159.6201 H   0  0  0  0  0  0  0  0  0  0  0  0  # atno 6909 bound_to 6896
  144.7178  140.2154  143.6322 H   0  0  0  0  0  0  0  0  0  0  0  0  # atno 7974 bound_to 7965
  154.5649  140.0701  156.8876 H   0  0  0  0  0  0  0  0  0  0  0  0  # atno 8008 bound_to 7997
  155.2742  140.3367  155.4245 H   0  0  0  0  0  0  0  0  0  0  0  0  # atno 8009 bound_to 7997
  156.2072  140.1745  156.7759 H   0  0  0  0  0  0  0  0  0  0  0  0  # atno 8010 bound_to 7997
  140.3508  143.2892  151.9728 H   0  0  0  0  0  0  0  0  0  0  0  0  # atno 10167 bound_to 10162
  156.8538  130.5563  149.5667 H   0  0  0  0  0  0  0  0  0  0  0  0  # atno 10718 bound_to 10713
  154.6016  135.5514  153.7380 H   0  0  0  0  0  0  0  0  0  0  0  0  # atno 10763 bound_to 10752
  153.0157  135.6367  154.1707 H   0  0  0  0  0  0  0  0  0  0  0  0  # atno 10764 bound_to 10752
  154.1646  135.2895  155.3078 H   0  0  0  0  0  0  0  0  0  0  0  0  # atno 10765 bound_to 10752
  139.8788  134.8904  156.4027 H   0  0  0  0  0  0  0  0  0  0  0  0  # atno 11005 bound_to 11000
  145.8551  139.2195  143.1749 LP  0  0  0  0  0  0  0  0  0  0  0  0  # atno 17320 bound_to 7965
  146.0225  140.8335  142.9916 LP  0  0  0  0  0  0  0  0  0  0  0  0  # atno 17321 bound_to 7965
  139.4826  144.6077  151.7491 LP  0  0  0  0  0  0  0  0  0  0  0  0  # atno 17342 bound_to 10162
  140.5220  144.0864  150.6026 LP  0  0  0  0  0  0  0  0  0  0  0  0  # atno 17343 bound_to 10162
  156.0813  130.5823  150.9569 LP  0  0  0  0  0  0  0  0  0  0  0  0  # atno 17370 bound_to 10713
  157.6288  131.0923  150.8481 LP  0  0  0  0  0  0  0  0  0  0  0  0  # atno 17371 bound_to 10713
  140.9255  133.7615  155.9960 LP  0  0  0  0  0  0  0  0  0  0  0  0  # atno 17394 bound_to 11000
  140.8390  134.3089  157.5320 LP  0  0  0  0  0  0  0  0  0  0  0  0  # atno 17395 bound_to 11000

$$$$
