AV-unprocessed.smi:1135|AV-procd|sdf|4858|dock7
  -GOLD-   22720 3433D 1   1.00000     0.00000
 Structure written by MMmdl.
 45 46  0  0  0  0  0  0  0  0  1 V2000
  146.5906  129.4068  152.7828 C   0  0  0  0  0  0  0  0  0  0  0  0
  147.2472  130.7909  152.8833 C   0  0  2  0  0  0  0  0  0  0  0  0
  148.4407  130.7769  153.8523 C   0  0  0  0  0  0  0  0  0  0  0  0
  149.0981  132.1636  153.9662 C   0  0  0  0  0  0  0  0  0  0  0  0
  148.1152  133.2950  154.3615 C   0  0  1  0  0  0  0  0  0  0  0  0
  147.7032  133.1534  155.8470 C   0  0  0  0  0  0  0  0  0  0  0  0
  148.8501  134.5525  154.1676 N   0  0  0  0  0  0  0  0  0  0  0  0
  149.7872  135.1030  154.9577 C   0  0  0  0  0  0  0  0  0  0  0  0
  150.1913  134.6134  156.0125 O   0  0  0  0  0  0  0  0  0  0  0  0
  150.2385  136.2592  154.4521 N   0  0  0  0  0  0  0  0  0  0  0  0
  151.2746  137.0868  155.0591 C   0  0  0  0  0  0  0  0  0  0  0  0
  151.2285  138.5277  154.5240 C   0  0  0  0  0  0  0  0  0  0  0  0
  151.0516  139.5487  155.6320 C   0  0  0  0  0  0  0  0  0  0  0  0
  151.3366  139.2122  156.9727 C   0  0  0  0  0  0  0  0  0  0  0  0
  151.1532  140.1951  157.9647 C   0  0  0  0  0  0  0  0  0  0  0  0
  150.6922  141.4689  157.5803 C   0  0  0  0  0  0  0  0  0  0  0  0
  150.4341  141.7042  156.2151 C   0  0  0  0  0  0  0  0  0  0  0  0
  150.6084  140.7695  155.2555 N   0  0  0  0  0  0  0  0  0  0  0  0
  146.8831  133.2569  153.4165 C   0  0  0  0  0  0  0  0  0  0  0  0
  146.2337  131.8659  153.3095 C   0  0  0  0  0  0  0  0  0  0  0  0
  146.1950  129.0853  153.7469 H   0  0  0  0  0  0  0  0  0  0  0  0
  147.3075  128.6558  152.4499 H   0  0  0  0  0  0  0  0  0  0  0  0
  145.7656  129.4132  152.0700 H   0  0  0  0  0  0  0  0  0  0  0  0
  147.6195  131.0522  151.8915 H   0  0  0  0  0  0  0  0  0  0  0  0
  148.1180  130.4352  154.8360 H   0  0  0  0  0  0  0  0  0  0  0  0
  149.1831  130.0542  153.5117 H   0  0  0  0  0  0  0  0  0  0  0  0
  149.9238  132.1175  154.6777 H   0  0  0  0  0  0  0  0  0  0  0  0
  149.5508  132.3986  153.0012 H   0  0  0  0  0  0  0  0  0  0  0  0
  147.2298  132.1939  156.0507 H   0  0  0  0  0  0  0  0  0  0  0  0
  146.9908  133.9209  156.1487 H   0  0  0  0  0  0  0  0  0  0  0  0
  148.5687  133.2323  156.5058 H   0  0  0  0  0  0  0  0  0  0  0  0
  148.6134  135.0631  153.3294 H   0  0  0  0  0  0  0  0  0  0  0  0
  149.8457  136.5854  153.5812 H   0  0  0  0  0  0  0  0  0  0  0  0
  151.1192  137.0844  156.1383 H   0  0  0  0  0  0  0  0  0  0  0  0
  152.2579  136.6462  154.8857 H   0  0  0  0  0  0  0  0  0  0  0  0
  152.1438  138.7547  153.9757 H   0  0  0  0  0  0  0  0  0  0  0  0
  150.4099  138.6350  153.8108 H   0  0  0  0  0  0  0  0  0  0  0  0
  151.6867  138.2249  157.2365 H   0  0  0  0  0  0  0  0  0  0  0  0
  151.3611  139.9753  159.0014 H   0  0  0  0  0  0  0  0  0  0  0  0
  150.5389  142.2463  158.3142 H   0  0  0  0  0  0  0  0  0  0  0  0
  150.0772  142.6686  155.8853 H   0  0  0  0  0  0  0  0  0  0  0  0
  146.1286  133.9751  153.7384 H   0  0  0  0  0  0  0  0  0  0  0  0
  147.1862  133.5694  152.4157 H   0  0  0  0  0  0  0  0  0  0  0  0
  145.4143  131.9065  152.5913 H   0  0  0  0  0  0  0  0  0  0  0  0
  145.7839  131.5947  154.2649 H   0  0  0  0  0  0  0  0  0  0  0  0
  1  2  1  0  0  0  0
  1 21  1  0  0  0  0
  1 22  1  0  0  0  0
  1 23  1  0  0  0  0
  2 20  1  0  0  0  0
  2  3  1  0  0  0  0
  2 24  1  0  0  0  0
  3  4  1  0  0  0  0
  3 25  1  0  0  0  0
  3 26  1  0  0  0  0
  4  5  1  0  0  0  0
  4 27  1  0  0  0  0
  4 28  1  0  0  0  0
  5  6  1  0  0  0  0
  5  7  1  0  0  0  0
  5 19  1  0  0  0  0
  6 29  1  0  0  0  0
  6 30  1  0  0  0  0
  6 31  1  0  0  0  0
  7  8  1  0  0  0  0
  7 32  1  0  0  0  0
  8  9  2  0  0  0  0
  8 10  1  0  0  0  0
 10 11  1  0  0  0  0
 10 33  1  0  0  0  0
 11 12  1  0  0  0  0
 11 34  1  0  0  0  0
 11 35  1  0  0  0  0
 12 13  1  0  0  0  0
 12 36  1  0  0  0  0
 12 37  1  0  0  0  0
 13 18  1  0  0  0  0
 13 14  2  0  0  0  0
 14 15  1  0  0  0  0
 14 38  1  0  0  0  0
 15 16  2  0  0  0  0
 15 39  1  0  0  0  0
 16 17  1  0  0  0  0
 16 40  1  0  0  0  0
 17 18  2  0  0  0  0
 17 41  1  0  0  0  0
 19 20  1  0  0  0  0
 19 42  1  0  0  0  0
 19 43  1  0  0  0  0
 20 44  1  0  0  0  0
 20 45  1  0  0  0  0
M  END
> <s_m_source_file>
AV-unprocessed.smi

> <i_m_source_file_index>
1135

> <i_lp_mmshare_version>
43012

> <i_f3d_flags>
0

> <s_epik_input>
W0NIMl0xW0NIMl1bQ0BIXShbQ0gzXSlbQ0gyXVtDSDJdW0NAQF0xKFtDSDNdKVtOSF1DKD1PKVtOSF1bQ0gyXVtDSDJdYzJbY0hdW2NIXVtjSF1bY0hdbjI=

> <s_epik_cmdline>
J2VwaWtfcHl0aG9uJywgJy1waCcsICc3LjAnLCAnLXRuJywgJzgnLCAnLW1hJywgJzIwMCcsICctbWV0YWxfYmluZGluZycsICctaW1hZScsICc8aW5maWxlLm1hZT4nLCAnLW9tYWUnLCAnPG91dGZpbGUubWFlPic=

> <r_epik_Ionization_Penalty>
0.0448679

> <r_epik_Ionization_Penalty_Charging>
0

> <r_epik_Ionization_Penalty_Neutral>
0.0448679

> <r_epik_State_Penalty>
0.0379931

> <r_epik_Charging_Adjusted_Penalty>
0.0379931

> <i_epik_Tot_Q>
0

> <i_epik_Tot_abs_Q>
0

> <r_epik_Metal_State_Penalty>
0.0353093

> <b_epik_Metal_Only>
0

> <s_lp_Force_Field>
OPLS_2005

> <r_lp_Energy>
8.69074

> <b_lp_Chiralities_Consistent>
1

> <s_lp_Variant>
AV-unprocessed.smi:1135-1

> <Gold.Version>
5.8.1

> <Gold.Id.Protein>
6NUR|6NUR_protein|mol2

> <Gold.PLP.Fitness>
42.4392

> <Gold.PLP.PLP>
-33.2061

> <Gold.PLP.part.hbond>
-3.9198

> <Gold.PLP.part.metal>
0.0000

> <Gold.PLP.part.buried>
-2.6203

> <Gold.PLP.part.nonpolar>
-26.9464

> <Gold.PLP.part.repulsive>
0.1652

> <Gold.PLP.ligand.clash>
0.0000

> <Gold.PLP.ligand.torsion>
1.1051

> <Gold.PLP.Chemscore.Hbond>
2.8080

> <Gold.PLP.Chemscore.CHOScore>
1.0000

> <Gold.PLP.Chemscore.Metal>
0.0000

> <Gold.Chemscore.Hbonds>
donor molecule, donor type, donor heavy atom, donor atom, acceptor molecule, acceptor atom, score
      L1  H     7    32       P1  7948  1.00
      L1  H    10    33       P1  7948  1.00
      P1  H  7989  7998       L1    18  0.76
      L1  C    17    41       P1  8028  1.00

> <Gold.PLP.Chemscore.Internal.Correction>
0.0193

> <Gold.Rescore>
     Score         DG    S(hbond)    S(metal)    S(lipo)     H(rot)  DE(clash)    DE(int)     intcor
     14.00     -16.35       1.43        0.00      83.13       1.42       0.13       2.22       ----

> <Gold.Chemscore.Fitness>
13.9996

> <Gold.Chemscore.DG>
-16.3527

> <Gold.Chemscore.ZeroCoef>
-5.4800

> <Gold.Chemscore.Hbond>
1.4328

> <Gold.Chemscore.Metal>
0.0000

> <Gold.Chemscore.Lipo>
83.1266

> <Gold.Chemscore.Internal_Hbond>
0.0000

> <Gold.Chemscore.DEClash>
0.1282

> <Gold.Chemscore.DEInternal>
2.2249

> <Gold.Chemscore.Rot>
1.4213

> <Gold.Chemscore.Internal.Correction>
   9.000000E+99

> <Gold.Chemscore.Hbonds>
donor molecule, donor type, donor heavy atom, donor atom, acceptor molecule, acceptor atom, score
      L1  H     7    32       P1  7948  0.73
      L1  H    10    33       P1  7948  0.28
      P1  H  7989  7998       L1    18  0.14

> <Gold.Chemscore.Hbond.Weighted>
-4.7854

> <Gold.Chemscore.Metal.Weighted>
-0.0000

> <Gold.Chemscore.Lipo.Weighted>
-9.7258

> <Gold.Chemscore.Internal_Hbond.Weighted>
0.0000

> <Gold.Chemscore.DEClash.Weighted>
0.1282

> <Gold.Chemscore.DEInternal.Weighted>
2.2249

> <Gold.Chemscore.Rot.Weighted>
3.6385

> <Gold.Chemscore.Internal.Correction.Weighted>
   9.000000E+99

> <Gold.Protein.RotatedTorsions>
[ 6907 6896 6895 6894 ] final   91.75 input  -60.11 | X-H torsion
[ 7974 7965 7964 7962 ] final -130.18 input  175.53 | X-H torsion
[ 8008 7997 7996 7995 ] final  -73.86 input   59.86 | X-H torsion
[ 10167 10162 10161 10158 ] final   19.42 input  -65.29 | X-H torsion
[ 10718 10713 10712 10709 ] final   -5.72 input   66.30 | X-H torsion
[ 10763 10752 10751 10750 ] final  116.34 input  -60.55 | X-H torsion
[ 11005 11000 10999 10996 ] final  -88.36 input  -57.11 | X-H torsion

> <Gold.Protein.ActiveResidues>
 VAL166  LYS551  ARG553  GLY616  TRP617  ASP618  TYR619  PRO620  LYS621  CYS622 
 ASP623  PHE694  ASN695  SER759  ASP760  ASP761  ALA762  ILE779  LEU786  VAL792 
 PHE793  MET794  SER795  GLU796  ALA797  LYS798  CYS799  TRP800  GLU811  SER814 

> <Gold.Protein.RotatedAtoms>
  152.5451  134.1609  159.8556 H   0  0  0  0  0  0  0  0  0  0  0  0  # atno 6907 bound_to 6896
  151.1627  133.4827  159.2601 H   0  0  0  0  0  0  0  0  0  0  0  0  # atno 6908 bound_to 6896
  151.1356  135.0164  159.8657 H   0  0  0  0  0  0  0  0  0  0  0  0  # atno 6909 bound_to 6896
  144.9500  140.7334  143.4793 H   0  0  0  0  0  0  0  0  0  0  0  0  # atno 7974 bound_to 7965
  154.5283  140.0771  156.8298 H   0  0  0  0  0  0  0  0  0  0  0  0  # atno 8008 bound_to 7997
  155.3429  140.3408  155.4221 H   0  0  0  0  0  0  0  0  0  0  0  0  # atno 8009 bound_to 7997
  156.1754  140.1634  156.8358 H   0  0  0  0  0  0  0  0  0  0  0  0  # atno 8010 bound_to 7997
  140.5580  143.9388  150.6623 H   0  0  0  0  0  0  0  0  0  0  0  0  # atno 10167 bound_to 10162
  156.7424  130.5214  149.5821 H   0  0  0  0  0  0  0  0  0  0  0  0  # atno 10718 bound_to 10713
  153.5358  135.3569  155.2696 H   0  0  0  0  0  0  0  0  0  0  0  0  # atno 10763 bound_to 10752
  154.8722  135.4079  154.3100 H   0  0  0  0  0  0  0  0  0  0  0  0  # atno 10764 bound_to 10752
  153.3797  135.7067  153.6642 H   0  0  0  0  0  0  0  0  0  0  0  0  # atno 10765 bound_to 10752
  141.1603  133.7565  156.9439 H   0  0  0  0  0  0  0  0  0  0  0  0  # atno 11005 bound_to 11000
  145.2858  139.1901  143.4766 LP  0  0  0  0  0  0  0  0  0  0  0  0  # atno 17320 bound_to 7965
  146.3317  140.2828  142.8611 LP  0  0  0  0  0  0  0  0  0  0  0  0  # atno 17321 bound_to 7965
  140.2832  143.3375  152.1132 LP  0  0  0  0  0  0  0  0  0  0  0  0  # atno 17342 bound_to 10162
  139.5057  144.6800  151.6033 LP  0  0  0  0  0  0  0  0  0  0  0  0  # atno 17343 bound_to 10162
  156.1456  130.6274  151.0526 LP  0  0  0  0  0  0  0  0  0  0  0  0  # atno 17370 bound_to 10713
  157.6813  131.0837  150.7363 LP  0  0  0  0  0  0  0  0  0  0  0  0  # atno 17371 bound_to 10713
  140.1303  134.9360  157.2327 LP  0  0  0  0  0  0  0  0  0  0  0  0  # atno 17394 bound_to 11000
  140.2962  134.3184  155.7302 LP  0  0  0  0  0  0  0  0  0  0  0  0  # atno 17395 bound_to 11000

$$$$
