AV-unprocessed.smi:2041|AV-procd|sdf|8292|dock3
  -GOLD-   2272010553D 1   1.00000     0.00000
 Structure written by MMmdl.
 30 31  0  0  0  0  0  0  0  0  2 V2000
  149.9181  136.5913  159.2085 O   0  0  0  0  0  0  0  0  0  0  0  0
  148.8811  137.2342  159.0281 C   0  0  0  0  0  0  0  0  0  0  0  0
  147.8369  137.3284  159.8830 N   0  5  0  0  0  0  0  0  0  0  0  0
  147.6616  136.3980  160.8354 C   0  0  0  0  0  0  0  0  0  0  0  0
  147.8308  136.6480  162.1390 N   0  0  0  0  0  0  0  0  0  0  0  0
  147.5868  135.5403  162.9530 C   0  0  0  0  0  0  0  0  0  0  0  0
  147.2162  134.4226  162.2535 C   0  0  0  0  0  0  0  0  0  0  0  0
  147.1620  134.7300  160.5411 S   0  0  0  0  0  0  0  0  0  0  0  0
  148.7132  137.9298  157.8929 N   0  0  0  0  0  0  0  0  0  0  0  0
  149.6604  138.0154  156.7790 C   0  0  2  0  0  0  0  0  0  0  0  0
  150.2925  139.4301  156.7957 C   0  0  0  0  0  0  0  0  0  0  0  0
  151.0099  139.8795  155.5028 C   0  0  0  0  0  0  0  0  0  0  0  0
  151.9237  138.8186  154.8560 C   0  0  0  0  0  0  0  0  0  0  0  0
  151.2457  137.5011  154.3976 C   0  0  0  0  0  0  0  0  0  0  0  0
  149.7839  137.5433  154.3574 N   0  0  0  0  0  0  0  0  0  0  0  0
  148.9820  137.7584  155.4146 C   0  0  0  0  0  0  0  0  0  0  0  0
  147.7576  137.7800  155.2945 O   0  0  0  0  0  0  0  0  0  0  0  0
  147.7005  135.6380  164.0224 H   0  0  0  0  0  0  0  0  0  0  0  0
  146.9718  133.4439  162.6372 H   0  0  0  0  0  0  0  0  0  0  0  0
  147.8455  138.4346  157.7888 H   0  0  0  0  0  0  0  0  0  0  0  0
  150.4416  137.2716  156.9414 H   0  0  0  0  0  0  0  0  0  0  0  0
  149.5290  140.1744  157.0284 H   0  0  0  0  0  0  0  0  0  0  0  0
  151.0025  139.4723  157.6223 H   0  0  0  0  0  0  0  0  0  0  0  0
  150.2713  140.2095  154.7710 H   0  0  0  0  0  0  0  0  0  0  0  0
  151.6008  140.7683  155.7254 H   0  0  0  0  0  0  0  0  0  0  0  0
  152.3976  139.2769  153.9873 H   0  0  0  0  0  0  0  0  0  0  0  0
  152.7407  138.5803  155.5378 H   0  0  0  0  0  0  0  0  0  0  0  0
  151.6044  137.2343  153.4033 H   0  0  0  0  0  0  0  0  0  0  0  0
  151.5537  136.6786  155.0445 H   0  0  0  0  0  0  0  0  0  0  0  0
  149.3463  137.3863  153.4612 H   0  0  0  0  0  0  0  0  0  0  0  0
  1  2  2  0  0  0  0
  2  3  1  0  0  0  0
  2  9  1  0  0  0  0
  3  4  1  0  0  0  0
  4  8  1  0  0  0  0
  4  5  2  0  0  0  0
  5  6  1  0  0  0  0
  6  7  2  0  0  0  0
  6 18  1  0  0  0  0
  7  8  1  0  0  0  0
  7 19  1  0  0  0  0
  9 10  1  0  0  0  0
  9 20  1  0  0  0  0
 10 16  1  0  0  0  0
 10 11  1  0  0  0  0
 10 21  1  0  0  0  0
 11 12  1  0  0  0  0
 11 22  1  0  0  0  0
 11 23  1  0  0  0  0
 12 13  1  0  0  0  0
 12 24  1  0  0  0  0
 12 25  1  0  0  0  0
 13 14  1  0  0  0  0
 13 26  1  0  0  0  0
 13 27  1  0  0  0  0
 14 15  1  0  0  0  0
 14 28  1  0  0  0  0
 14 29  1  0  0  0  0
 15 16  1  0  0  0  0
 15 30  1  0  0  0  0
 16 17  2  0  0  0  0
M  CHG  1   3  -1
M  END
> <s_m_source_file>
AV-unprocessed.smi

> <i_m_source_file_index>
2041

> <i_lp_mmshare_version>
43012

> <i_f3d_flags>
0

> <s_epik_input>
czFbY0hdW2NIXW5jMVtOSF1DKD1PKVtOSF1bQ0BASF0yW0NIMl1bQ0gyXVtDSDJdW0NIMl1bTkhdQzI9Tw==

> <s_epik_cmdline>
J2VwaWtfcHl0aG9uJywgJy1waCcsICc3LjAnLCAnLXRuJywgJzgnLCAnLW1hJywgJzIwMCcsICctbWV0YWxfYmluZGluZycsICctaW1hZScsICc8aW5maWxlLm1hZT4nLCAnLW9tYWUnLCAnPG91dGZpbGUubWFlPic=

> <r_lp_tautomer_probability>
1

> <r_epik_Ionization_Penalty>
7.83857

> <r_epik_Ionization_Penalty_Charging>
6.39911

> <r_epik_Ionization_Penalty_Neutral>
1.43945

> <r_epik_State_Penalty>
6.3991

> <r_epik_Charging_Adjusted_Penalty>
12.7982

> <i_epik_Tot_Q>
-1

> <i_epik_Tot_abs_Q>
1

> <r_epik_Metal_State_Penalty>
2.33024

> <b_epik_Metal_Only>
1

> <s_lp_Force_Field>
OPLS_2005

> <r_lp_Energy>
11.6521

> <b_lp_Chiralities_Consistent>
1

> <s_lp_Variant>
AV-unprocessed.smi:2041-3

> <Gold.Version>
5.8.1

> <Gold.Id.Protein>
6NUR|6NUR_protein|mol2

> <Gold.PLP.Fitness>
41.2826

> <Gold.PLP.PLP>
-30.1735

> <Gold.PLP.part.hbond>
-4.6357

> <Gold.PLP.part.metal>
0.0000

> <Gold.PLP.part.buried>
-4.5525

> <Gold.PLP.part.nonpolar>
-22.3574

> <Gold.PLP.part.repulsive>
0.1660

> <Gold.PLP.ligand.clash>
0.0000

> <Gold.PLP.ligand.torsion>
0.8823

> <Gold.PLP.Chemscore.Hbond>
4.2900

> <Gold.PLP.Chemscore.CHOScore>
0.0000

> <Gold.PLP.Chemscore.Metal>
0.0000

> <Gold.Chemscore.Hbonds>
donor molecule, donor type, donor heavy atom, donor atom, acceptor molecule, acceptor atom, score
      L1  H    15    30       P1  7948  1.00
      P1  H  6896  6909       L1     1  1.00
      P1  H  6931  6943       L1     5  0.85
      P1  H  6934  6947       L1     3  1.30

> <Gold.PLP.Chemscore.Internal.Correction>
0.0037

> <Gold.Rescore>
     Score         DG    S(hbond)    S(metal)    S(lipo)     H(rot)  DE(clash)    DE(int)     intcor
     16.43     -17.35       2.40        0.00      54.71       1.00       0.01       0.91       ----

> <Gold.Chemscore.Fitness>
16.4289

> <Gold.Chemscore.DG>
-17.3531

> <Gold.Chemscore.ZeroCoef>
-5.4800

> <Gold.Chemscore.Hbond>
2.4049

> <Gold.Chemscore.Metal>
0.0000

> <Gold.Chemscore.Lipo>
54.7062

> <Gold.Chemscore.Internal_Hbond>
0.0000

> <Gold.Chemscore.DEClash>
0.0149

> <Gold.Chemscore.DEInternal>
0.9093

> <Gold.Chemscore.Rot>
1.0000

> <Gold.Chemscore.Internal.Correction>
   9.000000E+99

> <Gold.Chemscore.Hbonds>
donor molecule, donor type, donor heavy atom, donor atom, acceptor molecule, acceptor atom, score
      L1  H    15    30       P1  7948  0.90
      P1  H  6896  6909       L1     1  0.96
      P1  H  6931  6943       L1     5  0.14
      P1  H  6934  6947       L1     3  0.16

> <Gold.Chemscore.Hbond.Weighted>
-8.0325

> <Gold.Chemscore.Metal.Weighted>
-0.0000

> <Gold.Chemscore.Lipo.Weighted>
-6.4006

> <Gold.Chemscore.Internal_Hbond.Weighted>
0.0000

> <Gold.Chemscore.DEClash.Weighted>
0.0149

> <Gold.Chemscore.DEInternal.Weighted>
0.9093

> <Gold.Chemscore.Rot.Weighted>
2.5600

> <Gold.Chemscore.Internal.Correction.Weighted>
   9.000000E+99

> <Gold.Protein.RotatedTorsions>
[ 6907 6896 6895 6894 ] final   76.77 input  -60.11 | X-H torsion
[ 7974 7965 7964 7962 ] final  -41.94 input  175.53 | X-H torsion
[ 8008 7997 7996 7995 ] final   25.22 input   59.86 | X-H torsion
[ 10167 10162 10161 10158 ] final   22.21 input  -65.29 | X-H torsion
[ 10718 10713 10712 10709 ] final -110.65 input   66.30 | X-H torsion
[ 10763 10752 10751 10750 ] final  -97.66 input  -60.55 | X-H torsion
[ 11005 11000 10999 10996 ] final -123.94 input  -57.11 | X-H torsion

> <Gold.Protein.ActiveResidues>
 VAL166  LYS551  ARG553  GLY616  TRP617  ASP618  TYR619  PRO620  LYS621  CYS622 
 ASP623  PHE694  ASN695  SER759  ASP760  ASP761  ALA762  ILE779  LEU786  VAL792 
 PHE793  MET794  SER795  GLU796  ALA797  LYS798  CYS799  TRP800  GLU811  SER814 

> <Gold.Protein.RotatedAtoms>
  152.5088  134.3918  159.9386 H   0  0  0  0  0  0  0  0  0  0  0  0  # atno 6907 bound_to 6896
  151.3879  133.3793  159.2725 H   0  0  0  0  0  0  0  0  0  0  0  0  # atno 6908 bound_to 6896
  150.9455  134.8881  159.7698 H   0  0  0  0  0  0  0  0  0  0  0  0  # atno 6909 bound_to 6896
  146.0163  140.6904  142.9200 H   0  0  0  0  0  0  0  0  0  0  0  0  # atno 7974 bound_to 7965
  155.0083  140.3133  155.4840 H   0  0  0  0  0  0  0  0  0  0  0  0  # atno 8008 bound_to 7997
  156.2913  140.2219  156.5138 H   0  0  0  0  0  0  0  0  0  0  0  0  # atno 8009 bound_to 7997
  154.7557  140.0463  157.0919 H   0  0  0  0  0  0  0  0  0  0  0  0  # atno 8010 bound_to 7997
  140.5366  143.9749  150.6495 H   0  0  0  0  0  0  0  0  0  0  0  0  # atno 10167 bound_to 10162
  156.0603  130.5826  150.8267 H   0  0  0  0  0  0  0  0  0  0  0  0  # atno 10718 bound_to 10713
  154.7347  135.5038  153.9022 H   0  0  0  0  0  0  0  0  0  0  0  0  # atno 10763 bound_to 10752
  153.0983  135.6678  153.9729 H   0  0  0  0  0  0  0  0  0  0  0  0  # atno 10764 bound_to 10752
  153.9521  135.3056  155.3417 H   0  0  0  0  0  0  0  0  0  0  0  0  # atno 10765 bound_to 10752
  140.9880  134.0580  157.3689 H   0  0  0  0  0  0  0  0  0  0  0  0  # atno 11005 bound_to 11000
  144.6972  140.3487  143.7186 LP  0  0  0  0  0  0  0  0  0  0  0  0  # atno 17320 bound_to 7965
  145.7264  139.1724  143.2455 LP  0  0  0  0  0  0  0  0  0  0  0  0  # atno 17321 bound_to 7965
  140.3139  143.3180  152.0852 LP  0  0  0  0  0  0  0  0  0  0  0  0  # atno 17342 bound_to 10162
  139.4973  144.6618  151.6446 LP  0  0  0  0  0  0  0  0  0  0  0  0  # atno 17343 bound_to 10162
  157.5606  131.0946  150.9564 LP  0  0  0  0  0  0  0  0  0  0  0  0  # atno 17370 bound_to 10713
  156.9803  130.5524  149.5296 LP  0  0  0  0  0  0  0  0  0  0  0  0  # atno 17371 bound_to 10713
  139.8979  135.0152  156.7123 LP  0  0  0  0  0  0  0  0  0  0  0  0  # atno 17394 bound_to 11000
  140.7085  133.9244  155.8069 LP  0  0  0  0  0  0  0  0  0  0  0  0  # atno 17395 bound_to 11000

$$$$
