AV-unprocessed.smi:2556|AV-procd|sdf|10024|dock8
  -GOLD-   2272014 73D 1   1.00000     0.00000
 Structure written by MMmdl.
 35 37  0  0  0  0  0  0  0  0  1 V2000
  145.7112  139.8740  154.8865 C   0  0  0  0  0  0  0  0  0  0  0  0
  147.1398  139.6601  154.6464 N   0  0  0  0  0  0  0  0  0  0  0  0
  147.5952  138.9093  153.5896 C   0  0  0  0  0  0  0  0  0  0  0  0
  146.8386  138.3754  152.7792 O   0  0  0  0  0  0  0  0  0  0  0  0
  148.9494  138.7625  153.4498 N   0  0  0  0  0  0  0  0  0  0  0  0
  149.9211  139.2809  154.2398 C   0  0  0  0  0  0  0  0  0  0  0  0
  151.1230  139.1052  154.0501 O   0  0  0  0  0  0  0  0  0  0  0  0
  149.3892  140.0792  155.3481 C   0  0  0  0  0  0  0  0  0  0  0  0
  148.0587  140.2649  155.5485 C   0  0  0  0  0  0  0  0  0  0  0  0
  147.8253  141.0606  156.6647 N   0  0  0  0  0  0  0  0  0  0  0  0
  149.0652  141.3189  157.0867 C   0  0  0  0  0  0  0  0  0  0  0  0
  150.0570  140.7710  156.3541 N   0  0  0  0  0  0  0  0  0  0  0  0
  151.4865  140.8949  156.5920 C   0  0  0  0  0  0  0  0  0  0  0  0
  151.8632  140.6978  158.0741 C   0  0  1  0  0  0  0  0  0  0  0  0
  153.0565  139.9436  158.1722 O   0  0  0  0  0  0  0  0  0  0  0  0
  151.9604  142.0312  158.7990 C   0  0  0  0  0  0  0  0  0  0  0  0
  151.6876  143.2418  158.1238 C   0  0  0  0  0  0  0  0  0  0  0  0
  151.7712  144.4705  158.8072 C   0  0  0  0  0  0  0  0  0  0  0  0
  152.1244  144.4965  160.1698 C   0  0  0  0  0  0  0  0  0  0  0  0
  152.3934  143.2927  160.8489 C   0  0  0  0  0  0  0  0  0  0  0  0
  152.3103  142.0636  160.1661 C   0  0  0  0  0  0  0  0  0  0  0  0
  149.2590  138.2043  152.6678 H   0  0  0  0  0  0  0  0  0  0  0  0
  145.0591  139.3518  154.1856 H   0  0  0  0  0  0  0  0  0  0  0  0
  145.4780  140.9371  154.8210 H   0  0  0  0  0  0  0  0  0  0  0  0
  145.4470  139.5346  155.8886 H   0  0  0  0  0  0  0  0  0  0  0  0
  149.2588  141.9299  157.9564 H   0  0  0  0  0  0  0  0  0  0  0  0
  152.0051  140.1636  155.9703 H   0  0  0  0  0  0  0  0  0  0  0  0
  151.8103  141.8758  156.2427 H   0  0  0  0  0  0  0  0  0  0  0  0
  151.0876  140.1058  158.5607 H   0  0  0  0  0  0  0  0  0  0  0  0
  152.8330  139.0258  158.1390 H   0  0  0  0  0  0  0  0  0  0  0  0
  151.4102  143.2328  157.0797 H   0  0  0  0  0  0  0  0  0  0  0  0
  151.5621  145.3930  158.2859 H   0  0  0  0  0  0  0  0  0  0  0  0
  152.1868  145.4388  160.6939 H   0  0  0  0  0  0  0  0  0  0  0  0
  152.6617  143.3121  161.8950 H   0  0  0  0  0  0  0  0  0  0  0  0
  152.5139  141.1449  160.6970 H   0  0  0  0  0  0  0  0  0  0  0  0
  1  2  1  0  0  0  0
  1 23  1  0  0  0  0
  1 24  1  0  0  0  0
  1 25  1  0  0  0  0
  2  9  1  0  0  0  0
  2  3  1  0  0  0  0
  3  4  2  0  0  0  0
  3  5  1  0  0  0  0
  5 22  1  0  0  0  0
  5  6  1  0  0  0  0
  6  7  2  0  0  0  0
  6  8  1  0  0  0  0
  8 12  1  0  0  0  0
  8  9  2  0  0  0  0
  9 10  1  0  0  0  0
 10 11  2  0  0  0  0
 11 12  1  0  0  0  0
 11 26  1  0  0  0  0
 12 13  1  0  0  0  0
 13 14  1  0  0  0  0
 13 27  1  0  0  0  0
 13 28  1  0  0  0  0
 14 15  1  0  0  0  0
 14 16  1  0  0  0  0
 14 29  1  0  0  0  0
 15 30  1  0  0  0  0
 16 21  1  0  0  0  0
 16 17  2  0  0  0  0
 17 18  1  0  0  0  0
 17 31  1  0  0  0  0
 18 19  2  0  0  0  0
 18 32  1  0  0  0  0
 19 20  1  0  0  0  0
 19 33  1  0  0  0  0
 20 21  2  0  0  0  0
 20 34  1  0  0  0  0
 21 35  1  0  0  0  0
M  END
> <s_m_source_file>
AV-unprocessed.smi

> <i_m_source_file_index>
2556

> <i_lp_mmshare_version>
43012

> <i_f3d_flags>
0

> <s_epik_input>
Tz1jMVtuSF1jKD1PKW4oW0NIM10pYyhjMTIpbltjSF1uMltDSDJdW0NASF0oW09IXSljM1tjSF1bY0hdW2NIXVtjSF1bY0hdMw==

> <s_epik_cmdline>
J2VwaWtfcHl0aG9uJywgJy1waCcsICc3LjAnLCAnLXRuJywgJzgnLCAnLW1hJywgJzIwMCcsICctbWV0YWxfYmluZGluZycsICctaW1hZScsICc8aW5maWxlLm1hZT4nLCAnLW9tYWUnLCAnPG91dGZpbGUubWFlPic=

> <r_lp_tautomer_probability>
1

> <r_epik_Ionization_Penalty>
0.000177505

> <r_epik_Ionization_Penalty_Charging>
0.000176585

> <r_epik_Ionization_Penalty_Neutral>
9.19728e-07

> <r_epik_State_Penalty>
-0

> <r_epik_Charging_Adjusted_Penalty>
0.000176585

> <i_epik_Tot_Q>
0

> <i_epik_Tot_abs_Q>
0

> <r_epik_Metal_State_Penalty>
0.122509

> <b_epik_Metal_Only>
0

> <s_lp_Force_Field>
OPLS_2005

> <r_lp_Energy>
28.4521

> <b_lp_Chiralities_Consistent>
1

> <s_lp_Variant>
AV-unprocessed.smi:2556-2

> <Gold.Version>
5.8.1

> <Gold.Id.Protein>
6NUR|6NUR_protein|mol2

> <Gold.PLP.Fitness>
43.6639

> <Gold.PLP.PLP>
-36.1036

> <Gold.PLP.part.hbond>
-4.0000

> <Gold.PLP.part.metal>
0.0000

> <Gold.PLP.part.buried>
-3.1497

> <Gold.PLP.part.nonpolar>
-29.7115

> <Gold.PLP.part.repulsive>
0.5854

> <Gold.PLP.ligand.clash>
0.0000

> <Gold.PLP.ligand.torsion>
0.7310

> <Gold.PLP.Chemscore.Hbond>
3.0000

> <Gold.PLP.Chemscore.CHOScore>
0.0000

> <Gold.PLP.Chemscore.Metal>
0.0000

> <Gold.Chemscore.Hbonds>
donor molecule, donor type, donor heavy atom, donor atom, acceptor molecule, acceptor atom, score
      L1  H     5    22       P1  7948  0.65
      P1  H  7989  7998       L1     7  1.00
      P1  H  7997  8008       L1    15  1.00

> <Gold.PLP.Chemscore.Internal.Correction>
0.0224

> <Gold.Rescore>
     Score         DG    S(hbond)    S(metal)    S(lipo)     H(rot)  DE(clash)    DE(int)     intcor
     15.78     -16.50       1.99        0.00      87.97       2.31       0.06       0.66       ----

> <Gold.Chemscore.Fitness>
15.7812

> <Gold.Chemscore.DG>
-16.5028

> <Gold.Chemscore.ZeroCoef>
-5.4800

> <Gold.Chemscore.Hbond>
1.9902

> <Gold.Chemscore.Metal>
0.0000

> <Gold.Chemscore.Lipo>
87.9720

> <Gold.Chemscore.Internal_Hbond>
0.0000

> <Gold.Chemscore.DEClash>
0.0595

> <Gold.Chemscore.DEInternal>
0.6621

> <Gold.Chemscore.Rot>
2.3115

> <Gold.Chemscore.Internal.Correction>
   9.000000E+99

> <Gold.Chemscore.Hbonds>
donor molecule, donor type, donor heavy atom, donor atom, acceptor molecule, acceptor atom, score
      L1  H     5    22       P1  7948  0.59
      P1  H  7989  7998       L1     7  0.29
      P1  H  7997  8008       L1    15  0.33

> <Gold.Chemscore.Hbond.Weighted>
-6.6474

> <Gold.Chemscore.Metal.Weighted>
-0.0000

> <Gold.Chemscore.Lipo.Weighted>
-10.2927

> <Gold.Chemscore.Internal_Hbond.Weighted>
0.0000

> <Gold.Chemscore.DEClash.Weighted>
0.0595

> <Gold.Chemscore.DEInternal.Weighted>
0.6621

> <Gold.Chemscore.Rot.Weighted>
5.9174

> <Gold.Chemscore.Internal.Correction.Weighted>
   9.000000E+99

> <Gold.Protein.RotatedTorsions>
[ 6907 6896 6895 6894 ] final  114.03 input  -60.11 | X-H torsion
[ 7974 7965 7964 7962 ] final  119.66 input  175.53 | X-H torsion
[ 8008 7997 7996 7995 ] final  -74.28 input   59.86 | X-H torsion
[ 10167 10162 10161 10158 ] final   -5.48 input  -65.29 | X-H torsion
[ 10718 10713 10712 10709 ] final -119.58 input   66.30 | X-H torsion
[ 10763 10752 10751 10750 ] final  115.79 input  -60.55 | X-H torsion
[ 11005 11000 10999 10996 ] final -152.66 input  -57.11 | X-H torsion

> <Gold.Protein.ActiveResidues>
 VAL166  LYS551  ARG553  GLY616  TRP617  ASP618  TYR619  PRO620  LYS621  CYS622 
 ASP623  PHE694  ASN695  SER759  ASP760  ASP761  ALA762  ILE779  LEU786  VAL792 
 PHE793  MET794  SER795  GLU796  ALA797  LYS798  CYS799  TRP800  GLU811  SER814 

> <Gold.Protein.RotatedAtoms>
  152.4826  133.8293  159.7094 H   0  0  0  0  0  0  0  0  0  0  0  0  # atno 6907 bound_to 6896
  150.8888  133.7262  159.2917 H   0  0  0  0  0  0  0  0  0  0  0  0  # atno 6908 bound_to 6896
  151.4742  135.1051  159.9812 H   0  0  0  0  0  0  0  0  0  0  0  0  # atno 6909 bound_to 6896
  145.1405  139.3271  143.4618 H   0  0  0  0  0  0  0  0  0  0  0  0  # atno 7974 bound_to 7965
  154.5317  140.0764  156.8357 H   0  0  0  0  0  0  0  0  0  0  0  0  # atno 8008 bound_to 7997
  155.3361  140.3404  155.4221 H   0  0  0  0  0  0  0  0  0  0  0  0  # atno 8009 bound_to 7997
  156.1788  140.1645  156.8299 H   0  0  0  0  0  0  0  0  0  0  0  0  # atno 8010 bound_to 7997
  140.6964  143.6304  150.8528 H   0  0  0  0  0  0  0  0  0  0  0  0  # atno 10167 bound_to 10162
  156.1192  130.6310  150.9434 H   0  0  0  0  0  0  0  0  0  0  0  0  # atno 10718 bound_to 10713
  153.5275  135.3585  155.2661 H   0  0  0  0  0  0  0  0  0  0  0  0  # atno 10763 bound_to 10752
  154.8730  135.4060  154.3189 H   0  0  0  0  0  0  0  0  0  0  0  0  # atno 10764 bound_to 10752
  153.3871  135.7070  153.6589 H   0  0  0  0  0  0  0  0  0  0  0  0  # atno 10765 bound_to 10752
  140.7165  134.3775  157.5190 H   0  0  0  0  0  0  0  0  0  0  0  0  # atno 11005 bound_to 11000
  146.3505  140.1440  142.8594 LP  0  0  0  0  0  0  0  0  0  0  0  0  # atno 17320 bound_to 7965
  145.0538  140.9037  143.4980 LP  0  0  0  0  0  0  0  0  0  0  0  0  # atno 17321 bound_to 7965
  140.0022  143.5732  152.2871 LP  0  0  0  0  0  0  0  0  0  0  0  0  # atno 17342 bound_to 10162
  139.6425  144.7656  151.2310 LP  0  0  0  0  0  0  0  0  0  0  0  0  # atno 17343 bound_to 10162
  157.6375  131.0914  150.8318 LP  0  0  0  0  0  0  0  0  0  0  0  0  # atno 17370 bound_to 10713
  156.8417  130.5050  149.5320 LP  0  0  0  0  0  0  0  0  0  0  0  0  # atno 17371 bound_to 10713
  139.8858  134.8926  156.2619 LP  0  0  0  0  0  0  0  0  0  0  0  0  # atno 17394 bound_to 11000
  141.0040  133.7134  156.1005 LP  0  0  0  0  0  0  0  0  0  0  0  0  # atno 17395 bound_to 11000

$$$$
