AV-unprocessed.smi:2395|AV-procd|sdf|9491|dock1
  -GOLD-   2272013123D 1   1.00000     0.00000
 Structure written by MMmdl.
 39 40  0  0  0  0  0  0  0  0  1 V2000
  150.9748  137.8048  154.0863 C   0  0  0  0  0  0  0  0  0  0  0  0
  150.3129  139.0704  154.5508 C   0  0  0  0  0  0  0  0  0  0  0  0
  151.0551  140.0396  155.0587 N   0  0  0  0  0  0  0  0  0  0  0  0
  150.1814  141.0213  155.3643 N   0  0  0  0  0  0  0  0  0  0  0  0
  150.6816  142.2583  155.9482 C   0  0  0  0  0  0  0  0  0  0  0  0
  150.6294  142.2535  157.4808 C   0  0  0  0  0  0  0  0  0  0  0  0
  149.9640  141.4153  158.0912 O   0  0  0  0  0  0  0  0  0  0  0  0
  151.3492  143.2055  158.0930 N   0  0  0  0  0  0  0  0  0  0  0  0
  151.4637  143.3690  159.5361 C   0  0  0  0  0  0  0  0  0  0  0  0
  152.8749  143.2560  160.0806 C   0  0  0  0  0  0  0  0  0  0  0  0
  153.6317  141.9529  159.9770 C   0  0  0  0  0  0  0  0  0  0  0  0
  153.1676  142.4514  161.3251 C   0  0  0  0  0  0  0  0  0  0  0  0
  148.8810  140.6647  155.0536 C   0  0  0  0  0  0  0  0  0  0  0  0
  147.7211  141.5790  155.2889 C   0  0  0  0  0  0  0  0  0  0  0  0
  148.9268  139.4017  154.5269 C   0  0  0  0  0  0  0  0  0  0  0  0
  147.7919  138.5489  154.0252 C   0  0  0  0  0  0  0  0  0  0  0  0
  147.0044  139.2600  152.9170 C   0  0  0  0  0  0  0  0  0  0  0  0
  147.3693  138.7393  151.6572 O   0  0  0  0  0  0  0  0  0  0  0  0
  150.5031  137.4263  153.1792 H   0  0  0  0  0  0  0  0  0  0  0  0
  150.9040  137.0273  154.8468 H   0  0  0  0  0  0  0  0  0  0  0  0
  152.0315  137.9609  153.8659 H   0  0  0  0  0  0  0  0  0  0  0  0
  151.7073  142.4105  155.6096 H   0  0  0  0  0  0  0  0  0  0  0  0
  150.0955  143.0993  155.5746 H   0  0  0  0  0  0  0  0  0  0  0  0
  151.8633  143.8569  157.5175 H   0  0  0  0  0  0  0  0  0  0  0  0
  151.0556  144.3454  159.7989 H   0  0  0  0  0  0  0  0  0  0  0  0
  150.8354  142.6318  160.0387 H   0  0  0  0  0  0  0  0  0  0  0  0
  153.4739  144.1540  159.9390 H   0  0  0  0  0  0  0  0  0  0  0  0
  153.1118  141.0957  159.5540 H   0  0  0  0  0  0  0  0  0  0  0  0
  154.6965  142.0066  159.7592 H   0  0  0  0  0  0  0  0  0  0  0  0
  153.9230  142.8379  162.0063 H   0  0  0  0  0  0  0  0  0  0  0  0
  152.3389  141.9269  161.7969 H   0  0  0  0  0  0  0  0  0  0  0  0
  146.7851  141.1224  154.9678 H   0  0  0  0  0  0  0  0  0  0  0  0
  147.8421  142.5095  154.7341 H   0  0  0  0  0  0  0  0  0  0  0  0
  147.6277  141.8244  156.3467 H   0  0  0  0  0  0  0  0  0  0  0  0
  148.1672  137.5978  153.6456 H   0  0  0  0  0  0  0  0  0  0  0  0
  147.1158  138.2900  154.8409 H   0  0  0  0  0  0  0  0  0  0  0  0
  145.9316  139.1261  153.0595 H   0  0  0  0  0  0  0  0  0  0  0  0
  147.2052  140.3317  152.9298 H   0  0  0  0  0  0  0  0  0  0  0  0
  148.0540  138.1004  151.7836 H   0  0  0  0  0  0  0  0  0  0  0  0
  1  2  1  0  0  0  0
  1 19  1  0  0  0  0
  1 20  1  0  0  0  0
  1 21  1  0  0  0  0
  2 15  1  0  0  0  0
  2  3  2  0  0  0  0
  3  4  1  0  0  0  0
  4  5  1  0  0  0  0
  4 13  1  0  0  0  0
  5  6  1  0  0  0  0
  5 22  1  0  0  0  0
  5 23  1  0  0  0  0
  6  7  2  0  0  0  0
  6  8  1  0  0  0  0
  8  9  1  0  0  0  0
  8 24  1  0  0  0  0
  9 10  1  0  0  0  0
  9 25  1  0  0  0  0
  9 26  1  0  0  0  0
 10 12  1  0  0  0  0
 10 11  1  0  0  0  0
 10 27  1  0  0  0  0
 11 12  1  0  0  0  0
 11 28  1  0  0  0  0
 11 29  1  0  0  0  0
 12 30  1  0  0  0  0
 12 31  1  0  0  0  0
 13 14  1  0  0  0  0
 13 15  2  0  0  0  0
 14 32  1  0  0  0  0
 14 33  1  0  0  0  0
 14 34  1  0  0  0  0
 15 16  1  0  0  0  0
 16 17  1  0  0  0  0
 16 35  1  0  0  0  0
 16 36  1  0  0  0  0
 17 18  1  0  0  0  0
 17 37  1  0  0  0  0
 17 38  1  0  0  0  0
 18 39  1  0  0  0  0
M  END
> <s_m_source_file>
AV-unprocessed.smi

> <i_m_source_file_index>
2395

> <i_lp_mmshare_version>
43012

> <i_f3d_flags>
0

> <s_epik_input>
W09IXVtDSDJdW0NIMl1jMWMoW0NIM10pbihuYzFbQ0gzXSlbQ0gyXUMoPU8pW05IXVtDSDJdW0NIXTJbQ0gyXVtDSDJdMg==

> <s_epik_cmdline>
J2VwaWtfcHl0aG9uJywgJy1waCcsICc3LjAnLCAnLXRuJywgJzgnLCAnLW1hJywgJzIwMCcsICctbWV0YWxfYmluZGluZycsICctaW1hZScsICc8aW5maWxlLm1hZT4nLCAnLW9tYWUnLCAnPG91dGZpbGUubWFlPic=

> <r_lp_tautomer_probability>
1

> <r_epik_Ionization_Penalty>
0.000725848

> <r_epik_Ionization_Penalty_Charging>
0

> <r_epik_Ionization_Penalty_Neutral>
0.000725848

> <r_epik_State_Penalty>
-0

> <r_epik_Charging_Adjusted_Penalty>
0

> <i_epik_Tot_Q>
0

> <i_epik_Tot_abs_Q>
0

> <r_epik_Metal_State_Penalty>
-0

> <b_epik_Metal_Only>
0

> <s_lp_Force_Field>
OPLS_2005

> <r_lp_Energy>
10.6696

> <b_lp_Chiralities_Consistent>
1

> <s_lp_Variant>
AV-unprocessed.smi:2395-1

> <Gold.Version>
5.8.1

> <Gold.Id.Protein>
6NUR|6NUR_protein|mol2

> <Gold.PLP.Fitness>
42.8130

> <Gold.PLP.PLP>
-39.4571

> <Gold.PLP.part.hbond>
-4.0000

> <Gold.PLP.part.metal>
0.0000

> <Gold.PLP.part.buried>
-3.1011

> <Gold.PLP.part.nonpolar>
-32.7386

> <Gold.PLP.part.repulsive>
0.1046

> <Gold.PLP.ligand.clash>
0.0000

> <Gold.PLP.ligand.torsion>
1.1730

> <Gold.PLP.Chemscore.Hbond>
1.7000

> <Gold.PLP.Chemscore.CHOScore>
0.0000

> <Gold.PLP.Chemscore.Metal>
0.0000

> <Gold.Chemscore.Hbonds>
donor molecule, donor type, donor heavy atom, donor atom, acceptor molecule, acceptor atom, score
      L1  H    18    39       P1  7948  0.98
      P1  H  7989  7998       L1     3  0.70

> <Gold.PLP.Chemscore.Internal.Correction>
0.6019

> <Gold.Rescore>
     Score         DG    S(hbond)    S(metal)    S(lipo)     H(rot)  DE(clash)    DE(int)     intcor
     12.36     -13.89       1.00        0.00      98.64       2.53       0.39       1.13       ----

> <Gold.Chemscore.Fitness>
12.3633

> <Gold.Chemscore.DG>
-13.8873

> <Gold.Chemscore.ZeroCoef>
-5.4800

> <Gold.Chemscore.Hbond>
1.0015

> <Gold.Chemscore.Metal>
0.0000

> <Gold.Chemscore.Lipo>
98.6430

> <Gold.Chemscore.Internal_Hbond>
0.0000

> <Gold.Chemscore.DEClash>
0.3920

> <Gold.Chemscore.DEInternal>
1.1321

> <Gold.Chemscore.Rot>
2.5309

> <Gold.Chemscore.Internal.Correction>
   9.000000E+99

> <Gold.Chemscore.Hbonds>
donor molecule, donor type, donor heavy atom, donor atom, acceptor molecule, acceptor atom, score
      L1  H    18    39       P1  7948  0.92
      P1  H  7989  7998       L1     3  0.02

> <Gold.Chemscore.Hbond.Weighted>
-3.3451

> <Gold.Chemscore.Metal.Weighted>
-0.0000

> <Gold.Chemscore.Lipo.Weighted>
-11.5412

> <Gold.Chemscore.Internal_Hbond.Weighted>
0.0000

> <Gold.Chemscore.DEClash.Weighted>
0.3920

> <Gold.Chemscore.DEInternal.Weighted>
1.1321

> <Gold.Chemscore.Rot.Weighted>
6.4790

> <Gold.Chemscore.Internal.Correction.Weighted>
   9.000000E+99

> <Gold.Protein.RotatedTorsions>
[ 6907 6896 6895 6894 ] final -100.37 input  -60.11 | X-H torsion
[ 7974 7965 7964 7962 ] final  107.70 input  175.53 | X-H torsion
[ 8008 7997 7996 7995 ] final   62.79 input   59.86 | X-H torsion
[ 10167 10162 10161 10158 ] final  -78.02 input  -65.29 | X-H torsion
[ 10718 10713 10712 10709 ] final -170.22 input   66.30 | X-H torsion
[ 10763 10752 10751 10750 ] final  -57.67 input  -60.55 | X-H torsion
[ 11005 11000 10999 10996 ] final  -46.16 input  -57.11 | X-H torsion

> <Gold.Protein.ActiveResidues>
 VAL166  LYS551  ARG553  GLY616  TRP617  ASP618  TYR619  PRO620  LYS621  CYS622 
 ASP623  PHE694  ASN695  SER759  ASP760  ASP761  ALA762  ILE779  LEU786  VAL792 
 PHE793  MET794  SER795  GLU796  ALA797  LYS798  CYS799  TRP800  GLU811  SER814 

> <Gold.Protein.RotatedAtoms>
  150.7113  134.0897  159.3927 H   0  0  0  0  0  0  0  0  0  0  0  0  # atno 6907 bound_to 6896
  151.8882  135.0424  160.0504 H   0  0  0  0  0  0  0  0  0  0  0  0  # atno 6908 bound_to 6896
  152.2512  133.5181  159.5363 H   0  0  0  0  0  0  0  0  0  0  0  0  # atno 6909 bound_to 6896
  145.2902  139.2603  143.3869 H   0  0  0  0  0  0  0  0  0  0  0  0  # atno 7974 bound_to 7965
  155.6199  140.3495  155.4648 H   0  0  0  0  0  0  0  0  0  0  0  0  # atno 8008 bound_to 7997
  156.0088  140.1228  157.0499 H   0  0  0  0  0  0  0  0  0  0  0  0  # atno 8009 bound_to 7997
  154.4273  140.1086  156.5786 H   0  0  0  0  0  0  0  0  0  0  0  0  # atno 8010 bound_to 7997
  140.4719  143.2424  151.8192 H   0  0  0  0  0  0  0  0  0  0  0  0  # atno 10167 bound_to 10162
  156.7230  130.9277  151.3099 H   0  0  0  0  0  0  0  0  0  0  0  0  # atno 10718 bound_to 10713
  154.2260  135.6369  153.5160 H   0  0  0  0  0  0  0  0  0  0  0  0  # atno 10763 bound_to 10752
  152.9959  135.5508  154.6063 H   0  0  0  0  0  0  0  0  0  0  0  0  # atno 10764 bound_to 10752
  154.5535  135.2903  155.0961 H   0  0  0  0  0  0  0  0  0  0  0  0  # atno 10765 bound_to 10752
  141.0561  133.6725  156.3115 H   0  0  0  0  0  0  0  0  0  0  0  0  # atno 11005 bound_to 11000
  146.3187  140.3392  142.8646 LP  0  0  0  0  0  0  0  0  0  0  0  0  # atno 17320 bound_to 7965
  144.9179  140.7834  143.5767 LP  0  0  0  0  0  0  0  0  0  0  0  0  # atno 17321 bound_to 7965
  139.4820  144.4881  151.9220 LP  0  0  0  0  0  0  0  0  0  0  0  0  # atno 17342 bound_to 10162
  140.3966  144.2547  150.5895 LP  0  0  0  0  0  0  0  0  0  0  0  0  # atno 17343 bound_to 10162
  157.6890  130.9214  150.0463 LP  0  0  0  0  0  0  0  0  0  0  0  0  # atno 17370 bound_to 10713
  156.1581  130.3643  149.9339 LP  0  0  0  0  0  0  0  0  0  0  0  0  # atno 17371 bound_to 10713
  140.5960  134.5602  157.5509 LP  0  0  0  0  0  0  0  0  0  0  0  0  # atno 17394 bound_to 11000
  139.9392  134.7819  156.0723 LP  0  0  0  0  0  0  0  0  0  0  0  0  # atno 17395 bound_to 11000

$$$$
