AV-unprocessed.smi:949|AV-procd|sdf|4243|dock1
  -GOLD-   22720 2153D 1   1.00000     0.00000
 Structure written by MMmdl.
 33 34  0  0  0  0  0  0  0  0  2 V2000
  150.1978  140.6229  158.2346 C   0  0  0  0  0  0  0  0  0  0  0  0
  151.0478  141.6901  157.5218 C   0  0  1  0  0  0  0  0  0  0  0  0
  150.6079  141.8547  156.1403 N   0  0  0  0  0  0  0  0  0  0  0  0
  150.2360  140.7775  155.3161 C   0  0  0  0  0  0  0  0  0  0  0  0
  150.9968  139.5838  155.2308 C   0  0  0  0  0  0  0  0  0  0  0  0
  150.5694  138.5423  154.3833 C   0  0  0  0  0  0  0  0  0  0  0  0
  149.4413  138.6850  153.6576 N   0  3  0  0  0  0  0  0  0  0  0  0
  148.6827  139.7999  153.7022 C   0  0  0  0  0  0  0  0  0  0  0  0
  149.0570  140.8785  154.5312 C   0  0  0  0  0  0  0  0  0  0  0  0
  148.2547  142.0220  154.5577 N   0  0  0  0  0  0  0  0  0  0  0  0
  150.9804  143.0384  158.2655 C   0  0  2  0  0  0  0  0  0  0  0  0
  151.9048  144.1202  157.7004 C   0  0  0  0  0  0  0  0  0  0  0  0
  152.1159  145.0069  158.9053 C   0  0  0  0  0  0  0  0  0  0  0  0
  152.2156  143.9782  160.0256 C   0  0  0  0  0  0  0  0  0  0  0  0
  151.4014  142.8810  159.6199 O   0  0  0  0  0  0  0  0  0  0  0  0
  150.5378  140.4669  159.2586 H   0  0  0  0  0  0  0  0  0  0  0  0
  150.2483  139.6590  157.7286 H   0  0  0  0  0  0  0  0  0  0  0  0
  149.1486  140.9177  158.2770 H   0  0  0  0  0  0  0  0  0  0  0  0
  152.0906  141.3733  157.5249 H   0  0  0  0  0  0  0  0  0  0  0  0
  150.5828  142.7904  155.7612 H   0  0  0  0  0  0  0  0  0  0  0  0
  151.9015  139.4438  155.8021 H   0  0  0  0  0  0  0  0  0  0  0  0
  151.0935  137.6048  154.2666 H   0  0  0  0  0  0  0  0  0  0  0  0
  147.8029  139.7937  153.0751 H   0  0  0  0  0  0  0  0  0  0  0  0
  148.4850  142.8174  155.1362 H   0  0  0  0  0  0  0  0  0  0  0  0
  147.4505  142.1166  153.9542 H   0  0  0  0  0  0  0  0  0  0  0  0
  149.9561  143.4156  158.2792 H   0  0  0  0  0  0  0  0  0  0  0  0
  152.8563  143.6896  157.3845 H   0  0  0  0  0  0  0  0  0  0  0  0
  151.4709  144.6507  156.8522 H   0  0  0  0  0  0  0  0  0  0  0  0
  152.9999  145.6402  158.8261 H   0  0  0  0  0  0  0  0  0  0  0  0
  151.2457  145.6473  159.0566 H   0  0  0  0  0  0  0  0  0  0  0  0
  153.2428  143.6260  160.1282 H   0  0  0  0  0  0  0  0  0  0  0  0
  151.8968  144.3783  160.9883 H   0  0  0  0  0  0  0  0  0  0  0  0
  149.1496  137.9190  153.0501 H   0  0  0  0  0  0  0  0  0  0  0  0
  1  2  1  0  0  0  0
  1 16  1  0  0  0  0
  1 17  1  0  0  0  0
  1 18  1  0  0  0  0
  2  3  1  0  0  0  0
  2 11  1  0  0  0  0
  2 19  1  0  0  0  0
  3  4  1  0  0  0  0
  3 20  1  0  0  0  0
  4  9  1  0  0  0  0
  4  5  2  0  0  0  0
  5  6  1  0  0  0  0
  5 21  1  0  0  0  0
  6  7  2  0  0  0  0
  6 22  1  0  0  0  0
  7  8  1  0  0  0  0
  7 33  1  0  0  0  0
  8  9  2  0  0  0  0
  8 23  1  0  0  0  0
  9 10  1  0  0  0  0
 10 24  1  0  0  0  0
 10 25  1  0  0  0  0
 11 15  1  0  0  0  0
 11 12  1  0  0  0  0
 11 26  1  0  0  0  0
 12 13  1  0  0  0  0
 12 27  1  0  0  0  0
 12 28  1  0  0  0  0
 13 14  1  0  0  0  0
 13 29  1  0  0  0  0
 13 30  1  0  0  0  0
 14 15  1  0  0  0  0
 14 31  1  0  0  0  0
 14 32  1  0  0  0  0
M  CHG  1   7   1
M  END
> <s_m_source_file>
AV-unprocessed.smi

> <i_m_source_file_index>
949

> <i_lp_mmshare_version>
43012

> <i_f3d_flags>
0

> <s_epik_input>
TzFbQ0gyXVtDSDJdW0NIMl1bQ0BIXTFbQ0BIXShbQ0gzXSlbTkhdYzJbY0hdW2NIXW5bY0hdYzJbTkgyXQ==

> <s_epik_cmdline>
J2VwaWtfcHl0aG9uJywgJy1waCcsICc3LjAnLCAnLXRuJywgJzgnLCAnLW1hJywgJzIwMCcsICctbWV0YWxfYmluZGluZycsICctaW1hZScsICc8aW5maWxlLm1hZT4nLCAnLW9tYWUnLCAnPG91dGZpbGUubWFlPic=

> <r_epik_Ionization_Penalty>
0.000849261

> <r_epik_Ionization_Penalty_Charging>
0.000847912

> <r_epik_Ionization_Penalty_Neutral>
1.34939e-06

> <r_epik_State_Penalty>
0.000546618

> <r_epik_Charging_Adjusted_Penalty>
0.00139453

> <i_epik_Tot_Q>
1

> <i_epik_Tot_abs_Q>
1

> <r_epik_Metal_State_Penalty>
0.526583

> <b_epik_Metal_Only>
0

> <s_lp_Force_Field>
OPLS_2005

> <r_lp_Energy>
29.423

> <b_lp_Chiralities_Consistent>
1

> <s_lp_Variant>
AV-unprocessed.smi:949-2

> <Gold.Version>
5.8.1

> <Gold.Id.Protein>
6NUR|6NUR_protein|mol2

> <Gold.PLP.Fitness>
43.1200

> <Gold.PLP.PLP>
-35.3880

> <Gold.PLP.part.hbond>
-2.9870

> <Gold.PLP.part.metal>
0.0000

> <Gold.PLP.part.buried>
-0.9514

> <Gold.PLP.part.nonpolar>
-31.9781

> <Gold.PLP.part.repulsive>
0.3869

> <Gold.PLP.ligand.clash>
0.0000

> <Gold.PLP.ligand.torsion>
0.6411

> <Gold.PLP.Chemscore.Hbond>
3.0000

> <Gold.PLP.Chemscore.CHOScore>
0.0000

> <Gold.PLP.Chemscore.Metal>
0.0000

> <Gold.Chemscore.Hbonds>
donor molecule, donor type, donor heavy atom, donor atom, acceptor molecule, acceptor atom, score
      L1  H     7    33       P1  7948  1.95
      L1  H    10    24       P1  8028  1.00

> <Gold.PLP.Chemscore.Internal.Correction>
0.0143

> <Gold.Rescore>
     Score         DG    S(hbond)    S(metal)    S(lipo)     H(rot)  DE(clash)    DE(int)     intcor
     18.17     -19.20       1.68        0.00      96.26       1.23       0.32       0.71       ----

> <Gold.Chemscore.Fitness>
18.1686

> <Gold.Chemscore.DG>
-19.1993

> <Gold.Chemscore.ZeroCoef>
-5.4800

> <Gold.Chemscore.Hbond>
1.6820

> <Gold.Chemscore.Metal>
0.0000

> <Gold.Chemscore.Lipo>
96.2597

> <Gold.Chemscore.Internal_Hbond>
0.0000

> <Gold.Chemscore.DEClash>
0.3171

> <Gold.Chemscore.DEInternal>
0.7135

> <Gold.Chemscore.Rot>
1.2347

> <Gold.Chemscore.Internal.Correction>
   9.000000E+99

> <Gold.Chemscore.Hbonds>
donor molecule, donor type, donor heavy atom, donor atom, acceptor molecule, acceptor atom, score
      L1  H     7    33       P1  7948  0.91
      L1  H    10    24       P1  8028  0.96

> <Gold.Chemscore.Hbond.Weighted>
-5.6178

> <Gold.Chemscore.Metal.Weighted>
-0.0000

> <Gold.Chemscore.Lipo.Weighted>
-11.2624

> <Gold.Chemscore.Internal_Hbond.Weighted>
0.0000

> <Gold.Chemscore.DEClash.Weighted>
0.3171

> <Gold.Chemscore.DEInternal.Weighted>
0.7135

> <Gold.Chemscore.Rot.Weighted>
3.1609

> <Gold.Chemscore.Internal.Correction.Weighted>
   9.000000E+99

> <Gold.Protein.RotatedTorsions>
[ 6907 6896 6895 6894 ] final -121.71 input  -60.11 | X-H torsion
[ 7974 7965 7964 7962 ] final  -41.01 input  175.53 | X-H torsion
[ 8008 7997 7996 7995 ] final  -13.12 input   59.86 | X-H torsion
[ 10167 10162 10161 10158 ] final   29.06 input  -65.29 | X-H torsion
[ 10718 10713 10712 10709 ] final   18.48 input   66.30 | X-H torsion
[ 10763 10752 10751 10750 ] final   53.07 input  -60.55 | X-H torsion
[ 11005 11000 10999 10996 ] final   43.81 input  -57.11 | X-H torsion

> <Gold.Protein.ActiveResidues>
 VAL166  LYS551  ARG553  GLY616  TRP617  ASP618  TYR619  PRO620  LYS621  CYS622 
 ASP623  PHE694  ASN695  SER759  ASP760  ASP761  ALA762  ILE779  LEU786  VAL792 
 PHE793  MET794  SER795  GLU796  ALA797  LYS798  CYS799  TRP800  GLU811  SER814 

> <Gold.Protein.RotatedAtoms>
  150.8508  133.7789  159.3025 H   0  0  0  0  0  0  0  0  0  0  0  0  # atno 6907 bound_to 6896
  151.5462  135.1066  159.9948 H   0  0  0  0  0  0  0  0  0  0  0  0  # atno 6908 bound_to 6896
  152.4551  133.7664  159.6831 H   0  0  0  0  0  0  0  0  0  0  0  0  # atno 6909 bound_to 6896
  146.0251  140.6802  142.9160 H   0  0  0  0  0  0  0  0  0  0  0  0  # atno 7974 bound_to 7965
  154.5319  140.2258  155.8790 H   0  0  0  0  0  0  0  0  0  0  0  0  # atno 8008 bound_to 7997
  156.1772  140.3108  155.9045 H   0  0  0  0  0  0  0  0  0  0  0  0  # atno 8009 bound_to 7997
  155.3434  140.0451  157.3036 H   0  0  0  0  0  0  0  0  0  0  0  0  # atno 8010 bound_to 7997
  140.4798  144.0633  150.6262 H   0  0  0  0  0  0  0  0  0  0  0  0  # atno 10167 bound_to 10162
  157.0969  130.6451  149.5862 H   0  0  0  0  0  0  0  0  0  0  0  0  # atno 10718 bound_to 10713
  152.9793  135.5791  154.4682 H   0  0  0  0  0  0  0  0  0  0  0  0  # atno 10763 bound_to 10752
  154.4248  135.2772  155.1953 H   0  0  0  0  0  0  0  0  0  0  0  0  # atno 10764 bound_to 10752
  154.3687  135.6172  153.5782 H   0  0  0  0  0  0  0  0  0  0  0  0  # atno 10765 bound_to 10752
  140.1610  134.4341  155.8317 H   0  0  0  0  0  0  0  0  0  0  0  0  # atno 11005 bound_to 11000
  144.7006  140.3634  143.7159 LP  0  0  0  0  0  0  0  0  0  0  0  0  # atno 17320 bound_to 7965
  145.7132  139.1690  143.2527 LP  0  0  0  0  0  0  0  0  0  0  0  0  # atno 17321 bound_to 7965
  140.3872  143.2771  152.0102 LP  0  0  0  0  0  0  0  0  0  0  0  0  # atno 17342 bound_to 10162
  139.4831  144.6107  151.7439 LP  0  0  0  0  0  0  0  0  0  0  0  0  # atno 17343 bound_to 10162
  155.9883  130.4926  150.7166 LP  0  0  0  0  0  0  0  0  0  0  0  0  # atno 17370 bound_to 10713
  157.4674  131.0889  151.0680 LP  0  0  0  0  0  0  0  0  0  0  0  0  # atno 17371 bound_to 10713
  141.2209  133.6913  156.7594 LP  0  0  0  0  0  0  0  0  0  0  0  0  # atno 17394 bound_to 11000
  140.2489  134.8555  157.3648 LP  0  0  0  0  0  0  0  0  0  0  0  0  # atno 17395 bound_to 11000

$$$$
