AV-unprocessed.smi:344|AV-procd|sdf|2390|dock9
  -GOLD-   2262022323D 1   1.00000     0.00000
 Structure written by MMmdl.
 37 38  0  0  0  0  0  0  0  0  2 V2000
  144.8445  137.7618  152.0669 N   0  0  0  0  0  0  0  0  0  0  0  0
  146.1425  138.0790  152.0912 C   0  0  0  0  0  0  0  0  0  0  0  0
  146.7636  138.3803  151.0738 O   0  0  0  0  0  0  0  0  0  0  0  0
  146.8493  138.0395  153.4484 C   0  0  0  0  0  0  0  0  0  0  0  0
  147.5220  139.3511  153.7350 C   0  0  0  0  0  0  0  0  0  0  0  0
  147.0327  140.6050  153.4725 C   0  0  0  0  0  0  0  0  0  0  0  0
  148.1420  141.8475  153.9771 S   0  0  0  0  0  0  0  0  0  0  0  0
  149.2670  140.6041  154.5281 C   0  0  0  0  0  0  0  0  0  0  0  0
  150.4569  140.8396  155.1022 N   0  5  0  0  0  0  0  0  0  0  0  0
  151.0517  139.8679  155.8352 C   0  0  0  0  0  0  0  0  0  0  0  0
  150.9829  138.6452  155.7023 O   0  0  0  0  0  0  0  0  0  0  0  0
  151.9035  140.4486  156.9678 C   0  0  0  0  0  0  0  0  0  0  0  0
  151.2158  141.6505  157.6410 C   0  0  0  0  0  0  0  0  0  0  0  0
  152.1724  142.4890  158.5072 C   0  0  0  0  0  0  0  0  0  0  0  0
  152.5811  141.7946  159.8082 C   0  0  0  0  0  0  0  0  0  0  0  0
  153.0915  142.9183  160.7161 C   0  0  0  0  0  0  0  0  0  0  0  0
  152.4342  144.2114  160.2100 C   0  0  0  0  0  0  0  0  0  0  0  0
  151.5850  143.8168  158.9961 C   0  0  0  0  0  0  0  0  0  0  0  0
  148.7873  139.3716  154.3295 N   0  0  0  0  0  0  0  0  0  0  0  0
  144.3343  137.7950  151.1965 H   0  0  0  0  0  0  0  0  0  0  0  0
  144.3744  137.5100  152.9252 H   0  0  0  0  0  0  0  0  0  0  0  0
  146.1200  137.7977  154.2227 H   0  0  0  0  0  0  0  0  0  0  0  0
  147.5796  137.2294  153.4513 H   0  0  0  0  0  0  0  0  0  0  0  0
  146.0891  140.8720  153.0209 H   0  0  0  0  0  0  0  0  0  0  0  0
  152.0815  139.6653  157.7057 H   0  0  0  0  0  0  0  0  0  0  0  0
  152.8858  140.7336  156.5868 H   0  0  0  0  0  0  0  0  0  0  0  0
  150.7545  142.2872  156.8843 H   0  0  0  0  0  0  0  0  0  0  0  0
  150.4003  141.2871  158.2681 H   0  0  0  0  0  0  0  0  0  0  0  0
  153.0791  142.6997  157.9377 H   0  0  0  0  0  0  0  0  0  0  0  0
  151.7095  141.3257  160.2676 H   0  0  0  0  0  0  0  0  0  0  0  0
  153.3280  141.0161  159.6492 H   0  0  0  0  0  0  0  0  0  0  0  0
  152.8567  142.7225  161.7628 H   0  0  0  0  0  0  0  0  0  0  0  0
  154.1760  143.0014  160.6350 H   0  0  0  0  0  0  0  0  0  0  0  0
  151.8251  144.6862  160.9800 H   0  0  0  0  0  0  0  0  0  0  0  0
  153.2037  144.9262  159.9162 H   0  0  0  0  0  0  0  0  0  0  0  0
  151.5880  144.5860  158.2230 H   0  0  0  0  0  0  0  0  0  0  0  0
  150.5501  143.6712  159.3098 H   0  0  0  0  0  0  0  0  0  0  0  0
  1  2  1  0  0  0  0
  1 20  1  0  0  0  0
  1 21  1  0  0  0  0
  2  3  2  0  0  0  0
  2  4  1  0  0  0  0
  4  5  1  0  0  0  0
  4 22  1  0  0  0  0
  4 23  1  0  0  0  0
  5 19  1  0  0  0  0
  5  6  2  0  0  0  0
  6  7  1  0  0  0  0
  6 24  1  0  0  0  0
  7  8  1  0  0  0  0
  8  9  1  0  0  0  0
  8 19  2  0  0  0  0
  9 10  1  0  0  0  0
 10 11  2  0  0  0  0
 10 12  1  0  0  0  0
 12 13  1  0  0  0  0
 12 25  1  0  0  0  0
 12 26  1  0  0  0  0
 13 14  1  0  0  0  0
 13 27  1  0  0  0  0
 13 28  1  0  0  0  0
 14 18  1  0  0  0  0
 14 15  1  0  0  0  0
 14 29  1  0  0  0  0
 15 16  1  0  0  0  0
 15 30  1  0  0  0  0
 15 31  1  0  0  0  0
 16 17  1  0  0  0  0
 16 32  1  0  0  0  0
 16 33  1  0  0  0  0
 17 18  1  0  0  0  0
 17 34  1  0  0  0  0
 17 35  1  0  0  0  0
 18 36  1  0  0  0  0
 18 37  1  0  0  0  0
M  CHG  1   9  -1
M  END
> <s_m_source_file>
AV-unprocessed.smi

> <i_m_source_file_index>
344

> <i_lp_mmshare_version>
43012

> <i_f3d_flags>
0

> <s_epik_input>
W05IMl1DKD1PKVtDSDJdYzFbY0hdc2MobjEpW05IXUMoPU8pW0NIMl1bQ0gyXVtDSF0yW0NIMl1bQ0gyXVtDSDJdW0NIMl0y

> <s_epik_cmdline>
J2VwaWtfcHl0aG9uJywgJy1waCcsICc3LjAnLCAnLXRuJywgJzgnLCAnLW1hJywgJzIwMCcsICctbWV0YWxfYmluZGluZycsICctaW1hZScsICc8aW5maWxlLm1hZT4nLCAnLW9tYWUnLCAnPG91dGZpbGUubWFlPic=

> <r_lp_tautomer_probability>
1

> <r_epik_Ionization_Penalty>
5.48595

> <r_epik_Ionization_Penalty_Charging>
4.99802

> <r_epik_Ionization_Penalty_Neutral>
0.48793

> <r_epik_State_Penalty>
4.99789

> <r_epik_Charging_Adjusted_Penalty>
9.99592

> <i_epik_Tot_Q>
-1

> <i_epik_Tot_abs_Q>
1

> <r_epik_Metal_State_Penalty>
1.11866

> <b_epik_Metal_Only>
1

> <s_lp_Force_Field>
OPLS_2005

> <r_lp_Energy>
17.7805

> <b_lp_Chiralities_Consistent>
1

> <s_lp_Variant>
AV-unprocessed.smi:344-2

> <Gold.Version>
5.8.1

> <Gold.Id.Protein>
6NUR|6NUR_protein|mol2

> <Gold.PLP.Fitness>
49.6786

> <Gold.PLP.PLP>
-39.9620

> <Gold.PLP.part.hbond>
-4.0000

> <Gold.PLP.part.metal>
0.0000

> <Gold.PLP.part.buried>
-4.0869

> <Gold.PLP.part.nonpolar>
-33.5315

> <Gold.PLP.part.repulsive>
0.6055

> <Gold.PLP.ligand.clash>
0.0000

> <Gold.PLP.ligand.torsion>
0.9732

> <Gold.PLP.Chemscore.Hbond>
2.8160

> <Gold.PLP.Chemscore.CHOScore>
1.0000

> <Gold.PLP.Chemscore.Metal>
0.0000

> <Gold.Chemscore.Hbonds>
donor molecule, donor type, donor heavy atom, donor atom, acceptor molecule, acceptor atom, score
      L1  H     1    20       P1 10171  1.00
      P1  H  7954  7966       L1     3  1.00
      P1  H  7989  7998       L1     9  0.82
      L1  C     6    24       P1 10175  1.00

> <Gold.PLP.Chemscore.Internal.Correction>
0.2150

> <Gold.Rescore>
     Score         DG    S(hbond)    S(metal)    S(lipo)     H(rot)  DE(clash)    DE(int)     intcor
     14.08     -16.94       1.99        0.00      93.38       2.39       0.34       2.52       ----

> <Gold.Chemscore.Fitness>
14.0762

> <Gold.Chemscore.DG>
-16.9353

> <Gold.Chemscore.ZeroCoef>
-5.4800

> <Gold.Chemscore.Hbond>
1.9910

> <Gold.Chemscore.Metal>
0.0000

> <Gold.Chemscore.Lipo>
93.3789

> <Gold.Chemscore.Internal_Hbond>
0.0000

> <Gold.Chemscore.DEClash>
0.3430

> <Gold.Chemscore.DEInternal>
2.5161

> <Gold.Chemscore.Rot>
2.3907

> <Gold.Chemscore.Internal.Correction>
   9.000000E+99

> <Gold.Chemscore.Hbonds>
donor molecule, donor type, donor heavy atom, donor atom, acceptor molecule, acceptor atom, score
      L1  H     1    20       P1 10171  0.95
      P1  H  7954  7966       L1     3  0.98
      P1  H  7989  7998       L1     9  0.07

> <Gold.Chemscore.Hbond.Weighted>
-6.6501

> <Gold.Chemscore.Metal.Weighted>
-0.0000

> <Gold.Chemscore.Lipo.Weighted>
-10.9253

> <Gold.Chemscore.Internal_Hbond.Weighted>
0.0000

> <Gold.Chemscore.DEClash.Weighted>
0.3430

> <Gold.Chemscore.DEInternal.Weighted>
2.5161

> <Gold.Chemscore.Rot.Weighted>
6.1201

> <Gold.Chemscore.Internal.Correction.Weighted>
   9.000000E+99

> <Gold.Protein.RotatedTorsions>
[ 6907 6896 6895 6894 ] final  -24.83 input  -60.11 | X-H torsion
[ 7974 7965 7964 7962 ] final  -59.68 input  175.53 | X-H torsion
[ 8008 7997 7996 7995 ] final  153.68 input   59.86 | X-H torsion
[ 10167 10162 10161 10158 ] final   90.91 input  -65.29 | X-H torsion
[ 10718 10713 10712 10709 ] final   99.58 input   66.30 | X-H torsion
[ 10763 10752 10751 10750 ] final -131.75 input  -60.55 | X-H torsion
[ 11005 11000 10999 10996 ] final  100.73 input  -57.11 | X-H torsion

> <Gold.Protein.ActiveResidues>
 VAL166  LYS551  ARG553  GLY616  TRP617  ASP618  TYR619  PRO620  LYS621  CYS622 
 ASP623  PHE694  ASN695  SER759  ASP760  ASP761  ALA762  ILE779  LEU786  VAL792 
 PHE793  MET794  SER795  GLU796  ALA797  LYS798  CYS799  TRP800  GLU811  SER814 

> <Gold.Protein.RotatedAtoms>
  151.1839  135.0373  159.8803 H   0  0  0  0  0  0  0  0  0  0  0  0  # atno 6907 bound_to 6896
  152.5443  134.1031  159.8337 H   0  0  0  0  0  0  0  0  0  0  0  0  # atno 6908 bound_to 6896
  151.1152  133.5097  159.2636 H   0  0  0  0  0  0  0  0  0  0  0  0  # atno 6909 bound_to 6896
  145.8245  140.8519  143.0115 H   0  0  0  0  0  0  0  0  0  0  0  0  # atno 7974 bound_to 7965
  156.2569  140.1987  156.6528 H   0  0  0  0  0  0  0  0  0  0  0  0  # atno 8008 bound_to 7997
  154.6524  140.0570  156.9995 H   0  0  0  0  0  0  0  0  0  0  0  0  # atno 8009 bound_to 7997
  155.1398  140.3241  155.4457 H   0  0  0  0  0  0  0  0  0  0  0  0  # atno 8010 bound_to 7997
  139.8426  144.6633  150.9264 H   0  0  0  0  0  0  0  0  0  0  0  0  # atno 10167 bound_to 10162
  157.6873  131.0674  150.4971 H   0  0  0  0  0  0  0  0  0  0  0  0  # atno 10718 bound_to 10713
  154.8748  135.3820  154.4298 H   0  0  0  0  0  0  0  0  0  0  0  0  # atno 10763 bound_to 10752
  153.4993  135.7030  153.5846 H   0  0  0  0  0  0  0  0  0  0  0  0  # atno 10764 bound_to 10752
  153.4185  135.3907  155.2062 H   0  0  0  0  0  0  0  0  0  0  0  0  # atno 10765 bound_to 10752
  139.8771  134.9153  156.4800 H   0  0  0  0  0  0  0  0  0  0  0  0  # atno 11005 bound_to 11000
  144.6745  140.0582  143.7477 LP  0  0  0  0  0  0  0  0  0  0  0  0  # atno 17320 bound_to 7965
  145.9638  139.2820  143.1139 LP  0  0  0  0  0  0  0  0  0  0  0  0  # atno 17321 bound_to 7965
  140.7796  143.3898  151.1329 LP  0  0  0  0  0  0  0  0  0  0  0  0  # atno 17342 bound_to 10162
  139.7543  143.8731  152.3085 LP  0  0  0  0  0  0  0  0  0  0  0  0  # atno 17343 bound_to 10162
  156.5294  130.4181  149.6209 LP  0  0  0  0  0  0  0  0  0  0  0  0  # atno 17370 bound_to 10713
  156.3083  130.7214  151.2102 LP  0  0  0  0  0  0  0  0  0  0  0  0  # atno 17371 bound_to 10713
  140.8734  133.7971  155.9389 LP  0  0  0  0  0  0  0  0  0  0  0  0  # atno 17394 bound_to 11000
  140.8929  134.2473  157.5084 LP  0  0  0  0  0  0  0  0  0  0  0  0  # atno 17395 bound_to 11000

$$$$
