AV-unprocessed.smi:3058|AV-procd|sdf|11672|dock5
  -GOLD-   2272017 73D 1   1.00000     0.00000
 Structure written by MMmdl.
 38 40  0  0  0  0  0  0  0  0  1 V2000
  150.5038  141.0879  158.4157 O   0  0  0  0  0  0  0  0  0  0  0  0
  150.2275  142.0999  157.7711 C   0  0  0  0  0  0  0  0  0  0  0  0
  149.4314  142.0860  156.6899 N   0  0  0  0  0  0  0  0  0  0  0  0
  148.7051  140.9228  156.1855 C   0  0  0  0  0  0  0  0  0  0  0  0
  147.7433  141.2967  155.0403 C   0  0  0  0  0  0  0  0  0  0  0  0
  146.5825  142.1723  155.4819 C   0  0  0  0  0  0  0  0  0  0  0  0
  145.9385  141.9558  156.7182 C   0  0  0  0  0  0  0  0  0  0  0  0
  144.8454  142.7719  157.0662 C   0  0  0  0  0  0  0  0  0  0  0  0
  144.4436  143.7752  156.1622 C   0  0  0  0  0  0  0  0  0  0  0  0
  145.0553  143.9953  154.9785 N   0  0  0  0  0  0  0  0  0  0  0  0
  146.1012  143.2063  154.6509 C   0  0  0  0  0  0  0  0  0  0  0  0
  150.7624  143.4774  158.1974 C   0  0  1  0  0  0  0  0  0  0  0  0
  150.2888  143.8916  159.6125 C   0  0  0  0  0  0  0  0  0  0  0  0
  151.6063  144.2032  160.3488 C   0  0  2  0  0  0  0  0  0  0  0  0
  152.2351  145.4795  159.7578 C   0  0  0  0  0  0  0  0  0  0  0  0
  152.7485  145.0014  158.3854 C   0  0  0  0  0  0  0  0  0  0  0  0
  152.3036  143.5265  158.3549 C   0  0  1  0  0  0  0  0  0  0  0  0
  152.5321  143.1212  159.8113 C   0  0  0  0  0  0  0  0  0  0  0  0
  149.2657  142.9628  156.2176 H   0  0  0  0  0  0  0  0  0  0  0  0
  149.4309  140.1914  155.8301 H   0  0  0  0  0  0  0  0  0  0  0  0
  148.1535  140.4337  156.9901 H   0  0  0  0  0  0  0  0  0  0  0  0
  148.2965  141.8130  154.2546 H   0  0  0  0  0  0  0  0  0  0  0  0
  147.3454  140.3899  154.5835 H   0  0  0  0  0  0  0  0  0  0  0  0
  146.2661  141.1704  157.3832 H   0  0  0  0  0  0  0  0  0  0  0  0
  144.3243  142.6294  158.0013 H   0  0  0  0  0  0  0  0  0  0  0  0
  143.6079  144.4181  156.3961 H   0  0  0  0  0  0  0  0  0  0  0  0
  146.5615  143.3991  153.6929 H   0  0  0  0  0  0  0  0  0  0  0  0
  150.4413  144.2171  157.4618 H   0  0  0  0  0  0  0  0  0  0  0  0
  149.6229  144.7547  159.5843 H   0  0  0  0  0  0  0  0  0  0  0  0
  149.7540  143.0867  160.1207 H   0  0  0  0  0  0  0  0  0  0  0  0
  151.5058  144.2263  161.4342 H   0  0  0  0  0  0  0  0  0  0  0  0
  151.5136  146.2928  159.6720 H   0  0  0  0  0  0  0  0  0  0  0  0
  153.0628  145.8293  160.3759 H   0  0  0  0  0  0  0  0  0  0  0  0
  152.3370  145.5820  157.5589 H   0  0  0  0  0  0  0  0  0  0  0  0
  153.8355  145.0781  158.3359 H   0  0  0  0  0  0  0  0  0  0  0  0
  152.8472  142.9251  157.6251 H   0  0  0  0  0  0  0  0  0  0  0  0
  153.5676  143.2401  160.1351 H   0  0  0  0  0  0  0  0  0  0  0  0
  152.2028  142.1112  160.0556 H   0  0  0  0  0  0  0  0  0  0  0  0
  1  2  2  0  0  0  0
  2  3  1  0  0  0  0
  2 12  1  0  0  0  0
  3  4  1  0  0  0  0
  3 19  1  0  0  0  0
  4  5  1  0  0  0  0
  4 20  1  0  0  0  0
  4 21  1  0  0  0  0
  5  6  1  0  0  0  0
  5 22  1  0  0  0  0
  5 23  1  0  0  0  0
  6 11  1  0  0  0  0
  6  7  2  0  0  0  0
  7  8  1  0  0  0  0
  7 24  1  0  0  0  0
  8  9  2  0  0  0  0
  8 25  1  0  0  0  0
  9 10  1  0  0  0  0
  9 26  1  0  0  0  0
 10 11  2  0  0  0  0
 11 27  1  0  0  0  0
 12 17  1  0  0  0  0
 12 13  1  0  0  0  0
 12 28  1  0  0  0  0
 13 14  1  0  0  0  0
 13 29  1  0  0  0  0
 13 30  1  0  0  0  0
 14 18  1  0  0  0  0
 14 15  1  0  0  0  0
 14 31  1  0  0  0  0
 15 16  1  0  0  0  0
 15 32  1  0  0  0  0
 15 33  1  0  0  0  0
 16 17  1  0  0  0  0
 16 34  1  0  0  0  0
 16 35  1  0  0  0  0
 17 18  1  0  0  0  0
 17 36  1  0  0  0  0
 18 37  1  0  0  0  0
 18 38  1  0  0  0  0
M  END
> <s_m_source_file>
AV-unprocessed.smi

> <i_m_source_file_index>
3058

> <i_lp_mmshare_version>
43012

> <i_f3d_flags>
0

> <s_epik_input>
W0NIMl0xW0NIMl1bQ0BIXShbQ0gyXTIpW0NAQEhdKFtDSDJdW0NAQEhdMTIpQyg9TylbTkhdW0NIMl1bQ0gyXWMzW2NIXVtjSF1bY0hdbltjSF0z

> <s_epik_cmdline>
J2VwaWtfcHl0aG9uJywgJy1waCcsICc3LjAnLCAnLXRuJywgJzgnLCAnLW1hJywgJzIwMCcsICctbWV0YWxfYmluZGluZycsICctaW1hZScsICc8aW5maWxlLm1hZT4nLCAnLW9tYWUnLCAnPG91dGZpbGUubWFlPic=

> <r_epik_Ionization_Penalty>
0.0135821

> <r_epik_Ionization_Penalty_Charging>
0

> <r_epik_Ionization_Penalty_Neutral>
0.0135821

> <r_epik_State_Penalty>
0.0105782

> <r_epik_Charging_Adjusted_Penalty>
0.0105782

> <i_epik_Tot_Q>
0

> <i_epik_Tot_abs_Q>
0

> <r_epik_Metal_State_Penalty>
0.0103407

> <b_epik_Metal_Only>
0

> <s_lp_Force_Field>
OPLS_2005

> <r_lp_Energy>
47.0399

> <b_lp_Chiralities_Consistent>
1

> <s_lp_Variant>
AV-unprocessed.smi:3058-4

> <Gold.Version>
5.8.1

> <Gold.Id.Protein>
6NUR|6NUR_protein|mol2

> <Gold.PLP.Fitness>
43.0261

> <Gold.PLP.PLP>
-40.7751

> <Gold.PLP.part.hbond>
-1.0000

> <Gold.PLP.part.metal>
0.0000

> <Gold.PLP.part.buried>
-5.1706

> <Gold.PLP.part.nonpolar>
-34.0774

> <Gold.PLP.part.repulsive>
0.3346

> <Gold.PLP.ligand.clash>
0.0000

> <Gold.PLP.ligand.torsion>
0.3901

> <Gold.PLP.Chemscore.Hbond>
1.0000

> <Gold.PLP.Chemscore.CHOScore>
0.0000

> <Gold.PLP.Chemscore.Metal>
0.0000

> <Gold.Chemscore.Hbonds>
donor molecule, donor type, donor heavy atom, donor atom, acceptor molecule, acceptor atom, score
      L1  H     3    19       P1  8028  1.00

> <Gold.PLP.Chemscore.Internal.Correction>
0.0312

> <Gold.Rescore>
     Score         DG    S(hbond)    S(metal)    S(lipo)     H(rot)  DE(clash)    DE(int)     intcor
     18.53     -19.16       0.99        0.00     118.53       1.37       0.36       0.27       ----

> <Gold.Chemscore.Fitness>
18.5315

> <Gold.Chemscore.DG>
-19.1614

> <Gold.Chemscore.ZeroCoef>
-5.4800

> <Gold.Chemscore.Hbond>
0.9906

> <Gold.Chemscore.Metal>
0.0000

> <Gold.Chemscore.Lipo>
118.5299

> <Gold.Chemscore.Internal_Hbond>
0.0000

> <Gold.Chemscore.DEClash>
0.3592

> <Gold.Chemscore.DEInternal>
0.2707

> <Gold.Chemscore.Rot>
1.3653

> <Gold.Chemscore.Internal.Correction>
   9.000000E+99

> <Gold.Chemscore.Hbonds>
donor molecule, donor type, donor heavy atom, donor atom, acceptor molecule, acceptor atom, score
      L1  H     3    19       P1  8028  1.00

> <Gold.Chemscore.Hbond.Weighted>
-3.3086

> <Gold.Chemscore.Metal.Weighted>
-0.0000

> <Gold.Chemscore.Lipo.Weighted>
-13.8680

> <Gold.Chemscore.Internal_Hbond.Weighted>
0.0000

> <Gold.Chemscore.DEClash.Weighted>
0.3592

> <Gold.Chemscore.DEInternal.Weighted>
0.2707

> <Gold.Chemscore.Rot.Weighted>
3.4951

> <Gold.Chemscore.Internal.Correction.Weighted>
   9.000000E+99

> <Gold.Protein.RotatedTorsions>
[ 6907 6896 6895 6894 ] final  158.74 input  -60.11 | X-H torsion
[ 7974 7965 7964 7962 ] final -125.76 input  175.53 | X-H torsion
[ 8008 7997 7996 7995 ] final -163.24 input   59.86 | X-H torsion
[ 10167 10162 10161 10158 ] final  -41.48 input  -65.29 | X-H torsion
[ 10718 10713 10712 10709 ] final  107.89 input   66.30 | X-H torsion
[ 10763 10752 10751 10750 ] final  -93.73 input  -60.55 | X-H torsion
[ 11005 11000 10999 10996 ] final  164.36 input  -57.11 | X-H torsion

> <Gold.Protein.ActiveResidues>
 VAL166  LYS551  ARG553  GLY616  TRP617  ASP618  TYR619  PRO620  LYS621  CYS622 
 ASP623  PHE694  ASN695  SER759  ASP760  ASP761  ALA762  ILE779  LEU786  VAL792 
 PHE793  MET794  SER795  GLU796  ALA797  LYS798  CYS799  TRP800  GLU811  SER814 

> <Gold.Protein.RotatedAtoms>
  151.9959  133.3807  159.4162 H   0  0  0  0  0  0  0  0  0  0  0  0  # atno 6907 bound_to 6896
  150.6916  134.3886  159.5075 H   0  0  0  0  0  0  0  0  0  0  0  0  # atno 6908 bound_to 6896
  152.1626  134.8899  160.0591 H   0  0  0  0  0  0  0  0  0  0  0  0  # atno 6909 bound_to 6896
  144.9943  140.7761  143.4535 H   0  0  0  0  0  0  0  0  0  0  0  0  # atno 7974 bound_to 7965
  155.8184  140.0916  157.1863 H   0  0  0  0  0  0  0  0  0  0  0  0  # atno 8008 bound_to 7997
  154.3979  140.1441  156.3531 H   0  0  0  0  0  0  0  0  0  0  0  0  # atno 8009 bound_to 7997
  155.8292  140.3443  155.5564 H   0  0  0  0  0  0  0  0  0  0  0  0  # atno 8010 bound_to 7997
  140.7001  143.3092  151.3073 H   0  0  0  0  0  0  0  0  0  0  0  0  # atno 10167 bound_to 10162
  157.6609  131.0882  150.6224 H   0  0  0  0  0  0  0  0  0  0  0  0  # atno 10718 bound_to 10713
  154.6987  135.5183  153.8496 H   0  0  0  0  0  0  0  0  0  0  0  0  # atno 10763 bound_to 10752
  153.0687  135.6594  154.0305 H   0  0  0  0  0  0  0  0  0  0  0  0  # atno 10764 bound_to 10752
  154.0167  135.2997  155.3365 H   0  0  0  0  0  0  0  0  0  0  0  0  # atno 10765 bound_to 10752
  140.2451  134.8020  157.3449 H   0  0  0  0  0  0  0  0  0  0  0  0  # atno 11005 bound_to 11000
  145.2242  139.2145  143.5077 LP  0  0  0  0  0  0  0  0  0  0  0  0  # atno 17320 bound_to 7965
  146.3438  140.2106  142.8590 LP  0  0  0  0  0  0  0  0  0  0  0  0  # atno 17321 bound_to 7965
  139.6509  144.0365  152.2625 LP  0  0  0  0  0  0  0  0  0  0  0  0  # atno 17342 bound_to 10162
  139.9900  144.6368  150.7822 LP  0  0  0  0  0  0  0  0  0  0  0  0  # atno 17343 bound_to 10162
  156.6527  130.4490  149.5714 LP  0  0  0  0  0  0  0  0  0  0  0  0  # atno 17370 bound_to 10713
  156.2125  130.6688  151.1285 LP  0  0  0  0  0  0  0  0  0  0  0  0  # atno 17371 bound_to 10713
  140.1614  134.4724  155.7892 LP  0  0  0  0  0  0  0  0  0  0  0  0  # atno 17394 bound_to 11000
  141.2207  133.6903  156.7550 LP  0  0  0  0  0  0  0  0  0  0  0  0  # atno 17395 bound_to 11000

$$$$
