AV-unprocessed.smi:36|AV-procd|sdf|297|dock8
  -GOLD-   2262016 93D 1   1.00000     0.00000
 Structure written by MMmdl.
 63 66  0  0  0  0  0  0  0  0  2 V2000
  145.0365  134.8350  163.0375 C   0  0  0  0  0  0  0  0  0  0  0  0
  146.3153  134.8882  162.1856 C   0  0  0  0  0  0  0  0  0  0  0  0
  147.2880  135.9260  162.7697 C   0  0  0  0  0  0  0  0  0  0  0  0
  146.9877  133.5050  162.1610 C   0  0  0  0  0  0  0  0  0  0  0  0
  145.8697  135.3918  160.3971 Si  0  0  0  0  0  0  0  0  0  0  0  0
  144.6128  134.1863  159.6365 C   0  0  0  0  0  0  0  0  0  0  0  0
  145.1838  137.1622  160.3321 C   0  0  0  0  0  0  0  0  0  0  0  0
  147.2888  135.3384  159.4794 O   0  0  0  0  0  0  0  0  0  0  0  0
  148.1419  134.2156  159.4213 C   0  0  0  0  0  0  0  0  0  0  0  0
  148.4000  133.8652  157.9506 C   0  0  2  0  0  0  0  0  0  0  0  0
  149.8025  133.7904  157.6813 O   0  0  0  0  0  0  0  0  0  0  0  0
  150.1105  134.4610  156.4931 C   0  0  2  0  0  0  0  0  0  0  0  0
  150.7383  135.7767  156.8394 N   0  0  0  0  0  0  0  0  0  0  0  0
  151.5079  136.1113  157.8971 C   0  0  0  0  0  0  0  0  0  0  0  0
  151.9510  137.3654  157.9619 N   0  0  0  0  0  0  0  0  0  0  0  0
  151.4207  137.9104  156.8020 C   0  0  0  0  0  0  0  0  0  0  0  0
  151.4948  139.2101  156.2309 C   0  0  0  0  0  0  0  0  0  0  0  0
  152.1748  140.2150  156.8028 N   0  5  0  0  0  0  0  0  0  0  0  0
  152.0299  140.4608  158.1296 C   0  0  0  0  0  0  0  0  0  0  0  0
  151.8900  139.6422  159.0408 O   0  0  0  0  0  0  0  0  0  0  0  0
  151.9731  141.9286  158.4578 C   0  0  0  0  0  0  0  0  0  0  0  0
  152.4634  142.3874  159.7018 C   0  0  0  0  0  0  0  0  0  0  0  0
  152.4399  143.7595  160.0189 C   0  0  0  0  0  0  0  0  0  0  0  0
  151.9351  144.6891  159.0906 C   0  0  0  0  0  0  0  0  0  0  0  0
  151.4568  144.2458  157.8434 C   0  0  0  0  0  0  0  0  0  0  0  0
  151.4793  142.8737  157.5257 C   0  0  0  0  0  0  0  0  0  0  0  0
  150.8579  139.3989  155.0465 N   0  0  0  0  0  0  0  0  0  0  0  0
  150.1861  138.3941  154.4721 C   0  0  0  0  0  0  0  0  0  0  0  0
  150.0277  137.1370  154.8980 N   0  0  0  0  0  0  0  0  0  0  0  0
  150.6703  136.9346  156.0850 C   0  0  0  0  0  0  0  0  0  0  0  0
  148.7803  134.6920  155.7757 C   0  0  0  0  0  0  0  0  0  0  0  0
  147.8369  134.8769  156.9460 C   0  0  1  0  0  0  0  0  0  0  0  0
  146.5055  134.5877  156.5730 O   0  0  0  0  0  0  0  0  0  0  0  0
  145.2586  134.5519  164.0668 H   0  0  0  0  0  0  0  0  0  0  0  0
  144.3251  134.1089  162.6434 H   0  0  0  0  0  0  0  0  0  0  0  0
  144.5373  135.8039  163.0647 H   0  0  0  0  0  0  0  0  0  0  0  0
  146.8365  136.9178  162.8068 H   0  0  0  0  0  0  0  0  0  0  0  0
  148.1954  136.0001  162.1694 H   0  0  0  0  0  0  0  0  0  0  0  0
  147.5855  135.6634  163.7854 H   0  0  0  0  0  0  0  0  0  0  0  0
  147.2817  133.1887  163.1624 H   0  0  0  0  0  0  0  0  0  0  0  0
  147.8850  133.5119  161.5408 H   0  0  0  0  0  0  0  0  0  0  0  0
  146.3181  132.7435  161.7609 H   0  0  0  0  0  0  0  0  0  0  0  0
  143.6913  134.1494  160.2172 H   0  0  0  0  0  0  0  0  0  0  0  0
  145.0088  133.1721  159.5885 H   0  0  0  0  0  0  0  0  0  0  0  0
  144.3436  134.4765  158.6210 H   0  0  0  0  0  0  0  0  0  0  0  0
  144.2730  137.2609  160.9221 H   0  0  0  0  0  0  0  0  0  0  0  0
  144.9424  137.4599  159.3120 H   0  0  0  0  0  0  0  0  0  0  0  0
  145.9020  137.8847  160.7189 H   0  0  0  0  0  0  0  0  0  0  0  0
  149.0729  134.4215  159.9491 H   0  0  0  0  0  0  0  0  0  0  0  0
  147.6558  133.3803  159.9262 H   0  0  0  0  0  0  0  0  0  0  0  0
  148.0010  132.8722  157.7365 H   0  0  0  0  0  0  0  0  0  0  0  0
  150.8646  133.9414  155.9008 H   0  0  0  0  0  0  0  0  0  0  0  0
  151.7636  135.3981  158.6654 H   0  0  0  0  0  0  0  0  0  0  0  0
  152.8554  141.6866  160.4246 H   0  0  0  0  0  0  0  0  0  0  0  0
  152.8111  144.0981  160.9749 H   0  0  0  0  0  0  0  0  0  0  0  0
  151.9178  145.7412  159.3336 H   0  0  0  0  0  0  0  0  0  0  0  0
  151.0743  144.9581  157.1273 H   0  0  0  0  0  0  0  0  0  0  0  0
  151.1172  142.5549  156.5589 H   0  0  0  0  0  0  0  0  0  0  0  0
  149.7063  138.6321  153.5345 H   0  0  0  0  0  0  0  0  0  0  0  0
  148.8142  135.5410  155.0922 H   0  0  0  0  0  0  0  0  0  0  0  0
  148.5365  133.7919  155.2093 H   0  0  0  0  0  0  0  0  0  0  0  0
  147.9064  135.8954  157.3310 H   0  0  0  0  0  0  0  0  0  0  0  0
  146.1977  133.8647  157.0975 H   0  0  0  0  0  0  0  0  0  0  0  0
  1  2  1  0  0  0  0
  1 34  1  0  0  0  0
  1 35  1  0  0  0  0
  1 36  1  0  0  0  0
  2  3  1  0  0  0  0
  2  4  1  0  0  0  0
  2  5  1  0  0  0  0
  3 37  1  0  0  0  0
  3 38  1  0  0  0  0
  3 39  1  0  0  0  0
  4 40  1  0  0  0  0
  4 41  1  0  0  0  0
  4 42  1  0  0  0  0
  5  6  1  0  0  0  0
  5  7  1  0  0  0  0
  5  8  1  0  0  0  0
  6 43  1  0  0  0  0
  6 44  1  0  0  0  0
  6 45  1  0  0  0  0
  7 46  1  0  0  0  0
  7 47  1  0  0  0  0
  7 48  1  0  0  0  0
  8  9  1  0  0  0  0
  9 10  1  0  0  0  0
  9 49  1  0  0  0  0
  9 50  1  0  0  0  0
 10 32  1  0  0  0  0
 10 11  1  0  0  0  0
 10 51  1  0  0  0  0
 11 12  1  0  0  0  0
 12 13  1  0  0  0  0
 12 31  1  0  0  0  0
 12 52  1  0  0  0  0
 13 30  1  0  0  0  0
 13 14  1  0  0  0  0
 14 15  2  0  0  0  0
 14 53  1  0  0  0  0
 15 16  1  0  0  0  0
 16 30  2  0  0  0  0
 16 17  1  0  0  0  0
 17 18  1  0  0  0  0
 17 27  2  0  0  0  0
 18 19  1  0  0  0  0
 19 20  2  0  0  0  0
 19 21  1  0  0  0  0
 21 26  1  0  0  0  0
 21 22  2  0  0  0  0
 22 23  1  0  0  0  0
 22 54  1  0  0  0  0
 23 24  2  0  0  0  0
 23 55  1  0  0  0  0
 24 25  1  0  0  0  0
 24 56  1  0  0  0  0
 25 26  2  0  0  0  0
 25 57  1  0  0  0  0
 26 58  1  0  0  0  0
 27 28  1  0  0  0  0
 28 29  2  0  0  0  0
 28 59  1  0  0  0  0
 29 30  1  0  0  0  0
 31 32  1  0  0  0  0
 31 60  1  0  0  0  0
 31 61  1  0  0  0  0
 32 33  1  0  0  0  0
 32 62  1  0  0  0  0
 33 63  1  0  0  0  0
M  CHG  1  18  -1
M  END
> <s_m_source_file>
AV-unprocessed.smi

> <i_m_source_file_index>
36

> <i_lp_mmshare_version>
43012

> <i_f3d_flags>
0

> <s_epik_input>
W0NIM11DKFtDSDNdKShbQ0gzXSlbU2ldKFtDSDNdKShbQ0gzXSlPW0NIMl1bQ0BASF0xT1tDQEhdKFtDSDJdW0NASF0xW09IXSluKFtjSF1uMiljKGMyMyluW2NIXW5jM1tOSF1DKD1PKWM0W2NIXVtjSF1bY0hdW2NIXVtjSF00

> <s_epik_cmdline>
J2VwaWtfcHl0aG9uJywgJy1waCcsICc3LjAnLCAnLXRuJywgJzgnLCAnLW1hJywgJzIwMCcsICctbWV0YWxfYmluZGluZycsICctaW1hZScsICc8aW5maWxlLm1hZT4nLCAnLW9tYWUnLCAnPG91dGZpbGUubWFlPic=

> <r_lp_tautomer_probability>
1

> <r_epik_Ionization_Penalty>
4.75685

> <r_epik_Ionization_Penalty_Charging>
3.55822

> <r_epik_Ionization_Penalty_Neutral>
1.19863

> <r_epik_State_Penalty>
3.564

> <r_epik_Charging_Adjusted_Penalty>
7.12222

> <i_epik_Tot_Q>
-1

> <i_epik_Tot_abs_Q>
1

> <r_epik_Metal_State_Penalty>
0.523258

> <b_epik_Metal_Only>
1

> <s_epik_Chemistry_Notes>
This compound contains an acetal/aminal-like group ( X-CH(R)-Y where X, Y are N, S, or O) that may be acid/base labile, releasing an aldehyde.

> <s_lp_Force_Field>
OPLS_2005

> <r_lp_Energy>
31.8386

> <b_lp_Chiralities_Consistent>
1

> <s_lp_Variant>
AV-unprocessed.smi:36-19

> <Gold.Version>
5.8.1

> <Gold.Id.Protein>
6NUR|6NUR_protein|mol2

> <Gold.PLP.Fitness>
58.1989

> <Gold.PLP.PLP>
-48.7735

> <Gold.PLP.part.hbond>
-3.0000

> <Gold.PLP.part.metal>
0.0000

> <Gold.PLP.part.buried>
-4.4504

> <Gold.PLP.part.nonpolar>
-42.2250

> <Gold.PLP.part.repulsive>
0.2470

> <Gold.PLP.ligand.clash>
0.0000

> <Gold.PLP.ligand.torsion>
2.9712

> <Gold.PLP.Chemscore.Hbond>
3.9920

> <Gold.PLP.Chemscore.CHOScore>
1.0000

> <Gold.PLP.Chemscore.Metal>
0.0000

> <Gold.Chemscore.Hbonds>
donor molecule, donor type, donor heavy atom, donor atom, acceptor molecule, acceptor atom, score
      P1  H  6896  6908       L1    11  1.00
      P1  H  7989  7998       L1    27  0.41
      P1  H  7997  8009       L1    18  1.20
      L1  C    28    59       P1  7957  0.45

> <Gold.PLP.Chemscore.Internal.Correction>
0.3919

> <Gold.Rescore>
     Score         DG    S(hbond)    S(metal)    S(lipo)     H(rot)  DE(clash)    DE(int)     intcor
     10.51     -19.30       1.94        0.00     121.18       2.67       1.60       7.18       ----

> <Gold.Chemscore.Fitness>
10.5147

> <Gold.Chemscore.DG>
-19.3005

> <Gold.Chemscore.ZeroCoef>
-5.4800

> <Gold.Chemscore.Hbond>
1.9397

> <Gold.Chemscore.Metal>
0.0000

> <Gold.Chemscore.Lipo>
121.1770

> <Gold.Chemscore.Internal_Hbond>
0.0000

> <Gold.Chemscore.DEClash>
1.6023

> <Gold.Chemscore.DEInternal>
7.1835

> <Gold.Chemscore.Rot>
2.6702

> <Gold.Chemscore.Internal.Correction>
   9.000000E+99

> <Gold.Chemscore.Hbonds>
donor molecule, donor type, donor heavy atom, donor atom, acceptor molecule, acceptor atom, score
      P1  H  6896  6908       L1    11  0.74
      P1  H  7989  7998       L1    27  0.30
      P1  H  7997  8009       L1    18  0.29

> <Gold.Chemscore.Hbond.Weighted>
-6.4785

> <Gold.Chemscore.Metal.Weighted>
-0.0000

> <Gold.Chemscore.Lipo.Weighted>
-14.1777

> <Gold.Chemscore.Internal_Hbond.Weighted>
0.0000

> <Gold.Chemscore.DEClash.Weighted>
1.6023

> <Gold.Chemscore.DEInternal.Weighted>
7.1835

> <Gold.Chemscore.Rot.Weighted>
6.8358

> <Gold.Chemscore.Internal.Correction.Weighted>
   9.000000E+99

> <Gold.Protein.RotatedTorsions>
[ 6907 6896 6895 6894 ] final  123.84 input  -60.11 | X-H torsion
[ 7974 7965 7964 7962 ] final  106.73 input  175.53 | X-H torsion
[ 8008 7997 7996 7995 ] final -168.48 input   59.86 | X-H torsion
[ 10167 10162 10161 10158 ] final   83.88 input  -65.29 | X-H torsion
[ 10718 10713 10712 10709 ] final -114.02 input   66.30 | X-H torsion
[ 10763 10752 10751 10750 ] final  102.32 input  -60.55 | X-H torsion
[ 11005 11000 10999 10996 ] final   46.40 input  -57.11 | X-H torsion

> <Gold.Protein.ActiveResidues>
 VAL166  LYS551  ARG553  GLY616  TRP617  ASP618  TYR619  PRO620  LYS621  CYS622 
 ASP623  PHE694  ASN695  SER759  ASP760  ASP761  ALA762  ILE779  LEU786  VAL792 
 PHE793  MET794  SER795  GLU796  ALA797  LYS798  CYS799  TRP800  GLU811  SER814 

> <Gold.Protein.RotatedAtoms>
  152.4128  133.6991  159.6412 H   0  0  0  0  0  0  0  0  0  0  0  0  # atno 6907 bound_to 6896
  150.8007  133.8593  159.3236 H   0  0  0  0  0  0  0  0  0  0  0  0  # atno 6908 bound_to 6896
  151.6330  135.1023  160.0177 H   0  0  0  0  0  0  0  0  0  0  0  0  # atno 6909 bound_to 6896
  145.3028  139.2564  143.3804 H   0  0  0  0  0  0  0  0  0  0  0  0  # atno 7974 bound_to 7965
  155.8920  140.1026  157.1412 H   0  0  0  0  0  0  0  0  0  0  0  0  # atno 8008 bound_to 7997
  154.4016  140.1309  156.4391 H   0  0  0  0  0  0  0  0  0  0  0  0  # atno 8009 bound_to 7997
  155.7523  140.3465  155.5159 H   0  0  0  0  0  0  0  0  0  0  0  0  # atno 8010 bound_to 7997
  139.9138  144.6255  150.8510 H   0  0  0  0  0  0  0  0  0  0  0  0  # atno 10167 bound_to 10162
  156.0803  130.6004  150.8720 H   0  0  0  0  0  0  0  0  0  0  0  0  # atno 10718 bound_to 10713
  153.3380  135.4014  155.1549 H   0  0  0  0  0  0  0  0  0  0  0  0  # atno 10763 bound_to 10752
  154.8637  135.3627  154.5382 H   0  0  0  0  0  0  0  0  0  0  0  0  # atno 10764 bound_to 10752
  153.5825  135.7076  153.5516 H   0  0  0  0  0  0  0  0  0  0  0  0  # atno 10765 bound_to 10752
  140.1372  134.4629  155.8476 H   0  0  0  0  0  0  0  0  0  0  0  0  # atno 11005 bound_to 11000
  146.3146  140.3547  142.8659 LP  0  0  0  0  0  0  0  0  0  0  0  0  # atno 17320 bound_to 7965
  144.9079  140.7722  143.5826 LP  0  0  0  0  0  0  0  0  0  0  0  0  # atno 17321 bound_to 7965
  140.7679  143.3346  151.2336 LP  0  0  0  0  0  0  0  0  0  0  0  0  # atno 17342 bound_to 10162
  139.6920  143.9676  152.2864 LP  0  0  0  0  0  0  0  0  0  0  0  0  # atno 17343 bound_to 10162
  157.5917  131.0944  150.9107 LP  0  0  0  0  0  0  0  0  0  0  0  0  # atno 17370 bound_to 10713
  156.9282  130.5340  149.5279 LP  0  0  0  0  0  0  0  0  0  0  0  0  # atno 17371 bound_to 10713
  141.2180  133.6819  156.7180 LP  0  0  0  0  0  0  0  0  0  0  0  0  # atno 17394 bound_to 11000
  140.2767  134.8349  157.3897 LP  0  0  0  0  0  0  0  0  0  0  0  0  # atno 17395 bound_to 11000

$$$$
