AV-unprocessed.smi:2003|AV-procd|sdf|8118|dock2
  -GOLD-   2272010353D 1   1.00000     0.00000
 Structure written by MMmdl.
 43 44  0  0  0  0  0  0  0  0  1 V2000
  143.5994  132.6248  149.2741 C   0  0  0  0  0  0  0  0  0  0  0  0
  144.6249  133.3236  150.1180 C   0  0  0  0  0  0  0  0  0  0  0  0
  144.7533  134.7214  150.3640 C   0  0  0  0  0  0  0  0  0  0  0  0
  145.8406  134.7838  151.1925 C   0  0  0  0  0  0  0  0  0  0  0  0
  146.4226  135.8773  151.7534 N   0  0  0  0  0  0  0  0  0  0  0  0
  145.8424  136.8927  152.4162 C   0  0  0  0  0  0  0  0  0  0  0  0
  144.6350  137.0129  152.6257 O   0  0  0  0  0  0  0  0  0  0  0  0
  146.7555  137.7791  152.8387 N   0  0  0  0  0  0  0  0  0  0  0  0
  146.4584  138.9807  153.6140 C   0  0  0  0  0  0  0  0  0  0  0  0
  147.5532  140.0806  153.4904 C   0  0  1  0  0  0  0  0  0  0  0  0
  146.8648  141.4695  153.4862 C   0  0  0  0  0  0  0  0  0  0  0  0
  148.6159  139.9710  154.5168 N   0  0  0  0  0  0  0  0  0  0  0  0
  149.3072  141.2455  154.7459 C   0  0  0  0  0  0  0  0  0  0  0  0
  150.4357  141.1378  155.7860 C   0  0  0  0  0  0  0  0  0  0  0  0
  151.3675  140.1455  155.3797 O   0  0  0  0  0  0  0  0  0  0  0  0
  150.7547  138.8734  155.2238 C   0  0  0  0  0  0  0  0  0  0  0  0
  149.6288  138.9637  154.1791 C   0  0  0  0  0  0  0  0  0  0  0  0
  146.3097  133.5054  151.4070 N   0  0  0  0  0  0  0  0  0  0  0  0
  147.4276  133.0401  152.2055 C   0  0  0  0  0  0  0  0  0  0  0  0
  145.5529  132.6067  150.7414 N   0  0  0  0  0  0  0  0  0  0  0  0
  143.0393  133.3362  148.6670 H   0  0  0  0  0  0  0  0  0  0  0  0
  142.8850  132.0836  149.8947 H   0  0  0  0  0  0  0  0  0  0  0  0
  144.0652  131.9079  148.5975 H   0  0  0  0  0  0  0  0  0  0  0  0
  144.1384  135.5244  149.9865 H   0  0  0  0  0  0  0  0  0  0  0  0
  147.4273  135.9202  151.6668 H   0  0  0  0  0  0  0  0  0  0  0  0
  147.7262  137.6065  152.6219 H   0  0  0  0  0  0  0  0  0  0  0  0
  145.4983  139.3733  153.2776 H   0  0  0  0  0  0  0  0  0  0  0  0
  146.3137  138.6574  154.6439 H   0  0  0  0  0  0  0  0  0  0  0  0
  148.0235  139.9580  152.5136 H   0  0  0  0  0  0  0  0  0  0  0  0
  146.0480  141.5280  152.7677 H   0  0  0  0  0  0  0  0  0  0  0  0
  147.5483  142.2681  153.2014 H   0  0  0  0  0  0  0  0  0  0  0  0
  146.4550  141.7090  154.4678 H   0  0  0  0  0  0  0  0  0  0  0  0
  149.7171  141.6182  153.8059 H   0  0  0  0  0  0  0  0  0  0  0  0
  148.6117  141.9998  155.1093 H   0  0  0  0  0  0  0  0  0  0  0  0
  150.9529  142.0924  155.8825 H   0  0  0  0  0  0  0  0  0  0  0  0
  150.0332  140.8905  156.7695 H   0  0  0  0  0  0  0  0  0  0  0  0
  151.5082  138.1523  154.9069 H   0  0  0  0  0  0  0  0  0  0  0  0
  150.3652  138.5284  156.1830 H   0  0  0  0  0  0  0  0  0  0  0  0
  149.1829  137.9736  154.1137 H   0  0  0  0  0  0  0  0  0  0  0  0
  150.0590  139.1844  153.2009 H   0  0  0  0  0  0  0  0  0  0  0  0
  148.0128  133.8810  152.5771 H   0  0  0  0  0  0  0  0  0  0  0  0
  148.0749  132.4049  151.6000 H   0  0  0  0  0  0  0  0  0  0  0  0
  147.0564  132.4655  153.0546 H   0  0  0  0  0  0  0  0  0  0  0  0
  1  2  1  0  0  0  0
  1 21  1  0  0  0  0
  1 22  1  0  0  0  0
  1 23  1  0  0  0  0
  2 20  2  0  0  0  0
  2  3  1  0  0  0  0
  3  4  2  0  0  0  0
  3 24  1  0  0  0  0
  4  5  1  0  0  0  0
  4 18  1  0  0  0  0
  5  6  1  0  0  0  0
  5 25  1  0  0  0  0
  6  7  2  0  0  0  0
  6  8  1  0  0  0  0
  8  9  1  0  0  0  0
  8 26  1  0  0  0  0
  9 10  1  0  0  0  0
  9 27  1  0  0  0  0
  9 28  1  0  0  0  0
 10 11  1  0  0  0  0
 10 12  1  0  0  0  0
 10 29  1  0  0  0  0
 11 30  1  0  0  0  0
 11 31  1  0  0  0  0
 11 32  1  0  0  0  0
 12 17  1  0  0  0  0
 12 13  1  0  0  0  0
 13 14  1  0  0  0  0
 13 33  1  0  0  0  0
 13 34  1  0  0  0  0
 14 15  1  0  0  0  0
 14 35  1  0  0  0  0
 14 36  1  0  0  0  0
 15 16  1  0  0  0  0
 16 17  1  0  0  0  0
 16 37  1  0  0  0  0
 16 38  1  0  0  0  0
 17 39  1  0  0  0  0
 17 40  1  0  0  0  0
 18 19  1  0  0  0  0
 18 20  1  0  0  0  0
 19 41  1  0  0  0  0
 19 42  1  0  0  0  0
 19 43  1  0  0  0  0
M  END
> <s_m_source_file>
AV-unprocessed.smi

> <i_m_source_file_index>
2003

> <i_lp_mmshare_version>
43012

> <i_f3d_flags>
0

> <s_epik_input>
W0NIM11jMVtjSF1jKG4objEpW0NIM10pW05IXUMoPU8pW05IXVtDSDJdW0NASF0oW0NIM10pTjJbQ0gyXVtDSDJdT1tDSDJdW0NIMl0y

> <s_epik_cmdline>
J2VwaWtfcHl0aG9uJywgJy1waCcsICc3LjAnLCAnLXRuJywgJzgnLCAnLW1hJywgJzIwMCcsICctbWV0YWxfYmluZGluZycsICctaW1hZScsICc8aW5maWxlLm1hZT4nLCAnLW9tYWUnLCAnPG91dGZpbGUubWFlPic=

> <r_lp_tautomer_probability>
1

> <r_epik_Ionization_Penalty>
0.233974

> <r_epik_Ionization_Penalty_Charging>
0

> <r_epik_Ionization_Penalty_Neutral>
0.233974

> <r_epik_State_Penalty>
0.224627

> <r_epik_Charging_Adjusted_Penalty>
0.224627

> <i_epik_Tot_Q>
0

> <i_epik_Tot_abs_Q>
0

> <r_epik_Metal_State_Penalty>
0.224624

> <b_epik_Metal_Only>
0

> <s_lp_Force_Field>
OPLS_2005

> <r_lp_Energy>
29.1269

> <b_lp_Chiralities_Consistent>
1

> <s_lp_Variant>
AV-unprocessed.smi:2003-2

> <Gold.Version>
5.8.1

> <Gold.Id.Protein>
6NUR|6NUR_protein|mol2

> <Gold.PLP.Fitness>
42.9874

> <Gold.PLP.PLP>
-37.4472

> <Gold.PLP.part.hbond>
-2.9580

> <Gold.PLP.part.metal>
0.0000

> <Gold.PLP.part.buried>
-3.7168

> <Gold.PLP.part.nonpolar>
-31.4233

> <Gold.PLP.part.repulsive>
0.5136

> <Gold.PLP.ligand.clash>
0.0000

> <Gold.PLP.ligand.torsion>
1.5419

> <Gold.PLP.Chemscore.Hbond>
2.8313

> <Gold.PLP.Chemscore.CHOScore>
0.0000

> <Gold.PLP.Chemscore.Metal>
0.0000

> <Gold.Chemscore.Hbonds>
donor molecule, donor type, donor heavy atom, donor atom, acceptor molecule, acceptor atom, score
      L1  H     5    25       P1  7948  1.00
      L1  H     8    26       P1  7948  0.85
      P1  H  7989  7998       L1    15  0.80

> <Gold.PLP.Chemscore.Internal.Correction>
0.1302

> <Gold.Rescore>
     Score         DG    S(hbond)    S(metal)    S(lipo)     H(rot)  DE(clash)    DE(int)     intcor
     16.71     -18.34       2.13        0.00      81.68       1.49       0.11       1.52       ----

> <Gold.Chemscore.Fitness>
16.7081

> <Gold.Chemscore.DG>
-18.3418

> <Gold.Chemscore.ZeroCoef>
-5.4800

> <Gold.Chemscore.Hbond>
2.1344

> <Gold.Chemscore.Metal>
0.0000

> <Gold.Chemscore.Lipo>
81.6834

> <Gold.Chemscore.Internal_Hbond>
0.0000

> <Gold.Chemscore.DEClash>
0.1107

> <Gold.Chemscore.DEInternal>
1.5231

> <Gold.Chemscore.Rot>
1.4938

> <Gold.Chemscore.Internal.Correction>
   9.000000E+99

> <Gold.Chemscore.Hbonds>
donor molecule, donor type, donor heavy atom, donor atom, acceptor molecule, acceptor atom, score
      L1  H     5    25       P1  7948  0.93
      L1  H     8    26       P1  7948  0.83
      P1  H  7989  7998       L1    15  0.06

> <Gold.Chemscore.Hbond.Weighted>
-7.1290

> <Gold.Chemscore.Metal.Weighted>
-0.0000

> <Gold.Chemscore.Lipo.Weighted>
-9.5570

> <Gold.Chemscore.Internal_Hbond.Weighted>
0.0000

> <Gold.Chemscore.DEClash.Weighted>
0.1107

> <Gold.Chemscore.DEInternal.Weighted>
1.5231

> <Gold.Chemscore.Rot.Weighted>
3.8242

> <Gold.Chemscore.Internal.Correction.Weighted>
   9.000000E+99

> <Gold.Protein.RotatedTorsions>
[ 6907 6896 6895 6894 ] final -119.29 input  -60.11 | X-H torsion
[ 7974 7965 7964 7962 ] final    9.80 input  175.53 | X-H torsion
[ 8008 7997 7996 7995 ] final   91.79 input   59.86 | X-H torsion
[ 10167 10162 10161 10158 ] final  151.46 input  -65.29 | X-H torsion
[ 10718 10713 10712 10709 ] final  167.85 input   66.30 | X-H torsion
[ 10763 10752 10751 10750 ] final    8.16 input  -60.55 | X-H torsion
[ 11005 11000 10999 10996 ] final  -81.06 input  -57.11 | X-H torsion

> <Gold.Protein.ActiveResidues>
 VAL166  LYS551  ARG553  GLY616  TRP617  ASP618  TYR619  PRO620  LYS621  CYS622 
 ASP623  PHE694  ASN695  SER759  ASP760  ASP761  ALA762  ILE779  LEU786  VAL792 
 PHE793  MET794  SER795  GLU796  ALA797  LYS798  CYS799  TRP800  GLU811  SER814 

> <Gold.Protein.RotatedAtoms>
  150.8293  133.8119  159.3105 H   0  0  0  0  0  0  0  0  0  0  0  0  # atno 6907 bound_to 6896
  151.5853  135.1054  160.0036 H   0  0  0  0  0  0  0  0  0  0  0  0  # atno 6908 bound_to 6896
  152.4374  133.7344  159.6662 H   0  0  0  0  0  0  0  0  0  0  0  0  # atno 6909 bound_to 6896
  146.2398  139.9730  142.8445 H   0  0  0  0  0  0  0  0  0  0  0  0  # atno 7974 bound_to 7965
  156.0279  140.3333  155.7108 H   0  0  0  0  0  0  0  0  0  0  0  0  # atno 8008 bound_to 7997
  155.5927  140.0648  157.2772 H   0  0  0  0  0  0  0  0  0  0  0  0  # atno 8009 bound_to 7997
  154.4341  140.1824  156.1079 H   0  0  0  0  0  0  0  0  0  0  0  0  # atno 8010 bound_to 7997
  139.4840  144.5439  151.7517 H   0  0  0  0  0  0  0  0  0  0  0  0  # atno 10167 bound_to 10162
  157.0456  131.0299  151.2698 H   0  0  0  0  0  0  0  0  0  0  0  0  # atno 10718 bound_to 10713
  153.2281  135.6889  153.7921 H   0  0  0  0  0  0  0  0  0  0  0  0  # atno 10763 bound_to 10752
  153.7095  135.3284  155.3244 H   0  0  0  0  0  0  0  0  0  0  0  0  # atno 10764 bound_to 10752
  154.8301  135.4587  154.1156 H   0  0  0  0  0  0  0  0  0  0  0  0  # atno 10765 bound_to 10752
  141.1667  133.7179  156.8366 H   0  0  0  0  0  0  0  0  0  0  0  0  # atno 11005 bound_to 11000
  145.1663  140.9698  143.4347 LP  0  0  0  0  0  0  0  0  0  0  0  0  # atno 17320 bound_to 7965
  145.0069  139.3546  143.6139 LP  0  0  0  0  0  0  0  0  0  0  0  0  # atno 17321 bound_to 7965
  140.4983  144.1208  150.5965 LP  0  0  0  0  0  0  0  0  0  0  0  0  # atno 17342 bound_to 10162
  140.4092  143.2665  151.9854 LP  0  0  0  0  0  0  0  0  0  0  0  0  # atno 17343 bound_to 10162
  157.5071  130.7915  149.7665 LP  0  0  0  0  0  0  0  0  0  0  0  0  # atno 17370 bound_to 10713
  156.0024  130.3873  150.2556 LP  0  0  0  0  0  0  0  0  0  0  0  0  # atno 17371 bound_to 10713
  140.2013  134.8895  157.3172 LP  0  0  0  0  0  0  0  0  0  0  0  0  # atno 17394 bound_to 11000
  140.2184  134.4053  155.7578 LP  0  0  0  0  0  0  0  0  0  0  0  0  # atno 17395 bound_to 11000

$$$$
