AV-unprocessed.smi:1570|AV-procd|sdf|6312|dock9
  -GOLD-   22720 6513D 1   1.00000     0.00000
 Structure written by MMmdl.
 51 53  0  0  0  0  0  0  0  0  1 V2000
  153.6568  141.1681  161.4213 C   0  0  0  0  0  0  0  0  0  0  0  0
  153.9001  141.0441  159.9121 C   0  0  0  0  0  0  0  0  0  0  0  0
  152.8097  141.6468  159.1492 N   0  0  0  0  0  0  0  0  0  0  0  0
  152.2645  141.1659  158.0071 C   0  0  0  0  0  0  0  0  0  0  0  0
  152.5979  140.1324  157.4273 O   0  0  0  0  0  0  0  0  0  0  0  0
  151.3072  142.0328  157.5995 N   0  0  0  0  0  0  0  0  0  0  0  0
  150.4931  141.9323  156.3882 C   0  0  0  0  0  0  0  0  0  0  0  0
  150.2772  140.4679  155.9567 C   0  0  2  0  0  0  0  0  0  0  0  0
  151.4068  140.0669  155.2106 O   0  0  0  0  0  0  0  0  0  0  0  0
  149.0223  140.2698  155.0778 C   0  0  0  0  0  0  0  0  0  0  0  0
  147.8440  141.0346  155.4865 N   0  0  0  0  0  0  0  0  0  0  0  0
  147.2658  141.7994  154.3823 C   0  0  0  0  0  0  0  0  0  0  0  0
  146.0068  142.5756  154.8127 C   0  0  1  0  0  0  0  0  0  0  0  0
  145.3524  143.3101  153.6382 C   0  0  0  0  0  0  0  0  0  0  0  0
  145.0576  141.6622  155.3554 O   0  0  0  0  0  0  0  0  0  0  0  0
  145.5589  140.9247  156.4665 C   0  0  1  0  0  0  0  0  0  0  0  0
  144.4494  139.9935  156.9663 C   0  0  0  0  0  0  0  0  0  0  0  0
  146.8168  140.1511  156.0272 C   0  0  0  0  0  0  0  0  0  0  0  0
  151.2452  143.1035  158.5031 C   0  0  0  0  0  0  0  0  0  0  0  0
  150.4344  144.2516  158.5213 C   0  0  0  0  0  0  0  0  0  0  0  0
  150.6295  145.1646  159.5841 C   0  0  0  0  0  0  0  0  0  0  0  0
  151.6071  144.9185  160.5828 C   0  0  0  0  0  0  0  0  0  0  0  0
  152.4095  143.7543  160.5407 C   0  0  0  0  0  0  0  0  0  0  0  0
  152.1929  142.8628  159.4756 C   0  0  0  0  0  0  0  0  0  0  0  0
  154.4756  140.7187  161.9835 H   0  0  0  0  0  0  0  0  0  0  0  0
  152.7355  140.6645  161.7154 H   0  0  0  0  0  0  0  0  0  0  0  0
  153.5804  142.2126  161.7251 H   0  0  0  0  0  0  0  0  0  0  0  0
  154.8439  141.5237  159.6484 H   0  0  0  0  0  0  0  0  0  0  0  0
  154.0077  139.9952  159.6356 H   0  0  0  0  0  0  0  0  0  0  0  0
  149.5331  142.4317  156.5289 H   0  0  0  0  0  0  0  0  0  0  0  0
  151.0030  142.4823  155.5959 H   0  0  0  0  0  0  0  0  0  0  0  0
  150.2393  139.8464  156.8495 H   0  0  0  0  0  0  0  0  0  0  0  0
  152.1359  139.9714  155.8050 H   0  0  0  0  0  0  0  0  0  0  0  0
  149.2515  140.5269  154.0440 H   0  0  0  0  0  0  0  0  0  0  0  0
  148.7838  139.2050  155.0631 H   0  0  0  0  0  0  0  0  0  0  0  0
  147.9899  142.5096  153.9868 H   0  0  0  0  0  0  0  0  0  0  0  0
  147.0120  141.1258  153.5618 H   0  0  0  0  0  0  0  0  0  0  0  0
  146.2721  143.3060  155.5790 H   0  0  0  0  0  0  0  0  0  0  0  0
  146.0371  144.0364  153.1995 H   0  0  0  0  0  0  0  0  0  0  0  0
  144.4612  143.8476  153.9629 H   0  0  0  0  0  0  0  0  0  0  0  0
  145.0550  142.6136  152.8539 H   0  0  0  0  0  0  0  0  0  0  0  0
  145.8184  141.6212  157.2656 H   0  0  0  0  0  0  0  0  0  0  0  0
  144.7812  139.4167  157.8297 H   0  0  0  0  0  0  0  0  0  0  0  0
  144.1445  139.2907  156.1905 H   0  0  0  0  0  0  0  0  0  0  0  0
  143.5688  140.5626  157.2652 H   0  0  0  0  0  0  0  0  0  0  0  0
  146.5415  139.4057  155.2791 H   0  0  0  0  0  0  0  0  0  0  0  0
  147.2164  139.6015  156.8804 H   0  0  0  0  0  0  0  0  0  0  0  0
  149.6937  144.4340  157.7566 H   0  0  0  0  0  0  0  0  0  0  0  0
  150.0279  146.0599  159.6351 H   0  0  0  0  0  0  0  0  0  0  0  0
  151.7405  145.6293  161.3849 H   0  0  0  0  0  0  0  0  0  0  0  0
  153.1569  143.5640  161.2966 H   0  0  0  0  0  0  0  0  0  0  0  0
  1  2  1  0  0  0  0
  1 25  1  0  0  0  0
  1 26  1  0  0  0  0
  1 27  1  0  0  0  0
  2  3  1  0  0  0  0
  2 28  1  0  0  0  0
  2 29  1  0  0  0  0
  3 24  1  0  0  0  0
  3  4  1  0  0  0  0
  4  5  2  0  0  0  0
  4  6  1  0  0  0  0
  6  7  1  0  0  0  0
  6 19  1  0  0  0  0
  7  8  1  0  0  0  0
  7 30  1  0  0  0  0
  7 31  1  0  0  0  0
  8  9  1  0  0  0  0
  8 10  1  0  0  0  0
  8 32  1  0  0  0  0
  9 33  1  0  0  0  0
 10 11  1  0  0  0  0
 10 34  1  0  0  0  0
 10 35  1  0  0  0  0
 11 18  1  0  0  0  0
 11 12  1  0  0  0  0
 12 13  1  0  0  0  0
 12 36  1  0  0  0  0
 12 37  1  0  0  0  0
 13 14  1  0  0  0  0
 13 15  1  0  0  0  0
 13 38  1  0  0  0  0
 14 39  1  0  0  0  0
 14 40  1  0  0  0  0
 14 41  1  0  0  0  0
 15 16  1  0  0  0  0
 16 17  1  0  0  0  0
 16 18  1  0  0  0  0
 16 42  1  0  0  0  0
 17 43  1  0  0  0  0
 17 44  1  0  0  0  0
 17 45  1  0  0  0  0
 18 46  1  0  0  0  0
 18 47  1  0  0  0  0
 19 24  2  0  0  0  0
 19 20  1  0  0  0  0
 20 21  2  0  0  0  0
 20 48  1  0  0  0  0
 21 22  1  0  0  0  0
 21 49  1  0  0  0  0
 22 23  2  0  0  0  0
 22 50  1  0  0  0  0
 23 24  1  0  0  0  0
 23 51  1  0  0  0  0
M  END
> <s_m_source_file>
AV-unprocessed.smi

> <i_m_source_file_index>
1570

> <i_lp_mmshare_version>
43012

> <i_f3d_flags>
0

> <s_epik_input>
W2NIXTFbY0hdW2NIXVtjSF1jKGMxMiluKFtDSDJdW0NIM10pYyg9TyluMltDSDJdW0NASF0oW09IXSlbQ0gyXU4zW0NIMl1bQ0BASF0oW0NIM10pT1tDQEBIXShbQ0gzXSlbQ0gyXTM=

> <s_epik_cmdline>
J2VwaWtfcHl0aG9uJywgJy1waCcsICc3LjAnLCAnLXRuJywgJzgnLCAnLW1hJywgJzIwMCcsICctbWV0YWxfYmluZGluZycsICctaW1hZScsICc8aW5maWxlLm1hZT4nLCAnLW9tYWUnLCAnPG91dGZpbGUubWFlPic=

> <r_epik_Ionization_Penalty>
0.214359

> <r_epik_Ionization_Penalty_Charging>
2.30976e-09

> <r_epik_Ionization_Penalty_Neutral>
0.214359

> <r_epik_State_Penalty>
0.204533

> <r_epik_Charging_Adjusted_Penalty>
0.204533

> <i_epik_Tot_Q>
0

> <i_epik_Tot_abs_Q>
0

> <r_epik_Metal_State_Penalty>
0.204533

> <b_epik_Metal_Only>
0

> <s_lp_Force_Field>
OPLS_2005

> <r_lp_Energy>
58.4553

> <b_lp_Chiralities_Consistent>
1

> <s_lp_Variant>
AV-unprocessed.smi:1570-1

> <Gold.Version>
5.8.1

> <Gold.Id.Protein>
6NUR|6NUR_protein|mol2

> <Gold.PLP.Fitness>
53.2499

> <Gold.PLP.PLP>
-50.7248

> <Gold.PLP.part.hbond>
-2.0000

> <Gold.PLP.part.metal>
0.0000

> <Gold.PLP.part.buried>
-8.0517

> <Gold.PLP.part.nonpolar>
-42.4246

> <Gold.PLP.part.repulsive>
0.2405

> <Gold.PLP.ligand.clash>
0.0000

> <Gold.PLP.ligand.torsion>
1.7679

> <Gold.PLP.Chemscore.Hbond>
2.0000

> <Gold.PLP.Chemscore.CHOScore>
0.0000

> <Gold.PLP.Chemscore.Metal>
0.0000

> <Gold.Chemscore.Hbonds>
donor molecule, donor type, donor heavy atom, donor atom, acceptor molecule, acceptor atom, score
      P1  H  7989  7998       L1     9  1.00
      P1  H  7997  8009       L1     5  0.99

> <Gold.PLP.Chemscore.Internal.Correction>
0.0609

> <Gold.Rescore>
     Score         DG    S(hbond)    S(metal)    S(lipo)     H(rot)  DE(clash)    DE(int)     intcor
     17.53     -20.62       1.67        0.00     126.66       2.06       0.10       2.99       ----

> <Gold.Chemscore.Fitness>
17.5329

> <Gold.Chemscore.DG>
-20.6176

> <Gold.Chemscore.ZeroCoef>
-5.4800

> <Gold.Chemscore.Hbond>
1.6722

> <Gold.Chemscore.Metal>
0.0000

> <Gold.Chemscore.Lipo>
126.6594

> <Gold.Chemscore.Internal_Hbond>
0.0000

> <Gold.Chemscore.DEClash>
0.0961

> <Gold.Chemscore.DEInternal>
2.9885

> <Gold.Chemscore.Rot>
2.0574

> <Gold.Chemscore.Internal.Correction>
   9.000000E+99

> <Gold.Chemscore.Hbonds>
donor molecule, donor type, donor heavy atom, donor atom, acceptor molecule, acceptor atom, score
      P1  H  7989  7998       L1     9  0.90
      P1  H  7997  8009       L1     5  0.83

> <Gold.Chemscore.Hbond.Weighted>
-5.5853

> <Gold.Chemscore.Metal.Weighted>
-0.0000

> <Gold.Chemscore.Lipo.Weighted>
-14.8192

> <Gold.Chemscore.Internal_Hbond.Weighted>
0.0000

> <Gold.Chemscore.DEClash.Weighted>
0.0961

> <Gold.Chemscore.DEInternal.Weighted>
2.9885

> <Gold.Chemscore.Rot.Weighted>
5.2669

> <Gold.Chemscore.Internal.Correction.Weighted>
   9.000000E+99

> <Gold.Protein.RotatedTorsions>
[ 6907 6896 6895 6894 ] final -144.18 input  -60.11 | X-H torsion
[ 7974 7965 7964 7962 ] final  -62.53 input  175.53 | X-H torsion
[ 8008 7997 7996 7995 ] final  164.88 input   59.86 | X-H torsion
[ 10167 10162 10161 10158 ] final -158.92 input  -65.29 | X-H torsion
[ 10718 10713 10712 10709 ] final   -3.38 input   66.30 | X-H torsion
[ 10763 10752 10751 10750 ] final -110.63 input  -60.55 | X-H torsion
[ 11005 11000 10999 10996 ] final   98.02 input  -57.11 | X-H torsion

> <Gold.Protein.ActiveResidues>
 VAL166  LYS551  ARG553  GLY616  TRP617  ASP618  TYR619  PRO620  LYS621  CYS622 
 ASP623  PHE694  ASN695  SER759  ASP760  ASP761  ALA762  ILE779  LEU786  VAL792 
 PHE793  MET794  SER795  GLU796  ALA797  LYS798  CYS799  TRP800  GLU811  SER814 

> <Gold.Protein.RotatedAtoms>
  151.1106  133.5176  159.2605 H   0  0  0  0  0  0  0  0  0  0  0  0  # atno 6907 bound_to 6896
  151.1972  135.0427  159.8867 H   0  0  0  0  0  0  0  0  0  0  0  0  # atno 6908 bound_to 6896
  152.5450  134.0939  159.8342 H   0  0  0  0  0  0  0  0  0  0  0  0  # atno 6909 bound_to 6896
  145.7902  140.8714  143.0285 H   0  0  0  0  0  0  0  0  0  0  0  0  # atno 7974 bound_to 7965
  156.1845  140.1685  156.8211 H   0  0  0  0  0  0  0  0  0  0  0  0  # atno 8008 bound_to 7997
  154.5398  140.0739  156.8523 H   0  0  0  0  0  0  0  0  0  0  0  0  # atno 8009 bound_to 7997
  155.3237  140.3375  155.4243 H   0  0  0  0  0  0  0  0  0  0  0  0  # atno 8010 bound_to 7997
  139.6655  143.9837  152.2252 H   0  0  0  0  0  0  0  0  0  0  0  0  # atno 10167 bound_to 10162
  156.7769  130.5318  149.5757 H   0  0  0  0  0  0  0  0  0  0  0  0  # atno 10718 bound_to 10713
  154.8258  135.4557  154.0915 H   0  0  0  0  0  0  0  0  0  0  0  0  # atno 10763 bound_to 10752
  153.2230  135.6896  153.7984 H   0  0  0  0  0  0  0  0  0  0  0  0  # atno 10764 bound_to 10752
  153.7394  135.3314  155.3278 H   0  0  0  0  0  0  0  0  0  0  0  0  # atno 10765 bound_to 10752
  139.8773  134.9029  156.4394 H   0  0  0  0  0  0  0  0  0  0  0  0  # atno 11005 bound_to 11000
  144.6783  140.0112  143.7484 LP  0  0  0  0  0  0  0  0  0  0  0  0  # atno 17320 bound_to 7965
  145.9985  139.3072  143.0942 LP  0  0  0  0  0  0  0  0  0  0  0  0  # atno 17321 bound_to 7965
  139.9587  144.6572  150.8100 LP  0  0  0  0  0  0  0  0  0  0  0  0  # atno 17342 bound_to 10162
  140.7597  143.3136  151.2787 LP  0  0  0  0  0  0  0  0  0  0  0  0  # atno 17343 bound_to 10162
  156.1242  130.6132  151.0239 LP  0  0  0  0  0  0  0  0  0  0  0  0  # atno 17370 bound_to 10713
  157.6665  131.0870  150.7716 LP  0  0  0  0  0  0  0  0  0  0  0  0  # atno 17371 bound_to 10713
  140.9010  133.7779  155.9680 LP  0  0  0  0  0  0  0  0  0  0  0  0  # atno 17394 bound_to 11000
  140.8651  134.2794  157.5217 LP  0  0  0  0  0  0  0  0  0  0  0  0  # atno 17395 bound_to 11000

$$$$
