AV-unprocessed.smi:3283|AV-procd|sdf|12568|dock9
  -GOLD-   2272018483D 1   1.00000     0.00000
 Structure written by MMmdl.
 44 45  0  0  0  0  0  0  0  0  2 V2000
  150.8608  140.2221  155.3973 C   0  0  0  0  0  0  0  0  0  0  0  0
  149.4759  140.1824  154.7735 C   0  0  0  0  0  0  0  0  0  0  0  0
  149.0707  139.1271  154.0400 C   0  0  0  0  0  0  0  0  0  0  0  0
  147.7243  139.0227  153.3479 C   0  0  0  0  0  0  0  0  0  0  0  0
  146.7584  140.1488  153.7475 C   0  0  0  0  0  0  0  0  0  0  0  0
  147.4916  141.4939  153.8967 C   0  0  1  0  0  0  0  0  0  0  0  0
  146.5051  142.6653  154.0400 C   0  0  0  0  0  0  0  0  0  0  0  0
  148.5995  141.4191  154.9920 C   0  0  1  0  0  0  0  0  0  0  0  0
  148.0707  141.4479  156.4496 C   0  0  0  0  0  0  0  0  0  0  0  0
  148.3900  142.7158  157.1362 N   0  3  0  0  0  0  0  0  0  0  0  0
  149.3385  142.5772  158.2579 C   0  0  0  0  0  0  0  0  0  0  0  0
  150.7594  142.3048  157.7434 C   0  0  0  0  0  0  0  0  0  0  0  0
  151.8125  142.2980  158.8094 C   0  0  0  0  0  0  0  0  0  0  0  0
  152.2913  141.2890  159.6001 C   0  0  0  0  0  0  0  0  0  0  0  0
  153.2768  141.9183  160.4095 C   0  0  0  0  0  0  0  0  0  0  0  0
  153.4018  143.2069  160.1456 N   0  0  0  0  0  0  0  0  0  0  0  0
  152.5054  143.4413  159.1642 N   0  0  0  0  0  0  0  0  0  0  0  0
  152.3758  144.7829  158.6285 C   0  0  0  0  0  0  0  0  0  0  0  0
  151.4086  141.0966  155.0458 H   0  0  0  0  0  0  0  0  0  0  0  0
  151.4403  139.3375  155.1308 H   0  0  0  0  0  0  0  0  0  0  0  0
  150.8064  140.2653  156.4840 H   0  0  0  0  0  0  0  0  0  0  0  0
  149.7379  138.2902  153.8931 H   0  0  0  0  0  0  0  0  0  0  0  0
  147.9042  139.0550  152.2730 H   0  0  0  0  0  0  0  0  0  0  0  0
  147.2782  138.0516  153.5637 H   0  0  0  0  0  0  0  0  0  0  0  0
  145.9688  140.2246  152.9989 H   0  0  0  0  0  0  0  0  0  0  0  0
  146.2615  139.8905  154.6827 H   0  0  0  0  0  0  0  0  0  0  0  0
  148.0097  141.6683  152.9517 H   0  0  0  0  0  0  0  0  0  0  0  0
  145.8348  142.5290  154.8889 H   0  0  0  0  0  0  0  0  0  0  0  0
  145.8804  142.7546  153.1507 H   0  0  0  0  0  0  0  0  0  0  0  0
  147.0300  143.6128  154.1637 H   0  0  0  0  0  0  0  0  0  0  0  0
  149.2522  142.2823  154.8524 H   0  0  0  0  0  0  0  0  0  0  0  0
  146.9947  141.2756  156.4713 H   0  0  0  0  0  0  0  0  0  0  0  0
  148.5187  140.6494  157.0400 H   0  0  0  0  0  0  0  0  0  0  0  0
  148.7772  143.3588  156.4602 H   0  0  0  0  0  0  0  0  0  0  0  0
  149.3262  143.4930  158.8505 H   0  0  0  0  0  0  0  0  0  0  0  0
  149.0100  141.7639  158.9063 H   0  0  0  0  0  0  0  0  0  0  0  0
  150.7745  141.3453  157.2253 H   0  0  0  0  0  0  0  0  0  0  0  0
  151.0186  143.0568  156.9969 H   0  0  0  0  0  0  0  0  0  0  0  0
  151.9854  140.2534  159.6045 H   0  0  0  0  0  0  0  0  0  0  0  0
  153.9001  141.4807  161.1754 H   0  0  0  0  0  0  0  0  0  0  0  0
  151.3845  145.1742  158.8583 H   0  0  0  0  0  0  0  0  0  0  0  0
  152.5105  144.7622  157.5469 H   0  0  0  0  0  0  0  0  0  0  0  0
  153.1259  145.4456  159.0622 H   0  0  0  0  0  0  0  0  0  0  0  0
  147.5293  143.1042  157.4950 H   0  0  0  0  0  0  0  0  0  0  0  0
  1  2  1  0  0  0  0
  1 19  1  0  0  0  0
  1 20  1  0  0  0  0
  1 21  1  0  0  0  0
  2  8  1  0  0  0  0
  2  3  2  0  0  0  0
  3  4  1  0  0  0  0
  3 22  1  0  0  0  0
  4  5  1  0  0  0  0
  4 23  1  0  0  0  0
  4 24  1  0  0  0  0
  5  6  1  0  0  0  0
  5 25  1  0  0  0  0
  5 26  1  0  0  0  0
  6  7  1  0  0  0  0
  6  8  1  0  0  0  0
  6 27  1  0  0  0  0
  7 28  1  0  0  0  0
  7 29  1  0  0  0  0
  7 30  1  0  0  0  0
  8  9  1  0  0  0  0
  8 31  1  0  0  0  0
  9 10  1  0  0  0  0
  9 32  1  0  0  0  0
  9 33  1  0  0  0  0
 10 11  1  0  0  0  0
 10 34  1  0  0  0  0
 10 44  1  0  0  0  0
 11 12  1  0  0  0  0
 11 35  1  0  0  0  0
 11 36  1  0  0  0  0
 12 13  1  0  0  0  0
 12 37  1  0  0  0  0
 12 38  1  0  0  0  0
 13 17  1  0  0  0  0
 13 14  2  0  0  0  0
 14 15  1  0  0  0  0
 14 39  1  0  0  0  0
 15 16  2  0  0  0  0
 15 40  1  0  0  0  0
 16 17  1  0  0  0  0
 17 18  1  0  0  0  0
 18 41  1  0  0  0  0
 18 42  1  0  0  0  0
 18 43  1  0  0  0  0
M  CHG  1  10   1
M  END
> <s_m_source_file>
AV-unprocessed.smi

> <i_m_source_file_index>
3283

> <i_lp_mmshare_version>
43012

> <i_f3d_flags>
0

> <s_epik_input>
W0NIM11DMT1bQ0hdW0NIMl1bQ0gyXVtDQEBIXShbQ0gzXSlbQ0BIXTFbQ0gyXVtOSF1bQ0gyXVtDSDJdYzJbY0hdW2NIXW5uMltDSDNd

> <s_epik_cmdline>
J2VwaWtfcHl0aG9uJywgJy1waCcsICc3LjAnLCAnLXRuJywgJzgnLCAnLW1hJywgJzIwMCcsICctbWV0YWxfYmluZGluZycsICctaW1hZScsICc8aW5maWxlLm1hZT4nLCAnLW9tYWUnLCAnPG91dGZpbGUubWFlPic=

> <r_lp_tautomer_probability>
1

> <r_epik_Ionization_Penalty>
0.000866911

> <r_epik_Ionization_Penalty_Charging>
0.000836385

> <r_epik_Ionization_Penalty_Neutral>
3.05258e-05

> <r_epik_State_Penalty>
-0

> <r_epik_Charging_Adjusted_Penalty>
0.000836385

> <i_epik_Tot_Q>
1

> <i_epik_Tot_abs_Q>
1

> <r_epik_Metal_State_Penalty>
-0

> <b_epik_Metal_Only>
0

> <s_lp_Force_Field>
OPLS_2005

> <r_lp_Energy>
14.2558

> <b_lp_Chiralities_Consistent>
1

> <s_lp_Variant>
AV-unprocessed.smi:3283-1

> <Gold.Version>
5.8.1

> <Gold.Id.Protein>
6NUR|6NUR_protein|mol2

> <Gold.PLP.Fitness>
44.3524

> <Gold.PLP.PLP>
-41.2564

> <Gold.PLP.part.hbond>
-1.2532

> <Gold.PLP.part.metal>
0.0000

> <Gold.PLP.part.buried>
-0.8905

> <Gold.PLP.part.nonpolar>
-38.3960

> <Gold.PLP.part.repulsive>
0.0177

> <Gold.PLP.ligand.clash>
0.0000

> <Gold.PLP.ligand.torsion>
1.5019

> <Gold.PLP.Chemscore.Hbond>
2.0000

> <Gold.PLP.Chemscore.CHOScore>
0.0000

> <Gold.PLP.Chemscore.Metal>
0.0000

> <Gold.Chemscore.Hbonds>
donor molecule, donor type, donor heavy atom, donor atom, acceptor molecule, acceptor atom, score
      L1  H    10    34       P1  8028  2.00

> <Gold.PLP.Chemscore.Internal.Correction>
0.0999

> <Gold.Rescore>
     Score         DG    S(hbond)    S(metal)    S(lipo)     H(rot)  DE(clash)    DE(int)     intcor
     16.32     -18.07       0.92        0.00     113.84       1.48       0.30       1.44       ----

> <Gold.Chemscore.Fitness>
16.3233

> <Gold.Chemscore.DG>
-18.0653

> <Gold.Chemscore.ZeroCoef>
-5.4800

> <Gold.Chemscore.Hbond>
0.9181

> <Gold.Chemscore.Metal>
0.0000

> <Gold.Chemscore.Lipo>
113.8440

> <Gold.Chemscore.Internal_Hbond>
0.0000

> <Gold.Chemscore.DEClash>
0.3046

> <Gold.Chemscore.DEInternal>
1.4374

> <Gold.Chemscore.Rot>
1.4847

> <Gold.Chemscore.Internal.Correction>
   9.000000E+99

> <Gold.Chemscore.Hbonds>
donor molecule, donor type, donor heavy atom, donor atom, acceptor molecule, acceptor atom, score
      L1  H    10    34       P1  8028  0.87

> <Gold.Chemscore.Hbond.Weighted>
-3.0663

> <Gold.Chemscore.Metal.Weighted>
-0.0000

> <Gold.Chemscore.Lipo.Weighted>
-13.3197

> <Gold.Chemscore.Internal_Hbond.Weighted>
0.0000

> <Gold.Chemscore.DEClash.Weighted>
0.3046

> <Gold.Chemscore.DEInternal.Weighted>
1.4374

> <Gold.Chemscore.Rot.Weighted>
3.8008

> <Gold.Chemscore.Internal.Correction.Weighted>
   9.000000E+99

> <Gold.Protein.RotatedTorsions>
[ 6907 6896 6895 6894 ] final -174.82 input  -60.11 | X-H torsion
[ 7974 7965 7964 7962 ] final  -51.07 input  175.53 | X-H torsion
[ 8008 7997 7996 7995 ] final -169.97 input   59.86 | X-H torsion
[ 10167 10162 10161 10158 ] final  -83.05 input  -65.29 | X-H torsion
[ 10718 10713 10712 10709 ] final   21.71 input   66.30 | X-H torsion
[ 10763 10752 10751 10750 ] final  140.51 input  -60.55 | X-H torsion
[ 11005 11000 10999 10996 ] final   -5.30 input  -57.11 | X-H torsion

> <Gold.Protein.ActiveResidues>
 VAL166  LYS551  ARG553  GLY616  TRP617  ASP618  TYR619  PRO620  LYS621  CYS622 
 ASP623  PHE694  ASN695  SER759  ASP760  ASP761  ALA762  ILE779  LEU786  VAL792 
 PHE793  MET794  SER795  GLU796  ALA797  LYS798  CYS799  TRP800  GLU811  SER814 

> <Gold.Protein.RotatedAtoms>
  151.5786  133.3380  159.3003 H   0  0  0  0  0  0  0  0  0  0  0  0  # atno 6907 bound_to 6896
  150.8326  134.7589  159.6877 H   0  0  0  0  0  0  0  0  0  0  0  0  # atno 6908 bound_to 6896
  152.4407  134.5602  159.9943 H   0  0  0  0  0  0  0  0  0  0  0  0  # atno 6909 bound_to 6896
  145.9230  140.7817  142.9638 H   0  0  0  0  0  0  0  0  0  0  0  0  # atno 7974 bound_to 7965
  155.9121  140.1059  157.1271 H   0  0  0  0  0  0  0  0  0  0  0  0  # atno 8008 bound_to 7997
  154.4041  140.1272  156.4635 H   0  0  0  0  0  0  0  0  0  0  0  0  # atno 8009 bound_to 7997
  155.7298  140.3468  155.5056 H   0  0  0  0  0  0  0  0  0  0  0  0  # atno 8010 bound_to 7997
  140.4263  143.2565  151.8822 H   0  0  0  0  0  0  0  0  0  0  0  0  # atno 10167 bound_to 10162
  157.1423  130.6638  149.5985 H   0  0  0  0  0  0  0  0  0  0  0  0  # atno 10718 bound_to 10713
  153.9240  135.2997  155.3447 H   0  0  0  0  0  0  0  0  0  0  0  0  # atno 10763 bound_to 10752
  154.7561  135.4957  153.9380 H   0  0  0  0  0  0  0  0  0  0  0  0  # atno 10764 bound_to 10752
  153.1127  135.6763  153.9576 H   0  0  0  0  0  0  0  0  0  0  0  0  # atno 10765 bound_to 10752
  140.6896  133.9082  155.8609 H   0  0  0  0  0  0  0  0  0  0  0  0  # atno 11005 bound_to 11000
  144.6755  140.2006  143.7387 LP  0  0  0  0  0  0  0  0  0  0  0  0  # atno 17320 bound_to 7965
  145.8525  139.2182  143.1763 LP  0  0  0  0  0  0  0  0  0  0  0  0  # atno 17321 bound_to 7965
  139.4783  144.5384  151.8565 LP  0  0  0  0  0  0  0  0  0  0  0  0  # atno 17342 bound_to 10162
  140.4478  144.1897  150.5895 LP  0  0  0  0  0  0  0  0  0  0  0  0  # atno 17343 bound_to 10162
  155.9786  130.4773  150.6666 LP  0  0  0  0  0  0  0  0  0  0  0  0  # atno 17370 bound_to 10713
  157.4296  131.0847  151.1052 LP  0  0  0  0  0  0  0  0  0  0  0  0  # atno 17371 bound_to 10713
  141.0252  134.0833  157.4076 LP  0  0  0  0  0  0  0  0  0  0  0  0  # atno 17394 bound_to 11000
  139.8927  135.0126  156.6861 LP  0  0  0  0  0  0  0  0  0  0  0  0  # atno 17395 bound_to 11000

$$$$
