AV-unprocessed.smi:177|AV-procd|sdf|1437|dock7
  -GOLD-   2262019223D 1   1.00000     0.00000
 Structure written by MMmdl.
 61 65  0  0  0  0  0  0  0  0  1 V2000
  151.4052  145.5732  160.0393 C   0  0  0  0  0  0  0  0  0  0  0  0
  151.8579  144.6032  159.1073 O   0  0  0  0  0  0  0  0  0  0  0  0
  151.9040  143.2756  159.6156 C   0  0  2  0  0  0  0  0  0  0  0  0
  152.7464  143.3082  160.9025 C   0  0  0  0  0  0  0  0  0  0  0  0
  152.9328  141.9005  161.4872 C   0  0  0  0  0  0  0  0  0  0  0  0
  153.5533  140.9593  160.4447 C   0  0  1  0  0  0  0  0  0  0  0  0
  153.6968  139.6624  161.0119 O   0  0  0  0  0  0  0  0  0  0  0  0
  154.3621  138.7742  160.1222 C   0  0  0  0  0  0  0  0  0  0  0  0
  153.5291  138.6154  158.8413 C   0  0  0  0  0  0  0  0  0  0  0  0
  153.2535  139.9153  158.2352 N   0  0  0  0  0  0  0  0  0  0  0  0
  152.6406  139.7480  157.0378 C   0  0  0  0  0  0  0  0  0  0  0  0
  153.3015  139.1688  155.9997 N   0  0  0  0  0  0  0  0  0  0  0  0
  152.6957  139.0235  154.8174 C   0  0  0  0  0  0  0  0  0  0  0  0
  151.4634  139.3911  154.4596 N   0  0  0  0  0  0  0  0  0  0  0  0
  150.8047  139.9895  155.4938 C   0  0  0  0  0  0  0  0  0  0  0  0
  151.3158  140.2045  156.8042 C   0  0  0  0  0  0  0  0  0  0  0  0
  150.3608  140.8341  157.5915 N   0  0  0  0  0  0  0  0  0  0  0  0
  149.3398  140.9811  156.7915 C   0  0  0  0  0  0  0  0  0  0  0  0
  149.5244  140.5170  155.5076 N   0  0  0  0  0  0  0  0  0  0  0  0
  148.5532  140.5438  154.4226 C   0  0  0  0  0  0  0  0  0  0  0  0
  147.4173  139.4768  154.4994 C   0  0  0  0  0  0  0  0  0  0  0  0
  146.7471  139.4081  153.0969 C   0  0  0  0  0  0  0  0  0  0  0  0
  147.6531  139.0233  152.0817 O   0  0  0  0  0  0  0  0  0  0  0  0
  147.9634  138.0907  154.9325 C   0  0  0  0  0  0  0  0  0  0  0  0
  146.8415  137.0711  155.2021 C   0  0  0  0  0  0  0  0  0  0  0  0
  145.9623  137.5729  156.2013 O   0  0  0  0  0  0  0  0  0  0  0  0
  145.3141  138.7792  155.8175 C   0  0  0  0  0  0  0  0  0  0  0  0
  146.3593  139.8810  155.5592 C   0  0  0  0  0  0  0  0  0  0  0  0
  152.6702  140.8795  159.1770 C   0  0  2  0  0  0  0  0  0  0  0  0
  152.5139  142.3017  158.5834 C   0  0  0  0  0  0  0  0  0  0  0  0
  151.4590  146.5625  159.5855 H   0  0  0  0  0  0  0  0  0  0  0  0
  152.0289  145.5840  160.9338 H   0  0  0  0  0  0  0  0  0  0  0  0
  150.3707  145.4026  160.3356 H   0  0  0  0  0  0  0  0  0  0  0  0
  150.8968  142.9468  159.8781 H   0  0  0  0  0  0  0  0  0  0  0  0
  153.7237  143.7441  160.6904 H   0  0  0  0  0  0  0  0  0  0  0  0
  152.2736  143.9564  161.6412 H   0  0  0  0  0  0  0  0  0  0  0  0
  153.5680  141.9478  162.3720 H   0  0  0  0  0  0  0  0  0  0  0  0
  151.9700  141.5071  161.8157 H   0  0  0  0  0  0  0  0  0  0  0  0
  154.5432  141.3397  160.1830 H   0  0  0  0  0  0  0  0  0  0  0  0
  155.3621  139.1459  159.8932 H   0  0  0  0  0  0  0  0  0  0  0  0
  154.4866  137.8083  160.6118 H   0  0  0  0  0  0  0  0  0  0  0  0
  154.0635  137.9741  158.1391 H   0  0  0  0  0  0  0  0  0  0  0  0
  152.5855  138.1188  159.0733 H   0  0  0  0  0  0  0  0  0  0  0  0
  153.2838  138.5459  154.0476 H   0  0  0  0  0  0  0  0  0  0  0  0
  148.4173  141.4400  157.1166 H   0  0  0  0  0  0  0  0  0  0  0  0
  148.1183  141.5439  154.3922 H   0  0  0  0  0  0  0  0  0  0  0  0
  149.1098  140.4356  153.4911 H   0  0  0  0  0  0  0  0  0  0  0  0
  145.9148  138.7074  153.0706 H   0  0  0  0  0  0  0  0  0  0  0  0
  146.3322  140.3804  152.8294 H   0  0  0  0  0  0  0  0  0  0  0  0
  147.9111  138.1269  152.2337 H   0  0  0  0  0  0  0  0  0  0  0  0
  148.6561  137.6967  154.1886 H   0  0  0  0  0  0  0  0  0  0  0  0
  148.5363  138.1858  155.8541 H   0  0  0  0  0  0  0  0  0  0  0  0
  146.2872  136.8305  154.2946 H   0  0  0  0  0  0  0  0  0  0  0  0
  147.2712  136.1352  155.5594 H   0  0  0  0  0  0  0  0  0  0  0  0
  144.6796  138.6074  154.9482 H   0  0  0  0  0  0  0  0  0  0  0  0
  144.6501  139.0857  156.6258 H   0  0  0  0  0  0  0  0  0  0  0  0
  146.8427  140.0850  156.5139 H   0  0  0  0  0  0  0  0  0  0  0  0
  145.8624  140.8067  155.2669 H   0  0  0  0  0  0  0  0  0  0  0  0
  151.6854  140.5114  159.4701 H   0  0  0  0  0  0  0  0  0  0  0  0
  151.8842  142.2766  157.6958 H   0  0  0  0  0  0  0  0  0  0  0  0
  153.4864  142.6738  158.2579 H   0  0  0  0  0  0  0  0  0  0  0  0
  1  2  1  0  0  0  0
  1 31  1  0  0  0  0
  1 32  1  0  0  0  0
  1 33  1  0  0  0  0
  2  3  1  0  0  0  0
  3 30  1  0  0  0  0
  3  4  1  0  0  0  0
  3 34  1  0  0  0  0
  4  5  1  0  0  0  0
  4 35  1  0  0  0  0
  4 36  1  0  0  0  0
  5  6  1  0  0  0  0
  5 37  1  0  0  0  0
  5 38  1  0  0  0  0
  6 29  1  0  0  0  0
  6  7  1  0  0  0  0
  6 39  1  0  0  0  0
  7  8  1  0  0  0  0
  8  9  1  0  0  0  0
  8 40  1  0  0  0  0
  8 41  1  0  0  0  0
  9 10  1  0  0  0  0
  9 42  1  0  0  0  0
  9 43  1  0  0  0  0
 10 11  1  0  0  0  0
 10 29  1  0  0  0  0
 11 16  1  0  0  0  0
 11 12  2  0  0  0  0
 12 13  1  0  0  0  0
 13 14  2  0  0  0  0
 13 44  1  0  0  0  0
 14 15  1  0  0  0  0
 15 19  1  0  0  0  0
 15 16  2  0  0  0  0
 16 17  1  0  0  0  0
 17 18  2  0  0  0  0
 18 19  1  0  0  0  0
 18 45  1  0  0  0  0
 19 20  1  0  0  0  0
 20 21  1  0  0  0  0
 20 46  1  0  0  0  0
 20 47  1  0  0  0  0
 21 28  1  0  0  0  0
 21 22  1  0  0  0  0
 21 24  1  0  0  0  0
 22 23  1  0  0  0  0
 22 48  1  0  0  0  0
 22 49  1  0  0  0  0
 23 50  1  0  0  0  0
 24 25  1  0  0  0  0
 24 51  1  0  0  0  0
 24 52  1  0  0  0  0
 25 26  1  0  0  0  0
 25 53  1  0  0  0  0
 25 54  1  0  0  0  0
 26 27  1  0  0  0  0
 27 28  1  0  0  0  0
 27 55  1  0  0  0  0
 27 56  1  0  0  0  0
 28 57  1  0  0  0  0
 28 58  1  0  0  0  0
 29 30  1  0  0  0  0
 29 59  1  0  0  0  0
 30 60  1  0  0  0  0
 30 61  1  0  0  0  0
M  END
> <s_m_source_file>
AV-unprocessed.smi

> <i_m_source_file_index>
177

> <i_lp_mmshare_version>
43012

> <i_f3d_flags>
0

> <s_epik_input>
W0NIM11PW0NASF0oW0NIMl1bQ0gyXTEpW0NIMl1bQ0BIXShbQ0BASF0xMilOKFtDSDJdW0NIMl1PMiljKG5bY0hdbjMpYyhjMzQpbltjSF1uNFtDSDJdQzUoW0NIMl1bT0hdKVtDSDJdW0NIMl1PW0NIMl1bQ0gyXTU=

> <s_epik_cmdline>
J2VwaWtfcHl0aG9uJywgJy1waCcsICc3LjAnLCAnLXRuJywgJzgnLCAnLW1hJywgJzIwMCcsICctbWV0YWxfYmluZGluZycsICctaW1hZScsICc8aW5maWxlLm1hZT4nLCAnLW9tYWUnLCAnPG91dGZpbGUubWFlPic=

> <r_lp_tautomer_probability>
1

> <r_epik_Ionization_Penalty>
0.0065899

> <r_epik_Ionization_Penalty_Charging>
0

> <r_epik_Ionization_Penalty_Neutral>
0.0065899

> <r_epik_State_Penalty>
0.00470042

> <r_epik_Charging_Adjusted_Penalty>
0.00470042

> <i_epik_Tot_Q>
0

> <i_epik_Tot_abs_Q>
0

> <r_epik_Metal_State_Penalty>
-0

> <b_epik_Metal_Only>
0

> <s_lp_Force_Field>
OPLS_2005

> <r_lp_Energy>
44.8058

> <b_lp_Chiralities_Consistent>
1

> <s_lp_Variant>
AV-unprocessed.smi:177-1

> <Gold.Version>
5.8.1

> <Gold.Id.Protein>
6NUR|6NUR_protein|mol2

> <Gold.PLP.Fitness>
51.0330

> <Gold.PLP.PLP>
-44.8281

> <Gold.PLP.part.hbond>
-4.0792

> <Gold.PLP.part.metal>
0.0000

> <Gold.PLP.part.buried>
-4.0568

> <Gold.PLP.part.nonpolar>
-36.3378

> <Gold.PLP.part.repulsive>
0.1758

> <Gold.PLP.ligand.clash>
0.0042

> <Gold.PLP.ligand.torsion>
0.6878

> <Gold.PLP.Chemscore.Hbond>
2.4733

> <Gold.PLP.Chemscore.CHOScore>
0.0000

> <Gold.PLP.Chemscore.Metal>
0.0000

> <Gold.Chemscore.Hbonds>
donor molecule, donor type, donor heavy atom, donor atom, acceptor molecule, acceptor atom, score
      L1  H    23    50       P1  7948  0.65
      P1  H  7989  7998       L1    14  0.80
      P1  H  7997  8008       L1    10  0.10
      P1  H  7997  8009       L1    12  0.66

> <Gold.PLP.Chemscore.Internal.Correction>
0.1647

> <Gold.Rescore>
     Score         DG    S(hbond)    S(metal)    S(lipo)     H(rot)  DE(clash)    DE(int)     intcor
      9.70     -15.40       1.13        0.00     108.94       2.58       1.27       4.44       ----

> <Gold.Chemscore.Fitness>
9.6985

> <Gold.Chemscore.DG>
-15.4041

> <Gold.Chemscore.ZeroCoef>
-5.4800

> <Gold.Chemscore.Hbond>
1.1329

> <Gold.Chemscore.Metal>
0.0000

> <Gold.Chemscore.Lipo>
108.9445

> <Gold.Chemscore.Internal_Hbond>
0.0000

> <Gold.Chemscore.DEClash>
1.2662

> <Gold.Chemscore.DEInternal>
4.4394

> <Gold.Chemscore.Rot>
2.5806

> <Gold.Chemscore.Internal.Correction>
   9.000000E+99

> <Gold.Chemscore.Hbonds>
donor molecule, donor type, donor heavy atom, donor atom, acceptor molecule, acceptor atom, score
      L1  H    23    50       P1  7948  0.64
      P1  H  7989  7998       L1    14  0.06
      P1  H  7997  8009       L1    12  0.13

> <Gold.Chemscore.Hbond.Weighted>
-3.7838

> <Gold.Chemscore.Metal.Weighted>
-0.0000

> <Gold.Chemscore.Lipo.Weighted>
-12.7465

> <Gold.Chemscore.Internal_Hbond.Weighted>
0.0000

> <Gold.Chemscore.DEClash.Weighted>
1.2662

> <Gold.Chemscore.DEInternal.Weighted>
4.4394

> <Gold.Chemscore.Rot.Weighted>
6.6062

> <Gold.Chemscore.Internal.Correction.Weighted>
   9.000000E+99

> <Gold.Protein.RotatedTorsions>
[ 6907 6896 6895 6894 ] final -120.62 input  -60.11 | X-H torsion
[ 7974 7965 7964 7962 ] final  -39.45 input  175.53 | X-H torsion
[ 8008 7997 7996 7995 ] final -127.72 input   59.86 | X-H torsion
[ 10167 10162 10161 10158 ] final  106.11 input  -65.29 | X-H torsion
[ 10718 10713 10712 10709 ] final   -8.35 input   66.30 | X-H torsion
[ 10763 10752 10751 10750 ] final  129.79 input  -60.55 | X-H torsion
[ 11005 11000 10999 10996 ] final -115.95 input  -57.11 | X-H torsion

> <Gold.Protein.ActiveResidues>
 VAL166  LYS551  ARG553  GLY616  TRP617  ASP618  TYR619  PRO620  LYS621  CYS622 
 ASP623  PHE694  ASN695  SER759  ASP760  ASP761  ALA762  ILE779  LEU786  VAL792 
 PHE793  MET794  SER795  GLU796  ALA797  LYS798  CYS799  TRP800  GLU811  SER814 

> <Gold.Protein.RotatedAtoms>
  150.8410  133.7937  159.3060 H   0  0  0  0  0  0  0  0  0  0  0  0  # atno 6907 bound_to 6896
  151.5638  135.1063  159.9988 H   0  0  0  0  0  0  0  0  0  0  0  0  # atno 6908 bound_to 6896
  152.4473  133.7519  159.6755 H   0  0  0  0  0  0  0  0  0  0  0  0  # atno 6909 bound_to 6896
  146.0395  140.6628  142.9094 H   0  0  0  0  0  0  0  0  0  0  0  0  # atno 7974 bound_to 7965
  155.2509  140.0432  157.2986 H   0  0  0  0  0  0  0  0  0  0  0  0  # atno 8008 bound_to 7997
  154.5770  140.2390  155.8078 H   0  0  0  0  0  0  0  0  0  0  0  0  # atno 8009 bound_to 7997
  156.2165  140.2983  155.9859 H   0  0  0  0  0  0  0  0  0  0  0  0  # atno 8010 bound_to 7997
  139.7037  144.7090  151.1143 H   0  0  0  0  0  0  0  0  0  0  0  0  # atno 10167 bound_to 10162
  156.7039  130.5101  149.5910 H   0  0  0  0  0  0  0  0  0  0  0  0  # atno 10718 bound_to 10713
  153.7475  135.3215  155.3315 H   0  0  0  0  0  0  0  0  0  0  0  0  # atno 10763 bound_to 10752
  154.8274  135.4559  154.0965 H   0  0  0  0  0  0  0  0  0  0  0  0  # atno 10764 bound_to 10752
  153.2158  135.6941  153.8142 H   0  0  0  0  0  0  0  0  0  0  0  0  # atno 10765 bound_to 10752
  141.0454  133.9771  157.2926 H   0  0  0  0  0  0  0  0  0  0  0  0  # atno 11005 bound_to 11000
  144.7067  140.3881  143.7112 LP  0  0  0  0  0  0  0  0  0  0  0  0  # atno 17320 bound_to 7965
  145.6909  139.1639  143.2647 LP  0  0  0  0  0  0  0  0  0  0  0  0  # atno 17321 bound_to 7965
  140.7716  143.5389  150.9336 LP  0  0  0  0  0  0  0  0  0  0  0  0  # atno 17342 bound_to 10162
  139.9071  143.6765  152.3121 LP  0  0  0  0  0  0  0  0  0  0  0  0  # atno 17343 bound_to 10162
  156.1709  130.6436  151.0836 LP  0  0  0  0  0  0  0  0  0  0  0  0  # atno 17370 bound_to 10713
  157.6962  131.0793  150.6961 LP  0  0  0  0  0  0  0  0  0  0  0  0  # atno 17371 bound_to 10713
  139.9308  135.0200  156.8392 LP  0  0  0  0  0  0  0  0  0  0  0  0  # atno 17394 bound_to 11000
  140.6156  134.0041  155.7596 LP  0  0  0  0  0  0  0  0  0  0  0  0  # atno 17395 bound_to 11000

$$$$
