AV-unprocessed.smi:991|AV-procd|sdf|4328|dock5
  -GOLD-   22720 2233D 1   1.00000     0.00000
 Structure written by MMmdl.
 32 33  0  0  0  0  0  0  0  0  1 V2000
  152.9324  138.9653  155.6374 O   0  0  0  0  0  0  0  0  0  0  0  0
  151.8003  139.4480  155.6285 C   0  0  0  0  0  0  0  0  0  0  0  0
  150.8668  139.1849  154.4462 C   0  0  0  0  0  0  0  0  0  0  0  0
  149.6312  139.9365  154.5736 N   0  0  0  0  0  0  0  0  0  0  0  0
  148.4120  139.5454  154.9496 C   0  0  0  0  0  0  0  0  0  0  0  0
  147.5119  140.5189  154.9428 N   0  0  0  0  0  0  0  0  0  0  0  0
  148.2993  141.5552  154.5258 C   0  0  0  0  0  0  0  0  0  0  0  0
  149.5778  141.2598  154.2904 N   0  0  0  0  0  0  0  0  0  0  0  0
  151.3125  140.2095  156.6214 N   0  0  0  0  0  0  0  0  0  0  0  0
  152.0317  140.5618  157.8439 C   0  0  0  0  0  0  0  0  0  0  0  0
  151.7668  142.0050  158.3114 C   0  0  0  0  0  0  0  0  0  0  0  0
  151.1756  142.7922  157.5698 O   0  0  0  0  0  0  0  0  0  0  0  0
  152.2095  142.3699  159.5324 N   0  0  0  0  0  0  0  0  0  0  0  0
  152.0386  143.6867  160.1458 C   0  0  0  0  0  0  0  0  0  0  0  0
  152.5049  143.5327  161.5941 C   0  0  0  0  0  0  0  0  0  0  0  0
  153.4764  142.3614  161.5507 C   0  0  0  0  0  0  0  0  0  0  0  0
  152.9406  141.4747  160.4267 C   0  0  0  0  0  0  0  0  0  0  0  0
  151.3547  139.4708  153.5132 H   0  0  0  0  0  0  0  0  0  0  0  0
  150.6430  138.1189  154.3791 H   0  0  0  0  0  0  0  0  0  0  0  0
  148.1785  138.5286  155.2302 H   0  0  0  0  0  0  0  0  0  0  0  0
  147.9188  142.5571  154.3915 H   0  0  0  0  0  0  0  0  0  0  0  0
  150.3701  140.5607  156.5295 H   0  0  0  0  0  0  0  0  0  0  0  0
  151.7738  139.8540  158.6333 H   0  0  0  0  0  0  0  0  0  0  0  0
  153.0989  140.4468  157.6535 H   0  0  0  0  0  0  0  0  0  0  0  0
  152.6648  144.4093  159.6208 H   0  0  0  0  0  0  0  0  0  0  0  0
  151.0050  144.0329  160.1013 H   0  0  0  0  0  0  0  0  0  0  0  0
  152.9555  144.4423  161.9925 H   0  0  0  0  0  0  0  0  0  0  0  0
  151.6545  143.2762  162.2273 H   0  0  0  0  0  0  0  0  0  0  0  0
  154.4718  142.7228  161.2881 H   0  0  0  0  0  0  0  0  0  0  0  0
  153.5524  141.8370  162.5038 H   0  0  0  0  0  0  0  0  0  0  0  0
  152.2503  140.7282  160.8227 H   0  0  0  0  0  0  0  0  0  0  0  0
  153.7496  140.9509  159.9148 H   0  0  0  0  0  0  0  0  0  0  0  0
  1  2  2  0  0  0  0
  2  3  1  0  0  0  0
  2  9  1  0  0  0  0
  3  4  1  0  0  0  0
  3 18  1  0  0  0  0
  3 19  1  0  0  0  0
  4  8  1  0  0  0  0
  4  5  1  0  0  0  0
  5  6  2  0  0  0  0
  5 20  1  0  0  0  0
  6  7  1  0  0  0  0
  7  8  2  0  0  0  0
  7 21  1  0  0  0  0
  9 10  1  0  0  0  0
  9 22  1  0  0  0  0
 10 11  1  0  0  0  0
 10 23  1  0  0  0  0
 10 24  1  0  0  0  0
 11 12  2  0  0  0  0
 11 13  1  0  0  0  0
 13 17  1  0  0  0  0
 13 14  1  0  0  0  0
 14 15  1  0  0  0  0
 14 25  1  0  0  0  0
 14 26  1  0  0  0  0
 15 16  1  0  0  0  0
 15 27  1  0  0  0  0
 15 28  1  0  0  0  0
 16 17  1  0  0  0  0
 16 29  1  0  0  0  0
 16 30  1  0  0  0  0
 17 31  1  0  0  0  0
 17 32  1  0  0  0  0
M  END
> <s_m_source_file>
AV-unprocessed.smi

> <i_m_source_file_index>
991

> <i_lp_mmshare_version>
43012

> <i_f3d_flags>
0

> <s_epik_input>
bjFbY0hdbltjSF1uMVtDSDJdQyg9TylbTkhdW0NIMl1DKD1PKU4yW0NIMl1bQ0gyXVtDSDJdW0NIMl0y

> <s_epik_cmdline>
J2VwaWtfcHl0aG9uJywgJy1waCcsICc3LjAnLCAnLXRuJywgJzgnLCAnLW1hJywgJzIwMCcsICctbWV0YWxfYmluZGluZycsICctaW1hZScsICc8aW5maWxlLm1hZT4nLCAnLW9tYWUnLCAnPG91dGZpbGUubWFlPic=

> <r_lp_tautomer_probability>
1

> <r_epik_Ionization_Penalty>
7.3183e-06

> <r_epik_Ionization_Penalty_Charging>
0

> <r_epik_Ionization_Penalty_Neutral>
7.3183e-06

> <r_epik_State_Penalty>
-0

> <r_epik_Charging_Adjusted_Penalty>
0

> <i_epik_Tot_Q>
0

> <i_epik_Tot_abs_Q>
0

> <r_epik_Metal_State_Penalty>
-0

> <b_epik_Metal_Only>
0

> <s_lp_Force_Field>
OPLS_2005

> <r_lp_Energy>
26.0119

> <b_lp_Chiralities_Consistent>
1

> <s_lp_Variant>
AV-unprocessed.smi:991-1

> <Gold.Version>
5.8.1

> <Gold.Id.Protein>
6NUR|6NUR_protein|mol2

> <Gold.PLP.Fitness>
42.9682

> <Gold.PLP.PLP>
-37.1965

> <Gold.PLP.part.hbond>
-3.0000

> <Gold.PLP.part.metal>
0.0000

> <Gold.PLP.part.buried>
-1.9004

> <Gold.PLP.part.nonpolar>
-31.1233

> <Gold.PLP.part.repulsive>
0.4874

> <Gold.PLP.ligand.clash>
0.0000

> <Gold.PLP.ligand.torsion>
0.5207

> <Gold.PLP.Chemscore.Hbond>
1.3620

> <Gold.PLP.Chemscore.CHOScore>
0.9072

> <Gold.PLP.Chemscore.Metal>
0.0000

> <Gold.Chemscore.Hbonds>
donor molecule, donor type, donor heavy atom, donor atom, acceptor molecule, acceptor atom, score
      P1  H  7989  7998       L1     8  0.04
      P1  H  7997  8009       L1     1  1.00
      P1  H  8011  8017       L1     8  0.23
      L1  C     7    21       P1  8028  0.63

> <Gold.PLP.Chemscore.Internal.Correction>
0.0057

> <Gold.Rescore>
     Score         DG    S(hbond)    S(metal)    S(lipo)     H(rot)  DE(clash)    DE(int)     intcor
      9.66     -10.32       1.27        0.00      60.62       2.54       0.03       0.63       ----

> <Gold.Chemscore.Fitness>
9.6552

> <Gold.Chemscore.DG>
-10.3166

> <Gold.Chemscore.ZeroCoef>
-5.4800

> <Gold.Chemscore.Hbond>
1.2687

> <Gold.Chemscore.Metal>
0.0000

> <Gold.Chemscore.Lipo>
60.6234

> <Gold.Chemscore.Internal_Hbond>
0.0000

> <Gold.Chemscore.DEClash>
0.0270

> <Gold.Chemscore.DEInternal>
0.6343

> <Gold.Chemscore.Rot>
2.5366

> <Gold.Chemscore.Internal.Correction>
   9.000000E+99

> <Gold.Chemscore.Hbonds>
donor molecule, donor type, donor heavy atom, donor atom, acceptor molecule, acceptor atom, score
      P1  H  7997  8009       L1     1  0.92
      P1  H  8011  8017       L1     8  0.05

> <Gold.Chemscore.Hbond.Weighted>
-4.2374

> <Gold.Chemscore.Metal.Weighted>
-0.0000

> <Gold.Chemscore.Lipo.Weighted>
-7.0929

> <Gold.Chemscore.Internal_Hbond.Weighted>
0.0000

> <Gold.Chemscore.DEClash.Weighted>
0.0270

> <Gold.Chemscore.DEInternal.Weighted>
0.6343

> <Gold.Chemscore.Rot.Weighted>
6.4937

> <Gold.Chemscore.Internal.Correction.Weighted>
   9.000000E+99

> <Gold.Protein.RotatedTorsions>
[ 6907 6896 6895 6894 ] final   76.30 input  -60.11 | X-H torsion
[ 7974 7965 7964 7962 ] final  -39.13 input  175.53 | X-H torsion
[ 8008 7997 7996 7995 ] final -158.16 input   59.86 | X-H torsion
[ 10167 10162 10161 10158 ] final  120.46 input  -65.29 | X-H torsion
[ 10718 10713 10712 10709 ] final   15.60 input   66.30 | X-H torsion
[ 10763 10752 10751 10750 ] final -131.98 input  -60.55 | X-H torsion
[ 11005 11000 10999 10996 ] final   25.21 input  -57.11 | X-H torsion

> <Gold.Protein.ActiveResidues>
 VAL166  LYS551  ARG553  GLY616  TRP617  ASP618  TYR619  PRO620  LYS621  CYS622 
 ASP623  PHE694  ASN695  SER759  ASP760  ASP761  ALA762  ILE779  LEU786  VAL792 
 PHE793  MET794  SER795  GLU796  ALA797  LYS798  CYS799  TRP800  GLU811  SER814 

> <Gold.Protein.RotatedAtoms>
  152.5066  134.3990  159.9409 H   0  0  0  0  0  0  0  0  0  0  0  0  # atno 6907 bound_to 6896
  151.3953  133.3769  159.2733 H   0  0  0  0  0  0  0  0  0  0  0  0  # atno 6908 bound_to 6896
  150.9402  134.8833  159.7666 H   0  0  0  0  0  0  0  0  0  0  0  0  # atno 6909 bound_to 6896
  146.0424  140.6591  142.9081 H   0  0  0  0  0  0  0  0  0  0  0  0  # atno 7974 bound_to 7965
  155.7433  140.0817  157.2235 H   0  0  0  0  0  0  0  0  0  0  0  0  # atno 8008 bound_to 7997
  154.4019  140.1574  156.2696 H   0  0  0  0  0  0  0  0  0  0  0  0  # atno 8009 bound_to 7997
  155.8999  140.3410  155.6022 H   0  0  0  0  0  0  0  0  0  0  0  0  # atno 8010 bound_to 7997
  139.5981  144.7048  151.3128 H   0  0  0  0  0  0  0  0  0  0  0  0  # atno 10167 bound_to 10162
  157.0558  130.6288  149.5776 H   0  0  0  0  0  0  0  0  0  0  0  0  # atno 10718 bound_to 10713
  154.8747  135.3813  154.4334 H   0  0  0  0  0  0  0  0  0  0  0  0  # atno 10763 bound_to 10752
  153.5026  135.7030  153.5829 H   0  0  0  0  0  0  0  0  0  0  0  0  # atno 10764 bound_to 10752
  153.4153  135.3914  155.2043 H   0  0  0  0  0  0  0  0  0  0  0  0  # atno 10765 bound_to 10752
  140.3503  134.2236  155.7680 H   0  0  0  0  0  0  0  0  0  0  0  0  # atno 11005 bound_to 11000
  144.7081  140.3932  143.7102 LP  0  0  0  0  0  0  0  0  0  0  0  0  # atno 17320 bound_to 7965
  145.6862  139.1629  143.2672 LP  0  0  0  0  0  0  0  0  0  0  0  0  # atno 17321 bound_to 7965
  140.7228  143.7088  150.7786 LP  0  0  0  0  0  0  0  0  0  0  0  0  # atno 17342 bound_to 10162
  140.0659  143.5109  152.2604 LP  0  0  0  0  0  0  0  0  0  0  0  0  # atno 17343 bound_to 10162
  155.9993  130.5069  150.7604 LP  0  0  0  0  0  0  0  0  0  0  0  0  # atno 17370 bound_to 10713
  157.4994  131.0917  151.0332 LP  0  0  0  0  0  0  0  0  0  0  0  0  # atno 17371 bound_to 10713
  141.2014  133.7964  157.0443 LP  0  0  0  0  0  0  0  0  0  0  0  0  # atno 17394 bound_to 11000
  140.0708  134.9703  157.1464 LP  0  0  0  0  0  0  0  0  0  0  0  0  # atno 17395 bound_to 11000

$$$$
