AV-unprocessed.smi:49|AV-procd|sdf|474|dock9
  -GOLD-   2262016343D 1   1.00000     0.00000
 Structure written by MMmdl.
 27 28  0  0  0  0  0  0  0  0  1 V2000
  152.8359  144.6994  158.1037 C   0  0  0  0  0  0  0  0  0  0  0  0
  151.4123  144.1361  158.1699 C   0  0  0  0  0  0  0  0  0  0  0  0
  151.2538  142.8778  157.3810 C   0  0  0  0  0  0  0  0  0  0  0  0
  151.7670  141.6976  157.7116 N   0  0  0  0  0  0  0  0  0  0  0  0
  151.3235  140.9365  156.6658 C   0  0  0  0  0  0  0  0  0  0  0  0
  151.6059  139.4674  156.5741 C   0  0  1  0  0  0  0  0  0  0  0  0
  150.9955  138.8346  155.3080 C   0  0  0  0  0  0  0  0  0  0  0  0
  152.2028  138.3543  154.5059 C   0  0  2  0  0  0  0  0  0  0  0  0
  151.9264  137.2101  153.7263 O   0  0  0  0  0  0  0  0  0  0  0  0
  153.2364  138.0817  155.5907 C   0  0  0  0  0  0  0  0  0  0  0  0
  153.0394  139.1547  156.5533 N   0  0  0  0  0  0  0  0  0  0  0  0
  150.5687  141.5689  155.7654 N   0  0  0  0  0  0  0  0  0  0  0  0
  150.5457  142.8276  156.2510 N   0  0  0  0  0  0  0  0  0  0  0  0
  151.1544  138.9850  157.4421 H   0  0  0  0  0  0  0  0  0  0  0  0
  152.5566  139.1570  153.8570 H   0  0  0  0  0  0  0  0  0  0  0  0
  150.0522  143.5845  155.7993 H   0  0  0  0  0  0  0  0  0  0  0  0
  152.9178  145.6169  158.6867 H   0  0  0  0  0  0  0  0  0  0  0  0
  153.1194  144.9315  157.0766 H   0  0  0  0  0  0  0  0  0  0  0  0
  153.5601  143.9865  158.4988 H   0  0  0  0  0  0  0  0  0  0  0  0
  151.1381  143.9426  159.2078 H   0  0  0  0  0  0  0  0  0  0  0  0
  150.7037  144.8746  157.7939 H   0  0  0  0  0  0  0  0  0  0  0  0
  150.3730  137.9870  155.5990 H   0  0  0  0  0  0  0  0  0  0  0  0
  150.3670  139.5186  154.7358 H   0  0  0  0  0  0  0  0  0  0  0  0
  151.5384  137.4895  152.9110 H   0  0  0  0  0  0  0  0  0  0  0  0
  153.0345  137.1208  156.0664 H   0  0  0  0  0  0  0  0  0  0  0  0
  154.2565  138.0592  155.2069 H   0  0  0  0  0  0  0  0  0  0  0  0
  153.3325  138.8289  157.4686 H   0  0  0  0  0  0  0  0  0  0  0  0
  1  2  1  0  0  0  0
  1 17  1  0  0  0  0
  1 18  1  0  0  0  0
  1 19  1  0  0  0  0
  2  3  1  0  0  0  0
  2 20  1  0  0  0  0
  2 21  1  0  0  0  0
  3 13  1  0  0  0  0
  3  4  2  0  0  0  0
  4  5  1  0  0  0  0
  5  6  1  0  0  0  0
  5 12  2  0  0  0  0
  6 14  1  0  0  0  0
  6 11  1  0  0  0  0
  6  7  1  0  0  0  0
  7  8  1  0  0  0  0
  7 22  1  0  0  0  0
  7 23  1  0  0  0  0
  8 15  1  0  0  0  0
  8  9  1  0  0  0  0
  8 10  1  0  0  0  0
  9 24  1  0  0  0  0
 10 11  1  0  0  0  0
 10 25  1  0  0  0  0
 10 26  1  0  0  0  0
 11 27  1  0  0  0  0
 12 13  1  0  0  0  0
 13 16  1  0  0  0  0
M  END
> <s_m_source_file>
AV-unprocessed.smi

> <i_m_source_file_index>
49

> <i_lp_mmshare_version>
43012

> <i_f3d_flags>
0

> <s_epik_input>
W0NIM11bQ0gyXWMxbmMobltuSF0xKVtDQEBIXTJbQ0gyXVtDQEBIXShbT0hdKVtDSDJdW05IXTI=

> <s_epik_cmdline>
J2VwaWtfcHl0aG9uJywgJy1waCcsICc3LjAnLCAnLXRuJywgJzgnLCAnLW1hJywgJzIwMCcsICctbWV0YWxfYmluZGluZycsICctaW1hZScsICc8aW5maWxlLm1hZT4nLCAnLW9tYWUnLCAnPG91dGZpbGUubWFlPic=

> <r_lp_tautomer_probability>
0.948284

> <r_epik_Ionization_Penalty>
1.6657

> <r_epik_Ionization_Penalty_Charging>
0

> <r_epik_Ionization_Penalty_Neutral>
1.6657

> <r_epik_State_Penalty>
2.01417

> <r_epik_Charging_Adjusted_Penalty>
2.01417

> <i_epik_Tot_Q>
0

> <i_epik_Tot_abs_Q>
0

> <r_epik_Metal_State_Penalty>
2.28256

> <b_epik_Metal_Only>
0

> <s_lp_Force_Field>
OPLS_2005

> <r_lp_Energy>
18.9317

> <b_lp_Chiralities_Consistent>
1

> <s_lp_Variant>
AV-unprocessed.smi:49-12

> <Gold.Version>
5.8.1

> <Gold.Id.Protein>
6NUR|6NUR_protein|mol2

> <Gold.PLP.Fitness>
37.4638

> <Gold.PLP.PLP>
-27.8504

> <Gold.PLP.part.hbond>
-4.3257

> <Gold.PLP.part.metal>
0.0000

> <Gold.PLP.part.buried>
-2.6176

> <Gold.PLP.part.nonpolar>
-21.1092

> <Gold.PLP.part.repulsive>
0.2071

> <Gold.PLP.ligand.clash>
0.0000

> <Gold.PLP.ligand.torsion>
0.1201

> <Gold.PLP.Chemscore.Hbond>
3.2803

> <Gold.PLP.Chemscore.CHOScore>
0.0000

> <Gold.PLP.Chemscore.Metal>
0.0000

> <Gold.Chemscore.Hbonds>
donor molecule, donor type, donor heavy atom, donor atom, acceptor molecule, acceptor atom, score
      L1  H     9    24       P1  7949  0.28
      L1  H    13    16       P1  8028  1.00
      P1  H  7997  8008       L1    11  0.85
      P1  H 10752 10765       L1     9  1.00

> <Gold.PLP.Chemscore.Internal.Correction>
0.0128

> <Gold.Rescore>
     Score         DG    S(hbond)    S(metal)    S(lipo)     H(rot)  DE(clash)    DE(int)     intcor
     15.23     -15.35       2.48        0.00      54.16       1.86       0.06       0.06       ----

> <Gold.Chemscore.Fitness>
15.2316

> <Gold.Chemscore.DG>
-15.3514

> <Gold.Chemscore.ZeroCoef>
-5.4800

> <Gold.Chemscore.Hbond>
2.4807

> <Gold.Chemscore.Metal>
0.0000

> <Gold.Chemscore.Lipo>
54.1581

> <Gold.Chemscore.Internal_Hbond>
0.0000

> <Gold.Chemscore.DEClash>
0.0556

> <Gold.Chemscore.DEInternal>
0.0642

> <Gold.Chemscore.Rot>
1.8558

> <Gold.Chemscore.Internal.Correction>
   9.000000E+99

> <Gold.Chemscore.Hbonds>
donor molecule, donor type, donor heavy atom, donor atom, acceptor molecule, acceptor atom, score
      L1  H     9    24       P1  7949  0.25
      L1  H    13    16       P1  8028  0.98
      P1  H  7997  8008       L1    11  0.05
      P1  H 10752 10765       L1     9  0.92

> <Gold.Chemscore.Hbond.Weighted>
-8.2856

> <Gold.Chemscore.Metal.Weighted>
-0.0000

> <Gold.Chemscore.Lipo.Weighted>
-6.3365

> <Gold.Chemscore.Internal_Hbond.Weighted>
0.0000

> <Gold.Chemscore.DEClash.Weighted>
0.0556

> <Gold.Chemscore.DEInternal.Weighted>
0.0642

> <Gold.Chemscore.Rot.Weighted>
4.7507

> <Gold.Chemscore.Internal.Correction.Weighted>
   9.000000E+99

> <Gold.Protein.RotatedTorsions>
[ 6907 6896 6895 6894 ] final  123.85 input  -60.11 | X-H torsion
[ 7974 7965 7964 7962 ] final  -24.57 input  175.53 | X-H torsion
[ 8008 7997 7996 7995 ] final  -36.31 input   59.86 | X-H torsion
[ 10167 10162 10161 10158 ] final  165.24 input  -65.29 | X-H torsion
[ 10718 10713 10712 10709 ] final    9.44 input   66.30 | X-H torsion
[ 10763 10752 10751 10750 ] final  137.42 input  -60.55 | X-H torsion
[ 11005 11000 10999 10996 ] final  102.35 input  -57.11 | X-H torsion

> <Gold.Protein.ActiveResidues>
 VAL166  LYS551  ARG553  GLY616  TRP617  ASP618  TYR619  PRO620  LYS621  CYS622 
 ASP623  PHE694  ASN695  SER759  ASP760  ASP761  ALA762  ILE779  LEU786  VAL792 
 PHE793  MET794  SER795  GLU796  ALA797  LYS798  CYS799  TRP800  GLU811  SER814 

> <Gold.Protein.RotatedAtoms>
  152.4127  133.6989  159.6411 H   0  0  0  0  0  0  0  0  0  0  0  0  # atno 6907 bound_to 6896
  150.8006  133.8595  159.3236 H   0  0  0  0  0  0  0  0  0  0  0  0  # atno 6908 bound_to 6896
  151.6333  135.1022  160.0177 H   0  0  0  0  0  0  0  0  0  0  0  0  # atno 6909 bound_to 6896
  146.1546  140.4769  142.8597 H   0  0  0  0  0  0  0  0  0  0  0  0  # atno 7974 bound_to 7965
  154.4076  140.1634  156.2354 H   0  0  0  0  0  0  0  0  0  0  0  0  # atno 8008 bound_to 7997
  155.9247  140.3419  155.6178 H   0  0  0  0  0  0  0  0  0  0  0  0  # atno 8009 bound_to 7997
  155.7179  140.0765  157.2334 H   0  0  0  0  0  0  0  0  0  0  0  0  # atno 8010 bound_to 7997
  139.4902  144.4152  151.9252 H   0  0  0  0  0  0  0  0  0  0  0  0  # atno 10167 bound_to 10162
  156.9663  130.5952  149.5665 H   0  0  0  0  0  0  0  0  0  0  0  0  # atno 10718 bound_to 10713
  153.8727  135.3054  155.3442 H   0  0  0  0  0  0  0  0  0  0  0  0  # atno 10763 bound_to 10752
  154.7798  135.4841  153.9824 H   0  0  0  0  0  0  0  0  0  0  0  0  # atno 10764 bound_to 10752
  153.1397  135.6821  153.9143 H   0  0  0  0  0  0  0  0  0  0  0  0  # atno 10765 bound_to 10752
  139.8777  134.9220  156.5044 H   0  0  0  0  0  0  0  0  0  0  0  0  # atno 11005 bound_to 11000
  144.7947  140.6100  143.6518 LP  0  0  0  0  0  0  0  0  0  0  0  0  # atno 17320 bound_to 7965
  145.4739  139.1501  143.3799 LP  0  0  0  0  0  0  0  0  0  0  0  0  # atno 17321 bound_to 7965
  140.3594  144.2991  150.5936 LP  0  0  0  0  0  0  0  0  0  0  0  0  # atno 17342 bound_to 10162
  140.5416  143.2222  151.8076 LP  0  0  0  0  0  0  0  0  0  0  0  0  # atno 17343 bound_to 10162
  156.0301  130.5393  150.8512 LP  0  0  0  0  0  0  0  0  0  0  0  0  # atno 17370 bound_to 10713
  157.5623  131.0946  150.9540 LP  0  0  0  0  0  0  0  0  0  0  0  0  # atno 17371 bound_to 10713
  140.8566  133.8091  155.9222 LP  0  0  0  0  0  0  0  0  0  0  0  0  # atno 17394 bound_to 11000
  140.9091  134.2282  157.4996 LP  0  0  0  0  0  0  0  0  0  0  0  0  # atno 17395 bound_to 11000

$$$$
