AV-unprocessed.smi:3256|AV-procd|sdf|12466|dock4
  -GOLD-   2272018363D 1   1.00000     0.00000
 Structure written by MMmdl.
 37 38  0  0  0  0  0  0  0  0  2 V2000
  144.5602  136.9813  152.3278 O   0  0  0  0  0  0  0  0  0  0  0  0
  145.7307  136.6517  152.1382 C   0  0  0  0  0  0  0  0  0  0  0  0
  146.7694  137.4669  152.3701 N   0  0  0  0  0  0  0  0  0  0  0  0
  146.6608  138.8403  152.8489 C   0  0  0  0  0  0  0  0  0  0  0  0
  147.8896  139.2502  153.6836 C   0  0  0  0  0  0  0  0  0  0  0  0
  148.7860  138.1032  153.9727 N   0  3  0  0  0  0  0  0  0  0  0  0
  150.1559  138.5364  154.3393 C   0  0  0  0  0  0  0  0  0  0  0  0
  151.0623  137.3169  154.5779 C   0  0  0  0  0  0  0  0  0  0  0  0
  150.4958  136.4929  155.5888 O   0  0  0  0  0  0  0  0  0  0  0  0
  149.2177  135.9954  155.2136 C   0  0  0  0  0  0  0  0  0  0  0  0
  148.2485  137.1696  154.9937 C   0  0  0  0  0  0  0  0  0  0  0  0
  146.1442  135.4507  151.6984 N   0  0  0  0  0  0  0  0  0  0  0  0
  145.3684  134.3153  151.3362 C   0  0  0  0  0  0  0  0  0  0  0  0
  145.8626  133.1979  150.6196 C   0  0  0  0  0  0  0  0  0  0  0  0
  144.9886  132.1303  150.3376 C   0  0  0  0  0  0  0  0  0  0  0  0
  143.6566  132.2137  150.7867 C   0  0  0  0  0  0  0  0  0  0  0  0
  143.1748  133.2660  151.4805 N   0  0  0  0  0  0  0  0  0  0  0  0
  144.0184  134.2857  151.7471 C   0  0  0  0  0  0  0  0  0  0  0  0
  147.6995  137.1163  152.1929 H   0  0  0  0  0  0  0  0  0  0  0  0
  146.5564  139.4792  151.9729 H   0  0  0  0  0  0  0  0  0  0  0  0
  145.7454  138.9591  153.4315 H   0  0  0  0  0  0  0  0  0  0  0  0
  148.4527  139.9995  153.1254 H   0  0  0  0  0  0  0  0  0  0  0  0
  147.5840  139.7274  154.6161 H   0  0  0  0  0  0  0  0  0  0  0  0
  150.5762  139.1526  153.5437 H   0  0  0  0  0  0  0  0  0  0  0  0
  150.1165  139.1549  155.2376 H   0  0  0  0  0  0  0  0  0  0  0  0
  151.1978  136.7454  153.6582 H   0  0  0  0  0  0  0  0  0  0  0  0
  152.0520  137.6412  154.8997 H   0  0  0  0  0  0  0  0  0  0  0  0
  149.3008  135.3846  154.3131 H   0  0  0  0  0  0  0  0  0  0  0  0
  148.8460  135.3449  156.0056 H   0  0  0  0  0  0  0  0  0  0  0  0
  148.0934  137.7031  155.9330 H   0  0  0  0  0  0  0  0  0  0  0  0
  147.2798  136.7796  154.6837 H   0  0  0  0  0  0  0  0  0  0  0  0
  147.1438  135.3161  151.6559 H   0  0  0  0  0  0  0  0  0  0  0  0
  146.8875  133.1274  150.2914 H   0  0  0  0  0  0  0  0  0  0  0  0
  145.3335  131.2642  149.7924 H   0  0  0  0  0  0  0  0  0  0  0  0
  142.9613  131.4117  150.5875 H   0  0  0  0  0  0  0  0  0  0  0  0
  143.5983  135.1093  152.3061 H   0  0  0  0  0  0  0  0  0  0  0  0
  148.8764  137.5830  153.1115 H   0  0  0  0  0  0  0  0  0  0  0  0
  1  2  2  0  0  0  0
  2  3  1  0  0  0  0
  2 12  1  0  0  0  0
  3  4  1  0  0  0  0
  3 19  1  0  0  0  0
  4  5  1  0  0  0  0
  4 20  1  0  0  0  0
  4 21  1  0  0  0  0
  5  6  1  0  0  0  0
  5 22  1  0  0  0  0
  5 23  1  0  0  0  0
  6 11  1  0  0  0  0
  6  7  1  0  0  0  0
  6 37  1  0  0  0  0
  7  8  1  0  0  0  0
  7 24  1  0  0  0  0
  7 25  1  0  0  0  0
  8  9  1  0  0  0  0
  8 26  1  0  0  0  0
  8 27  1  0  0  0  0
  9 10  1  0  0  0  0
 10 11  1  0  0  0  0
 10 28  1  0  0  0  0
 10 29  1  0  0  0  0
 11 30  1  0  0  0  0
 11 31  1  0  0  0  0
 12 13  1  0  0  0  0
 12 32  1  0  0  0  0
 13 18  1  0  0  0  0
 13 14  2  0  0  0  0
 14 15  1  0  0  0  0
 14 33  1  0  0  0  0
 15 16  2  0  0  0  0
 15 34  1  0  0  0  0
 16 17  1  0  0  0  0
 16 35  1  0  0  0  0
 17 18  2  0  0  0  0
 18 36  1  0  0  0  0
M  CHG  1   6   1
M  END
> <s_m_source_file>
AV-unprocessed.smi

> <i_m_source_file_index>
3256

> <i_lp_mmshare_version>
43012

> <i_f3d_flags>
0

> <s_epik_input>
W2NIXTFuW2NIXVtjSF1bY0hdYzFbTkhdQyg9TylbTkhdW0NIMl1bQ0gyXU4yW0NIMl1bQ0gyXU9bQ0gyXVtDSDJdMg==

> <s_epik_cmdline>
J2VwaWtfcHl0aG9uJywgJy1waCcsICc3LjAnLCAnLXRuJywgJzgnLCAnLW1hJywgJzIwMCcsICctbWV0YWxfYmluZGluZycsICctaW1hZScsICc8aW5maWxlLm1hZT4nLCAnLW9tYWUnLCAnPG91dGZpbGUubWFlPic=

> <r_epik_Ionization_Penalty>
0.606681

> <r_epik_Ionization_Penalty_Charging>
0.602531

> <r_epik_Ionization_Penalty_Neutral>
0.00415076

> <r_epik_State_Penalty>
0.607427

> <r_epik_Charging_Adjusted_Penalty>
1.20996

> <i_epik_Tot_Q>
1

> <i_epik_Tot_abs_Q>
1

> <r_epik_Metal_State_Penalty>
0.604583

> <b_epik_Metal_Only>
0

> <s_lp_Force_Field>
OPLS_2005

> <r_lp_Energy>
17.8709

> <b_lp_Chiralities_Consistent>
1

> <s_lp_Variant>
AV-unprocessed.smi:3256-2

> <Gold.Version>
5.8.1

> <Gold.Id.Protein>
6NUR|6NUR_protein|mol2

> <Gold.PLP.Fitness>
42.2238

> <Gold.PLP.PLP>
-29.2987

> <Gold.PLP.part.hbond>
-3.0000

> <Gold.PLP.part.metal>
0.0000

> <Gold.PLP.part.buried>
-6.4561

> <Gold.PLP.part.nonpolar>
-22.5030

> <Gold.PLP.part.repulsive>
1.5209

> <Gold.PLP.ligand.clash>
0.0000

> <Gold.PLP.ligand.torsion>
0.7358

> <Gold.PLP.Chemscore.Hbond>
3.9280

> <Gold.PLP.Chemscore.CHOScore>
0.8653

> <Gold.PLP.Chemscore.Metal>
0.0000

> <Gold.Chemscore.Hbonds>
donor molecule, donor type, donor heavy atom, donor atom, acceptor molecule, acceptor atom, score
      L1  H     3    19       P1  7948  1.00
      L1  H     6    37       P1  7948  2.00
      L1  H    12    32       P1  7948  0.91
      L1  C    16    35       P1 10952  0.84

> <Gold.PLP.Chemscore.Internal.Correction>
0.0167

> <Gold.Rescore>
     Score         DG    S(hbond)    S(metal)    S(lipo)     H(rot)  DE(clash)    DE(int)     intcor
     17.41     -19.62       2.89        0.00      72.18       1.54       0.01       2.20       ----

> <Gold.Chemscore.Fitness>
17.4091

> <Gold.Chemscore.DG>
-19.6214

> <Gold.Chemscore.ZeroCoef>
-5.4800

> <Gold.Chemscore.Hbond>
2.8895

> <Gold.Chemscore.Metal>
0.0000

> <Gold.Chemscore.Lipo>
72.1767

> <Gold.Chemscore.Internal_Hbond>
0.0000

> <Gold.Chemscore.DEClash>
0.0148

> <Gold.Chemscore.DEInternal>
2.1976

> <Gold.Chemscore.Rot>
1.5445

> <Gold.Chemscore.Internal.Correction>
   9.000000E+99

> <Gold.Chemscore.Hbonds>
donor molecule, donor type, donor heavy atom, donor atom, acceptor molecule, acceptor atom, score
      L1  H     3    19       P1  7948  0.95
      L1  H     6    37       P1  7948  1.00
      L1  H    12    32       P1  7948  0.85

> <Gold.Chemscore.Hbond.Weighted>
-9.6508

> <Gold.Chemscore.Metal.Weighted>
-0.0000

> <Gold.Chemscore.Lipo.Weighted>
-8.4447

> <Gold.Chemscore.Internal_Hbond.Weighted>
0.0000

> <Gold.Chemscore.DEClash.Weighted>
0.0148

> <Gold.Chemscore.DEInternal.Weighted>
2.1976

> <Gold.Chemscore.Rot.Weighted>
3.9540

> <Gold.Chemscore.Internal.Correction.Weighted>
   9.000000E+99

> <Gold.Protein.RotatedTorsions>
[ 6907 6896 6895 6894 ] final -172.44 input  -60.11 | X-H torsion
[ 7974 7965 7964 7962 ] final   16.45 input  175.53 | X-H torsion
[ 8008 7997 7996 7995 ] final   52.49 input   59.86 | X-H torsion
[ 10167 10162 10161 10158 ] final   76.44 input  -65.29 | X-H torsion
[ 10718 10713 10712 10709 ] final   51.19 input   66.30 | X-H torsion
[ 10763 10752 10751 10750 ] final   -3.98 input  -60.55 | X-H torsion
[ 11005 11000 10999 10996 ] final  115.43 input  -57.11 | X-H torsion

> <Gold.Protein.ActiveResidues>
 VAL166  LYS551  ARG553  GLY616  TRP617  ASP618  TYR619  PRO620  LYS621  CYS622 
 ASP623  PHE694  ASN695  SER759  ASP760  ASP761  ALA762  ILE779  LEU786  VAL792 
 PHE793  MET794  SER795  GLU796  ALA797  LYS798  CYS799  TRP800  GLU811  SER814 

> <Gold.Protein.RotatedAtoms>
  151.5400  133.3434  159.2933 H   0  0  0  0  0  0  0  0  0  0  0  0  # atno 6907 bound_to 6896
  150.8541  134.7878  159.7043 H   0  0  0  0  0  0  0  0  0  0  0  0  # atno 6908 bound_to 6896
  152.4579  134.5257  159.9848 H   0  0  0  0  0  0  0  0  0  0  0  0  # atno 6909 bound_to 6896
  146.2249  139.8746  142.8581 H   0  0  0  0  0  0  0  0  0  0  0  0  # atno 7974 bound_to 7965
  155.4527  140.3459  155.4303 H   0  0  0  0  0  0  0  0  0  0  0  0  # atno 8008 bound_to 7997
  156.1210  140.1487  156.9234 H   0  0  0  0  0  0  0  0  0  0  0  0  # atno 8009 bound_to 7997
  154.4823  140.0866  156.7386 H   0  0  0  0  0  0  0  0  0  0  0  0  # atno 8010 bound_to 7997
  139.9922  144.5748  150.7808 H   0  0  0  0  0  0  0  0  0  0  0  0  # atno 10167 bound_to 10162
  157.4957  130.8405  149.8255 H   0  0  0  0  0  0  0  0  0  0  0  0  # atno 10718 bound_to 10713
  153.3787  135.6997  153.6582 H   0  0  0  0  0  0  0  0  0  0  0  0  # atno 10763 bound_to 10752
  153.5202  135.3613  155.2629 H   0  0  0  0  0  0  0  0  0  0  0  0  # atno 10764 bound_to 10752
  154.8690  135.4156  154.3081 H   0  0  0  0  0  0  0  0  0  0  0  0  # atno 10765 bound_to 10752
  139.9010  134.9584  156.7044 H   0  0  0  0  0  0  0  0  0  0  0  0  # atno 11005 bound_to 11000
  145.2574  141.0065  143.3846 LP  0  0  0  0  0  0  0  0  0  0  0  0  # atno 17320 bound_to 7965
  144.9326  139.4281  143.6488 LP  0  0  0  0  0  0  0  0  0  0  0  0  # atno 17321 bound_to 7965
  140.7450  143.2869  151.3437 LP  0  0  0  0  0  0  0  0  0  0  0  0  # atno 17342 bound_to 10162
  139.6332  144.0681  152.2493 LP  0  0  0  0  0  0  0  0  0  0  0  0  # atno 17343 bound_to 10162
  156.0199  130.3799  150.1994 LP  0  0  0  0  0  0  0  0  0  0  0  0  # atno 17370 bound_to 10713
  157.0183  130.9972  151.3347 LP  0  0  0  0  0  0  0  0  0  0  0  0  # atno 17371 bound_to 10713
  140.7125  133.9211  155.8094 LP  0  0  0  0  0  0  0  0  0  0  0  0  # atno 17394 bound_to 11000
  141.0289  134.0784  157.4036 LP  0  0  0  0  0  0  0  0  0  0  0  0  # atno 17395 bound_to 11000

$$$$
