AV-unprocessed.smi:1033|AV-procd|sdf|4491|dock4
  -GOLD-   22720 2473D 1   1.00000     0.00000
 Structure written by MMmdl.
 56 58  0  0  0  0  0  0  0  0  2 V2000
  152.4054  143.2294  160.8601 C   0  0  0  0  0  0  0  0  0  0  0  0
  152.0741  142.4891  159.5761 C   0  0  0  0  0  0  0  0  0  0  0  0
  152.7755  141.3020  159.2673 C   0  0  0  0  0  0  0  0  0  0  0  0
  152.4976  140.5834  158.0841 C   0  0  0  0  0  0  0  0  0  0  0  0
  153.0568  139.4186  157.5875 N   0  0  0  0  0  0  0  0  0  0  0  0
  152.3807  139.2580  156.4541 C   0  0  0  0  0  0  0  0  0  0  0  0
  151.4541  140.1876  156.1520 N   0  0  0  0  0  0  0  0  0  0  0  0
  150.6114  140.2248  154.9708 C   0  0  0  0  0  0  0  0  0  0  0  0
  149.7399  138.9615  154.8307 C   0  0  1  0  0  0  0  0  0  0  0  0
  148.9287  139.1207  153.6843 O   0  0  0  0  0  0  0  0  0  0  0  0
  150.5586  137.6594  154.6859 C   0  0  0  0  0  0  0  0  0  0  0  0
  149.6995  136.4550  154.5622 N   0  3  0  0  0  0  0  0  0  0  0  0
  148.5790  136.4209  155.5409 C   0  0  0  0  0  0  0  0  0  0  0  0
  147.7105  135.1685  155.3096 C   0  0  0  0  0  0  0  0  0  0  0  0
  148.4664  133.9193  155.4028 N   0  0  0  0  0  0  0  0  0  0  0  0
  148.9281  133.5678  156.7522 C   0  0  0  0  0  0  0  0  0  0  0  0
  150.1544  132.6302  156.8232 C   0  0  2  0  0  0  0  0  0  0  0  0
  150.0329  131.3914  155.9190 C   0  0  0  0  0  0  0  0  0  0  0  0
  150.2635  132.1450  158.1455 O   0  0  0  0  0  0  0  0  0  0  0  0
  149.5591  133.9708  154.4312 C   0  0  0  0  0  0  0  0  0  0  0  0
  150.4832  135.1935  154.6168 C   0  0  0  0  0  0  0  0  0  0  0  0
  151.4900  141.0888  157.2112 C   0  0  0  0  0  0  0  0  0  0  0  0
  150.7851  142.2690  157.5076 C   0  0  0  0  0  0  0  0  0  0  0  0
  151.0753  142.9742  158.6942 C   0  0  0  0  0  0  0  0  0  0  0  0
  150.3075  144.2465  159.0072 C   0  0  0  0  0  0  0  0  0  0  0  0
  153.2218  142.7477  161.3988 H   0  0  0  0  0  0  0  0  0  0  0  0
  151.5379  143.2547  161.5200 H   0  0  0  0  0  0  0  0  0  0  0  0
  152.7073  144.2545  160.6447 H   0  0  0  0  0  0  0  0  0  0  0  0
  153.5358  140.9318  159.9396 H   0  0  0  0  0  0  0  0  0  0  0  0
  152.5746  138.4197  155.8008 H   0  0  0  0  0  0  0  0  0  0  0  0
  149.9818  141.1137  155.0318 H   0  0  0  0  0  0  0  0  0  0  0  0
  151.2460  140.3534  154.0929 H   0  0  0  0  0  0  0  0  0  0  0  0
  149.0832  138.9033  155.6981 H   0  0  0  0  0  0  0  0  0  0  0  0
  149.4559  139.4780  152.9855 H   0  0  0  0  0  0  0  0  0  0  0  0
  151.1989  137.7498  153.8069 H   0  0  0  0  0  0  0  0  0  0  0  0
  151.2295  137.5171  155.5337 H   0  0  0  0  0  0  0  0  0  0  0  0
  148.9693  136.4398  156.5592 H   0  0  0  0  0  0  0  0  0  0  0  0
  147.9542  137.3062  155.4312 H   0  0  0  0  0  0  0  0  0  0  0  0
  146.8647  135.1541  155.9945 H   0  0  0  0  0  0  0  0  0  0  0  0
  147.2649  135.2354  154.3160 H   0  0  0  0  0  0  0  0  0  0  0  0
  149.1962  134.5013  157.2498 H   0  0  0  0  0  0  0  0  0  0  0  0
  148.1170  133.1541  157.3510 H   0  0  0  0  0  0  0  0  0  0  0  0
  151.0701  133.1785  156.5979 H   0  0  0  0  0  0  0  0  0  0  0  0
  149.9617  131.6532  154.8651 H   0  0  0  0  0  0  0  0  0  0  0  0
  149.1486  130.8041  156.1689 H   0  0  0  0  0  0  0  0  0  0  0  0
  150.9015  130.7413  156.0298 H   0  0  0  0  0  0  0  0  0  0  0  0
  149.5456  131.5524  158.3096 H   0  0  0  0  0  0  0  0  0  0  0  0
  150.1451  133.0524  154.4817 H   0  0  0  0  0  0  0  0  0  0  0  0
  149.1385  133.9972  153.4250 H   0  0  0  0  0  0  0  0  0  0  0  0
  151.2328  135.1978  153.8247 H   0  0  0  0  0  0  0  0  0  0  0  0
  151.0264  135.1340  155.5608 H   0  0  0  0  0  0  0  0  0  0  0  0
  150.0267  142.6290  156.8283 H   0  0  0  0  0  0  0  0  0  0  0  0
  149.5540  144.4544  158.2471 H   0  0  0  0  0  0  0  0  0  0  0  0
  150.9846  145.1000  159.0506 H   0  0  0  0  0  0  0  0  0  0  0  0
  149.7977  144.1593  159.9670 H   0  0  0  0  0  0  0  0  0  0  0  0
  149.2861  136.4901  153.6411 H   0  0  0  0  0  0  0  0  0  0  0  0
  1  2  1  0  0  0  0
  1 26  1  0  0  0  0
  1 27  1  0  0  0  0
  1 28  1  0  0  0  0
  2 24  1  0  0  0  0
  2  3  2  0  0  0  0
  3  4  1  0  0  0  0
  3 29  1  0  0  0  0
  4 22  2  0  0  0  0
  4  5  1  0  0  0  0
  5  6  2  0  0  0  0
  6  7  1  0  0  0  0
  6 30  1  0  0  0  0
  7  8  1  0  0  0  0
  7 22  1  0  0  0  0
  8  9  1  0  0  0  0
  8 31  1  0  0  0  0
  8 32  1  0  0  0  0
  9 10  1  0  0  0  0
  9 11  1  0  0  0  0
  9 33  1  0  0  0  0
 10 34  1  0  0  0  0
 11 12  1  0  0  0  0
 11 35  1  0  0  0  0
 11 36  1  0  0  0  0
 12 21  1  0  0  0  0
 12 13  1  0  0  0  0
 12 56  1  0  0  0  0
 13 14  1  0  0  0  0
 13 37  1  0  0  0  0
 13 38  1  0  0  0  0
 14 15  1  0  0  0  0
 14 39  1  0  0  0  0
 14 40  1  0  0  0  0
 15 16  1  0  0  0  0
 15 20  1  0  0  0  0
 16 17  1  0  0  0  0
 16 41  1  0  0  0  0
 16 42  1  0  0  0  0
 17 18  1  0  0  0  0
 17 19  1  0  0  0  0
 17 43  1  0  0  0  0
 18 44  1  0  0  0  0
 18 45  1  0  0  0  0
 18 46  1  0  0  0  0
 19 47  1  0  0  0  0
 20 21  1  0  0  0  0
 20 48  1  0  0  0  0
 20 49  1  0  0  0  0
 21 50  1  0  0  0  0
 21 51  1  0  0  0  0
 22 23  1  0  0  0  0
 23 24  2  0  0  0  0
 23 52  1  0  0  0  0
 24 25  1  0  0  0  0
 25 53  1  0  0  0  0
 25 54  1  0  0  0  0
 25 55  1  0  0  0  0
M  CHG  1  12   1
M  END
> <s_m_source_file>
AV-unprocessed.smi

> <i_m_source_file_index>
1033

> <i_lp_mmshare_version>
43012

> <i_f3d_flags>
0

> <s_epik_input>
W0NIM11jKFtjSF0xKWMoW0NIM10pW2NIXWMoYzEyKW4oW2NIXW4yKVtDSDJdW0NASF0oW09IXSlbQ0gyXU4zW0NIMl1bQ0gyXU4oW0NIMl1bQ0gyXTMpW0NIMl1bQ0BIXShbQ0gzXSlbT0hd

> <s_epik_cmdline>
J2VwaWtfcHl0aG9uJywgJy1waCcsICc3LjAnLCAnLXRuJywgJzgnLCAnLW1hJywgJzIwMCcsICctbWV0YWxfYmluZGluZycsICctaW1hZScsICc8aW5maWxlLm1hZT4nLCAnLW9tYWUnLCAnPG91dGZpbGUubWFlPic=

> <r_epik_Ionization_Penalty>
0.131893

> <r_epik_Ionization_Penalty_Charging>
0.00208556

> <r_epik_Ionization_Penalty_Neutral>
0.129808

> <r_epik_State_Penalty>
0.452125

> <r_epik_Charging_Adjusted_Penalty>
0.454211

> <i_epik_Tot_Q>
1

> <i_epik_Tot_abs_Q>
1

> <r_epik_Metal_State_Penalty>
0.376389

> <b_epik_Metal_Only>
0

> <s_lp_Force_Field>
OPLS_2005

> <r_lp_Energy>
35.7629

> <b_lp_Chiralities_Consistent>
1

> <s_lp_Variant>
AV-unprocessed.smi:1033-2

> <Gold.Version>
5.8.1

> <Gold.Id.Protein>
6NUR|6NUR_protein|mol2

> <Gold.PLP.Fitness>
54.8223

> <Gold.PLP.PLP>
-40.6877

> <Gold.PLP.part.hbond>
-4.0000

> <Gold.PLP.part.metal>
0.0000

> <Gold.PLP.part.buried>
-1.4734

> <Gold.PLP.part.nonpolar>
-34.8461

> <Gold.PLP.part.repulsive>
0.0656

> <Gold.PLP.ligand.clash>
0.0000

> <Gold.PLP.ligand.torsion>
0.4503

> <Gold.PLP.Chemscore.Hbond>
4.9920

> <Gold.PLP.Chemscore.CHOScore>
0.0000

> <Gold.PLP.Chemscore.Metal>
0.0000

> <Gold.Chemscore.Hbonds>
donor molecule, donor type, donor heavy atom, donor atom, acceptor molecule, acceptor atom, score
      L1  H    10    34       P1  7957  0.99
      L1  H    12    56       P1  7948  2.00
      P1  H  6896  6909       L1    19  1.00
      P1  H  7997  8008       L1     5  1.00

> <Gold.PLP.Chemscore.Internal.Correction>
0.0592

> <Gold.Rescore>
     Score         DG    S(hbond)    S(metal)    S(lipo)     H(rot)  DE(clash)    DE(int)     intcor
     20.47     -21.97       3.39        0.00     111.31       3.07       0.11       1.39       ----

> <Gold.Chemscore.Fitness>
20.4725

> <Gold.Chemscore.DG>
-21.9729

> <Gold.Chemscore.ZeroCoef>
-5.4800

> <Gold.Chemscore.Hbond>
3.3879

> <Gold.Chemscore.Metal>
0.0000

> <Gold.Chemscore.Lipo>
111.3137

> <Gold.Chemscore.Internal_Hbond>
0.0000

> <Gold.Chemscore.DEClash>
0.1079

> <Gold.Chemscore.DEInternal>
1.3925

> <Gold.Chemscore.Rot>
3.0650

> <Gold.Chemscore.Internal.Correction>
   9.000000E+99

> <Gold.Chemscore.Hbonds>
donor molecule, donor type, donor heavy atom, donor atom, acceptor molecule, acceptor atom, score
      L1  H    10    34       P1  7957  0.93
      L1  H    12    56       P1  7948  0.92
      P1  H  6896  6909       L1    19  0.58
      P1  H  7997  8008       L1     5  0.08

> <Gold.Chemscore.Hbond.Weighted>
-11.3156

> <Gold.Chemscore.Metal.Weighted>
-0.0000

> <Gold.Chemscore.Lipo.Weighted>
-13.0237

> <Gold.Chemscore.Internal_Hbond.Weighted>
0.0000

> <Gold.Chemscore.DEClash.Weighted>
0.1079

> <Gold.Chemscore.DEInternal.Weighted>
1.3925

> <Gold.Chemscore.Rot.Weighted>
7.8465

> <Gold.Chemscore.Internal.Correction.Weighted>
   9.000000E+99

> <Gold.Protein.RotatedTorsions>
[ 6907 6896 6895 6894 ] final   -9.05 input  -60.11 | X-H torsion
[ 7974 7965 7964 7962 ] final  -75.28 input  175.53 | X-H torsion
[ 8008 7997 7996 7995 ] final  -84.83 input   59.86 | X-H torsion
[ 10167 10162 10161 10158 ] final  -55.04 input  -65.29 | X-H torsion
[ 10718 10713 10712 10709 ] final   45.04 input   66.30 | X-H torsion
[ 10763 10752 10751 10750 ] final   28.50 input  -60.55 | X-H torsion
[ 11005 11000 10999 10996 ] final  119.72 input  -57.11 | X-H torsion

> <Gold.Protein.ActiveResidues>
 VAL166  LYS551  ARG553  GLY616  TRP617  ASP618  TYR619  PRO620  LYS621  CYS622 
 ASP623  PHE694  ASN695  SER759  ASP760  ASP761  ALA762  ILE779  LEU786  VAL792 
 PHE793  MET794  SER795  GLU796  ALA797  LYS798  CYS799  TRP800  GLU811  SER814 

> <Gold.Protein.RotatedAtoms>
  151.4239  135.1001  159.9621 H   0  0  0  0  0  0  0  0  0  0  0  0  # atno 6907 bound_to 6896
  152.4979  133.8681  159.7295 H   0  0  0  0  0  0  0  0  0  0  0  0  # atno 6908 bound_to 6896
  150.9203  133.6830  159.2861 H   0  0  0  0  0  0  0  0  0  0  0  0  # atno 6909 bound_to 6896
  145.6281  140.9345  143.1102 H   0  0  0  0  0  0  0  0  0  0  0  0  # atno 7974 bound_to 7965
  154.6340  140.0600  156.9767 H   0  0  0  0  0  0  0  0  0  0  0  0  # atno 8008 bound_to 7997
  155.1620  140.3283  155.4391 H   0  0  0  0  0  0  0  0  0  0  0  0  # atno 8009 bound_to 7997
  156.2498  140.1929  156.6727 H   0  0  0  0  0  0  0  0  0  0  0  0  # atno 8010 bound_to 7997
  140.6397  143.2501  151.5023 H   0  0  0  0  0  0  0  0  0  0  0  0  # atno 10167 bound_to 10162
  157.4333  130.8038  149.7624 H   0  0  0  0  0  0  0  0  0  0  0  0  # atno 10718 bound_to 10713
  153.0488  135.6512  154.0747 H   0  0  0  0  0  0  0  0  0  0  0  0  # atno 10763 bound_to 10752
  154.0440  135.2901  155.3352 H   0  0  0  0  0  0  0  0  0  0  0  0  # atno 10764 bound_to 10752
  154.6763  135.5337  153.8270 H   0  0  0  0  0  0  0  0  0  0  0  0  # atno 10765 bound_to 10752
  139.9157  134.9630  156.7698 H   0  0  0  0  0  0  0  0  0  0  0  0  # atno 11005 bound_to 11000
  144.7204  139.8049  143.7384 LP  0  0  0  0  0  0  0  0  0  0  0  0  # atno 17320 bound_to 7965
  146.1378  139.4428  143.0128 LP  0  0  0  0  0  0  0  0  0  0  0  0  # atno 17321 bound_to 7965
  139.5606  144.2166  152.1685 LP  0  0  0  0  0  0  0  0  0  0  0  0  # atno 17342 bound_to 10162
  140.1432  144.5182  150.6731 LP  0  0  0  0  0  0  0  0  0  0  0  0  # atno 17343 bound_to 10162
  155.9921  130.3933  150.2955 LP  0  0  0  0  0  0  0  0  0  0  0  0  # atno 17370 bound_to 10713
  157.1114  131.0222  151.3046 LP  0  0  0  0  0  0  0  0  0  0  0  0  # atno 17371 bound_to 10713
  140.6630  133.9628  155.7815 LP  0  0  0  0  0  0  0  0  0  0  0  0  # atno 17394 bound_to 11000
  141.0630  134.0318  157.3632 LP  0  0  0  0  0  0  0  0  0  0  0  0  # atno 17395 bound_to 11000

$$$$
