AV-unprocessed.smi:3314|AV-procd|sdf|12731|dock2
  -GOLD-   2272019 73D 1   1.00000     0.00000
 Structure written by MMmdl.
 38 39  0  0  0  0  0  0  0  0  2 V2000
  151.5435  145.4980  159.7984 C   0  0  0  0  0  0  0  0  0  0  0  0
  151.8162  144.0202  159.6126 C   0  0  0  0  0  0  0  0  0  0  0  0
  152.6017  143.3071  160.5382 C   0  0  0  0  0  0  0  0  0  0  0  0
  152.8184  141.9343  160.3081 C   0  0  0  0  0  0  0  0  0  0  0  0
  153.6527  141.1057  161.2622 C   0  0  0  0  0  0  0  0  0  0  0  0
  152.3084  141.2763  159.2448 N   0  0  0  0  0  0  0  0  0  0  0  0
  151.5503  141.9533  158.3471 C   0  0  0  0  0  0  0  0  0  0  0  0
  150.9704  141.3559  157.1971 N   0  0  0  0  0  0  0  0  0  0  0  0
  151.4989  140.4212  156.3835 C   0  0  0  0  0  0  0  0  0  0  0  0
  152.6068  139.9078  156.5438 O   0  0  0  0  0  0  0  0  0  0  0  0
  150.6128  139.9799  155.2087 C   0  0  2  0  0  0  0  0  0  0  0  0
  149.4151  140.9297  154.9702 C   0  0  0  0  0  0  0  0  0  0  0  0
  148.5513  140.4172  153.8820 N   0  3  2  0  0  0  0  0  0  0  0  0
  147.4106  141.3115  153.5898 C   0  0  0  0  0  0  0  0  0  0  0  0
  148.1299  139.0244  154.1516 C   0  0  0  0  0  0  0  0  0  0  0  0
  149.3595  138.1370  154.3998 C   0  0  0  0  0  0  0  0  0  0  0  0
  150.1185  138.6686  155.4784 O   0  0  0  0  0  0  0  0  0  0  0  0
  151.2848  143.3321  158.5033 C   0  0  0  0  0  0  0  0  0  0  0  0
  152.0285  145.8813  160.6965 H   0  0  0  0  0  0  0  0  0  0  0  0
  150.4716  145.6758  159.8870 H   0  0  0  0  0  0  0  0  0  0  0  0
  151.9165  146.0614  158.9430 H   0  0  0  0  0  0  0  0  0  0  0  0
  153.0271  143.7987  161.4010 H   0  0  0  0  0  0  0  0  0  0  0  0
  154.0522  141.7169  162.0723 H   0  0  0  0  0  0  0  0  0  0  0  0
  154.4911  140.6487  160.7355 H   0  0  0  0  0  0  0  0  0  0  0  0
  153.0484  140.3114  161.7013 H   0  0  0  0  0  0  0  0  0  0  0  0
  150.0467  141.6851  156.9570 H   0  0  0  0  0  0  0  0  0  0  0  0
  151.2424  139.9497  154.3177 H   0  0  0  0  0  0  0  0  0  0  0  0
  148.8246  141.0344  155.8825 H   0  0  0  0  0  0  0  0  0  0  0  0
  149.7709  141.9254  154.7012 H   0  0  0  0  0  0  0  0  0  0  0  0
  146.7401  141.3855  154.4470 H   0  0  0  0  0  0  0  0  0  0  0  0
  146.8390  140.9390  152.7392 H   0  0  0  0  0  0  0  0  0  0  0  0
  147.7611  142.3140  153.3422 H   0  0  0  0  0  0  0  0  0  0  0  0
  147.4718  139.0013  155.0218 H   0  0  0  0  0  0  0  0  0  0  0  0
  147.5586  138.6404  153.3054 H   0  0  0  0  0  0  0  0  0  0  0  0
  149.0466  137.1243  154.6543 H   0  0  0  0  0  0  0  0  0  0  0  0
  149.9777  138.0642  153.5036 H   0  0  0  0  0  0  0  0  0  0  0  0
  150.6793  143.8608  157.7810 H   0  0  0  0  0  0  0  0  0  0  0  0
  149.1205  140.3924  153.0478 H   0  0  0  0  0  0  0  0  0  0  0  0
  1  2  1  0  0  0  0
  1 19  1  0  0  0  0
  1 20  1  0  0  0  0
  1 21  1  0  0  0  0
  2 18  1  0  0  0  0
  2  3  2  0  0  0  0
  3  4  1  0  0  0  0
  3 22  1  0  0  0  0
  4  5  1  0  0  0  0
  4  6  2  0  0  0  0
  5 23  1  0  0  0  0
  5 24  1  0  0  0  0
  5 25  1  0  0  0  0
  6  7  1  0  0  0  0
  7  8  1  0  0  0  0
  7 18  2  0  0  0  0
  8  9  1  0  0  0  0
  8 26  1  0  0  0  0
  9 10  2  0  0  0  0
  9 11  1  0  0  0  0
 11 17  1  0  0  0  0
 11 12  1  0  0  0  0
 11 27  1  0  0  0  0
 12 13  1  0  0  0  0
 12 28  1  0  0  0  0
 12 29  1  0  0  0  0
 13 14  1  0  0  0  0
 13 15  1  0  0  0  0
 13 38  1  0  0  0  0
 14 30  1  0  0  0  0
 14 31  1  0  0  0  0
 14 32  1  0  0  0  0
 15 16  1  0  0  0  0
 15 33  1  0  0  0  0
 15 34  1  0  0  0  0
 16 17  1  0  0  0  0
 16 35  1  0  0  0  0
 16 36  1  0  0  0  0
 18 37  1  0  0  0  0
M  CHG  1  13   1
M  END
> <s_m_source_file>
AV-unprocessed.smi

> <i_m_source_file_index>
3314

> <i_lp_mmshare_version>
43012

> <i_f3d_flags>
0

> <s_epik_input>
W0NIM11jMVtjSF1jKFtDSDNdKW5jKFtjSF0xKVtOSF1DKD1PKVtDQEBIXTJbQ0gyXU4oW0NIM10pW0NIMl1bQ0gyXU8y

> <s_epik_cmdline>
J2VwaWtfcHl0aG9uJywgJy1waCcsICc3LjAnLCAnLXRuJywgJzgnLCAnLW1hJywgJzIwMCcsICctbWV0YWxfYmluZGluZycsICctaW1hZScsICc8aW5maWxlLm1hZT4nLCAnLW9tYWUnLCAnPG91dGZpbGUubWFlPic=

> <r_epik_Ionization_Penalty>
0.32442

> <r_epik_Ionization_Penalty_Charging>
0.314023

> <r_epik_Ionization_Penalty_Neutral>
0.0103972

> <r_epik_State_Penalty>
0.29453

> <r_epik_Charging_Adjusted_Penalty>
0.608553

> <i_epik_Tot_Q>
1

> <i_epik_Tot_abs_Q>
1

> <r_epik_Metal_State_Penalty>
0.286909

> <b_epik_Metal_Only>
0

> <s_lp_Force_Field>
OPLS_2005

> <r_lp_Energy>
16.487

> <b_lp_Chiralities_Consistent>
1

> <s_lp_Variant>
AV-unprocessed.smi:3314-1

> <Gold.Version>
5.8.1

> <Gold.Id.Protein>
6NUR|6NUR_protein|mol2

> <Gold.PLP.Fitness>
45.2233

> <Gold.PLP.PLP>
-40.4038

> <Gold.PLP.part.hbond>
-2.0000

> <Gold.PLP.part.metal>
0.0000

> <Gold.PLP.part.buried>
-2.3778

> <Gold.PLP.part.nonpolar>
-35.2987

> <Gold.PLP.part.repulsive>
0.2630

> <Gold.PLP.ligand.clash>
0.0183

> <Gold.PLP.ligand.torsion>
0.5823

> <Gold.PLP.Chemscore.Hbond>
2.0000

> <Gold.PLP.Chemscore.CHOScore>
0.0000

> <Gold.PLP.Chemscore.Metal>
0.0000

> <Gold.Chemscore.Hbonds>
donor molecule, donor type, donor heavy atom, donor atom, acceptor molecule, acceptor atom, score
      L1  H    13    38       P1  7957  1.00
      P1  H  7997  8010       L1    10  1.00

> <Gold.PLP.Chemscore.Internal.Correction>
0.0024

> <Gold.Rescore>
     Score         DG    S(hbond)    S(metal)    S(lipo)     H(rot)  DE(clash)    DE(int)     intcor
     19.43     -21.03       2.00        0.00      97.76       1.00       0.05       1.56       ----

> <Gold.Chemscore.Fitness>
19.4283

> <Gold.Chemscore.DG>
-21.0294

> <Gold.Chemscore.ZeroCoef>
-5.4800

> <Gold.Chemscore.Hbond>
1.9974

> <Gold.Chemscore.Metal>
0.0000

> <Gold.Chemscore.Lipo>
97.7616

> <Gold.Chemscore.Internal_Hbond>
0.0000

> <Gold.Chemscore.DEClash>
0.0460

> <Gold.Chemscore.DEInternal>
1.5551

> <Gold.Chemscore.Rot>
1.0000

> <Gold.Chemscore.Internal.Correction>
   9.000000E+99

> <Gold.Chemscore.Hbonds>
donor molecule, donor type, donor heavy atom, donor atom, acceptor molecule, acceptor atom, score
      L1  H    13    38       P1  7957  0.97
      P1  H  7997  8010       L1    10  1.00

> <Gold.Chemscore.Hbond.Weighted>
-6.6713

> <Gold.Chemscore.Metal.Weighted>
-0.0000

> <Gold.Chemscore.Lipo.Weighted>
-11.4381

> <Gold.Chemscore.Internal_Hbond.Weighted>
0.0000

> <Gold.Chemscore.DEClash.Weighted>
0.0460

> <Gold.Chemscore.DEInternal.Weighted>
1.5551

> <Gold.Chemscore.Rot.Weighted>
2.5600

> <Gold.Chemscore.Internal.Correction.Weighted>
   9.000000E+99

> <Gold.Protein.RotatedTorsions>
[ 6907 6896 6895 6894 ] final  -51.53 input  -60.11 | X-H torsion
[ 7974 7965 7964 7962 ] final   57.38 input  175.53 | X-H torsion
[ 8008 7997 7996 7995 ] final   74.05 input   59.86 | X-H torsion
[ 10167 10162 10161 10158 ] final -153.94 input  -65.29 | X-H torsion
[ 10718 10713 10712 10709 ] final   61.37 input   66.30 | X-H torsion
[ 10763 10752 10751 10750 ] final   41.80 input  -60.55 | X-H torsion
[ 11005 11000 10999 10996 ] final  162.67 input  -57.11 | X-H torsion

> <Gold.Protein.ActiveResidues>
 VAL166  LYS551  ARG553  GLY616  TRP617  ASP618  TYR619  PRO620  LYS621  CYS622 
 ASP623  PHE694  ASN695  SER759  ASP760  ASP761  ALA762  ILE779  LEU786  VAL792 
 PHE793  MET794  SER795  GLU796  ALA797  LYS798  CYS799  TRP800  GLU811  SER814 

> <Gold.Protein.RotatedAtoms>
  150.8603  134.7952  159.7076 H   0  0  0  0  0  0  0  0  0  0  0  0  # atno 6907 bound_to 6896
  152.4642  134.5112  159.9764 H   0  0  0  0  0  0  0  0  0  0  0  0  # atno 6908 bound_to 6896
  151.5217  133.3427  159.2938 H   0  0  0  0  0  0  0  0  0  0  0  0  # atno 6909 bound_to 6896
  145.9297  139.3797  143.0428 H   0  0  0  0  0  0  0  0  0  0  0  0  # atno 7974 bound_to 7965
  155.7927  140.3479  155.5358 H   0  0  0  0  0  0  0  0  0  0  0  0  # atno 8008 bound_to 7997
  155.8617  140.0972  157.1629 H   0  0  0  0  0  0  0  0  0  0  0  0  # atno 8009 bound_to 7997
  154.4012  140.1357  156.3957 H   0  0  0  0  0  0  0  0  0  0  0  0  # atno 8010 bound_to 7997
  139.7055  143.9194  152.2447 H   0  0  0  0  0  0  0  0  0  0  0  0  # atno 10167 bound_to 10162
  157.5823  130.8991  149.9453 H   0  0  0  0  0  0  0  0  0  0  0  0  # atno 10718 bound_to 10713
  152.9899  135.6151  154.2846 H   0  0  0  0  0  0  0  0  0  0  0  0  # atno 10763 bound_to 10752
  154.2574  135.2783  155.2794 H   0  0  0  0  0  0  0  0  0  0  0  0  # atno 10764 bound_to 10752
  154.5235  135.5808  153.6758 H   0  0  0  0  0  0  0  0  0  0  0  0  # atno 10765 bound_to 10752
  140.2281  134.8145  157.3289 H   0  0  0  0  0  0  0  0  0  0  0  0  # atno 11005 bound_to 11000
  145.8442  140.9564  143.0783 LP  0  0  0  0  0  0  0  0  0  0  0  0  # atno 17320 bound_to 7965
  144.6763  140.0323  143.7482 LP  0  0  0  0  0  0  0  0  0  0  0  0  # atno 17321 bound_to 7965
  139.9048  144.6891  150.8626 LP  0  0  0  0  0  0  0  0  0  0  0  0  # atno 17342 bound_to 10162
  140.7720  143.3487  151.2059 LP  0  0  0  0  0  0  0  0  0  0  0  0  # atno 17343 bound_to 10162
  156.0870  130.3667  150.0469 LP  0  0  0  0  0  0  0  0  0  0  0  0  # atno 17370 bound_to 10713
  156.8606  130.9490  151.3618 LP  0  0  0  0  0  0  0  0  0  0  0  0  # atno 17371 bound_to 10713
  140.1779  134.4526  155.7790 LP  0  0  0  0  0  0  0  0  0  0  0  0  # atno 17394 bound_to 11000
  141.2219  133.6970  156.7819 LP  0  0  0  0  0  0  0  0  0  0  0  0  # atno 17395 bound_to 11000

$$$$
