AV-unprocessed.smi:942|AV-procd|sdf|4228|dock7
  -GOLD-   22720 2133D 1   1.00000     0.00000
 Structure written by MMmdl.
 42 44  0  0  0  0  0  0  0  0  1 V2000
  150.0290  142.8788  157.9534 O   0  0  0  0  0  0  0  0  0  0  0  0
  151.0167  142.5210  157.3113 C   0  0  0  0  0  0  0  0  0  0  0  0
  152.2716  142.8636  157.6398 N   0  0  0  0  0  0  0  0  0  0  0  0
  152.6483  143.7071  158.7705 C   0  0  1  0  0  0  0  0  0  0  0  0
  152.0961  145.1401  158.6181 C   0  0  0  0  0  0  0  0  0  0  0  0
  151.0297  145.3082  159.7026 C   0  0  0  0  0  0  0  0  0  0  0  0
  151.4821  144.3780  160.8236 C   0  0  0  0  0  0  0  0  0  0  0  0
  152.0396  143.1590  160.0804 C   0  0  2  0  0  0  0  0  0  0  0  0
  152.9782  142.3801  160.8729 N   0  0  0  0  0  0  0  0  0  0  0  0
  153.7044  141.2623  160.4775 C   0  0  0  0  0  0  0  0  0  0  0  0
  154.4493  140.8692  161.5661 C   0  0  0  0  0  0  0  0  0  0  0  0
  154.1982  141.7222  162.6378 N   0  0  0  0  0  0  0  0  0  0  0  0
  153.3180  142.5886  162.1528 C   0  0  0  0  0  0  0  0  0  0  0  0
  150.8566  141.6386  156.0663 C   0  0  0  0  0  0  0  0  0  0  0  0
  149.3669  141.4039  155.7371 C   0  0  0  0  0  0  0  0  0  0  0  0
  149.2046  140.5201  154.4893 C   0  0  0  0  0  0  0  0  0  0  0  0
  149.9449  139.1828  154.6524 C   0  0  0  0  0  0  0  0  0  0  0  0
  151.4264  139.4037  154.9972 C   0  0  0  0  0  0  0  0  0  0  0  0
  151.5831  140.2889  156.2448 C   0  0  0  0  0  0  0  0  0  0  0  0
  153.0223  142.5201  157.0583 H   0  0  0  0  0  0  0  0  0  0  0  0
  153.7369  143.7534  158.8411 H   0  0  0  0  0  0  0  0  0  0  0  0
  152.9026  145.8531  158.7932 H   0  0  0  0  0  0  0  0  0  0  0  0
  151.6976  145.3500  157.6245 H   0  0  0  0  0  0  0  0  0  0  0  0
  150.9244  146.3426  160.0311 H   0  0  0  0  0  0  0  0  0  0  0  0
  150.0623  144.9788  159.3207 H   0  0  0  0  0  0  0  0  0  0  0  0
  152.2613  144.8703  161.4071 H   0  0  0  0  0  0  0  0  0  0  0  0
  150.6711  144.1175  161.5044 H   0  0  0  0  0  0  0  0  0  0  0  0
  151.1901  142.5166  159.8391 H   0  0  0  0  0  0  0  0  0  0  0  0
  153.6326  140.8493  159.4821 H   0  0  0  0  0  0  0  0  0  0  0  0
  155.1397  140.0440  161.6603 H   0  0  0  0  0  0  0  0  0  0  0  0
  152.9110  143.3953  162.7448 H   0  0  0  0  0  0  0  0  0  0  0  0
  151.3110  142.1579  155.2204 H   0  0  0  0  0  0  0  0  0  0  0  0
  148.8643  140.9279  156.5808 H   0  0  0  0  0  0  0  0  0  0  0  0
  148.8626  142.3575  155.5761 H   0  0  0  0  0  0  0  0  0  0  0  0
  148.1468  140.3383  154.2976 H   0  0  0  0  0  0  0  0  0  0  0  0
  149.5908  141.0474  153.6160 H   0  0  0  0  0  0  0  0  0  0  0  0
  149.4702  138.5969  155.4405 H   0  0  0  0  0  0  0  0  0  0  0  0
  149.8597  138.5966  153.7371 H   0  0  0  0  0  0  0  0  0  0  0  0
  151.9177  138.4436  155.1576 H   0  0  0  0  0  0  0  0  0  0  0  0
  151.9323  139.8719  154.1518 H   0  0  0  0  0  0  0  0  0  0  0  0
  152.6430  140.4558  156.4417 H   0  0  0  0  0  0  0  0  0  0  0  0
  151.1875  139.7591  157.1132 H   0  0  0  0  0  0  0  0  0  0  0  0
  1  2  2  0  0  0  0
  2  3  1  0  0  0  0
  2 14  1  0  0  0  0
  3  4  1  0  0  0  0
  3 20  1  0  0  0  0
  4  8  1  0  0  0  0
  4  5  1  0  0  0  0
  4 21  1  0  0  0  0
  5  6  1  0  0  0  0
  5 22  1  0  0  0  0
  5 23  1  0  0  0  0
  6  7  1  0  0  0  0
  6 24  1  0  0  0  0
  6 25  1  0  0  0  0
  7  8  1  0  0  0  0
  7 26  1  0  0  0  0
  7 27  1  0  0  0  0
  8  9  1  0  0  0  0
  8 28  1  0  0  0  0
  9 13  1  0  0  0  0
  9 10  1  0  0  0  0
 10 11  2  0  0  0  0
 10 29  1  0  0  0  0
 11 12  1  0  0  0  0
 11 30  1  0  0  0  0
 12 13  2  0  0  0  0
 13 31  1  0  0  0  0
 14 19  1  0  0  0  0
 14 15  1  0  0  0  0
 14 32  1  0  0  0  0
 15 16  1  0  0  0  0
 15 33  1  0  0  0  0
 15 34  1  0  0  0  0
 16 17  1  0  0  0  0
 16 35  1  0  0  0  0
 16 36  1  0  0  0  0
 17 18  1  0  0  0  0
 17 37  1  0  0  0  0
 17 38  1  0  0  0  0
 18 19  1  0  0  0  0
 18 39  1  0  0  0  0
 18 40  1  0  0  0  0
 19 41  1  0  0  0  0
 19 42  1  0  0  0  0
M  END
> <s_m_source_file>
AV-unprocessed.smi

> <i_m_source_file_index>
942

> <i_lp_mmshare_version>
43012

> <i_f3d_flags>
0

> <s_epik_input>
W0NIMl0xW0NIMl1bQ0gyXVtDSDJdW0NIMl1bQ0hdMUMoPU8pW05IXVtDQEBIXTJbQ0gyXVtDSDJdW0NIMl1bQ0BIXTJuM1tjSF1bY0hdbltjSF0z

> <s_epik_cmdline>
J2VwaWtfcHl0aG9uJywgJy1waCcsICc3LjAnLCAnLXRuJywgJzgnLCAnLW1hJywgJzIwMCcsICctbWV0YWxfYmluZGluZycsICctaW1hZScsICc8aW5maWxlLm1hZT4nLCAnLW9tYWUnLCAnPG91dGZpbGUubWFlPic=

> <r_lp_tautomer_probability>
1

> <r_epik_Ionization_Penalty>
0.778458

> <r_epik_Ionization_Penalty_Charging>
0.778458

> <r_epik_Ionization_Penalty_Neutral>
2.79355e-08

> <r_epik_State_Penalty>
0.807804

> <r_epik_Charging_Adjusted_Penalty>
1.58626

> <i_epik_Tot_Q>
0

> <i_epik_Tot_abs_Q>
0

> <r_epik_Metal_State_Penalty>
0.343007

> <b_epik_Metal_Only>
0

> <s_lp_Force_Field>
OPLS_2005

> <r_lp_Energy>
31.6658

> <b_lp_Chiralities_Consistent>
1

> <s_lp_Variant>
AV-unprocessed.smi:942-8

> <Gold.Version>
5.8.1

> <Gold.Id.Protein>
6NUR|6NUR_protein|mol2

> <Gold.PLP.Fitness>
49.9798

> <Gold.PLP.PLP>
-50.1182

> <Gold.PLP.part.hbond>
-1.0000

> <Gold.PLP.part.metal>
0.0000

> <Gold.PLP.part.buried>
-0.5690

> <Gold.PLP.part.nonpolar>
-47.7247

> <Gold.PLP.part.repulsive>
0.2139

> <Gold.PLP.ligand.clash>
0.0000

> <Gold.PLP.ligand.torsion>
0.0769

> <Gold.PLP.Chemscore.Hbond>
0.0000

> <Gold.PLP.Chemscore.CHOScore>
0.0000

> <Gold.PLP.Chemscore.Metal>
0.0000

> <Gold.PLP.Chemscore.Internal.Correction>
0.0155

> <Gold.Rescore>
     Score         DG    S(hbond)    S(metal)    S(lipo)     H(rot)  DE(clash)    DE(int)     intcor
     13.22     -15.91       0.00        0.00     120.63       1.44       1.34       1.36       ----

> <Gold.Chemscore.Fitness>
13.2151

> <Gold.Chemscore.DG>
-15.9086

> <Gold.Chemscore.ZeroCoef>
-5.4800

> <Gold.Chemscore.Hbond>
0.0000

> <Gold.Chemscore.Metal>
0.0000

> <Gold.Chemscore.Lipo>
120.6310

> <Gold.Chemscore.Internal_Hbond>
0.0000

> <Gold.Chemscore.DEClash>
1.3359

> <Gold.Chemscore.DEInternal>
1.3576

> <Gold.Chemscore.Rot>
1.4395

> <Gold.Chemscore.Internal.Correction>
   9.000000E+99

> <Gold.Chemscore.Hbond.Weighted>
-0.0000

> <Gold.Chemscore.Metal.Weighted>
-0.0000

> <Gold.Chemscore.Lipo.Weighted>
-14.1138

> <Gold.Chemscore.Internal_Hbond.Weighted>
0.0000

> <Gold.Chemscore.DEClash.Weighted>
1.3359

> <Gold.Chemscore.DEInternal.Weighted>
1.3576

> <Gold.Chemscore.Rot.Weighted>
3.6852

> <Gold.Chemscore.Internal.Correction.Weighted>
   9.000000E+99

> <Gold.Protein.RotatedTorsions>
[ 6907 6896 6895 6894 ] final  -54.14 input  -60.11 | X-H torsion
[ 7974 7965 7964 7962 ] final  -86.84 input  175.53 | X-H torsion
[ 8008 7997 7996 7995 ] final -128.40 input   59.86 | X-H torsion
[ 10167 10162 10161 10158 ] final -139.31 input  -65.29 | X-H torsion
[ 10718 10713 10712 10709 ] final  173.63 input   66.30 | X-H torsion
[ 10763 10752 10751 10750 ] final  -11.61 input  -60.55 | X-H torsion
[ 11005 11000 10999 10996 ] final -156.33 input  -57.11 | X-H torsion

> <Gold.Protein.ActiveResidues>
 VAL166  LYS551  ARG553  GLY616  TRP617  ASP618  TYR619  PRO620  LYS621  CYS622 
 ASP623  PHE694  ASN695  SER759  ASP760  ASP761  ALA762  ILE779  LEU786  VAL792 
 PHE793  MET794  SER795  GLU796  ALA797  LYS798  CYS799  TRP800  GLU811  SER814 

> <Gold.Protein.RotatedAtoms>
  150.8364  134.7639  159.6896 H   0  0  0  0  0  0  0  0  0  0  0  0  # atno 6907 bound_to 6896
  152.4460  134.5490  159.9871 H   0  0  0  0  0  0  0  0  0  0  0  0  # atno 6908 bound_to 6896
  151.5639  133.3361  159.3012 H   0  0  0  0  0  0  0  0  0  0  0  0  # atno 6909 bound_to 6896
  145.4745  140.9559  143.1899 H   0  0  0  0  0  0  0  0  0  0  0  0  # atno 7974 bound_to 7965
  155.2621  140.0436  157.2998 H   0  0  0  0  0  0  0  0  0  0  0  0  # atno 8008 bound_to 7997
  154.5704  140.2372  155.8169 H   0  0  0  0  0  0  0  0  0  0  0  0  # atno 8009 bound_to 7997
  156.2118  140.2996  155.9758 H   0  0  0  0  0  0  0  0  0  0  0  0  # atno 8010 bound_to 7997
  139.8392  143.7344  152.2664 H   0  0  0  0  0  0  0  0  0  0  0  0  # atno 10167 bound_to 10162
  156.9614  131.0062  151.2926 H   0  0  0  0  0  0  0  0  0  0  0  0  # atno 10718 bound_to 10713
  153.4863  135.7017  153.5909 H   0  0  0  0  0  0  0  0  0  0  0  0  # atno 10763 bound_to 10752
  153.4101  135.3850  155.2045 H   0  0  0  0  0  0  0  0  0  0  0  0  # atno 10764 bound_to 10752
  154.8719  135.3902  154.4318 H   0  0  0  0  0  0  0  0  0  0  0  0  # atno 10765 bound_to 10752
  140.6768  134.4188  157.5229 H   0  0  0  0  0  0  0  0  0  0  0  0  # atno 11005 bound_to 11000
  144.7925  139.6299  143.7107 LP  0  0  0  0  0  0  0  0  0  0  0  0  # atno 17320 bound_to 7965
  146.2377  139.5939  142.9512 LP  0  0  0  0  0  0  0  0  0  0  0  0  # atno 17321 bound_to 7965
  139.7576  144.7516  151.0412 LP  0  0  0  0  0  0  0  0  0  0  0  0  # atno 17342 bound_to 10162
  140.7799  143.4788  151.0046 LP  0  0  0  0  0  0  0  0  0  0  0  0  # atno 17343 bound_to 10162
  157.5655  130.8275  149.8322 LP  0  0  0  0  0  0  0  0  0  0  0  0  # atno 17370 bound_to 10713
  156.0320  130.3762  150.1661 LP  0  0  0  0  0  0  0  0  0  0  0  0  # atno 17371 bound_to 10713
  139.8964  134.8660  156.2088 LP  0  0  0  0  0  0  0  0  0  0  0  0  # atno 17394 bound_to 11000
  141.0349  133.6968  156.1495 LP  0  0  0  0  0  0  0  0  0  0  0  0  # atno 17395 bound_to 11000

$$$$
