AV-unprocessed.smi:2438|AV-procd|sdf|9598|dock3
  -GOLD-   2272013233D 1   1.00000     0.00000
 Structure written by MMmdl.
 43 44  0  0  0  0  0  0  0  0  1 V2000
  142.0294  135.3466  153.7987 C   0  0  0  0  0  0  0  0  0  0  0  0
  143.0083  136.3236  153.3422 N   0  0  0  0  0  0  0  0  0  0  0  0
  142.5086  137.6738  153.1133 C   0  0  0  0  0  0  0  0  0  0  0  0
  143.8947  135.8127  152.3728 C   0  0  0  0  0  0  0  0  0  0  0  0
  143.5341  134.6850  151.7134 N   0  0  0  0  0  0  0  0  0  0  0  0
  144.3874  134.1969  150.8119 C   0  0  0  0  0  0  0  0  0  0  0  0
  145.5720  134.7080  150.4777 N   0  0  0  0  0  0  0  0  0  0  0  0
  145.9513  135.8322  151.1199 C   0  0  0  0  0  0  0  0  0  0  0  0
  145.1398  136.4417  152.1086 C   0  0  0  0  0  0  0  0  0  0  0  0
  145.4897  137.6506  152.7713 N   0  0  0  0  0  0  0  0  0  0  0  0
  146.3041  138.6241  152.3339 C   0  0  0  0  0  0  0  0  0  0  0  0
  146.8429  138.6564  151.2278 O   0  0  0  0  0  0  0  0  0  0  0  0
  146.4847  139.5602  153.2756 N   0  0  0  0  0  0  0  0  0  0  0  0
  147.3633  140.7230  153.1598 C   0  0  1  0  0  0  0  0  0  0  0  0
  146.6797  141.9685  153.7553 C   0  0  0  0  0  0  0  0  0  0  0  0
  146.5711  141.8927  155.2881 C   0  0  0  0  0  0  0  0  0  0  0  0
  147.9422  141.6440  155.9369 C   0  0  0  0  0  0  0  0  0  0  0  0
  148.6165  140.3736  155.3771 C   0  0  2  0  0  0  0  0  0  0  0  0
  149.9827  140.1016  156.0385 C   0  0  0  0  0  0  0  0  0  0  0  0
  149.8317  139.7715  157.3214 F   0  0  0  0  0  0  0  0  0  0  0  0
  150.6043  139.1055  155.4072 F   0  0  0  0  0  0  0  0  0  0  0  0
  150.7525  141.1871  155.9600 F   0  0  0  0  0  0  0  0  0  0  0  0
  148.7278  140.4701  153.8387 C   0  0  0  0  0  0  0  0  0  0  0  0
  142.5053  134.4398  154.1715 H   0  0  0  0  0  0  0  0  0  0  0  0
  141.3598  135.0696  152.9837 H   0  0  0  0  0  0  0  0  0  0  0  0
  141.4266  135.7619  154.6069 H   0  0  0  0  0  0  0  0  0  0  0  0
  143.3164  138.3429  152.8143 H   0  0  0  0  0  0  0  0  0  0  0  0
  142.0664  138.0715  154.0268 H   0  0  0  0  0  0  0  0  0  0  0  0
  141.7451  137.6801  152.3346 H   0  0  0  0  0  0  0  0  0  0  0  0
  144.0851  133.2975  150.2962 H   0  0  0  0  0  0  0  0  0  0  0  0
  146.8980  136.2478  150.8111 H   0  0  0  0  0  0  0  0  0  0  0  0
  145.1836  137.7211  153.7309 H   0  0  0  0  0  0  0  0  0  0  0  0
  145.9976  139.4482  154.1527 H   0  0  0  0  0  0  0  0  0  0  0  0
  147.5318  140.9102  152.0977 H   0  0  0  0  0  0  0  0  0  0  0  0
  147.2554  142.8544  153.4843 H   0  0  0  0  0  0  0  0  0  0  0  0
  145.6907  142.1046  153.3161 H   0  0  0  0  0  0  0  0  0  0  0  0
  146.1425  142.8182  155.6738 H   0  0  0  0  0  0  0  0  0  0  0  0
  145.8827  141.0956  155.5713 H   0  0  0  0  0  0  0  0  0  0  0  0
  148.5849  142.5087  155.7676 H   0  0  0  0  0  0  0  0  0  0  0  0
  147.8196  141.5595  157.0170 H   0  0  0  0  0  0  0  0  0  0  0  0
  147.9731  139.5249  155.6146 H   0  0  0  0  0  0  0  0  0  0  0  0
  149.1838  139.5649  153.4365 H   0  0  0  0  0  0  0  0  0  0  0  0
  149.4060  141.2837  153.5787 H   0  0  0  0  0  0  0  0  0  0  0  0
  1  2  1  0  0  0  0
  1 24  1  0  0  0  0
  1 25  1  0  0  0  0
  1 26  1  0  0  0  0
  2  3  1  0  0  0  0
  2  4  1  0  0  0  0
  3 27  1  0  0  0  0
  3 28  1  0  0  0  0
  3 29  1  0  0  0  0
  4  9  1  0  0  0  0
  4  5  2  0  0  0  0
  5  6  1  0  0  0  0
  6  7  2  0  0  0  0
  6 30  1  0  0  0  0
  7  8  1  0  0  0  0
  8  9  2  0  0  0  0
  8 31  1  0  0  0  0
  9 10  1  0  0  0  0
 10 11  1  0  0  0  0
 10 32  1  0  0  0  0
 11 12  2  0  0  0  0
 11 13  1  0  0  0  0
 13 14  1  0  0  0  0
 13 33  1  0  0  0  0
 14 23  1  0  0  0  0
 14 15  1  0  0  0  0
 14 34  1  0  0  0  0
 15 16  1  0  0  0  0
 15 35  1  0  0  0  0
 15 36  1  0  0  0  0
 16 17  1  0  0  0  0
 16 37  1  0  0  0  0
 16 38  1  0  0  0  0
 17 18  1  0  0  0  0
 17 39  1  0  0  0  0
 17 40  1  0  0  0  0
 18 19  1  0  0  0  0
 18 23  1  0  0  0  0
 18 41  1  0  0  0  0
 19 20  1  0  0  0  0
 19 21  1  0  0  0  0
 19 22  1  0  0  0  0
 23 42  1  0  0  0  0
 23 43  1  0  0  0  0
M  END
> <s_m_source_file>
AV-unprocessed.smi

> <i_m_source_file_index>
2438

> <i_lp_mmshare_version>
43012

> <i_f3d_flags>
0

> <s_epik_input>
W0NIM11OKFtDSDNdKWMxbltjSF1uW2NIXWMxW05IXUMoPU8pW05IXVtDQEBIXTJbQ0gyXVtDSDJdW0NIMl1bQ0BASF0oQyhGKShGKUYpW0NIMl0y

> <s_epik_cmdline>
J2VwaWtfcHl0aG9uJywgJy1waCcsICc3LjAnLCAnLXRuJywgJzgnLCAnLW1hJywgJzIwMCcsICctbWV0YWxfYmluZGluZycsICctaW1hZScsICc8aW5maWxlLm1hZT4nLCAnLW9tYWUnLCAnPG91dGZpbGUubWFlPic=

> <r_lp_tautomer_probability>
1

> <r_epik_Ionization_Penalty>
0.01759

> <r_epik_Ionization_Penalty_Charging>
0

> <r_epik_Ionization_Penalty_Neutral>
0.01759

> <r_epik_State_Penalty>
0.0133536

> <r_epik_Charging_Adjusted_Penalty>
0.0133536

> <i_epik_Tot_Q>
0

> <i_epik_Tot_abs_Q>
0

> <r_epik_Metal_State_Penalty>
0.0129828

> <b_epik_Metal_Only>
0

> <s_lp_Force_Field>
OPLS_2005

> <r_lp_Energy>
8.79066

> <b_lp_Chiralities_Consistent>
1

> <s_lp_Variant>
AV-unprocessed.smi:2438-4

> <Gold.Version>
5.8.1

> <Gold.Id.Protein>
6NUR|6NUR_protein|mol2

> <Gold.PLP.Fitness>
38.8117

> <Gold.PLP.PLP>
-34.3107

> <Gold.PLP.part.hbond>
-1.9194

> <Gold.PLP.part.metal>
0.0000

> <Gold.PLP.part.buried>
-1.4937

> <Gold.PLP.part.nonpolar>
-32.3995

> <Gold.PLP.part.repulsive>
2.9797

> <Gold.PLP.ligand.clash>
0.0000

> <Gold.PLP.ligand.torsion>
0.8474

> <Gold.PLP.Chemscore.Hbond>
0.9425

> <Gold.PLP.Chemscore.CHOScore>
0.9992

> <Gold.PLP.Chemscore.Metal>
0.0000

> <Gold.Chemscore.Hbonds>
donor molecule, donor type, donor heavy atom, donor atom, acceptor molecule, acceptor atom, score
      P1  H  7954  7966       L1    12  0.99
      L1  C     8    31       P1  7948  1.00

> <Gold.PLP.Chemscore.Internal.Correction>
0.3707

> <Gold.Rescore>
     Score         DG    S(hbond)    S(metal)    S(lipo)     H(rot)  DE(clash)    DE(int)     intcor
      8.29     -12.60       0.96        0.00      61.72       1.30       2.23       2.08       ----

> <Gold.Chemscore.Fitness>
8.2857

> <Gold.Chemscore.DG>
-12.5957

> <Gold.Chemscore.ZeroCoef>
-5.4800

> <Gold.Chemscore.Hbond>
0.9637

> <Gold.Chemscore.Metal>
0.0000

> <Gold.Chemscore.Lipo>
61.7208

> <Gold.Chemscore.Internal_Hbond>
0.0000

> <Gold.Chemscore.DEClash>
2.2272

> <Gold.Chemscore.DEInternal>
2.0828

> <Gold.Chemscore.Rot>
1.2987

> <Gold.Chemscore.Internal.Correction>
   9.000000E+99

> <Gold.Chemscore.Hbonds>
donor molecule, donor type, donor heavy atom, donor atom, acceptor molecule, acceptor atom, score
      P1  H  7954  7966       L1    12  0.89

> <Gold.Chemscore.Hbond.Weighted>
-3.2189

> <Gold.Chemscore.Metal.Weighted>
-0.0000

> <Gold.Chemscore.Lipo.Weighted>
-7.2213

> <Gold.Chemscore.Internal_Hbond.Weighted>
0.0000

> <Gold.Chemscore.DEClash.Weighted>
2.2272

> <Gold.Chemscore.DEInternal.Weighted>
2.0828

> <Gold.Chemscore.Rot.Weighted>
3.3246

> <Gold.Chemscore.Internal.Correction.Weighted>
   9.000000E+99

> <Gold.Protein.RotatedTorsions>
[ 6907 6896 6895 6894 ] final  -22.64 input  -60.11 | X-H torsion
[ 7974 7965 7964 7962 ] final   90.42 input  175.53 | X-H torsion
[ 8008 7997 7996 7995 ] final  -22.74 input   59.86 | X-H torsion
[ 10167 10162 10161 10158 ] final  -84.14 input  -65.29 | X-H torsion
[ 10718 10713 10712 10709 ] final  -76.91 input   66.30 | X-H torsion
[ 10763 10752 10751 10750 ] final   44.70 input  -60.55 | X-H torsion
[ 11005 11000 10999 10996 ] final   31.73 input  -57.11 | X-H torsion

> <Gold.Protein.ActiveResidues>
 VAL166  LYS551  ARG553  GLY616  TRP617  ASP618  TYR619  PRO620  LYS621  CYS622 
 ASP623  PHE694  ASN695  SER759  ASP760  ASP761  ALA762  ILE779  LEU786  VAL792 
 PHE793  MET794  SER795  GLU796  ALA797  LYS798  CYS799  TRP800  GLU811  SER814 

> <Gold.Protein.RotatedAtoms>
  151.2157  135.0499  159.8929 H   0  0  0  0  0  0  0  0  0  0  0  0  # atno 6907 bound_to 6896
  152.5420  134.0696  159.8198 H   0  0  0  0  0  0  0  0  0  0  0  0  # atno 6908 bound_to 6896
  151.0855  133.5308  159.2650 H   0  0  0  0  0  0  0  0  0  0  0  0  # atno 6909 bound_to 6896
  145.5192  139.2279  143.2681 H   0  0  0  0  0  0  0  0  0  0  0  0  # atno 7974 bound_to 7965
  154.4626  140.1999  156.0204 H   0  0  0  0  0  0  0  0  0  0  0  0  # atno 8008 bound_to 7997
  156.0868  140.3264  155.7735 H   0  0  0  0  0  0  0  0  0  0  0  0  # atno 8009 bound_to 7997
  155.5022  140.0555  157.2928 H   0  0  0  0  0  0  0  0  0  0  0  0  # atno 8010 bound_to 7997
  140.4160  143.2603  151.8954 H   0  0  0  0  0  0  0  0  0  0  0  0  # atno 10167 bound_to 10162
  156.0160  130.4478  150.3265 H   0  0  0  0  0  0  0  0  0  0  0  0  # atno 10718 bound_to 10713
  152.9836  135.6062  154.3316 H   0  0  0  0  0  0  0  0  0  0  0  0  # atno 10763 bound_to 10752
  154.3019  135.2772  155.2609 H   0  0  0  0  0  0  0  0  0  0  0  0  # atno 10764 bound_to 10752
  154.4857  135.5905  153.6478 H   0  0  0  0  0  0  0  0  0  0  0  0  # atno 10765 bound_to 10752
  140.2808  134.2975  155.7801 H   0  0  0  0  0  0  0  0  0  0  0  0  # atno 11005 bound_to 11000
  146.2117  140.6003  142.9057 LP  0  0  0  0  0  0  0  0  0  0  0  0  # atno 17320 bound_to 7965
  144.7685  140.5585  143.6686 LP  0  0  0  0  0  0  0  0  0  0  0  0  # atno 17321 bound_to 7965
  139.4782  144.5487  151.8419 LP  0  0  0  0  0  0  0  0  0  0  0  0  # atno 17342 bound_to 10162
  140.4586  144.1754  150.5904 LP  0  0  0  0  0  0  0  0  0  0  0  0  # atno 17343 bound_to 10162
  157.1364  131.0285  151.2947 LP  0  0  0  0  0  0  0  0  0  0  0  0  # atno 17370 bound_to 10713
  157.4508  130.7597  149.7149 LP  0  0  0  0  0  0  0  0  0  0  0  0  # atno 17371 bound_to 10713
  141.2163  133.7524  156.9477 LP  0  0  0  0  0  0  0  0  0  0  0  0  # atno 17394 bound_to 11000
  140.1285  134.9371  157.2304 LP  0  0  0  0  0  0  0  0  0  0  0  0  # atno 17395 bound_to 11000

$$$$
