AV-unprocessed.smi:1702|AV-procd|sdf|6851|dock2
  -GOLD-   22720 8 33D 1   1.00000     0.00000
 Structure written by MMmdl.
 45 47  0  0  0  0  0  0  0  0  3 V2000
  147.3876  132.9993  155.7832 C   0  0  0  0  0  0  0  0  0  0  0  0
  147.6105  133.6474  154.4055 C   0  0  2  0  0  0  0  0  0  0  0  0
  149.0645  133.5225  153.9160 C   0  0  0  0  0  0  0  0  0  0  0  0
  150.0164  134.4699  154.6682 C   0  0  0  0  0  0  0  0  0  0  0  0
  149.5577  135.8807  154.5807 N   0  3  2  0  0  0  0  0  0  0  0  0
  150.5352  136.8213  155.1886 C   0  0  0  0  0  0  0  0  0  0  0  0
  150.2078  138.3051  154.9188 C   0  0  2  0  0  0  0  0  0  0  0  0
  149.9397  138.4819  153.5402 O   0  0  0  0  0  0  0  0  0  0  0  0
  151.3834  139.2197  155.3187 C   0  0  0  0  0  0  0  0  0  0  0  0
  150.9492  140.5368  155.8041 N   0  0  0  0  0  0  0  0  0  0  0  0
  150.0680  141.4218  155.2628 C   0  0  0  0  0  0  0  0  0  0  0  0
  150.0086  142.5013  156.0914 N   0  3  0  0  0  0  0  0  0  0  0  0
  150.8649  142.3041  157.1770 C   0  0  0  0  0  0  0  0  0  0  0  0
  151.1480  143.1106  158.2746 C   0  0  0  0  0  0  0  0  0  0  0  0
  152.0772  142.6082  159.2095 C   0  0  0  0  0  0  0  0  0  0  0  0
  152.3883  143.3524  160.2969 F   0  0  0  0  0  0  0  0  0  0  0  0
  152.6865  141.3475  159.0338 C   0  0  0  0  0  0  0  0  0  0  0  0
  153.5720  140.9012  159.9557 F   0  0  0  0  0  0  0  0  0  0  0  0
  152.3923  140.5388  157.9160 C   0  0  0  0  0  0  0  0  0  0  0  0
  151.4727  141.0438  156.9981 C   0  0  0  0  0  0  0  0  0  0  0  0
  148.1763  136.0387  155.1109 C   0  0  0  0  0  0  0  0  0  0  0  0
  147.1848  135.1261  154.3666 C   0  0  0  0  0  0  0  0  0  0  0  0
  147.9830  133.4727  156.5634 H   0  0  0  0  0  0  0  0  0  0  0  0
  147.6518  131.9417  155.7640 H   0  0  0  0  0  0  0  0  0  0  0  0
  146.3410  133.0674  156.0816 H   0  0  0  0  0  0  0  0  0  0  0  0
  146.9780  133.1029  153.7029 H   0  0  0  0  0  0  0  0  0  0  0  0
  149.4086  132.4920  154.0121 H   0  0  0  0  0  0  0  0  0  0  0  0
  149.1040  133.7548  152.8507 H   0  0  0  0  0  0  0  0  0  0  0  0
  150.1022  134.1764  155.7154 H   0  0  0  0  0  0  0  0  0  0  0  0
  151.0141  134.3814  154.2361 H   0  0  0  0  0  0  0  0  0  0  0  0
  150.5866  136.6321  156.2623 H   0  0  0  0  0  0  0  0  0  0  0  0
  151.5339  136.6155  154.7991 H   0  0  0  0  0  0  0  0  0  0  0  0
  149.3257  138.6130  155.4783 H   0  0  0  0  0  0  0  0  0  0  0  0
  149.7765  137.6384  153.1467 H   0  0  0  0  0  0  0  0  0  0  0  0
  151.9966  138.7538  156.0912 H   0  0  0  0  0  0  0  0  0  0  0  0
  152.0401  139.3884  154.4640 H   0  0  0  0  0  0  0  0  0  0  0  0
  149.5146  141.2907  154.3437 H   0  0  0  0  0  0  0  0  0  0  0  0
  150.6841  144.0762  158.4130 H   0  0  0  0  0  0  0  0  0  0  0  0
  152.8658  139.5766  157.7909 H   0  0  0  0  0  0  0  0  0  0  0  0
  148.1657  135.8202  156.1796 H   0  0  0  0  0  0  0  0  0  0  0  0
  147.8424  137.0696  155.0035 H   0  0  0  0  0  0  0  0  0  0  0  0
  147.1169  135.4511  153.3275 H   0  0  0  0  0  0  0  0  0  0  0  0
  146.1837  135.2415  154.7838 H   0  0  0  0  0  0  0  0  0  0  0  0
  149.5247  136.0990  153.5953 H   0  0  0  0  0  0  0  0  0  0  0  0
  149.4260  143.3121  155.9242 H   0  0  0  0  0  0  0  0  0  0  0  0
  1  2  1  0  0  0  0
  1 23  1  0  0  0  0
  1 24  1  0  0  0  0
  1 25  1  0  0  0  0
  2 22  1  0  0  0  0
  2  3  1  0  0  0  0
  2 26  1  0  0  0  0
  3  4  1  0  0  0  0
  3 27  1  0  0  0  0
  3 28  1  0  0  0  0
  4  5  1  0  0  0  0
  4 29  1  0  0  0  0
  4 30  1  0  0  0  0
  5  6  1  0  0  0  0
  5 21  1  0  0  0  0
  5 44  1  0  0  0  0
  6  7  1  0  0  0  0
  6 31  1  0  0  0  0
  6 32  1  0  0  0  0
  7  8  1  0  0  0  0
  7  9  1  0  0  0  0
  7 33  1  0  0  0  0
  8 34  1  0  0  0  0
  9 10  1  0  0  0  0
  9 35  1  0  0  0  0
  9 36  1  0  0  0  0
 10 20  1  0  0  0  0
 10 11  1  0  0  0  0
 11 12  2  0  0  0  0
 11 37  1  0  0  0  0
 12 13  1  0  0  0  0
 12 45  1  0  0  0  0
 13 20  2  0  0  0  0
 13 14  1  0  0  0  0
 14 15  2  0  0  0  0
 14 38  1  0  0  0  0
 15 16  1  0  0  0  0
 15 17  1  0  0  0  0
 17 18  1  0  0  0  0
 17 19  2  0  0  0  0
 19 20  1  0  0  0  0
 19 39  1  0  0  0  0
 21 22  1  0  0  0  0
 21 40  1  0  0  0  0
 21 41  1  0  0  0  0
 22 42  1  0  0  0  0
 22 43  1  0  0  0  0
M  CHG  1   5   1
M  CHG  1  12   1
M  END
> <s_m_source_file>
AV-unprocessed.smi

> <i_m_source_file_index>
1702

> <i_lp_mmshare_version>
43012

> <i_f3d_flags>
0

> <s_epik_input>
W0NIM11bQ0hdMVtDSDJdW0NIMl1OKFtDSDJdW0NIMl0xKVtDSDJdW0NASF0oW09IXSlbQ0gyXW4oW2NIXW4yKWMoYzIzKVtjSF1jKEYpYyhGKVtjSF0z

> <s_epik_cmdline>
J2VwaWtfcHl0aG9uJywgJy1waCcsICc3LjAnLCAnLXRuJywgJzgnLCAnLW1hJywgJzIwMCcsICctbWV0YWxfYmluZGluZycsICctaW1hZScsICc8aW5maWxlLm1hZT4nLCAnLW9tYWUnLCAnPG91dGZpbGUubWFlPic=

> <r_epik_Ionization_Penalty>
2.33291

> <r_epik_Ionization_Penalty_Charging>
2.33291

> <r_epik_Ionization_Penalty_Neutral>
6.90208e-07

> <r_epik_State_Penalty>
2.4838

> <r_epik_Charging_Adjusted_Penalty>
4.81672

> <i_epik_Tot_Q>
2

> <i_epik_Tot_abs_Q>
2

> <r_epik_Metal_State_Penalty>
6.56754

> <b_epik_Metal_Only>
0

> <s_lp_Force_Field>
OPLS_2005

> <r_lp_Energy>
33.1183

> <b_lp_Chiralities_Consistent>
1

> <s_lp_Variant>
AV-unprocessed.smi:1702-7

> <Gold.Version>
5.8.1

> <Gold.Id.Protein>
6NUR|6NUR_protein|mol2

> <Gold.PLP.Fitness>
56.9895

> <Gold.PLP.PLP>
-43.1680

> <Gold.PLP.part.hbond>
-4.0000

> <Gold.PLP.part.metal>
0.0000

> <Gold.PLP.part.buried>
-4.1940

> <Gold.PLP.part.nonpolar>
-34.4582

> <Gold.PLP.part.repulsive>
0.1496

> <Gold.PLP.ligand.clash>
0.0000

> <Gold.PLP.ligand.torsion>
0.6153

> <Gold.PLP.Chemscore.Hbond>
4.9913

> <Gold.PLP.Chemscore.CHOScore>
0.0000

> <Gold.PLP.Chemscore.Metal>
0.0000

> <Gold.Chemscore.Hbonds>
donor molecule, donor type, donor heavy atom, donor atom, acceptor molecule, acceptor atom, score
      L1  H     5    44       P1  7948  2.00
      L1  H     8    34       P1  7948  0.99
      L1  H    12    45       P1  8028  2.00

> <Gold.PLP.Chemscore.Internal.Correction>
0.0783

> <Gold.Rescore>
     Score         DG    S(hbond)    S(metal)    S(lipo)     H(rot)  DE(clash)    DE(int)     intcor
     18.60     -19.23       2.91        0.00      85.15       2.32       0.02       0.62       ----

> <Gold.Chemscore.Fitness>
18.5957

> <Gold.Chemscore.DG>
-19.2344

> <Gold.Chemscore.ZeroCoef>
-5.4800

> <Gold.Chemscore.Hbond>
2.9141

> <Gold.Chemscore.Metal>
0.0000

> <Gold.Chemscore.Lipo>
85.1533

> <Gold.Chemscore.Internal_Hbond>
0.0000

> <Gold.Chemscore.DEClash>
0.0174

> <Gold.Chemscore.DEInternal>
0.6213

> <Gold.Chemscore.Rot>
2.3210

> <Gold.Chemscore.Internal.Correction>
   9.000000E+99

> <Gold.Chemscore.Hbonds>
donor molecule, donor type, donor heavy atom, donor atom, acceptor molecule, acceptor atom, score
      L1  H     5    44       P1  7948  0.50
      L1  H     8    34       P1  7948  0.55
      L1  H    12    45       P1  8028  0.93

> <Gold.Chemscore.Hbond.Weighted>
-9.7331

> <Gold.Chemscore.Metal.Weighted>
-0.0000

> <Gold.Chemscore.Lipo.Weighted>
-9.9629

> <Gold.Chemscore.Internal_Hbond.Weighted>
0.0000

> <Gold.Chemscore.DEClash.Weighted>
0.0174

> <Gold.Chemscore.DEInternal.Weighted>
0.6213

> <Gold.Chemscore.Rot.Weighted>
5.9416

> <Gold.Chemscore.Internal.Correction.Weighted>
   9.000000E+99

> <Gold.Protein.RotatedTorsions>
[ 6907 6896 6895 6894 ] final   44.00 input  -60.11 | X-H torsion
[ 7974 7965 7964 7962 ] final  108.49 input  175.53 | X-H torsion
[ 8008 7997 7996 7995 ] final  145.78 input   59.86 | X-H torsion
[ 10167 10162 10161 10158 ] final  153.75 input  -65.29 | X-H torsion
[ 10718 10713 10712 10709 ] final  138.07 input   66.30 | X-H torsion
[ 10763 10752 10751 10750 ] final  -97.72 input  -60.55 | X-H torsion
[ 11005 11000 10999 10996 ] final  162.00 input  -57.11 | X-H torsion

> <Gold.Protein.ActiveResidues>
 VAL166  LYS551  ARG553  GLY616  TRP617  ASP618  TYR619  PRO620  LYS621  CYS622 
 ASP623  PHE694  ASN695  SER759  ASP760  ASP761  ALA762  ILE779  LEU786  VAL792 
 PHE793  MET794  SER795  GLU796  ALA797  LYS798  CYS799  TRP800  GLU811  SER814 

> <Gold.Protein.RotatedAtoms>
  152.2272  134.8357  160.0478 H   0  0  0  0  0  0  0  0  0  0  0  0  # atno 6907 bound_to 6896
  151.9119  133.3558  159.3875 H   0  0  0  0  0  0  0  0  0  0  0  0  # atno 6908 bound_to 6896
  150.7015  134.4648  159.5442 H   0  0  0  0  0  0  0  0  0  0  0  0  # atno 6909 bound_to 6896
  145.2800  139.2636  143.3920 H   0  0  0  0  0  0  0  0  0  0  0  0  # atno 7974 bound_to 7965
  156.2874  140.2200  156.5270 H   0  0  0  0  0  0  0  0  0  0  0  0  # atno 8008 bound_to 7997
  154.7480  140.0482  157.0891 H   0  0  0  0  0  0  0  0  0  0  0  0  # atno 8009 bound_to 7997
  155.0145  140.3117  155.4820 H   0  0  0  0  0  0  0  0  0  0  0  0  # atno 8010 bound_to 7997
  139.4826  144.5246  151.7822 H   0  0  0  0  0  0  0  0  0  0  0  0  # atno 10167 bound_to 10162
  157.4293  131.1047  151.0268 H   0  0  0  0  0  0  0  0  0  0  0  0  # atno 10718 bound_to 10713
  154.7353  135.5036  153.9031 H   0  0  0  0  0  0  0  0  0  0  0  0  # atno 10763 bound_to 10752
  153.0989  135.6680  153.9719 H   0  0  0  0  0  0  0  0  0  0  0  0  # atno 10764 bound_to 10752
  153.9510  135.3057  155.3418 H   0  0  0  0  0  0  0  0  0  0  0  0  # atno 10765 bound_to 10752
  140.2214  134.8193  157.3224 H   0  0  0  0  0  0  0  0  0  0  0  0  # atno 11005 bound_to 11000
  146.3219  140.3265  142.8637 LP  0  0  0  0  0  0  0  0  0  0  0  0  # atno 17320 bound_to 7965
  144.9261  140.7923  143.5718 LP  0  0  0  0  0  0  0  0  0  0  0  0  # atno 17321 bound_to 7965
  140.4764  144.1513  150.5925 LP  0  0  0  0  0  0  0  0  0  0  0  0  # atno 17342 bound_to 10162
  140.4326  143.2561  151.9576 LP  0  0  0  0  0  0  0  0  0  0  0  0  # atno 17343 bound_to 10162
  157.1170  130.6045  149.5495 LP  0  0  0  0  0  0  0  0  0  0  0  0  # atno 17370 bound_to 10713
  155.9907  130.4960  150.7270 LP  0  0  0  0  0  0  0  0  0  0  0  0  # atno 17371 bound_to 10713
  140.1845  134.4448  155.7752 LP  0  0  0  0  0  0  0  0  0  0  0  0  # atno 17394 bound_to 11000
  141.2223  133.6999  156.7925 LP  0  0  0  0  0  0  0  0  0  0  0  0  # atno 17395 bound_to 11000

$$$$
