AV-unprocessed.smi:1715|AV-procd|sdf|6910|dock5
  -GOLD-   22720 8113D 1   1.00000     0.00000
 Structure written by MMmdl.
 40 41  0  0  0  0  0  0  0  0  1 V2000
  150.6774  142.0891  156.9153 C   0  0  0  0  0  0  0  0  0  0  0  0
  150.4306  141.3225  155.6117 C   0  0  2  0  0  0  0  0  0  0  0  0
  148.9295  141.1519  155.3110 C   0  0  0  0  0  0  0  0  0  0  0  0
  148.6980  140.3587  154.1090 N   0  0  0  0  0  0  0  0  0  0  0  0
  147.2673  140.2206  153.8432 C   0  0  0  0  0  0  0  0  0  0  0  0
  146.8966  139.1115  152.8407 C   0  0  0  0  0  0  0  0  0  0  0  0
  145.4923  138.7384  152.9586 N   0  0  0  0  0  0  0  0  0  0  0  0
  145.0448  137.5080  153.2461 C   0  0  0  0  0  0  0  0  0  0  0  0
  145.7839  136.5433  153.4439 O   0  0  0  0  0  0  0  0  0  0  0  0
  143.7027  137.4736  153.2853 N   0  0  0  0  0  0  0  0  0  0  0  0
  142.8779  136.3537  153.5599 C   0  0  0  0  0  0  0  0  0  0  0  0
  141.4963  136.4269  153.8853 C   0  0  0  0  0  0  0  0  0  0  0  0
  140.9833  135.2226  154.0921 N   0  0  0  0  0  0  0  0  0  0  0  0
  142.0246  134.3811  153.9022 N   0  0  0  0  0  0  0  0  0  0  0  0
  143.1978  135.0249  153.5759 C   0  0  0  0  0  0  0  0  0  0  0  0
  149.3700  139.0700  154.2568 C   0  0  0  0  0  0  0  0  0  0  0  0
  150.8720  139.2334  154.5605 C   0  0  2  0  0  0  0  0  0  0  0  0
  151.5641  137.8880  154.8032 C   0  0  0  0  0  0  0  0  0  0  0  0
  151.0290  140.0346  155.7284 O   0  0  0  0  0  0  0  0  0  0  0  0
  141.9200  133.3808  153.9980 H   0  0  0  0  0  0  0  0  0  0  0  0
  150.2453  143.0890  156.8700 H   0  0  0  0  0  0  0  0  0  0  0  0
  151.7452  142.1969  157.1075 H   0  0  0  0  0  0  0  0  0  0  0  0
  150.2358  141.5716  157.7674 H   0  0  0  0  0  0  0  0  0  0  0  0
  150.9086  141.8620  154.7923 H   0  0  0  0  0  0  0  0  0  0  0  0
  148.4402  140.6789  156.1642 H   0  0  0  0  0  0  0  0  0  0  0  0
  148.4722  142.1355  155.1963 H   0  0  0  0  0  0  0  0  0  0  0  0
  146.7325  140.0599  154.7806 H   0  0  0  0  0  0  0  0  0  0  0  0
  146.8963  141.1667  153.4463 H   0  0  0  0  0  0  0  0  0  0  0  0
  147.1164  139.4290  151.8198 H   0  0  0  0  0  0  0  0  0  0  0  0
  147.4845  138.2126  153.0219 H   0  0  0  0  0  0  0  0  0  0  0  0
  144.8132  139.4706  152.8114 H   0  0  0  0  0  0  0  0  0  0  0  0
  143.2194  138.3401  153.0998 H   0  0  0  0  0  0  0  0  0  0  0  0
  140.8616  137.2961  153.9763 H   0  0  0  0  0  0  0  0  0  0  0  0
  144.1186  134.4916  153.3925 H   0  0  0  0  0  0  0  0  0  0  0  0
  148.8974  138.4977  155.0567 H   0  0  0  0  0  0  0  0  0  0  0  0
  149.2628  138.4818  153.3460 H   0  0  0  0  0  0  0  0  0  0  0  0
  151.3612  139.7324  153.7222 H   0  0  0  0  0  0  0  0  0  0  0  0
  151.4823  137.2406  153.9296 H   0  0  0  0  0  0  0  0  0  0  0  0
  151.1225  137.3642  155.6514 H   0  0  0  0  0  0  0  0  0  0  0  0
  152.6244  138.0287  155.0139 H   0  0  0  0  0  0  0  0  0  0  0  0
  1  2  1  0  0  0  0
  1 21  1  0  0  0  0
  1 22  1  0  0  0  0
  1 23  1  0  0  0  0
  2 19  1  0  0  0  0
  2  3  1  0  0  0  0
  2 24  1  0  0  0  0
  3  4  1  0  0  0  0
  3 25  1  0  0  0  0
  3 26  1  0  0  0  0
  4  5  1  0  0  0  0
  4 16  1  0  0  0  0
  5  6  1  0  0  0  0
  5 27  1  0  0  0  0
  5 28  1  0  0  0  0
  6  7  1  0  0  0  0
  6 29  1  0  0  0  0
  6 30  1  0  0  0  0
  7  8  1  0  0  0  0
  7 31  1  0  0  0  0
  8  9  2  0  0  0  0
  8 10  1  0  0  0  0
 10 11  1  0  0  0  0
 10 32  1  0  0  0  0
 11 15  2  0  0  0  0
 11 12  1  0  0  0  0
 12 13  2  0  0  0  0
 12 33  1  0  0  0  0
 13 14  1  0  0  0  0
 14 20  1  0  0  0  0
 14 15  1  0  0  0  0
 15 34  1  0  0  0  0
 16 17  1  0  0  0  0
 16 35  1  0  0  0  0
 16 36  1  0  0  0  0
 17 18  1  0  0  0  0
 17 19  1  0  0  0  0
 17 37  1  0  0  0  0
 18 38  1  0  0  0  0
 18 39  1  0  0  0  0
 18 40  1  0  0  0  0
M  END
> <s_m_source_file>
AV-unprocessed.smi

> <i_m_source_file_index>
1715

> <i_lp_mmshare_version>
43012

> <i_f3d_flags>
0

> <s_epik_input>
W0NIM11bQ0BASF0xW0NIMl1OKFtDSDJdW0NASF0oTzEpW0NIM10pW0NIMl1bQ0gyXVtOSF1DKD1PKVtOSF1jMltjSF1uW25IXVtjSF0y

> <s_epik_cmdline>
J2VwaWtfcHl0aG9uJywgJy1waCcsICc3LjAnLCAnLXRuJywgJzgnLCAnLW1hJywgJzIwMCcsICctbWV0YWxfYmluZGluZycsICctaW1hZScsICc8aW5maWxlLm1hZT4nLCAnLW9tYWUnLCAnPG91dGZpbGUubWFlPic=

> <r_lp_tautomer_probability>
0.5

> <r_epik_Ionization_Penalty>
0.242771

> <r_epik_Ionization_Penalty_Charging>
0

> <r_epik_Ionization_Penalty_Neutral>
0.242771

> <r_epik_State_Penalty>
0.233765

> <r_epik_Charging_Adjusted_Penalty>
0.233765

> <i_epik_Tot_Q>
0

> <i_epik_Tot_abs_Q>
0

> <r_epik_Metal_State_Penalty>
0.233764

> <b_epik_Metal_Only>
0

> <s_lp_Force_Field>
OPLS_2005

> <r_lp_Energy>
21.5882

> <b_lp_Chiralities_Consistent>
1

> <s_lp_Variant>
AV-unprocessed.smi:1715-2

> <Gold.Version>
5.8.1

> <Gold.Id.Protein>
6NUR|6NUR_protein|mol2

> <Gold.PLP.Fitness>
42.2934

> <Gold.PLP.PLP>
-32.7975

> <Gold.PLP.part.hbond>
-4.4360

> <Gold.PLP.part.metal>
0.0000

> <Gold.PLP.part.buried>
-5.8794

> <Gold.PLP.part.nonpolar>
-22.8589

> <Gold.PLP.part.repulsive>
0.7009

> <Gold.PLP.ligand.clash>
0.0000

> <Gold.PLP.ligand.torsion>
0.2715

> <Gold.PLP.Chemscore.Hbond>
3.3427

> <Gold.PLP.Chemscore.CHOScore>
0.0000

> <Gold.PLP.Chemscore.Metal>
0.0000

> <Gold.Chemscore.Hbonds>
donor molecule, donor type, donor heavy atom, donor atom, acceptor molecule, acceptor atom, score
      L1  H     7    31       P1 10175  1.00
      L1  H    10    32       P1 10175  0.42
      L1  H    14    20       P1 10957  0.93
      P1  H 11000 11005       L1    13  0.88

> <Gold.PLP.Chemscore.Internal.Correction>
0.0106

> <Gold.Rescore>
     Score         DG    S(hbond)    S(metal)    S(lipo)     H(rot)  DE(clash)    DE(int)     intcor
     17.76     -19.19       2.99        0.00      67.31       1.63       0.10       1.33       ----

> <Gold.Chemscore.Fitness>
17.7617

> <Gold.Chemscore.DG>
-19.1870

> <Gold.Chemscore.ZeroCoef>
-5.4800

> <Gold.Chemscore.Hbond>
2.9945

> <Gold.Chemscore.Metal>
0.0000

> <Gold.Chemscore.Lipo>
67.3078

> <Gold.Chemscore.Internal_Hbond>
0.0000

> <Gold.Chemscore.DEClash>
0.0977

> <Gold.Chemscore.DEInternal>
1.3277

> <Gold.Chemscore.Rot>
1.6287

> <Gold.Chemscore.Internal.Correction>
   9.000000E+99

> <Gold.Chemscore.Hbonds>
donor molecule, donor type, donor heavy atom, donor atom, acceptor molecule, acceptor atom, score
      L1  H     7    31       P1 10175  0.94
      L1  H    10    32       P1 10175  0.42
      L1  H    14    20       P1 10957  0.90
      P1  H 11000 11005       L1    13  0.28

> <Gold.Chemscore.Hbond.Weighted>
-10.0015

> <Gold.Chemscore.Metal.Weighted>
-0.0000

> <Gold.Chemscore.Lipo.Weighted>
-7.8750

> <Gold.Chemscore.Internal_Hbond.Weighted>
0.0000

> <Gold.Chemscore.DEClash.Weighted>
0.0977

> <Gold.Chemscore.DEInternal.Weighted>
1.3277

> <Gold.Chemscore.Rot.Weighted>
4.1695

> <Gold.Chemscore.Internal.Correction.Weighted>
   9.000000E+99

> <Gold.Protein.RotatedTorsions>
[ 6907 6896 6895 6894 ] final -130.10 input  -60.11 | X-H torsion
[ 7974 7965 7964 7962 ] final  -46.26 input  175.53 | X-H torsion
[ 8008 7997 7996 7995 ] final  -81.88 input   59.86 | X-H torsion
[ 10167 10162 10161 10158 ] final  106.65 input  -65.29 | X-H torsion
[ 10718 10713 10712 10709 ] final  -45.75 input   66.30 | X-H torsion
[ 10763 10752 10751 10750 ] final  157.13 input  -60.55 | X-H torsion
[ 11005 11000 10999 10996 ] final   47.88 input  -57.11 | X-H torsion

> <Gold.Protein.ActiveResidues>
 VAL166  LYS551  ARG553  GLY616  TRP617  ASP618  TYR619  PRO620  LYS621  CYS622 
 ASP623  PHE694  ASN695  SER759  ASP760  ASP761  ALA762  ILE779  LEU786  VAL792 
 PHE793  MET794  SER795  GLU796  ALA797  LYS798  CYS799  TRP800  GLU811  SER814 

> <Gold.Protein.RotatedAtoms>
  150.9360  133.6711  159.2800 H   0  0  0  0  0  0  0  0  0  0  0  0  # atno 6907 bound_to 6896
  151.4117  135.0984  159.9596 H   0  0  0  0  0  0  0  0  0  0  0  0  # atno 6908 bound_to 6896
  152.5048  133.8832  159.7411 H   0  0  0  0  0  0  0  0  0  0  0  0  # atno 6909 bound_to 6896
  145.9737  140.7356  142.9397 H   0  0  0  0  0  0  0  0  0  0  0  0  # atno 7974 bound_to 7965
  154.6029  140.0641  156.9392 H   0  0  0  0  0  0  0  0  0  0  0  0  # atno 8008 bound_to 7997
  155.2102  140.3322  155.4311 H   0  0  0  0  0  0  0  0  0  0  0  0  # atno 8009 bound_to 7997
  156.2329  140.1849  156.7178 H   0  0  0  0  0  0  0  0  0  0  0  0  # atno 8010 bound_to 7997
  139.6991  144.7097  151.1215 H   0  0  0  0  0  0  0  0  0  0  0  0  # atno 10167 bound_to 10162
  156.2251  130.4169  149.8944 H   0  0  0  0  0  0  0  0  0  0  0  0  # atno 10718 bound_to 10713
  154.1954  135.2793  155.3008 H   0  0  0  0  0  0  0  0  0  0  0  0  # atno 10763 bound_to 10752
  154.5896  135.5564  153.7269 H   0  0  0  0  0  0  0  0  0  0  0  0  # atno 10764 bound_to 10752
  153.0101  135.6365  154.2092 H   0  0  0  0  0  0  0  0  0  0  0  0  # atno 10765 bound_to 10752
  140.1240  134.4792  155.8574 H   0  0  0  0  0  0  0  0  0  0  0  0  # atno 11005 bound_to 11000
  144.6843  140.2792  143.7294 LP  0  0  0  0  0  0  0  0  0  0  0  0  # atno 17320 bound_to 7965
  145.7869  139.1912  143.2125 LP  0  0  0  0  0  0  0  0  0  0  0  0  # atno 17321 bound_to 7965
  140.7705  143.5449  150.9270 LP  0  0  0  0  0  0  0  0  0  0  0  0  # atno 17342 bound_to 10162
  139.9130  143.6698  152.3111 LP  0  0  0  0  0  0  0  0  0  0  0  0  # atno 17343 bound_to 10162
  156.6577  130.8769  151.3542 LP  0  0  0  0  0  0  0  0  0  0  0  0  # atno 17370 bound_to 10713
  157.7107  130.9436  150.1078 LP  0  0  0  0  0  0  0  0  0  0  0  0  # atno 17371 bound_to 10713
  141.2157  133.6771  156.6943 LP  0  0  0  0  0  0  0  0  0  0  0  0  # atno 17394 bound_to 11000
  140.2928  134.8227  157.4031 LP  0  0  0  0  0  0  0  0  0  0  0  0  # atno 17395 bound_to 11000

$$$$
