AV-unprocessed.smi:42|AV-procd|sdf|389|dock5
  -GOLD-   2262016243D 1   1.00000     0.00000
 Structure written by MMmdl.
 27 28  0  0  0  0  0  0  0  0  2 V2000
  152.7481  142.7490  161.9629 C   0  0  0  0  0  0  0  0  0  0  0  0
  152.8923  141.9103  160.6887 C   0  0  0  0  0  0  0  0  0  0  0  0
  152.1307  142.4805  159.5394 C   0  0  0  0  0  0  0  0  0  0  0  0
  151.5676  143.6882  159.4599 N   0  0  0  0  0  0  0  0  0  0  0  0
  151.0342  143.7705  158.1942 N   0  0  0  0  0  0  0  0  0  0  0  0
  151.3466  142.6190  157.5891 C   0  0  0  0  0  0  0  0  0  0  0  0
  150.9697  142.1626  156.2125 C   0  0  1  0  0  0  0  0  0  0  0  0
  151.2863  140.6947  155.9063 C   0  0  0  0  0  0  0  0  0  0  0  0
  150.0632  140.1778  155.1304 C   0  0  2  0  0  0  0  0  0  0  0  0
  150.4156  139.7652  153.8262 O   0  0  0  0  0  0  0  0  0  0  0  0
  149.0709  141.3511  155.0839 C   0  0  0  0  0  0  0  0  0  0  0  0
  149.5045  142.2797  156.1383 N   0  3  0  0  0  0  0  0  0  0  0  0
  152.0289  141.7612  158.3915 O   0  0  0  0  0  0  0  0  0  0  0  0
  151.4151  142.8165  155.4612 H   0  0  0  0  0  0  0  0  0  0  0  0
  149.6208  139.3333  155.6607 H   0  0  0  0  0  0  0  0  0  0  0  0
  153.3151  142.3092  162.7835 H   0  0  0  0  0  0  0  0  0  0  0  0
  151.7053  142.8137  162.2750 H   0  0  0  0  0  0  0  0  0  0  0  0
  153.1165  143.7639  161.8100 H   0  0  0  0  0  0  0  0  0  0  0  0
  153.9436  141.8343  160.4094 H   0  0  0  0  0  0  0  0  0  0  0  0
  152.5427  140.8936  160.8713 H   0  0  0  0  0  0  0  0  0  0  0  0
  152.2297  140.5862  155.3692 H   0  0  0  0  0  0  0  0  0  0  0  0
  151.3762  140.1251  156.8328 H   0  0  0  0  0  0  0  0  0  0  0  0
  149.7266  140.0193  153.2304 H   0  0  0  0  0  0  0  0  0  0  0  0
  149.1339  141.8772  154.1297 H   0  0  0  0  0  0  0  0  0  0  0  0
  148.0368  141.0363  155.2252 H   0  0  0  0  0  0  0  0  0  0  0  0
  149.1201  141.9690  157.0196 H   0  0  0  0  0  0  0  0  0  0  0  0
  149.2126  143.2283  155.9515 H   0  0  0  0  0  0  0  0  0  0  0  0
  1  2  1  0  0  0  0
  1 16  1  0  0  0  0
  1 17  1  0  0  0  0
  1 18  1  0  0  0  0
  2  3  1  0  0  0  0
  2 19  1  0  0  0  0
  2 20  1  0  0  0  0
  3 13  1  0  0  0  0
  3  4  2  0  0  0  0
  4  5  1  0  0  0  0
  5  6  2  0  0  0  0
  6  7  1  0  0  0  0
  6 13  1  0  0  0  0
  7 14  1  0  0  0  0
  7 12  1  0  0  0  0
  7  8  1  0  0  0  0
  8  9  1  0  0  0  0
  8 21  1  0  0  0  0
  8 22  1  0  0  0  0
  9 15  1  0  0  0  0
  9 10  1  0  0  0  0
  9 11  1  0  0  0  0
 10 23  1  0  0  0  0
 11 12  1  0  0  0  0
 11 24  1  0  0  0  0
 11 25  1  0  0  0  0
 12 26  1  0  0  0  0
 12 27  1  0  0  0  0
M  CHG  1  12   1
M  END
> <s_m_source_file>
AV-unprocessed.smi

> <i_m_source_file_index>
42

> <i_lp_mmshare_version>
43012

> <i_f3d_flags>
0

> <s_epik_input>
W0NIM11bQ0gyXWMxbm5jKG8xKVtDQEhdMltDSDJdW0NAQEhdKFtPSF0pW0NIMl1bTkhdMg==

> <s_epik_cmdline>
J2VwaWtfcHl0aG9uJywgJy1waCcsICc3LjAnLCAnLXRuJywgJzgnLCAnLW1hJywgJzIwMCcsICctbWV0YWxfYmluZGluZycsICctaW1hZScsICc8aW5maWxlLm1hZT4nLCAnLW9tYWUnLCAnPG91dGZpbGUubWFlPic=

> <r_lp_tautomer_probability>
1

> <r_epik_Ionization_Penalty>
0.00247063

> <r_epik_Ionization_Penalty_Charging>
0.0024706

> <r_epik_Ionization_Penalty_Neutral>
3.27814e-08

> <r_epik_State_Penalty>
0.00171198

> <r_epik_Charging_Adjusted_Penalty>
0.00418258

> <i_epik_Tot_Q>
1

> <i_epik_Tot_abs_Q>
1

> <r_epik_Metal_State_Penalty>
-0

> <b_epik_Metal_Only>
0

> <s_lp_Force_Field>
OPLS_2005

> <r_lp_Energy>
19.5467

> <b_lp_Chiralities_Consistent>
1

> <s_lp_Variant>
AV-unprocessed.smi:42-3

> <Gold.Version>
5.8.1

> <Gold.Id.Protein>
6NUR|6NUR_protein|mol2

> <Gold.PLP.Fitness>
39.2995

> <Gold.PLP.PLP>
-28.9433

> <Gold.PLP.part.hbond>
-3.0000

> <Gold.PLP.part.metal>
0.0000

> <Gold.PLP.part.buried>
-3.4688

> <Gold.PLP.part.nonpolar>
-20.6838

> <Gold.PLP.part.repulsive>
0.2568

> <Gold.PLP.ligand.clash>
0.0000

> <Gold.PLP.ligand.torsion>
0.1836

> <Gold.PLP.Chemscore.Hbond>
3.5616

> <Gold.PLP.Chemscore.CHOScore>
0.0000

> <Gold.PLP.Chemscore.Metal>
0.0000

> <Gold.Chemscore.Hbonds>
donor molecule, donor type, donor heavy atom, donor atom, acceptor molecule, acceptor atom, score
      L1  H    10    23       P1  7957  0.57
      L1  H    12    27       P1  8028  2.00
      P1  H  7989  7998       L1    10  0.99

> <Gold.PLP.Chemscore.Internal.Correction>
0.0385

> <Gold.Rescore>
     Score         DG    S(hbond)    S(metal)    S(lipo)     H(rot)  DE(clash)    DE(int)     intcor
     12.72     -12.78       1.84        0.00      50.38       1.86       0.01       0.05       ----

> <Gold.Chemscore.Fitness>
12.7248

> <Gold.Chemscore.DG>
-12.7800

> <Gold.Chemscore.ZeroCoef>
-5.4800

> <Gold.Chemscore.Hbond>
1.8440

> <Gold.Chemscore.Metal>
0.0000

> <Gold.Chemscore.Lipo>
50.3755

> <Gold.Chemscore.Internal_Hbond>
0.0000

> <Gold.Chemscore.DEClash>
0.0063

> <Gold.Chemscore.DEInternal>
0.0489

> <Gold.Chemscore.Rot>
1.8567

> <Gold.Chemscore.Internal.Correction>
   9.000000E+99

> <Gold.Chemscore.Hbonds>
donor molecule, donor type, donor heavy atom, donor atom, acceptor molecule, acceptor atom, score
      L1  H    10    23       P1  7957  0.56
      L1  H    12    27       P1  8028  0.95
      P1  H  7989  7998       L1    10  0.10

> <Gold.Chemscore.Hbond.Weighted>
-6.1591

> <Gold.Chemscore.Metal.Weighted>
-0.0000

> <Gold.Chemscore.Lipo.Weighted>
-5.8939

> <Gold.Chemscore.Internal_Hbond.Weighted>
0.0000

> <Gold.Chemscore.DEClash.Weighted>
0.0063

> <Gold.Chemscore.DEInternal.Weighted>
0.0489

> <Gold.Chemscore.Rot.Weighted>
4.7531

> <Gold.Chemscore.Internal.Correction.Weighted>
   9.000000E+99

> <Gold.Protein.RotatedTorsions>
[ 6907 6896 6895 6894 ] final   11.55 input  -60.11 | X-H torsion
[ 7974 7965 7964 7962 ] final   75.12 input  175.53 | X-H torsion
[ 8008 7997 7996 7995 ] final -139.26 input   59.86 | X-H torsion
[ 10167 10162 10161 10158 ] final  165.84 input  -65.29 | X-H torsion
[ 10718 10713 10712 10709 ] final  152.89 input   66.30 | X-H torsion
[ 10763 10752 10751 10750 ] final    9.07 input  -60.55 | X-H torsion
[ 11005 11000 10999 10996 ] final -136.22 input  -57.11 | X-H torsion

> <Gold.Protein.ActiveResidues>
 VAL166  LYS551  ARG553  GLY616  TRP617  ASP618  TYR619  PRO620  LYS621  CYS622 
 ASP623  PHE694  ASN695  SER759  ASP760  ASP761  ALA762  ILE779  LEU786  VAL792 
 PHE793  MET794  SER795  GLU796  ALA797  LYS798  CYS799  TRP800  GLU811  SER814 

> <Gold.Protein.RotatedAtoms>
  151.7561  135.0821  160.0338 H   0  0  0  0  0  0  0  0  0  0  0  0  # atno 6907 bound_to 6896
  152.3384  133.6034  159.5867 H   0  0  0  0  0  0  0  0  0  0  0  0  # atno 6908 bound_to 6896
  150.7464  133.9676  159.3577 H   0  0  0  0  0  0  0  0  0  0  0  0  # atno 6909 bound_to 6896
  145.7197  139.2644  143.1603 H   0  0  0  0  0  0  0  0  0  0  0  0  # atno 7974 bound_to 7965
  155.4419  140.0532  157.3009 H   0  0  0  0  0  0  0  0  0  0  0  0  # atno 8008 bound_to 7997
  154.4814  140.2083  155.9711 H   0  0  0  0  0  0  0  0  0  0  0  0  # atno 8009 bound_to 7997
  156.1211  140.3188  155.8215 H   0  0  0  0  0  0  0  0  0  0  0  0  # atno 8010 bound_to 7997
  139.4913  144.4089  151.9322 H   0  0  0  0  0  0  0  0  0  0  0  0  # atno 10167 bound_to 10162
  157.2519  131.0780  151.1724 H   0  0  0  0  0  0  0  0  0  0  0  0  # atno 10718 bound_to 10713
  153.2180  135.6877  153.8034 H   0  0  0  0  0  0  0  0  0  0  0  0  # atno 10763 bound_to 10752
  153.7243  135.3262  155.3274 H   0  0  0  0  0  0  0  0  0  0  0  0  # atno 10764 bound_to 10752
  154.8255  135.4620  154.1016 H   0  0  0  0  0  0  0  0  0  0  0  0  # atno 10765 bound_to 10752
  140.8825  134.1914  157.4581 H   0  0  0  0  0  0  0  0  0  0  0  0  # atno 11005 bound_to 11000
  146.0637  140.7943  142.9722 LP  0  0  0  0  0  0  0  0  0  0  0  0  # atno 17320 bound_to 7965
  144.6920  140.3236  143.7228 LP  0  0  0  0  0  0  0  0  0  0  0  0  # atno 17321 bound_to 7965
  140.3530  144.3065  150.5946 LP  0  0  0  0  0  0  0  0  0  0  0  0  # atno 17342 bound_to 10162
  140.5468  143.2213  151.7993 LP  0  0  0  0  0  0  0  0  0  0  0  0  # atno 17343 bound_to 10162
  157.3269  130.6965  149.6301 LP  0  0  0  0  0  0  0  0  0  0  0  0  # atno 17370 bound_to 10713
  155.9666  130.4319  150.4940 LP  0  0  0  0  0  0  0  0  0  0  0  0  # atno 17371 bound_to 10713
  139.8721  134.9823  156.5153 LP  0  0  0  0  0  0  0  0  0  0  0  0  # atno 17394 bound_to 11000
  140.8444  133.8180  155.9106 LP  0  0  0  0  0  0  0  0  0  0  0  0  # atno 17395 bound_to 11000

$$$$
