AV-unprocessed.smi:1593|AV-procd|sdf|6412|dock6
  -GOLD-   22720 7 43D 1   1.00000     0.00000
 Structure written by MMmdl.
 36 37  0  0  0  0  0  0  0  0  3 V2000
  148.6974  140.2086  154.4961 C   0  0  0  0  0  0  0  0  0  0  0  0
  149.6576  139.0755  154.6174 C   0  0  0  0  0  0  0  0  0  0  0  0
  149.5054  137.7571  154.9411 C   0  0  0  0  0  0  0  0  0  0  0  0
  150.8300  137.2475  154.8585 C   0  0  0  0  0  0  0  0  0  0  0  0
  151.2045  135.9822  155.1027 N   0  5  0  0  0  0  0  0  0  0  0  0
  150.2722  135.0205  155.2889 C   0  0  0  0  0  0  0  0  0  0  0  0
  150.1208  134.3327  156.3013 O   0  0  0  0  0  0  0  0  0  0  0  0
  149.4660  134.8399  154.2331 N   0  0  0  0  0  0  0  0  0  0  0  0
  148.3801  133.8706  154.1492 C   0  0  0  0  0  0  0  0  0  0  0  0
  148.8079  132.6161  153.3645 C   0  0  0  0  0  0  0  0  0  0  0  0
  147.7855  132.1926  152.3764 N   0  3  0  0  0  0  0  0  0  0  0  0
  146.8001  131.2472  152.9534 C   0  0  0  0  0  0  0  0  0  0  0  0
  145.7933  130.7970  151.8814 C   0  0  0  0  0  0  0  0  0  0  0  0
  145.1478  131.9351  151.3244 O   0  0  0  0  0  0  0  0  0  0  0  0
  146.0708  132.8117  150.6901 C   0  0  0  0  0  0  0  0  0  0  0  0
  147.0892  133.3279  151.7209 C   0  0  0  0  0  0  0  0  0  0  0  0
  151.7105  138.1784  154.5311 N   0  0  0  0  0  0  0  0  0  0  0  0
  150.9653  139.3522  154.3672 O   0  0  0  0  0  0  0  0  0  0  0  0
  147.7358  139.9533  154.9416 H   0  0  0  0  0  0  0  0  0  0  0  0
  148.5296  140.4605  153.4489 H   0  0  0  0  0  0  0  0  0  0  0  0
  149.0787  141.0956  155.0020 H   0  0  0  0  0  0  0  0  0  0  0  0
  148.5928  137.2381  155.1926 H   0  0  0  0  0  0  0  0  0  0  0  0
  149.6214  135.4272  153.4265 H   0  0  0  0  0  0  0  0  0  0  0  0
  148.0456  133.6214  155.1565 H   0  0  0  0  0  0  0  0  0  0  0  0
  147.5371  134.3508  153.6518 H   0  0  0  0  0  0  0  0  0  0  0  0
  149.7374  132.8458  152.8411 H   0  0  0  0  0  0  0  0  0  0  0  0
  149.0310  131.7860  154.0367 H   0  0  0  0  0  0  0  0  0  0  0  0
  147.3150  130.3754  153.3593 H   0  0  0  0  0  0  0  0  0  0  0  0
  146.2758  131.7252  153.7826 H   0  0  0  0  0  0  0  0  0  0  0  0
  146.2899  130.2245  151.0960 H   0  0  0  0  0  0  0  0  0  0  0  0
  145.0402  130.1443  152.3232 H   0  0  0  0  0  0  0  0  0  0  0  0
  146.5736  132.2986  149.8686 H   0  0  0  0  0  0  0  0  0  0  0  0
  145.5219  133.6470  150.2548 H   0  0  0  0  0  0  0  0  0  0  0  0
  146.5808  133.9313  152.4747 H   0  0  0  0  0  0  0  0  0  0  0  0
  147.8047  133.9797  151.2212 H   0  0  0  0  0  0  0  0  0  0  0  0
  148.2762  131.6857  151.6535 H   0  0  0  0  0  0  0  0  0  0  0  0
  1  2  1  0  0  0  0
  1 19  1  0  0  0  0
  1 20  1  0  0  0  0
  1 21  1  0  0  0  0
  2 18  1  0  0  0  0
  2  3  2  0  0  0  0
  3  4  1  0  0  0  0
  3 22  1  0  0  0  0
  4  5  1  0  0  0  0
  4 17  2  0  0  0  0
  5  6  1  0  0  0  0
  6  7  2  0  0  0  0
  6  8  1  0  0  0  0
  8  9  1  0  0  0  0
  8 23  1  0  0  0  0
  9 10  1  0  0  0  0
  9 24  1  0  0  0  0
  9 25  1  0  0  0  0
 10 11  1  0  0  0  0
 10 26  1  0  0  0  0
 10 27  1  0  0  0  0
 11 16  1  0  0  0  0
 11 12  1  0  0  0  0
 11 36  1  0  0  0  0
 12 13  1  0  0  0  0
 12 28  1  0  0  0  0
 12 29  1  0  0  0  0
 13 14  1  0  0  0  0
 13 30  1  0  0  0  0
 13 31  1  0  0  0  0
 14 15  1  0  0  0  0
 15 16  1  0  0  0  0
 15 32  1  0  0  0  0
 15 33  1  0  0  0  0
 16 34  1  0  0  0  0
 16 35  1  0  0  0  0
 17 18  1  0  0  0  0
M  CHG  1   5  -1
M  CHG  1  11   1
M  END
> <s_m_source_file>
AV-unprocessed.smi

> <i_m_source_file_index>
1593

> <i_lp_mmshare_version>
43012

> <i_f3d_flags>
0

> <s_epik_input>
W0NIM11jMVtjSF1jKG5vMSlbTkhdQyg9TylbTkhdW0NIMl1bQ0gyXU4yW0NIMl1bQ0gyXU9bQ0gyXVtDSDJdMg==

> <s_epik_cmdline>
J2VwaWtfcHl0aG9uJywgJy1waCcsICc3LjAnLCAnLXRuJywgJzgnLCAnLW1hJywgJzIwMCcsICctbWV0YWxfYmluZGluZycsICctaW1hZScsICc8aW5maWxlLm1hZT4nLCAnLW9tYWUnLCAnPG91dGZpbGUubWFlPic=

> <r_epik_Ionization_Penalty>
6.73013

> <r_epik_Ionization_Penalty_Charging>
6.73004

> <r_epik_Ionization_Penalty_Neutral>
9.27027e-05

> <r_epik_State_Penalty>
6.93052

> <r_epik_Charging_Adjusted_Penalty>
13.6606

> <i_epik_Tot_Q>
0

> <i_epik_Tot_abs_Q>
2

> <r_epik_Metal_State_Penalty>
2.86736

> <b_epik_Metal_Only>
1

> <s_lp_Force_Field>
OPLS_2005

> <r_lp_Energy>
3.0075

> <b_lp_Chiralities_Consistent>
1

> <s_lp_Variant>
AV-unprocessed.smi:1593-4

> <Gold.Version>
5.8.1

> <Gold.Id.Protein>
6NUR|6NUR_protein|mol2

> <Gold.PLP.Fitness>
41.0493

> <Gold.PLP.PLP>
-29.9284

> <Gold.PLP.part.hbond>
-4.0000

> <Gold.PLP.part.metal>
0.0000

> <Gold.PLP.part.buried>
-5.9198

> <Gold.PLP.part.nonpolar>
-21.4307

> <Gold.PLP.part.repulsive>
0.5352

> <Gold.PLP.ligand.clash>
0.0000

> <Gold.PLP.ligand.torsion>
1.3566

> <Gold.PLP.Chemscore.Hbond>
4.5856

> <Gold.PLP.Chemscore.CHOScore>
0.0000

> <Gold.PLP.Chemscore.Metal>
0.0000

> <Gold.Chemscore.Hbonds>
donor molecule, donor type, donor heavy atom, donor atom, acceptor molecule, acceptor atom, score
      L1  H     8    23       P1  7948  0.60
      L1  H    11    36       P1 10747  1.00
      P1  H  7989  7998       L1    18  1.00
      P1  H 10752 10765       L1     5  2.00

> <Gold.PLP.Chemscore.Internal.Correction>
0.0773

> <Gold.Rescore>
     Score         DG    S(hbond)    S(metal)    S(lipo)     H(rot)  DE(clash)    DE(int)     intcor
     16.68     -18.06       2.92        0.00      59.84       1.62       0.03       1.35       ----

> <Gold.Chemscore.Fitness>
16.6841

> <Gold.Chemscore.DG>
-18.0646

> <Gold.Chemscore.ZeroCoef>
-5.4800

> <Gold.Chemscore.Hbond>
2.9153

> <Gold.Chemscore.Metal>
0.0000

> <Gold.Chemscore.Lipo>
59.8437

> <Gold.Chemscore.Internal_Hbond>
0.0000

> <Gold.Chemscore.DEClash>
0.0279

> <Gold.Chemscore.DEInternal>
1.3525

> <Gold.Chemscore.Rot>
1.6228

> <Gold.Chemscore.Internal.Correction>
   9.000000E+99

> <Gold.Chemscore.Hbonds>
donor molecule, donor type, donor heavy atom, donor atom, acceptor molecule, acceptor atom, score
      L1  H     8    23       P1  7948  0.04
      L1  H    11    36       P1 10747  1.00
      P1  H  7989  7998       L1    18  0.99
      P1  H 10752 10765       L1     5  0.92

> <Gold.Chemscore.Hbond.Weighted>
-9.7371

> <Gold.Chemscore.Metal.Weighted>
-0.0000

> <Gold.Chemscore.Lipo.Weighted>
-7.0017

> <Gold.Chemscore.Internal_Hbond.Weighted>
0.0000

> <Gold.Chemscore.DEClash.Weighted>
0.0279

> <Gold.Chemscore.DEInternal.Weighted>
1.3525

> <Gold.Chemscore.Rot.Weighted>
4.1542

> <Gold.Chemscore.Internal.Correction.Weighted>
   9.000000E+99

> <Gold.Protein.RotatedTorsions>
[ 6907 6896 6895 6894 ] final   43.19 input  -60.11 | X-H torsion
[ 7974 7965 7964 7962 ] final -134.52 input  175.53 | X-H torsion
[ 8008 7997 7996 7995 ] final   72.21 input   59.86 | X-H torsion
[ 10167 10162 10161 10158 ] final  -96.55 input  -65.29 | X-H torsion
[ 10718 10713 10712 10709 ] final  -25.00 input   66.30 | X-H torsion
[ 10763 10752 10751 10750 ] final -160.39 input  -60.55 | X-H torsion
[ 11005 11000 10999 10996 ] final  -50.17 input  -57.11 | X-H torsion

> <Gold.Protein.ActiveResidues>
 VAL166  LYS551  ARG553  GLY616  TRP617  ASP618  TYR619  PRO620  LYS621  CYS622 
 ASP623  PHE694  ASN695  SER759  ASP760  ASP761  ALA762  ILE779  LEU786  VAL792 
 PHE793  MET794  SER795  GLU796  ALA797  LYS798  CYS799  TRP800  GLU811  SER814 

> <Gold.Protein.RotatedAtoms>
  152.2172  134.8447  160.0490 H   0  0  0  0  0  0  0  0  0  0  0  0  # atno 6907 bound_to 6896
  151.9243  133.3589  159.3916 H   0  0  0  0  0  0  0  0  0  0  0  0  # atno 6908 bound_to 6896
  150.6991  134.4527  159.5388 H   0  0  0  0  0  0  0  0  0  0  0  0  # atno 6909 bound_to 6896
  144.9095  140.6876  143.5034 H   0  0  0  0  0  0  0  0  0  0  0  0  # atno 7974 bound_to 7965
  155.7654  140.3485  155.5219 H   0  0  0  0  0  0  0  0  0  0  0  0  # atno 8008 bound_to 7997
  155.8873  140.1012  157.1464 H   0  0  0  0  0  0  0  0  0  0  0  0  # atno 8009 bound_to 7997
  154.4030  140.1311  156.4259 H   0  0  0  0  0  0  0  0  0  0  0  0  # atno 8010 bound_to 7997
  140.2926  143.3212  152.0330 H   0  0  0  0  0  0  0  0  0  0  0  0  # atno 10167 bound_to 10162
  156.4701  130.4522  149.6874 H   0  0  0  0  0  0  0  0  0  0  0  0  # atno 10718 bound_to 10713
  154.7394  135.3065  154.8754 H   0  0  0  0  0  0  0  0  0  0  0  0  # atno 10763 bound_to 10752
  153.9573  135.6757  153.4749 H   0  0  0  0  0  0  0  0  0  0  0  0  # atno 10764 bound_to 10752
  153.0994  135.4919  154.8763 H   0  0  0  0  0  0  0  0  0  0  0  0  # atno 10765 bound_to 10752
  141.0801  133.6655  156.3693 H   0  0  0  0  0  0  0  0  0  0  0  0  # atno 11005 bound_to 11000
  145.3478  139.1714  143.4451 LP  0  0  0  0  0  0  0  0  0  0  0  0  # atno 17320 bound_to 7965
  146.3151  140.3527  142.8657 LP  0  0  0  0  0  0  0  0  0  0  0  0  # atno 17321 bound_to 7965
  139.4934  144.6514  151.6667 LP  0  0  0  0  0  0  0  0  0  0  0  0  # atno 17342 bound_to 10162
  140.5719  144.0094  150.6221 LP  0  0  0  0  0  0  0  0  0  0  0  0  # atno 17343 bound_to 10162
  156.3627  130.7490  151.2464 LP  0  0  0  0  0  0  0  0  0  0  0  0  # atno 17370 bound_to 10713
  157.7492  131.0345  150.4323 LP  0  0  0  0  0  0  0  0  0  0  0  0  # atno 17371 bound_to 10713
  140.5487  134.6049  157.5401 LP  0  0  0  0  0  0  0  0  0  0  0  0  # atno 17394 bound_to 11000
  139.9614  134.7445  156.0228 LP  0  0  0  0  0  0  0  0  0  0  0  0  # atno 17395 bound_to 11000

$$$$
