AV-unprocessed.smi:2077|AV-procd|sdf|8462|dock8
  -GOLD-   2272011163D 1   1.00000     0.00000
 Structure written by MMmdl.
 38 40  0  0  0  0  0  0  0  0  1 V2000
  155.0528  139.2350  160.6308 C   0  0  0  0  0  0  0  0  0  0  0  0
  154.2781  140.4814  160.7803 N   0  0  0  0  0  0  0  0  0  0  0  0
  153.5246  140.9068  159.7177 C   0  0  0  0  0  0  0  0  0  0  0  0
  153.4323  140.3217  158.6375 O   0  0  0  0  0  0  0  0  0  0  0  0
  152.8059  142.1592  159.9656 C   0  0  0  0  0  0  0  0  0  0  0  0
  152.8683  142.8267  161.1425 C   0  0  0  0  0  0  0  0  0  0  0  0
  152.0938  143.9812  161.1113 N   0  0  0  0  0  0  0  0  0  0  0  0
  151.5903  143.9448  159.8763 C   0  0  0  0  0  0  0  0  0  0  0  0
  151.9659  142.8883  159.1267 N   0  0  0  0  0  0  0  0  0  0  0  0
  151.5662  142.6092  157.7565 C   0  0  0  0  0  0  0  0  0  0  0  0
  150.2698  141.7799  157.6771 C   0  0  1  0  0  0  0  0  0  0  0  0
  149.1500  142.6448  157.6801 O   0  0  0  0  0  0  0  0  0  0  0  0
  150.2827  140.8516  156.4732 C   0  0  0  0  0  0  0  0  0  0  0  0
  149.1849  140.8021  155.5856 C   0  0  0  0  0  0  0  0  0  0  0  0
  149.2149  139.9461  154.4672 C   0  0  0  0  0  0  0  0  0  0  0  0
  150.3428  139.1376  154.2285 C   0  0  0  0  0  0  0  0  0  0  0  0
  151.4416  139.1864  155.1075 C   0  0  0  0  0  0  0  0  0  0  0  0
  152.5284  138.4128  154.8764 F   0  0  0  0  0  0  0  0  0  0  0  0
  151.4118  140.0415  156.2261 C   0  0  0  0  0  0  0  0  0  0  0  0
  153.6670  142.2924  162.1839 N   0  0  0  0  0  0  0  0  0  0  0  0
  153.7079  143.0381  163.4453 C   0  0  0  0  0  0  0  0  0  0  0  0
  154.3753  141.1288  162.0011 C   0  0  0  0  0  0  0  0  0  0  0  0
  155.0814  140.6726  162.9045 O   0  0  0  0  0  0  0  0  0  0  0  0
  154.9744  138.7597  159.6524 H   0  0  0  0  0  0  0  0  0  0  0  0
  154.7259  138.4948  161.3627 H   0  0  0  0  0  0  0  0  0  0  0  0
  156.1147  139.4244  160.7960 H   0  0  0  0  0  0  0  0  0  0  0  0
  150.9250  144.7106  159.5046 H   0  0  0  0  0  0  0  0  0  0  0  0
  151.4453  143.5555  157.2270 H   0  0  0  0  0  0  0  0  0  0  0  0
  152.3854  142.0883  157.2603 H   0  0  0  0  0  0  0  0  0  0  0  0
  150.1850  141.1654  158.5743 H   0  0  0  0  0  0  0  0  0  0  0  0
  149.3258  143.3639  157.0926 H   0  0  0  0  0  0  0  0  0  0  0  0
  148.3174  141.4228  155.7571 H   0  0  0  0  0  0  0  0  0  0  0  0
  148.3733  139.9116  153.7913 H   0  0  0  0  0  0  0  0  0  0  0  0
  150.3662  138.4821  153.3703 H   0  0  0  0  0  0  0  0  0  0  0  0
  152.2616  140.0754  156.8927 H   0  0  0  0  0  0  0  0  0  0  0  0
  154.2790  142.5529  164.2374 H   0  0  0  0  0  0  0  0  0  0  0  0
  152.6958  143.1842  163.8240 H   0  0  0  0  0  0  0  0  0  0  0  0
  154.1484  144.0218  163.2801 H   0  0  0  0  0  0  0  0  0  0  0  0
  1  2  1  0  0  0  0
  1 24  1  0  0  0  0
  1 25  1  0  0  0  0
  1 26  1  0  0  0  0
  2 22  1  0  0  0  0
  2  3  1  0  0  0  0
  3  4  2  0  0  0  0
  3  5  1  0  0  0  0
  5  9  1  0  0  0  0
  5  6  2  0  0  0  0
  6  7  1  0  0  0  0
  6 20  1  0  0  0  0
  7  8  2  0  0  0  0
  8  9  1  0  0  0  0
  8 27  1  0  0  0  0
  9 10  1  0  0  0  0
 10 11  1  0  0  0  0
 10 28  1  0  0  0  0
 10 29  1  0  0  0  0
 11 12  1  0  0  0  0
 11 13  1  0  0  0  0
 11 30  1  0  0  0  0
 12 31  1  0  0  0  0
 13 19  1  0  0  0  0
 13 14  2  0  0  0  0
 14 15  1  0  0  0  0
 14 32  1  0  0  0  0
 15 16  2  0  0  0  0
 15 33  1  0  0  0  0
 16 17  1  0  0  0  0
 16 34  1  0  0  0  0
 17 18  1  0  0  0  0
 17 19  2  0  0  0  0
 19 35  1  0  0  0  0
 20 21  1  0  0  0  0
 20 22  1  0  0  0  0
 21 36  1  0  0  0  0
 21 37  1  0  0  0  0
 21 38  1  0  0  0  0
 22 23  2  0  0  0  0
M  END
> <s_m_source_file>
AV-unprocessed.smi

> <i_m_source_file_index>
2077

> <i_lp_mmshare_version>
43012

> <i_f3d_flags>
0

> <s_epik_input>
Tz1jMW4oW0NIM10pYyg9TyluKFtDSDNdKWMoYzEyKW5bY0hdbjJbQ0gyXVtDQEhdKFtPSF0pYzNbY0hdW2NIXVtjSF1jKEYpW2NIXTM=

> <s_epik_cmdline>
J2VwaWtfcHl0aG9uJywgJy1waCcsICc3LjAnLCAnLXRuJywgJzgnLCAnLW1hJywgJzIwMCcsICctbWV0YWxfYmluZGluZycsICctaW1hZScsICc8aW5maWxlLm1hZT4nLCAnLW9tYWUnLCAnPG91dGZpbGUubWFlPic=

> <r_lp_tautomer_probability>
1

> <r_epik_Ionization_Penalty>
1.5338e-06

> <r_epik_Ionization_Penalty_Charging>
3.74189e-09

> <r_epik_Ionization_Penalty_Neutral>
1.53006e-06

> <r_epik_State_Penalty>
-0

> <r_epik_Charging_Adjusted_Penalty>
3.74189e-09

> <i_epik_Tot_Q>
0

> <i_epik_Tot_abs_Q>
0

> <r_epik_Metal_State_Penalty>
-0

> <b_epik_Metal_Only>
0

> <s_lp_Force_Field>
OPLS_2005

> <r_lp_Energy>
35.2463

> <b_lp_Chiralities_Consistent>
1

> <s_lp_Variant>
AV-unprocessed.smi:2077-2

> <Gold.Version>
5.8.1

> <Gold.Id.Protein>
6NUR|6NUR_protein|mol2

> <Gold.PLP.Fitness>
58.5516

> <Gold.PLP.PLP>
-54.8288

> <Gold.PLP.part.hbond>
-2.7642

> <Gold.PLP.part.metal>
0.0000

> <Gold.PLP.part.buried>
-1.6035

> <Gold.PLP.part.nonpolar>
-47.7081

> <Gold.PLP.part.repulsive>
0.1302

> <Gold.PLP.ligand.clash>
0.0000

> <Gold.PLP.ligand.torsion>
0.9219

> <Gold.PLP.Chemscore.Hbond>
1.8480

> <Gold.PLP.Chemscore.CHOScore>
0.0000

> <Gold.PLP.Chemscore.Metal>
0.0000

> <Gold.Chemscore.Hbonds>
donor molecule, donor type, donor heavy atom, donor atom, acceptor molecule, acceptor atom, score
      L1  H    12    31       P1  8028  1.00
      P1  H  7997  8010       L1     4  0.86

> <Gold.PLP.Chemscore.Internal.Correction>
0.0227

> <Gold.Rescore>
     Score         DG    S(hbond)    S(metal)    S(lipo)     H(rot)  DE(clash)    DE(int)     intcor
     14.65     -15.62       1.87        0.00      82.13       2.24       0.11       0.86       ----

> <Gold.Chemscore.Fitness>
14.6479

> <Gold.Chemscore.DG>
-15.6213

> <Gold.Chemscore.ZeroCoef>
-5.4800

> <Gold.Chemscore.Hbond>
1.8744

> <Gold.Chemscore.Metal>
0.0000

> <Gold.Chemscore.Lipo>
82.1309

> <Gold.Chemscore.Internal_Hbond>
0.0000

> <Gold.Chemscore.DEClash>
0.1120

> <Gold.Chemscore.DEInternal>
0.8614

> <Gold.Chemscore.Rot>
2.2377

> <Gold.Chemscore.Internal.Correction>
   9.000000E+99

> <Gold.Chemscore.Hbonds>
donor molecule, donor type, donor heavy atom, donor atom, acceptor molecule, acceptor atom, score
      L1  H    12    31       P1  8028  0.83
      P1  H  7997  8010       L1     4  0.82

> <Gold.Chemscore.Hbond.Weighted>
-6.2606

> <Gold.Chemscore.Metal.Weighted>
-0.0000

> <Gold.Chemscore.Lipo.Weighted>
-9.6093

> <Gold.Chemscore.Internal_Hbond.Weighted>
0.0000

> <Gold.Chemscore.DEClash.Weighted>
0.1120

> <Gold.Chemscore.DEInternal.Weighted>
0.8614

> <Gold.Chemscore.Rot.Weighted>
5.7286

> <Gold.Chemscore.Internal.Correction.Weighted>
   9.000000E+99

> <Gold.Protein.RotatedTorsions>
[ 6907 6896 6895 6894 ] final   19.32 input  -60.11 | X-H torsion
[ 7974 7965 7964 7962 ] final -125.60 input  175.53 | X-H torsion
[ 8008 7997 7996 7995 ] final   21.53 input   59.86 | X-H torsion
[ 10167 10162 10161 10158 ] final  -97.97 input  -65.29 | X-H torsion
[ 10718 10713 10712 10709 ] final   -4.72 input   66.30 | X-H torsion
[ 10763 10752 10751 10750 ] final  -27.63 input  -60.55 | X-H torsion
[ 11005 11000 10999 10996 ] final -141.30 input  -57.11 | X-H torsion

> <Gold.Protein.ActiveResidues>
 VAL166  LYS551  ARG553  GLY616  TRP617  ASP618  TYR619  PRO620  LYS621  CYS622 
 ASP623  PHE694  ASN695  SER759  ASP760  ASP761  ALA762  ILE779  LEU786  VAL792 
 PHE793  MET794  SER795  GLU796  ALA797  LYS798  CYS799  TRP800  GLU811  SER814 

> <Gold.Protein.RotatedAtoms>
  151.8791  135.0460  160.0486 H   0  0  0  0  0  0  0  0  0  0  0  0  # atno 6907 bound_to 6896
  152.2527  133.5224  159.5343 H   0  0  0  0  0  0  0  0  0  0  0  0  # atno 6908 bound_to 6896
  150.7089  134.0854  159.3955 H   0  0  0  0  0  0  0  0  0  0  0  0  # atno 6909 bound_to 6896
  144.9959  140.7775  143.4526 H   0  0  0  0  0  0  0  0  0  0  0  0  # atno 7974 bound_to 7965
  154.9521  140.3067  155.5070 H   0  0  0  0  0  0  0  0  0  0  0  0  # atno 8008 bound_to 7997
  156.2986  140.2317  156.4537 H   0  0  0  0  0  0  0  0  0  0  0  0  # atno 8009 bound_to 7997
  154.8045  140.0432  157.1286 H   0  0  0  0  0  0  0  0  0  0  0  0  # atno 8010 bound_to 7997
  140.2778  143.3301  152.0471 H   0  0  0  0  0  0  0  0  0  0  0  0  # atno 10167 bound_to 10162
  156.7571  130.5258  149.5792 H   0  0  0  0  0  0  0  0  0  0  0  0  # atno 10718 bound_to 10713
  153.7352  135.6936  153.4980 H   0  0  0  0  0  0  0  0  0  0  0  0  # atno 10763 bound_to 10752
  153.2108  135.4403  155.0376 H   0  0  0  0  0  0  0  0  0  0  0  0  # atno 10764 bound_to 10752
  154.8239  135.3436  154.6880 H   0  0  0  0  0  0  0  0  0  0  0  0  # atno 10765 bound_to 10752
  140.8338  134.2485  157.4844 H   0  0  0  0  0  0  0  0  0  0  0  0  # atno 11005 bound_to 11000
  145.2221  139.2154  143.5087 LP  0  0  0  0  0  0  0  0  0  0  0  0  # atno 17320 bound_to 7965
  146.3441  140.2081  142.8590 LP  0  0  0  0  0  0  0  0  0  0  0  0  # atno 17321 bound_to 7965
  139.4971  144.6612  151.6459 LP  0  0  0  0  0  0  0  0  0  0  0  0  # atno 17342 bound_to 10162
  140.5837  143.9902  150.6283 LP  0  0  0  0  0  0  0  0  0  0  0  0  # atno 17343 bound_to 10162
  156.1363  130.6213  151.0405 LP  0  0  0  0  0  0  0  0  0  0  0  0  # atno 17370 bound_to 10713
  157.6751  131.0852  150.7515 LP  0  0  0  0  0  0  0  0  0  0  0  0  # atno 17371 bound_to 10713
  139.8704  134.9600  156.4349 LP  0  0  0  0  0  0  0  0  0  0  0  0  # atno 17394 bound_to 11000
  140.8970  133.7807  155.9636 LP  0  0  0  0  0  0  0  0  0  0  0  0  # atno 17395 bound_to 11000

$$$$
