AV-unprocessed.smi:2160|AV-procd|sdf|8797|dock5
  -GOLD-   2272011583D 1   1.00000     0.00000
 Structure written by MMmdl.
 43 45  0  0  0  0  0  0  0  0  1 V2000
  143.5390  145.7022  155.0272 C   0  0  0  0  0  0  0  0  0  0  0  0
  143.8135  144.5425  155.7994 O   0  0  0  0  0  0  0  0  0  0  0  0
  144.6589  143.5933  155.2660 C   0  0  0  0  0  0  0  0  0  0  0  0
  145.3154  143.7232  154.0163 C   0  0  0  0  0  0  0  0  0  0  0  0
  146.1637  142.7016  153.5463 C   0  0  0  0  0  0  0  0  0  0  0  0
  146.3761  141.5404  154.3159 C   0  0  0  0  0  0  0  0  0  0  0  0
  147.2764  140.4371  153.7913 C   0  0  0  0  0  0  0  0  0  0  0  0
  148.4332  140.2651  154.5933 O   0  0  0  0  0  0  0  0  0  0  0  0
  149.1050  141.4830  154.8673 C   0  0  0  0  0  0  0  0  0  0  0  0
  149.6485  141.4360  156.3024 C   0  0  2  0  0  0  0  0  0  0  0  0
  148.8339  142.2499  157.1229 O   0  0  0  0  0  0  0  0  0  0  0  0
  151.1138  141.9048  156.3931 C   0  0  0  0  0  0  0  0  0  0  0  0
  151.6111  141.8967  157.7565 N   0  0  0  0  0  0  0  0  0  0  0  0
  152.1017  140.8463  158.4423 C   0  0  0  0  0  0  0  0  0  0  0  0
  152.5046  141.0683  159.6907 N   0  0  0  0  0  0  0  0  0  0  0  0
  152.2455  142.4212  159.8312 C   0  0  0  0  0  0  0  0  0  0  0  0
  152.4476  143.2856  160.9311 C   0  0  0  0  0  0  0  0  0  0  0  0
  152.1011  144.6502  160.8407 C   0  0  0  0  0  0  0  0  0  0  0  0
  151.5483  145.1707  159.6524 C   0  0  0  0  0  0  0  0  0  0  0  0
  151.3377  144.3290  158.5434 C   0  0  0  0  0  0  0  0  0  0  0  0
  151.6850  142.9687  158.6381 C   0  0  0  0  0  0  0  0  0  0  0  0
  145.7181  141.4022  155.5553 C   0  0  0  0  0  0  0  0  0  0  0  0
  144.8701  142.4237  156.0244 C   0  0  0  0  0  0  0  0  0  0  0  0
  142.8622  146.3520  155.5819 H   0  0  0  0  0  0  0  0  0  0  0  0
  143.0522  145.4480  154.0846 H   0  0  0  0  0  0  0  0  0  0  0  0
  144.4475  146.2705  154.8237 H   0  0  0  0  0  0  0  0  0  0  0  0
  145.1833  144.5972  153.3969 H   0  0  0  0  0  0  0  0  0  0  0  0
  146.6526  142.8145  152.5898 H   0  0  0  0  0  0  0  0  0  0  0  0
  146.7006  139.5108  153.7632 H   0  0  0  0  0  0  0  0  0  0  0  0
  147.5735  140.6694  152.7672 H   0  0  0  0  0  0  0  0  0  0  0  0
  149.9170  141.6427  154.1558 H   0  0  0  0  0  0  0  0  0  0  0  0
  148.4034  142.3120  154.7586 H   0  0  0  0  0  0  0  0  0  0  0  0
  149.5685  140.4136  156.6743 H   0  0  0  0  0  0  0  0  0  0  0  0
  149.0097  143.1553  156.9174 H   0  0  0  0  0  0  0  0  0  0  0  0
  151.7564  141.2545  155.7982 H   0  0  0  0  0  0  0  0  0  0  0  0
  151.2238  142.9097  155.9829 H   0  0  0  0  0  0  0  0  0  0  0  0
  152.1685  139.8634  157.9992 H   0  0  0  0  0  0  0  0  0  0  0  0
  152.8704  142.8982  161.8460 H   0  0  0  0  0  0  0  0  0  0  0  0
  152.2606  145.3009  161.6879 H   0  0  0  0  0  0  0  0  0  0  0  0
  151.2861  146.2169  159.5921 H   0  0  0  0  0  0  0  0  0  0  0  0
  150.9157  144.7227  157.6307 H   0  0  0  0  0  0  0  0  0  0  0  0
  145.8593  140.5136  156.1530 H   0  0  0  0  0  0  0  0  0  0  0  0
  144.3742  142.3070  156.9769 H   0  0  0  0  0  0  0  0  0  0  0  0
  1  2  1  0  0  0  0
  1 24  1  0  0  0  0
  1 25  1  0  0  0  0
  1 26  1  0  0  0  0
  2  3  1  0  0  0  0
  3 23  1  0  0  0  0
  3  4  2  0  0  0  0
  4  5  1  0  0  0  0
  4 27  1  0  0  0  0
  5  6  2  0  0  0  0
  5 28  1  0  0  0  0
  6  7  1  0  0  0  0
  6 22  1  0  0  0  0
  7  8  1  0  0  0  0
  7 29  1  0  0  0  0
  7 30  1  0  0  0  0
  8  9  1  0  0  0  0
  9 10  1  0  0  0  0
  9 31  1  0  0  0  0
  9 32  1  0  0  0  0
 10 11  1  0  0  0  0
 10 12  1  0  0  0  0
 10 33  1  0  0  0  0
 11 34  1  0  0  0  0
 12 13  1  0  0  0  0
 12 35  1  0  0  0  0
 12 36  1  0  0  0  0
 13 21  1  0  0  0  0
 13 14  1  0  0  0  0
 14 15  2  0  0  0  0
 14 37  1  0  0  0  0
 15 16  1  0  0  0  0
 16 21  2  0  0  0  0
 16 17  1  0  0  0  0
 17 18  2  0  0  0  0
 17 38  1  0  0  0  0
 18 19  1  0  0  0  0
 18 39  1  0  0  0  0
 19 20  2  0  0  0  0
 19 40  1  0  0  0  0
 20 21  1  0  0  0  0
 20 41  1  0  0  0  0
 22 23  2  0  0  0  0
 22 42  1  0  0  0  0
 23 43  1  0  0  0  0
M  END
> <s_m_source_file>
AV-unprocessed.smi

> <i_m_source_file_index>
2160

> <i_lp_mmshare_version>
43012

> <i_f3d_flags>
0

> <s_epik_input>
W0NIM11PYzFbY0hdW2NIXWMoW2NIXVtjSF0xKVtDSDJdT1tDSDJdW0NASF0oW09IXSlbQ0gyXW4oW2NIXW4yKWMoYzIzKVtjSF1bY0hdW2NIXVtjSF0z

> <s_epik_cmdline>
J2VwaWtfcHl0aG9uJywgJy1waCcsICc3LjAnLCAnLXRuJywgJzgnLCAnLW1hJywgJzIwMCcsICctbWV0YWxfYmluZGluZycsICctaW1hZScsICc8aW5maWxlLm1hZT4nLCAnLW9tYWUnLCAnPG91dGZpbGUubWFlPic=

> <r_lp_tautomer_probability>
1

> <r_epik_Ionization_Penalty>
0.0713119

> <r_epik_Ionization_Penalty_Charging>
0

> <r_epik_Ionization_Penalty_Neutral>
0.0713119

> <r_epik_State_Penalty>
0.06259

> <r_epik_Charging_Adjusted_Penalty>
0.06259

> <i_epik_Tot_Q>
0

> <i_epik_Tot_abs_Q>
0

> <r_epik_Metal_State_Penalty>
6.60119e-05

> <b_epik_Metal_Only>
0

> <s_lp_Force_Field>
OPLS_2005

> <r_lp_Energy>
16.653

> <b_lp_Chiralities_Consistent>
1

> <s_lp_Variant>
AV-unprocessed.smi:2160-1

> <Gold.Version>
5.8.1

> <Gold.Id.Protein>
6NUR|6NUR_protein|mol2

> <Gold.PLP.Fitness>
51.1984

> <Gold.PLP.PLP>
-50.6880

> <Gold.PLP.part.hbond>
-1.0000

> <Gold.PLP.part.metal>
0.0000

> <Gold.PLP.part.buried>
-9.9241

> <Gold.PLP.part.nonpolar>
-40.5354

> <Gold.PLP.part.repulsive>
0.1654

> <Gold.PLP.ligand.clash>
0.0000

> <Gold.PLP.ligand.torsion>
1.3017

> <Gold.PLP.Chemscore.Hbond>
1.0000

> <Gold.PLP.Chemscore.CHOScore>
0.0000

> <Gold.PLP.Chemscore.Metal>
0.0000

> <Gold.Chemscore.Hbonds>
donor molecule, donor type, donor heavy atom, donor atom, acceptor molecule, acceptor atom, score
      L1  H    11    34       P1  8028  1.00

> <Gold.PLP.Chemscore.Internal.Correction>
0.1139

> <Gold.Rescore>
     Score         DG    S(hbond)    S(metal)    S(lipo)     H(rot)  DE(clash)    DE(int)     intcor
     15.91     -17.56       0.98        0.00     132.87       2.63       0.11       1.54       ----

> <Gold.Chemscore.Fitness>
15.9084

> <Gold.Chemscore.DG>
-17.5554

> <Gold.Chemscore.ZeroCoef>
-5.4800

> <Gold.Chemscore.Hbond>
0.9774

> <Gold.Chemscore.Metal>
0.0000

> <Gold.Chemscore.Lipo>
132.8695

> <Gold.Chemscore.Internal_Hbond>
0.0000

> <Gold.Chemscore.DEClash>
0.1071

> <Gold.Chemscore.DEInternal>
1.5399

> <Gold.Chemscore.Rot>
2.6308

> <Gold.Chemscore.Internal.Correction>
   9.000000E+99

> <Gold.Chemscore.Hbonds>
donor molecule, donor type, donor heavy atom, donor atom, acceptor molecule, acceptor atom, score
      L1  H    11    34       P1  8028  0.81

> <Gold.Chemscore.Hbond.Weighted>
-3.2644

> <Gold.Chemscore.Metal.Weighted>
-0.0000

> <Gold.Chemscore.Lipo.Weighted>
-15.5457

> <Gold.Chemscore.Internal_Hbond.Weighted>
0.0000

> <Gold.Chemscore.DEClash.Weighted>
0.1071

> <Gold.Chemscore.DEInternal.Weighted>
1.5399

> <Gold.Chemscore.Rot.Weighted>
6.7347

> <Gold.Chemscore.Internal.Correction.Weighted>
   9.000000E+99

> <Gold.Protein.RotatedTorsions>
[ 6907 6896 6895 6894 ] final   88.98 input  -60.11 | X-H torsion
[ 7974 7965 7964 7962 ] final   33.93 input  175.53 | X-H torsion
[ 8008 7997 7996 7995 ] final -165.67 input   59.86 | X-H torsion
[ 10167 10162 10161 10158 ] final -124.83 input  -65.29 | X-H torsion
[ 10718 10713 10712 10709 ] final   18.83 input   66.30 | X-H torsion
[ 10763 10752 10751 10750 ] final  134.21 input  -60.55 | X-H torsion
[ 11005 11000 10999 10996 ] final  -39.12 input  -57.11 | X-H torsion

> <Gold.Protein.ActiveResidues>
 VAL166  LYS551  ARG553  GLY616  TRP617  ASP618  TYR619  PRO620  LYS621  CYS622 
 ASP623  PHE694  ASN695  SER759  ASP760  ASP761  ALA762  ILE779  LEU786  VAL792 
 PHE793  MET794  SER795  GLU796  ALA797  LYS798  CYS799  TRP800  GLU811  SER814 

> <Gold.Protein.RotatedAtoms>
  152.5431  134.2038  159.8722 H   0  0  0  0  0  0  0  0  0  0  0  0  # atno 6907 bound_to 6896
  151.2025  133.4596  159.2604 H   0  0  0  0  0  0  0  0  0  0  0  0  # atno 6908 bound_to 6896
  151.0976  134.9965  159.8488 H   0  0  0  0  0  0  0  0  0  0  0  0  # atno 6909 bound_to 6896
  146.1387  139.6334  142.9177 H   0  0  0  0  0  0  0  0  0  0  0  0  # atno 7974 bound_to 7965
  155.8531  140.0966  157.1662 H   0  0  0  0  0  0  0  0  0  0  0  0  # atno 8008 bound_to 7997
  154.3986  140.1379  156.3931 H   0  0  0  0  0  0  0  0  0  0  0  0  # atno 8009 bound_to 7997
  155.7939  140.3455  155.5367 H   0  0  0  0  0  0  0  0  0  0  0  0  # atno 8010 bound_to 7997
  139.9886  143.5665  152.2351 H   0  0  0  0  0  0  0  0  0  0  0  0  # atno 10167 bound_to 10162
  157.1019  130.6472  149.5874 H   0  0  0  0  0  0  0  0  0  0  0  0  # atno 10718 bound_to 10713
  153.8197  135.3118  155.3409 H   0  0  0  0  0  0  0  0  0  0  0  0  # atno 10763 bound_to 10752
  154.8017  135.4722  154.0296 H   0  0  0  0  0  0  0  0  0  0  0  0  # atno 10764 bound_to 10752
  153.1701  135.6876  153.8709 H   0  0  0  0  0  0  0  0  0  0  0  0  # atno 10765 bound_to 10752
  141.0078  133.6923  156.2144 H   0  0  0  0  0  0  0  0  0  0  0  0  # atno 11005 bound_to 11000
  145.5096  141.0436  143.2495 LP  0  0  0  0  0  0  0  0  0  0  0  0  # atno 17320 bound_to 7965
  144.7768  139.6611  143.7171 LP  0  0  0  0  0  0  0  0  0  0  0  0  # atno 17321 bound_to 7965
  139.6357  144.7649  151.2443 LP  0  0  0  0  0  0  0  0  0  0  0  0  # atno 17342 bound_to 10162
  140.7463  143.6403  150.8341 LP  0  0  0  0  0  0  0  0  0  0  0  0  # atno 17343 bound_to 10162
  155.9871  130.4909  150.7111 LP  0  0  0  0  0  0  0  0  0  0  0  0  # atno 17370 bound_to 10713
  157.4633  131.0885  151.0722 LP  0  0  0  0  0  0  0  0  0  0  0  0  # atno 17371 bound_to 10713
  140.6784  134.4794  157.5588 LP  0  0  0  0  0  0  0  0  0  0  0  0  # atno 17394 bound_to 11000
  139.9073  134.8421  156.1658 LP  0  0  0  0  0  0  0  0  0  0  0  0  # atno 17395 bound_to 11000

$$$$
