AV-unprocessed.smi:2748|AV-procd|sdf|10583|dock10
  -GOLD-   2272015 33D 1   1.00000     0.00000
 Structure written by MMmdl.
 29 31  0  0  0  0  0  0  0  0  2 V2000
  152.2178  137.5198  154.1936 O   0  0  0  0  0  0  0  0  0  0  0  0
  152.3819  137.8258  155.3738 C   0  0  0  0  0  0  0  0  0  0  0  0
  153.1785  137.1059  156.2175 N   0  5  0  0  0  0  0  0  0  0  0  0
  153.3716  137.4295  157.5336 C   0  0  0  0  0  0  0  0  0  0  0  0
  154.1023  136.7699  158.2735 O   0  0  0  0  0  0  0  0  0  0  0  0
  152.7314  138.5235  158.0423 N   0  0  0  0  0  0  0  0  0  0  0  0
  152.8822  138.9442  159.4417 C   0  0  0  0  0  0  0  0  0  0  0  0
  153.6585  140.2695  159.5586 C   0  0  2  0  0  0  0  0  0  0  0  0
  153.7446  140.7812  161.0213 C   0  0  0  0  0  0  0  0  0  0  0  0
  153.0766  142.1077  160.9216 C   0  0  0  0  0  0  0  0  0  0  0  0
  152.8506  143.0504  161.9389 C   0  0  0  0  0  0  0  0  0  0  0  0
  152.1844  144.2467  161.5927 C   0  0  0  0  0  0  0  0  0  0  0  0
  151.7633  144.4729  160.2601 C   0  0  0  0  0  0  0  0  0  0  0  0
  152.0033  143.5065  159.2572 C   0  0  0  0  0  0  0  0  0  0  0  0
  152.6684  142.3211  159.6171 C   0  0  0  0  0  0  0  0  0  0  0  0
  152.9876  141.2851  158.7867 O   0  0  0  0  0  0  0  0  0  0  0  0
  151.9062  139.3034  157.2146 C   0  0  0  0  0  0  0  0  0  0  0  0
  151.7079  139.0037  155.9163 C   0  0  0  0  0  0  0  0  0  0  0  0
  150.6898  139.9830  154.9214 Cl  0  0  0  0  0  0  0  0  0  0  0  0
  151.9044  139.0476  159.9146 H   0  0  0  0  0  0  0  0  0  0  0  0
  153.3904  138.1642  160.0114 H   0  0  0  0  0  0  0  0  0  0  0  0
  154.6674  140.1520  159.1608 H   0  0  0  0  0  0  0  0  0  0  0  0
  153.2138  140.1411  161.7269 H   0  0  0  0  0  0  0  0  0  0  0  0
  154.7770  140.8957  161.3528 H   0  0  0  0  0  0  0  0  0  0  0  0
  153.1749  142.8660  162.9525 H   0  0  0  0  0  0  0  0  0  0  0  0
  151.9947  144.9936  162.3495 H   0  0  0  0  0  0  0  0  0  0  0  0
  151.2546  145.3915  160.0076 H   0  0  0  0  0  0  0  0  0  0  0  0
  151.6848  143.6739  158.2389 H   0  0  0  0  0  0  0  0  0  0  0  0
  151.4532  140.1577  157.6959 H   0  0  0  0  0  0  0  0  0  0  0  0
  1  2  2  0  0  0  0
  2 18  1  0  0  0  0
  2  3  1  0  0  0  0
  3  4  1  0  0  0  0
  4  5  2  0  0  0  0
  4  6  1  0  0  0  0
  6  7  1  0  0  0  0
  6 17  1  0  0  0  0
  7  8  1  0  0  0  0
  7 20  1  0  0  0  0
  7 21  1  0  0  0  0
  8 16  1  0  0  0  0
  8  9  1  0  0  0  0
  8 22  1  0  0  0  0
  9 10  1  0  0  0  0
  9 23  1  0  0  0  0
  9 24  1  0  0  0  0
 10 15  2  0  0  0  0
 10 11  1  0  0  0  0
 11 12  2  0  0  0  0
 11 25  1  0  0  0  0
 12 13  1  0  0  0  0
 12 26  1  0  0  0  0
 13 14  2  0  0  0  0
 13 27  1  0  0  0  0
 14 15  1  0  0  0  0
 14 28  1  0  0  0  0
 15 16  1  0  0  0  0
 17 18  2  0  0  0  0
 17 29  1  0  0  0  0
 18 19  1  0  0  0  0
M  CHG  1   3  -1
M  END
> <s_m_source_file>
AV-unprocessed.smi

> <i_m_source_file_index>
2748

> <i_lp_mmshare_version>
43012

> <i_f3d_flags>
0

> <s_epik_input>
Tz1jMVtuSF1jKD1PKW4oW2NIXWMxQ2wpW0NIMl1bQ0BIXShbQ0gyXTIpT2MoYzIzKVtjSF1bY0hdW2NIXVtjSF0z

> <s_epik_cmdline>
J2VwaWtfcHl0aG9uJywgJy1waCcsICc3LjAnLCAnLXRuJywgJzgnLCAnLW1hJywgJzIwMCcsICctbWV0YWxfYmluZGluZycsICctaW1hZScsICc8aW5maWxlLm1hZT4nLCAnLW9tYWUnLCAnPG91dGZpbGUubWFlPic=

> <r_lp_tautomer_probability>
1

> <r_epik_Ionization_Penalty>
2.00749

> <r_epik_Ionization_Penalty_Charging>
2.26533e-08

> <r_epik_Ionization_Penalty_Neutral>
2.00749

> <r_epik_State_Penalty>
2.13675

> <r_epik_Charging_Adjusted_Penalty>
2.13675

> <i_epik_Tot_Q>
-1

> <i_epik_Tot_abs_Q>
1

> <r_epik_Metal_State_Penalty>
0.0208594

> <b_epik_Metal_Only>
0

> <s_lp_Force_Field>
OPLS_2005

> <r_lp_Energy>
29.9215

> <b_lp_Chiralities_Consistent>
1

> <s_lp_Variant>
AV-unprocessed.smi:2748-3

> <Gold.Version>
5.8.1

> <Gold.Id.Protein>
6NUR|6NUR_protein|mol2

> <Gold.PLP.Fitness>
44.7951

> <Gold.PLP.PLP>
-39.6524

> <Gold.PLP.part.hbond>
-2.0000

> <Gold.PLP.part.metal>
0.0000

> <Gold.PLP.part.buried>
-2.7074

> <Gold.PLP.part.nonpolar>
-34.9335

> <Gold.PLP.part.repulsive>
0.1498

> <Gold.PLP.ligand.clash>
0.0000

> <Gold.PLP.ligand.torsion>
0.0745

> <Gold.PLP.Chemscore.Hbond>
1.7636

> <Gold.PLP.Chemscore.CHOScore>
0.0000

> <Gold.PLP.Chemscore.Metal>
0.0000

> <Gold.Chemscore.Hbonds>
donor molecule, donor type, donor heavy atom, donor atom, acceptor molecule, acceptor atom, score
      P1  H 10752 10764       L1     1  0.60
      P1  H 10752 10765       L1     3  1.09

> <Gold.PLP.Chemscore.Internal.Correction>
0.0011

> <Gold.Rescore>
     Score         DG    S(hbond)    S(metal)    S(lipo)     H(rot)  DE(clash)    DE(int)     intcor
     16.24     -17.99       0.85        0.00     110.98       1.29       0.25       1.49       ----

> <Gold.Chemscore.Fitness>
16.2427

> <Gold.Chemscore.DG>
-17.9915

> <Gold.Chemscore.ZeroCoef>
-5.4800

> <Gold.Chemscore.Hbond>
0.8503

> <Gold.Chemscore.Metal>
0.0000

> <Gold.Chemscore.Lipo>
110.9778

> <Gold.Chemscore.Internal_Hbond>
0.0000

> <Gold.Chemscore.DEClash>
0.2543

> <Gold.Chemscore.DEInternal>
1.4945

> <Gold.Chemscore.Rot>
1.2942

> <Gold.Chemscore.Internal.Correction>
   9.000000E+99

> <Gold.Chemscore.Hbonds>
donor molecule, donor type, donor heavy atom, donor atom, acceptor molecule, acceptor atom, score
      P1  H 10752 10764       L1     1  0.40
      P1  H 10752 10765       L1     3  0.39

> <Gold.Chemscore.Hbond.Weighted>
-2.8401

> <Gold.Chemscore.Metal.Weighted>
-0.0000

> <Gold.Chemscore.Lipo.Weighted>
-12.9844

> <Gold.Chemscore.Internal_Hbond.Weighted>
0.0000

> <Gold.Chemscore.DEClash.Weighted>
0.2543

> <Gold.Chemscore.DEInternal.Weighted>
1.4945

> <Gold.Chemscore.Rot.Weighted>
3.3131

> <Gold.Chemscore.Internal.Correction.Weighted>
   9.000000E+99

> <Gold.Protein.RotatedTorsions>
[ 6907 6896 6895 6894 ] final   44.84 input  -60.11 | X-H torsion
[ 7974 7965 7964 7962 ] final   27.20 input  175.53 | X-H torsion
[ 8008 7997 7996 7995 ] final -130.76 input   59.86 | X-H torsion
[ 10167 10162 10161 10158 ] final  -98.80 input  -65.29 | X-H torsion
[ 10718 10713 10712 10709 ] final  176.94 input   66.30 | X-H torsion
[ 10763 10752 10751 10750 ] final -110.12 input  -60.55 | X-H torsion
[ 11005 11000 10999 10996 ] final   45.03 input  -57.11 | X-H torsion

> <Gold.Protein.ActiveResidues>
 VAL166  LYS551  ARG553  GLY616  TRP617  ASP618  TYR619  PRO620  LYS621  CYS622 
 ASP623  PHE694  ASN695  SER759  ASP760  ASP761  ALA762  ILE779  LEU786  VAL792 
 PHE793  MET794  SER795  GLU796  ALA797  LYS798  CYS799  TRP800  GLU811  SER814 

> <Gold.Protein.RotatedAtoms>
  152.2374  134.8263  160.0464 H   0  0  0  0  0  0  0  0  0  0  0  0  # atno 6907 bound_to 6896
  151.8990  133.3528  159.3832 H   0  0  0  0  0  0  0  0  0  0  0  0  # atno 6908 bound_to 6896
  150.7043  134.4774  159.5498 H   0  0  0  0  0  0  0  0  0  0  0  0  # atno 6909 bound_to 6896
  146.1797  139.7223  142.8909 H   0  0  0  0  0  0  0  0  0  0  0  0  # atno 7974 bound_to 7965
  155.3010  140.0453  157.3029 H   0  0  0  0  0  0  0  0  0  0  0  0  # atno 8008 bound_to 7997
  154.5486  140.2310  155.8489 H   0  0  0  0  0  0  0  0  0  0  0  0  # atno 8009 bound_to 7997
  156.1947  140.3041  155.9409 H   0  0  0  0  0  0  0  0  0  0  0  0  # atno 8010 bound_to 7997
  140.2692  143.3355  152.0551 H   0  0  0  0  0  0  0  0  0  0  0  0  # atno 10167 bound_to 10162
  156.9127  130.9915  151.3018 H   0  0  0  0  0  0  0  0  0  0  0  0  # atno 10718 bound_to 10713
  154.8231  135.4575  154.0837 H   0  0  0  0  0  0  0  0  0  0  0  0  # atno 10763 bound_to 10752
  153.2174  135.6889  153.8047 H   0  0  0  0  0  0  0  0  0  0  0  0  # atno 10764 bound_to 10752
  153.7476  135.3303  155.3292 H   0  0  0  0  0  0  0  0  0  0  0  0  # atno 10765 bound_to 10752
  140.1497  134.4477  155.8390 H   0  0  0  0  0  0  0  0  0  0  0  0  # atno 11005 bound_to 11000
  145.4112  141.0396  143.3016 LP  0  0  0  0  0  0  0  0  0  0  0  0  # atno 17320 bound_to 7965
  144.8294  139.5654  143.6951 LP  0  0  0  0  0  0  0  0  0  0  0  0  # atno 17321 bound_to 7965
  139.4994  144.6668  151.6338 LP  0  0  0  0  0  0  0  0  0  0  0  0  # atno 17342 bound_to 10162
  140.5903  143.9791  150.6321 LP  0  0  0  0  0  0  0  0  0  0  0  0  # atno 17343 bound_to 10162
  157.5957  130.8476  149.8726 LP  0  0  0  0  0  0  0  0  0  0  0  0  # atno 17370 bound_to 10713
  156.0528  130.3714  150.1161 LP  0  0  0  0  0  0  0  0  0  0  0  0  # atno 17371 bound_to 10713
  141.2197  133.6867  156.7400 LP  0  0  0  0  0  0  0  0  0  0  0  0  # atno 17394 bound_to 11000
  140.2619  134.8460  157.3767 LP  0  0  0  0  0  0  0  0  0  0  0  0  # atno 17395 bound_to 11000

$$$$
