AV-unprocessed.smi:153|AV-procd|sdf|1251|dock7
  -GOLD-   2262018483D 1   1.00000     0.00000
 Structure written by MMmdl.
 60 63  0  0  0  0  0  0  0  0  2 V2000
  152.0683  144.7271  158.3710 C   0  0  0  0  0  0  0  0  0  0  0  0
  152.7996  143.3770  158.4447 C   0  0  1  0  0  0  0  0  0  0  0  0
  153.5547  143.3120  159.6489 O   0  0  0  0  0  0  0  0  0  0  0  0
  153.7412  141.9465  159.9726 C   0  0  0  0  0  0  0  0  0  0  0  0
  152.3666  141.3585  159.6931 C   0  0  0  0  0  0  0  0  0  0  0  0
  151.9177  142.0975  158.4285 C   0  0  1  0  0  0  0  0  0  0  0  0
  150.5379  142.3960  158.5572 O   0  0  0  0  0  0  0  0  0  0  0  0
  152.1319  141.2916  157.1198 C   0  0  0  0  0  0  0  0  0  0  0  0
  151.2527  140.1406  156.9673 N   0  0  0  0  0  0  0  0  0  0  0  0
  150.3144  139.9463  155.9804 C   0  0  0  0  0  0  0  0  0  0  0  0
  149.6472  138.8287  156.0617 N   0  0  0  0  0  0  0  0  0  0  0  0
  150.1387  138.2105  157.2072 C   0  0  0  0  0  0  0  0  0  0  0  0
  149.8679  136.9794  157.8804 C   0  0  0  0  0  0  0  0  0  0  0  0
  148.9506  136.0557  157.4805 N   0  0  0  0  0  0  0  0  0  0  0  0
  148.8480  134.7843  158.1854 C   0  0  0  0  0  0  0  0  0  0  0  0
  147.8542  136.4501  156.5925 C   0  0  0  0  0  0  0  0  0  0  0  0
  147.8463  135.6630  155.2662 C   0  0  2  0  0  0  0  0  0  0  0  0
  149.0826  135.9128  154.6280 O   0  0  0  0  0  0  0  0  0  0  0  0
  146.7081  136.0932  154.3135 C   0  0  0  0  0  0  0  0  0  0  0  0
  146.6714  135.3037  153.0566 N   0  3  0  0  0  0  0  0  0  0  0  0
  146.6205  133.8366  153.2795 C   0  0  0  0  0  0  0  0  0  0  0  0
  146.6086  133.0871  151.9363 C   0  0  0  0  0  0  0  0  0  0  0  0
  145.5082  133.5296  151.1519 O   0  0  0  0  0  0  0  0  0  0  0  0
  145.5930  134.9172  150.8532 C   0  0  0  0  0  0  0  0  0  0  0  0
  145.5695  135.7277  152.1601 C   0  0  0  0  0  0  0  0  0  0  0  0
  150.6015  136.7123  158.9931 N   0  0  0  0  0  0  0  0  0  0  0  0
  151.5186  137.5774  159.4324 C   0  0  0  0  0  0  0  0  0  0  0  0
  151.8698  138.7527  158.9116 N   0  0  0  0  0  0  0  0  0  0  0  0
  151.1524  139.0290  157.7864 C   0  0  0  0  0  0  0  0  0  0  0  0
  151.4744  144.8036  157.4597 H   0  0  0  0  0  0  0  0  0  0  0  0
  152.7803  145.5524  158.3712 H   0  0  0  0  0  0  0  0  0  0  0  0
  151.4025  144.8680  159.2229 H   0  0  0  0  0  0  0  0  0  0  0  0
  153.5193  143.3333  157.6253 H   0  0  0  0  0  0  0  0  0  0  0  0
  154.4987  141.5081  159.3210 H   0  0  0  0  0  0  0  0  0  0  0  0
  154.0547  141.8170  161.0087 H   0  0  0  0  0  0  0  0  0  0  0  0
  152.3861  140.2736  159.6048 H   0  0  0  0  0  0  0  0  0  0  0  0
  151.7129  141.6012  160.5328 H   0  0  0  0  0  0  0  0  0  0  0  0
  150.1776  141.8573  159.2446 H   0  0  0  0  0  0  0  0  0  0  0  0
  151.9905  141.9417  156.2551 H   0  0  0  0  0  0  0  0  0  0  0  0
  153.1617  140.9354  157.0642 H   0  0  0  0  0  0  0  0  0  0  0  0
  150.1443  140.6606  155.1878 H   0  0  0  0  0  0  0  0  0  0  0  0
  149.8355  134.3662  158.3838 H   0  0  0  0  0  0  0  0  0  0  0  0
  148.2987  134.0570  157.5869 H   0  0  0  0  0  0  0  0  0  0  0  0
  148.3198  134.9083  159.1309 H   0  0  0  0  0  0  0  0  0  0  0  0
  146.8819  136.3786  157.0803 H   0  0  0  0  0  0  0  0  0  0  0  0
  147.9846  137.5111  156.3758 H   0  0  0  0  0  0  0  0  0  0  0  0
  147.7956  134.5980  155.4887 H   0  0  0  0  0  0  0  0  0  0  0  0
  148.9448  135.9490  153.6942 H   0  0  0  0  0  0  0  0  0  0  0  0
  145.7354  136.0009  154.7956 H   0  0  0  0  0  0  0  0  0  0  0  0
  146.8297  137.1531  154.0838 H   0  0  0  0  0  0  0  0  0  0  0  0
  147.4773  133.5068  153.8660 H   0  0  0  0  0  0  0  0  0  0  0  0
  145.7266  133.5827  153.8522 H   0  0  0  0  0  0  0  0  0  0  0  0
  147.5432  133.2417  151.3946 H   0  0  0  0  0  0  0  0  0  0  0  0
  146.5126  132.0146  152.1058 H   0  0  0  0  0  0  0  0  0  0  0  0
  146.4991  135.1246  150.2813 H   0  0  0  0  0  0  0  0  0  0  0  0
  144.7483  135.1960  150.2234 H   0  0  0  0  0  0  0  0  0  0  0  0
  144.6125  135.5926  152.6667 H   0  0  0  0  0  0  0  0  0  0  0  0
  145.6652  136.7900  151.9324 H   0  0  0  0  0  0  0  0  0  0  0  0
  152.0474  137.2855  160.3279 H   0  0  0  0  0  0  0  0  0  0  0  0
  147.5296  135.5030  152.5627 H   0  0  0  0  0  0  0  0  0  0  0  0
  1  2  1  0  0  0  0
  1 30  1  0  0  0  0
  1 31  1  0  0  0  0
  1 32  1  0  0  0  0
  2  6  1  0  0  0  0
  2  3  1  0  0  0  0
  2 33  1  0  0  0  0
  3  4  1  0  0  0  0
  4  5  1  0  0  0  0
  4 34  1  0  0  0  0
  4 35  1  0  0  0  0
  5  6  1  0  0  0  0
  5 36  1  0  0  0  0
  5 37  1  0  0  0  0
  6  7  1  0  0  0  0
  6  8  1  0  0  0  0
  7 38  1  0  0  0  0
  8  9  1  0  0  0  0
  8 39  1  0  0  0  0
  8 40  1  0  0  0  0
  9 29  1  0  0  0  0
  9 10  1  0  0  0  0
 10 11  2  0  0  0  0
 10 41  1  0  0  0  0
 11 12  1  0  0  0  0
 12 29  2  0  0  0  0
 12 13  1  0  0  0  0
 13 14  1  0  0  0  0
 13 26  2  0  0  0  0
 14 15  1  0  0  0  0
 14 16  1  0  0  0  0
 15 42  1  0  0  0  0
 15 43  1  0  0  0  0
 15 44  1  0  0  0  0
 16 17  1  0  0  0  0
 16 45  1  0  0  0  0
 16 46  1  0  0  0  0
 17 18  1  0  0  0  0
 17 19  1  0  0  0  0
 17 47  1  0  0  0  0
 18 48  1  0  0  0  0
 19 20  1  0  0  0  0
 19 49  1  0  0  0  0
 19 50  1  0  0  0  0
 20 25  1  0  0  0  0
 20 21  1  0  0  0  0
 20 60  1  0  0  0  0
 21 22  1  0  0  0  0
 21 51  1  0  0  0  0
 21 52  1  0  0  0  0
 22 23  1  0  0  0  0
 22 53  1  0  0  0  0
 22 54  1  0  0  0  0
 23 24  1  0  0  0  0
 24 25  1  0  0  0  0
 24 55  1  0  0  0  0
 24 56  1  0  0  0  0
 25 57  1  0  0  0  0
 25 58  1  0  0  0  0
 26 27  1  0  0  0  0
 27 28  2  0  0  0  0
 27 59  1  0  0  0  0
 28 29  1  0  0  0  0
M  CHG  1  20   1
M  END
> <s_m_source_file>
AV-unprocessed.smi

> <i_m_source_file_index>
153

> <i_lp_mmshare_version>
43012

> <i_f3d_flags>
0

> <s_epik_input>
W0NIMl0xW0NIMl1PW0NAQEhdKFtDSDNdKVtDQEBdMShbT0hdKVtDSDJdbihbY0hdbjIpYyhjMjMpbltjSF1uYzNOKFtDSDNdKVtDSDJdW0NASF0oW09IXSlbQ0gyXU40W0NIMl1bQ0gyXU9bQ0gyXVtDSDJdNA==

> <s_epik_cmdline>
J2VwaWtfcHl0aG9uJywgJy1waCcsICc3LjAnLCAnLXRuJywgJzgnLCAnLW1hJywgJzIwMCcsICctbWV0YWxfYmluZGluZycsICctaW1hZScsICc8aW5maWxlLm1hZT4nLCAnLW9tYWUnLCAnPG91dGZpbGUubWFlPic=

> <r_lp_tautomer_probability>
1

> <r_epik_Ionization_Penalty>
0.403509

> <r_epik_Ionization_Penalty_Charging>
0.40072

> <r_epik_Ionization_Penalty_Neutral>
0.00278876

> <r_epik_State_Penalty>
0.400058

> <r_epik_Charging_Adjusted_Penalty>
0.800778

> <i_epik_Tot_Q>
1

> <i_epik_Tot_abs_Q>
1

> <r_epik_Metal_State_Penalty>
0.400321

> <b_epik_Metal_Only>
0

> <s_lp_Force_Field>
OPLS_2005

> <r_lp_Energy>
45.7554

> <b_lp_Chiralities_Consistent>
1

> <s_lp_Variant>
AV-unprocessed.smi:153-2

> <Gold.Version>
5.8.1

> <Gold.Id.Protein>
6NUR|6NUR_protein|mol2

> <Gold.PLP.Fitness>
51.1426

> <Gold.PLP.PLP>
-39.2916

> <Gold.PLP.part.hbond>
-3.5842

> <Gold.PLP.part.metal>
0.0000

> <Gold.PLP.part.buried>
-7.1272

> <Gold.PLP.part.nonpolar>
-29.0564

> <Gold.PLP.part.repulsive>
0.1361

> <Gold.PLP.ligand.clash>
0.0000

> <Gold.PLP.ligand.torsion>
0.2617

> <Gold.PLP.Chemscore.Hbond>
4.0000

> <Gold.PLP.Chemscore.CHOScore>
0.0000

> <Gold.PLP.Chemscore.Metal>
0.0000

> <Gold.Chemscore.Hbonds>
donor molecule, donor type, donor heavy atom, donor atom, acceptor molecule, acceptor atom, score
      L1  H    18    48       P1  7948  1.00
      L1  H    20    60       P1  7948  2.00
      P1  H  6896  6907       L1    26  1.00

> <Gold.PLP.Chemscore.Internal.Correction>
0.3745

> <Gold.Rescore>
     Score         DG    S(hbond)    S(metal)    S(lipo)     H(rot)  DE(clash)    DE(int)     intcor
     13.02     -15.81       2.79        0.00      87.89       3.62       0.14       2.65       ----

> <Gold.Chemscore.Fitness>
13.0239

> <Gold.Chemscore.DG>
-15.8104

> <Gold.Chemscore.ZeroCoef>
-5.4800

> <Gold.Chemscore.Hbond>
2.7873

> <Gold.Chemscore.Metal>
0.0000

> <Gold.Chemscore.Lipo>
87.8913

> <Gold.Chemscore.Internal_Hbond>
0.0000

> <Gold.Chemscore.DEClash>
0.1391

> <Gold.Chemscore.DEInternal>
2.6474

> <Gold.Chemscore.Rot>
3.6182

> <Gold.Chemscore.Internal.Correction>
   9.000000E+99

> <Gold.Chemscore.Hbonds>
donor molecule, donor type, donor heavy atom, donor atom, acceptor molecule, acceptor atom, score
      L1  H    18    48       P1  7948  0.97
      L1  H    20    60       P1  7948  1.00
      P1  H  6896  6907       L1    26  0.71

> <Gold.Chemscore.Hbond.Weighted>
-9.3096

> <Gold.Chemscore.Metal.Weighted>
-0.0000

> <Gold.Chemscore.Lipo.Weighted>
-10.2833

> <Gold.Chemscore.Internal_Hbond.Weighted>
0.0000

> <Gold.Chemscore.DEClash.Weighted>
0.1391

> <Gold.Chemscore.DEInternal.Weighted>
2.6474

> <Gold.Chemscore.Rot.Weighted>
9.2625

> <Gold.Chemscore.Internal.Correction.Weighted>
   9.000000E+99

> <Gold.Protein.RotatedTorsions>
[ 6907 6896 6895 6894 ] final  -42.57 input  -60.11 | X-H torsion
[ 7974 7965 7964 7962 ] final  114.72 input  175.53 | X-H torsion
[ 8008 7997 7996 7995 ] final  165.26 input   59.86 | X-H torsion
[ 10167 10162 10161 10158 ] final -163.53 input  -65.29 | X-H torsion
[ 10718 10713 10712 10709 ] final   34.95 input   66.30 | X-H torsion
[ 10763 10752 10751 10750 ] final  147.85 input  -60.55 | X-H torsion
[ 11005 11000 10999 10996 ] final -107.62 input  -57.11 | X-H torsion

> <Gold.Protein.ActiveResidues>
 VAL166  LYS551  ARG553  GLY616  TRP617  ASP618  TYR619  PRO620  LYS621  CYS622 
 ASP623  PHE694  ASN695  SER759  ASP760  ASP761  ALA762  ILE779  LEU786  VAL792 
 PHE793  MET794  SER795  GLU796  ALA797  LYS798  CYS799  TRP800  GLU811  SER814 

> <Gold.Protein.RotatedAtoms>
  150.9538  134.8935  159.7687 H   0  0  0  0  0  0  0  0  0  0  0  0  # atno 6907 bound_to 6896
  152.5130  134.3769  159.9347 H   0  0  0  0  0  0  0  0  0  0  0  0  # atno 6908 bound_to 6896
  151.3784  133.3789  159.2742 H   0  0  0  0  0  0  0  0  0  0  0  0  # atno 6909 bound_to 6896
  145.2009  139.2953  143.4319 H   0  0  0  0  0  0  0  0  0  0  0  0  # atno 7974 bound_to 7965
  156.1815  140.1675  156.8266 H   0  0  0  0  0  0  0  0  0  0  0  0  # atno 8008 bound_to 7997
  154.5365  140.0745  156.8469 H   0  0  0  0  0  0  0  0  0  0  0  0  # atno 8009 bound_to 7997
  155.3301  140.3378  155.4242 H   0  0  0  0  0  0  0  0  0  0  0  0  # atno 8010 bound_to 7997
  139.6314  144.0432  152.2019 H   0  0  0  0  0  0  0  0  0  0  0  0  # atno 10167 bound_to 10162
  157.3166  130.7427  149.6758 H   0  0  0  0  0  0  0  0  0  0  0  0  # atno 10718 bound_to 10713
  154.0451  135.2886  155.3349 H   0  0  0  0  0  0  0  0  0  0  0  0  # atno 10763 bound_to 10752
  154.6904  135.5228  153.8388 H   0  0  0  0  0  0  0  0  0  0  0  0  # atno 10764 bound_to 10752
  153.0584  135.6604  154.0652 H   0  0  0  0  0  0  0  0  0  0  0  0  # atno 10765 bound_to 10752
  141.0945  133.8996  157.1997 H   0  0  0  0  0  0  0  0  0  0  0  0  # atno 11005 bound_to 11000
  146.3418  140.2253  142.8592 LP  0  0  0  0  0  0  0  0  0  0  0  0  # atno 17320 bound_to 7965
  144.9949  140.8580  143.5317 LP  0  0  0  0  0  0  0  0  0  0  0  0  # atno 17321 bound_to 7965
  140.0098  144.6232  150.7657 LP  0  0  0  0  0  0  0  0  0  0  0  0  # atno 17342 bound_to 10162
  140.7441  143.2856  151.3473 LP  0  0  0  0  0  0  0  0  0  0  0  0  # atno 17343 bound_to 10162
  155.9682  130.4235  150.4567 LP  0  0  0  0  0  0  0  0  0  0  0  0  # atno 17370 bound_to 10713
  157.2575  131.0559  151.2341 LP  0  0  0  0  0  0  0  0  0  0  0  0  # atno 17371 bound_to 10713
  139.9778  135.0108  156.9674 LP  0  0  0  0  0  0  0  0  0  0  0  0  # atno 17394 bound_to 11000
  140.5174  134.0941  155.7284 LP  0  0  0  0  0  0  0  0  0  0  0  0  # atno 17395 bound_to 11000

$$$$
