AV-unprocessed.smi:1632|AV-procd|sdf|6529|dock1
  -GOLD-   22720 7203D 1   1.00000     0.00000
 Structure written by MMmdl.
 42 44  0  0  0  0  0  0  0  0  1 V2000
  155.2083  139.6327  159.1037 O   0  0  0  0  0  0  0  0  0  0  0  0
  154.8280  138.2742  159.0929 C   0  0  0  0  0  0  0  0  0  0  0  0
  153.4257  138.1222  159.7001 C   0  0  0  0  0  0  0  0  0  0  0  0
  152.2941  138.6575  158.8034 C   0  0  0  0  0  0  0  0  0  0  0  0
  152.1919  140.1584  158.7874 C   0  0  0  0  0  0  0  0  0  0  0  0
  153.0102  140.9131  159.5228 N   0  0  0  0  0  0  0  0  0  0  0  0
  152.6052  142.1967  159.2174 C   0  0  0  0  0  0  0  0  0  0  0  0
  153.0741  143.4437  159.6886 C   0  0  0  0  0  0  0  0  0  0  0  0
  152.4986  144.6444  159.2239 C   0  0  0  0  0  0  0  0  0  0  0  0
  151.4492  144.6148  158.2830 C   0  0  0  0  0  0  0  0  0  0  0  0
  150.9685  143.3824  157.8000 C   0  0  0  0  0  0  0  0  0  0  0  0
  151.5454  142.1863  158.2681 C   0  0  0  0  0  0  0  0  0  0  0  0
  151.3161  140.8391  158.0015 N   0  0  0  0  0  0  0  0  0  0  0  0
  150.3364  140.3148  157.0577 C   0  0  0  0  0  0  0  0  0  0  0  0
  150.5724  140.7974  155.6136 C   0  0  1  0  0  0  0  0  0  0  0  0
  151.7483  140.2068  155.0924 O   0  0  0  0  0  0  0  0  0  0  0  0
  149.3536  140.5345  154.7400 C   0  0  0  0  0  0  0  0  0  0  0  0
  148.5313  141.6047  154.3217 C   0  0  0  0  0  0  0  0  0  0  0  0
  147.4081  141.3639  153.5073 C   0  0  0  0  0  0  0  0  0  0  0  0
  147.1008  140.0515  153.1018 C   0  0  0  0  0  0  0  0  0  0  0  0
  147.9202  138.9812  153.5081 C   0  0  0  0  0  0  0  0  0  0  0  0
  149.0448  139.2198  154.3222 C   0  0  0  0  0  0  0  0  0  0  0  0
  149.8270  138.1784  154.6962 F   0  0  0  0  0  0  0  0  0  0  0  0
  155.0043  139.9951  159.9523 H   0  0  0  0  0  0  0  0  0  0  0  0
  154.8402  137.9191  158.0629 H   0  0  0  0  0  0  0  0  0  0  0  0
  155.5647  137.6973  159.6528 H   0  0  0  0  0  0  0  0  0  0  0  0
  153.2388  137.0725  159.9305 H   0  0  0  0  0  0  0  0  0  0  0  0
  153.3949  138.6493  160.6544 H   0  0  0  0  0  0  0  0  0  0  0  0
  152.4576  138.3230  157.7785 H   0  0  0  0  0  0  0  0  0  0  0  0
  151.3553  138.2066  159.1190 H   0  0  0  0  0  0  0  0  0  0  0  0
  153.8777  143.4760  160.4091 H   0  0  0  0  0  0  0  0  0  0  0  0
  152.8640  145.5921  159.5913 H   0  0  0  0  0  0  0  0  0  0  0  0
  151.0128  145.5385  157.9323 H   0  0  0  0  0  0  0  0  0  0  0  0
  150.1631  143.3575  157.0812 H   0  0  0  0  0  0  0  0  0  0  0  0
  150.3688  139.2255  157.0952 H   0  0  0  0  0  0  0  0  0  0  0  0
  149.3375  140.5873  157.3984 H   0  0  0  0  0  0  0  0  0  0  0  0
  150.7578  141.8692  155.6278 H   0  0  0  0  0  0  0  0  0  0  0  0
  151.7392  139.2853  155.3017 H   0  0  0  0  0  0  0  0  0  0  0  0
  148.7610  142.6167  154.6222 H   0  0  0  0  0  0  0  0  0  0  0  0
  146.7832  142.1866  153.1926 H   0  0  0  0  0  0  0  0  0  0  0  0
  146.2393  139.8662  152.4770 H   0  0  0  0  0  0  0  0  0  0  0  0
  147.6866  137.9749  153.1931 H   0  0  0  0  0  0  0  0  0  0  0  0
  1  2  1  0  0  0  0
  1 24  1  0  0  0  0
  2  3  1  0  0  0  0
  2 25  1  0  0  0  0
  2 26  1  0  0  0  0
  3  4  1  0  0  0  0
  3 27  1  0  0  0  0
  3 28  1  0  0  0  0
  4  5  1  0  0  0  0
  4 29  1  0  0  0  0
  4 30  1  0  0  0  0
  5 13  1  0  0  0  0
  5  6  2  0  0  0  0
  6  7  1  0  0  0  0
  7 12  2  0  0  0  0
  7  8  1  0  0  0  0
  8  9  2  0  0  0  0
  8 31  1  0  0  0  0
  9 10  1  0  0  0  0
  9 32  1  0  0  0  0
 10 11  2  0  0  0  0
 10 33  1  0  0  0  0
 11 12  1  0  0  0  0
 11 34  1  0  0  0  0
 12 13  1  0  0  0  0
 13 14  1  0  0  0  0
 14 15  1  0  0  0  0
 14 35  1  0  0  0  0
 14 36  1  0  0  0  0
 15 16  1  0  0  0  0
 15 17  1  0  0  0  0
 15 37  1  0  0  0  0
 16 38  1  0  0  0  0
 17 22  1  0  0  0  0
 17 18  2  0  0  0  0
 18 19  1  0  0  0  0
 18 39  1  0  0  0  0
 19 20  2  0  0  0  0
 19 40  1  0  0  0  0
 20 21  1  0  0  0  0
 20 41  1  0  0  0  0
 21 22  2  0  0  0  0
 21 42  1  0  0  0  0
 22 23  1  0  0  0  0
M  END
> <s_m_source_file>
AV-unprocessed.smi

> <i_m_source_file_index>
1632

> <i_lp_mmshare_version>
43012

> <i_f3d_flags>
0

> <s_epik_input>
W09IXVtDSDJdW0NIMl1bQ0gyXWMobjEpbihjKGMxMilbY0hdW2NIXVtjSF1bY0hdMilbQ0gyXVtDQEhdKFtPSF0pYzNbY0hdW2NIXVtjSF1bY0hdYzNG

> <s_epik_cmdline>
J2VwaWtfcHl0aG9uJywgJy1waCcsICc3LjAnLCAnLXRuJywgJzgnLCAnLW1hJywgJzIwMCcsICctbWV0YWxfYmluZGluZycsICctaW1hZScsICc8aW5maWxlLm1hZT4nLCAnLW9tYWUnLCAnPG91dGZpbGUubWFlPic=

> <r_epik_Ionization_Penalty>
0.182561

> <r_epik_Ionization_Penalty_Charging>
0

> <r_epik_Ionization_Penalty_Neutral>
0.182561

> <r_epik_State_Penalty>
0.172086

> <r_epik_Charging_Adjusted_Penalty>
0.172086

> <i_epik_Tot_Q>
0

> <i_epik_Tot_abs_Q>
0

> <r_epik_Metal_State_Penalty>
0.000199649

> <b_epik_Metal_Only>
0

> <s_lp_Force_Field>
OPLS_2005

> <r_lp_Energy>
11.8421

> <b_lp_Chiralities_Consistent>
1

> <s_lp_Variant>
AV-unprocessed.smi:1632-2

> <Gold.Version>
5.8.1

> <Gold.Id.Protein>
6NUR|6NUR_protein|mol2

> <Gold.PLP.Fitness>
54.6576

> <Gold.PLP.PLP>
-49.4771

> <Gold.PLP.part.hbond>
-2.0000

> <Gold.PLP.part.metal>
0.0000

> <Gold.PLP.part.buried>
-5.4890

> <Gold.PLP.part.nonpolar>
-41.9042

> <Gold.PLP.part.repulsive>
0.0000

> <Gold.PLP.ligand.clash>
0.0000

> <Gold.PLP.ligand.torsion>
0.4043

> <Gold.PLP.Chemscore.Hbond>
1.9440

> <Gold.PLP.Chemscore.CHOScore>
0.0000

> <Gold.PLP.Chemscore.Metal>
0.0000

> <Gold.Chemscore.Hbonds>
donor molecule, donor type, donor heavy atom, donor atom, acceptor molecule, acceptor atom, score
      P1  H  7989  7998       L1    16  0.81
      P1  H  7997  8010       L1     1  1.00

> <Gold.PLP.Chemscore.Internal.Correction>
0.1571

> <Gold.Rescore>
     Score         DG    S(hbond)    S(metal)    S(lipo)     H(rot)  DE(clash)    DE(int)     intcor
     15.41     -18.55       1.80        0.00     127.75       3.07       0.03       3.11       ----

> <Gold.Chemscore.Fitness>
15.4133

> <Gold.Chemscore.DG>
-18.5535

> <Gold.Chemscore.ZeroCoef>
-5.4800

> <Gold.Chemscore.Hbond>
1.7954

> <Gold.Chemscore.Metal>
0.0000

> <Gold.Chemscore.Lipo>
127.7484

> <Gold.Chemscore.Internal_Hbond>
0.0000

> <Gold.Chemscore.DEClash>
0.0339

> <Gold.Chemscore.DEInternal>
3.1063

> <Gold.Chemscore.Rot>
3.0741

> <Gold.Chemscore.Internal.Correction>
   9.000000E+99

> <Gold.Chemscore.Hbonds>
donor molecule, donor type, donor heavy atom, donor atom, acceptor molecule, acceptor atom, score
      P1  H  7989  7998       L1    16  0.16
      P1  H  7997  8010       L1     1  0.30

> <Gold.Chemscore.Hbond.Weighted>
-5.9967

> <Gold.Chemscore.Metal.Weighted>
-0.0000

> <Gold.Chemscore.Lipo.Weighted>
-14.9466

> <Gold.Chemscore.Internal_Hbond.Weighted>
0.0000

> <Gold.Chemscore.DEClash.Weighted>
0.0339

> <Gold.Chemscore.DEInternal.Weighted>
3.1063

> <Gold.Chemscore.Rot.Weighted>
7.8698

> <Gold.Chemscore.Internal.Correction.Weighted>
   9.000000E+99

> <Gold.Protein.RotatedTorsions>
[ 6907 6896 6895 6894 ] final  -99.46 input  -60.11 | X-H torsion
[ 7974 7965 7964 7962 ] final  105.51 input  175.53 | X-H torsion
[ 8008 7997 7996 7995 ] final   -1.98 input   59.86 | X-H torsion
[ 10167 10162 10161 10158 ] final  172.25 input  -65.29 | X-H torsion
[ 10718 10713 10712 10709 ] final  102.11 input   66.30 | X-H torsion
[ 10763 10752 10751 10750 ] final  -91.07 input  -60.55 | X-H torsion
[ 11005 11000 10999 10996 ] final  131.13 input  -57.11 | X-H torsion

> <Gold.Protein.ActiveResidues>
 VAL166  LYS551  ARG553  GLY616  TRP617  ASP618  TYR619  PRO620  LYS621  CYS622 
 ASP623  PHE694  ASN695  SER759  ASP760  ASP761  ALA762  ILE779  LEU786  VAL792 
 PHE793  MET794  SER795  GLU796  ALA797  LYS798  CYS799  TRP800  GLU811  SER814 

> <Gold.Protein.RotatedAtoms>
  150.7081  134.1037  159.3974 H   0  0  0  0  0  0  0  0  0  0  0  0  # atno 6907 bound_to 6896
  151.9023  135.0371  160.0516 H   0  0  0  0  0  0  0  0  0  0  0  0  # atno 6908 bound_to 6896
  152.2404  133.5095  159.5303 H   0  0  0  0  0  0  0  0  0  0  0  0  # atno 6909 bound_to 6896
  145.3187  139.2519  143.3723 H   0  0  0  0  0  0  0  0  0  0  0  0  # atno 7974 bound_to 7965
  154.6408  140.2546  155.7324 H   0  0  0  0  0  0  0  0  0  0  0  0  # atno 8008 bound_to 7997
  156.2528  140.2888  156.0721 H   0  0  0  0  0  0  0  0  0  0  0  0  # atno 8009 bound_to 7997
  155.1599  140.0384  157.2830 H   0  0  0  0  0  0  0  0  0  0  0  0  # atno 8010 bound_to 7997
  139.5071  144.3394  152.0033 H   0  0  0  0  0  0  0  0  0  0  0  0  # atno 10167 bound_to 10162
  157.6811  131.0744  150.5354 H   0  0  0  0  0  0  0  0  0  0  0  0  # atno 10718 bound_to 10713
  154.6723  135.5281  153.8154 H   0  0  0  0  0  0  0  0  0  0  0  0  # atno 10763 bound_to 10752
  153.0509  135.6532  154.0705 H   0  0  0  0  0  0  0  0  0  0  0  0  # atno 10764 bound_to 10752
  154.0603  135.2962  155.3306 H   0  0  0  0  0  0  0  0  0  0  0  0  # atno 10765 bound_to 10752
  139.9712  134.9577  156.9394 H   0  0  0  0  0  0  0  0  0  0  0  0  # atno 11005 bound_to 11000
  146.3090  140.3740  142.8677 LP  0  0  0  0  0  0  0  0  0  0  0  0  # atno 17320 bound_to 7965
  144.8956  140.7579  143.5899 LP  0  0  0  0  0  0  0  0  0  0  0  0  # atno 17321 bound_to 7965
  140.2832  144.3836  150.6112 LP  0  0  0  0  0  0  0  0  0  0  0  0  # atno 17342 bound_to 10162
  140.6002  143.2167  151.7087 LP  0  0  0  0  0  0  0  0  0  0  0  0  # atno 17343 bound_to 10162
  156.5663  130.4268  149.6040 LP  0  0  0  0  0  0  0  0  0  0  0  0  # atno 17370 bound_to 10713
  156.2778  130.7054  151.1869 LP  0  0  0  0  0  0  0  0  0  0  0  0  # atno 17371 bound_to 10713
  140.5289  134.0833  155.7311 LP  0  0  0  0  0  0  0  0  0  0  0  0  # atno 17394 bound_to 11000
  141.1391  133.9169  157.2366 LP  0  0  0  0  0  0  0  0  0  0  0  0  # atno 17395 bound_to 11000

$$$$
