AV-unprocessed.smi:662|AV-procd|sdf|3244|dock5
  -GOLD-   22720 0193D 1   1.00000     0.00000
 Structure written by MMmdl.
 34 35  0  0  0  0  0  0  0  0  2 V2000
  144.0743  135.8678  152.8968 O   0  0  0  0  0  0  0  0  0  0  0  0
  144.9944  135.7821  152.0825 C   0  0  0  0  0  0  0  0  0  0  0  0
  146.1463  136.4607  152.2000 N   0  0  0  0  0  0  0  0  0  0  0  0
  146.4645  137.3797  153.2869 C   0  0  0  0  0  0  0  0  0  0  0  0
  146.4017  138.8442  152.8244 C   0  0  0  0  0  0  0  0  0  0  0  0
  147.4555  139.6866  153.4606 C   0  0  0  0  0  0  0  0  0  0  0  0
  148.5149  139.1803  154.0964 N   0  0  0  0  0  0  0  0  0  0  0  0
  149.3454  140.1677  154.6377 C   0  0  0  0  0  0  0  0  0  0  0  0
  150.5912  139.7713  155.3762 C   0  0  0  0  0  0  0  0  0  0  0  0
  150.3152  138.9900  156.4207 F   0  0  0  0  0  0  0  0  0  0  0  0
  151.4269  139.1009  154.5836 F   0  0  0  0  0  0  0  0  0  0  0  0
  151.2381  140.8417  155.8363 F   0  0  0  0  0  0  0  0  0  0  0  0
  148.8823  141.4413  154.4107 C   0  0  0  0  0  0  0  0  0  0  0  0
  147.3904  141.4436  153.5109 S   0  0  0  0  0  0  0  0  0  0  0  0
  144.8713  134.8550  150.8680 C   0  0  1  0  0  0  0  0  0  0  0  0
  146.0259  133.8451  150.8224 C   0  0  0  0  0  0  0  0  0  0  0  0
  145.4328  132.6710  150.0581 C   0  0  0  0  0  0  0  0  0  0  0  0
  143.9623  132.6692  150.4793 C   0  0  0  0  0  0  0  0  0  0  0  0
  143.6368  134.0414  150.9215 N   0  3  0  0  0  0  0  0  0  0  0  0
  146.8542  136.3309  151.4913 H   0  0  0  0  0  0  0  0  0  0  0  0
  145.7501  137.2143  154.0940 H   0  0  0  0  0  0  0  0  0  0  0  0
  147.4504  137.1491  153.6948 H   0  0  0  0  0  0  0  0  0  0  0  0
  146.5166  138.9068  151.7412 H   0  0  0  0  0  0  0  0  0  0  0  0
  145.4263  139.2717  153.0589 H   0  0  0  0  0  0  0  0  0  0  0  0
  149.3270  142.3755  154.7202 H   0  0  0  0  0  0  0  0  0  0  0  0
  144.8478  135.4391  149.9465 H   0  0  0  0  0  0  0  0  0  0  0  0
  146.9182  134.2470  150.3410 H   0  0  0  0  0  0  0  0  0  0  0  0
  146.3056  133.5194  151.8262 H   0  0  0  0  0  0  0  0  0  0  0  0
  145.5075  132.8591  148.9860 H   0  0  0  0  0  0  0  0  0  0  0  0
  145.9365  131.7269  150.2678 H   0  0  0  0  0  0  0  0  0  0  0  0
  143.3064  132.3503  149.6688 H   0  0  0  0  0  0  0  0  0  0  0  0
  143.8078  131.9931  151.3209 H   0  0  0  0  0  0  0  0  0  0  0  0
  143.3153  134.0070  151.8790 H   0  0  0  0  0  0  0  0  0  0  0  0
  142.9257  134.4537  150.3350 H   0  0  0  0  0  0  0  0  0  0  0  0
  1  2  2  0  0  0  0
  2  3  1  0  0  0  0
  2 15  1  0  0  0  0
  3  4  1  0  0  0  0
  3 20  1  0  0  0  0
  4  5  1  0  0  0  0
  4 21  1  0  0  0  0
  4 22  1  0  0  0  0
  5  6  1  0  0  0  0
  5 23  1  0  0  0  0
  5 24  1  0  0  0  0
  6 14  1  0  0  0  0
  6  7  2  0  0  0  0
  7  8  1  0  0  0  0
  8  9  1  0  0  0  0
  8 13  2  0  0  0  0
  9 10  1  0  0  0  0
  9 11  1  0  0  0  0
  9 12  1  0  0  0  0
 13 14  1  0  0  0  0
 13 25  1  0  0  0  0
 15 19  1  0  0  0  0
 15 16  1  0  0  0  0
 15 26  1  0  0  0  0
 16 17  1  0  0  0  0
 16 27  1  0  0  0  0
 16 28  1  0  0  0  0
 17 18  1  0  0  0  0
 17 29  1  0  0  0  0
 17 30  1  0  0  0  0
 18 19  1  0  0  0  0
 18 31  1  0  0  0  0
 18 32  1  0  0  0  0
 19 33  1  0  0  0  0
 19 34  1  0  0  0  0
M  CHG  1  19   1
M  END
> <s_m_source_file>
AV-unprocessed.smi

> <i_m_source_file_index>
662

> <i_lp_mmshare_version>
43012

> <i_f3d_flags>
0

> <s_epik_input>
W05IXTFbQ0gyXVtDSDJdW0NIMl1bQ0BIXTFDKD1PKVtOSF1bQ0gyXVtDSDJdYzJuYyhDKEYpKEYpRilbY0hdczI=

> <s_epik_cmdline>
J2VwaWtfcHl0aG9uJywgJy1waCcsICc3LjAnLCAnLXRuJywgJzgnLCAnLW1hJywgJzIwMCcsICctbWV0YWxfYmluZGluZycsICctaW1hZScsICc8aW5maWxlLm1hZT4nLCAnLW9tYWUnLCAnPG91dGZpbGUubWFlPic=

> <r_epik_Ionization_Penalty>
0.0382401

> <r_epik_Ionization_Penalty_Charging>
0.0382382

> <r_epik_Ionization_Penalty_Neutral>
1.85239e-06

> <r_epik_State_Penalty>
0.0320549

> <r_epik_Charging_Adjusted_Penalty>
0.0702931

> <i_epik_Tot_Q>
1

> <i_epik_Tot_abs_Q>
1

> <r_epik_Metal_State_Penalty>
0.0320549

> <b_epik_Metal_Only>
0

> <s_lp_Force_Field>
OPLS_2005

> <r_lp_Energy>
5.09297

> <b_lp_Chiralities_Consistent>
1

> <s_lp_Variant>
AV-unprocessed.smi:662-2

> <Gold.Version>
5.8.1

> <Gold.Id.Protein>
6NUR|6NUR_protein|mol2

> <Gold.PLP.Fitness>
44.8261

> <Gold.PLP.PLP>
-36.1117

> <Gold.PLP.part.hbond>
-2.0000

> <Gold.PLP.part.metal>
0.0000

> <Gold.PLP.part.buried>
-2.9240

> <Gold.PLP.part.nonpolar>
-31.1182

> <Gold.PLP.part.repulsive>
0.2828

> <Gold.PLP.ligand.clash>
0.0000

> <Gold.PLP.ligand.torsion>
0.6084

> <Gold.PLP.Chemscore.Hbond>
2.3786

> <Gold.PLP.Chemscore.CHOScore>
0.9229

> <Gold.PLP.Chemscore.Metal>
0.0000

> <Gold.Chemscore.Hbonds>
donor molecule, donor type, donor heavy atom, donor atom, acceptor molecule, acceptor atom, score
      L1  H     3    20       P1  7948  0.44
      L1  H    19    34       P1 10186  1.82
      L1  C    13    25       P1  8028  0.95

> <Gold.PLP.Chemscore.Internal.Correction>
0.0266

> <Gold.Rescore>
     Score         DG    S(hbond)    S(metal)    S(lipo)     H(rot)  DE(clash)    DE(int)     intcor
     12.81     -13.75       1.31        0.00      76.38       1.97       0.26       0.68       ----

> <Gold.Chemscore.Fitness>
12.8091

> <Gold.Chemscore.DG>
-13.7496

> <Gold.Chemscore.ZeroCoef>
-5.4800

> <Gold.Chemscore.Hbond>
1.3102

> <Gold.Chemscore.Metal>
0.0000

> <Gold.Chemscore.Lipo>
76.3772

> <Gold.Chemscore.Internal_Hbond>
0.0000

> <Gold.Chemscore.DEClash>
0.2566

> <Gold.Chemscore.DEInternal>
0.6839

> <Gold.Chemscore.Rot>
1.9697

> <Gold.Chemscore.Internal.Correction>
   9.000000E+99

> <Gold.Chemscore.Hbonds>
donor molecule, donor type, donor heavy atom, donor atom, acceptor molecule, acceptor atom, score
      L1  H     3    20       P1  7948  0.44
      L1  H    19    34       P1 10186  0.58

> <Gold.Chemscore.Hbond.Weighted>
-4.3759

> <Gold.Chemscore.Metal.Weighted>
-0.0000

> <Gold.Chemscore.Lipo.Weighted>
-8.9361

> <Gold.Chemscore.Internal_Hbond.Weighted>
0.0000

> <Gold.Chemscore.DEClash.Weighted>
0.2566

> <Gold.Chemscore.DEInternal.Weighted>
0.6839

> <Gold.Chemscore.Rot.Weighted>
5.0424

> <Gold.Chemscore.Internal.Correction.Weighted>
   9.000000E+99

> <Gold.Protein.RotatedTorsions>
[ 6907 6896 6895 6894 ] final -134.59 input  -60.11 | X-H torsion
[ 7974 7965 7964 7962 ] final  -10.46 input  175.53 | X-H torsion
[ 8008 7997 7996 7995 ] final  -80.87 input   59.86 | X-H torsion
[ 10167 10162 10161 10158 ] final    0.27 input  -65.29 | X-H torsion
[ 10718 10713 10712 10709 ] final   -2.70 input   66.30 | X-H torsion
[ 10763 10752 10751 10750 ] final  146.24 input  -60.55 | X-H torsion
[ 11005 11000 10999 10996 ] final   67.16 input  -57.11 | X-H torsion

> <Gold.Protein.ActiveResidues>
 VAL166  LYS551  ARG553  GLY616  TRP617  ASP618  TYR619  PRO620  LYS621  CYS622 
 ASP623  PHE694  ASN695  SER759  ASP760  ASP761  ALA762  ILE779  LEU786  VAL792 
 PHE793  MET794  SER795  GLU796  ALA797  LYS798  CYS799  TRP800  GLU811  SER814 

> <Gold.Protein.RotatedAtoms>
  150.9877  133.6181  159.2712 H   0  0  0  0  0  0  0  0  0  0  0  0  # atno 6907 bound_to 6896
  151.3413  135.0863  159.9381 H   0  0  0  0  0  0  0  0  0  0  0  0  # atno 6908 bound_to 6896
  152.5236  133.9488  159.7716 H   0  0  0  0  0  0  0  0  0  0  0  0  # atno 6909 bound_to 6896
  146.2220  140.2767  142.8360 H   0  0  0  0  0  0  0  0  0  0  0  0  # atno 7974 bound_to 7965
  154.5927  140.0656  156.9260 H   0  0  0  0  0  0  0  0  0  0  0  0  # atno 8008 bound_to 7997
  155.2268  140.3334  155.4290 H   0  0  0  0  0  0  0  0  0  0  0  0  # atno 8009 bound_to 7997
  156.2266  140.1822  156.7331 H   0  0  0  0  0  0  0  0  0  0  0  0  # atno 8010 bound_to 7997
  140.6736  143.6979  150.7975 H   0  0  0  0  0  0  0  0  0  0  0  0  # atno 10167 bound_to 10162
  156.7869  130.5349  149.5742 H   0  0  0  0  0  0  0  0  0  0  0  0  # atno 10718 bound_to 10713
  154.0187  135.2908  155.3383 H   0  0  0  0  0  0  0  0  0  0  0  0  # atno 10763 bound_to 10752
  154.7059  135.5169  153.8598 H   0  0  0  0  0  0  0  0  0  0  0  0  # atno 10764 bound_to 10752
  153.0691  135.6641  154.0411 H   0  0  0  0  0  0  0  0  0  0  0  0  # atno 10765 bound_to 10752
  139.9787  134.6779  156.0303 H   0  0  0  0  0  0  0  0  0  0  0  0  # atno 11005 bound_to 11000
  144.9227  140.7887  143.5738 LP  0  0  0  0  0  0  0  0  0  0  0  0  # atno 17320 bound_to 7965
  145.2705  139.1956  143.4844 LP  0  0  0  0  0  0  0  0  0  0  0  0  # atno 17321 bound_to 7965
  140.0669  143.5100  152.2600 LP  0  0  0  0  0  0  0  0  0  0  0  0  # atno 17342 bound_to 10162
  139.6017  144.7584  151.3157 LP  0  0  0  0  0  0  0  0  0  0  0  0  # atno 17343 bound_to 10162
  156.1183  130.6091  151.0154 LP  0  0  0  0  0  0  0  0  0  0  0  0  # atno 17370 bound_to 10713
  157.6619  131.0879  150.7818 LP  0  0  0  0  0  0  0  0  0  0  0  0  # atno 17371 bound_to 10713
  141.1462  133.6555  156.3874 LP  0  0  0  0  0  0  0  0  0  0  0  0  # atno 17394 bound_to 11000
  140.5140  134.6367  157.5295 LP  0  0  0  0  0  0  0  0  0  0  0  0  # atno 17395 bound_to 11000

$$$$
