AV-unprocessed.smi:649|AV-procd|sdf|3181|dock5
  -GOLD-   22720 0103D 1   1.00000     0.00000
 Structure written by MMmdl.
 34 35  0  0  0  0  0  0  0  0  2 V2000
  153.4358  142.6704  163.7086 C   0  0  0  0  0  0  0  0  0  0  0  0
  152.9794  142.8682  162.2782 C   0  0  0  0  0  0  0  0  0  0  0  0
  152.4922  144.1169  161.8520 C   0  0  0  0  0  0  0  0  0  0  0  0
  152.0875  144.2927  160.5168 C   0  0  0  0  0  0  0  0  0  0  0  0
  152.1670  143.2309  159.5897 C   0  0  0  0  0  0  0  0  0  0  0  0
  151.7262  143.5030  158.1605 C   0  0  0  0  0  0  0  0  0  0  0  0
  152.6552  141.9631  160.0161 C   0  0  0  0  0  0  0  0  0  0  0  0
  152.8154  140.7564  159.0838 C   0  0  1  0  0  0  0  0  0  0  0  0
  154.1582  140.3604  158.8942 O   0  0  0  0  0  0  0  0  0  0  0  0
  151.9632  139.5285  159.4876 C   0  0  0  0  0  0  0  0  0  0  0  0
  151.7315  138.6040  158.3664 N   0  0  0  0  0  0  0  0  0  0  0  0
  151.4551  139.1578  157.1040 C   0  0  0  0  0  0  0  0  0  0  0  0
  151.2710  138.3915  156.0120 C   0  0  0  0  0  0  0  0  0  0  0  0
  150.9503  139.1018  154.4702 Cl  0  0  0  0  0  0  0  0  0  0  0  0
  151.3589  136.9412  156.1691 C   0  0  0  0  0  0  0  0  0  0  0  0
  151.1947  136.2116  155.1923 O   0  0  0  0  0  0  0  0  0  0  0  0
  151.6242  136.4533  157.4165 N   0  5  0  0  0  0  0  0  0  0  0  0
  151.8161  137.2489  158.5135 C   0  0  0  0  0  0  0  0  0  0  0  0
  152.0694  136.7867  159.6262 O   0  0  0  0  0  0  0  0  0  0  0  0
  153.0542  141.8020  161.3627 C   0  0  0  0  0  0  0  0  0  0  0  0
  153.0202  143.4357  164.3645 H   0  0  0  0  0  0  0  0  0  0  0  0
  154.5234  142.7224  163.7650 H   0  0  0  0  0  0  0  0  0  0  0  0
  153.1187  141.6961  164.0816 H   0  0  0  0  0  0  0  0  0  0  0  0
  152.4314  144.9442  162.5437 H   0  0  0  0  0  0  0  0  0  0  0  0
  151.7186  145.2587  160.2050 H   0  0  0  0  0  0  0  0  0  0  0  0
  150.7890  142.9907  157.9444 H   0  0  0  0  0  0  0  0  0  0  0  0
  152.4775  143.1792  157.4433 H   0  0  0  0  0  0  0  0  0  0  0  0
  151.5633  144.5682  157.9952 H   0  0  0  0  0  0  0  0  0  0  0  0
  152.4800  141.0695  158.0944 H   0  0  0  0  0  0  0  0  0  0  0  0
  154.5868  140.3548  159.7362 H   0  0  0  0  0  0  0  0  0  0  0  0
  152.4383  139.0032  160.3179 H   0  0  0  0  0  0  0  0  0  0  0  0
  151.0028  139.8521  159.8866 H   0  0  0  0  0  0  0  0  0  0  0  0
  151.4186  140.2370  157.0749 H   0  0  0  0  0  0  0  0  0  0  0  0
  153.4426  140.8506  161.6969 H   0  0  0  0  0  0  0  0  0  0  0  0
  1  2  1  0  0  0  0
  1 21  1  0  0  0  0
  1 22  1  0  0  0  0
  1 23  1  0  0  0  0
  2 20  1  0  0  0  0
  2  3  2  0  0  0  0
  3  4  1  0  0  0  0
  3 24  1  0  0  0  0
  4  5  2  0  0  0  0
  4 25  1  0  0  0  0
  5  6  1  0  0  0  0
  5  7  1  0  0  0  0
  6 26  1  0  0  0  0
  6 27  1  0  0  0  0
  6 28  1  0  0  0  0
  7  8  1  0  0  0  0
  7 20  2  0  0  0  0
  8  9  1  0  0  0  0
  8 10  1  0  0  0  0
  8 29  1  0  0  0  0
  9 30  1  0  0  0  0
 10 11  1  0  0  0  0
 10 31  1  0  0  0  0
 10 32  1  0  0  0  0
 11 18  1  0  0  0  0
 11 12  1  0  0  0  0
 12 13  2  0  0  0  0
 12 33  1  0  0  0  0
 13 14  1  0  0  0  0
 13 15  1  0  0  0  0
 15 16  2  0  0  0  0
 15 17  1  0  0  0  0
 17 18  1  0  0  0  0
 18 19  2  0  0  0  0
 20 34  1  0  0  0  0
M  CHG  1  17  -1
M  END
> <s_m_source_file>
AV-unprocessed.smi

> <i_m_source_file_index>
649

> <i_lp_mmshare_version>
43012

> <i_f3d_flags>
0

> <s_epik_input>
W0NIM11jMVtjSF1bY0hdYyhbQ0gzXSljKFtjSF0xKVtDQEhdKFtPSF0pW0NIMl1uMltjSF1jKENsKWMoPU8pW25IXWMyPU8=

> <s_epik_cmdline>
J2VwaWtfcHl0aG9uJywgJy1waCcsICc3LjAnLCAnLXRuJywgJzgnLCAnLW1hJywgJzIwMCcsICctbWV0YWxfYmluZGluZycsICctaW1hZScsICc8aW5maWxlLm1hZT4nLCAnLW9tYWUnLCAnPG91dGZpbGUubWFlPic=

> <r_epik_Ionization_Penalty>
1.7979

> <r_epik_Ionization_Penalty_Charging>
3.23819e-08

> <r_epik_Ionization_Penalty_Neutral>
1.7979

> <r_epik_State_Penalty>
1.91135

> <r_epik_Charging_Adjusted_Penalty>
1.91135

> <i_epik_Tot_Q>
-1

> <i_epik_Tot_abs_Q>
1

> <r_epik_Metal_State_Penalty>
0.014155

> <b_epik_Metal_Only>
0

> <s_lp_Force_Field>
OPLS_2005

> <r_lp_Energy>
20.3663

> <b_lp_Chiralities_Consistent>
1

> <s_lp_Variant>
AV-unprocessed.smi:649-4

> <Gold.Version>
5.8.1

> <Gold.Id.Protein>
6NUR|6NUR_protein|mol2

> <Gold.PLP.Fitness>
47.3300

> <Gold.PLP.PLP>
-39.9516

> <Gold.PLP.part.hbond>
-2.9107

> <Gold.PLP.part.metal>
0.0000

> <Gold.PLP.part.buried>
-2.7350

> <Gold.PLP.part.nonpolar>
-34.2837

> <Gold.PLP.part.repulsive>
0.1098

> <Gold.PLP.ligand.clash>
0.0000

> <Gold.PLP.ligand.torsion>
0.4281

> <Gold.PLP.Chemscore.Hbond>
2.7200

> <Gold.PLP.Chemscore.CHOScore>
0.0000

> <Gold.PLP.Chemscore.Metal>
0.0000

> <Gold.Chemscore.Hbonds>
donor molecule, donor type, donor heavy atom, donor atom, acceptor molecule, acceptor atom, score
      P1  H  6896  6907       L1    19  1.00
      P1  H  7997  8010       L1     9  0.83
      P1  H 10752 10765       L1    16  1.00

> <Gold.PLP.Chemscore.Internal.Correction>
0.0745

> <Gold.Rescore>
     Score         DG    S(hbond)    S(metal)    S(lipo)     H(rot)  DE(clash)    DE(int)     intcor
     22.06     -23.59       2.67        0.00     124.22       2.09       1.01       0.52       ----

> <Gold.Chemscore.Fitness>
22.0631

> <Gold.Chemscore.DG>
-23.5895

> <Gold.Chemscore.ZeroCoef>
-5.4800

> <Gold.Chemscore.Hbond>
2.6700

> <Gold.Chemscore.Metal>
0.0000

> <Gold.Chemscore.Lipo>
124.2212

> <Gold.Chemscore.Internal_Hbond>
0.0000

> <Gold.Chemscore.DEClash>
1.0085

> <Gold.Chemscore.DEInternal>
0.5179

> <Gold.Chemscore.Rot>
2.0868

> <Gold.Chemscore.Internal.Correction>
   9.000000E+99

> <Gold.Chemscore.Hbonds>
donor molecule, donor type, donor heavy atom, donor atom, acceptor molecule, acceptor atom, score
      P1  H  6896  6907       L1    19  0.99
      P1  H  7997  8010       L1     9  0.81
      P1  H 10752 10765       L1    16  0.60

> <Gold.Chemscore.Hbond.Weighted>
-8.9179

> <Gold.Chemscore.Metal.Weighted>
-0.0000

> <Gold.Chemscore.Lipo.Weighted>
-14.5339

> <Gold.Chemscore.Internal_Hbond.Weighted>
0.0000

> <Gold.Chemscore.DEClash.Weighted>
1.0085

> <Gold.Chemscore.DEInternal.Weighted>
0.5179

> <Gold.Chemscore.Rot.Weighted>
5.3423

> <Gold.Chemscore.Internal.Correction.Weighted>
   9.000000E+99

> <Gold.Protein.RotatedTorsions>
[ 6907 6896 6895 6894 ] final   10.10 input  -60.11 | X-H torsion
[ 7974 7965 7964 7962 ] final  109.03 input  175.53 | X-H torsion
[ 8008 7997 7996 7995 ] final   12.21 input   59.86 | X-H torsion
[ 10167 10162 10161 10158 ] final   55.58 input  -65.29 | X-H torsion
[ 10718 10713 10712 10709 ] final  -82.66 input   66.30 | X-H torsion
[ 10763 10752 10751 10750 ] final -175.96 input  -60.55 | X-H torsion
[ 11005 11000 10999 10996 ] final  -13.29 input  -57.11 | X-H torsion

> <Gold.Protein.ActiveResidues>
 VAL166  LYS551  ARG553  GLY616  TRP617  ASP618  TYR619  PRO620  LYS621  CYS622 
 ASP623  PHE694  ASN695  SER759  ASP760  ASP761  ALA762  ILE779  LEU786  VAL792 
 PHE793  MET794  SER795  GLU796  ALA797  LYS798  CYS799  TRP800  GLU811  SER814 

> <Gold.Protein.RotatedAtoms>
  151.7329  135.0871  160.0302 H   0  0  0  0  0  0  0  0  0  0  0  0  # atno 6907 bound_to 6896
  152.3529  133.6198  159.5967 H   0  0  0  0  0  0  0  0  0  0  0  0  # atno 6908 bound_to 6896
  150.7552  133.9461  159.3513 H   0  0  0  0  0  0  0  0  0  0  0  0  # atno 6909 bound_to 6896
  145.2730  139.2660  143.3956 H   0  0  0  0  0  0  0  0  0  0  0  0  # atno 7974 bound_to 7965
  154.8174  140.2878  155.5810 H   0  0  0  0  0  0  0  0  0  0  0  0  # atno 8008 bound_to 7997
  156.2994  140.2556  156.3005 H   0  0  0  0  0  0  0  0  0  0  0  0  # atno 8009 bound_to 7997
  154.9377  140.0382  157.2070 H   0  0  0  0  0  0  0  0  0  0  0  0  # atno 8010 bound_to 7997
  140.2179  144.3820  150.6462 H   0  0  0  0  0  0  0  0  0  0  0  0  # atno 10167 bound_to 10162
  156.0030  130.4641  150.4138 H   0  0  0  0  0  0  0  0  0  0  0  0  # atno 10718 bound_to 10713
  154.5781  135.2834  155.0760 H   0  0  0  0  0  0  0  0  0  0  0  0  # atno 10763 bound_to 10752
  154.2107  135.6408  153.5118 H   0  0  0  0  0  0  0  0  0  0  0  0  # atno 10764 bound_to 10752
  153.0079  135.5491  154.6426 H   0  0  0  0  0  0  0  0  0  0  0  0  # atno 10765 bound_to 10752
  140.7745  133.8412  155.9236 H   0  0  0  0  0  0  0  0  0  0  0  0  # atno 11005 bound_to 11000
  146.3240  140.3177  142.8631 LP  0  0  0  0  0  0  0  0  0  0  0  0  # atno 17320 bound_to 7965
  144.9319  140.7984  143.5684 LP  0  0  0  0  0  0  0  0  0  0  0  0  # atno 17321 bound_to 7965
  140.6276  143.2183  151.6563 LP  0  0  0  0  0  0  0  0  0  0  0  0  # atno 17342 bound_to 10162
  139.5155  144.3376  152.0769 LP  0  0  0  0  0  0  0  0  0  0  0  0  # atno 17343 bound_to 10162
  157.2199  131.0480  151.2552 LP  0  0  0  0  0  0  0  0  0  0  0  0  # atno 17370 bound_to 10713
  157.3810  130.7231  149.6630 LP  0  0  0  0  0  0  0  0  0  0  0  0  # atno 17371 bound_to 10713
  140.9542  134.1740  157.4705 LP  0  0  0  0  0  0  0  0  0  0  0  0  # atno 17394 bound_to 11000
  139.8751  134.9920  156.5578 LP  0  0  0  0  0  0  0  0  0  0  0  0  # atno 17395 bound_to 11000

$$$$
