AV-unprocessed.smi:2218|AV-procd|sdf|8976|dock8
  -GOLD-   2272012193D 1   1.00000     0.00000
 Structure written by MMmdl.
 32 32  0  0  0  0  0  0  0  0  2 V2000
  152.9389  142.1150  160.6537 C   0  0  0  0  0  0  0  0  0  0  0  0
  152.2938  142.7821  159.4878 C   0  0  0  0  0  0  0  0  0  0  0  0
  151.9090  142.1333  158.3857 N   0  0  0  0  0  0  0  0  0  0  0  0
  151.3353  142.9825  157.4332 C   0  0  0  0  0  0  0  0  0  0  0  0
  150.8427  142.4230  156.1276 C   0  0  0  0  0  0  0  0  0  0  0  0
  150.7533  140.8910  156.1449 C   0  0  0  0  0  0  0  0  0  0  0  0
  151.3313  140.2045  155.3004 O   0  0  0  0  0  0  0  0  0  0  0  0
  150.0022  140.3652  157.1245 N   0  0  0  0  0  0  0  0  0  0  0  0
  149.7391  138.9429  157.3101 C   0  0  0  0  0  0  0  0  0  0  0  0
  151.0366  138.1215  157.2446 C   0  0  0  0  0  0  0  0  0  0  0  0
  151.8918  138.2668  158.5109 C   0  0  0  0  0  0  0  0  0  0  0  0
  153.3535  137.8345  158.2800 C   0  0  0  0  0  0  0  0  0  0  0  0
  153.5329  136.3120  158.2150 C   0  0  0  0  0  0  0  0  0  0  0  0
  153.2507  135.6778  159.2549 O   0  0  0  0  0  0  0  0  0  0  0  0
  153.9372  135.7986  157.1478 O   0  5  0  0  0  0  0  0  0  0  0  0
  151.2834  144.2934  157.8399 C   0  0  0  0  0  0  0  0  0  0  0  0
  151.9667  144.5096  159.4276 S   0  0  0  0  0  0  0  0  0  0  0  0
  152.7999  141.0346  160.6030 H   0  0  0  0  0  0  0  0  0  0  0  0
  152.5001  142.4796  161.5824 H   0  0  0  0  0  0  0  0  0  0  0  0
  154.0073  142.3313  160.6612 H   0  0  0  0  0  0  0  0  0  0  0  0
  149.8605  142.8300  155.8838 H   0  0  0  0  0  0  0  0  0  0  0  0
  151.5088  142.7207  155.3170 H   0  0  0  0  0  0  0  0  0  0  0  0
  149.5641  140.9977  157.7782 H   0  0  0  0  0  0  0  0  0  0  0  0
  149.2233  138.7733  158.2569 H   0  0  0  0  0  0  0  0  0  0  0  0
  149.0564  138.6212  156.5233 H   0  0  0  0  0  0  0  0  0  0  0  0
  150.7914  137.0695  157.0933 H   0  0  0  0  0  0  0  0  0  0  0  0
  151.6237  138.4295  156.3785 H   0  0  0  0  0  0  0  0  0  0  0  0
  151.8617  139.3051  158.8448 H   0  0  0  0  0  0  0  0  0  0  0  0
  151.4514  137.6685  159.3101 H   0  0  0  0  0  0  0  0  0  0  0  0
  153.7234  138.2641  157.3482 H   0  0  0  0  0  0  0  0  0  0  0  0
  153.9868  138.2219  159.0788 H   0  0  0  0  0  0  0  0  0  0  0  0
  150.8920  145.1423  157.2996 H   0  0  0  0  0  0  0  0  0  0  0  0
  1  2  1  0  0  0  0
  1 18  1  0  0  0  0
  1 19  1  0  0  0  0
  1 20  1  0  0  0  0
  2 17  1  0  0  0  0
  2  3  2  0  0  0  0
  3  4  1  0  0  0  0
  4  5  1  0  0  0  0
  4 16  2  0  0  0  0
  5  6  1  0  0  0  0
  5 21  1  0  0  0  0
  5 22  1  0  0  0  0
  6  7  2  0  0  0  0
  6  8  1  0  0  0  0
  8  9  1  0  0  0  0
  8 23  1  0  0  0  0
  9 10  1  0  0  0  0
  9 24  1  0  0  0  0
  9 25  1  0  0  0  0
 10 11  1  0  0  0  0
 10 26  1  0  0  0  0
 10 27  1  0  0  0  0
 11 12  1  0  0  0  0
 11 28  1  0  0  0  0
 11 29  1  0  0  0  0
 12 13  1  0  0  0  0
 12 30  1  0  0  0  0
 12 31  1  0  0  0  0
 13 14  2  0  0  0  0
 13 15  1  0  0  0  0
 16 17  1  0  0  0  0
 16 32  1  0  0  0  0
M  CHG  1  15  -1
M  END
> <s_m_source_file>
AV-unprocessed.smi

> <i_m_source_file_index>
2218

> <i_lp_mmshare_version>
43012

> <i_f3d_flags>
0

> <s_epik_input>
W0NIM11jMW5jKFtjSF1zMSlbQ0gyXUMoPU8pW05IXVtDSDJdW0NIMl1bQ0gyXVtDSDJdQyg9TylbT0hd

> <s_epik_cmdline>
J2VwaWtfcHl0aG9uJywgJy1waCcsICc3LjAnLCAnLXRuJywgJzgnLCAnLW1hJywgJzIwMCcsICctbWV0YWxfYmluZGluZycsICctaW1hZScsICc8aW5maWxlLm1hZT4nLCAnLW9tYWUnLCAnPG91dGZpbGUubWFlPic=

> <r_epik_Ionization_Penalty>
0.0039764

> <r_epik_Ionization_Penalty_Charging>
0.00392012

> <r_epik_Ionization_Penalty_Neutral>
5.62812e-05

> <r_epik_State_Penalty>
0.00280293

> <r_epik_Charging_Adjusted_Penalty>
0.00672305

> <i_epik_Tot_Q>
-1

> <i_epik_Tot_abs_Q>
1

> <r_epik_Metal_State_Penalty>
-0

> <b_epik_Metal_Only>
0

> <s_lp_Force_Field>
OPLS_2005

> <r_lp_Energy>
1.59535

> <b_lp_Chiralities_Consistent>
1

> <s_lp_Variant>
AV-unprocessed.smi:2218-1

> <Gold.Version>
5.8.1

> <Gold.Id.Protein>
6NUR|6NUR_protein|mol2

> <Gold.PLP.Fitness>
47.0049

> <Gold.PLP.PLP>
-30.3216

> <Gold.PLP.part.hbond>
-3.0000

> <Gold.PLP.part.metal>
0.0000

> <Gold.PLP.part.buried>
-3.2670

> <Gold.PLP.part.nonpolar>
-24.1428

> <Gold.PLP.part.repulsive>
0.0683

> <Gold.PLP.ligand.clash>
0.0000

> <Gold.PLP.ligand.torsion>
0.4407

> <Gold.PLP.Chemscore.Hbond>
5.0000

> <Gold.PLP.Chemscore.CHOScore>
0.8416

> <Gold.PLP.Chemscore.Metal>
0.0000

> <Gold.Chemscore.Hbonds>
donor molecule, donor type, donor heavy atom, donor atom, acceptor molecule, acceptor atom, score
      P1  H  6896  6907       L1    14  1.51
      P1  H  7989  7998       L1     7  1.00
      P1  H 10752 10763       L1    15  2.00
      L1  C    16    32       P1  8028  0.70

> <Gold.PLP.Chemscore.Internal.Correction>
0.0399

> <Gold.Rescore>
     Score         DG    S(hbond)    S(metal)    S(lipo)     H(rot)  DE(clash)    DE(int)     intcor
     15.94     -17.57       2.91        0.00      82.31       2.83       0.01       1.61       ----

> <Gold.Chemscore.Fitness>
15.9448

> <Gold.Chemscore.DG>
-17.5695

> <Gold.Chemscore.ZeroCoef>
-5.4800

> <Gold.Chemscore.Hbond>
2.9065

> <Gold.Chemscore.Metal>
0.0000

> <Gold.Chemscore.Lipo>
82.3083

> <Gold.Chemscore.Internal_Hbond>
0.0000

> <Gold.Chemscore.DEClash>
0.0111

> <Gold.Chemscore.DEInternal>
1.6135

> <Gold.Chemscore.Rot>
2.8313

> <Gold.Chemscore.Internal.Correction>
   9.000000E+99

> <Gold.Chemscore.Hbonds>
donor molecule, donor type, donor heavy atom, donor atom, acceptor molecule, acceptor atom, score
      P1  H  6896  6907       L1    14  0.72
      P1  H  7989  7998       L1     7  0.94
      P1  H 10752 10763       L1    15  1.00

> <Gold.Chemscore.Hbond.Weighted>
-9.7076

> <Gold.Chemscore.Metal.Weighted>
-0.0000

> <Gold.Chemscore.Lipo.Weighted>
-9.6301

> <Gold.Chemscore.Internal_Hbond.Weighted>
0.0000

> <Gold.Chemscore.DEClash.Weighted>
0.0111

> <Gold.Chemscore.DEInternal.Weighted>
1.6135

> <Gold.Chemscore.Rot.Weighted>
7.2482

> <Gold.Chemscore.Internal.Correction.Weighted>
   9.000000E+99

> <Gold.Protein.RotatedTorsions>
[ 6907 6896 6895 6894 ] final   51.80 input  -60.11 | X-H torsion
[ 7974 7965 7964 7962 ] final  170.64 input  175.53 | X-H torsion
[ 8008 7997 7996 7995 ] final  165.58 input   59.86 | X-H torsion
[ 10167 10162 10161 10158 ] final -138.53 input  -65.29 | X-H torsion
[ 10718 10713 10712 10709 ] final  125.44 input   66.30 | X-H torsion
[ 10763 10752 10751 10750 ] final  142.80 input  -60.55 | X-H torsion
[ 11005 11000 10999 10996 ] final   76.32 input  -57.11 | X-H torsion

> <Gold.Protein.ActiveResidues>
 VAL166  LYS551  ARG553  GLY616  TRP617  ASP618  TYR619  PRO620  LYS621  CYS622 
 ASP623  PHE694  ASN695  SER759  ASP760  ASP761  ALA762  ILE779  LEU786  VAL792 
 PHE793  MET794  SER795  GLU796  ALA797  LYS798  CYS799  TRP800  GLU811  SER814 

> <Gold.Protein.RotatedAtoms>
  152.3165  134.7433  160.0323 H   0  0  0  0  0  0  0  0  0  0  0  0  # atno 6907 bound_to 6896
  151.7896  133.3352  159.3503 H   0  0  0  0  0  0  0  0  0  0  0  0  # atno 6908 bound_to 6896
  150.7347  134.5786  159.5971 H   0  0  0  0  0  0  0  0  0  0  0  0  # atno 6909 bound_to 6896
  144.7318  139.9232  143.6421 H   0  0  0  0  0  0  0  0  0  0  0  0  # atno 7974 bound_to 7965
  156.1788  140.1666  156.8312 H   0  0  0  0  0  0  0  0  0  0  0  0  # atno 8008 bound_to 7997
  154.5337  140.0751  156.8423 H   0  0  0  0  0  0  0  0  0  0  0  0  # atno 8009 bound_to 7997
  155.3354  140.3381  155.4241 H   0  0  0  0  0  0  0  0  0  0  0  0  # atno 8010 bound_to 7997
  139.8469  143.7249  152.2660 H   0  0  0  0  0  0  0  0  0  0  0  0  # atno 10167 bound_to 10162
  157.5503  131.1094  150.8714 H   0  0  0  0  0  0  0  0  0  0  0  0  # atno 10718 bound_to 10713
  153.9618  135.2959  155.3433 H   0  0  0  0  0  0  0  0  0  0  0  0  # atno 10763 bound_to 10752
  154.7371  135.5042  153.9062 H   0  0  0  0  0  0  0  0  0  0  0  0  # atno 10764 bound_to 10752
  153.0943  135.6716  153.9904 H   0  0  0  0  0  0  0  0  0  0  0  0  # atno 10765 bound_to 10752
  139.9303  134.7591  156.1381 H   0  0  0  0  0  0  0  0  0  0  0  0  # atno 11005 bound_to 11000
  146.0914  139.3904  143.0403 LP  0  0  0  0  0  0  0  0  0  0  0  0  # atno 17320 bound_to 7965
  145.7706  140.9898  143.1152 LP  0  0  0  0  0  0  0  0  0  0  0  0  # atno 17321 bound_to 7965
  139.7503  144.7536  151.0516 LP  0  0  0  0  0  0  0  0  0  0  0  0  # atno 17342 bound_to 10162
  140.7792  143.4867  150.9946 LP  0  0  0  0  0  0  0  0  0  0  0  0  # atno 17343 bound_to 10162
  156.9240  130.5325  149.5279 LP  0  0  0  0  0  0  0  0  0  0  0  0  # atno 17370 bound_to 10713
  156.0571  130.5630  150.9114 LP  0  0  0  0  0  0  0  0  0  0  0  0  # atno 17371 bound_to 10713
  141.0888  133.6723  156.2495 LP  0  0  0  0  0  0  0  0  0  0  0  0  # atno 17394 bound_to 11000
  140.6220  134.5352  157.5548 LP  0  0  0  0  0  0  0  0  0  0  0  0  # atno 17395 bound_to 11000

$$$$
