AV-unprocessed.smi:2801|AV-procd|sdf|10798|dock10
  -GOLD-   2272015233D 1   1.00000     0.00000
 Structure written by MMmdl.
 32 32  0  0  0  0  0  0  0  0  3 V2000
  154.0804  141.6572  160.7017 C   0  0  0  0  0  0  0  0  0  0  0  0
  152.9913  142.5885  160.1653 C   0  0  0  0  0  0  0  0  0  0  0  0
  152.4363  142.0069  158.9919 O   0  0  0  0  0  0  0  0  0  0  0  0
  151.2487  142.6270  158.5039 C   0  0  1  0  0  0  0  0  0  0  0  0
  151.6602  143.8956  157.7331 C   0  0  0  0  0  0  0  0  0  0  0  0
  152.1147  145.0318  158.6578 C   0  0  0  0  0  0  0  0  0  0  0  0
  150.4784  141.6520  157.5982 C   0  0  0  0  0  0  0  0  0  0  0  0
  149.2973  141.4036  157.8396 O   0  0  0  0  0  0  0  0  0  0  0  0
  151.1734  141.1532  156.5596 N   0  0  0  0  0  0  0  0  0  0  0  0
  150.7640  140.2437  155.5434 C   0  0  0  0  0  0  0  0  0  0  0  0
  149.4491  140.1963  155.0124 C   0  0  0  0  0  0  0  0  0  0  0  0
  149.1362  139.2475  154.0184 C   0  0  0  0  0  0  0  0  0  0  0  0
  150.0808  138.3868  153.5853 N   0  3  0  0  0  0  0  0  0  0  0  0
  151.3405  138.3840  154.0680 C   0  0  0  0  0  0  0  0  0  0  0  0
  151.7163  139.3097  155.0625 C   0  0  0  0  0  0  0  0  0  0  0  0
  152.9965  139.2864  155.5411 O   0  5  0  0  0  0  0  0  0  0  0  0
  154.5346  142.0672  161.6038 H   0  0  0  0  0  0  0  0  0  0  0  0
  154.8704  141.5137  159.9641 H   0  0  0  0  0  0  0  0  0  0  0  0
  153.6699  140.6777  160.9486 H   0  0  0  0  0  0  0  0  0  0  0  0
  152.2293  142.7366  160.9313 H   0  0  0  0  0  0  0  0  0  0  0  0
  153.4205  143.5643  159.9333 H   0  0  0  0  0  0  0  0  0  0  0  0
  150.6173  142.9213  159.3451 H   0  0  0  0  0  0  0  0  0  0  0  0
  152.4610  143.6627  157.0298 H   0  0  0  0  0  0  0  0  0  0  0  0
  150.8205  144.2512  157.1343 H   0  0  0  0  0  0  0  0  0  0  0  0
  152.3832  145.9172  158.0814 H   0  0  0  0  0  0  0  0  0  0  0  0
  152.9866  144.7403  159.2437 H   0  0  0  0  0  0  0  0  0  0  0  0
  151.3230  145.3146  159.3520 H   0  0  0  0  0  0  0  0  0  0  0  0
  152.1109  141.5123  156.4457 H   0  0  0  0  0  0  0  0  0  0  0  0
  148.6684  140.8574  155.3529 H   0  0  0  0  0  0  0  0  0  0  0  0
  148.1613  139.1483  153.5645 H   0  0  0  0  0  0  0  0  0  0  0  0
  152.0063  137.6437  153.6485 H   0  0  0  0  0  0  0  0  0  0  0  0
  149.8322  137.7069  152.8669 H   0  0  0  0  0  0  0  0  0  0  0  0
  1  2  1  0  0  0  0
  1 17  1  0  0  0  0
  1 18  1  0  0  0  0
  1 19  1  0  0  0  0
  2  3  1  0  0  0  0
  2 20  1  0  0  0  0
  2 21  1  0  0  0  0
  3  4  1  0  0  0  0
  4  5  1  0  0  0  0
  4  7  1  0  0  0  0
  4 22  1  0  0  0  0
  5  6  1  0  0  0  0
  5 23  1  0  0  0  0
  5 24  1  0  0  0  0
  6 25  1  0  0  0  0
  6 26  1  0  0  0  0
  6 27  1  0  0  0  0
  7  8  2  0  0  0  0
  7  9  1  0  0  0  0
  9 28  1  0  0  0  0
  9 10  1  0  0  0  0
 10 11  2  0  0  0  0
 10 15  1  0  0  0  0
 11 12  1  0  0  0  0
 11 29  1  0  0  0  0
 12 13  2  0  0  0  0
 12 30  1  0  0  0  0
 13 14  1  0  0  0  0
 13 32  1  0  0  0  0
 14 15  2  0  0  0  0
 14 31  1  0  0  0  0
 15 16  1  0  0  0  0
M  CHG  1  13   1
M  CHG  1  16  -1
M  END
> <s_m_source_file>
AV-unprocessed.smi

> <i_m_source_file_index>
2801

> <i_lp_mmshare_version>
43012

> <i_f3d_flags>
0

> <s_epik_input>
W0NIM11bQ0gyXU9bQ0BIXShbQ0gyXVtDSDNdKUMoPU8pW05IXWMxW2NIXVtjSF1uW2NIXWMxW09IXQ==

> <s_epik_cmdline>
J2VwaWtfcHl0aG9uJywgJy1waCcsICc3LjAnLCAnLXRuJywgJzgnLCAnLW1hJywgJzIwMCcsICctbWV0YWxfYmluZGluZycsICctaW1hZScsICc8aW5maWxlLm1hZT4nLCAnLW9tYWUnLCAnPG91dGZpbGUubWFlPic=

> <r_lp_tautomer_probability>
0.56342

> <r_epik_Ionization_Penalty>
0.0170685

> <r_epik_Ionization_Penalty_Charging>
0.0170685

> <r_epik_Ionization_Penalty_Neutral>
1.5328e-09

> <r_epik_State_Penalty>
0.331557

> <r_epik_Charging_Adjusted_Penalty>
0.348625

> <i_epik_Tot_Q>
0

> <i_epik_Tot_abs_Q>
2

> <r_epik_Metal_State_Penalty>
0.590147

> <b_epik_Metal_Only>
0

> <s_lp_Force_Field>
OPLS_2005

> <r_lp_Energy>
9.87866

> <b_lp_Chiralities_Consistent>
1

> <s_lp_Variant>
AV-unprocessed.smi:2801-2

> <Gold.Version>
5.8.1

> <Gold.Id.Protein>
6NUR|6NUR_protein|mol2

> <Gold.PLP.Fitness>
48.4860

> <Gold.PLP.PLP>
-37.6422

> <Gold.PLP.part.hbond>
-2.9445

> <Gold.PLP.part.metal>
0.0000

> <Gold.PLP.part.buried>
-4.3685

> <Gold.PLP.part.nonpolar>
-30.6885

> <Gold.PLP.part.repulsive>
0.2479

> <Gold.PLP.ligand.clash>
0.0000

> <Gold.PLP.ligand.torsion>
0.5954

> <Gold.PLP.Chemscore.Hbond>
4.0000

> <Gold.PLP.Chemscore.CHOScore>
0.0000

> <Gold.PLP.Chemscore.Metal>
0.0000

> <Gold.Chemscore.Hbonds>
donor molecule, donor type, donor heavy atom, donor atom, acceptor molecule, acceptor atom, score
      L1  H    13    32       P1  7948  2.00
      P1  H  7997  8009       L1    16  2.00

> <Gold.PLP.Chemscore.Internal.Correction>
0.0346

> <Gold.Rescore>
     Score         DG    S(hbond)    S(metal)    S(lipo)     H(rot)  DE(clash)    DE(int)     intcor
     17.18     -18.78       1.92        0.00      93.80       1.59       0.02       1.58       ----

> <Gold.Chemscore.Fitness>
17.1788

> <Gold.Chemscore.DG>
-18.7805

> <Gold.Chemscore.ZeroCoef>
-5.4800

> <Gold.Chemscore.Hbond>
1.9176

> <Gold.Chemscore.Metal>
0.0000

> <Gold.Chemscore.Lipo>
93.7990

> <Gold.Chemscore.Internal_Hbond>
0.0000

> <Gold.Chemscore.DEClash>
0.0203

> <Gold.Chemscore.DEInternal>
1.5814

> <Gold.Chemscore.Rot>
1.5933

> <Gold.Chemscore.Internal.Correction>
   9.000000E+99

> <Gold.Chemscore.Hbonds>
donor molecule, donor type, donor heavy atom, donor atom, acceptor molecule, acceptor atom, score
      L1  H    13    32       P1  7948  0.39
      P1  H  7997  8009       L1    16  1.00

> <Gold.Chemscore.Hbond.Weighted>
-6.4049

> <Gold.Chemscore.Metal.Weighted>
-0.0000

> <Gold.Chemscore.Lipo.Weighted>
-10.9745

> <Gold.Chemscore.Internal_Hbond.Weighted>
0.0000

> <Gold.Chemscore.DEClash.Weighted>
0.0203

> <Gold.Chemscore.DEInternal.Weighted>
1.5814

> <Gold.Chemscore.Rot.Weighted>
4.0789

> <Gold.Chemscore.Internal.Correction.Weighted>
   9.000000E+99

> <Gold.Protein.RotatedTorsions>
[ 6907 6896 6895 6894 ] final   78.81 input  -60.11 | X-H torsion
[ 7974 7965 7964 7962 ] final -129.33 input  175.53 | X-H torsion
[ 8008 7997 7996 7995 ] final -141.99 input   59.86 | X-H torsion
[ 10167 10162 10161 10158 ] final  132.63 input  -65.29 | X-H torsion
[ 10718 10713 10712 10709 ] final   90.99 input   66.30 | X-H torsion
[ 10763 10752 10751 10750 ] final -111.86 input  -60.55 | X-H torsion
[ 11005 11000 10999 10996 ] final   75.16 input  -57.11 | X-H torsion

> <Gold.Protein.ActiveResidues>
 VAL166  LYS551  ARG553  GLY616  TRP617  ASP618  TYR619  PRO620  LYS621  CYS622 
 ASP623  PHE694  ASN695  SER759  ASP760  ASP761  ALA762  ILE779  LEU786  VAL792 
 PHE793  MET794  SER795  GLU796  ALA797  LYS798  CYS799  TRP800  GLU811  SER814 

> <Gold.Protein.RotatedAtoms>
  152.5174  134.3607  159.9283 H   0  0  0  0  0  0  0  0  0  0  0  0  # atno 6907 bound_to 6896
  151.3560  133.3901  159.2692 H   0  0  0  0  0  0  0  0  0  0  0  0  # atno 6908 bound_to 6896
  150.9690  134.9084  159.7834 H   0  0  0  0  0  0  0  0  0  0  0  0  # atno 6909 bound_to 6896
  144.9582  140.7419  143.4745 H   0  0  0  0  0  0  0  0  0  0  0  0  # atno 7974 bound_to 7965
  155.4869  140.0564  157.2959 H   0  0  0  0  0  0  0  0  0  0  0  0  # atno 8008 bound_to 7997
  154.4638  140.2009  156.0124 H   0  0  0  0  0  0  0  0  0  0  0  0  # atno 8009 bound_to 7997
  156.0938  140.3229  155.7855 H   0  0  0  0  0  0  0  0  0  0  0  0  # atno 8010 bound_to 7997
  139.5331  144.6653  151.4879 H   0  0  0  0  0  0  0  0  0  0  0  0  # atno 10167 bound_to 10162
  157.6960  131.0391  150.3661 H   0  0  0  0  0  0  0  0  0  0  0  0  # atno 10718 bound_to 10713
  154.8321  135.4512  154.1104 H   0  0  0  0  0  0  0  0  0  0  0  0  # atno 10763 bound_to 10752
  153.2368  135.6912  153.7834 H   0  0  0  0  0  0  0  0  0  0  0  0  # atno 10764 bound_to 10752
  153.7196  135.3344  155.3240 H   0  0  0  0  0  0  0  0  0  0  0  0  # atno 10765 bound_to 10752
  139.9357  134.7494  156.1236 H   0  0  0  0  0  0  0  0  0  0  0  0  # atno 11005 bound_to 11000
  145.2740  139.1944  143.4826 LP  0  0  0  0  0  0  0  0  0  0  0  0  # atno 17320 bound_to 7965
  146.3344  140.2690  142.8605 LP  0  0  0  0  0  0  0  0  0  0  0  0  # atno 17321 bound_to 7965
  140.6522  143.8673  150.6797 LP  0  0  0  0  0  0  0  0  0  0  0  0  # atno 17342 bound_to 10162
  140.2041  143.3935  152.1769 LP  0  0  0  0  0  0  0  0  0  0  0  0  # atno 17343 bound_to 10162
  156.4092  130.3931  149.6904 LP  0  0  0  0  0  0  0  0  0  0  0  0  # atno 17370 bound_to 10713
  156.4194  130.7761  151.2778 LP  0  0  0  0  0  0  0  0  0  0  0  0  # atno 17371 bound_to 10713
  141.0969  133.6692  156.2665 LP  0  0  0  0  0  0  0  0  0  0  0  0  # atno 17394 bound_to 11000
  140.6083  134.5485  157.5529 LP  0  0  0  0  0  0  0  0  0  0  0  0  # atno 17395 bound_to 11000

$$$$
