AV-unprocessed.smi:2801|AV-procd|sdf|10799|dock4
  -GOLD-   2272015233D 1   1.00000     0.00000
 Structure written by MMmdl.
 32 32  0  0  0  0  0  0  0  0  1 V2000
  153.2931  141.9747  161.0685 C   0  0  0  0  0  0  0  0  0  0  0  0
  153.0798  142.1636  159.5651 C   0  0  0  0  0  0  0  0  0  0  0  0
  151.6825  142.1563  159.2992 O   0  0  0  0  0  0  0  0  0  0  0  0
  151.3026  142.6300  158.0089 C   0  0  2  0  0  0  0  0  0  0  0  0
  151.3396  144.1698  158.0405 C   0  0  0  0  0  0  0  0  0  0  0  0
  152.7672  144.7304  158.0320 C   0  0  0  0  0  0  0  0  0  0  0  0
  149.8987  142.1156  157.6497 C   0  0  0  0  0  0  0  0  0  0  0  0
  149.0543  141.9903  158.5361 O   0  0  0  0  0  0  0  0  0  0  0  0
  149.7077  141.8015  156.3548 N   0  0  0  0  0  0  0  0  0  0  0  0
  148.5401  141.3100  155.7051 C   0  0  0  0  0  0  0  0  0  0  0  0
  147.2831  141.1613  156.3405 C   0  0  0  0  0  0  0  0  0  0  0  0
  146.1948  140.6808  155.5855 C   0  0  0  0  0  0  0  0  0  0  0  0
  146.2801  140.3579  154.2783 N   0  0  0  0  0  0  0  0  0  0  0  0
  147.4745  140.5123  153.6707 C   0  0  0  0  0  0  0  0  0  0  0  0
  148.6273  140.9846  154.3314 C   0  0  0  0  0  0  0  0  0  0  0  0
  149.7994  141.1180  153.6409 O   0  0  0  0  0  0  0  0  0  0  0  0
  154.3549  141.9789  161.3148 H   0  0  0  0  0  0  0  0  0  0  0  0
  152.8755  141.0261  161.4068 H   0  0  0  0  0  0  0  0  0  0  0  0
  152.8140  142.7735  161.6351 H   0  0  0  0  0  0  0  0  0  0  0  0
  153.5161  143.1112  159.2462 H   0  0  0  0  0  0  0  0  0  0  0  0
  153.5894  141.3664  159.0227 H   0  0  0  0  0  0  0  0  0  0  0  0
  152.0216  142.2808  157.2649 H   0  0  0  0  0  0  0  0  0  0  0  0
  150.8060  144.5687  157.1765 H   0  0  0  0  0  0  0  0  0  0  0  0
  150.8134  144.5386  158.9221 H   0  0  0  0  0  0  0  0  0  0  0  0
  152.7564  145.8203  158.0427 H   0  0  0  0  0  0  0  0  0  0  0  0
  153.3104  144.4123  157.1418 H   0  0  0  0  0  0  0  0  0  0  0  0
  153.3284  144.3957  158.9048 H   0  0  0  0  0  0  0  0  0  0  0  0
  150.5203  141.8825  155.7608 H   0  0  0  0  0  0  0  0  0  0  0  0
  147.1242  141.4139  157.3767 H   0  0  0  0  0  0  0  0  0  0  0  0
  145.2253  140.5580  156.0450 H   0  0  0  0  0  0  0  0  0  0  0  0
  147.5110  140.2534  152.6228 H   0  0  0  0  0  0  0  0  0  0  0  0
  149.9852  140.3773  153.0837 H   0  0  0  0  0  0  0  0  0  0  0  0
  1  2  1  0  0  0  0
  1 17  1  0  0  0  0
  1 18  1  0  0  0  0
  1 19  1  0  0  0  0
  2  3  1  0  0  0  0
  2 20  1  0  0  0  0
  2 21  1  0  0  0  0
  3  4  1  0  0  0  0
  4  5  1  0  0  0  0
  4  7  1  0  0  0  0
  4 22  1  0  0  0  0
  5  6  1  0  0  0  0
  5 23  1  0  0  0  0
  5 24  1  0  0  0  0
  6 25  1  0  0  0  0
  6 26  1  0  0  0  0
  6 27  1  0  0  0  0
  7  8  2  0  0  0  0
  7  9  1  0  0  0  0
  9 10  1  0  0  0  0
  9 28  1  0  0  0  0
 10 15  1  0  0  0  0
 10 11  2  0  0  0  0
 11 12  1  0  0  0  0
 11 29  1  0  0  0  0
 12 13  2  0  0  0  0
 12 30  1  0  0  0  0
 13 14  1  0  0  0  0
 14 15  2  0  0  0  0
 14 31  1  0  0  0  0
 15 16  1  0  0  0  0
 16 32  1  0  0  0  0
M  END
> <s_m_source_file>
AV-unprocessed.smi

> <i_m_source_file_index>
2801

> <i_lp_mmshare_version>
43012

> <i_f3d_flags>
0

> <s_epik_input>
W0NIM11bQ0gyXU9bQ0BIXShbQ0gyXVtDSDNdKUMoPU8pW05IXWMxW2NIXVtjSF1uW2NIXWMxW09IXQ==

> <s_epik_cmdline>
J2VwaWtfcHl0aG9uJywgJy1waCcsICc3LjAnLCAnLXRuJywgJzgnLCAnLW1hJywgJzIwMCcsICctbWV0YWxfYmluZGluZycsICctaW1hZScsICc8aW5maWxlLm1hZT4nLCAnLW9tYWUnLCAnPG91dGZpbGUubWFlPic=

> <r_lp_tautomer_probability>
0.43658

> <r_epik_Ionization_Penalty>
0.0250035

> <r_epik_Ionization_Penalty_Charging>
0

> <r_epik_Ionization_Penalty_Neutral>
0.0250035

> <r_epik_State_Penalty>
0.520524

> <r_epik_Charging_Adjusted_Penalty>
0.520524

> <i_epik_Tot_Q>
0

> <i_epik_Tot_abs_Q>
0

> <r_epik_Metal_State_Penalty>
0.772586

> <b_epik_Metal_Only>
0

> <s_lp_Force_Field>
OPLS_2005

> <r_lp_Energy>
11.8743

> <b_lp_Chiralities_Consistent>
1

> <s_lp_Variant>
AV-unprocessed.smi:2801-3

> <Gold.Version>
5.8.1

> <Gold.Id.Protein>
6NUR|6NUR_protein|mol2

> <Gold.PLP.Fitness>
37.2892

> <Gold.PLP.PLP>
-31.9301

> <Gold.PLP.part.hbond>
-3.5847

> <Gold.PLP.part.metal>
0.0000

> <Gold.PLP.part.buried>
-3.3912

> <Gold.PLP.part.nonpolar>
-25.3230

> <Gold.PLP.part.repulsive>
0.2880

> <Gold.PLP.ligand.clash>
0.0000

> <Gold.PLP.ligand.torsion>
1.0185

> <Gold.PLP.Chemscore.Hbond>
1.5200

> <Gold.PLP.Chemscore.CHOScore>
0.9413

> <Gold.PLP.Chemscore.Metal>
0.0000

> <Gold.Chemscore.Hbonds>
donor molecule, donor type, donor heavy atom, donor atom, acceptor molecule, acceptor atom, score
      L1  H    16    32       P1  7957  0.64
      P1  H  8011  8017       L1    16  0.79
      L1  C    14    31       P1  7957  0.92

> <Gold.PLP.Chemscore.Internal.Correction>
0.0123

> <Gold.Rescore>
     Score         DG    S(hbond)    S(metal)    S(lipo)     H(rot)  DE(clash)    DE(int)     intcor
     10.17     -12.53       0.96        0.00      79.18       2.11       0.03       2.34       ----

> <Gold.Chemscore.Fitness>
10.1708

> <Gold.Chemscore.DG>
-12.5349

> <Gold.Chemscore.ZeroCoef>
-5.4800

> <Gold.Chemscore.Hbond>
0.9579

> <Gold.Chemscore.Metal>
0.0000

> <Gold.Chemscore.Lipo>
79.1829

> <Gold.Chemscore.Internal_Hbond>
0.0000

> <Gold.Chemscore.DEClash>
0.0275

> <Gold.Chemscore.DEInternal>
2.3367

> <Gold.Chemscore.Rot>
2.1129

> <Gold.Chemscore.Internal.Correction>
   9.000000E+99

> <Gold.Chemscore.Hbonds>
donor molecule, donor type, donor heavy atom, donor atom, acceptor molecule, acceptor atom, score
      L1  H    16    32       P1  7957  0.62
      P1  H  8011  8017       L1    16  0.12

> <Gold.Chemscore.Hbond.Weighted>
-3.1995

> <Gold.Chemscore.Metal.Weighted>
-0.0000

> <Gold.Chemscore.Lipo.Weighted>
-9.2644

> <Gold.Chemscore.Internal_Hbond.Weighted>
0.0000

> <Gold.Chemscore.DEClash.Weighted>
0.0275

> <Gold.Chemscore.DEInternal.Weighted>
2.3367

> <Gold.Chemscore.Rot.Weighted>
5.4089

> <Gold.Chemscore.Internal.Correction.Weighted>
   9.000000E+99

> <Gold.Protein.RotatedTorsions>
[ 6907 6896 6895 6894 ] final   76.56 input  -60.11 | X-H torsion
[ 7974 7965 7964 7962 ] final    4.51 input  175.53 | X-H torsion
[ 8008 7997 7996 7995 ] final  177.25 input   59.86 | X-H torsion
[ 10167 10162 10161 10158 ] final  126.03 input  -65.29 | X-H torsion
[ 10718 10713 10712 10709 ] final  -69.96 input   66.30 | X-H torsion
[ 10763 10752 10751 10750 ] final  -95.95 input  -60.55 | X-H torsion
[ 11005 11000 10999 10996 ] final  -56.15 input  -57.11 | X-H torsion

> <Gold.Protein.ActiveResidues>
 VAL166  LYS551  ARG553  GLY616  TRP617  ASP618  TYR619  PRO620  LYS621  CYS622 
 ASP623  PHE694  ASN695  SER759  ASP760  ASP761  ALA762  ILE779  LEU786  VAL792 
 PHE793  MET794  SER795  GLU796  ALA797  LYS798  CYS799  TRP800  GLU811  SER814 

> <Gold.Protein.RotatedAtoms>
  152.5078  134.3950  159.9396 H   0  0  0  0  0  0  0  0  0  0  0  0  # atno 6907 bound_to 6896
  151.3912  133.3782  159.2729 H   0  0  0  0  0  0  0  0  0  0  0  0  # atno 6908 bound_to 6896
  150.9431  134.8859  159.7684 H   0  0  0  0  0  0  0  0  0  0  0  0  # atno 6909 bound_to 6896
  146.2444  140.0524  142.8374 H   0  0  0  0  0  0  0  0  0  0  0  0  # atno 7974 bound_to 7965
  156.0677  140.1363  156.9865 H   0  0  0  0  0  0  0  0  0  0  0  0  # atno 8008 bound_to 7997
  154.4515  140.0978  156.6684 H   0  0  0  0  0  0  0  0  0  0  0  0  # atno 8009 bound_to 7997
  155.5277  140.3458  155.4422 H   0  0  0  0  0  0  0  0  0  0  0  0  # atno 8010 bound_to 7997
  139.5653  144.6907  151.3927 H   0  0  0  0  0  0  0  0  0  0  0  0  # atno 10167 bound_to 10162
  156.0430  130.4322  150.2225 H   0  0  0  0  0  0  0  0  0  0  0  0  # atno 10718 bound_to 10713
  154.7195  135.5101  153.8790 H   0  0  0  0  0  0  0  0  0  0  0  0  # atno 10763 bound_to 10752
  153.0850  135.6642  153.9977 H   0  0  0  0  0  0  0  0  0  0  0  0  # atno 10764 bound_to 10752
  153.9802  135.3029  155.3400 H   0  0  0  0  0  0  0  0  0  0  0  0  # atno 10765 bound_to 10752
  141.1107  133.6611  156.4576 H   0  0  0  0  0  0  0  0  0  0  0  0  # atno 11005 bound_to 11000
  145.0973  140.9323  143.4734 LP  0  0  0  0  0  0  0  0  0  0  0  0  # atno 17320 bound_to 7965
  145.0709  139.3032  143.5832 LP  0  0  0  0  0  0  0  0  0  0  0  0  # atno 17321 bound_to 7965
  140.6936  143.7802  150.7293 LP  0  0  0  0  0  0  0  0  0  0  0  0  # atno 17342 bound_to 10162
  140.1292  143.4542  152.2265 LP  0  0  0  0  0  0  0  0  0  0  0  0  # atno 17343 bound_to 10162
  157.0318  131.0009  151.3310 LP  0  0  0  0  0  0  0  0  0  0  0  0  # atno 17370 bound_to 10713
  157.5272  130.8035  149.7875 LP  0  0  0  0  0  0  0  0  0  0  0  0  # atno 17371 bound_to 10713
  140.4783  134.6688  157.5160 LP  0  0  0  0  0  0  0  0  0  0  0  0  # atno 17394 bound_to 11000
  139.9999  134.6853  155.9547 LP  0  0  0  0  0  0  0  0  0  0  0  0  # atno 17395 bound_to 11000

$$$$
