AV-unprocessed.smi:1225|AV-procd|sdf|5138|dock2
  -GOLD-   22720 4203D 1   1.00000     0.00000
 Structure written by MMmdl.
 49 51  0  0  0  0  0  0  0  0  2 V2000
  148.1276  130.9024  153.8726 C   0  0  0  0  0  0  0  0  0  0  0  0
  147.8780  132.3150  154.2770 C   0  0  0  0  0  0  0  0  0  0  0  0
  146.6675  132.8000  154.5622 N   0  0  0  0  0  0  0  0  0  0  0  0
  146.7043  134.1510  154.9149 C   0  0  0  0  0  0  0  0  0  0  0  0
  147.9649  134.6950  154.9014 C   0  0  0  0  0  0  0  0  0  0  0  0
  148.3515  136.1039  155.2234 C   0  0  0  0  0  0  0  0  0  0  0  0
  149.4298  136.2118  156.2073 N   0  0  0  0  0  0  0  0  0  0  0  0
  148.9339  136.7482  157.4747 C   0  0  0  0  0  0  0  0  0  0  0  0
  150.5298  137.0182  155.6727 C   0  0  0  0  0  0  0  0  0  0  0  0
  150.1355  138.4131  155.1483 C   0  0  2  0  0  0  0  0  0  0  0  0
  149.8160  138.2909  153.7770 O   0  0  0  0  0  0  0  0  0  0  0  0
  151.2711  139.4443  155.3103 C   0  0  0  0  0  0  0  0  0  0  0  0
  150.8259  140.6873  155.9530 N   0  0  0  0  0  0  0  0  0  0  0  0
  149.9413  141.6286  155.5254 C   0  0  0  0  0  0  0  0  0  0  0  0
  149.8751  142.5937  156.4845 N   0  3  0  0  0  0  0  0  0  0  0  0
  150.7332  142.2648  157.5365 C   0  0  0  0  0  0  0  0  0  0  0  0
  151.0124  142.9263  158.7265 C   0  0  0  0  0  0  0  0  0  0  0  0
  151.9465  142.3205  159.5974 C   0  0  0  0  0  0  0  0  0  0  0  0
  152.2739  143.0178  160.9070 C   0  0  0  0  0  0  0  0  0  0  0  0
  152.5668  141.0889  159.2614 C   0  0  0  0  0  0  0  0  0  0  0  0
  153.5692  140.4462  160.2050 C   0  0  0  0  0  0  0  0  0  0  0  0
  152.2699  140.4323  158.0458 C   0  0  0  0  0  0  0  0  0  0  0  0
  151.3472  141.0430  157.2006 C   0  0  0  0  0  0  0  0  0  0  0  0
  149.1581  133.5123  154.4267 S   0  0  0  0  0  0  0  0  0  0  0  0
  147.1863  130.3680  153.7393 H   0  0  0  0  0  0  0  0  0  0  0  0
  148.7129  130.3944  154.6391 H   0  0  0  0  0  0  0  0  0  0  0  0
  148.6805  130.8754  152.9335 H   0  0  0  0  0  0  0  0  0  0  0  0
  145.7803  134.6509  155.1659 H   0  0  0  0  0  0  0  0  0  0  0  0
  148.6592  136.5842  154.2939 H   0  0  0  0  0  0  0  0  0  0  0  0
  147.4773  136.6569  155.5706 H   0  0  0  0  0  0  0  0  0  0  0  0
  149.7119  136.7565  158.2363 H   0  0  0  0  0  0  0  0  0  0  0  0
  148.1201  136.1400  157.8696 H   0  0  0  0  0  0  0  0  0  0  0  0
  148.5644  137.7672  157.3533 H   0  0  0  0  0  0  0  0  0  0  0  0
  151.2805  137.1607  156.4516 H   0  0  0  0  0  0  0  0  0  0  0  0
  151.0301  136.4603  154.8792 H   0  0  0  0  0  0  0  0  0  0  0  0
  149.2339  138.7655  155.6475 H   0  0  0  0  0  0  0  0  0  0  0  0
  149.7228  139.1580  153.4133 H   0  0  0  0  0  0  0  0  0  0  0  0
  152.0948  139.0342  155.8961 H   0  0  0  0  0  0  0  0  0  0  0  0
  151.6870  139.7077  154.3368 H   0  0  0  0  0  0  0  0  0  0  0  0
  149.3908  141.6116  154.5955 H   0  0  0  0  0  0  0  0  0  0  0  0
  150.5364  143.8636  158.9752 H   0  0  0  0  0  0  0  0  0  0  0  0
  151.9942  142.3908  161.7538 H   0  0  0  0  0  0  0  0  0  0  0  0
  151.7385  143.9631  161.0003 H   0  0  0  0  0  0  0  0  0  0  0  0
  153.3408  143.2324  160.9717 H   0  0  0  0  0  0  0  0  0  0  0  0
  153.9313  139.4947  159.8144 H   0  0  0  0  0  0  0  0  0  0  0  0
  153.1138  140.2546  161.1767 H   0  0  0  0  0  0  0  0  0  0  0  0
  154.4316  141.0979  160.3481 H   0  0  0  0  0  0  0  0  0  0  0  0
  152.7418  139.4955  157.7878 H   0  0  0  0  0  0  0  0  0  0  0  0
  149.2881  143.4157  156.4223 H   0  0  0  0  0  0  0  0  0  0  0  0
  1  2  1  0  0  0  0
  1 25  1  0  0  0  0
  1 26  1  0  0  0  0
  1 27  1  0  0  0  0
  2 24  1  0  0  0  0
  2  3  2  0  0  0  0
  3  4  1  0  0  0  0
  4  5  2  0  0  0  0
  4 28  1  0  0  0  0
  5  6  1  0  0  0  0
  5 24  1  0  0  0  0
  6  7  1  0  0  0  0
  6 29  1  0  0  0  0
  6 30  1  0  0  0  0
  7  8  1  0  0  0  0
  7  9  1  0  0  0  0
  8 31  1  0  0  0  0
  8 32  1  0  0  0  0
  8 33  1  0  0  0  0
  9 10  1  0  0  0  0
  9 34  1  0  0  0  0
  9 35  1  0  0  0  0
 10 11  1  0  0  0  0
 10 12  1  0  0  0  0
 10 36  1  0  0  0  0
 11 37  1  0  0  0  0
 12 13  1  0  0  0  0
 12 38  1  0  0  0  0
 12 39  1  0  0  0  0
 13 23  1  0  0  0  0
 13 14  1  0  0  0  0
 14 15  2  0  0  0  0
 14 40  1  0  0  0  0
 15 16  1  0  0  0  0
 15 49  1  0  0  0  0
 16 23  2  0  0  0  0
 16 17  1  0  0  0  0
 17 18  2  0  0  0  0
 17 41  1  0  0  0  0
 18 19  1  0  0  0  0
 18 20  1  0  0  0  0
 19 42  1  0  0  0  0
 19 43  1  0  0  0  0
 19 44  1  0  0  0  0
 20 21  1  0  0  0  0
 20 22  2  0  0  0  0
 21 45  1  0  0  0  0
 21 46  1  0  0  0  0
 21 47  1  0  0  0  0
 22 23  1  0  0  0  0
 22 48  1  0  0  0  0
M  CHG  1  15   1
M  END
> <s_m_source_file>
AV-unprocessed.smi

> <i_m_source_file_index>
1225

> <i_lp_mmshare_version>
43012

> <i_f3d_flags>
0

> <s_epik_input>
W0NIM11jMW5bY0hdYyhzMSlbQ0gyXU4oW0NIM10pW0NIMl1bQ0BIXShbT0hdKVtDSDJdbihbY0hdbjIpYyhjMjMpW2NIXWMoW0NIM10pYyhbY0hdMylbQ0gzXQ==

> <s_epik_cmdline>
J2VwaWtfcHl0aG9uJywgJy1waCcsICc3LjAnLCAnLXRuJywgJzgnLCAnLW1hJywgJzIwMCcsICctbWV0YWxfYmluZGluZycsICctaW1hZScsICc8aW5maWxlLm1hZT4nLCAnLW9tYWUnLCAnPG91dGZpbGUubWFlPic=

> <r_epik_Ionization_Penalty>
1.25968

> <r_epik_Ionization_Penalty_Charging>
1.21782

> <r_epik_Ionization_Penalty_Neutral>
0.0418565

> <r_epik_State_Penalty>
1.29962

> <r_epik_Charging_Adjusted_Penalty>
2.51745

> <i_epik_Tot_Q>
1

> <i_epik_Tot_abs_Q>
1

> <r_epik_Metal_State_Penalty>
1.36802

> <b_epik_Metal_Only>
0

> <s_lp_Force_Field>
OPLS_2005

> <r_lp_Energy>
21.2232

> <b_lp_Chiralities_Consistent>
1

> <s_lp_Variant>
AV-unprocessed.smi:1225-3

> <Gold.Version>
5.8.1

> <Gold.Id.Protein>
6NUR|6NUR_protein|mol2

> <Gold.PLP.Fitness>
45.8799

> <Gold.PLP.PLP>
-42.8947

> <Gold.PLP.part.hbond>
-2.7326

> <Gold.PLP.part.metal>
0.0000

> <Gold.PLP.part.buried>
-3.0519

> <Gold.PLP.part.nonpolar>
-35.6988

> <Gold.PLP.part.repulsive>
0.1559

> <Gold.PLP.ligand.clash>
0.0000

> <Gold.PLP.ligand.torsion>
1.9287

> <Gold.PLP.Chemscore.Hbond>
2.1279

> <Gold.PLP.Chemscore.CHOScore>
0.0000

> <Gold.PLP.Chemscore.Metal>
0.0000

> <Gold.Chemscore.Hbonds>
donor molecule, donor type, donor heavy atom, donor atom, acceptor molecule, acceptor atom, score
      L1  H    11    37       P1  7957  0.02
      L1  H    15    49       P1  8028  1.98

> <Gold.PLP.Chemscore.Internal.Correction>
0.4588

> <Gold.Rescore>
     Score         DG    S(hbond)    S(metal)    S(lipo)     H(rot)  DE(clash)    DE(int)     intcor
     14.50     -16.53       1.02        0.00     117.14       2.36       0.09       1.94       ----

> <Gold.Chemscore.Fitness>
14.4978

> <Gold.Chemscore.DG>
-16.5295

> <Gold.Chemscore.ZeroCoef>
-5.4800

> <Gold.Chemscore.Hbond>
1.0172

> <Gold.Chemscore.Metal>
0.0000

> <Gold.Chemscore.Lipo>
117.1447

> <Gold.Chemscore.Internal_Hbond>
0.0000

> <Gold.Chemscore.DEClash>
0.0943

> <Gold.Chemscore.DEInternal>
1.9374

> <Gold.Chemscore.Rot>
2.3649

> <Gold.Chemscore.Internal.Correction>
   9.000000E+99

> <Gold.Chemscore.Hbonds>
donor molecule, donor type, donor heavy atom, donor atom, acceptor molecule, acceptor atom, score
      L1  H    11    37       P1  7957  0.06
      L1  H    15    49       P1  8028  0.91

> <Gold.Chemscore.Hbond.Weighted>
-3.3976

> <Gold.Chemscore.Metal.Weighted>
-0.0000

> <Gold.Chemscore.Lipo.Weighted>
-13.7059

> <Gold.Chemscore.Internal_Hbond.Weighted>
0.0000

> <Gold.Chemscore.DEClash.Weighted>
0.0943

> <Gold.Chemscore.DEInternal.Weighted>
1.9374

> <Gold.Chemscore.Rot.Weighted>
6.0540

> <Gold.Chemscore.Internal.Correction.Weighted>
   9.000000E+99

> <Gold.Protein.RotatedTorsions>
[ 6907 6896 6895 6894 ] final  140.71 input  -60.11 | X-H torsion
[ 7974 7965 7964 7962 ] final   32.81 input  175.53 | X-H torsion
[ 8008 7997 7996 7995 ] final  -41.09 input   59.86 | X-H torsion
[ 10167 10162 10161 10158 ] final   -3.73 input  -65.29 | X-H torsion
[ 10718 10713 10712 10709 ] final  132.08 input   66.30 | X-H torsion
[ 10763 10752 10751 10750 ] final  122.73 input  -60.55 | X-H torsion
[ 11005 11000 10999 10996 ] final   68.90 input  -57.11 | X-H torsion

> <Gold.Protein.ActiveResidues>
 VAL166  LYS551  ARG553  GLY616  TRP617  ASP618  TYR619  PRO620  LYS621  CYS622 
 ASP623  PHE694  ASN695  SER759  ASP760  ASP761  ALA762  ILE779  LEU786  VAL792 
 PHE793  MET794  SER795  GLU796  ALA797  LYS798  CYS799  TRP800  GLU811  SER814 

> <Gold.Protein.RotatedAtoms>
  152.2398  133.5126  159.5263 H   0  0  0  0  0  0  0  0  0  0  0  0  # atno 6907 bound_to 6896
  150.7061  134.1105  159.4007 H   0  0  0  0  0  0  0  0  0  0  0  0  # atno 6908 bound_to 6896
  151.9026  135.0372  160.0558 H   0  0  0  0  0  0  0  0  0  0  0  0  # atno 6909 bound_to 6896
  146.1462  139.6477  142.9130 H   0  0  0  0  0  0  0  0  0  0  0  0  # atno 7974 bound_to 7965
  154.4006  140.1508  156.3134 H   0  0  0  0  0  0  0  0  0  0  0  0  # atno 8008 bound_to 7997
  155.8595  140.3454  155.5725 H   0  0  0  0  0  0  0  0  0  0  0  0  # atno 8009 bound_to 7997
  155.7896  140.0855  157.2006 H   0  0  0  0  0  0  0  0  0  0  0  0  # atno 8010 bound_to 7997
  140.6901  143.6506  150.8353 H   0  0  0  0  0  0  0  0  0  0  0  0  # atno 10167 bound_to 10162
  157.4906  131.1090  150.9562 H   0  0  0  0  0  0  0  0  0  0  0  0  # atno 10718 bound_to 10713
  153.6344  135.3390  155.3052 H   0  0  0  0  0  0  0  0  0  0  0  0  # atno 10763 bound_to 10752
  154.8573  135.4303  154.2071 H   0  0  0  0  0  0  0  0  0  0  0  0  # atno 10764 bound_to 10752
  153.2975  135.7022  153.7308 H   0  0  0  0  0  0  0  0  0  0  0  0  # atno 10765 bound_to 10752
  139.9685  134.6941  156.0496 H   0  0  0  0  0  0  0  0  0  0  0  0  # atno 11005 bound_to 11000
  145.4932  141.0438  143.2581 LP  0  0  0  0  0  0  0  0  0  0  0  0  # atno 17320 bound_to 7965
  144.7849  139.6448  143.7138 LP  0  0  0  0  0  0  0  0  0  0  0  0  # atno 17321 bound_to 7965
  140.0218  143.5535  152.2797 LP  0  0  0  0  0  0  0  0  0  0  0  0  # atno 17342 bound_to 10162
  139.6296  144.7642  151.2565 LP  0  0  0  0  0  0  0  0  0  0  0  0  # atno 17343 bound_to 10162
  157.0265  130.5694  149.5338 LP  0  0  0  0  0  0  0  0  0  0  0  0  # atno 17370 bound_to 10713
  156.0171  130.5265  150.8167 LP  0  0  0  0  0  0  0  0  0  0  0  0  # atno 17371 bound_to 10713
  141.1364  133.6574  156.3607 LP  0  0  0  0  0  0  0  0  0  0  0  0  # atno 17394 bound_to 11000
  140.5345  134.6180  157.5360 LP  0  0  0  0  0  0  0  0  0  0  0  0  # atno 17395 bound_to 11000

$$$$
