AV-unprocessed.smi:261|AV-procd|sdf|1984|dock4
  -GOLD-   2262021163D 1   1.00000     0.00000
 Structure written by MMmdl.
 51 54  0  0  0  0  0  0  0  0  1 V2000
  148.3982  131.8921  153.7457 C   0  0  0  0  0  0  0  0  0  0  0  0
  149.3992  132.8785  153.5551 O   0  0  0  0  0  0  0  0  0  0  0  0
  149.5549  133.7498  154.6657 C   0  0  2  0  0  0  0  0  0  0  0  0
  148.2539  134.4413  155.0844 C   0  0  0  0  0  0  0  0  0  0  0  0
  148.7144  135.7306  155.7856 C   0  0  1  0  0  0  0  0  0  0  0  0
  148.8926  135.5263  157.3007 C   0  0  0  0  0  0  0  0  0  0  0  0
  149.7623  134.5876  157.6808 N   0  0  0  0  0  0  0  0  0  0  0  0
  148.2713  136.2078  158.1146 O   0  0  0  0  0  0  0  0  0  0  0  0
  149.9835  136.0403  155.1221 N   0  0  0  0  0  0  0  0  0  0  0  0
  150.5268  137.2883  155.0810 C   0  0  0  0  0  0  0  0  0  0  0  0
  151.5551  137.5161  154.2208 N   0  0  0  0  0  0  0  0  0  0  0  0
  152.1214  138.7220  154.1351 C   0  0  0  0  0  0  0  0  0  0  0  0
  151.8225  139.8319  154.8093 N   0  0  0  0  0  0  0  0  0  0  0  0
  150.7926  139.6182  155.6764 C   0  0  0  0  0  0  0  0  0  0  0  0
  150.0934  138.3920  155.8770 C   0  0  0  0  0  0  0  0  0  0  0  0
  149.1099  138.5763  156.8440 N   0  0  0  0  0  0  0  0  0  0  0  0
  149.2152  139.8308  157.1845 C   0  0  0  0  0  0  0  0  0  0  0  0
  150.1974  140.5334  156.5270 N   0  0  0  0  0  0  0  0  0  0  0  0
  150.5292  141.9383  156.6988 C   0  0  0  0  0  0  0  0  0  0  0  0
  150.2981  142.4700  158.1313 C   0  0  2  0  0  0  0  0  0  0  0  0
  149.1408  143.2821  158.1861 O   0  0  0  0  0  0  0  0  0  0  0  0
  151.5049  143.1987  158.7671 C   0  0  2  0  0  0  0  0  0  0  0  0
  152.8231  142.4279  158.7764 C   0  0  0  0  0  0  0  0  0  0  0  0
  153.6322  143.2097  159.7930 C   0  0  0  0  0  0  0  0  0  0  0  0
  152.5711  143.7873  160.7368 C   0  0  0  0  0  0  0  0  0  0  0  0
  151.3079  143.5212  160.1357 O   0  0  0  0  0  0  0  0  0  0  0  0
  150.4577  134.9306  154.3063 C   0  0  0  0  0  0  0  0  0  0  0  0
  149.9872  133.2191  155.5164 H   0  0  0  0  0  0  0  0  0  0  0  0
  147.9794  136.5174  155.6065 H   0  0  0  0  0  0  0  0  0  0  0  0
  148.3584  131.2407  152.8728 H   0  0  0  0  0  0  0  0  0  0  0  0
  147.4122  132.3402  153.8711 H   0  0  0  0  0  0  0  0  0  0  0  0
  148.6150  131.2726  154.6167 H   0  0  0  0  0  0  0  0  0  0  0  0
  147.6747  134.7014  154.1971 H   0  0  0  0  0  0  0  0  0  0  0  0
  147.6233  133.8081  155.7102 H   0  0  0  0  0  0  0  0  0  0  0  0
  149.9237  134.4177  158.6627 H   0  0  0  0  0  0  0  0  0  0  0  0
  150.2616  134.0562  156.9824 H   0  0  0  0  0  0  0  0  0  0  0  0
  152.9286  138.8098  153.4232 H   0  0  0  0  0  0  0  0  0  0  0  0
  148.5707  140.2820  157.9246 H   0  0  0  0  0  0  0  0  0  0  0  0
  151.5709  142.0803  156.4091 H   0  0  0  0  0  0  0  0  0  0  0  0
  149.9376  142.5211  155.9918 H   0  0  0  0  0  0  0  0  0  0  0  0
  150.0802  141.6051  158.7587 H   0  0  0  0  0  0  0  0  0  0  0  0
  149.1046  143.8062  157.4010 H   0  0  0  0  0  0  0  0  0  0  0  0
  151.6592  144.1393  158.2346 H   0  0  0  0  0  0  0  0  0  0  0  0
  152.6785  141.4069  159.1311 H   0  0  0  0  0  0  0  0  0  0  0  0
  153.2982  142.3852  157.7960 H   0  0  0  0  0  0  0  0  0  0  0  0
  154.3631  142.5882  160.3109 H   0  0  0  0  0  0  0  0  0  0  0  0
  154.1694  144.0202  159.2990 H   0  0  0  0  0  0  0  0  0  0  0  0
  152.6087  143.3219  161.7220 H   0  0  0  0  0  0  0  0  0  0  0  0
  152.7049  144.8621  160.8645 H   0  0  0  0  0  0  0  0  0  0  0  0
  151.5032  134.6932  154.5050 H   0  0  0  0  0  0  0  0  0  0  0  0
  150.3516  135.1927  153.2525 H   0  0  0  0  0  0  0  0  0  0  0  0
  1  2  1  0  0  0  0
  1 30  1  0  0  0  0
  1 31  1  0  0  0  0
  1 32  1  0  0  0  0
  2  3  1  0  0  0  0
  3 28  1  0  0  0  0
  3 27  1  0  0  0  0
  3  4  1  0  0  0  0
  4  5  1  0  0  0  0
  4 33  1  0  0  0  0
  4 34  1  0  0  0  0
  5 29  1  0  0  0  0
  5  6  1  0  0  0  0
  5  9  1  0  0  0  0
  6  7  1  0  0  0  0
  6  8  2  0  0  0  0
  7 35  1  0  0  0  0
  7 36  1  0  0  0  0
  9 10  1  0  0  0  0
  9 27  1  0  0  0  0
 10 15  1  0  0  0  0
 10 11  2  0  0  0  0
 11 12  1  0  0  0  0
 12 13  2  0  0  0  0
 12 37  1  0  0  0  0
 13 14  1  0  0  0  0
 14 18  1  0  0  0  0
 14 15  2  0  0  0  0
 15 16  1  0  0  0  0
 16 17  2  0  0  0  0
 17 18  1  0  0  0  0
 17 38  1  0  0  0  0
 18 19  1  0  0  0  0
 19 20  1  0  0  0  0
 19 39  1  0  0  0  0
 19 40  1  0  0  0  0
 20 21  1  0  0  0  0
 20 22  1  0  0  0  0
 20 41  1  0  0  0  0
 21 42  1  0  0  0  0
 22 26  1  0  0  0  0
 22 23  1  0  0  0  0
 22 43  1  0  0  0  0
 23 24  1  0  0  0  0
 23 44  1  0  0  0  0
 23 45  1  0  0  0  0
 24 25  1  0  0  0  0
 24 46  1  0  0  0  0
 24 47  1  0  0  0  0
 25 26  1  0  0  0  0
 25 48  1  0  0  0  0
 25 49  1  0  0  0  0
 27 50  1  0  0  0  0
 27 51  1  0  0  0  0
M  END
> <s_m_source_file>
AV-unprocessed.smi

> <i_m_source_file_index>
261

> <i_lp_mmshare_version>
43012

> <i_f3d_flags>
0

> <s_epik_input>
W0NIM11PW0NASF0xW0NIMl1bQ0BASF0oQyg9TylbTkgyXSlOKFtDSDJdMSljKG5bY0hdbjIpYyhjMjMpbltjSF1uM1tDSDJdW0NASF0oW09IXSlbQ0BASF00W0NIMl1bQ0gyXVtDSDJdTzQ=

> <s_epik_cmdline>
J2VwaWtfcHl0aG9uJywgJy1waCcsICc3LjAnLCAnLXRuJywgJzgnLCAnLW1hJywgJzIwMCcsICctbWV0YWxfYmluZGluZycsICctaW1hZScsICc8aW5maWxlLm1hZT4nLCAnLW9tYWUnLCAnPG91dGZpbGUubWFlPic=

> <r_lp_tautomer_probability>
1

> <r_epik_Ionization_Penalty>
0.000713824

> <r_epik_Ionization_Penalty_Charging>
0

> <r_epik_Ionization_Penalty_Neutral>
0.000713824

> <r_epik_State_Penalty>
0.000402132

> <r_epik_Charging_Adjusted_Penalty>
0.000402132

> <i_epik_Tot_Q>
0

> <i_epik_Tot_abs_Q>
0

> <r_epik_Metal_State_Penalty>
-0

> <b_epik_Metal_Only>
0

> <s_lp_Force_Field>
OPLS_2005

> <r_lp_Energy>
44.2831

> <b_lp_Chiralities_Consistent>
1

> <s_lp_Variant>
AV-unprocessed.smi:261-2

> <Gold.Version>
5.8.1

> <Gold.Id.Protein>
6NUR|6NUR_protein|mol2

> <Gold.PLP.Fitness>
45.4521

> <Gold.PLP.PLP>
-38.7944

> <Gold.PLP.part.hbond>
-4.7869

> <Gold.PLP.part.metal>
0.0000

> <Gold.PLP.part.buried>
-6.1386

> <Gold.PLP.part.nonpolar>
-27.9791

> <Gold.PLP.part.repulsive>
0.5119

> <Gold.PLP.ligand.clash>
0.0000

> <Gold.PLP.ligand.torsion>
1.1604

> <Gold.PLP.Chemscore.Hbond>
2.9360

> <Gold.PLP.Chemscore.CHOScore>
0.0000

> <Gold.PLP.Chemscore.Metal>
0.0000

> <Gold.Chemscore.Hbonds>
donor molecule, donor type, donor heavy atom, donor atom, acceptor molecule, acceptor atom, score
      L1  H    21    42       P1  8028  0.90
      P1  H  7989  7998       L1    13  0.89
      P1  H 10752 10763       L1    11  0.29

> <Gold.PLP.Chemscore.Internal.Correction>
0.1705

> <Gold.Rescore>
     Score         DG    S(hbond)    S(metal)    S(lipo)     H(rot)  DE(clash)    DE(int)     intcor
      9.44     -12.41       1.47        0.00      86.99       3.18       0.16       2.80       ----

> <Gold.Chemscore.Fitness>
9.4433

> <Gold.Chemscore.DG>
-12.4052

> <Gold.Chemscore.ZeroCoef>
-5.4800

> <Gold.Chemscore.Hbond>
1.4660

> <Gold.Chemscore.Metal>
0.0000

> <Gold.Chemscore.Lipo>
86.9871

> <Gold.Chemscore.Internal_Hbond>
0.0000

> <Gold.Chemscore.DEClash>
0.1578

> <Gold.Chemscore.DEInternal>
2.8041

> <Gold.Chemscore.Rot>
3.1831

> <Gold.Chemscore.Internal.Correction>
   9.000000E+99

> <Gold.Chemscore.Hbonds>
donor molecule, donor type, donor heavy atom, donor atom, acceptor molecule, acceptor atom, score
      L1  H    21    42       P1  8028  0.18
      P1  H  7989  7998       L1    13  0.17
      P1  H 10752 10763       L1    11  0.20

> <Gold.Chemscore.Hbond.Weighted>
-4.8963

> <Gold.Chemscore.Metal.Weighted>
-0.0000

> <Gold.Chemscore.Lipo.Weighted>
-10.1775

> <Gold.Chemscore.Internal_Hbond.Weighted>
0.0000

> <Gold.Chemscore.DEClash.Weighted>
0.1578

> <Gold.Chemscore.DEInternal.Weighted>
2.8041

> <Gold.Chemscore.Rot.Weighted>
8.1486

> <Gold.Chemscore.Internal.Correction.Weighted>
   9.000000E+99

> <Gold.Protein.RotatedTorsions>
[ 6907 6896 6895 6894 ] final  -52.33 input  -60.11 | X-H torsion
[ 7974 7965 7964 7962 ] final  114.21 input  175.53 | X-H torsion
[ 8008 7997 7996 7995 ] final  -38.38 input   59.86 | X-H torsion
[ 10167 10162 10161 10158 ] final  179.59 input  -65.29 | X-H torsion
[ 10718 10713 10712 10709 ] final    3.56 input   66.30 | X-H torsion
[ 10763 10752 10751 10750 ] final   38.77 input  -60.55 | X-H torsion
[ 11005 11000 10999 10996 ] final -156.26 input  -57.11 | X-H torsion

> <Gold.Protein.ActiveResidues>
 VAL166  LYS551  ARG553  GLY616  TRP617  ASP618  TYR619  PRO620  LYS621  CYS622 
 ASP623  PHE694  ASN695  SER759  ASP760  ASP761  ALA762  ILE779  LEU786  VAL792 
 PHE793  MET794  SER795  GLU796  ALA797  LYS798  CYS799  TRP800  GLU811  SER814 

> <Gold.Protein.RotatedAtoms>
  150.8527  134.7857  159.7021 H   0  0  0  0  0  0  0  0  0  0  0  0  # atno 6907 bound_to 6896
  152.4588  134.5229  159.9798 H   0  0  0  0  0  0  0  0  0  0  0  0  # atno 6908 bound_to 6896
  151.5347  133.3405  159.2960 H   0  0  0  0  0  0  0  0  0  0  0  0  # atno 6909 bound_to 6896
  145.2073  139.2923  143.4287 H   0  0  0  0  0  0  0  0  0  0  0  0  # atno 7974 bound_to 7965
  154.4038  140.1579  156.2691 H   0  0  0  0  0  0  0  0  0  0  0  0  # atno 8008 bound_to 7997
  155.8969  140.3435  155.5975 H   0  0  0  0  0  0  0  0  0  0  0  0  # atno 8009 bound_to 7997
  155.7493  140.0803  157.2199 H   0  0  0  0  0  0  0  0  0  0  0  0  # atno 8010 bound_to 7997
  139.5343  144.2543  152.0759 H   0  0  0  0  0  0  0  0  0  0  0  0  # atno 10167 bound_to 10162
  156.8797  130.5649  149.5653 H   0  0  0  0  0  0  0  0  0  0  0  0  # atno 10718 bound_to 10713
  152.9989  135.6240  154.2358 H   0  0  0  0  0  0  0  0  0  0  0  0  # atno 10763 bound_to 10752
  154.2099  135.2800  155.2963 H   0  0  0  0  0  0  0  0  0  0  0  0  # atno 10764 bound_to 10752
  154.5615  135.5704  153.7070 H   0  0  0  0  0  0  0  0  0  0  0  0  # atno 10765 bound_to 10752
  140.6775  134.4181  157.5228 H   0  0  0  0  0  0  0  0  0  0  0  0  # atno 11005 bound_to 11000
  146.3405  140.2337  142.8594 LP  0  0  0  0  0  0  0  0  0  0  0  0  # atno 17320 bound_to 7965
  144.9890  140.8529  143.5351 LP  0  0  0  0  0  0  0  0  0  0  0  0  # atno 17321 bound_to 7965
  140.2011  144.4657  150.6431 LP  0  0  0  0  0  0  0  0  0  0  0  0  # atno 17342 bound_to 10162
  140.6540  143.2232  151.6011 LP  0  0  0  0  0  0  0  0  0  0  0  0  # atno 17343 bound_to 10162
  156.0683  130.5722  150.9334 LP  0  0  0  0  0  0  0  0  0  0  0  0  # atno 17370 bound_to 10713
  157.6147  131.0934  150.8731 LP  0  0  0  0  0  0  0  0  0  0  0  0  # atno 17371 bound_to 10713
  139.8962  134.8665  156.2097 LP  0  0  0  0  0  0  0  0  0  0  0  0  # atno 17394 bound_to 11000
  141.0344  133.6971  156.1486 LP  0  0  0  0  0  0  0  0  0  0  0  0  # atno 17395 bound_to 11000

$$$$
