AV-unprocessed.smi:1552|AV-procd|sdf|6236|dock10
  -GOLD-   22720 6413D 1   1.00000     0.00000
 Structure written by MMmdl.
 49 50  0  0  0  0  0  0  0  0  3 V2000
  145.8777  137.9160  153.6305 C   0  0  0  0  0  0  0  0  0  0  0  0
  145.2507  137.8778  152.2885 N   0  3  0  0  0  0  0  0  0  0  0  0
  146.2307  138.1565  151.2114 C   0  0  0  0  0  0  0  0  0  0  0  0
  144.3535  136.6985  152.0723 C   0  0  2  0  0  0  0  0  0  0  0  0
  143.4940  136.3538  153.3203 C   0  0  0  0  0  0  0  0  0  0  0  0
  142.0863  136.7083  153.1539 N   0  0  0  0  0  0  0  0  0  0  0  0
  141.0030  136.0450  153.5908 C   0  0  0  0  0  0  0  0  0  0  0  0
  141.1291  134.9815  154.1944 O   0  0  0  0  0  0  0  0  0  0  0  0
  139.5870  136.5824  153.3143 C   0  0  0  0  0  0  0  0  0  0  0  0
  139.3328  137.8370  154.0397 N   0  0  0  0  0  0  0  0  0  0  0  0
  139.3224  139.0331  153.2999 C   0  0  0  0  0  0  0  0  0  0  0  0
  139.0860  140.2255  153.8796 C   0  0  0  0  0  0  0  0  0  0  0  0
  138.8349  140.2576  155.3150 C   0  0  0  0  0  0  0  0  0  0  0  0
  138.6176  141.3369  155.8620 O   0  0  0  0  0  0  0  0  0  0  0  0
  138.8532  139.0703  155.9889 N   0  5  0  0  0  0  0  0  0  0  0  0
  139.0953  137.8657  155.3861 C   0  0  0  0  0  0  0  0  0  0  0  0
  139.1053  136.8074  156.0157 O   0  0  0  0  0  0  0  0  0  0  0  0
  145.1217  135.4911  151.4540 C   0  0  0  0  0  0  0  0  0  0  0  0
  144.1560  134.4532  150.8294 C   0  0  0  0  0  0  0  0  0  0  0  0
  144.9030  133.2541  150.2234 C   0  0  0  0  0  0  0  0  0  0  0  0
  145.7989  132.5721  151.2653 C   0  0  0  0  0  0  0  0  0  0  0  0
  146.7729  133.5810  151.8875 C   0  0  0  0  0  0  0  0  0  0  0  0
  146.0248  134.7800  152.4920 C   0  0  0  0  0  0  0  0  0  0  0  0
  146.6193  137.1273  153.7542 H   0  0  0  0  0  0  0  0  0  0  0  0
  145.1299  137.8109  154.4169 H   0  0  0  0  0  0  0  0  0  0  0  0
  146.3805  138.8711  153.7851 H   0  0  0  0  0  0  0  0  0  0  0  0
  147.0277  137.4142  151.1913 H   0  0  0  0  0  0  0  0  0  0  0  0
  146.6949  139.1302  151.3702 H   0  0  0  0  0  0  0  0  0  0  0  0
  145.7559  138.1812  150.2315 H   0  0  0  0  0  0  0  0  0  0  0  0
  143.6451  137.0115  151.3035 H   0  0  0  0  0  0  0  0  0  0  0  0
  143.6160  135.3003  153.5593 H   0  0  0  0  0  0  0  0  0  0  0  0
  143.8693  136.8968  154.1880 H   0  0  0  0  0  0  0  0  0  0  0  0
  141.9074  137.5411  152.6117 H   0  0  0  0  0  0  0  0  0  0  0  0
  139.3695  136.7058  152.2549 H   0  0  0  0  0  0  0  0  0  0  0  0
  138.8820  135.8164  153.6397 H   0  0  0  0  0  0  0  0  0  0  0  0
  139.5097  138.9227  152.2419 H   0  0  0  0  0  0  0  0  0  0  0  0
  139.0787  141.1345  153.2963 H   0  0  0  0  0  0  0  0  0  0  0  0
  145.7703  135.8560  150.6572 H   0  0  0  0  0  0  0  0  0  0  0  0
  143.4564  134.0977  151.5873 H   0  0  0  0  0  0  0  0  0  0  0  0
  143.5522  134.9109  150.0457 H   0  0  0  0  0  0  0  0  0  0  0  0
  144.1879  132.5351  149.8226 H   0  0  0  0  0  0  0  0  0  0  0  0
  145.5102  133.5882  149.3813 H   0  0  0  0  0  0  0  0  0  0  0  0
  145.1813  132.1273  152.0468 H   0  0  0  0  0  0  0  0  0  0  0  0
  146.3526  131.7540  150.8036 H   0  0  0  0  0  0  0  0  0  0  0  0
  147.3724  133.0919  152.6557 H   0  0  0  0  0  0  0  0  0  0  0  0
  147.4721  133.9319  151.1273 H   0  0  0  0  0  0  0  0  0  0  0  0
  146.7636  135.4699  152.8987 H   0  0  0  0  0  0  0  0  0  0  0  0
  145.4215  134.4433  153.3361 H   0  0  0  0  0  0  0  0  0  0  0  0
  144.6240  138.6696  152.2824 H   0  0  0  0  0  0  0  0  0  0  0  0
  1  2  1  0  0  0  0
  1 24  1  0  0  0  0
  1 25  1  0  0  0  0
  1 26  1  0  0  0  0
  2  3  1  0  0  0  0
  2  4  1  0  0  0  0
  2 49  1  0  0  0  0
  3 27  1  0  0  0  0
  3 28  1  0  0  0  0
  3 29  1  0  0  0  0
  4  5  1  0  0  0  0
  4 18  1  0  0  0  0
  4 30  1  0  0  0  0
  5  6  1  0  0  0  0
  5 31  1  0  0  0  0
  5 32  1  0  0  0  0
  6  7  1  0  0  0  0
  6 33  1  0  0  0  0
  7  8  2  0  0  0  0
  7  9  1  0  0  0  0
  9 10  1  0  0  0  0
  9 34  1  0  0  0  0
  9 35  1  0  0  0  0
 10 16  1  0  0  0  0
 10 11  1  0  0  0  0
 11 12  2  0  0  0  0
 11 36  1  0  0  0  0
 12 13  1  0  0  0  0
 12 37  1  0  0  0  0
 13 14  2  0  0  0  0
 13 15  1  0  0  0  0
 15 16  1  0  0  0  0
 16 17  2  0  0  0  0
 18 23  1  0  0  0  0
 18 19  1  0  0  0  0
 18 38  1  0  0  0  0
 19 20  1  0  0  0  0
 19 39  1  0  0  0  0
 19 40  1  0  0  0  0
 20 21  1  0  0  0  0
 20 41  1  0  0  0  0
 20 42  1  0  0  0  0
 21 22  1  0  0  0  0
 21 43  1  0  0  0  0
 21 44  1  0  0  0  0
 22 23  1  0  0  0  0
 22 45  1  0  0  0  0
 22 46  1  0  0  0  0
 23 47  1  0  0  0  0
 23 48  1  0  0  0  0
M  CHG  1   2   1
M  CHG  1  15  -1
M  END
> <s_m_source_file>
AV-unprocessed.smi

> <i_m_source_file_index>
1552

> <i_lp_mmshare_version>
43012

> <i_f3d_flags>
0

> <s_epik_input>
W0NIMl0xW0NIMl1bQ0gyXVtDSDJdW0NIMl1bQ0hdMVtDQEhdKE4oW0NIM10pW0NIM10pW0NIMl1bTkhdQyg9TylbQ0gyXW4yW2NIXVtjSF1jKD1PKVtuSF1jMj1P

> <s_epik_cmdline>
J2VwaWtfcHl0aG9uJywgJy1waCcsICc3LjAnLCAnLXRuJywgJzgnLCAnLW1hJywgJzIwMCcsICctbWV0YWxfYmluZGluZycsICctaW1hZScsICc8aW5maWxlLm1hZT4nLCAnLW9tYWUnLCAnPG91dGZpbGUubWFlPic=

> <r_lp_tautomer_probability>
1

> <r_epik_Ionization_Penalty>
2.93575

> <r_epik_Ionization_Penalty_Charging>
0.00331645

> <r_epik_Ionization_Penalty_Neutral>
2.93244

> <r_epik_State_Penalty>
2.92822

> <r_epik_Charging_Adjusted_Penalty>
2.93154

> <i_epik_Tot_Q>
0

> <i_epik_Tot_abs_Q>
2

> <r_epik_Metal_State_Penalty>
0.448509

> <b_epik_Metal_Only>
1

> <s_lp_Force_Field>
OPLS_2005

> <r_lp_Energy>
39.5493

> <b_lp_Chiralities_Consistent>
1

> <s_lp_Variant>
AV-unprocessed.smi:1552-3

> <Gold.Version>
5.8.1

> <Gold.Id.Protein>
6NUR|6NUR_protein|mol2

> <Gold.PLP.Fitness>
44.5164

> <Gold.PLP.PLP>
-35.5267

> <Gold.PLP.part.hbond>
-4.0000

> <Gold.PLP.part.metal>
0.0000

> <Gold.PLP.part.buried>
-0.2398

> <Gold.PLP.part.nonpolar>
-31.3698

> <Gold.PLP.part.repulsive>
0.1898

> <Gold.PLP.ligand.clash>
0.0000

> <Gold.PLP.ligand.torsion>
1.6314

> <Gold.PLP.Chemscore.Hbond>
3.0000

> <Gold.PLP.Chemscore.CHOScore>
0.9751

> <Gold.PLP.Chemscore.Metal>
0.0000

> <Gold.Chemscore.Hbonds>
donor molecule, donor type, donor heavy atom, donor atom, acceptor molecule, acceptor atom, score
      L1  H     2    49       P1 10175  2.00
      P1  H 11000 11005       L1    17  1.00
      L1  C    11    36       P1 10160  0.93

> <Gold.PLP.Chemscore.Internal.Correction>
0.3272

> <Gold.Rescore>
     Score         DG    S(hbond)    S(metal)    S(lipo)     H(rot)  DE(clash)    DE(int)     intcor
     12.66     -14.40       1.96        0.00      73.47       2.43       0.15       1.58       ----

> <Gold.Chemscore.Fitness>
12.6641

> <Gold.Chemscore.DG>
-14.3972

> <Gold.Chemscore.ZeroCoef>
-5.4800

> <Gold.Chemscore.Hbond>
1.9592

> <Gold.Chemscore.Metal>
0.0000

> <Gold.Chemscore.Lipo>
73.4656

> <Gold.Chemscore.Internal_Hbond>
0.0000

> <Gold.Chemscore.DEClash>
0.1499

> <Gold.Chemscore.DEInternal>
1.5832

> <Gold.Chemscore.Rot>
2.4305

> <Gold.Chemscore.Internal.Correction>
   9.000000E+99

> <Gold.Chemscore.Hbonds>
donor molecule, donor type, donor heavy atom, donor atom, acceptor molecule, acceptor atom, score
      L1  H     2    49       P1 10175  0.94
      P1  H 11000 11005       L1    17  0.93

> <Gold.Chemscore.Hbond.Weighted>
-6.5438

> <Gold.Chemscore.Metal.Weighted>
-0.0000

> <Gold.Chemscore.Lipo.Weighted>
-8.5955

> <Gold.Chemscore.Internal_Hbond.Weighted>
0.0000

> <Gold.Chemscore.DEClash.Weighted>
0.1499

> <Gold.Chemscore.DEInternal.Weighted>
1.5832

> <Gold.Chemscore.Rot.Weighted>
6.2220

> <Gold.Chemscore.Internal.Correction.Weighted>
   9.000000E+99

> <Gold.Protein.RotatedTorsions>
[ 6907 6896 6895 6894 ] final  159.96 input  -60.11 | X-H torsion
[ 7974 7965 7964 7962 ] final -127.35 input  175.53 | X-H torsion
[ 8008 7997 7996 7995 ] final   98.04 input   59.86 | X-H torsion
[ 10167 10162 10161 10158 ] final -179.04 input  -65.29 | X-H torsion
[ 10718 10713 10712 10709 ] final  -96.04 input   66.30 | X-H torsion
[ 10763 10752 10751 10750 ] final  -35.29 input  -60.55 | X-H torsion
[ 11005 11000 10999 10996 ] final  103.95 input  -57.11 | X-H torsion

> <Gold.Protein.ActiveResidues>
 VAL166  LYS551  ARG553  GLY616  TRP617  ASP618  TYR619  PRO620  LYS621  CYS622 
 ASP623  PHE694  ASN695  SER759  ASP760  ASP761  ALA762  ILE779  LEU786  VAL792 
 PHE793  MET794  SER795  GLU796  ALA797  LYS798  CYS799  TRP800  GLU811  SER814 

> <Gold.Protein.RotatedAtoms>
  151.9777  133.3747  159.4095 H   0  0  0  0  0  0  0  0  0  0  0  0  # atno 6907 bound_to 6896
  150.6939  134.4072  159.5154 H   0  0  0  0  0  0  0  0  0  0  0  0  # atno 6908 bound_to 6896
  152.1786  134.8773  160.0579 H   0  0  0  0  0  0  0  0  0  0  0  0  # atno 6909 bound_to 6896
  144.9780  140.7612  143.4630 H   0  0  0  0  0  0  0  0  0  0  0  0  # atno 7974 bound_to 7965
  156.0963  140.3249  155.7882 H   0  0  0  0  0  0  0  0  0  0  0  0  # atno 8008 bound_to 7997
  155.4912  140.0561  157.2970 H   0  0  0  0  0  0  0  0  0  0  0  0  # atno 8009 bound_to 7997
  154.4668  140.1993  156.0112 H   0  0  0  0  0  0  0  0  0  0  0  0  # atno 8010 bound_to 7997
  139.5404  144.2378  152.0884 H   0  0  0  0  0  0  0  0  0  0  0  0  # atno 10167 bound_to 10162
  156.0054  130.5134  150.6166 H   0  0  0  0  0  0  0  0  0  0  0  0  # atno 10718 bound_to 10713
  153.8608  135.6840  153.4783 H   0  0  0  0  0  0  0  0  0  0  0  0  # atno 10763 bound_to 10752
  153.1343  135.4684  154.9395 H   0  0  0  0  0  0  0  0  0  0  0  0  # atno 10764 bound_to 10752
  154.7759  135.3253  154.8041 H   0  0  0  0  0  0  0  0  0  0  0  0  # atno 10765 bound_to 10752
  139.8788  134.9282  156.5287 H   0  0  0  0  0  0  0  0  0  0  0  0  # atno 11005 bound_to 11000
  145.2462  139.2051  143.4966 LP  0  0  0  0  0  0  0  0  0  0  0  0  # atno 17320 bound_to 7965
  146.3400  140.2367  142.8594 LP  0  0  0  0  0  0  0  0  0  0  0  0  # atno 17321 bound_to 7965
  140.1856  144.4802  150.6505 LP  0  0  0  0  0  0  0  0  0  0  0  0  # atno 17342 bound_to 10162
  140.6632  143.2259  151.5807 LP  0  0  0  0  0  0  0  0  0  0  0  0  # atno 17343 bound_to 10162
  157.3989  131.0807  151.1326 LP  0  0  0  0  0  0  0  0  0  0  0  0  # atno 17370 bound_to 10713
  157.1994  130.6388  149.5733 LP  0  0  0  0  0  0  0  0  0  0  0  0  # atno 17371 bound_to 10713
  140.8397  133.8215  155.9063 LP  0  0  0  0  0  0  0  0  0  0  0  0  # atno 17394 bound_to 11000
  140.9249  134.2094  157.4902 LP  0  0  0  0  0  0  0  0  0  0  0  0  # atno 17395 bound_to 11000

$$$$
