AV-unprocessed.smi:1414|AV-procd|sdf|5761|dock1
  -GOLD-   22720 5403D 1   1.00000     0.00000
 Structure written by MMmdl.
 45 46  0  0  0  0  0  0  0  0  1 V2000
  153.4277  137.8109  156.3553 C   0  0  0  0  0  0  0  0  0  0  0  0
  152.1527  138.6574  156.4329 C   0  0  2  0  0  0  0  0  0  0  0  0
  151.5284  138.8918  155.0429 C   0  0  0  0  0  0  0  0  0  0  0  0
  150.3977  139.8325  155.1171 N   0  0  0  0  0  0  0  0  0  0  0  0
  148.7664  139.2361  155.0365 S   0  0  0  0  0  0  0  0  0  0  0  0
  148.8040  137.7847  155.2734 O   0  0  0  0  0  0  0  0  0  0  0  0
  147.9302  140.0872  155.8968 O   0  0  0  0  0  0  0  0  0  0  0  0
  148.2682  139.5190  153.2854 C   0  0  0  0  0  0  0  0  0  0  0  0
  146.8219  139.0597  153.0494 C   0  0  0  0  0  0  0  0  0  0  0  0
  146.7675  137.6946  152.5380 N   0  0  0  0  0  0  0  0  0  0  0  0
  145.6450  136.9840  152.3586 C   0  0  0  0  0  0  0  0  0  0  0  0
  144.5214  137.4186  152.6102 O   0  0  0  0  0  0  0  0  0  0  0  0
  145.9186  135.7541  151.8902 N   0  0  0  0  0  0  0  0  0  0  0  0
  145.0149  134.7072  151.5607 C   0  0  0  0  0  0  0  0  0  0  0  0
  143.7604  134.5073  152.1869 C   0  0  0  0  0  0  0  0  0  0  0  0
  142.9483  133.4404  151.7567 C   0  0  0  0  0  0  0  0  0  0  0  0
  143.4150  132.6171  150.7139 C   0  0  0  0  0  0  0  0  0  0  0  0
  144.6016  132.8039  150.0987 N   0  0  0  0  0  0  0  0  0  0  0  0
  145.3745  133.8294  150.5159 C   0  0  0  0  0  0  0  0  0  0  0  0
  150.6929  141.0592  155.8758 C   0  0  0  0  0  0  0  0  0  0  0  0
  151.3478  140.7309  157.2321 C   0  0  2  0  0  0  0  0  0  0  0  0
  151.8026  141.9938  157.9715 C   0  0  0  0  0  0  0  0  0  0  0  0
  152.4876  139.9080  157.0203 O   0  0  0  0  0  0  0  0  0  0  0  0
  153.2227  136.8320  155.9215 H   0  0  0  0  0  0  0  0  0  0  0  0
  153.8503  137.6521  157.3476 H   0  0  0  0  0  0  0  0  0  0  0  0
  154.1881  138.2965  155.7430 H   0  0  0  0  0  0  0  0  0  0  0  0
  151.4445  138.1404  157.0801 H   0  0  0  0  0  0  0  0  0  0  0  0
  152.2769  139.3145  154.3715 H   0  0  0  0  0  0  0  0  0  0  0  0
  151.2113  137.9482  154.5995 H   0  0  0  0  0  0  0  0  0  0  0  0
  148.3689  140.5817  153.0706 H   0  0  0  0  0  0  0  0  0  0  0  0
  148.9538  138.9719  152.6400 H   0  0  0  0  0  0  0  0  0  0  0  0
  146.2659  139.0924  153.9864 H   0  0  0  0  0  0  0  0  0  0  0  0
  146.3121  139.7374  152.3624 H   0  0  0  0  0  0  0  0  0  0  0  0
  147.6495  137.2575  152.3131 H   0  0  0  0  0  0  0  0  0  0  0  0
  146.8971  135.5204  151.8065 H   0  0  0  0  0  0  0  0  0  0  0  0
  143.3989  135.1518  152.9723 H   0  0  0  0  0  0  0  0  0  0  0  0
  141.9869  133.2598  152.2142 H   0  0  0  0  0  0  0  0  0  0  0  0
  142.8165  131.7905  150.3606 H   0  0  0  0  0  0  0  0  0  0  0  0
  146.3154  133.9502  149.9988 H   0  0  0  0  0  0  0  0  0  0  0  0
  151.3700  141.6722  155.2799 H   0  0  0  0  0  0  0  0  0  0  0  0
  149.7861  141.6466  156.0186 H   0  0  0  0  0  0  0  0  0  0  0  0
  150.6414  140.2010  157.8712 H   0  0  0  0  0  0  0  0  0  0  0  0
  150.9611  142.6587  158.1672 H   0  0  0  0  0  0  0  0  0  0  0  0
  152.5402  142.5483  157.3906 H   0  0  0  0  0  0  0  0  0  0  0  0
  152.2561  141.7409  158.9300 H   0  0  0  0  0  0  0  0  0  0  0  0
  1  2  1  0  0  0  0
  1 24  1  0  0  0  0
  1 25  1  0  0  0  0
  1 26  1  0  0  0  0
  2 23  1  0  0  0  0
  2  3  1  0  0  0  0
  2 27  1  0  0  0  0
  3  4  1  0  0  0  0
  3 28  1  0  0  0  0
  3 29  1  0  0  0  0
  4  5  1  0  0  0  0
  4 20  1  0  0  0  0
  5  6  2  0  0  0  0
  5  7  2  0  0  0  0
  5  8  1  0  0  0  0
  8  9  1  0  0  0  0
  8 30  1  0  0  0  0
  8 31  1  0  0  0  0
  9 10  1  0  0  0  0
  9 32  1  0  0  0  0
  9 33  1  0  0  0  0
 10 11  1  0  0  0  0
 10 34  1  0  0  0  0
 11 12  2  0  0  0  0
 11 13  1  0  0  0  0
 13 14  1  0  0  0  0
 13 35  1  0  0  0  0
 14 19  1  0  0  0  0
 14 15  2  0  0  0  0
 15 16  1  0  0  0  0
 15 36  1  0  0  0  0
 16 17  2  0  0  0  0
 16 37  1  0  0  0  0
 17 18  1  0  0  0  0
 17 38  1  0  0  0  0
 18 19  2  0  0  0  0
 19 39  1  0  0  0  0
 20 21  1  0  0  0  0
 20 40  1  0  0  0  0
 20 41  1  0  0  0  0
 21 22  1  0  0  0  0
 21 23  1  0  0  0  0
 21 42  1  0  0  0  0
 22 43  1  0  0  0  0
 22 44  1  0  0  0  0
 22 45  1  0  0  0  0
M  END
> <s_m_source_file>
AV-unprocessed.smi

> <i_m_source_file_index>
1414

> <i_lp_mmshare_version>
43012

> <i_f3d_flags>
0

> <s_epik_input>
W0NIM11bQ0BASF0xW0NIMl1OKFtDSDJdW0NASF0oTzEpW0NIM10pUyg9TykoPU8pW0NIMl1bQ0gyXVtOSF1DKD1PKVtOSF1jMltjSF1bY0hdW2NIXW5bY0hdMg==

> <s_epik_cmdline>
J2VwaWtfcHl0aG9uJywgJy1waCcsICc3LjAnLCAnLXRuJywgJzgnLCAnLW1hJywgJzIwMCcsICctbWV0YWxfYmluZGluZycsICctaW1hZScsICc8aW5maWxlLm1hZT4nLCAnLW9tYWUnLCAnPG91dGZpbGUubWFlPic=

> <r_epik_Ionization_Penalty>
0.00437531

> <r_epik_Ionization_Penalty_Charging>
0

> <r_epik_Ionization_Penalty_Neutral>
0.00437531

> <r_epik_State_Penalty>
0.00312896

> <r_epik_Charging_Adjusted_Penalty>
0.00312896

> <i_epik_Tot_Q>
0

> <i_epik_Tot_abs_Q>
0

> <r_epik_Metal_State_Penalty>
-0

> <b_epik_Metal_Only>
0

> <s_lp_Force_Field>
OPLS_2005

> <r_lp_Energy>
4.57438

> <b_lp_Chiralities_Consistent>
1

> <s_lp_Variant>
AV-unprocessed.smi:1414-2

> <Gold.Version>
5.8.1

> <Gold.Id.Protein>
6NUR|6NUR_protein|mol2

> <Gold.PLP.Fitness>
44.3969

> <Gold.PLP.PLP>
-33.3516

> <Gold.PLP.part.hbond>
-3.0000

> <Gold.PLP.part.metal>
0.0000

> <Gold.PLP.part.buried>
0.1602

> <Gold.PLP.part.nonpolar>
-31.8821

> <Gold.PLP.part.repulsive>
0.5600

> <Gold.PLP.ligand.clash>
0.0000

> <Gold.PLP.ligand.torsion>
1.5126

> <Gold.PLP.Chemscore.Hbond>
2.8424

> <Gold.PLP.Chemscore.CHOScore>
1.1217

> <Gold.PLP.Chemscore.Metal>
0.0000

> <Gold.Chemscore.Hbonds>
donor molecule, donor type, donor heavy atom, donor atom, acceptor molecule, acceptor atom, score
      L1  H    10    34       P1  7948  1.00
      L1  H    13    35       P1  7948  0.69
      P1  H  7997  8008       L1    23  1.00
      L1  C    17    38       P1 10952  0.87
      L1  C    19    39       P1  7921  0.47

> <Gold.PLP.Chemscore.Internal.Correction>
2.1782

> <Gold.Rescore>
     Score         DG    S(hbond)    S(metal)    S(lipo)     H(rot)  DE(clash)    DE(int)     intcor
     15.82     -19.86       2.48        0.00      86.36       1.57       1.83       2.21       ----

> <Gold.Chemscore.Fitness>
15.8199

> <Gold.Chemscore.DG>
-19.8579

> <Gold.Chemscore.ZeroCoef>
-5.4800

> <Gold.Chemscore.Hbond>
2.4819

> <Gold.Chemscore.Metal>
0.0000

> <Gold.Chemscore.Lipo>
86.3626

> <Gold.Chemscore.Internal_Hbond>
0.0000

> <Gold.Chemscore.DEClash>
1.8269

> <Gold.Chemscore.DEInternal>
2.2111

> <Gold.Chemscore.Rot>
1.5687

> <Gold.Chemscore.Internal.Correction>
   9.000000E+99

> <Gold.Chemscore.Hbonds>
donor molecule, donor type, donor heavy atom, donor atom, acceptor molecule, acceptor atom, score
      L1  H    10    34       P1  7948  1.00
      L1  H    13    35       P1  7948  0.67
      P1  H  7997  8008       L1    23  0.39

> <Gold.Chemscore.Hbond.Weighted>
-8.2894

> <Gold.Chemscore.Metal.Weighted>
-0.0000

> <Gold.Chemscore.Lipo.Weighted>
-10.1044

> <Gold.Chemscore.Internal_Hbond.Weighted>
0.0000

> <Gold.Chemscore.DEClash.Weighted>
1.8269

> <Gold.Chemscore.DEInternal.Weighted>
2.2111

> <Gold.Chemscore.Rot.Weighted>
4.0160

> <Gold.Chemscore.Internal.Correction.Weighted>
   9.000000E+99

> <Gold.Protein.RotatedTorsions>
[ 6907 6896 6895 6894 ] final  126.62 input  -60.11 | X-H torsion
[ 7974 7965 7964 7962 ] final  150.90 input  175.53 | X-H torsion
[ 8008 7997 7996 7995 ] final  -57.12 input   59.86 | X-H torsion
[ 10167 10162 10161 10158 ] final   26.28 input  -65.29 | X-H torsion
[ 10718 10713 10712 10709 ] final  -70.87 input   66.30 | X-H torsion
[ 10763 10752 10751 10750 ] final   29.87 input  -60.55 | X-H torsion
[ 11005 11000 10999 10996 ] final    2.33 input  -57.11 | X-H torsion

> <Gold.Protein.ActiveResidues>
 VAL166  LYS551  ARG553  GLY616  TRP617  ASP618  TYR619  PRO620  LYS621  CYS622 
 ASP623  PHE694  ASN695  SER759  ASP760  ASP761  ALA762  ILE779  LEU786  VAL792 
 PHE793  MET794  SER795  GLU796  ALA797  LYS798  CYS799  TRP800  GLU811  SER814 

> <Gold.Protein.RotatedAtoms>
  152.3887  133.6648  159.6219 H   0  0  0  0  0  0  0  0  0  0  0  0  # atno 6907 bound_to 6896
  150.7800  133.8991  159.3345 H   0  0  0  0  0  0  0  0  0  0  0  0  # atno 6908 bound_to 6896
  151.6782  135.0967  160.0262 H   0  0  0  0  0  0  0  0  0  0  0  0  # atno 6909 bound_to 6896
  144.8330  139.6468  143.6050 H   0  0  0  0  0  0  0  0  0  0  0  0  # atno 7974 bound_to 7965
  154.4256  140.1114  156.5746 H   0  0  0  0  0  0  0  0  0  0  0  0  # atno 8008 bound_to 7997
  155.6176  140.3495  155.4623 H   0  0  0  0  0  0  0  0  0  0  0  0  # atno 8009 bound_to 7997
  156.0050  140.1207  157.0500 H   0  0  0  0  0  0  0  0  0  0  0  0  # atno 8010 bound_to 7997
  140.5036  144.0275  150.6343 H   0  0  0  0  0  0  0  0  0  0  0  0  # atno 10167 bound_to 10162
  156.0388  130.4340  150.2359 H   0  0  0  0  0  0  0  0  0  0  0  0  # atno 10718 bound_to 10713
  153.0405  135.6478  154.0957 H   0  0  0  0  0  0  0  0  0  0  0  0  # atno 10763 bound_to 10752
  154.0665  135.2884  155.3317 H   0  0  0  0  0  0  0  0  0  0  0  0  # atno 10764 bound_to 10752
  154.6623  135.5387  153.8098 H   0  0  0  0  0  0  0  0  0  0  0  0  # atno 10765 bound_to 10752
  140.6055  133.9796  155.8152 H   0  0  0  0  0  0  0  0  0  0  0  0  # atno 11005 bound_to 11000
  146.2632  139.6458  142.9348 LP  0  0  0  0  0  0  0  0  0  0  0  0  # atno 17320 bound_to 7965
  145.4854  141.0438  143.2623 LP  0  0  0  0  0  0  0  0  0  0  0  0  # atno 17321 bound_to 7965
  140.3578  143.2925  152.0417 LP  0  0  0  0  0  0  0  0  0  0  0  0  # atno 17342 bound_to 10162
  139.4878  144.6326  151.7040 LP  0  0  0  0  0  0  0  0  0  0  0  0  # atno 17343 bound_to 10162
  157.0456  131.0048  151.3270 LP  0  0  0  0  0  0  0  0  0  0  0  0  # atno 17370 bound_to 10713
  157.5178  130.7978  149.7775 LP  0  0  0  0  0  0  0  0  0  0  0  0  # atno 17371 bound_to 10713
  141.0843  134.0014  157.3337 LP  0  0  0  0  0  0  0  0  0  0  0  0  # atno 17394 bound_to 11000
  139.9214  135.0200  156.8078 LP  0  0  0  0  0  0  0  0  0  0  0  0  # atno 17395 bound_to 11000

$$$$
