AV-unprocessed.smi:1692|AV-procd|sdf|6780|dock1
  -GOLD-   22720 7543D 1   1.00000     0.00000
 Structure written by MMmdl.
 46 47  0  0  0  0  0  0  0  0  2 V2000
  153.8230  138.8797  154.7453 C   0  0  0  0  0  0  0  0  0  0  0  0
  152.3327  138.6542  155.0227 C   0  0  2  0  0  0  0  0  0  0  0  0
  151.6650  137.7865  153.9362 C   0  0  0  0  0  0  0  0  0  0  0  0
  150.2081  137.6480  154.1782 N   0  3  1  0  0  0  0  0  0  0  0  0
  149.8740  136.6741  155.2517 C   0  0  0  0  0  0  0  0  0  0  0  0
  150.6521  135.3550  155.1114 C   0  0  0  0  0  0  0  0  0  0  0  0
  149.7190  134.1467  154.9275 C   0  0  0  0  0  0  0  0  0  0  0  0
  148.9057  134.2722  153.7234 N   0  0  0  0  0  0  0  0  0  0  0  0
  147.9620  133.3998  153.3400 C   0  0  0  0  0  0  0  0  0  0  0  0
  147.6745  132.3890  153.9822 O   0  0  0  0  0  0  0  0  0  0  0  0
  147.3879  133.7787  152.1846 N   0  0  0  0  0  0  0  0  0  0  0  0
  146.3514  133.1274  151.4640 C   0  0  0  0  0  0  0  0  0  0  0  0
  145.4987  133.9871  150.7352 C   0  0  0  0  0  0  0  0  0  0  0  0
  144.4387  133.4403  149.9864 C   0  0  0  0  0  0  0  0  0  0  0  0
  144.2581  132.0458  149.9858 C   0  0  0  0  0  0  0  0  0  0  0  0
  145.1511  131.2613  150.7388 C   0  0  0  0  0  0  0  0  0  0  0  0
  146.1677  131.7833  151.4575 N   0  0  0  0  0  0  0  0  0  0  0  0
  149.5815  138.9863  154.3310 C   0  0  0  0  0  0  0  0  0  0  0  0
  150.3106  139.8397  155.3914 C   0  0  2  0  0  0  0  0  0  0  0  0
  149.7513  141.2646  155.4652 C   0  0  0  0  0  0  0  0  0  0  0  0
  151.6916  139.9248  155.0551 O   0  0  0  0  0  0  0  0  0  0  0  0
  154.3653  137.9339  154.7207 H   0  0  0  0  0  0  0  0  0  0  0  0
  154.2738  139.5003  155.5202 H   0  0  0  0  0  0  0  0  0  0  0  0
  153.9764  139.3790  153.7882 H   0  0  0  0  0  0  0  0  0  0  0  0
  152.2349  138.1760  155.9986 H   0  0  0  0  0  0  0  0  0  0  0  0
  151.8045  138.2546  152.9606 H   0  0  0  0  0  0  0  0  0  0  0  0
  152.1378  136.8056  153.8734 H   0  0  0  0  0  0  0  0  0  0  0  0
  150.1327  137.1116  156.2168 H   0  0  0  0  0  0  0  0  0  0  0  0
  148.8014  136.4832  155.2829 H   0  0  0  0  0  0  0  0  0  0  0  0
  151.3332  135.4100  154.2629 H   0  0  0  0  0  0  0  0  0  0  0  0
  151.2722  135.2025  155.9958 H   0  0  0  0  0  0  0  0  0  0  0  0
  150.3062  133.2317  154.8449 H   0  0  0  0  0  0  0  0  0  0  0  0
  149.0747  134.0242  155.7999 H   0  0  0  0  0  0  0  0  0  0  0  0
  149.0793  135.0754  153.1368 H   0  0  0  0  0  0  0  0  0  0  0  0
  147.7329  134.6318  151.7703 H   0  0  0  0  0  0  0  0  0  0  0  0
  145.6517  135.0564  150.7458 H   0  0  0  0  0  0  0  0  0  0  0  0
  143.7766  134.0805  149.4226 H   0  0  0  0  0  0  0  0  0  0  0  0
  143.4568  131.5895  149.4237 H   0  0  0  0  0  0  0  0  0  0  0  0
  145.0471  130.1868  150.7655 H   0  0  0  0  0  0  0  0  0  0  0  0
  149.6344  139.4910  153.3653 H   0  0  0  0  0  0  0  0  0  0  0  0
  148.5217  138.9015  154.5668 H   0  0  0  0  0  0  0  0  0  0  0  0
  150.2099  139.3862  156.3782 H   0  0  0  0  0  0  0  0  0  0  0  0
  148.6941  141.2576  155.7319 H   0  0  0  0  0  0  0  0  0  0  0  0
  149.8526  141.7794  154.5093 H   0  0  0  0  0  0  0  0  0  0  0  0
  150.2788  141.8522  156.2169 H   0  0  0  0  0  0  0  0  0  0  0  0
  149.8268  137.2468  153.3333 H   0  0  0  0  0  0  0  0  0  0  0  0
  1  2  1  0  0  0  0
  1 22  1  0  0  0  0
  1 23  1  0  0  0  0
  1 24  1  0  0  0  0
  2 21  1  0  0  0  0
  2  3  1  0  0  0  0
  2 25  1  0  0  0  0
  3  4  1  0  0  0  0
  3 26  1  0  0  0  0
  3 27  1  0  0  0  0
  4  5  1  0  0  0  0
  4 18  1  0  0  0  0
  4 46  1  0  0  0  0
  5  6  1  0  0  0  0
  5 28  1  0  0  0  0
  5 29  1  0  0  0  0
  6  7  1  0  0  0  0
  6 30  1  0  0  0  0
  6 31  1  0  0  0  0
  7  8  1  0  0  0  0
  7 32  1  0  0  0  0
  7 33  1  0  0  0  0
  8  9  1  0  0  0  0
  8 34  1  0  0  0  0
  9 10  2  0  0  0  0
  9 11  1  0  0  0  0
 11 12  1  0  0  0  0
 11 35  1  0  0  0  0
 12 17  1  0  0  0  0
 12 13  2  0  0  0  0
 13 14  1  0  0  0  0
 13 36  1  0  0  0  0
 14 15  2  0  0  0  0
 14 37  1  0  0  0  0
 15 16  1  0  0  0  0
 15 38  1  0  0  0  0
 16 17  2  0  0  0  0
 16 39  1  0  0  0  0
 18 19  1  0  0  0  0
 18 40  1  0  0  0  0
 18 41  1  0  0  0  0
 19 20  1  0  0  0  0
 19 21  1  0  0  0  0
 19 42  1  0  0  0  0
 20 43  1  0  0  0  0
 20 44  1  0  0  0  0
 20 45  1  0  0  0  0
M  CHG  1   4   1
M  END
> <s_m_source_file>
AV-unprocessed.smi

> <i_m_source_file_index>
1692

> <i_lp_mmshare_version>
43012

> <i_f3d_flags>
0

> <s_epik_input>
W0NIM11bQ0BASF0xW0NIMl1OKFtDSDJdW0NASF0oTzEpW0NIM10pW0NIMl1bQ0gyXVtDSDJdW05IXUMoPU8pW05IXWMyW2NIXVtjSF1bY0hdW2NIXW4y

> <s_epik_cmdline>
J2VwaWtfcHl0aG9uJywgJy1waCcsICc3LjAnLCAnLXRuJywgJzgnLCAnLW1hJywgJzIwMCcsICctbWV0YWxfYmluZGluZycsICctaW1hZScsICc8aW5maWxlLm1hZT4nLCAnLW9tYWUnLCAnPG91dGZpbGUubWFlPic=

> <r_epik_Ionization_Penalty>
0.270538

> <r_epik_Ionization_Penalty_Charging>
0.270496

> <r_epik_Ionization_Penalty_Neutral>
4.22978e-05

> <r_epik_State_Penalty>
0.262618

> <r_epik_Charging_Adjusted_Penalty>
0.533114

> <i_epik_Tot_Q>
1

> <i_epik_Tot_abs_Q>
1

> <r_epik_Metal_State_Penalty>
0.262618

> <b_epik_Metal_Only>
0

> <s_lp_Force_Field>
OPLS_2005

> <r_lp_Energy>
18.3

> <b_lp_Chiralities_Consistent>
1

> <s_lp_Variant>
AV-unprocessed.smi:1692-3

> <Gold.Version>
5.8.1

> <Gold.Id.Protein>
6NUR|6NUR_protein|mol2

> <Gold.PLP.Fitness>
53.5719

> <Gold.PLP.PLP>
-39.7654

> <Gold.PLP.part.hbond>
-4.0431

> <Gold.PLP.part.metal>
0.0000

> <Gold.PLP.part.buried>
-2.1102

> <Gold.PLP.part.nonpolar>
-34.0669

> <Gold.PLP.part.repulsive>
0.2888

> <Gold.PLP.ligand.clash>
0.0000

> <Gold.PLP.ligand.torsion>
0.6323

> <Gold.PLP.Chemscore.Hbond>
4.9920

> <Gold.PLP.Chemscore.CHOScore>
0.0000

> <Gold.PLP.Chemscore.Metal>
0.0000

> <Gold.Chemscore.Hbonds>
donor molecule, donor type, donor heavy atom, donor atom, acceptor molecule, acceptor atom, score
      L1  H     4    46       P1  7948  2.00
      L1  H     8    34       P1  7948  0.85
      L1  H    11    35       P1  7948  1.00
      P1  H  7989  7998       L1    21  1.00

> <Gold.PLP.Chemscore.Internal.Correction>
0.0951

> <Gold.Rescore>
     Score         DG    S(hbond)    S(metal)    S(lipo)     H(rot)  DE(clash)    DE(int)     intcor
     19.07     -22.14       3.03        0.00      94.91       1.78       1.43       1.65       ----

> <Gold.Chemscore.Fitness>
19.0652

> <Gold.Chemscore.DG>
-22.1395

> <Gold.Chemscore.ZeroCoef>
-5.4800

> <Gold.Chemscore.Hbond>
3.0285

> <Gold.Chemscore.Metal>
0.0000

> <Gold.Chemscore.Lipo>
94.9110

> <Gold.Chemscore.Internal_Hbond>
0.0000

> <Gold.Chemscore.DEClash>
1.4280

> <Gold.Chemscore.DEInternal>
1.6462

> <Gold.Chemscore.Rot>
1.7814

> <Gold.Chemscore.Internal.Correction>
   9.000000E+99

> <Gold.Chemscore.Hbonds>
donor molecule, donor type, donor heavy atom, donor atom, acceptor molecule, acceptor atom, score
      L1  H     4    46       P1  7948  0.49
      L1  H     8    34       P1  7948  0.15
      L1  H    11    35       P1  7948  0.28
      P1  H  7989  7998       L1    21  0.36

> <Gold.Chemscore.Hbond.Weighted>
-10.1152

> <Gold.Chemscore.Metal.Weighted>
-0.0000

> <Gold.Chemscore.Lipo.Weighted>
-11.1046

> <Gold.Chemscore.Internal_Hbond.Weighted>
0.0000

> <Gold.Chemscore.DEClash.Weighted>
1.4280

> <Gold.Chemscore.DEInternal.Weighted>
1.6462

> <Gold.Chemscore.Rot.Weighted>
4.5603

> <Gold.Chemscore.Internal.Correction.Weighted>
   9.000000E+99

> <Gold.Protein.RotatedTorsions>
[ 6907 6896 6895 6894 ] final   72.72 input  -60.11 | X-H torsion
[ 7974 7965 7964 7962 ] final -152.03 input  175.53 | X-H torsion
[ 8008 7997 7996 7995 ] final -108.94 input   59.86 | X-H torsion
[ 10167 10162 10161 10158 ] final  -16.97 input  -65.29 | X-H torsion
[ 10718 10713 10712 10709 ] final -115.05 input   66.30 | X-H torsion
[ 10763 10752 10751 10750 ] final -131.79 input  -60.55 | X-H torsion
[ 11005 11000 10999 10996 ] final -101.26 input  -57.11 | X-H torsion

> <Gold.Protein.ActiveResidues>
 VAL166  LYS551  ARG553  GLY616  TRP617  ASP618  TYR619  PRO620  LYS621  CYS622 
 ASP623  PHE694  ASN695  SER759  ASP760  ASP761  ALA762  ILE779  LEU786  VAL792 
 PHE793  MET794  SER795  GLU796  ALA797  LYS798  CYS799  TRP800  GLU811  SER814 

> <Gold.Protein.RotatedAtoms>
  152.4883  134.4530  159.9580 H   0  0  0  0  0  0  0  0  0  0  0  0  # atno 6907 bound_to 6896
  151.4521  133.3608  159.2804 H   0  0  0  0  0  0  0  0  0  0  0  0  # atno 6908 bound_to 6896
  150.9014  134.8451  159.7423 H   0  0  0  0  0  0  0  0  0  0  0  0  # atno 6909 bound_to 6896
  144.7817  140.4718  143.5835 H   0  0  0  0  0  0  0  0  0  0  0  0  # atno 7974 bound_to 7965
  154.9518  140.0400  157.2147 H   0  0  0  0  0  0  0  0  0  0  0  0  # atno 8008 bound_to 7997
  154.7972  140.2845  155.5926 H   0  0  0  0  0  0  0  0  0  0  0  0  # atno 8009 bound_to 7997
  156.2957  140.2562  156.2832 H   0  0  0  0  0  0  0  0  0  0  0  0  # atno 8010 bound_to 7997
  140.7241  143.5063  150.9806 H   0  0  0  0  0  0  0  0  0  0  0  0  # atno 10167 bound_to 10162
  156.0870  130.6060  150.8856 H   0  0  0  0  0  0  0  0  0  0  0  0  # atno 10718 bound_to 10713
  154.8748  135.3819  154.4303 H   0  0  0  0  0  0  0  0  0  0  0  0  # atno 10763 bound_to 10752
  153.4998  135.7030  153.5843 H   0  0  0  0  0  0  0  0  0  0  0  0  # atno 10764 bound_to 10752
  153.4180  135.3908  155.2059 H   0  0  0  0  0  0  0  0  0  0  0  0  # atno 10765 bound_to 10752
  141.1238  133.8464  157.1209 H   0  0  0  0  0  0  0  0  0  0  0  0  # atno 11005 bound_to 11000
  145.6033  139.1506  143.3117 LP  0  0  0  0  0  0  0  0  0  0  0  0  # atno 17320 bound_to 7965
  146.2028  140.6153  142.9094 LP  0  0  0  0  0  0  0  0  0  0  0  0  # atno 17321 bound_to 7965
  139.8774  143.7115  152.3160 LP  0  0  0  0  0  0  0  0  0  0  0  0  # atno 17342 bound_to 10162
  139.7385  144.7565  151.0689 LP  0  0  0  0  0  0  0  0  0  0  0  0  # atno 17343 bound_to 10162
  157.6008  131.0941  150.8964 LP  0  0  0  0  0  0  0  0  0  0  0  0  # atno 17370 bound_to 10713
  156.9121  130.5284  149.5280 LP  0  0  0  0  0  0  0  0  0  0  0  0  # atno 17371 bound_to 10713
  140.0217  134.9942  157.0606 LP  0  0  0  0  0  0  0  0  0  0  0  0  # atno 17394 bound_to 11000
  140.4428  134.1663  155.7175 LP  0  0  0  0  0  0  0  0  0  0  0  0  # atno 17395 bound_to 11000

$$$$
