AV-unprocessed.smi:447|AV-procd|sdf|2604|dock2
  -GOLD-   2262023 03D 1   1.00000     0.00000
 Structure written by MMmdl.
 46 48  0  0  0  0  0  0  0  0  2 V2000
  149.1671  138.9618  154.3491 C   0  0  0  0  0  0  0  0  0  0  0  0
  147.7782  139.0625  153.7289 C   0  0  0  0  0  0  0  0  0  0  0  0
  147.0869  140.0599  153.9244 O   0  0  0  0  0  0  0  0  0  0  0  0
  147.3806  138.0134  152.9925 N   0  0  0  0  0  0  0  0  0  0  0  0
  146.1246  137.9003  152.2496 C   0  0  1  0  0  0  0  0  0  0  0  0
  146.2668  138.6803  150.9340 C   0  0  0  0  0  0  0  0  0  0  0  0
  145.7050  136.4807  151.9739 C   0  0  0  0  0  0  0  0  0  0  0  0
  146.5428  135.4401  151.6948 N   0  3  0  0  0  0  0  0  0  0  0  0
  145.8058  134.2832  151.4532 C   0  0  0  0  0  0  0  0  0  0  0  0
  146.2185  132.9927  151.1370 C   0  0  0  0  0  0  0  0  0  0  0  0
  145.2031  132.0355  150.9350 C   0  0  0  0  0  0  0  0  0  0  0  0
  143.8404  132.3786  151.0451 C   0  0  0  0  0  0  0  0  0  0  0  0
  143.4364  133.6911  151.3661 C   0  0  0  0  0  0  0  0  0  0  0  0
  144.4461  134.6315  151.5748 C   0  0  0  0  0  0  0  0  0  0  0  0
  144.4277  135.9935  151.9092 N   0  0  0  0  0  0  0  0  0  0  0  0
  143.1263  136.6718  152.0824 C   0  0  0  0  0  0  0  0  0  0  0  0
  142.3751  136.3313  153.3914 C   0  0  1  0  0  0  0  0  0  0  0  0
  143.2084  136.5183  154.5186 O   0  0  0  0  0  0  0  0  0  0  0  0
  141.0340  137.0438  153.5113 C   0  0  0  0  0  0  0  0  0  0  0  0
  140.9281  138.4467  153.3758 C   0  0  0  0  0  0  0  0  0  0  0  0
  139.6770  139.0801  153.5073 C   0  0  0  0  0  0  0  0  0  0  0  0
  138.5218  138.3170  153.7600 C   0  0  0  0  0  0  0  0  0  0  0  0
  138.6189  136.9189  153.8894 C   0  0  0  0  0  0  0  0  0  0  0  0
  139.8709  136.2859  153.7688 C   0  0  0  0  0  0  0  0  0  0  0  0
  149.2158  138.1186  155.0386 H   0  0  0  0  0  0  0  0  0  0  0  0
  149.4125  139.8694  154.9014 H   0  0  0  0  0  0  0  0  0  0  0  0
  149.9210  138.8202  153.5741 H   0  0  0  0  0  0  0  0  0  0  0  0
  148.0244  137.2407  152.9013 H   0  0  0  0  0  0  0  0  0  0  0  0
  145.3490  138.3763  152.8481 H   0  0  0  0  0  0  0  0  0  0  0  0
  145.3386  138.6839  150.3638 H   0  0  0  0  0  0  0  0  0  0  0  0
  147.0404  138.2468  150.2989 H   0  0  0  0  0  0  0  0  0  0  0  0
  146.5358  139.7204  151.1218 H   0  0  0  0  0  0  0  0  0  0  0  0
  147.2622  132.7301  151.0472 H   0  0  0  0  0  0  0  0  0  0  0  0
  145.4745  131.0192  150.6884 H   0  0  0  0  0  0  0  0  0  0  0  0
  143.0886  131.6202  150.8815 H   0  0  0  0  0  0  0  0  0  0  0  0
  142.3890  133.9397  151.4509 H   0  0  0  0  0  0  0  0  0  0  0  0
  143.2950  137.7463  152.0248 H   0  0  0  0  0  0  0  0  0  0  0  0
  142.5038  136.4310  151.2202 H   0  0  0  0  0  0  0  0  0  0  0  0
  142.1541  135.2634  153.3697 H   0  0  0  0  0  0  0  0  0  0  0  0
  143.9300  137.0743  154.2666 H   0  0  0  0  0  0  0  0  0  0  0  0
  141.8009  139.0478  153.1675 H   0  0  0  0  0  0  0  0  0  0  0  0
  139.6024  140.1526  153.4026 H   0  0  0  0  0  0  0  0  0  0  0  0
  137.5624  138.8040  153.8538 H   0  0  0  0  0  0  0  0  0  0  0  0
  137.7335  136.3321  154.0844 H   0  0  0  0  0  0  0  0  0  0  0  0
  139.9360  135.2127  153.8724 H   0  0  0  0  0  0  0  0  0  0  0  0
  147.5510  135.5222  151.6768 H   0  0  0  0  0  0  0  0  0  0  0  0
  1  2  1  0  0  0  0
  1 25  1  0  0  0  0
  1 26  1  0  0  0  0
  1 27  1  0  0  0  0
  2  3  2  0  0  0  0
  2  4  1  0  0  0  0
  4  5  1  0  0  0  0
  4 28  1  0  0  0  0
  5  6  1  0  0  0  0
  5  7  1  0  0  0  0
  5 29  1  0  0  0  0
  6 30  1  0  0  0  0
  6 31  1  0  0  0  0
  6 32  1  0  0  0  0
  7 15  1  0  0  0  0
  7  8  2  0  0  0  0
  8  9  1  0  0  0  0
  8 46  1  0  0  0  0
  9 14  2  0  0  0  0
  9 10  1  0  0  0  0
 10 11  2  0  0  0  0
 10 33  1  0  0  0  0
 11 12  1  0  0  0  0
 11 34  1  0  0  0  0
 12 13  2  0  0  0  0
 12 35  1  0  0  0  0
 13 14  1  0  0  0  0
 13 36  1  0  0  0  0
 14 15  1  0  0  0  0
 15 16  1  0  0  0  0
 16 17  1  0  0  0  0
 16 37  1  0  0  0  0
 16 38  1  0  0  0  0
 17 18  1  0  0  0  0
 17 19  1  0  0  0  0
 17 39  1  0  0  0  0
 18 40  1  0  0  0  0
 19 24  1  0  0  0  0
 19 20  2  0  0  0  0
 20 21  1  0  0  0  0
 20 41  1  0  0  0  0
 21 22  2  0  0  0  0
 21 42  1  0  0  0  0
 22 23  1  0  0  0  0
 22 43  1  0  0  0  0
 23 24  2  0  0  0  0
 23 44  1  0  0  0  0
 24 45  1  0  0  0  0
M  CHG  1   8   1
M  END
> <s_m_source_file>
AV-unprocessed.smi

> <i_m_source_file_index>
447

> <i_lp_mmshare_version>
43012

> <i_f3d_flags>
0

> <s_epik_input>
W0NIM11DKD1PKVtOSF1bQ0BIXShbQ0gzXSljKG4xKW4oYyhjMTIpW2NIXVtjSF1bY0hdW2NIXTIpW0NIMl1bQ0BIXShbT0hdKWMzW2NIXVtjSF1bY0hdW2NIXVtjSF0z

> <s_epik_cmdline>
J2VwaWtfcHl0aG9uJywgJy1waCcsICc3LjAnLCAnLXRuJywgJzgnLCAnLW1hJywgJzIwMCcsICctbWV0YWxfYmluZGluZycsICctaW1hZScsICc8aW5maWxlLm1hZT4nLCAnLW9tYWUnLCAnPG91dGZpbGUubWFlPic=

> <r_epik_Ionization_Penalty>
0.950381

> <r_epik_Ionization_Penalty_Charging>
0.950379

> <r_epik_Ionization_Penalty_Neutral>
1.42115e-06

> <r_epik_State_Penalty>
0.994584

> <r_epik_Charging_Adjusted_Penalty>
1.94496

> <i_epik_Tot_Q>
1

> <i_epik_Tot_abs_Q>
1

> <r_epik_Metal_State_Penalty>
1.10485

> <b_epik_Metal_Only>
0

> <s_lp_Force_Field>
OPLS_2005

> <r_lp_Energy>
11.8

> <b_lp_Chiralities_Consistent>
1

> <s_lp_Variant>
AV-unprocessed.smi:447-8

> <Gold.Version>
5.8.1

> <Gold.Id.Protein>
6NUR|6NUR_protein|mol2

> <Gold.PLP.Fitness>
49.7870

> <Gold.PLP.PLP>
-43.5004

> <Gold.PLP.part.hbond>
-1.9155

> <Gold.PLP.part.metal>
0.0000

> <Gold.PLP.part.buried>
0.8396

> <Gold.PLP.part.nonpolar>
-42.6354

> <Gold.PLP.part.repulsive>
0.2731

> <Gold.PLP.ligand.clash>
0.0000

> <Gold.PLP.ligand.torsion>
1.3922

> <Gold.PLP.Chemscore.Hbond>
2.9760

> <Gold.PLP.Chemscore.CHOScore>
0.0000

> <Gold.PLP.Chemscore.Metal>
0.0000

> <Gold.Chemscore.Hbonds>
donor molecule, donor type, donor heavy atom, donor atom, acceptor molecule, acceptor atom, score
      L1  H     4    28       P1  7948  0.94
      L1  H     8    46       P1  7948  2.00

> <Gold.PLP.Chemscore.Internal.Correction>
0.1431

> <Gold.Rescore>
     Score         DG    S(hbond)    S(metal)    S(lipo)     H(rot)  DE(clash)    DE(int)     intcor
     14.96     -20.00       1.86        0.00     123.78       2.41       3.58       1.46       ----

> <Gold.Chemscore.Fitness>
14.9561

> <Gold.Chemscore.DG>
-20.0042

> <Gold.Chemscore.ZeroCoef>
-5.4800

> <Gold.Chemscore.Hbond>
1.8605

> <Gold.Chemscore.Metal>
0.0000

> <Gold.Chemscore.Lipo>
123.7835

> <Gold.Chemscore.Internal_Hbond>
0.0000

> <Gold.Chemscore.DEClash>
3.5848

> <Gold.Chemscore.DEInternal>
1.4633

> <Gold.Chemscore.Rot>
2.4112

> <Gold.Chemscore.Internal.Correction>
   9.000000E+99

> <Gold.Chemscore.Hbonds>
donor molecule, donor type, donor heavy atom, donor atom, acceptor molecule, acceptor atom, score
      L1  H     4    28       P1  7948  0.91
      L1  H     8    46       P1  7948  0.92

> <Gold.Chemscore.Hbond.Weighted>
-6.2142

> <Gold.Chemscore.Metal.Weighted>
-0.0000

> <Gold.Chemscore.Lipo.Weighted>
-14.4827

> <Gold.Chemscore.Internal_Hbond.Weighted>
0.0000

> <Gold.Chemscore.DEClash.Weighted>
3.5848

> <Gold.Chemscore.DEInternal.Weighted>
1.4633

> <Gold.Chemscore.Rot.Weighted>
6.1727

> <Gold.Chemscore.Internal.Correction.Weighted>
   9.000000E+99

> <Gold.Protein.RotatedTorsions>
[ 6907 6896 6895 6894 ] final  -70.74 input  -60.11 | X-H torsion
[ 7974 7965 7964 7962 ] final  -20.34 input  175.53 | X-H torsion
[ 8008 7997 7996 7995 ] final   90.97 input   59.86 | X-H torsion
[ 10167 10162 10161 10158 ] final   51.86 input  -65.29 | X-H torsion
[ 10718 10713 10712 10709 ] final -133.84 input   66.30 | X-H torsion
[ 10763 10752 10751 10750 ] final  131.64 input  -60.55 | X-H torsion
[ 11005 11000 10999 10996 ] final -167.94 input  -57.11 | X-H torsion

> <Gold.Protein.ActiveResidues>
 VAL166  LYS551  ARG553  GLY616  TRP617  ASP618  TYR619  PRO620  LYS621  CYS622 
 ASP623  PHE694  ASN695  SER759  ASP760  ASP761  ALA762  ILE779  LEU786  VAL792 
 PHE793  MET794  SER795  GLU796  ALA797  LYS798  CYS799  TRP800  GLU811  SER814 

> <Gold.Protein.RotatedAtoms>
  150.7244  134.5409  159.5746 H   0  0  0  0  0  0  0  0  0  0  0  0  # atno 6907 bound_to 6896
  152.2920  134.7708  160.0385 H   0  0  0  0  0  0  0  0  0  0  0  0  # atno 6908 bound_to 6896
  151.8318  133.3374  159.3652 H   0  0  0  0  0  0  0  0  0  0  0  0  # atno 6909 bound_to 6896
  146.1793  140.4188  142.8501 H   0  0  0  0  0  0  0  0  0  0  0  0  # atno 7974 bound_to 7965
  156.0182  140.3343  155.7011 H   0  0  0  0  0  0  0  0  0  0  0  0  # atno 8008 bound_to 7997
  155.6060  140.0660  157.2737 H   0  0  0  0  0  0  0  0  0  0  0  0  # atno 8009 bound_to 7997
  154.4306  140.1802  156.1210 H   0  0  0  0  0  0  0  0  0  0  0  0  # atno 8010 bound_to 7997
  140.2574  144.3411  150.6328 H   0  0  0  0  0  0  0  0  0  0  0  0  # atno 10167 bound_to 10162
  156.2491  130.7142  151.1034 H   0  0  0  0  0  0  0  0  0  0  0  0  # atno 10718 bound_to 10713
  153.7777  135.3173  155.3361 H   0  0  0  0  0  0  0  0  0  0  0  0  # atno 10763 bound_to 10752
  154.8173  135.4627  154.0682 H   0  0  0  0  0  0  0  0  0  0  0  0  # atno 10764 bound_to 10752
  153.1961  135.6915  153.8375 H   0  0  0  0  0  0  0  0  0  0  0  0  # atno 10765 bound_to 10752
  140.5476  134.5460  157.5115 H   0  0  0  0  0  0  0  0  0  0  0  0  # atno 11005 bound_to 11000
  144.8289  140.6674  143.6304 LP  0  0  0  0  0  0  0  0  0  0  0  0  # atno 17320 bound_to 7965
  145.4121  139.1578  143.4120 LP  0  0  0  0  0  0  0  0  0  0  0  0  # atno 17321 bound_to 7965
  140.5993  143.2167  151.7104 LP  0  0  0  0  0  0  0  0  0  0  0  0  # atno 17342 bound_to 10162
  139.5027  144.3819  152.0368 LP  0  0  0  0  0  0  0  0  0  0  0  0  # atno 17343 bound_to 10162
  157.7207  131.0683  150.6147 LP  0  0  0  0  0  0  0  0  0  0  0  0  # atno 17370 bound_to 10713
  156.6225  130.4410  149.5816 LP  0  0  0  0  0  0  0  0  0  0  0  0  # atno 17371 bound_to 10713
  139.9471  134.7682  156.0535 LP  0  0  0  0  0  0  0  0  0  0  0  0  # atno 17394 bound_to 11000
  141.1190  133.6618  156.3168 LP  0  0  0  0  0  0  0  0  0  0  0  0  # atno 17395 bound_to 11000

$$$$
