AV-unprocessed.smi:1531|AV-procd|sdf|6158|dock5
  -GOLD-   22720 6303D 1   1.00000     0.00000
 Structure written by MMmdl.
 44 45  0  0  0  0  0  0  0  0  1 V2000
  143.4510  141.3348  156.4113 C   0  0  0  0  0  0  0  0  0  0  0  0
  144.2281  142.1197  155.3457 C   0  0  0  0  0  0  0  0  0  0  0  0
  145.7293  141.7595  155.2639 C   0  0  2  0  0  0  0  0  0  0  0  0
  146.3881  142.4282  154.0376 C   0  0  0  0  0  0  0  0  0  0  0  0
  147.8938  142.1304  153.9618 C   0  0  0  0  0  0  0  0  0  0  0  0
  148.1612  140.6191  153.9492 C   0  0  0  0  0  0  0  0  0  0  0  0
  147.5227  139.9355  155.1693 C   0  0  0  0  0  0  0  0  0  0  0  0
  146.0134  140.2333  155.2840 C   0  0  2  0  0  0  0  0  0  0  0  0
  145.2772  139.5402  154.2252 N   0  0  0  0  0  0  0  0  0  0  0  0
  145.3698  138.2367  153.9268 C   0  0  0  0  0  0  0  0  0  0  0  0
  146.1071  137.4486  154.5194 O   0  0  0  0  0  0  0  0  0  0  0  0
  144.5612  137.9147  152.9040 N   0  0  0  0  0  0  0  0  0  0  0  0
  144.3594  136.6300  152.3397 C   0  0  0  0  0  0  0  0  0  0  0  0
  143.3534  135.7152  152.7453 C   0  0  0  0  0  0  0  0  0  0  0  0
  143.4139  134.5941  152.0429 N   0  0  0  0  0  0  0  0  0  0  0  0
  144.4512  134.7701  151.1862 N   0  0  0  0  0  0  0  0  0  0  0  0
  144.8026  133.7133  150.2542 C   0  0  0  0  0  0  0  0  0  0  0  0
  143.9477  132.4651  150.4804 C   0  0  0  0  0  0  0  0  0  0  0  0
  142.6276  132.5914  150.3178 N   0  0  0  0  0  0  0  0  0  0  0  0
  144.4722  131.3985  150.7934 O   0  0  0  0  0  0  0  0  0  0  0  0
  145.0521  136.0040  151.3423 C   0  0  0  0  0  0  0  0  0  0  0  0
  142.4249  141.6958  156.4834 H   0  0  0  0  0  0  0  0  0  0  0  0
  143.9097  141.4425  157.3946 H   0  0  0  0  0  0  0  0  0  0  0  0
  143.4053  140.2721  156.1739 H   0  0  0  0  0  0  0  0  0  0  0  0
  143.7505  141.9843  154.3747 H   0  0  0  0  0  0  0  0  0  0  0  0
  144.1344  143.1819  155.5746 H   0  0  0  0  0  0  0  0  0  0  0  0
  146.2062  142.1853  156.1481 H   0  0  0  0  0  0  0  0  0  0  0  0
  145.9032  142.0872  153.1222 H   0  0  0  0  0  0  0  0  0  0  0  0
  146.2377  143.5078  154.0773 H   0  0  0  0  0  0  0  0  0  0  0  0
  148.3193  142.5900  153.0693 H   0  0  0  0  0  0  0  0  0  0  0  0
  148.4000  142.5846  154.8144 H   0  0  0  0  0  0  0  0  0  0  0  0
  147.7658  140.1836  153.0307 H   0  0  0  0  0  0  0  0  0  0  0  0
  149.2353  140.4327  153.9398 H   0  0  0  0  0  0  0  0  0  0  0  0
  147.6937  138.8591  155.1265 H   0  0  0  0  0  0  0  0  0  0  0  0
  148.0242  140.2842  156.0730 H   0  0  0  0  0  0  0  0  0  0  0  0
  145.6895  139.8503  156.2528 H   0  0  0  0  0  0  0  0  0  0  0  0
  144.6440  140.1046  153.6780 H   0  0  0  0  0  0  0  0  0  0  0  0
  144.0280  138.6656  152.4903 H   0  0  0  0  0  0  0  0  0  0  0  0
  142.5969  135.8240  153.5087 H   0  0  0  0  0  0  0  0  0  0  0  0
  144.6672  134.0817  149.2363 H   0  0  0  0  0  0  0  0  0  0  0  0
  145.8597  133.4668  150.3665 H   0  0  0  0  0  0  0  0  0  0  0  0
  142.0224  131.7942  150.4526 H   0  0  0  0  0  0  0  0  0  0  0  0
  142.2398  133.4862  150.0562 H   0  0  0  0  0  0  0  0  0  0  0  0
  145.8967  136.3100  150.7427 H   0  0  0  0  0  0  0  0  0  0  0  0
  1  2  1  0  0  0  0
  1 22  1  0  0  0  0
  1 23  1  0  0  0  0
  1 24  1  0  0  0  0
  2  3  1  0  0  0  0
  2 25  1  0  0  0  0
  2 26  1  0  0  0  0
  3  8  1  0  0  0  0
  3  4  1  0  0  0  0
  3 27  1  0  0  0  0
  4  5  1  0  0  0  0
  4 28  1  0  0  0  0
  4 29  1  0  0  0  0
  5  6  1  0  0  0  0
  5 30  1  0  0  0  0
  5 31  1  0  0  0  0
  6  7  1  0  0  0  0
  6 32  1  0  0  0  0
  6 33  1  0  0  0  0
  7  8  1  0  0  0  0
  7 34  1  0  0  0  0
  7 35  1  0  0  0  0
  8  9  1  0  0  0  0
  8 36  1  0  0  0  0
  9 10  1  0  0  0  0
  9 37  1  0  0  0  0
 10 11  2  0  0  0  0
 10 12  1  0  0  0  0
 12 13  1  0  0  0  0
 12 38  1  0  0  0  0
 13 21  2  0  0  0  0
 13 14  1  0  0  0  0
 14 15  2  0  0  0  0
 14 39  1  0  0  0  0
 15 16  1  0  0  0  0
 16 17  1  0  0  0  0
 16 21  1  0  0  0  0
 17 18  1  0  0  0  0
 17 40  1  0  0  0  0
 17 41  1  0  0  0  0
 18 19  1  0  0  0  0
 18 20  2  0  0  0  0
 19 42  1  0  0  0  0
 19 43  1  0  0  0  0
 21 44  1  0  0  0  0
M  END
> <s_m_source_file>
AV-unprocessed.smi

> <i_m_source_file_index>
1531

> <i_lp_mmshare_version>
43012

> <i_f3d_flags>
0

> <s_epik_input>
W0NIM11bQ0gyXVtDQEBIXTFbQ0gyXVtDSDJdW0NIMl1bQ0gyXVtDQEhdMVtOSF1DKD1PKVtOSF1jMltjSF1ubihbY0hdMilbQ0gyXUMoPU8pW05IMl0=

> <s_epik_cmdline>
J2VwaWtfcHl0aG9uJywgJy1waCcsICc3LjAnLCAnLXRuJywgJzgnLCAnLW1hJywgJzIwMCcsICctbWV0YWxfYmluZGluZycsICctaW1hZScsICc8aW5maWxlLm1hZT4nLCAnLW9tYWUnLCAnPG91dGZpbGUubWFlPic=

> <r_lp_tautomer_probability>
1

> <r_epik_Ionization_Penalty>
4.83437e-05

> <r_epik_Ionization_Penalty_Charging>
0

> <r_epik_Ionization_Penalty_Neutral>
4.83437e-05

> <r_epik_State_Penalty>
-0

> <r_epik_Charging_Adjusted_Penalty>
0

> <i_epik_Tot_Q>
0

> <i_epik_Tot_abs_Q>
0

> <r_epik_Metal_State_Penalty>
-0

> <b_epik_Metal_Only>
0

> <s_lp_Force_Field>
OPLS_2005

> <r_lp_Energy>
15.1652

> <b_lp_Chiralities_Consistent>
1

> <s_lp_Variant>
AV-unprocessed.smi:1531-3

> <Gold.Version>
5.8.1

> <Gold.Id.Protein>
6NUR|6NUR_protein|mol2

> <Gold.PLP.Fitness>
43.0167

> <Gold.PLP.PLP>
-32.7477

> <Gold.PLP.part.hbond>
-4.2891

> <Gold.PLP.part.metal>
0.0000

> <Gold.PLP.part.buried>
-4.8237

> <Gold.PLP.part.nonpolar>
-23.9266

> <Gold.PLP.part.repulsive>
0.4928

> <Gold.PLP.ligand.clash>
0.0000

> <Gold.PLP.ligand.torsion>
0.8843

> <Gold.PLP.Chemscore.Hbond>
4.0000

> <Gold.PLP.Chemscore.CHOScore>
0.0000

> <Gold.PLP.Chemscore.Metal>
0.0000

> <Gold.Chemscore.Hbonds>
donor molecule, donor type, donor heavy atom, donor atom, acceptor molecule, acceptor atom, score
      L1  H     9    37       P1 10175  1.00
      L1  H    12    38       P1 10175  0.96
      L1  H    19    42       P1 10952  0.86
      L1  H    19    43       P1 10186  1.00

> <Gold.PLP.Chemscore.Internal.Correction>
0.0376

> <Gold.Rescore>
     Score         DG    S(hbond)    S(metal)    S(lipo)     H(rot)  DE(clash)    DE(int)     intcor
     16.65     -18.34       3.67        0.00      51.77       2.13       0.15       1.53       ----

> <Gold.Chemscore.Fitness>
16.6507

> <Gold.Chemscore.DG>
-18.3368

> <Gold.Chemscore.ZeroCoef>
-5.4800

> <Gold.Chemscore.Hbond>
3.6713

> <Gold.Chemscore.Metal>
0.0000

> <Gold.Chemscore.Lipo>
51.7659

> <Gold.Chemscore.Internal_Hbond>
0.0000

> <Gold.Chemscore.DEClash>
0.1524

> <Gold.Chemscore.DEInternal>
1.5338

> <Gold.Chemscore.Rot>
2.1335

> <Gold.Chemscore.Internal.Correction>
   9.000000E+99

> <Gold.Chemscore.Hbonds>
donor molecule, donor type, donor heavy atom, donor atom, acceptor molecule, acceptor atom, score
      L1  H     9    37       P1 10175  0.97
      L1  H    12    38       P1 10175  0.92
      L1  H    19    42       P1 10952  0.32
      L1  H    19    43       P1 10186  0.95

> <Gold.Chemscore.Hbond.Weighted>
-12.2620

> <Gold.Chemscore.Metal.Weighted>
-0.0000

> <Gold.Chemscore.Lipo.Weighted>
-6.0566

> <Gold.Chemscore.Internal_Hbond.Weighted>
0.0000

> <Gold.Chemscore.DEClash.Weighted>
0.1524

> <Gold.Chemscore.DEInternal.Weighted>
1.5338

> <Gold.Chemscore.Rot.Weighted>
5.4618

> <Gold.Chemscore.Internal.Correction.Weighted>
   9.000000E+99

> <Gold.Protein.RotatedTorsions>
[ 6907 6896 6895 6894 ] final  156.61 input  -60.11 | X-H torsion
[ 7974 7965 7964 7962 ] final   37.16 input  175.53 | X-H torsion
[ 8008 7997 7996 7995 ] final  -46.91 input   59.86 | X-H torsion
[ 10167 10162 10161 10158 ] final -131.24 input  -65.29 | X-H torsion
[ 10718 10713 10712 10709 ] final   -4.92 input   66.30 | X-H torsion
[ 10763 10752 10751 10750 ] final  -70.36 input  -60.55 | X-H torsion
[ 11005 11000 10999 10996 ] final  -27.00 input  -57.11 | X-H torsion

> <Gold.Protein.ActiveResidues>
 VAL166  LYS551  ARG553  GLY616  TRP617  ASP618  TYR619  PRO620  LYS621  CYS622 
 ASP623  PHE694  ASN695  SER759  ASP760  ASP761  ALA762  ILE779  LEU786  VAL792 
 PHE793  MET794  SER795  GLU796  ALA797  LYS798  CYS799  TRP800  GLU811  SER814 

> <Gold.Protein.RotatedAtoms>
  152.0272  133.3922  159.4282 H   0  0  0  0  0  0  0  0  0  0  0  0  # atno 6907 bound_to 6896
  150.6885  134.3560  159.4939 H   0  0  0  0  0  0  0  0  0  0  0  0  # atno 6908 bound_to 6896
  152.1342  134.9111  160.0608 H   0  0  0  0  0  0  0  0  0  0  0  0  # atno 6909 bound_to 6896
  146.1158  139.5929  142.9322 H   0  0  0  0  0  0  0  0  0  0  0  0  # atno 7974 bound_to 7965
  154.4011  140.1359  156.4089 H   0  0  0  0  0  0  0  0  0  0  0  0  # atno 8008 bound_to 7997
  155.7753  140.3483  155.5248 H   0  0  0  0  0  0  0  0  0  0  0  0  # atno 8009 bound_to 7997
  155.8727  140.0974  157.1529 H   0  0  0  0  0  0  0  0  0  0  0  0  # atno 8010 bound_to 7997
  139.9210  143.6382  152.2553 H   0  0  0  0  0  0  0  0  0  0  0  0  # atno 10167 bound_to 10162
  156.7542  130.5249  149.5798 H   0  0  0  0  0  0  0  0  0  0  0  0  # atno 10718 bound_to 10713
  154.4166  135.5996  153.5984 H   0  0  0  0  0  0  0  0  0  0  0  0  # atno 10763 bound_to 10752
  152.9792  135.5942  154.4006 H   0  0  0  0  0  0  0  0  0  0  0  0  # atno 10764 bound_to 10752
  154.3825  135.2841  155.2181 H   0  0  0  0  0  0  0  0  0  0  0  0  # atno 10765 bound_to 10752
  140.9080  133.7479  156.0632 H   0  0  0  0  0  0  0  0  0  0  0  0  # atno 11005 bound_to 11000
  145.5569  141.0408  143.2248 LP  0  0  0  0  0  0  0  0  0  0  0  0  # atno 17320 bound_to 7965
  144.7552  139.7093  143.7257 LP  0  0  0  0  0  0  0  0  0  0  0  0  # atno 17321 bound_to 7965
  139.6861  144.7651  151.1520 LP  0  0  0  0  0  0  0  0  0  0  0  0  # atno 17342 bound_to 10162
  140.7662  143.5654  150.9053 LP  0  0  0  0  0  0  0  0  0  0  0  0  # atno 17343 bound_to 10162
  156.1381  130.6225  151.0429 LP  0  0  0  0  0  0  0  0  0  0  0  0  # atno 17370 bound_to 10713
  157.6763  131.0849  150.7485 LP  0  0  0  0  0  0  0  0  0  0  0  0  # atno 17371 bound_to 10713
  140.8146  134.3360  157.5401 LP  0  0  0  0  0  0  0  0  0  0  0  0  # atno 17394 bound_to 11000
  139.8752  134.9274  156.3424 LP  0  0  0  0  0  0  0  0  0  0  0  0  # atno 17395 bound_to 11000

$$$$
