AV-unprocessed.smi:1964|AV-procd|sdf|7930|dock7
  -GOLD-   2272010103D 1   1.00000     0.00000
 Structure written by MMmdl.
 46 48  0  0  0  0  0  0  0  0  1 V2000
  147.7581  139.1775  153.4927 C   0  0  0  0  0  0  0  0  0  0  0  0
  147.0803  140.0894  154.5303 C   0  0  2  0  0  0  0  0  0  0  0  0
  147.1691  141.5741  154.1203 C   0  0  0  0  0  0  0  0  0  0  0  0
  146.4365  142.4822  155.1210 C   0  0  0  0  0  0  0  0  0  0  0  0
  146.9641  142.2800  156.5492 C   0  0  0  0  0  0  0  0  0  0  0  0
  146.8831  140.8022  156.9698 C   0  0  0  0  0  0  0  0  0  0  0  0
  147.6027  139.8701  155.9743 C   0  0  2  0  0  0  0  0  0  0  0  0
  149.0503  140.0699  156.0654 N   0  0  0  0  0  0  0  0  0  0  0  0
  149.8066  139.9000  157.1607 C   0  0  0  0  0  0  0  0  0  0  0  0
  149.3500  139.5723  158.2568 O   0  0  0  0  0  0  0  0  0  0  0  0
  151.3119  140.1406  156.9761 C   0  0  0  0  0  0  0  0  0  0  0  0
  151.8858  141.0359  158.0040 N   0  0  0  0  0  0  0  0  0  0  0  0
  152.9943  140.5715  158.7576 C   0  0  0  0  0  0  0  0  0  0  0  0
  153.4863  139.4618  158.5443 O   0  0  0  0  0  0  0  0  0  0  0  0
  153.4805  141.4844  159.7892 C   0  0  0  0  0  0  0  0  0  0  0  0
  154.5716  141.0387  160.5908 C   0  0  0  0  0  0  0  0  0  0  0  0
  155.4559  140.6971  161.2550 N   0  0  0  0  0  0  0  0  0  0  0  0
  152.9099  142.6928  159.9726 C   0  0  0  0  0  0  0  0  0  0  0  0
  151.8592  143.1413  159.2024 N   0  0  0  0  0  0  0  0  0  0  0  0
  151.1694  144.3610  159.5152 C   0  0  0  0  0  0  0  0  0  0  0  0
  151.8667  145.6980  159.3560 C   0  0  0  0  0  0  0  0  0  0  0  0
  151.5920  145.1501  160.7351 C   0  0  0  0  0  0  0  0  0  0  0  0
  151.2823  142.2970  158.2282 C   0  0  0  0  0  0  0  0  0  0  0  0
  150.2783  142.6412  157.5999 O   0  0  0  0  0  0  0  0  0  0  0  0
  148.8132  139.4215  153.3659 H   0  0  0  0  0  0  0  0  0  0  0  0
  147.2811  139.2749  152.5175 H   0  0  0  0  0  0  0  0  0  0  0  0
  147.6912  138.1300  153.7878 H   0  0  0  0  0  0  0  0  0  0  0  0
  146.0227  139.8210  154.5332 H   0  0  0  0  0  0  0  0  0  0  0  0
  148.2138  141.8790  154.0470 H   0  0  0  0  0  0  0  0  0  0  0  0
  146.7405  141.7115  153.1271 H   0  0  0  0  0  0  0  0  0  0  0  0
  146.5498  143.5261  154.8272 H   0  0  0  0  0  0  0  0  0  0  0  0
  145.3674  142.2680  155.0935 H   0  0  0  0  0  0  0  0  0  0  0  0
  147.9963  142.6267  156.6107 H   0  0  0  0  0  0  0  0  0  0  0  0
  146.3927  142.8948  157.2452 H   0  0  0  0  0  0  0  0  0  0  0  0
  147.2963  140.6759  157.9714 H   0  0  0  0  0  0  0  0  0  0  0  0
  145.8344  140.5097  157.0378 H   0  0  0  0  0  0  0  0  0  0  0  0
  147.3649  138.8459  156.2674 H   0  0  0  0  0  0  0  0  0  0  0  0
  149.5180  140.3432  155.2131 H   0  0  0  0  0  0  0  0  0  0  0  0
  151.8326  139.1812  156.9790 H   0  0  0  0  0  0  0  0  0  0  0  0
  151.4734  140.5259  155.9685 H   0  0  0  0  0  0  0  0  0  0  0  0
  153.2929  143.3386  160.7498 H   0  0  0  0  0  0  0  0  0  0  0  0
  150.1019  144.3565  159.3012 H   0  0  0  0  0  0  0  0  0  0  0  0
  152.9026  145.7034  159.0220 H   0  0  0  0  0  0  0  0  0  0  0  0
  151.2647  146.5390  159.0182 H   0  0  0  0  0  0  0  0  0  0  0  0
  150.8075  145.6267  161.3193 H   0  0  0  0  0  0  0  0  0  0  0  0
  152.4462  144.7930  161.3072 H   0  0  0  0  0  0  0  0  0  0  0  0
  1  2  1  0  0  0  0
  1 25  1  0  0  0  0
  1 26  1  0  0  0  0
  1 27  1  0  0  0  0
  2  7  1  0  0  0  0
  2  3  1  0  0  0  0
  2 28  1  0  0  0  0
  3  4  1  0  0  0  0
  3 29  1  0  0  0  0
  3 30  1  0  0  0  0
  4  5  1  0  0  0  0
  4 31  1  0  0  0  0
  4 32  1  0  0  0  0
  5  6  1  0  0  0  0
  5 33  1  0  0  0  0
  5 34  1  0  0  0  0
  6  7  1  0  0  0  0
  6 35  1  0  0  0  0
  6 36  1  0  0  0  0
  7  8  1  0  0  0  0
  7 37  1  0  0  0  0
  8  9  1  0  0  0  0
  8 38  1  0  0  0  0
  9 10  2  0  0  0  0
  9 11  1  0  0  0  0
 11 12  1  0  0  0  0
 11 39  1  0  0  0  0
 11 40  1  0  0  0  0
 12 23  1  0  0  0  0
 12 13  1  0  0  0  0
 13 14  2  0  0  0  0
 13 15  1  0  0  0  0
 15 16  1  0  0  0  0
 15 18  2  0  0  0  0
 16 17  3  0  0  0  0
 18 19  1  0  0  0  0
 18 41  1  0  0  0  0
 19 20  1  0  0  0  0
 19 23  1  0  0  0  0
 20 22  1  0  0  0  0
 20 21  1  0  0  0  0
 20 42  1  0  0  0  0
 21 22  1  0  0  0  0
 21 43  1  0  0  0  0
 21 44  1  0  0  0  0
 22 45  1  0  0  0  0
 22 46  1  0  0  0  0
 23 24  2  0  0  0  0
M  END
> <s_m_source_file>
AV-unprocessed.smi

> <i_m_source_file_index>
1964

> <i_lp_mmshare_version>
43012

> <i_f3d_flags>
0

> <s_epik_input>
W0NIM11bQ0BASF0xW0NIMl1bQ0gyXVtDSDJdW0NIMl1bQ0BIXTFbTkhdQyg9TylbQ0gyXW4yYyg9TyljKEMjTilbY0hdbihjMj1PKVtDSF0zW0NIMl1bQ0gyXTM=

> <s_epik_cmdline>
J2VwaWtfcHl0aG9uJywgJy1waCcsICc3LjAnLCAnLXRuJywgJzgnLCAnLW1hJywgJzIwMCcsICctbWV0YWxfYmluZGluZycsICctaW1hZScsICc8aW5maWxlLm1hZT4nLCAnLW9tYWUnLCAnPG91dGZpbGUubWFlPic=

> <r_lp_tautomer_probability>
1

> <r_epik_Ionization_Penalty>
1.91372e-08

> <r_epik_Ionization_Penalty_Charging>
9.0283e-11

> <r_epik_Ionization_Penalty_Neutral>
1.90469e-08

> <r_epik_State_Penalty>
-0

> <r_epik_Charging_Adjusted_Penalty>
9.0283e-11

> <i_epik_Tot_Q>
0

> <i_epik_Tot_abs_Q>
0

> <r_epik_Metal_State_Penalty>
-0

> <b_epik_Metal_Only>
0

> <s_lp_Force_Field>
OPLS_2005

> <r_lp_Energy>
35.1398

> <b_lp_Chiralities_Consistent>
1

> <s_lp_Variant>
AV-unprocessed.smi:1964-3

> <Gold.Version>
5.8.1

> <Gold.Id.Protein>
6NUR|6NUR_protein|mol2

> <Gold.PLP.Fitness>
44.7936

> <Gold.PLP.PLP>
-42.5340

> <Gold.PLP.part.hbond>
-2.0905

> <Gold.PLP.part.metal>
0.0000

> <Gold.PLP.part.buried>
-1.6386

> <Gold.PLP.part.nonpolar>
-38.6882

> <Gold.PLP.part.repulsive>
0.1635

> <Gold.PLP.ligand.clash>
0.0000

> <Gold.PLP.ligand.torsion>
0.2543

> <Gold.PLP.Chemscore.Hbond>
0.8500

> <Gold.PLP.Chemscore.CHOScore>
0.0000

> <Gold.PLP.Chemscore.Metal>
0.0000

> <Gold.Chemscore.Hbonds>
donor molecule, donor type, donor heavy atom, donor atom, acceptor molecule, acceptor atom, score
      P1  H  7997  8009       L1    14  0.85

> <Gold.PLP.Chemscore.Internal.Correction>
0.2182

> <Gold.Rescore>
     Score         DG    S(hbond)    S(metal)    S(lipo)     H(rot)  DE(clash)    DE(int)     intcor
      9.67     -11.58       0.06        0.00      87.83       1.70       0.24       1.67       ----

> <Gold.Chemscore.Fitness>
9.6714

> <Gold.Chemscore.DG>
-11.5826

> <Gold.Chemscore.ZeroCoef>
-5.4800

> <Gold.Chemscore.Hbond>
0.0563

> <Gold.Chemscore.Metal>
0.0000

> <Gold.Chemscore.Lipo>
87.8330

> <Gold.Chemscore.Internal_Hbond>
0.0000

> <Gold.Chemscore.DEClash>
0.2408

> <Gold.Chemscore.DEInternal>
1.6704

> <Gold.Chemscore.Rot>
1.7038

> <Gold.Chemscore.Internal.Correction>
   9.000000E+99

> <Gold.Chemscore.Hbonds>
donor molecule, donor type, donor heavy atom, donor atom, acceptor molecule, acceptor atom, score
      P1  H  7997  8009       L1    14  0.14

> <Gold.Chemscore.Hbond.Weighted>
-0.1879

> <Gold.Chemscore.Metal.Weighted>
-0.0000

> <Gold.Chemscore.Lipo.Weighted>
-10.2765

> <Gold.Chemscore.Internal_Hbond.Weighted>
0.0000

> <Gold.Chemscore.DEClash.Weighted>
0.2408

> <Gold.Chemscore.DEInternal.Weighted>
1.6704

> <Gold.Chemscore.Rot.Weighted>
4.3618

> <Gold.Chemscore.Internal.Correction.Weighted>
   9.000000E+99

> <Gold.Protein.RotatedTorsions>
[ 6907 6896 6895 6894 ] final   95.10 input  -60.11 | X-H torsion
[ 7974 7965 7964 7962 ] final  167.33 input  175.53 | X-H torsion
[ 8008 7997 7996 7995 ] final  140.34 input   59.86 | X-H torsion
[ 10167 10162 10161 10158 ] final -117.54 input  -65.29 | X-H torsion
[ 10718 10713 10712 10709 ] final  164.60 input   66.30 | X-H torsion
[ 10763 10752 10751 10750 ] final   82.62 input  -60.55 | X-H torsion
[ 11005 11000 10999 10996 ] final   97.12 input  -57.11 | X-H torsion

> <Gold.Protein.ActiveResidues>
 VAL166  LYS551  ARG553  GLY616  TRP617  ASP618  TYR619  PRO620  LYS621  CYS622 
 ASP623  PHE694  ASN695  SER759  ASP760  ASP761  ALA762  ILE779  LEU786  VAL792 
 PHE793  MET794  SER795  GLU796  ALA797  LYS798  CYS799  TRP800  GLU811  SER814 

> <Gold.Protein.RotatedAtoms>
  152.5446  134.1092  159.8350 H   0  0  0  0  0  0  0  0  0  0  0  0  # atno 6907 bound_to 6896
  151.1160  133.5131  159.2611 H   0  0  0  0  0  0  0  0  0  0  0  0  # atno 6908 bound_to 6896
  151.1831  135.0379  159.8855 H   0  0  0  0  0  0  0  0  0  0  0  0  # atno 6909 bound_to 6896
  144.7428  139.8746  143.6391 H   0  0  0  0  0  0  0  0  0  0  0  0  # atno 7974 bound_to 7965
  156.2980  140.2344  156.4386 H   0  0  0  0  0  0  0  0  0  0  0  0  # atno 8008 bound_to 7997
  154.8206  140.0438  157.1428 H   0  0  0  0  0  0  0  0  0  0  0  0  # atno 8009 bound_to 7997
  154.9319  140.3018  155.5167 H   0  0  0  0  0  0  0  0  0  0  0  0  # atno 8010 bound_to 7997
  140.0672  143.4911  152.2000 H   0  0  0  0  0  0  0  0  0  0  0  0  # atno 10167 bound_to 10162
  157.0920  131.0420  151.2533 H   0  0  0  0  0  0  0  0  0  0  0  0  # atno 10718 bound_to 10713
  153.1219  135.4721  154.9209 H   0  0  0  0  0  0  0  0  0  0  0  0  # atno 10763 bound_to 10752
  154.7583  135.3124  154.8429 H   0  0  0  0  0  0  0  0  0  0  0  0  # atno 10764 bound_to 10752
  153.8992  135.6877  153.4810 H   0  0  0  0  0  0  0  0  0  0  0  0  # atno 10765 bound_to 10752
  139.8777  134.8985  156.4259 H   0  0  0  0  0  0  0  0  0  0  0  0  # atno 11005 bound_to 11000
  146.1255  139.4281  143.0201 LP  0  0  0  0  0  0  0  0  0  0  0  0  # atno 17320 bound_to 7965
  145.7240  141.0065  143.1387 LP  0  0  0  0  0  0  0  0  0  0  0  0  # atno 17321 bound_to 7965
  139.5858  144.7530  151.3525 LP  0  0  0  0  0  0  0  0  0  0  0  0  # atno 17342 bound_to 10162
  140.7143  143.7307  150.7626 LP  0  0  0  0  0  0  0  0  0  0  0  0  # atno 17343 bound_to 10162
  157.4713  130.7710  149.7326 LP  0  0  0  0  0  0  0  0  0  0  0  0  # atno 17370 bound_to 10713
  155.9895  130.3951  150.3068 LP  0  0  0  0  0  0  0  0  0  0  0  0  # atno 17371 bound_to 10713
  140.9101  133.7718  155.9781 LP  0  0  0  0  0  0  0  0  0  0  0  0  # atno 17394 bound_to 11000
  140.8556  134.2902  157.5257 LP  0  0  0  0  0  0  0  0  0  0  0  0  # atno 17395 bound_to 11000

$$$$
