AV-unprocessed.smi:3238|AV-procd|sdf|12376|dock6
  -GOLD-   2272018233D 1   1.00000     0.00000
 Structure written by MMmdl.
 37 39  0  0  0  0  0  0  0  0  1 V2000
  148.1644  136.3263  154.9619 C   0  0  0  0  0  0  0  0  0  0  0  0
  149.2740  137.2456  154.7609 N   0  0  0  0  0  0  0  0  0  0  0  0
  150.5658  136.8866  154.7816 C   0  0  0  0  0  0  0  0  0  0  0  0
  150.9348  135.7258  154.9691 O   0  0  0  0  0  0  0  0  0  0  0  0
  151.5773  138.0167  154.5469 C   0  0  0  0  0  0  0  0  0  0  0  0
  151.4400  139.1272  155.5426 C   0  0  0  0  0  0  0  0  0  0  0  0
  151.6386  138.9194  156.8394 N   0  0  0  0  0  0  0  0  0  0  0  0
  151.4253  140.1837  157.4068 O   0  0  0  0  0  0  0  0  0  0  0  0
  151.1192  141.0058  156.3744 C   0  0  0  0  0  0  0  0  0  0  0  0
  150.8697  142.4526  156.6491 C   0  0  0  0  0  0  0  0  0  0  0  0
  150.9306  142.8096  158.1482 C   0  0  1  0  0  0  0  0  0  0  0  0
  152.2724  142.4085  158.8029 C   0  0  0  0  0  0  0  0  0  0  0  0
  152.7616  143.7235  159.4368 C   0  0  2  0  0  0  0  0  0  0  0  0
  151.8620  144.0841  160.6332 C   0  0  0  0  0  0  0  0  0  0  0  0
  150.5521  144.5214  159.9508 C   0  0  0  0  0  0  0  0  0  0  0  0
  150.8658  144.3259  158.4550 C   0  0  1  0  0  0  0  0  0  0  0  0
  152.3307  144.7481  158.3957 C   0  0  0  0  0  0  0  0  0  0  0  0
  151.1316  140.4058  155.1868 N   0  0  0  0  0  0  0  0  0  0  0  0
  147.2204  136.8697  154.9258 H   0  0  0  0  0  0  0  0  0  0  0  0
  148.2373  135.8347  155.9329 H   0  0  0  0  0  0  0  0  0  0  0  0
  148.1483  135.5614  154.1845 H   0  0  0  0  0  0  0  0  0  0  0  0
  149.0463  138.2153  154.5951 H   0  0  0  0  0  0  0  0  0  0  0  0
  152.5868  137.6058  154.5922 H   0  0  0  0  0  0  0  0  0  0  0  0
  151.4451  138.4219  153.5427 H   0  0  0  0  0  0  0  0  0  0  0  0
  151.6185  143.0304  156.1059 H   0  0  0  0  0  0  0  0  0  0  0  0
  149.9043  142.7282  156.2237 H   0  0  0  0  0  0  0  0  0  0  0  0
  150.1114  142.2927  158.6508 H   0  0  0  0  0  0  0  0  0  0  0  0
  152.1527  141.6138  159.5402 H   0  0  0  0  0  0  0  0  0  0  0  0
  152.9897  142.0600  158.0583 H   0  0  0  0  0  0  0  0  0  0  0  0
  153.8261  143.7253  159.6726 H   0  0  0  0  0  0  0  0  0  0  0  0
  151.7189  143.2413  161.3106 H   0  0  0  0  0  0  0  0  0  0  0  0
  152.2886  144.9074  161.2075 H   0  0  0  0  0  0  0  0  0  0  0  0
  149.6935  143.9343  160.2787 H   0  0  0  0  0  0  0  0  0  0  0  0
  150.3399  145.5693  160.1675 H   0  0  0  0  0  0  0  0  0  0  0  0
  150.1984  144.8911  157.8049 H   0  0  0  0  0  0  0  0  0  0  0  0
  152.4974  145.7801  158.7097 H   0  0  0  0  0  0  0  0  0  0  0  0
  152.7926  144.5945  157.4192 H   0  0  0  0  0  0  0  0  0  0  0  0
  1  2  1  0  0  0  0
  1 19  1  0  0  0  0
  1 20  1  0  0  0  0
  1 21  1  0  0  0  0
  2  3  1  0  0  0  0
  2 22  1  0  0  0  0
  3  4  2  0  0  0  0
  3  5  1  0  0  0  0
  5  6  1  0  0  0  0
  5 23  1  0  0  0  0
  5 24  1  0  0  0  0
  6 18  1  0  0  0  0
  6  7  2  0  0  0  0
  7  8  1  0  0  0  0
  8  9  1  0  0  0  0
  9 10  1  0  0  0  0
  9 18  2  0  0  0  0
 10 11  1  0  0  0  0
 10 25  1  0  0  0  0
 10 26  1  0  0  0  0
 11 16  1  0  0  0  0
 11 12  1  0  0  0  0
 11 27  1  0  0  0  0
 12 13  1  0  0  0  0
 12 28  1  0  0  0  0
 12 29  1  0  0  0  0
 13 17  1  0  0  0  0
 13 14  1  0  0  0  0
 13 30  1  0  0  0  0
 14 15  1  0  0  0  0
 14 31  1  0  0  0  0
 14 32  1  0  0  0  0
 15 16  1  0  0  0  0
 15 33  1  0  0  0  0
 15 34  1  0  0  0  0
 16 17  1  0  0  0  0
 16 35  1  0  0  0  0
 17 36  1  0  0  0  0
 17 37  1  0  0  0  0
M  END
> <s_m_source_file>
AV-unprocessed.smi

> <i_m_source_file_index>
3238

> <i_lp_mmshare_version>
43012

> <i_f3d_flags>
0

> <s_epik_input>
W0NIM11bTkhdQyg9TylbQ0gyXWMxbm9jKG4xKVtDSDJdW0NASF0oW0NIMl1bQ0BIXTIzKVtDQEhdKFtDSDJdMylbQ0gyXVtDSDJdMg==

> <s_epik_cmdline>
J2VwaWtfcHl0aG9uJywgJy1waCcsICc3LjAnLCAnLXRuJywgJzgnLCAnLW1hJywgJzIwMCcsICctbWV0YWxfYmluZGluZycsICctaW1hZScsICc8aW5maWxlLm1hZT4nLCAnLW9tYWUnLCAnPG91dGZpbGUubWFlPic=

> <r_lp_tautomer_probability>
1

> <r_epik_Ionization_Penalty>
1.02915e-07

> <r_epik_Ionization_Penalty_Charging>
0

> <r_epik_Ionization_Penalty_Neutral>
1.02915e-07

> <r_epik_State_Penalty>
-0

> <r_epik_Charging_Adjusted_Penalty>
0

> <i_epik_Tot_Q>
0

> <i_epik_Tot_abs_Q>
0

> <r_epik_Metal_State_Penalty>
-0

> <b_epik_Metal_Only>
0

> <s_lp_Force_Field>
OPLS_2005

> <r_lp_Energy>
47.9986

> <b_lp_Chiralities_Consistent>
1

> <s_lp_Variant>
AV-unprocessed.smi:3238-2

> <Gold.Version>
5.8.1

> <Gold.Id.Protein>
6NUR|6NUR_protein|mol2

> <Gold.PLP.Fitness>
46.5510

> <Gold.PLP.PLP>
-40.6288

> <Gold.PLP.part.hbond>
-2.8347

> <Gold.PLP.part.metal>
0.0000

> <Gold.PLP.part.buried>
-4.5070

> <Gold.PLP.part.nonpolar>
-32.9415

> <Gold.PLP.part.repulsive>
0.2035

> <Gold.PLP.ligand.clash>
0.0000

> <Gold.PLP.ligand.torsion>
0.0344

> <Gold.PLP.Chemscore.Hbond>
1.9920

> <Gold.PLP.Chemscore.CHOScore>
0.0000

> <Gold.PLP.Chemscore.Metal>
0.0000

> <Gold.Chemscore.Hbonds>
donor molecule, donor type, donor heavy atom, donor atom, acceptor molecule, acceptor atom, score
      P1  H  7989  7998       L1    18  1.00
      P1  H 10752 10765       L1     4  0.80

> <Gold.PLP.Chemscore.Internal.Correction>
0.0150

> <Gold.Rescore>
     Score         DG    S(hbond)    S(metal)    S(lipo)     H(rot)  DE(clash)    DE(int)     intcor
     16.60     -18.10       1.65        0.00     101.11       1.85       0.10       1.40       ----

> <Gold.Chemscore.Fitness>
16.5957

> <Gold.Chemscore.DG>
-18.1017

> <Gold.Chemscore.ZeroCoef>
-5.4800

> <Gold.Chemscore.Hbond>
1.6545

> <Gold.Chemscore.Metal>
0.0000

> <Gold.Chemscore.Lipo>
101.1082

> <Gold.Chemscore.Internal_Hbond>
0.0000

> <Gold.Chemscore.DEClash>
0.1015

> <Gold.Chemscore.DEInternal>
1.4046

> <Gold.Chemscore.Rot>
1.8492

> <Gold.Chemscore.Internal.Correction>
   9.000000E+99

> <Gold.Chemscore.Hbonds>
donor molecule, donor type, donor heavy atom, donor atom, acceptor molecule, acceptor atom, score
      P1  H  7989  7998       L1    18  0.86
      P1  H 10752 10765       L1     4  0.41

> <Gold.Chemscore.Hbond.Weighted>
-5.5260

> <Gold.Chemscore.Metal.Weighted>
-0.0000

> <Gold.Chemscore.Lipo.Weighted>
-11.8297

> <Gold.Chemscore.Internal_Hbond.Weighted>
0.0000

> <Gold.Chemscore.DEClash.Weighted>
0.1015

> <Gold.Chemscore.DEInternal.Weighted>
1.4046

> <Gold.Chemscore.Rot.Weighted>
4.7340

> <Gold.Chemscore.Internal.Correction.Weighted>
   9.000000E+99

> <Gold.Protein.RotatedTorsions>
[ 6907 6896 6895 6894 ] final  113.83 input  -60.11 | X-H torsion
[ 7974 7965 7964 7962 ] final   50.68 input  175.53 | X-H torsion
[ 8008 7997 7996 7995 ] final   93.98 input   59.86 | X-H torsion
[ 10167 10162 10161 10158 ] final  137.27 input  -65.29 | X-H torsion
[ 10718 10713 10712 10709 ] final   15.03 input   66.30 | X-H torsion
[ 10763 10752 10751 10750 ] final  162.33 input  -60.55 | X-H torsion
[ 11005 11000 10999 10996 ] final  -42.41 input  -57.11 | X-H torsion

> <Gold.Protein.ActiveResidues>
 VAL166  LYS551  ARG553  GLY616  TRP617  ASP618  TYR619  PRO620  LYS621  CYS622 
 ASP623  PHE694  ASN695  SER759  ASP760  ASP761  ALA762  ILE779  LEU786  VAL792 
 PHE793  MET794  SER795  GLU796  ALA797  LYS798  CYS799  TRP800  GLU811  SER814 

> <Gold.Protein.RotatedAtoms>
  152.4838  133.8320  159.7108 H   0  0  0  0  0  0  0  0  0  0  0  0  # atno 6907 bound_to 6896
  150.8908  133.7236  159.2912 H   0  0  0  0  0  0  0  0  0  0  0  0  # atno 6908 bound_to 6896
  151.4710  135.1049  159.9803 H   0  0  0  0  0  0  0  0  0  0  0  0  # atno 6909 bound_to 6896
  145.9988  139.4417  143.0028 H   0  0  0  0  0  0  0  0  0  0  0  0  # atno 7974 bound_to 7965
  156.0528  140.3306  155.7371 H   0  0  0  0  0  0  0  0  0  0  0  0  # atno 8008 bound_to 7997
  155.5574  140.0616  157.2854 H   0  0  0  0  0  0  0  0  0  0  0  0  # atno 8009 bound_to 7997
  154.4444  140.1883  156.0737 H   0  0  0  0  0  0  0  0  0  0  0  0  # atno 8010 bound_to 7997
  139.5150  144.6419  151.5546 H   0  0  0  0  0  0  0  0  0  0  0  0  # atno 10167 bound_to 10162
  157.0476  130.6257  149.5762 H   0  0  0  0  0  0  0  0  0  0  0  0  # atno 10718 bound_to 10713
  154.2766  135.2764  155.2715 H   0  0  0  0  0  0  0  0  0  0  0  0  # atno 10763 bound_to 10752
  154.5255  135.5744  153.6719 H   0  0  0  0  0  0  0  0  0  0  0  0  # atno 10764 bound_to 10752
  152.9936  135.6215  154.2924 H   0  0  0  0  0  0  0  0  0  0  0  0  # atno 10765 bound_to 10752
  141.0314  133.6818  156.2591 H   0  0  0  0  0  0  0  0  0  0  0  0  # atno 11005 bound_to 11000
  145.7519  140.9969  143.1246 LP  0  0  0  0  0  0  0  0  0  0  0  0  # atno 17320 bound_to 7965
  144.6912  139.9225  143.7468 LP  0  0  0  0  0  0  0  0  0  0  0  0  # atno 17321 bound_to 7965
  140.6189  143.9296  150.6510 LP  0  0  0  0  0  0  0  0  0  0  0  0  # atno 17342 bound_to 10162
  140.2563  143.3556  152.1362 LP  0  0  0  0  0  0  0  0  0  0  0  0  # atno 17343 bound_to 10162
  156.0018  130.5098  150.7689 LP  0  0  0  0  0  0  0  0  0  0  0  0  # atno 17370 bound_to 10713
  157.5055  131.0922  151.0262 LP  0  0  0  0  0  0  0  0  0  0  0  0  # atno 17371 bound_to 10713
  140.6400  134.5175  157.5568 LP  0  0  0  0  0  0  0  0  0  0  0  0  # atno 17394 bound_to 11000
  139.9210  134.8149  156.1211 LP  0  0  0  0  0  0  0  0  0  0  0  0  # atno 17395 bound_to 11000

$$$$
