AV-unprocessed.smi:92|AV-procd|sdf|845|dock2
  -GOLD-   2262017283D 1   1.00000     0.00000
 Structure written by MMmdl.
 61 64  0  0  0  0  0  0  0  0  2 V2000
  151.2335  144.3586  158.9627 C   0  0  0  0  0  0  0  0  0  0  0  0
  149.8801  143.6427  159.0814 C   0  0  0  0  0  0  0  0  0  0  0  0
  149.4133  143.0838  157.7871 N   0  3  2  0  0  0  0  0  0  0  0  0
  148.0128  142.5978  157.8620 C   0  0  0  0  0  0  0  0  0  0  0  0
  147.5057  142.1725  156.4774 C   0  0  0  0  0  0  0  0  0  0  0  0
  148.4136  141.0908  155.8611 C   0  0  1  0  0  0  0  0  0  0  0  0
  147.9212  140.6630  154.5456 N   0  0  0  0  0  0  0  0  0  0  0  0
  147.4404  141.6430  153.5755 C   0  0  0  0  0  0  0  0  0  0  0  0
  147.3538  139.4321  154.5088 C   0  0  0  0  0  0  0  0  0  0  0  0
  147.3182  138.7240  155.6669 N   0  0  0  0  0  0  0  0  0  0  0  0
  146.7666  137.5079  155.6967 C   0  0  0  0  0  0  0  0  0  0  0  0
  146.2006  136.8248  154.7006 N   0  0  0  0  0  0  0  0  0  0  0  0
  146.2288  137.5319  153.5347 C   0  0  0  0  0  0  0  0  0  0  0  0
  146.7757  138.8339  153.3511 C   0  0  0  0  0  0  0  0  0  0  0  0
  146.5865  139.2402  152.0348 N   0  0  0  0  0  0  0  0  0  0  0  0
  145.9717  138.2356  151.4731 C   0  0  0  0  0  0  0  0  0  0  0  0
  145.7434  137.1556  152.2947 N   0  0  0  0  0  0  0  0  0  0  0  0
  145.0542  135.9466  151.9521 C   0  0  0  0  0  0  0  0  0  0  0  0
  145.2287  134.6753  152.7852 C   0  0  0  0  0  0  0  0  0  0  0  0
  145.0391  133.8233  151.5100 C   0  0  0  0  0  0  0  0  0  0  0  0
  145.9797  132.6146  151.3769 C   0  0  0  0  0  0  0  0  0  0  0  0
  147.3145  132.9700  151.6752 O   0  0  0  0  0  0  0  0  0  0  0  0
  143.5911  133.3725  151.2298 C   0  0  0  0  0  0  0  0  0  0  0  0
  143.4438  132.9045  149.9044 O   0  0  0  0  0  0  0  0  0  0  0  0
  145.4889  135.0950  150.7568 C   0  0  0  0  0  0  0  0  0  0  0  0
  149.8801  141.5838  155.8287 C   0  0  2  0  0  0  0  0  0  0  0  0
  150.8404  140.5049  155.2982 C   0  0  0  0  0  0  0  0  0  0  0  0
  150.3189  142.0405  157.2365 C   0  0  0  0  0  0  0  0  0  0  0  0
  151.4975  144.8359  159.9067 H   0  0  0  0  0  0  0  0  0  0  0  0
  151.2023  145.1361  158.1990 H   0  0  0  0  0  0  0  0  0  0  0  0
  152.0418  143.6722  158.7132 H   0  0  0  0  0  0  0  0  0  0  0  0
  149.9244  142.8560  159.8360 H   0  0  0  0  0  0  0  0  0  0  0  0
  149.1530  144.3727  159.4396 H   0  0  0  0  0  0  0  0  0  0  0  0
  147.9502  141.7623  158.5613 H   0  0  0  0  0  0  0  0  0  0  0  0
  147.3667  143.3863  158.2500 H   0  0  0  0  0  0  0  0  0  0  0  0
  146.4838  141.8008  156.5625 H   0  0  0  0  0  0  0  0  0  0  0  0
  147.4634  143.0483  155.8289 H   0  0  0  0  0  0  0  0  0  0  0  0
  148.3898  140.2326  156.5346 H   0  0  0  0  0  0  0  0  0  0  0  0
  147.1798  141.1624  152.6315 H   0  0  0  0  0  0  0  0  0  0  0  0
  148.2110  142.3814  153.3571 H   0  0  0  0  0  0  0  0  0  0  0  0
  146.5601  142.1681  153.9458 H   0  0  0  0  0  0  0  0  0  0  0  0
  146.7807  137.0106  156.6554 H   0  0  0  0  0  0  0  0  0  0  0  0
  145.6694  138.2556  150.4359 H   0  0  0  0  0  0  0  0  0  0  0  0
  143.9993  136.2142  151.8743 H   0  0  0  0  0  0  0  0  0  0  0  0
  146.2310  134.5926  153.2100 H   0  0  0  0  0  0  0  0  0  0  0  0
  144.4695  134.5354  153.5550 H   0  0  0  0  0  0  0  0  0  0  0  0
  145.6866  131.8193  152.0630 H   0  0  0  0  0  0  0  0  0  0  0  0
  145.9413  132.1829  150.3766 H   0  0  0  0  0  0  0  0  0  0  0  0
  147.8866  132.3000  151.3330 H   0  0  0  0  0  0  0  0  0  0  0  0
  143.2923  132.5673  151.9009 H   0  0  0  0  0  0  0  0  0  0  0  0
  142.8809  134.1826  151.3970 H   0  0  0  0  0  0  0  0  0  0  0  0
  142.6034  133.1871  149.5776 H   0  0  0  0  0  0  0  0  0  0  0  0
  144.9447  135.2982  149.8342 H   0  0  0  0  0  0  0  0  0  0  0  0
  146.5672  135.1292  150.5895 H   0  0  0  0  0  0  0  0  0  0  0  0
  149.9503  142.4503  155.1700 H   0  0  0  0  0  0  0  0  0  0  0  0
  150.7998  139.6034  155.9103 H   0  0  0  0  0  0  0  0  0  0  0  0
  151.8708  140.8611  155.2985 H   0  0  0  0  0  0  0  0  0  0  0  0
  150.5984  140.2206  154.2739 H   0  0  0  0  0  0  0  0  0  0  0  0
  151.3362  142.4258  157.1786 H   0  0  0  0  0  0  0  0  0  0  0  0
  150.3450  141.1888  157.9185 H   0  0  0  0  0  0  0  0  0  0  0  0
  149.4105  143.8504  157.1294 H   0  0  0  0  0  0  0  0  0  0  0  0
  1  2  1  0  0  0  0
  1 29  1  0  0  0  0
  1 30  1  0  0  0  0
  1 31  1  0  0  0  0
  2  3  1  0  0  0  0
  2 32  1  0  0  0  0
  2 33  1  0  0  0  0
  3 28  1  0  0  0  0
  3  4  1  0  0  0  0
  3 61  1  0  0  0  0
  4  5  1  0  0  0  0
  4 34  1  0  0  0  0
  4 35  1  0  0  0  0
  5  6  1  0  0  0  0
  5 36  1  0  0  0  0
  5 37  1  0  0  0  0
  6  7  1  0  0  0  0
  6 26  1  0  0  0  0
  6 38  1  0  0  0  0
  7  8  1  0  0  0  0
  7  9  1  0  0  0  0
  8 39  1  0  0  0  0
  8 40  1  0  0  0  0
  8 41  1  0  0  0  0
  9 14  1  0  0  0  0
  9 10  2  0  0  0  0
 10 11  1  0  0  0  0
 11 12  2  0  0  0  0
 11 42  1  0  0  0  0
 12 13  1  0  0  0  0
 13 17  1  0  0  0  0
 13 14  2  0  0  0  0
 14 15  1  0  0  0  0
 15 16  2  0  0  0  0
 16 17  1  0  0  0  0
 16 43  1  0  0  0  0
 17 18  1  0  0  0  0
 18 25  1  0  0  0  0
 18 19  1  0  0  0  0
 18 44  1  0  0  0  0
 19 20  1  0  0  0  0
 19 45  1  0  0  0  0
 19 46  1  0  0  0  0
 20 21  1  0  0  0  0
 20 23  1  0  0  0  0
 20 25  1  0  0  0  0
 21 22  1  0  0  0  0
 21 47  1  0  0  0  0
 21 48  1  0  0  0  0
 22 49  1  0  0  0  0
 23 24  1  0  0  0  0
 23 50  1  0  0  0  0
 23 51  1  0  0  0  0
 24 52  1  0  0  0  0
 25 53  1  0  0  0  0
 25 54  1  0  0  0  0
 26 27  1  0  0  0  0
 26 28  1  0  0  0  0
 26 55  1  0  0  0  0
 27 56  1  0  0  0  0
 27 57  1  0  0  0  0
 27 58  1  0  0  0  0
 28 59  1  0  0  0  0
 28 60  1  0  0  0  0
M  CHG  1   3   1
M  END
> <s_m_source_file>
AV-unprocessed.smi

> <i_m_source_file_index>
92

> <i_lp_mmshare_version>
43012

> <i_f3d_flags>
0

> <s_epik_input>
W0NIM11bQ0gyXU4xW0NIMl1bQ0gyXVtDQEhdKFtDQEBIXShbQ0gzXSlbQ0gyXTEpTihbQ0gzXSljKG5bY0hdbjIpYyhjMjMpbltjSF1uM1tDSF0oW0NIMl00KVtDSDJdQzQoW0NIMl1bT0hdKVtDSDJdW09IXQ==

> <s_epik_cmdline>
J2VwaWtfcHl0aG9uJywgJy1waCcsICc3LjAnLCAnLXRuJywgJzgnLCAnLW1hJywgJzIwMCcsICctbWV0YWxfYmluZGluZycsICctaW1hZScsICc8aW5maWxlLm1hZT4nLCAnLW9tYWUnLCAnPG91dGZpbGUubWFlPic=

> <r_lp_tautomer_probability>
1

> <r_epik_Ionization_Penalty>
0.00235514

> <r_epik_Ionization_Penalty_Charging>
0.00137877

> <r_epik_Ionization_Penalty_Neutral>
0.000976366

> <r_epik_State_Penalty>
-0

> <r_epik_Charging_Adjusted_Penalty>
0.00137877

> <i_epik_Tot_Q>
1

> <i_epik_Tot_abs_Q>
1

> <r_epik_Metal_State_Penalty>
-0

> <b_epik_Metal_Only>
0

> <s_lp_Force_Field>
OPLS_2005

> <r_lp_Energy>
48.9236

> <b_lp_Chiralities_Consistent>
1

> <s_lp_Variant>
AV-unprocessed.smi:92-5

> <Gold.Version>
5.8.1

> <Gold.Id.Protein>
6NUR|6NUR_protein|mol2

> <Gold.PLP.Fitness>
54.7795

> <Gold.PLP.PLP>
-40.5178

> <Gold.PLP.part.hbond>
-3.0000

> <Gold.PLP.part.metal>
0.0000

> <Gold.PLP.part.buried>
-0.2884

> <Gold.PLP.part.nonpolar>
-37.5739

> <Gold.PLP.part.repulsive>
0.9524

> <Gold.PLP.ligand.clash>
0.0000

> <Gold.PLP.ligand.torsion>
1.0656

> <Gold.PLP.Chemscore.Hbond>
3.9840

> <Gold.PLP.Chemscore.CHOScore>
0.9818

> <Gold.PLP.Chemscore.Metal>
0.0000

> <Gold.Chemscore.Hbonds>
donor molecule, donor type, donor heavy atom, donor atom, acceptor molecule, acceptor atom, score
      L1  H     3    61       P1  8028  2.00
      L1  H    22    49       P1 10747  0.84
      L1  H    24    52       P1 10186  1.00
      L1  C    16    43       P1 10171  0.66

> <Gold.PLP.Chemscore.Internal.Correction>
1.4957

> <Gold.Rescore>
     Score         DG    S(hbond)    S(metal)    S(lipo)     H(rot)  DE(clash)    DE(int)     intcor
     12.61     -18.07       2.86        0.00      96.49       3.22       2.44       3.02       ----

> <Gold.Chemscore.Fitness>
12.6134

> <Gold.Chemscore.DG>
-18.0690

> <Gold.Chemscore.ZeroCoef>
-5.4800

> <Gold.Chemscore.Hbond>
2.8586

> <Gold.Chemscore.Metal>
0.0000

> <Gold.Chemscore.Lipo>
96.4914

> <Gold.Chemscore.Internal_Hbond>
0.0000

> <Gold.Chemscore.DEClash>
2.4395

> <Gold.Chemscore.DEInternal>
3.0162

> <Gold.Chemscore.Rot>
3.2219

> <Gold.Chemscore.Internal.Correction>
   9.000000E+99

> <Gold.Chemscore.Hbonds>
donor molecule, donor type, donor heavy atom, donor atom, acceptor molecule, acceptor atom, score
      L1  H     3    61       P1  8028  0.59
      L1  H    22    49       P1 10747  0.84
      L1  H    24    52       P1 10186  0.92

> <Gold.Chemscore.Hbond.Weighted>
-9.5477

> <Gold.Chemscore.Metal.Weighted>
-0.0000

> <Gold.Chemscore.Lipo.Weighted>
-11.2895

> <Gold.Chemscore.Internal_Hbond.Weighted>
0.0000

> <Gold.Chemscore.DEClash.Weighted>
2.4395

> <Gold.Chemscore.DEInternal.Weighted>
3.0162

> <Gold.Chemscore.Rot.Weighted>
8.2482

> <Gold.Chemscore.Internal.Correction.Weighted>
   9.000000E+99

> <Gold.Protein.RotatedTorsions>
[ 6907 6896 6895 6894 ] final   -7.64 input  -60.11 | X-H torsion
[ 7974 7965 7964 7962 ] final  -16.51 input  175.53 | X-H torsion
[ 8008 7997 7996 7995 ] final   36.78 input   59.86 | X-H torsion
[ 10167 10162 10161 10158 ] final   82.37 input  -65.29 | X-H torsion
[ 10718 10713 10712 10709 ] final  138.25 input   66.30 | X-H torsion
[ 10763 10752 10751 10750 ] final  140.36 input  -60.55 | X-H torsion
[ 11005 11000 10999 10996 ] final  143.59 input  -57.11 | X-H torsion

> <Gold.Protein.ActiveResidues>
 VAL166  LYS551  ARG553  GLY616  TRP617  ASP618  TYR619  PRO620  LYS621  CYS622 
 ASP623  PHE694  ASN695  SER759  ASP760  ASP761  ALA762  ILE779  LEU786  VAL792 
 PHE793  MET794  SER795  GLU796  ALA797  LYS798  CYS799  TRP800  GLU811  SER814 

> <Gold.Protein.RotatedAtoms>
  151.4464  135.1025  159.9684 H   0  0  0  0  0  0  0  0  0  0  0  0  # atno 6907 bound_to 6896
  152.4904  133.8481  159.7198 H   0  0  0  0  0  0  0  0  0  0  0  0  # atno 6908 bound_to 6896
  150.9052  133.7008  159.2896 H   0  0  0  0  0  0  0  0  0  0  0  0  # atno 6909 bound_to 6896
  146.1984  140.3647  142.8432 H   0  0  0  0  0  0  0  0  0  0  0  0  # atno 7974 bound_to 7965
  155.1929  140.3309  155.4355 H   0  0  0  0  0  0  0  0  0  0  0  0  # atno 8008 bound_to 7997
  156.2435  140.1907  156.6971 H   0  0  0  0  0  0  0  0  0  0  0  0  # atno 8009 bound_to 7997
  154.6193  140.0597  156.9581 H   0  0  0  0  0  0  0  0  0  0  0  0  # atno 8010 bound_to 7997
  139.9295  144.6161  150.8359 H   0  0  0  0  0  0  0  0  0  0  0  0  # atno 10167 bound_to 10162
  157.4273  131.1045  151.0288 H   0  0  0  0  0  0  0  0  0  0  0  0  # atno 10718 bound_to 10713
  153.9214  135.3000  155.3447 H   0  0  0  0  0  0  0  0  0  0  0  0  # atno 10763 bound_to 10752
  154.7574  135.4951  153.9403 H   0  0  0  0  0  0  0  0  0  0  0  0  # atno 10764 bound_to 10752
  153.1140  135.6766  153.9554 H   0  0  0  0  0  0  0  0  0  0  0  0  # atno 10765 bound_to 10752
  140.0566  134.9227  157.1110 H   0  0  0  0  0  0  0  0  0  0  0  0  # atno 11005 bound_to 11000
  144.8629  140.7165  143.6095 LP  0  0  0  0  0  0  0  0  0  0  0  0  # atno 17320 bound_to 7965
  145.3567  139.1692  143.4405 LP  0  0  0  0  0  0  0  0  0  0  0  0  # atno 17321 bound_to 7965
  140.7641  143.3240  151.2557 LP  0  0  0  0  0  0  0  0  0  0  0  0  # atno 17342 bound_to 10162
  139.6794  143.9880  152.2800 LP  0  0  0  0  0  0  0  0  0  0  0  0  # atno 17343 bound_to 10162
  157.1197  130.6056  149.5502 LP  0  0  0  0  0  0  0  0  0  0  0  0  # atno 17370 bound_to 10713
  155.9901  130.4951  150.7242 LP  0  0  0  0  0  0  0  0  0  0  0  0  # atno 17371 bound_to 10713
  140.3835  134.2261  155.7169 LP  0  0  0  0  0  0  0  0  0  0  0  0  # atno 17394 bound_to 11000
  141.1954  133.8105  157.0714 LP  0  0  0  0  0  0  0  0  0  0  0  0  # atno 17395 bound_to 11000

$$$$
