AV-unprocessed.smi:334|AV-procd|sdf|2364|dock5
  -GOLD-   2262022283D 1   1.00000     0.00000
 Structure written by MMmdl.
 44 46  0  0  0  0  0  0  0  0  3 V2000
  145.2853  136.4502  154.3734 C   0  0  0  0  0  0  0  0  0  0  0  0
  145.7062  135.0815  153.8103 C   0  0  2  0  0  0  0  0  0  0  0  0
  147.0738  134.7768  154.2262 N   0  0  0  0  0  0  0  0  0  0  0  0
  147.4604  134.4634  155.4722 C   0  0  0  0  0  0  0  0  0  0  0  0
  146.6833  134.4083  156.4264 O   0  0  0  0  0  0  0  0  0  0  0  0
  148.9598  134.1847  155.6526 C   0  0  0  0  0  0  0  0  0  0  0  0
  149.7012  135.3096  156.2480 N   0  0  0  0  0  0  0  0  0  0  0  0
  149.8194  136.4783  155.4703 C   0  0  0  0  0  0  0  0  0  0  0  0
  150.4698  137.5714  155.9147 C   0  0  0  0  0  0  0  0  0  0  0  0
  150.5745  138.7659  155.1054 N   0  3  0  0  0  0  0  0  0  0  0  0
  151.5337  139.5111  155.2778 O   0  0  0  0  0  0  0  0  0  0  0  0
  149.7042  138.9989  154.2720 O   0  5  0  0  0  0  0  0  0  0  0  0
  151.0597  137.5133  157.2381 C   0  0  0  0  0  0  0  0  0  0  0  0
  150.9453  136.4003  157.9891 C   0  0  0  0  0  0  0  0  0  0  0  0
  150.2301  135.2144  157.5062 C   0  0  0  0  0  0  0  0  0  0  0  0
  150.1139  134.1982  158.1912 O   0  0  0  0  0  0  0  0  0  0  0  0
  145.6206  135.0284  152.2666 C   0  0  1  0  0  0  0  0  0  0  0  0
  145.8436  133.6269  151.6523 C   0  0  0  0  0  0  0  0  0  0  0  0
  144.6532  133.4779  150.6866 C   0  0  1  0  0  0  0  0  0  0  0  0
  143.3723  133.2265  151.5033 C   0  0  0  0  0  0  0  0  0  0  0  0
  143.0959  134.6056  152.1291 C   0  0  0  0  0  0  0  0  0  0  0  0
  144.2786  135.4563  151.6217 C   0  0  2  0  0  0  0  0  0  0  0  0
  144.4462  134.9100  150.2072 C   0  0  0  0  0  0  0  0  0  0  0  0
  144.2474  136.6766  154.1296 H   0  0  0  0  0  0  0  0  0  0  0  0
  145.9046  137.2526  153.9713 H   0  0  0  0  0  0  0  0  0  0  0  0
  145.3718  136.4758  155.4602 H   0  0  0  0  0  0  0  0  0  0  0  0
  145.0488  134.3173  154.2261 H   0  0  0  0  0  0  0  0  0  0  0  0
  147.7807  134.8016  153.5057 H   0  0  0  0  0  0  0  0  0  0  0  0
  149.0820  133.2842  156.2575 H   0  0  0  0  0  0  0  0  0  0  0  0
  149.3800  133.9302  154.6783 H   0  0  0  0  0  0  0  0  0  0  0  0
  149.3399  136.4226  154.5035 H   0  0  0  0  0  0  0  0  0  0  0  0
  151.5968  138.3613  157.6370 H   0  0  0  0  0  0  0  0  0  0  0  0
  151.3917  136.3787  158.9724 H   0  0  0  0  0  0  0  0  0  0  0  0
  146.3927  135.6923  151.8724 H   0  0  0  0  0  0  0  0  0  0  0  0
  146.7917  133.5926  151.1145 H   0  0  0  0  0  0  0  0  0  0  0  0
  145.8586  132.8298  152.3970 H   0  0  0  0  0  0  0  0  0  0  0  0
  144.8190  132.7443  149.8971 H   0  0  0  0  0  0  0  0  0  0  0  0
  142.5475  132.9270  150.8555 H   0  0  0  0  0  0  0  0  0  0  0  0
  143.5069  132.4481  152.2553 H   0  0  0  0  0  0  0  0  0  0  0  0
  142.1538  135.0062  151.7530 H   0  0  0  0  0  0  0  0  0  0  0  0
  143.0175  134.5704  153.2148 H   0  0  0  0  0  0  0  0  0  0  0  0
  144.0946  136.5299  151.6684 H   0  0  0  0  0  0  0  0  0  0  0  0
  145.3109  135.3193  149.6814 H   0  0  0  0  0  0  0  0  0  0  0  0
  143.5582  135.0349  149.5849 H   0  0  0  0  0  0  0  0  0  0  0  0
  1  2  1  0  0  0  0
  1 24  1  0  0  0  0
  1 25  1  0  0  0  0
  1 26  1  0  0  0  0
  2  3  1  0  0  0  0
  2 17  1  0  0  0  0
  2 27  1  0  0  0  0
  3  4  1  0  0  0  0
  3 28  1  0  0  0  0
  4  5  2  0  0  0  0
  4  6  1  0  0  0  0
  6  7  1  0  0  0  0
  6 29  1  0  0  0  0
  6 30  1  0  0  0  0
  7 15  1  0  0  0  0
  7  8  1  0  0  0  0
  8  9  2  0  0  0  0
  8 31  1  0  0  0  0
  9 10  1  0  0  0  0
  9 13  1  0  0  0  0
 10 11  2  0  0  0  0
 10 12  1  0  0  0  0
 13 14  2  0  0  0  0
 13 32  1  0  0  0  0
 14 15  1  0  0  0  0
 14 33  1  0  0  0  0
 15 16  2  0  0  0  0
 17 22  1  0  0  0  0
 17 18  1  0  0  0  0
 17 34  1  0  0  0  0
 18 19  1  0  0  0  0
 18 35  1  0  0  0  0
 18 36  1  0  0  0  0
 19 23  1  0  0  0  0
 19 20  1  0  0  0  0
 19 37  1  0  0  0  0
 20 21  1  0  0  0  0
 20 38  1  0  0  0  0
 20 39  1  0  0  0  0
 21 22  1  0  0  0  0
 21 40  1  0  0  0  0
 21 41  1  0  0  0  0
 22 23  1  0  0  0  0
 22 42  1  0  0  0  0
 23 43  1  0  0  0  0
 23 44  1  0  0  0  0
M  CHG  1  10   1
M  CHG  1  12  -1
M  END
> <s_m_source_file>
AV-unprocessed.smi

> <i_m_source_file_index>
334

> <i_lp_mmshare_version>
43012

> <i_f3d_flags>
0

> <s_epik_input>
W0NIMl0xW0NIMl1bQ0BIXShbQ0gyXTIpW0NAQEhdKFtDSDJdW0NAQEhdMTIpW0NASF0oW0NIM10pW05IXUMoPU8pW0NIMl1uM1tjSF1jKFtOK10oPU8pW08tXSlbY0hdW2NIXWMzPU8=

> <s_epik_cmdline>
J2VwaWtfcHl0aG9uJywgJy1waCcsICc3LjAnLCAnLXRuJywgJzgnLCAnLW1hJywgJzIwMCcsICctbWV0YWxfYmluZGluZycsICctaW1hZScsICc8aW5maWxlLm1hZT4nLCAnLW9tYWUnLCAnPG91dGZpbGUubWFlPic=

> <r_lp_tautomer_probability>
1

> <r_epik_Ionization_Penalty>
2.17081e-08

> <r_epik_Ionization_Penalty_Charging>
8.1195e-11

> <r_epik_Ionization_Penalty_Neutral>
2.16269e-08

> <r_epik_State_Penalty>
-0

> <r_epik_Charging_Adjusted_Penalty>
8.1195e-11

> <i_epik_Tot_Q>
0

> <i_epik_Tot_abs_Q>
2

> <r_epik_Metal_State_Penalty>
-0

> <b_epik_Metal_Only>
0

> <s_lp_Force_Field>
OPLS_2005

> <r_lp_Energy>
62.3999

> <b_lp_Chiralities_Consistent>
1

> <s_lp_Variant>
AV-unprocessed.smi:334-3

> <Gold.Version>
5.8.1

> <Gold.Id.Protein>
6NUR|6NUR_protein|mol2

> <Gold.PLP.Fitness>
43.3957

> <Gold.PLP.PLP>
-35.3187

> <Gold.PLP.part.hbond>
-3.0000

> <Gold.PLP.part.metal>
0.0000

> <Gold.PLP.part.buried>
-5.5326

> <Gold.PLP.part.nonpolar>
-27.4859

> <Gold.PLP.part.repulsive>
0.4438

> <Gold.PLP.ligand.clash>
0.0000

> <Gold.PLP.ligand.torsion>
0.8091

> <Gold.PLP.Chemscore.Hbond>
2.2099

> <Gold.PLP.Chemscore.CHOScore>
1.0000

> <Gold.PLP.Chemscore.Metal>
0.0000

> <Gold.Chemscore.Hbonds>
donor molecule, donor type, donor heavy atom, donor atom, acceptor molecule, acceptor atom, score
      P1  H  6896  6908       L1    16  0.21
      P1  H  7989  7998       L1    11  0.49
      L1  C     8    31       P1  7948  0.69

> <Gold.PLP.Chemscore.Internal.Correction>
0.0655

> <Gold.Rescore>
     Score         DG    S(hbond)    S(metal)    S(lipo)     H(rot)  DE(clash)    DE(int)     intcor
     13.32     -14.89       1.79        0.00      67.61       1.75       0.38       1.19       ----

> <Gold.Chemscore.Fitness>
13.3176

> <Gold.Chemscore.DG>
-14.8873

> <Gold.Chemscore.ZeroCoef>
-5.4800

> <Gold.Chemscore.Hbond>
1.7873

> <Gold.Chemscore.Metal>
0.0000

> <Gold.Chemscore.Lipo>
67.6147

> <Gold.Chemscore.Internal_Hbond>
0.0000

> <Gold.Chemscore.DEClash>
0.3773

> <Gold.Chemscore.DEInternal>
1.1923

> <Gold.Chemscore.Rot>
1.7474

> <Gold.Chemscore.Internal.Correction>
   9.000000E+99

> <Gold.Chemscore.Hbonds>
donor molecule, donor type, donor heavy atom, donor atom, acceptor molecule, acceptor atom, score
      L1  H     3    28       P1  7948  0.04
      P1  H  6896  6908       L1    16  0.22
      P1  H  7989  7998       L1    11  0.30

> <Gold.Chemscore.Hbond.Weighted>
-5.9697

> <Gold.Chemscore.Metal.Weighted>
-0.0000

> <Gold.Chemscore.Lipo.Weighted>
-7.9109

> <Gold.Chemscore.Internal_Hbond.Weighted>
0.0000

> <Gold.Chemscore.DEClash.Weighted>
0.3773

> <Gold.Chemscore.DEInternal.Weighted>
1.1923

> <Gold.Chemscore.Rot.Weighted>
4.4733

> <Gold.Chemscore.Internal.Correction.Weighted>
   9.000000E+99

> <Gold.Protein.RotatedTorsions>
[ 6907 6896 6895 6894 ] final   87.20 input  -60.11 | X-H torsion
[ 7974 7965 7964 7962 ] final  132.85 input  175.53 | X-H torsion
[ 8008 7997 7996 7995 ] final   -2.17 input   59.86 | X-H torsion
[ 10167 10162 10161 10158 ] final -178.05 input  -65.29 | X-H torsion
[ 10718 10713 10712 10709 ] final  -10.00 input   66.30 | X-H torsion
[ 10763 10752 10751 10750 ] final  -39.89 input  -60.55 | X-H torsion
[ 11005 11000 10999 10996 ] final  -96.52 input  -57.11 | X-H torsion

> <Gold.Protein.ActiveResidues>
 VAL166  LYS551  ARG553  GLY616  TRP617  ASP618  TYR619  PRO620  LYS621  CYS622 
 ASP623  PHE694  ASN695  SER759  ASP760  ASP761  ALA762  ILE779  LEU786  VAL792 
 PHE793  MET794  SER795  GLU796  ALA797  LYS798  CYS799  TRP800  GLU811  SER814 

> <Gold.Protein.RotatedAtoms>
  152.5407  134.2312  159.8825 H   0  0  0  0  0  0  0  0  0  0  0  0  # atno 6907 bound_to 6896
  151.2284  133.4457  159.2610 H   0  0  0  0  0  0  0  0  0  0  0  0  # atno 6908 bound_to 6896
  151.0738  134.9829  159.8378 H   0  0  0  0  0  0  0  0  0  0  0  0  # atno 6909 bound_to 6896
  144.9926  139.4391  143.5332 H   0  0  0  0  0  0  0  0  0  0  0  0  # atno 7974 bound_to 7965
  154.6387  140.2541  155.7348 H   0  0  0  0  0  0  0  0  0  0  0  0  # atno 8008 bound_to 7997
  156.2517  140.2892  156.0691 H   0  0  0  0  0  0  0  0  0  0  0  0  # atno 8009 bound_to 7997
  155.1631  140.0385  157.2837 H   0  0  0  0  0  0  0  0  0  0  0  0  # atno 8010 bound_to 7997
  139.5450  144.2259  152.0971 H   0  0  0  0  0  0  0  0  0  0  0  0  # atno 10167 bound_to 10162
  156.6799  130.5034  149.5974 H   0  0  0  0  0  0  0  0  0  0  0  0  # atno 10718 bound_to 10713
  153.9368  135.6766  153.4745 H   0  0  0  0  0  0  0  0  0  0  0  0  # atno 10763 bound_to 10752
  153.0951  135.4855  154.8761 H   0  0  0  0  0  0  0  0  0  0  0  0  # atno 10764 bound_to 10752
  154.7398  135.3158  154.8705 H   0  0  0  0  0  0  0  0  0  0  0  0  # atno 10765 bound_to 10752
  141.1408  133.8104  157.0583 H   0  0  0  0  0  0  0  0  0  0  0  0  # atno 11005 bound_to 11000
  146.3435  139.9267  142.8759 LP  0  0  0  0  0  0  0  0  0  0  0  0  # atno 17320 bound_to 7965
  145.2264  140.9956  143.4016 LP  0  0  0  0  0  0  0  0  0  0  0  0  # atno 17321 bound_to 7965
  140.1744  144.4905  150.6562 LP  0  0  0  0  0  0  0  0  0  0  0  0  # atno 17342 bound_to 10162
  140.6695  143.2280  151.5659 LP  0  0  0  0  0  0  0  0  0  0  0  0  # atno 17343 bound_to 10162
  156.1875  130.6539  151.1023 LP  0  0  0  0  0  0  0  0  0  0  0  0  # atno 17370 bound_to 10713
  157.7047  131.0761  150.6705 LP  0  0  0  0  0  0  0  0  0  0  0  0  # atno 17371 bound_to 10713
  140.0588  134.9766  157.1267 LP  0  0  0  0  0  0  0  0  0  0  0  0  # atno 17394 bound_to 11000
  140.3880  134.2216  155.7167 LP  0  0  0  0  0  0  0  0  0  0  0  0  # atno 17395 bound_to 11000

$$$$
