AV-unprocessed.smi:1825|AV-procd|sdf|7414|dock6
  -GOLD-   22720 9 93D 1   1.00000     0.00000
 Structure written by MMmdl.
 33 34  0  0  0  0  0  0  0  0  2 V2000
  144.3174  135.9199  152.4996 O   0  0  0  0  0  0  0  0  0  0  0  0
  145.5288  135.7171  152.3889 C   0  0  0  0  0  0  0  0  0  0  0  0
  146.4043  136.6799  152.7144 N   0  0  0  0  0  0  0  0  0  0  0  0
  146.0849  138.0161  153.2175 C   0  0  0  0  0  0  0  0  0  0  0  0
  147.3150  138.9571  153.2911 C   0  0  0  0  0  0  0  0  0  0  0  0
  147.8705  139.0062  151.9885 O   0  0  0  0  0  0  0  0  0  0  0  0
  146.8477  140.3901  153.6454 C   0  0  0  0  0  0  0  0  0  0  0  0
  148.0107  141.3842  153.8155 C   0  0  0  0  0  0  0  0  0  0  0  0
  149.0289  140.8786  154.8462 C   0  0  0  0  0  0  0  0  0  0  0  0
  149.5506  139.4878  154.4619 C   0  0  0  0  0  0  0  0  0  0  0  0
  148.3995  138.4804  154.2918 C   0  0  0  0  0  0  0  0  0  0  0  0
  146.1125  134.5732  151.9646 N   0  5  0  0  0  0  0  0  0  0  0  0
  145.3586  133.5765  151.4728 C   0  0  0  0  0  0  0  0  0  0  0  0
  144.0873  133.7434  151.0905 N   0  0  0  0  0  0  0  0  0  0  0  0
  143.4967  132.5762  150.6026 C   0  0  0  0  0  0  0  0  0  0  0  0
  144.3406  131.4974  150.6053 C   0  0  0  0  0  0  0  0  0  0  0  0
  145.9115  131.9175  151.2261 S   0  0  0  0  0  0  0  0  0  0  0  0
  147.3847  136.4606  152.6147 H   0  0  0  0  0  0  0  0  0  0  0  0
  145.3179  138.4472  152.5728 H   0  0  0  0  0  0  0  0  0  0  0  0
  145.6222  137.9371  154.2024 H   0  0  0  0  0  0  0  0  0  0  0  0
  148.3383  138.2000  151.8346 H   0  0  0  0  0  0  0  0  0  0  0  0
  146.1565  140.7612  152.8873 H   0  0  0  0  0  0  0  0  0  0  0  0
  146.2821  140.3618  154.5779 H   0  0  0  0  0  0  0  0  0  0  0  0
  148.5065  141.5440  152.8573 H   0  0  0  0  0  0  0  0  0  0  0  0
  147.6237  142.3552  154.1252 H   0  0  0  0  0  0  0  0  0  0  0  0
  149.8602  141.5798  154.9239 H   0  0  0  0  0  0  0  0  0  0  0  0
  148.5640  140.8366  155.8321 H   0  0  0  0  0  0  0  0  0  0  0  0
  150.1228  139.5537  153.5359 H   0  0  0  0  0  0  0  0  0  0  0  0
  150.2430  139.1290  155.2240 H   0  0  0  0  0  0  0  0  0  0  0  0
  147.9366  138.3102  155.2646 H   0  0  0  0  0  0  0  0  0  0  0  0
  148.8154  137.5211  153.9818 H   0  0  0  0  0  0  0  0  0  0  0  0
  142.4692  132.6052  150.2719 H   0  0  0  0  0  0  0  0  0  0  0  0
  144.1372  130.4880  150.2815 H   0  0  0  0  0  0  0  0  0  0  0  0
  1  2  2  0  0  0  0
  2  3  1  0  0  0  0
  2 12  1  0  0  0  0
  3  4  1  0  0  0  0
  3 18  1  0  0  0  0
  4  5  1  0  0  0  0
  4 19  1  0  0  0  0
  4 20  1  0  0  0  0
  5 11  1  0  0  0  0
  5  6  1  0  0  0  0
  5  7  1  0  0  0  0
  6 21  1  0  0  0  0
  7  8  1  0  0  0  0
  7 22  1  0  0  0  0
  7 23  1  0  0  0  0
  8  9  1  0  0  0  0
  8 24  1  0  0  0  0
  8 25  1  0  0  0  0
  9 10  1  0  0  0  0
  9 26  1  0  0  0  0
  9 27  1  0  0  0  0
 10 11  1  0  0  0  0
 10 28  1  0  0  0  0
 10 29  1  0  0  0  0
 11 30  1  0  0  0  0
 11 31  1  0  0  0  0
 12 13  1  0  0  0  0
 13 17  1  0  0  0  0
 13 14  2  0  0  0  0
 14 15  1  0  0  0  0
 15 16  2  0  0  0  0
 15 32  1  0  0  0  0
 16 17  1  0  0  0  0
 16 33  1  0  0  0  0
M  CHG  1  12  -1
M  END
> <s_m_source_file>
AV-unprocessed.smi

> <i_m_source_file_index>
1825

> <i_lp_mmshare_version>
43012

> <i_f3d_flags>
0

> <s_epik_input>
czFbY0hdW2NIXW5jMVtOSF1DKD1PKVtOSF1bQ0gyXUMyKFtPSF0pW0NIMl1bQ0gyXVtDSDJdW0NIMl1bQ0gyXTI=

> <s_epik_cmdline>
J2VwaWtfcHl0aG9uJywgJy1waCcsICc3LjAnLCAnLXRuJywgJzgnLCAnLW1hJywgJzIwMCcsICctbWV0YWxfYmluZGluZycsICctaW1hZScsICc8aW5maWxlLm1hZT4nLCAnLW9tYWUnLCAnPG91dGZpbGUubWFlPic=

> <r_lp_tautomer_probability>
0.999

> <r_epik_Ionization_Penalty>
8.3436

> <r_epik_Ionization_Penalty_Charging>
6.70408

> <r_epik_Ionization_Penalty_Neutral>
1.63952

> <r_epik_State_Penalty>
6.70425

> <r_epik_Charging_Adjusted_Penalty>
13.4083

> <i_epik_Tot_Q>
-1

> <i_epik_Tot_abs_Q>
1

> <r_epik_Metal_State_Penalty>
2.62591

> <b_epik_Metal_Only>
1

> <s_lp_Force_Field>
OPLS_2005

> <r_lp_Energy>
9.48325

> <b_lp_Chiralities_Consistent>
1

> <s_lp_Variant>
AV-unprocessed.smi:1825-2

> <Gold.Version>
5.8.1

> <Gold.Id.Protein>
6NUR|6NUR_protein|mol2

> <Gold.PLP.Fitness>
38.3460

> <Gold.PLP.PLP>
-28.9430

> <Gold.PLP.part.hbond>
-2.2305

> <Gold.PLP.part.metal>
0.0000

> <Gold.PLP.part.buried>
-5.1451

> <Gold.PLP.part.nonpolar>
-23.3841

> <Gold.PLP.part.repulsive>
0.3856

> <Gold.PLP.ligand.clash>
0.0000

> <Gold.PLP.ligand.torsion>
0.1218

> <Gold.PLP.Chemscore.Hbond>
2.0000

> <Gold.PLP.Chemscore.CHOScore>
1.2080

> <Gold.PLP.Chemscore.Metal>
0.0000

> <Gold.Chemscore.Hbonds>
donor molecule, donor type, donor heavy atom, donor atom, acceptor molecule, acceptor atom, score
      L1  H     3    18       P1  7948  1.00
      L1  H     6    21       P1  7948  1.00
      L1  C    15    32       P1 10186  1.00
      L1  C    15    32       P1 10952  0.14

> <Gold.PLP.Chemscore.Internal.Correction>
0.0225

> <Gold.Rescore>
     Score         DG    S(hbond)    S(metal)    S(lipo)     H(rot)  DE(clash)    DE(int)     intcor
     14.16     -16.15       2.00        0.00      74.13       1.83       0.23       1.76       ----

> <Gold.Chemscore.Fitness>
14.1571

> <Gold.Chemscore.DG>
-16.1459

> <Gold.Chemscore.ZeroCoef>
-5.4800

> <Gold.Chemscore.Hbond>
1.9973

> <Gold.Chemscore.Metal>
0.0000

> <Gold.Chemscore.Lipo>
74.1296

> <Gold.Chemscore.Internal_Hbond>
0.0000

> <Gold.Chemscore.DEClash>
0.2311

> <Gold.Chemscore.DEInternal>
1.7578

> <Gold.Chemscore.Rot>
1.8274

> <Gold.Chemscore.Internal.Correction>
   9.000000E+99

> <Gold.Chemscore.Hbonds>
donor molecule, donor type, donor heavy atom, donor atom, acceptor molecule, acceptor atom, score
      L1  H     3    18       P1  7948  0.99
      L1  H     6    21       P1  7948  0.94

> <Gold.Chemscore.Hbond.Weighted>
-6.6708

> <Gold.Chemscore.Metal.Weighted>
-0.0000

> <Gold.Chemscore.Lipo.Weighted>
-8.6732

> <Gold.Chemscore.Internal_Hbond.Weighted>
0.0000

> <Gold.Chemscore.DEClash.Weighted>
0.2311

> <Gold.Chemscore.DEInternal.Weighted>
1.7578

> <Gold.Chemscore.Rot.Weighted>
4.6781

> <Gold.Chemscore.Internal.Correction.Weighted>
   9.000000E+99

> <Gold.Protein.RotatedTorsions>
[ 6907 6896 6895 6894 ] final   24.90 input  -60.11 | X-H torsion
[ 7974 7965 7964 7962 ] final  -14.03 input  175.53 | X-H torsion
[ 8008 7997 7996 7995 ] final  -11.81 input   59.86 | X-H torsion
[ 10167 10162 10161 10158 ] final  178.18 input  -65.29 | X-H torsion
[ 10718 10713 10712 10709 ] final  -96.63 input   66.30 | X-H torsion
[ 10763 10752 10751 10750 ] final -156.14 input  -60.55 | X-H torsion
[ 11005 11000 10999 10996 ] final -148.24 input  -57.11 | X-H torsion

> <Gold.Protein.ActiveResidues>
 VAL166  LYS551  ARG553  GLY616  TRP617  ASP618  TYR619  PRO620  LYS621  CYS622 
 ASP623  PHE694  ASN695  SER759  ASP760  ASP761  ALA762  ILE779  LEU786  VAL792 
 PHE793  MET794  SER795  GLU796  ALA797  LYS798  CYS799  TRP800  GLU811  SER814 

> <Gold.Protein.RotatedAtoms>
  151.9645  135.0107  160.0549 H   0  0  0  0  0  0  0  0  0  0  0  0  # atno 6907 bound_to 6896
  152.1839  133.4721  159.4980 H   0  0  0  0  0  0  0  0  0  0  0  0  # atno 6908 bound_to 6896
  150.6922  134.1716  159.4257 H   0  0  0  0  0  0  0  0  0  0  0  0  # atno 6909 bound_to 6896
  146.2090  140.3290  142.8397 H   0  0  0  0  0  0  0  0  0  0  0  0  # atno 7974 bound_to 7965
  154.5432  140.2293  155.8606 H   0  0  0  0  0  0  0  0  0  0  0  0  # atno 8008 bound_to 7997
  156.1878  140.3084  155.9235 H   0  0  0  0  0  0  0  0  0  0  0  0  # atno 8009 bound_to 7997
  155.3216  140.0441  157.3030 H   0  0  0  0  0  0  0  0  0  0  0  0  # atno 8010 bound_to 7997
  139.5283  144.2710  152.0628 H   0  0  0  0  0  0  0  0  0  0  0  0  # atno 10167 bound_to 10162
  156.0066  130.5159  150.6254 H   0  0  0  0  0  0  0  0  0  0  0  0  # atno 10718 bound_to 10713
  154.7735  135.3152  154.8141 H   0  0  0  0  0  0  0  0  0  0  0  0  # atno 10763 bound_to 10752
  153.8870  135.6829  153.4767 H   0  0  0  0  0  0  0  0  0  0  0  0  # atno 10764 bound_to 10752
  153.1353  135.4762  154.9348 H   0  0  0  0  0  0  0  0  0  0  0  0  # atno 10765 bound_to 10752
  140.7633  134.3273  157.5095 H   0  0  0  0  0  0  0  0  0  0  0  0  # atno 11005 bound_to 11000
  144.8866  140.7470  143.5953 LP  0  0  0  0  0  0  0  0  0  0  0  0  # atno 17320 bound_to 7965
  145.3211  139.1788  143.4587 LP  0  0  0  0  0  0  0  0  0  0  0  0  # atno 17321 bound_to 7965
  140.2170  144.4505  150.6359 LP  0  0  0  0  0  0  0  0  0  0  0  0  # atno 17342 bound_to 10162
  140.6444  143.2210  151.6219 LP  0  0  0  0  0  0  0  0  0  0  0  0  # atno 17343 bound_to 10162
  157.4062  131.0817  151.1263 LP  0  0  0  0  0  0  0  0  0  0  0  0  # atno 17370 bound_to 10713
  157.1909  130.6351  149.5704 LP  0  0  0  0  0  0  0  0  0  0  0  0  # atno 17371 bound_to 10713
  139.8767  134.9215  156.3278 LP  0  0  0  0  0  0  0  0  0  0  0  0  # atno 17394 bound_to 11000
  140.9643  133.7368  156.0444 LP  0  0  0  0  0  0  0  0  0  0  0  0  # atno 17395 bound_to 11000

$$$$
