AV-unprocessed.smi:2037|AV-procd|sdf|8277|dock4
  -GOLD-   2272010543D 1   1.00000     0.00000
 Structure written by MMmdl.
 39 40  0  0  0  0  0  0  0  0  2 V2000
  148.2234  140.9850  156.5703 C   0  0  0  0  0  0  0  0  0  0  0  0
  148.9741  141.4450  155.3083 C   0  0  2  0  0  0  0  0  0  0  0  0
  148.0817  142.2445  154.3419 C   0  0  0  0  0  0  0  0  0  0  0  0
  147.0856  141.3443  153.5886 C   0  0  0  0  0  0  0  0  0  0  0  0
  147.7840  140.2492  152.8666 N   0  3  2  0  0  0  0  0  0  0  0  0
  146.8539  139.4487  152.0306 C   0  0  0  0  0  0  0  0  0  0  0  0
  146.1737  138.3162  152.8250 C   0  0  0  0  0  0  0  0  0  0  0  0
  146.4853  137.0048  152.2674 N   0  0  0  0  0  0  0  0  0  0  0  0
  145.5746  136.0796  151.9315 C   0  0  0  0  0  0  0  0  0  0  0  0
  144.3624  136.2437  152.0731 O   0  0  0  0  0  0  0  0  0  0  0  0
  146.1581  134.9767  151.4308 N   0  0  0  0  0  0  0  0  0  0  0  0
  145.5353  133.7790  150.9913 C   0  0  0  0  0  0  0  0  0  0  0  0
  146.1606  132.8078  150.3156 N   0  0  0  0  0  0  0  0  0  0  0  0
  145.3036  131.7484  150.0071 C   0  0  0  0  0  0  0  0  0  0  0  0
  144.0201  131.9313  150.4583 C   0  0  0  0  0  0  0  0  0  0  0  0
  143.8346  133.4516  151.2912 S   0  0  0  0  0  0  0  0  0  0  0  0
  148.6035  139.4210  153.7909 C   0  0  0  0  0  0  0  0  0  0  0  0
  149.6324  140.2801  154.5480 C   0  0  0  0  0  0  0  0  0  0  0  0
  147.3960  140.3154  156.3374 H   0  0  0  0  0  0  0  0  0  0  0  0
  147.8139  141.8378  157.1125 H   0  0  0  0  0  0  0  0  0  0  0  0
  148.8919  140.4575  157.2512 H   0  0  0  0  0  0  0  0  0  0  0  0
  149.7703  142.1088  155.6484 H   0  0  0  0  0  0  0  0  0  0  0  0
  147.5459  143.0266  154.8811 H   0  0  0  0  0  0  0  0  0  0  0  0
  148.7127  142.7581  153.6152 H   0  0  0  0  0  0  0  0  0  0  0  0
  146.3531  140.9210  154.2773 H   0  0  0  0  0  0  0  0  0  0  0  0
  146.5286  141.9556  152.8774 H   0  0  0  0  0  0  0  0  0  0  0  0
  146.1106  140.1026  151.5718 H   0  0  0  0  0  0  0  0  0  0  0  0
  147.4164  139.0021  151.2094 H   0  0  0  0  0  0  0  0  0  0  0  0
  146.4718  138.3524  153.8743 H   0  0  0  0  0  0  0  0  0  0  0  0
  145.0899  138.4238  152.8062 H   0  0  0  0  0  0  0  0  0  0  0  0
  147.4607  136.7913  152.1168 H   0  0  0  0  0  0  0  0  0  0  0  0
  147.1648  134.9924  151.3573 H   0  0  0  0  0  0  0  0  0  0  0  0
  145.6922  130.9011  149.4616 H   0  0  0  0  0  0  0  0  0  0  0  0
  143.1759  131.2668  150.3506 H   0  0  0  0  0  0  0  0  0  0  0  0
  147.9516  138.9003  154.4933 H   0  0  0  0  0  0  0  0  0  0  0  0
  149.1379  138.6517  153.2353 H   0  0  0  0  0  0  0  0  0  0  0  0
  150.3510  140.6818  153.8323 H   0  0  0  0  0  0  0  0  0  0  0  0
  150.2072  139.6578  155.2349 H   0  0  0  0  0  0  0  0  0  0  0  0
  148.4234  140.7007  152.2281 H   0  0  0  0  0  0  0  0  0  0  0  0
  1  2  1  0  0  0  0
  1 19  1  0  0  0  0
  1 20  1  0  0  0  0
  1 21  1  0  0  0  0
  2 18  1  0  0  0  0
  2  3  1  0  0  0  0
  2 22  1  0  0  0  0
  3  4  1  0  0  0  0
  3 23  1  0  0  0  0
  3 24  1  0  0  0  0
  4  5  1  0  0  0  0
  4 25  1  0  0  0  0
  4 26  1  0  0  0  0
  5  6  1  0  0  0  0
  5 17  1  0  0  0  0
  5 39  1  0  0  0  0
  6  7  1  0  0  0  0
  6 27  1  0  0  0  0
  6 28  1  0  0  0  0
  7  8  1  0  0  0  0
  7 29  1  0  0  0  0
  7 30  1  0  0  0  0
  8  9  1  0  0  0  0
  8 31  1  0  0  0  0
  9 10  2  0  0  0  0
  9 11  1  0  0  0  0
 11 12  1  0  0  0  0
 11 32  1  0  0  0  0
 12 16  1  0  0  0  0
 12 13  2  0  0  0  0
 13 14  1  0  0  0  0
 14 15  2  0  0  0  0
 14 33  1  0  0  0  0
 15 16  1  0  0  0  0
 15 34  1  0  0  0  0
 17 18  1  0  0  0  0
 17 35  1  0  0  0  0
 17 36  1  0  0  0  0
 18 37  1  0  0  0  0
 18 38  1  0  0  0  0
M  CHG  1   5   1
M  END
> <s_m_source_file>
AV-unprocessed.smi

> <i_m_source_file_index>
2037

> <i_lp_mmshare_version>
43012

> <i_f3d_flags>
0

> <s_epik_input>
W0NIM11bQ0hdMVtDSDJdW0NIMl1OKFtDSDJdW0NIMl0xKVtDSDJdW0NIMl1bTkhdQyg9TylbTkhdYzJuW2NIXVtjSF1zMg==

> <s_epik_cmdline>
J2VwaWtfcHl0aG9uJywgJy1waCcsICc3LjAnLCAnLXRuJywgJzgnLCAnLW1hJywgJzIwMCcsICctbWV0YWxfYmluZGluZycsICctaW1hZScsICc8aW5maWxlLm1hZT4nLCAnLW9tYWUnLCAnPG91dGZpbGUubWFlPic=

> <r_lp_tautomer_probability>
0.999

> <r_epik_Ionization_Penalty>
0.00182893

> <r_epik_Ionization_Penalty_Charging>
0.00168873

> <r_epik_Ionization_Penalty_Neutral>
0.000140204

> <r_epik_State_Penalty>
0.00114045

> <r_epik_Charging_Adjusted_Penalty>
0.00282917

> <i_epik_Tot_Q>
1

> <i_epik_Tot_abs_Q>
1

> <r_epik_Metal_State_Penalty>
0.0569426

> <b_epik_Metal_Only>
0

> <s_lp_Force_Field>
OPLS_2005

> <r_lp_Energy>
15.966

> <b_lp_Chiralities_Consistent>
1

> <s_lp_Variant>
AV-unprocessed.smi:2037-2

> <Gold.Version>
5.8.1

> <Gold.Id.Protein>
6NUR|6NUR_protein|mol2

> <Gold.PLP.Fitness>
40.4467

> <Gold.PLP.PLP>
-32.7231

> <Gold.PLP.part.hbond>
-2.8873

> <Gold.PLP.part.metal>
0.0000

> <Gold.PLP.part.buried>
-0.2772

> <Gold.PLP.part.nonpolar>
-30.9196

> <Gold.PLP.part.repulsive>
0.6434

> <Gold.PLP.ligand.clash>
0.0000

> <Gold.PLP.ligand.torsion>
0.6607

> <Gold.PLP.Chemscore.Hbond>
2.2709

> <Gold.PLP.Chemscore.CHOScore>
0.7385

> <Gold.PLP.Chemscore.Metal>
0.0000

> <Gold.Chemscore.Hbonds>
donor molecule, donor type, donor heavy atom, donor atom, acceptor molecule, acceptor atom, score
      L1  H     5    39       P1  7957  0.64
      L1  H     8    31       P1  7948  1.00
      L1  H    11    32       P1  7948  0.56
      L1  C    15    34       P1 10952  0.71

> <Gold.PLP.Chemscore.Internal.Correction>
0.0166

> <Gold.Rescore>
     Score         DG    S(hbond)    S(metal)    S(lipo)     H(rot)  DE(clash)    DE(int)     intcor
     14.92     -18.85       2.43        0.00      79.87       1.60       2.06       1.86       ----

> <Gold.Chemscore.Fitness>
14.9239

> <Gold.Chemscore.DG>
-18.8483

> <Gold.Chemscore.ZeroCoef>
-5.4800

> <Gold.Chemscore.Hbond>
2.4312

> <Gold.Chemscore.Metal>
0.0000

> <Gold.Chemscore.Lipo>
79.8656

> <Gold.Chemscore.Internal_Hbond>
0.0000

> <Gold.Chemscore.DEClash>
2.0596

> <Gold.Chemscore.DEInternal>
1.8648

> <Gold.Chemscore.Rot>
1.6001

> <Gold.Chemscore.Internal.Correction>
   9.000000E+99

> <Gold.Chemscore.Hbonds>
donor molecule, donor type, donor heavy atom, donor atom, acceptor molecule, acceptor atom, score
      L1  H     5    39       P1  7957  0.64
      L1  H     8    31       P1  7948  0.99
      L1  H    11    32       P1  7948  0.38

> <Gold.Chemscore.Hbond.Weighted>
-8.1203

> <Gold.Chemscore.Metal.Weighted>
-0.0000

> <Gold.Chemscore.Lipo.Weighted>
-9.3443

> <Gold.Chemscore.Internal_Hbond.Weighted>
0.0000

> <Gold.Chemscore.DEClash.Weighted>
2.0596

> <Gold.Chemscore.DEInternal.Weighted>
1.8648

> <Gold.Chemscore.Rot.Weighted>
4.0963

> <Gold.Chemscore.Internal.Correction.Weighted>
   9.000000E+99

> <Gold.Protein.RotatedTorsions>
[ 6907 6896 6895 6894 ] final    6.21 input  -60.11 | X-H torsion
[ 7974 7965 7964 7962 ] final  -65.23 input  175.53 | X-H torsion
[ 8008 7997 7996 7995 ] final  114.74 input   59.86 | X-H torsion
[ 10167 10162 10161 10158 ] final -134.83 input  -65.29 | X-H torsion
[ 10718 10713 10712 10709 ] final  134.74 input   66.30 | X-H torsion
[ 10763 10752 10751 10750 ] final  159.30 input  -60.55 | X-H torsion
[ 11005 11000 10999 10996 ] final  179.25 input  -57.11 | X-H torsion

> <Gold.Protein.ActiveResidues>
 VAL166  LYS551  ARG553  GLY616  TRP617  ASP618  TYR619  PRO620  LYS621  CYS622 
 ASP623  PHE694  ASN695  SER759  ASP760  ASP761  ALA762  ILE779  LEU786  VAL792 
 PHE793  MET794  SER795  GLU796  ALA797  LYS798  CYS799  TRP800  GLU811  SER814 

> <Gold.Protein.RotatedAtoms>
  151.6699  135.0977  160.0195 H   0  0  0  0  0  0  0  0  0  0  0  0  # atno 6907 bound_to 6896
  152.3897  133.6657  159.6236 H   0  0  0  0  0  0  0  0  0  0  0  0  # atno 6908 bound_to 6896
  150.7815  133.8891  159.3349 H   0  0  0  0  0  0  0  0  0  0  0  0  # atno 6909 bound_to 6896
  145.7569  140.8881  143.0450 H   0  0  0  0  0  0  0  0  0  0  0  0  # atno 7974 bound_to 7965
  156.2340  140.2953  156.0262 H   0  0  0  0  0  0  0  0  0  0  0  0  # atno 8008 bound_to 7997
  155.2145  140.0413  157.2956 H   0  0  0  0  0  0  0  0  0  0  0  0  # atno 8009 bound_to 7997
  154.6045  140.2435  155.7756 H   0  0  0  0  0  0  0  0  0  0  0  0  # atno 8010 bound_to 7997
  139.8840  143.6804  152.2623 H   0  0  0  0  0  0  0  0  0  0  0  0  # atno 10167 bound_to 10162
  157.4642  131.1075  150.9883 H   0  0  0  0  0  0  0  0  0  0  0  0  # atno 10718 bound_to 10713
  154.2296  135.2779  155.2894 H   0  0  0  0  0  0  0  0  0  0  0  0  # atno 10763 bound_to 10752
  154.5634  135.5640  153.7032 H   0  0  0  0  0  0  0  0  0  0  0  0  # atno 10764 bound_to 10752
  153.0023  135.6303  154.2438 H   0  0  0  0  0  0  0  0  0  0  0  0  # atno 10765 bound_to 10752
  140.4041  134.6751  157.4578 H   0  0  0  0  0  0  0  0  0  0  0  0  # atno 11005 bound_to 11000
  144.6838  139.9668  143.7481 LP  0  0  0  0  0  0  0  0  0  0  0  0  # atno 17320 bound_to 7965
  146.0302  139.3328  143.0759 LP  0  0  0  0  0  0  0  0  0  0  0  0  # atno 17321 bound_to 7965
  139.7170  144.7610  151.1018 LP  0  0  0  0  0  0  0  0  0  0  0  0  # atno 17342 bound_to 10162
  140.7739  143.5257  150.9483 LP  0  0  0  0  0  0  0  0  0  0  0  0  # atno 17343 bound_to 10162
  157.0669  130.5848  149.5395 LP  0  0  0  0  0  0  0  0  0  0  0  0  # atno 17370 bound_to 10713
  156.0042  130.5127  150.7773 LP  0  0  0  0  0  0  0  0  0  0  0  0  # atno 17371 bound_to 10713
  140.0315  134.6399  155.9100 LP  0  0  0  0  0  0  0  0  0  0  0  0  # atno 17394 bound_to 11000
  141.1846  133.6553  156.5163 LP  0  0  0  0  0  0  0  0  0  0  0  0  # atno 17395 bound_to 11000

$$$$
