AV-unprocessed.smi:1795|AV-procd|sdf|7238|dock4
  -GOLD-   22720 8483D 1   1.00000     0.00000
 Structure written by MMmdl.
 47 48  0  0  0  0  0  0  0  0  1 V2000
  143.4113  141.0825  156.3951 C   0  0  0  0  0  0  0  0  0  0  0  0
  144.4783  142.1250  156.0449 C   0  0  1  0  0  0  0  0  0  0  0  0
  145.7756  141.4773  155.5247 C   0  0  0  0  0  0  0  0  0  0  0  0
  146.7847  142.4613  155.1177 N   0  0  0  0  0  0  0  0  0  0  0  0
  148.0173  141.8237  154.5978 C   0  0  2  0  0  0  0  0  0  0  0  0
  147.7232  140.6255  153.6596 C   0  0  0  0  0  0  0  0  0  0  0  0
  148.9903  141.3521  155.7179 C   0  0  0  0  0  0  0  0  0  0  0  0
  149.7807  142.4369  156.2937 N   0  0  0  0  0  0  0  0  0  0  0  0
  150.9762  142.2877  156.8840 C   0  0  0  0  0  0  0  0  0  0  0  0
  151.5341  141.1960  157.0069 O   0  0  0  0  0  0  0  0  0  0  0  0
  151.6202  143.5695  157.4317 C   0  0  0  0  0  0  0  0  0  0  0  0
  151.9735  143.4819  158.8586 N   0  0  0  0  0  0  0  0  0  0  0  0
  152.6929  142.3427  159.2720 C   0  0  0  0  0  0  0  0  0  0  0  0
  153.0709  142.1660  160.5479 C   0  0  0  0  0  0  0  0  0  0  0  0
  152.7204  143.1830  161.5106 C   0  0  0  0  0  0  0  0  0  0  0  0
  152.0353  144.2782  161.1254 C   0  0  0  0  0  0  0  0  0  0  0  0
  151.6229  144.4771  159.7309 C   0  0  0  0  0  0  0  0  0  0  0  0
  151.0014  145.4767  159.3693 O   0  0  0  0  0  0  0  0  0  0  0  0
  146.1627  143.3664  154.1447 C   0  0  0  0  0  0  0  0  0  0  0  0
  144.8611  144.0073  154.6631 C   0  0  1  0  0  0  0  0  0  0  0  0
  144.1846  144.8813  153.6014 C   0  0  0  0  0  0  0  0  0  0  0  0
  143.9515  142.9816  155.0400 O   0  0  0  0  0  0  0  0  0  0  0  0
  143.7639  140.4071  157.1752 H   0  0  0  0  0  0  0  0  0  0  0  0
  143.1463  140.4810  155.5252 H   0  0  0  0  0  0  0  0  0  0  0  0
  142.5020  141.5622  156.7578 H   0  0  0  0  0  0  0  0  0  0  0  0
  144.6963  142.7149  156.9370 H   0  0  0  0  0  0  0  0  0  0  0  0
  146.1590  140.8457  156.3240 H   0  0  0  0  0  0  0  0  0  0  0  0
  145.5431  140.8202  154.6851 H   0  0  0  0  0  0  0  0  0  0  0  0
  148.5483  142.5682  154.0028 H   0  0  0  0  0  0  0  0  0  0  0  0
  148.6314  140.1247  153.3263 H   0  0  0  0  0  0  0  0  0  0  0  0
  147.2174  140.9309  152.7448 H   0  0  0  0  0  0  0  0  0  0  0  0
  147.1020  139.8797  154.1564 H   0  0  0  0  0  0  0  0  0  0  0  0
  148.4666  140.8783  156.5468 H   0  0  0  0  0  0  0  0  0  0  0  0
  149.6771  140.6036  155.3215 H   0  0  0  0  0  0  0  0  0  0  0  0
  149.3891  143.3661  156.2379 H   0  0  0  0  0  0  0  0  0  0  0  0
  152.5050  143.8108  156.8394 H   0  0  0  0  0  0  0  0  0  0  0  0
  150.9292  144.3960  157.2607 H   0  0  0  0  0  0  0  0  0  0  0  0
  152.9219  141.6336  158.4897 H   0  0  0  0  0  0  0  0  0  0  0  0
  153.6262  141.2887  160.8456 H   0  0  0  0  0  0  0  0  0  0  0  0
  153.0099  143.0661  162.5445 H   0  0  0  0  0  0  0  0  0  0  0  0
  151.7829  145.0291  161.8598 H   0  0  0  0  0  0  0  0  0  0  0  0
  146.8355  144.1846  153.8968 H   0  0  0  0  0  0  0  0  0  0  0  0
  145.9611  142.8281  153.2170 H   0  0  0  0  0  0  0  0  0  0  0  0
  145.0810  144.6249  155.5357 H   0  0  0  0  0  0  0  0  0  0  0  0
  144.8390  145.6949  153.2874 H   0  0  0  0  0  0  0  0  0  0  0  0
  143.2665  145.3238  153.9887 H   0  0  0  0  0  0  0  0  0  0  0  0
  143.9262  144.2987  152.7166 H   0  0  0  0  0  0  0  0  0  0  0  0
  1  2  1  0  0  0  0
  1 23  1  0  0  0  0
  1 24  1  0  0  0  0
  1 25  1  0  0  0  0
  2 22  1  0  0  0  0
  2  3  1  0  0  0  0
  2 26  1  0  0  0  0
  3  4  1  0  0  0  0
  3 27  1  0  0  0  0
  3 28  1  0  0  0  0
  4  5  1  0  0  0  0
  4 19  1  0  0  0  0
  5  6  1  0  0  0  0
  5  7  1  0  0  0  0
  5 29  1  0  0  0  0
  6 30  1  0  0  0  0
  6 31  1  0  0  0  0
  6 32  1  0  0  0  0
  7  8  1  0  0  0  0
  7 33  1  0  0  0  0
  7 34  1  0  0  0  0
  8  9  1  0  0  0  0
  8 35  1  0  0  0  0
  9 10  2  0  0  0  0
  9 11  1  0  0  0  0
 11 12  1  0  0  0  0
 11 36  1  0  0  0  0
 11 37  1  0  0  0  0
 12 17  1  0  0  0  0
 12 13  1  0  0  0  0
 13 14  2  0  0  0  0
 13 38  1  0  0  0  0
 14 15  1  0  0  0  0
 14 39  1  0  0  0  0
 15 16  2  0  0  0  0
 15 40  1  0  0  0  0
 16 17  1  0  0  0  0
 16 41  1  0  0  0  0
 17 18  2  0  0  0  0
 19 20  1  0  0  0  0
 19 42  1  0  0  0  0
 19 43  1  0  0  0  0
 20 21  1  0  0  0  0
 20 22  1  0  0  0  0
 20 44  1  0  0  0  0
 21 45  1  0  0  0  0
 21 46  1  0  0  0  0
 21 47  1  0  0  0  0
M  END
> <s_m_source_file>
AV-unprocessed.smi

> <i_m_source_file_index>
1795

> <i_lp_mmshare_version>
43012

> <i_f3d_flags>
0

> <s_epik_input>
W0NIM11bQ0BASF0xW0NIMl1OKFtDSDJdW0NASF0oTzEpW0NIM10pW0NASF0oW0NIM10pW0NIMl1bTkhdQyg9TylbQ0gyXW4yW2NIXVtjSF1bY0hdW2NIXWMyPU8=

> <s_epik_cmdline>
J2VwaWtfcHl0aG9uJywgJy1waCcsICc3LjAnLCAnLXRuJywgJzgnLCAnLW1hJywgJzIwMCcsICctbWV0YWxfYmluZGluZycsICctaW1hZScsICc8aW5maWxlLm1hZT4nLCAnLW9tYWUnLCAnPG91dGZpbGUubWFlPic=

> <r_lp_tautomer_probability>
1

> <r_epik_Ionization_Penalty>
0.237383

> <r_epik_Ionization_Penalty_Charging>
3.58805e-07

> <r_epik_Ionization_Penalty_Neutral>
0.237382

> <r_epik_State_Penalty>
0.228245

> <r_epik_Charging_Adjusted_Penalty>
0.228245

> <i_epik_Tot_Q>
0

> <i_epik_Tot_abs_Q>
0

> <r_epik_Metal_State_Penalty>
0.228221

> <b_epik_Metal_Only>
0

> <s_lp_Force_Field>
OPLS_2005

> <r_lp_Energy>
36.5545

> <b_lp_Chiralities_Consistent>
1

> <s_lp_Variant>
AV-unprocessed.smi:1795-2

> <Gold.Version>
5.8.1

> <Gold.Id.Protein>
6NUR|6NUR_protein|mol2

> <Gold.PLP.Fitness>
48.5661

> <Gold.PLP.PLP>
-47.3994

> <Gold.PLP.part.hbond>
-1.8755

> <Gold.PLP.part.metal>
0.0000

> <Gold.PLP.part.buried>
-5.7090

> <Gold.PLP.part.nonpolar>
-41.2418

> <Gold.PLP.part.repulsive>
1.1331

> <Gold.PLP.ligand.clash>
0.0000

> <Gold.PLP.ligand.torsion>
0.9405

> <Gold.PLP.Chemscore.Hbond>
1.0000

> <Gold.PLP.Chemscore.CHOScore>
0.0000

> <Gold.PLP.Chemscore.Metal>
0.0000

> <Gold.Chemscore.Hbonds>
donor molecule, donor type, donor heavy atom, donor atom, acceptor molecule, acceptor atom, score
      L1  H     8    35       P1  8028  1.00

> <Gold.PLP.Chemscore.Internal.Correction>
0.0478

> <Gold.Rescore>
     Score         DG    S(hbond)    S(metal)    S(lipo)     H(rot)  DE(clash)    DE(int)     intcor
     13.66     -15.91       0.97        0.00     101.29       1.83       0.01       2.24       ----

> <Gold.Chemscore.Fitness>
13.6603

> <Gold.Chemscore.DG>
-15.9075

> <Gold.Chemscore.ZeroCoef>
-5.4800

> <Gold.Chemscore.Hbond>
0.9726

> <Gold.Chemscore.Metal>
0.0000

> <Gold.Chemscore.Lipo>
101.2930

> <Gold.Chemscore.Internal_Hbond>
0.0000

> <Gold.Chemscore.DEClash>
0.0086

> <Gold.Chemscore.DEInternal>
2.2385

> <Gold.Chemscore.Rot>
1.8251

> <Gold.Chemscore.Internal.Correction>
   9.000000E+99

> <Gold.Chemscore.Hbonds>
donor molecule, donor type, donor heavy atom, donor atom, acceptor molecule, acceptor atom, score
      L1  H     8    35       P1  8028  0.96

> <Gold.Chemscore.Hbond.Weighted>
-3.2485

> <Gold.Chemscore.Metal.Weighted>
-0.0000

> <Gold.Chemscore.Lipo.Weighted>
-11.8513

> <Gold.Chemscore.Internal_Hbond.Weighted>
0.0000

> <Gold.Chemscore.DEClash.Weighted>
0.0086

> <Gold.Chemscore.DEInternal.Weighted>
2.2385

> <Gold.Chemscore.Rot.Weighted>
4.6724

> <Gold.Chemscore.Internal.Correction.Weighted>
   9.000000E+99

> <Gold.Protein.RotatedTorsions>
[ 6907 6896 6895 6894 ] final  173.15 input  -60.11 | X-H torsion
[ 7974 7965 7964 7962 ] final  -68.13 input  175.53 | X-H torsion
[ 8008 7997 7996 7995 ] final  -28.17 input   59.86 | X-H torsion
[ 10167 10162 10161 10158 ] final  179.15 input  -65.29 | X-H torsion
[ 10718 10713 10712 10709 ] final   63.68 input   66.30 | X-H torsion
[ 10763 10752 10751 10750 ] final  -35.48 input  -60.55 | X-H torsion
[ 11005 11000 10999 10996 ] final   80.74 input  -57.11 | X-H torsion

> <Gold.Protein.ActiveResidues>
 VAL166  LYS551  ARG553  GLY616  TRP617  ASP618  TYR619  PRO620  LYS621  CYS622 
 ASP623  PHE694  ASN695  SER759  ASP760  ASP761  ALA762  ILE779  LEU786  VAL792 
 PHE793  MET794  SER795  GLU796  ALA797  LYS798  CYS799  TRP800  GLU811  SER814 

> <Gold.Protein.RotatedAtoms>
  151.7729  133.3343  159.3449 H   0  0  0  0  0  0  0  0  0  0  0  0  # atno 6907 bound_to 6896
  150.7455  134.6002  159.6042 H   0  0  0  0  0  0  0  0  0  0  0  0  # atno 6908 bound_to 6896
  152.3329  134.7238  160.0336 H   0  0  0  0  0  0  0  0  0  0  0  0  # atno 6909 bound_to 6896
  145.7204  140.9041  143.0633 H   0  0  0  0  0  0  0  0  0  0  0  0  # atno 7974 bound_to 7965
  154.4344  140.1852  156.1048 H   0  0  0  0  0  0  0  0  0  0  0  0  # atno 8008 bound_to 7997
  156.0264  140.3335  155.7067 H   0  0  0  0  0  0  0  0  0  0  0  0  # atno 8009 bound_to 7997
  155.5902  140.0630  157.2751 H   0  0  0  0  0  0  0  0  0  0  0  0  # atno 8010 bound_to 7997
  139.5324  144.2595  152.0718 H   0  0  0  0  0  0  0  0  0  0  0  0  # atno 10167 bound_to 10162
  157.5988  130.9118  149.9747 H   0  0  0  0  0  0  0  0  0  0  0  0  # atno 10718 bound_to 10713
  153.8639  135.6837  153.4780 H   0  0  0  0  0  0  0  0  0  0  0  0  # atno 10763 bound_to 10752
  153.1326  135.4691  154.9370 H   0  0  0  0  0  0  0  0  0  0  0  0  # atno 10764 bound_to 10752
  154.7746  135.3249  154.8069 H   0  0  0  0  0  0  0  0  0  0  0  0  # atno 10765 bound_to 10752
  139.9123  134.7944  156.1950 H   0  0  0  0  0  0  0  0  0  0  0  0  # atno 11005 bound_to 11000
  144.6918  139.9195  143.7467 LP  0  0  0  0  0  0  0  0  0  0  0  0  # atno 17320 bound_to 7965
  146.0630  139.3623  143.0569 LP  0  0  0  0  0  0  0  0  0  0  0  0  # atno 17321 bound_to 7965
  140.2061  144.4610  150.6408 LP  0  0  0  0  0  0  0  0  0  0  0  0  # atno 17342 bound_to 10162
  140.6510  143.2225  151.6077 LP  0  0  0  0  0  0  0  0  0  0  0  0  # atno 17343 bound_to 10162
  156.1056  130.3653  150.0140 LP  0  0  0  0  0  0  0  0  0  0  0  0  # atno 17370 bound_to 10713
  156.8248  130.9371  151.3640 LP  0  0  0  0  0  0  0  0  0  0  0  0  # atno 17371 bound_to 10713
  141.0560  133.6865  156.1862 LP  0  0  0  0  0  0  0  0  0  0  0  0  # atno 17394 bound_to 11000
  140.6735  134.4842  157.5588 LP  0  0  0  0  0  0  0  0  0  0  0  0  # atno 17395 bound_to 11000

$$$$
