AV-unprocessed.smi:3349|AV-procd|sdf|12936|dock4
  -GOLD-   2272019363D 1   1.00000     0.00000
 Structure written by MMmdl.
 41 42  0  0  0  0  0  0  0  0  2 V2000
  149.5481  132.7234  153.8562 C   0  0  0  0  0  0  0  0  0  0  0  0
  148.4493  133.6630  154.4136 C   0  0  1  0  0  0  0  0  0  0  0  0
  149.0799  134.7282  155.3507 C   0  0  0  0  0  0  0  0  0  0  0  0
  149.6718  135.8383  154.6130 N   0  0  0  0  0  0  0  0  0  0  0  0
  150.2091  136.9303  155.1772 C   0  0  0  0  0  0  0  0  0  0  0  0
  150.2845  137.0870  156.3964 O   0  0  0  0  0  0  0  0  0  0  0  0
  150.7276  138.0046  154.2085 C   0  0  2  0  0  0  0  0  0  0  0  0
  152.2368  138.2739  154.3580 C   0  0  0  0  0  0  0  0  0  0  0  0
  149.9589  139.2321  154.3640 N   0  0  0  0  0  0  0  0  0  0  0  0
  148.6536  139.4736  154.2115 C   0  0  0  0  0  0  0  0  0  0  0  0
  148.3132  140.7370  154.4234 N   0  0  0  0  0  0  0  0  0  0  0  0
  149.5401  141.2562  154.7252 C   0  0  0  0  0  0  0  0  0  0  0  0
  150.5604  140.3987  154.6992 N   0  0  0  0  0  0  0  0  0  0  0  0
  147.6427  134.2813  153.3074 N   0  3  0  0  0  0  0  0  0  0  0  0
  147.1765  133.2962  152.2907 C   0  0  0  0  0  0  0  0  0  0  0  0
  146.3745  133.9773  151.1691 C   0  0  0  0  0  0  0  0  0  0  0  0
  145.2711  134.6725  151.7265 O   0  0  0  0  0  0  0  0  0  0  0  0
  145.7038  135.7032  152.5993 C   0  0  0  0  0  0  0  0  0  0  0  0
  146.4872  135.0980  153.7767 C   0  0  0  0  0  0  0  0  0  0  0  0
  150.1847  132.3183  154.6425 H   0  0  0  0  0  0  0  0  0  0  0  0
  150.1951  133.2467  153.1517 H   0  0  0  0  0  0  0  0  0  0  0  0
  149.1336  131.8517  153.3527 H   0  0  0  0  0  0  0  0  0  0  0  0
  147.7688  133.0588  155.0161 H   0  0  0  0  0  0  0  0  0  0  0  0
  148.3248  135.1010  156.0453 H   0  0  0  0  0  0  0  0  0  0  0  0
  149.8907  134.3077  155.9440 H   0  0  0  0  0  0  0  0  0  0  0  0
  149.6499  135.7867  153.6045 H   0  0  0  0  0  0  0  0  0  0  0  0
  150.5626  137.6287  153.1967 H   0  0  0  0  0  0  0  0  0  0  0  0
  152.8171  137.3604  154.2233 H   0  0  0  0  0  0  0  0  0  0  0  0
  152.4810  138.6820  155.3396 H   0  0  0  0  0  0  0  0  0  0  0  0
  152.5784  138.9898  153.6098 H   0  0  0  0  0  0  0  0  0  0  0  0
  147.9400  138.7110  153.9356 H   0  0  0  0  0  0  0  0  0  0  0  0
  149.6862  142.2985  154.9680 H   0  0  0  0  0  0  0  0  0  0  0  0
  148.0160  132.7869  151.8216 H   0  0  0  0  0  0  0  0  0  0  0  0
  146.5646  132.5333  152.7744 H   0  0  0  0  0  0  0  0  0  0  0  0
  147.0044  134.6608  150.5972 H   0  0  0  0  0  0  0  0  0  0  0  0
  146.0010  133.2300  150.4687 H   0  0  0  0  0  0  0  0  0  0  0  0
  146.3136  136.4276  152.0566 H   0  0  0  0  0  0  0  0  0  0  0  0
  144.8301  136.2404  152.9688 H   0  0  0  0  0  0  0  0  0  0  0  0
  145.8271  134.4807  154.3881 H   0  0  0  0  0  0  0  0  0  0  0  0
  146.8203  135.9307  154.3933 H   0  0  0  0  0  0  0  0  0  0  0  0
  148.2605  134.9190  152.8257 H   0  0  0  0  0  0  0  0  0  0  0  0
  1  2  1  0  0  0  0
  1 20  1  0  0  0  0
  1 21  1  0  0  0  0
  1 22  1  0  0  0  0
  2  3  1  0  0  0  0
  2 14  1  0  0  0  0
  2 23  1  0  0  0  0
  3  4  1  0  0  0  0
  3 24  1  0  0  0  0
  3 25  1  0  0  0  0
  4  5  1  0  0  0  0
  4 26  1  0  0  0  0
  5  6  2  0  0  0  0
  5  7  1  0  0  0  0
  7  8  1  0  0  0  0
  7  9  1  0  0  0  0
  7 27  1  0  0  0  0
  8 28  1  0  0  0  0
  8 29  1  0  0  0  0
  8 30  1  0  0  0  0
  9 13  1  0  0  0  0
  9 10  1  0  0  0  0
 10 11  2  0  0  0  0
 10 31  1  0  0  0  0
 11 12  1  0  0  0  0
 12 13  2  0  0  0  0
 12 32  1  0  0  0  0
 14 19  1  0  0  0  0
 14 15  1  0  0  0  0
 14 41  1  0  0  0  0
 15 16  1  0  0  0  0
 15 33  1  0  0  0  0
 15 34  1  0  0  0  0
 16 17  1  0  0  0  0
 16 35  1  0  0  0  0
 16 36  1  0  0  0  0
 17 18  1  0  0  0  0
 18 19  1  0  0  0  0
 18 37  1  0  0  0  0
 18 38  1  0  0  0  0
 19 39  1  0  0  0  0
 19 40  1  0  0  0  0
M  CHG  1  14   1
M  END
> <s_m_source_file>
AV-unprocessed.smi

> <i_m_source_file_index>
3349

> <i_lp_mmshare_version>
43012

> <i_f3d_flags>
0

> <s_epik_input>
W0NIMl0xW0NIMl1PW0NIMl1bQ0gyXU4xW0NASF0oW0NIM10pW0NIMl1bTkhdQyg9TylbQ0BIXShbQ0gzXSluMltjSF1uW2NIXW4y

> <s_epik_cmdline>
J2VwaWtfcHl0aG9uJywgJy1waCcsICc3LjAnLCAnLXRuJywgJzgnLCAnLW1hJywgJzIwMCcsICctbWV0YWxfYmluZGluZycsICctaW1hZScsICc8aW5maWxlLm1hZT4nLCAnLW9tYWUnLCAnPG91dGZpbGUubWFlPic=

> <r_lp_tautomer_probability>
1

> <r_epik_Ionization_Penalty>
0.71326

> <r_epik_Ionization_Penalty_Charging>
0.713252

> <r_epik_Ionization_Penalty_Neutral>
8.10337e-06

> <r_epik_State_Penalty>
0.737017

> <r_epik_Charging_Adjusted_Penalty>
1.45027

> <i_epik_Tot_Q>
1

> <i_epik_Tot_abs_Q>
1

> <r_epik_Metal_State_Penalty>
0.73702

> <b_epik_Metal_Only>
0

> <s_lp_Force_Field>
OPLS_2005

> <r_lp_Energy>
26.8661

> <b_lp_Chiralities_Consistent>
1

> <s_lp_Variant>
AV-unprocessed.smi:3349-6

> <Gold.Version>
5.8.1

> <Gold.Id.Protein>
6NUR|6NUR_protein|mol2

> <Gold.PLP.Fitness>
46.3488

> <Gold.PLP.PLP>
-31.7827

> <Gold.PLP.part.hbond>
-3.0000

> <Gold.PLP.part.metal>
0.0000

> <Gold.PLP.part.buried>
-4.6901

> <Gold.PLP.part.nonpolar>
-24.2655

> <Gold.PLP.part.repulsive>
0.3865

> <Gold.PLP.ligand.clash>
0.0000

> <Gold.PLP.ligand.torsion>
0.2748

> <Gold.PLP.Chemscore.Hbond>
4.0000

> <Gold.PLP.Chemscore.CHOScore>
0.9970

> <Gold.PLP.Chemscore.Metal>
0.0000

> <Gold.Chemscore.Hbonds>
donor molecule, donor type, donor heavy atom, donor atom, acceptor molecule, acceptor atom, score
      L1  H     4    26       P1  7948  0.90
      L1  H    14    41       P1  7948  2.00
      P1  H  7989  7998       L1    13  1.00
      L1  C    12    32       P1  8028  0.74

> <Gold.PLP.Chemscore.Internal.Correction>
0.1248

> <Gold.Rescore>
     Score         DG    S(hbond)    S(metal)    S(lipo)     H(rot)  DE(clash)    DE(int)     intcor
     11.74     -12.16       2.46        0.00      44.49       2.63       0.00       0.42       ----

> <Gold.Chemscore.Fitness>
11.7410

> <Gold.Chemscore.DG>
-12.1578

> <Gold.Chemscore.ZeroCoef>
-5.4800

> <Gold.Chemscore.Hbond>
2.4590

> <Gold.Chemscore.Metal>
0.0000

> <Gold.Chemscore.Lipo>
44.4878

> <Gold.Chemscore.Internal_Hbond>
0.0000

> <Gold.Chemscore.DEClash>
0.0009

> <Gold.Chemscore.DEInternal>
0.4159

> <Gold.Chemscore.Rot>
2.6329

> <Gold.Chemscore.Internal.Correction>
   9.000000E+99

> <Gold.Chemscore.Hbonds>
donor molecule, donor type, donor heavy atom, donor atom, acceptor molecule, acceptor atom, score
      L1  H     4    26       P1  7948  0.18
      L1  H    14    41       P1  7948  0.74
      P1  H  7989  7998       L1    13  0.50

> <Gold.Chemscore.Hbond.Weighted>
-8.2131

> <Gold.Chemscore.Metal.Weighted>
-0.0000

> <Gold.Chemscore.Lipo.Weighted>
-5.2051

> <Gold.Chemscore.Internal_Hbond.Weighted>
0.0000

> <Gold.Chemscore.DEClash.Weighted>
0.0009

> <Gold.Chemscore.DEInternal.Weighted>
0.4159

> <Gold.Chemscore.Rot.Weighted>
6.7403

> <Gold.Chemscore.Internal.Correction.Weighted>
   9.000000E+99

> <Gold.Protein.RotatedTorsions>
[ 6907 6896 6895 6894 ] final  154.59 input  -60.11 | X-H torsion
[ 7974 7965 7964 7962 ] final   87.35 input  175.53 | X-H torsion
[ 8008 7997 7996 7995 ] final  -82.85 input   59.86 | X-H torsion
[ 10167 10162 10161 10158 ] final   37.71 input  -65.29 | X-H torsion
[ 10718 10713 10712 10709 ] final  176.35 input   66.30 | X-H torsion
[ 10763 10752 10751 10750 ] final  118.30 input  -60.55 | X-H torsion
[ 11005 11000 10999 10996 ] final   33.51 input  -57.11 | X-H torsion

> <Gold.Protein.ActiveResidues>
 VAL166  LYS551  ARG553  GLY616  TRP617  ASP618  TYR619  PRO620  LYS621  CYS622 
 ASP623  PHE694  ASN695  SER759  ASP760  ASP761  ALA762  ILE779  LEU786  VAL792 
 PHE793  MET794  SER795  GLU796  ALA797  LYS798  CYS799  TRP800  GLU811  SER814 

> <Gold.Protein.RotatedAtoms>
  152.0563  133.4041  159.4398 H   0  0  0  0  0  0  0  0  0  0  0  0  # atno 6907 bound_to 6896
  150.6868  134.3251  159.4812 H   0  0  0  0  0  0  0  0  0  0  0  0  # atno 6908 bound_to 6896
  152.1067  134.9303  160.0618 H   0  0  0  0  0  0  0  0  0  0  0  0  # atno 6909 bound_to 6896
  145.5601  139.2303  143.2464 H   0  0  0  0  0  0  0  0  0  0  0  0  # atno 7974 bound_to 7965
  154.6129  140.0627  156.9517 H   0  0  0  0  0  0  0  0  0  0  0  0  # atno 8008 bound_to 7997
  155.1943  140.3310  155.4335 H   0  0  0  0  0  0  0  0  0  0  0  0  # atno 8009 bound_to 7997
  156.2387  140.1875  156.7031 H   0  0  0  0  0  0  0  0  0  0  0  0  # atno 8010 bound_to 7997
  140.4006  144.1728  150.6133 H   0  0  0  0  0  0  0  0  0  0  0  0  # atno 10167 bound_to 10162
  156.9214  130.9942  151.3004 H   0  0  0  0  0  0  0  0  0  0  0  0  # atno 10718 bound_to 10713
  153.5656  135.3512  155.2817 H   0  0  0  0  0  0  0  0  0  0  0  0  # atno 10763 bound_to 10752
  154.8689  135.4147  154.2782 H   0  0  0  0  0  0  0  0  0  0  0  0  # atno 10764 bound_to 10752
  153.3537  135.7056  153.6837 H   0  0  0  0  0  0  0  0  0  0  0  0  # atno 10765 bound_to 10752
  140.2624  134.3177  155.7853 H   0  0  0  0  0  0  0  0  0  0  0  0  # atno 11005 bound_to 11000
  146.1857  140.6426  142.9169 LP  0  0  0  0  0  0  0  0  0  0  0  0  # atno 17320 bound_to 7965
  144.7487  140.5135  143.6817 LP  0  0  0  0  0  0  0  0  0  0  0  0  # atno 17321 bound_to 7965
  140.4743  143.2401  151.9045 LP  0  0  0  0  0  0  0  0  0  0  0  0  # atno 17342 bound_to 10162
  139.4785  144.5337  151.8630 LP  0  0  0  0  0  0  0  0  0  0  0  0  # atno 17343 bound_to 10162
  157.5905  130.8440  149.8652 LP  0  0  0  0  0  0  0  0  0  0  0  0  # atno 17370 bound_to 10713
  156.0489  130.3722  150.1249 LP  0  0  0  0  0  0  0  0  0  0  0  0  # atno 17371 bound_to 10713
  141.2188  133.7417  156.9207 LP  0  0  0  0  0  0  0  0  0  0  0  0  # atno 17394 bound_to 11000
  140.1452  134.9267  157.2520 LP  0  0  0  0  0  0  0  0  0  0  0  0  # atno 17395 bound_to 11000

$$$$
