AV-unprocessed.smi:322|AV-procd|sdf|2336|dock9
  -GOLD-   2262022243D 1   1.00000     0.00000
 Structure written by MMmdl.
 43 45  0  0  0  0  0  0  0  0  1 V2000
  149.1215  142.7430  154.6102 O   0  0  0  0  0  0  0  0  0  0  0  0
  149.6537  141.5347  155.1147 C   0  0  0  0  0  0  0  0  0  0  0  0
  150.5960  141.7215  156.2703 C   0  0  0  0  0  0  0  0  0  0  0  0
  151.0057  142.9225  156.6855 N   0  0  0  0  0  0  0  0  0  0  0  0
  151.8261  142.6153  157.7529 C   0  0  0  0  0  0  0  0  0  0  0  0
  152.5661  143.4559  158.6150 C   0  0  0  0  0  0  0  0  0  0  0  0
  153.3459  142.9048  159.6530 C   0  0  0  0  0  0  0  0  0  0  0  0
  153.3965  141.5089  159.8439 C   0  0  0  0  0  0  0  0  0  0  0  0
  152.6664  140.6537  158.9965 C   0  0  0  0  0  0  0  0  0  0  0  0
  151.8898  141.2089  157.9616 C   0  0  0  0  0  0  0  0  0  0  0  0
  151.0741  140.6646  156.9742 N   0  0  0  0  0  0  0  0  0  0  0  0
  150.8022  139.2490  156.7659 C   0  0  0  0  0  0  0  0  0  0  0  0
  151.2307  138.7614  155.3661 C   0  0  1  0  0  0  0  0  0  0  0  0
  152.4036  139.4139  154.9224 O   0  0  0  0  0  0  0  0  0  0  0  0
  151.4386  137.2404  155.2840 C   0  0  0  0  0  0  0  0  0  0  0  0
  150.1982  136.5722  155.4503 O   0  0  0  0  0  0  0  0  0  0  0  0
  150.2792  135.4578  156.3233 C   0  0  0  0  0  0  0  0  0  0  0  0
  149.5754  134.2387  155.7575 C   0  0  0  0  0  0  0  0  0  0  0  0
  148.7248  134.3581  154.6370 C   0  0  0  0  0  0  0  0  0  0  0  0
  148.0863  133.2197  154.1075 C   0  0  0  0  0  0  0  0  0  0  0  0
  148.3004  131.9560  154.6914 C   0  0  0  0  0  0  0  0  0  0  0  0
  147.5176  130.5616  154.0434 Cl  0  0  0  0  0  0  0  0  0  0  0  0
  149.1563  131.8310  155.8029 C   0  0  0  0  0  0  0  0  0  0  0  0
  149.7952  132.9692  156.3324 C   0  0  0  0  0  0  0  0  0  0  0  0
  149.1624  143.3975  155.2905 H   0  0  0  0  0  0  0  0  0  0  0  0
  148.8315  140.8927  155.4316 H   0  0  0  0  0  0  0  0  0  0  0  0
  150.1667  141.0281  154.2979 H   0  0  0  0  0  0  0  0  0  0  0  0
  152.5336  144.5263  158.4771 H   0  0  0  0  0  0  0  0  0  0  0  0
  153.9082  143.5565  160.3057 H   0  0  0  0  0  0  0  0  0  0  0  0
  153.9965  141.0946  160.6408 H   0  0  0  0  0  0  0  0  0  0  0  0
  152.7050  139.5837  159.1383 H   0  0  0  0  0  0  0  0  0  0  0  0
  151.3206  138.6849  157.5424 H   0  0  0  0  0  0  0  0  0  0  0  0
  149.7388  139.0655  156.9226 H   0  0  0  0  0  0  0  0  0  0  0  0
  150.4539  139.0266  154.6488 H   0  0  0  0  0  0  0  0  0  0  0  0
  153.1400  139.0662  155.4023 H   0  0  0  0  0  0  0  0  0  0  0  0
  151.8464  136.9885  154.3038 H   0  0  0  0  0  0  0  0  0  0  0  0
  152.1634  136.9074  156.0289 H   0  0  0  0  0  0  0  0  0  0  0  0
  151.3237  135.1992  156.5022 H   0  0  0  0  0  0  0  0  0  0  0  0
  149.8358  135.7155  157.2867 H   0  0  0  0  0  0  0  0  0  0  0  0
  148.5580  135.3221  154.1788 H   0  0  0  0  0  0  0  0  0  0  0  0
  147.4342  133.3175  153.2521 H   0  0  0  0  0  0  0  0  0  0  0  0
  149.3254  130.8624  156.2499 H   0  0  0  0  0  0  0  0  0  0  0  0
  150.4533  132.8643  157.1825 H   0  0  0  0  0  0  0  0  0  0  0  0
  1  2  1  0  0  0  0
  1 25  1  0  0  0  0
  2  3  1  0  0  0  0
  2 26  1  0  0  0  0
  2 27  1  0  0  0  0
  3 11  1  0  0  0  0
  3  4  2  0  0  0  0
  4  5  1  0  0  0  0
  5 10  2  0  0  0  0
  5  6  1  0  0  0  0
  6  7  2  0  0  0  0
  6 28  1  0  0  0  0
  7  8  1  0  0  0  0
  7 29  1  0  0  0  0
  8  9  2  0  0  0  0
  8 30  1  0  0  0  0
  9 10  1  0  0  0  0
  9 31  1  0  0  0  0
 10 11  1  0  0  0  0
 11 12  1  0  0  0  0
 12 13  1  0  0  0  0
 12 32  1  0  0  0  0
 12 33  1  0  0  0  0
 13 14  1  0  0  0  0
 13 15  1  0  0  0  0
 13 34  1  0  0  0  0
 14 35  1  0  0  0  0
 15 16  1  0  0  0  0
 15 36  1  0  0  0  0
 15 37  1  0  0  0  0
 16 17  1  0  0  0  0
 17 18  1  0  0  0  0
 17 38  1  0  0  0  0
 17 39  1  0  0  0  0
 18 24  1  0  0  0  0
 18 19  2  0  0  0  0
 19 20  1  0  0  0  0
 19 40  1  0  0  0  0
 20 21  2  0  0  0  0
 20 41  1  0  0  0  0
 21 22  1  0  0  0  0
 21 23  1  0  0  0  0
 23 24  2  0  0  0  0
 23 42  1  0  0  0  0
 24 43  1  0  0  0  0
M  END
> <s_m_source_file>
AV-unprocessed.smi

> <i_m_source_file_index>
322

> <i_lp_mmshare_version>
43012

> <i_f3d_flags>
0

> <s_epik_input>
W2NIXTFbY0hdW2NIXVtjSF1jKGMxMiluKGMobjIpW0NIMl1bT0hdKVtDSDJdW0NASF0oW09IXSlbQ0gyXU9bQ0gyXWMzW2NIXVtjSF1jKENsKVtjSF1bY0hdMw==

> <s_epik_cmdline>
J2VwaWtfcHl0aG9uJywgJy1waCcsICc3LjAnLCAnLXRuJywgJzgnLCAnLW1hJywgJzIwMCcsICctbWV0YWxfYmluZGluZycsICctaW1hZScsICc8aW5maWxlLm1hZT4nLCAnLW9tYWUnLCAnPG91dGZpbGUubWFlPic=

> <r_epik_Ionization_Penalty>
0.0649918

> <r_epik_Ionization_Penalty_Charging>
0

> <r_epik_Ionization_Penalty_Neutral>
0.0649918

> <r_epik_State_Penalty>
0.0565791

> <r_epik_Charging_Adjusted_Penalty>
0.0565791

> <i_epik_Tot_Q>
0

> <i_epik_Tot_abs_Q>
0

> <r_epik_Metal_State_Penalty>
5.93658e-05

> <b_epik_Metal_Only>
0

> <s_lp_Force_Field>
OPLS_2005

> <r_lp_Energy>
15.9671

> <b_lp_Chiralities_Consistent>
1

> <s_lp_Variant>
AV-unprocessed.smi:322-2

> <Gold.Version>
5.8.1

> <Gold.Id.Protein>
6NUR|6NUR_protein|mol2

> <Gold.PLP.Fitness>
51.8166

> <Gold.PLP.PLP>
-49.0755

> <Gold.PLP.part.hbond>
-3.2440

> <Gold.PLP.part.metal>
0.0000

> <Gold.PLP.part.buried>
-5.5966

> <Gold.PLP.part.nonpolar>
-44.0418

> <Gold.PLP.part.repulsive>
3.0655

> <Gold.PLP.ligand.clash>
0.0000

> <Gold.PLP.ligand.torsion>
1.1344

> <Gold.PLP.Chemscore.Hbond>
1.6276

> <Gold.PLP.Chemscore.CHOScore>
0.0000

> <Gold.PLP.Chemscore.Metal>
0.0000

> <Gold.Chemscore.Hbonds>
donor molecule, donor type, donor heavy atom, donor atom, acceptor molecule, acceptor atom, score
      L1  H     1    25       P1  8028  0.59
      P1  H  7989  7998       L1    14  0.51

> <Gold.PLP.Chemscore.Internal.Correction>
0.1272

> <Gold.Rescore>
     Score         DG    S(hbond)    S(metal)    S(lipo)     H(rot)  DE(clash)    DE(int)     intcor
     14.95     -17.22       1.64        0.00     122.01       3.13       1.13       1.13       ----

> <Gold.Chemscore.Fitness>
14.9544

> <Gold.Chemscore.DG>
-17.2238

> <Gold.Chemscore.ZeroCoef>
-5.4800

> <Gold.Chemscore.Hbond>
1.6440

> <Gold.Chemscore.Metal>
0.0000

> <Gold.Chemscore.Lipo>
122.0093

> <Gold.Chemscore.Internal_Hbond>
0.0000

> <Gold.Chemscore.DEClash>
1.1346

> <Gold.Chemscore.DEInternal>
1.1348

> <Gold.Chemscore.Rot>
3.1337

> <Gold.Chemscore.Internal.Correction>
   9.000000E+99

> <Gold.Chemscore.Hbonds>
donor molecule, donor type, donor heavy atom, donor atom, acceptor molecule, acceptor atom, score
      L1  H     1    25       P1  8028  0.57
      P1  H  7989  7998       L1    14  0.22

> <Gold.Chemscore.Hbond.Weighted>
-5.4911

> <Gold.Chemscore.Metal.Weighted>
-0.0000

> <Gold.Chemscore.Lipo.Weighted>
-14.2751

> <Gold.Chemscore.Internal_Hbond.Weighted>
0.0000

> <Gold.Chemscore.DEClash.Weighted>
1.1346

> <Gold.Chemscore.DEInternal.Weighted>
1.1348

> <Gold.Chemscore.Rot.Weighted>
8.0224

> <Gold.Chemscore.Internal.Correction.Weighted>
   9.000000E+99

> <Gold.Protein.RotatedTorsions>
[ 6907 6896 6895 6894 ] final -115.42 input  -60.11 | X-H torsion
[ 7974 7965 7964 7962 ] final  -13.04 input  175.53 | X-H torsion
[ 8008 7997 7996 7995 ] final   -8.37 input   59.86 | X-H torsion
[ 10167 10162 10161 10158 ] final   75.50 input  -65.29 | X-H torsion
[ 10718 10713 10712 10709 ] final   74.77 input   66.30 | X-H torsion
[ 10763 10752 10751 10750 ] final  104.65 input  -60.55 | X-H torsion
[ 11005 11000 10999 10996 ] final  -75.69 input  -57.11 | X-H torsion

> <Gold.Protein.ActiveResidues>
 VAL166  LYS551  ARG553  GLY616  TRP617  ASP618  TYR619  PRO620  LYS621  CYS622 
 ASP623  PHE694  ASN695  SER759  ASP760  ASP761  ALA762  ILE779  LEU786  VAL792 
 PHE793  MET794  SER795  GLU796  ALA797  LYS798  CYS799  TRP800  GLU811  SER814 

> <Gold.Protein.RotatedAtoms>
  150.7976  133.8661  159.3245 H   0  0  0  0  0  0  0  0  0  0  0  0  # atno 6907 bound_to 6896
  151.6482  135.1003  160.0165 H   0  0  0  0  0  0  0  0  0  0  0  0  # atno 6908 bound_to 6896
  152.4060  133.6850  159.6392 H   0  0  0  0  0  0  0  0  0  0  0  0  # atno 6909 bound_to 6896
  146.2129  140.3145  142.8385 H   0  0  0  0  0  0  0  0  0  0  0  0  # atno 7974 bound_to 7965
  154.5748  140.2383  155.8139 H   0  0  0  0  0  0  0  0  0  0  0  0  # atno 8008 bound_to 7997
  156.2134  140.3019  155.9742 H   0  0  0  0  0  0  0  0  0  0  0  0  # atno 8009 bound_to 7997
  155.2647  140.0416  157.2991 H   0  0  0  0  0  0  0  0  0  0  0  0  # atno 8010 bound_to 7997
  140.0022  144.5677  150.7727 H   0  0  0  0  0  0  0  0  0  0  0  0  # atno 10167 bound_to 10162
  157.6606  130.9694  150.1258 H   0  0  0  0  0  0  0  0  0  0  0  0  # atno 10718 bound_to 10713
  153.3688  135.3936  155.1773 H   0  0  0  0  0  0  0  0  0  0  0  0  # atno 10763 bound_to 10752
  154.8691  135.3697  154.5004 H   0  0  0  0  0  0  0  0  0  0  0  0  # atno 10764 bound_to 10752
  153.5470  135.7083  153.5670 H   0  0  0  0  0  0  0  0  0  0  0  0  # atno 10765 bound_to 10752
  141.1647  133.6956  156.7555 H   0  0  0  0  0  0  0  0  0  0  0  0  # atno 11005 bound_to 11000
  144.8964  140.7588  143.5894 LP  0  0  0  0  0  0  0  0  0  0  0  0  # atno 17320 bound_to 7965
  145.3069  139.1831  143.4659 LP  0  0  0  0  0  0  0  0  0  0  0  0  # atno 17321 bound_to 7965
  140.7414  143.2818  151.3578 LP  0  0  0  0  0  0  0  0  0  0  0  0  # atno 17342 bound_to 10162
  139.6263  144.0807  152.2437 LP  0  0  0  0  0  0  0  0  0  0  0  0  # atno 17343 bound_to 10162
  156.2117  130.3667  149.8662 LP  0  0  0  0  0  0  0  0  0  0  0  0  # atno 17370 bound_to 10713
  156.6539  130.8754  151.3536 LP  0  0  0  0  0  0  0  0  0  0  0  0  # atno 17371 bound_to 10713
  140.2572  134.8494  157.3724 LP  0  0  0  0  0  0  0  0  0  0  0  0  # atno 17394 bound_to 11000
  140.1645  134.4686  155.7872 LP  0  0  0  0  0  0  0  0  0  0  0  0  # atno 17395 bound_to 11000

$$$$
