AV-unprocessed.smi:3232|AV-procd|sdf|12341|dock10
  -GOLD-   2272018203D 1   1.00000     0.00000
 Structure written by MMmdl.
 40 41  0  0  0  0  0  0  0  0  2 V2000
  147.2562  142.3468  154.0335 C   0  0  0  0  0  0  0  0  0  0  0  0
  147.4301  140.8304  153.8689 C   0  0  0  0  0  0  0  0  0  0  0  0
  148.8498  140.4111  153.9747 N   0  3  2  0  0  0  0  0  0  0  0  0
  149.0527  138.9580  154.1722 C   0  0  0  0  0  0  0  0  0  0  0  0
  150.3956  138.7999  154.8991 C   0  0  0  0  0  0  0  0  0  0  0  0
  150.9657  140.2154  154.9822 C   0  0  0  0  0  0  0  0  0  0  0  0
  149.7248  141.1169  154.9448 C   0  0  2  0  0  0  0  0  0  0  0  0
  149.0634  141.3187  156.3346 C   0  0  0  0  0  0  0  0  0  0  0  0
  149.7540  142.3230  157.1383 N   0  0  0  0  0  0  0  0  0  0  0  0
  150.5296  142.0681  158.2047 C   0  0  0  0  0  0  0  0  0  0  0  0
  150.7574  140.9290  158.6135 O   0  0  0  0  0  0  0  0  0  0  0  0
  151.1419  143.2869  158.9101 C   0  0  2  0  0  0  0  0  0  0  0  0
  151.9233  144.1911  157.9358 C   0  0  0  0  0  0  0  0  0  0  0  0
  151.9534  142.8547  160.0415 N   0  0  0  0  0  0  0  0  0  0  0  0
  153.1290  142.2225  160.0602 C   0  0  0  0  0  0  0  0  0  0  0  0
  153.6161  142.0245  161.2771 N   0  0  0  0  0  0  0  0  0  0  0  0
  152.6280  142.6110  162.0158 C   0  0  0  0  0  0  0  0  0  0  0  0
  151.6152  143.1341  161.3253 N   0  0  0  0  0  0  0  0  0  0  0  0
  146.2167  142.6339  153.8738 H   0  0  0  0  0  0  0  0  0  0  0  0
  147.8636  142.8936  153.3117 H   0  0  0  0  0  0  0  0  0  0  0  0
  147.5383  142.6818  155.0317 H   0  0  0  0  0  0  0  0  0  0  0  0
  146.8063  140.2871  154.5792 H   0  0  0  0  0  0  0  0  0  0  0  0
  147.0703  140.5502  152.8780 H   0  0  0  0  0  0  0  0  0  0  0  0
  148.2501  138.5335  154.7776 H   0  0  0  0  0  0  0  0  0  0  0  0
  149.0490  138.4493  153.2079 H   0  0  0  0  0  0  0  0  0  0  0  0
  150.2299  138.4051  155.9027 H   0  0  0  0  0  0  0  0  0  0  0  0
  151.0712  138.1170  154.3830 H   0  0  0  0  0  0  0  0  0  0  0  0
  151.6106  140.3633  155.8474 H   0  0  0  0  0  0  0  0  0  0  0  0
  151.5747  140.4071  154.0975 H   0  0  0  0  0  0  0  0  0  0  0  0
  149.9918  142.0941  154.5400 H   0  0  0  0  0  0  0  0  0  0  0  0
  148.0426  141.6810  156.2191 H   0  0  0  0  0  0  0  0  0  0  0  0
  148.9872  140.3711  156.8706 H   0  0  0  0  0  0  0  0  0  0  0  0
  149.6226  143.2882  156.8718 H   0  0  0  0  0  0  0  0  0  0  0  0
  150.3239  143.8849  159.3161 H   0  0  0  0  0  0  0  0  0  0  0  0
  151.2806  144.5434  157.1281 H   0  0  0  0  0  0  0  0  0  0  0  0
  152.7693  143.6743  157.4810 H   0  0  0  0  0  0  0  0  0  0  0  0
  152.3119  145.0707  158.4493 H   0  0  0  0  0  0  0  0  0  0  0  0
  153.6410  141.9035  159.1642 H   0  0  0  0  0  0  0  0  0  0  0  0
  152.6596  142.6608  163.0942 H   0  0  0  0  0  0  0  0  0  0  0  0
  149.2615  140.6038  153.0727 H   0  0  0  0  0  0  0  0  0  0  0  0
  1  2  1  0  0  0  0
  1 19  1  0  0  0  0
  1 20  1  0  0  0  0
  1 21  1  0  0  0  0
  2  3  1  0  0  0  0
  2 22  1  0  0  0  0
  2 23  1  0  0  0  0
  3  7  1  0  0  0  0
  3  4  1  0  0  0  0
  3 40  1  0  0  0  0
  4  5  1  0  0  0  0
  4 24  1  0  0  0  0
  4 25  1  0  0  0  0
  5  6  1  0  0  0  0
  5 26  1  0  0  0  0
  5 27  1  0  0  0  0
  6  7  1  0  0  0  0
  6 28  1  0  0  0  0
  6 29  1  0  0  0  0
  7  8  1  0  0  0  0
  7 30  1  0  0  0  0
  8  9  1  0  0  0  0
  8 31  1  0  0  0  0
  8 32  1  0  0  0  0
  9 10  1  0  0  0  0
  9 33  1  0  0  0  0
 10 11  2  0  0  0  0
 10 12  1  0  0  0  0
 12 13  1  0  0  0  0
 12 14  1  0  0  0  0
 12 34  1  0  0  0  0
 13 35  1  0  0  0  0
 13 36  1  0  0  0  0
 13 37  1  0  0  0  0
 14 18  1  0  0  0  0
 14 15  1  0  0  0  0
 15 16  2  0  0  0  0
 15 38  1  0  0  0  0
 16 17  1  0  0  0  0
 17 18  2  0  0  0  0
 17 39  1  0  0  0  0
M  CHG  1   3   1
M  END
> <s_m_source_file>
AV-unprocessed.smi

> <i_m_source_file_index>
3232

> <i_lp_mmshare_version>
43012

> <i_f3d_flags>
0

> <s_epik_input>
W0NIM11bQ0gyXU4xW0NIMl1bQ0gyXVtDSDJdW0NASF0xW0NIMl1bTkhdQyg9TylbQ0BIXShbQ0gzXSluMltjSF1uW2NIXW4y

> <s_epik_cmdline>
J2VwaWtfcHl0aG9uJywgJy1waCcsICc3LjAnLCAnLXRuJywgJzgnLCAnLW1hJywgJzIwMCcsICctbWV0YWxfYmluZGluZycsICctaW1hZScsICc8aW5maWxlLm1hZT4nLCAnLW9tYWUnLCAnPG91dGZpbGUubWFlPic=

> <r_lp_tautomer_probability>
1

> <r_epik_Ionization_Penalty>
0.00177695

> <r_epik_Ionization_Penalty_Charging>
0.00176881

> <r_epik_Ionization_Penalty_Neutral>
8.13528e-06

> <r_epik_State_Penalty>
0.00119827

> <r_epik_Charging_Adjusted_Penalty>
0.00296709

> <i_epik_Tot_Q>
1

> <i_epik_Tot_abs_Q>
1

> <r_epik_Metal_State_Penalty>
-0

> <b_epik_Metal_Only>
0

> <s_lp_Force_Field>
OPLS_2005

> <r_lp_Energy>
38.6691

> <b_lp_Chiralities_Consistent>
1

> <s_lp_Variant>
AV-unprocessed.smi:3232-3

> <Gold.Version>
5.8.1

> <Gold.Id.Protein>
6NUR|6NUR_protein|mol2

> <Gold.PLP.Fitness>
45.7727

> <Gold.PLP.PLP>
-40.3583

> <Gold.PLP.part.hbond>
-3.0000

> <Gold.PLP.part.metal>
0.0000

> <Gold.PLP.part.buried>
-2.4358

> <Gold.PLP.part.nonpolar>
-35.3340

> <Gold.PLP.part.repulsive>
0.2889

> <Gold.PLP.ligand.clash>
0.0000

> <Gold.PLP.ligand.torsion>
0.5328

> <Gold.PLP.Chemscore.Hbond>
2.1154

> <Gold.PLP.Chemscore.CHOScore>
0.0000

> <Gold.PLP.Chemscore.Metal>
0.0000

> <Gold.Chemscore.Hbonds>
donor molecule, donor type, donor heavy atom, donor atom, acceptor molecule, acceptor atom, score
      L1  H     3    40       P1  7957  0.99
      L1  H     9    33       P1  8028  1.00
      P1  H  6933  6945       L1    18  0.14

> <Gold.PLP.Chemscore.Internal.Correction>
0.1340

> <Gold.Rescore>
     Score         DG    S(hbond)    S(metal)    S(lipo)     H(rot)  DE(clash)    DE(int)     intcor
     12.11     -14.09       1.99        0.00      71.05       2.49       1.44       0.54       ----

> <Gold.Chemscore.Fitness>
12.1085

> <Gold.Chemscore.DG>
-14.0852

> <Gold.Chemscore.ZeroCoef>
-5.4800

> <Gold.Chemscore.Hbond>
1.9945

> <Gold.Chemscore.Metal>
0.0000

> <Gold.Chemscore.Lipo>
71.0533

> <Gold.Chemscore.Internal_Hbond>
0.0000

> <Gold.Chemscore.DEClash>
1.4379

> <Gold.Chemscore.DEInternal>
0.5388

> <Gold.Chemscore.Rot>
2.4882

> <Gold.Chemscore.Internal.Correction>
   9.000000E+99

> <Gold.Chemscore.Hbonds>
donor molecule, donor type, donor heavy atom, donor atom, acceptor molecule, acceptor atom, score
      L1  H     3    40       P1  7957  0.89
      L1  H     9    33       P1  8028  0.92
      P1  H  6933  6945       L1    18  0.02

> <Gold.Chemscore.Hbond.Weighted>
-6.6617

> <Gold.Chemscore.Metal.Weighted>
-0.0000

> <Gold.Chemscore.Lipo.Weighted>
-8.3132

> <Gold.Chemscore.Internal_Hbond.Weighted>
0.0000

> <Gold.Chemscore.DEClash.Weighted>
1.4379

> <Gold.Chemscore.DEInternal.Weighted>
0.5388

> <Gold.Chemscore.Rot.Weighted>
6.3697

> <Gold.Chemscore.Internal.Correction.Weighted>
   9.000000E+99

> <Gold.Protein.RotatedTorsions>
[ 6907 6896 6895 6894 ] final  155.02 input  -60.11 | X-H torsion
[ 7974 7965 7964 7962 ] final -118.59 input  175.53 | X-H torsion
[ 8008 7997 7996 7995 ] final  114.06 input   59.86 | X-H torsion
[ 10167 10162 10161 10158 ] final  -45.26 input  -65.29 | X-H torsion
[ 10718 10713 10712 10709 ] final  -18.43 input   66.30 | X-H torsion
[ 10763 10752 10751 10750 ] final -147.79 input  -60.55 | X-H torsion
[ 11005 11000 10999 10996 ] final  -14.79 input  -57.11 | X-H torsion

> <Gold.Protein.ActiveResidues>
 VAL166  LYS551  ARG553  GLY616  TRP617  ASP618  TYR619  PRO620  LYS621  CYS622 
 ASP623  PHE694  ASN695  SER759  ASP760  ASP761  ALA762  ILE779  LEU786  VAL792 
 PHE793  MET794  SER795  GLU796  ALA797  LYS798  CYS799  TRP800  GLU811  SER814 

> <Gold.Protein.RotatedAtoms>
  152.0501  133.4015  159.4373 H   0  0  0  0  0  0  0  0  0  0  0  0  # atno 6907 bound_to 6896
  150.6870  134.3318  159.4839 H   0  0  0  0  0  0  0  0  0  0  0  0  # atno 6908 bound_to 6896
  152.1126  134.9263  160.0616 H   0  0  0  0  0  0  0  0  0  0  0  0  # atno 6909 bound_to 6896
  145.0721  140.8366  143.4089 H   0  0  0  0  0  0  0  0  0  0  0  0  # atno 7974 bound_to 7965
  156.2298  140.2967  156.0158 H   0  0  0  0  0  0  0  0  0  0  0  0  # atno 8008 bound_to 7997
  155.2257  140.0417  157.2972 H   0  0  0  0  0  0  0  0  0  0  0  0  # atno 8009 bound_to 7997
  154.5976  140.2418  155.7844 H   0  0  0  0  0  0  0  0  0  0  0  0  # atno 8010 bound_to 7997
  140.6865  143.2888  151.3614 H   0  0  0  0  0  0  0  0  0  0  0  0  # atno 10167 bound_to 10162
  156.5597  130.4722  149.6412 H   0  0  0  0  0  0  0  0  0  0  0  0  # atno 10718 bound_to 10713
  154.8267  135.3351  154.6873 H   0  0  0  0  0  0  0  0  0  0  0  0  # atno 10763 bound_to 10752
  153.7497  135.6940  153.4953 H   0  0  0  0  0  0  0  0  0  0  0  0  # atno 10764 bound_to 10752
  153.2185  135.4457  155.0412 H   0  0  0  0  0  0  0  0  0  0  0  0  # atno 10765 bound_to 10752
  140.7900  133.8295  155.9371 H   0  0  0  0  0  0  0  0  0  0  0  0  # atno 11005 bound_to 11000
  145.1279  139.2651  143.5554 LP  0  0  0  0  0  0  0  0  0  0  0  0  # atno 17320 bound_to 7965
  146.3529  140.0922  142.8612 LP  0  0  0  0  0  0  0  0  0  0  0  0  # atno 17321 bound_to 7965
  139.6228  144.0874  152.2407 LP  0  0  0  0  0  0  0  0  0  0  0  0  # atno 17342 bound_to 10162
  140.0323  144.6071  150.7478 LP  0  0  0  0  0  0  0  0  0  0  0  0  # atno 17343 bound_to 10162
  156.2810  130.7071  151.1895 LP  0  0  0  0  0  0  0  0  0  0  0  0  # atno 17370 bound_to 10713
  157.7371  131.0555  150.5375 LP  0  0  0  0  0  0  0  0  0  0  0  0  # atno 17371 bound_to 10713
  140.9398  134.1915  157.4805 LP  0  0  0  0  0  0  0  0  0  0  0  0  # atno 17394 bound_to 11000
  139.8732  134.9867  156.5337 LP  0  0  0  0  0  0  0  0  0  0  0  0  # atno 17395 bound_to 11000

$$$$
