AV-unprocessed.smi:3176|AV-procd|sdf|12126|dock5
  -GOLD-   2272017563D 1   1.00000     0.00000
 Structure written by MMmdl.
 33 34  0  0  0  0  0  0  0  0  2 V2000
  153.0409  140.2601  158.1367 O   0  0  0  0  0  0  0  0  0  0  0  0
  152.3803  141.1185  158.7220 C   0  0  0  0  0  0  0  0  0  0  0  0
  151.1177  141.4249  158.3838 N   0  0  0  0  0  0  0  0  0  0  0  0
  150.3622  140.7994  157.3056 C   0  0  0  0  0  0  0  0  0  0  0  0
  150.3036  141.7020  156.0626 C   0  0  0  0  0  0  0  0  0  0  0  0
  149.1645  141.3274  155.1348 C   0  0  0  0  0  0  0  0  0  0  0  0
  149.1423  140.1045  154.4298 C   0  0  0  0  0  0  0  0  0  0  0  0
  148.0556  139.8211  153.5762 C   0  0  0  0  0  0  0  0  0  0  0  0
  147.0163  140.7653  153.4452 C   0  0  0  0  0  0  0  0  0  0  0  0
  147.0910  141.9720  154.1705 C   0  0  0  0  0  0  0  0  0  0  0  0
  148.1491  142.2076  154.9773 N   0  3  0  0  0  0  0  0  0  0  0  0
  153.0035  141.9074  159.8813 C   0  0  2  0  0  0  0  0  0  0  0  0
  153.5754  141.0296  160.9945 C   0  0  0  0  0  0  0  0  0  0  0  0
  153.5788  141.9910  162.1630 C   0  0  0  0  0  0  0  0  0  0  0  0
  152.3170  142.8189  161.9223 C   0  0  0  0  0  0  0  0  0  0  0  0
  152.0167  142.7045  160.5331 O   0  0  0  0  0  0  0  0  0  0  0  0
  150.6486  142.1409  158.9203 H   0  0  0  0  0  0  0  0  0  0  0  0
  150.7966  139.8291  157.0585 H   0  0  0  0  0  0  0  0  0  0  0  0
  149.3532  140.6041  157.6699 H   0  0  0  0  0  0  0  0  0  0  0  0
  150.1902  142.7443  156.3632 H   0  0  0  0  0  0  0  0  0  0  0  0
  151.2411  141.6432  155.5076 H   0  0  0  0  0  0  0  0  0  0  0  0
  149.9474  139.3921  154.5389 H   0  0  0  0  0  0  0  0  0  0  0  0
  148.0208  138.8908  153.0279 H   0  0  0  0  0  0  0  0  0  0  0  0
  146.1751  140.5670  152.7970 H   0  0  0  0  0  0  0  0  0  0  0  0
  146.3425  142.7500  154.1301 H   0  0  0  0  0  0  0  0  0  0  0  0
  153.7801  142.5681  159.4928 H   0  0  0  0  0  0  0  0  0  0  0  0
  152.9197  140.1827  161.2045 H   0  0  0  0  0  0  0  0  0  0  0  0
  154.5702  140.6465  160.7650 H   0  0  0  0  0  0  0  0  0  0  0  0
  153.5811  141.4896  163.1311 H   0  0  0  0  0  0  0  0  0  0  0  0
  154.4599  142.6324  162.1106 H   0  0  0  0  0  0  0  0  0  0  0  0
  151.4773  142.4182  162.4911 H   0  0  0  0  0  0  0  0  0  0  0  0
  152.4536  143.8614  162.2109 H   0  0  0  0  0  0  0  0  0  0  0  0
  148.1828  143.0880  155.4922 H   0  0  0  0  0  0  0  0  0  0  0  0
  1  2  2  0  0  0  0
  2  3  1  0  0  0  0
  2 12  1  0  0  0  0
  3  4  1  0  0  0  0
  3 17  1  0  0  0  0
  4  5  1  0  0  0  0
  4 18  1  0  0  0  0
  4 19  1  0  0  0  0
  5  6  1  0  0  0  0
  5 20  1  0  0  0  0
  5 21  1  0  0  0  0
  6 11  1  0  0  0  0
  6  7  2  0  0  0  0
  7  8  1  0  0  0  0
  7 22  1  0  0  0  0
  8  9  2  0  0  0  0
  8 23  1  0  0  0  0
  9 10  1  0  0  0  0
  9 24  1  0  0  0  0
 10 11  2  0  0  0  0
 10 25  1  0  0  0  0
 11 33  1  0  0  0  0
 12 16  1  0  0  0  0
 12 13  1  0  0  0  0
 12 26  1  0  0  0  0
 13 14  1  0  0  0  0
 13 27  1  0  0  0  0
 13 28  1  0  0  0  0
 14 15  1  0  0  0  0
 14 29  1  0  0  0  0
 14 30  1  0  0  0  0
 15 16  1  0  0  0  0
 15 31  1  0  0  0  0
 15 32  1  0  0  0  0
M  CHG  1  11   1
M  END
> <s_m_source_file>
AV-unprocessed.smi

> <i_m_source_file_index>
3176

> <i_lp_mmshare_version>
43012

> <i_f3d_flags>
0

> <s_epik_input>
TzFbQ0gyXVtDSDJdW0NIMl1bQ0BIXTFDKD1PKVtOSF1bQ0gyXVtDSDJdYzJbY0hdW2NIXVtjSF1bY0hdbjI=

> <s_epik_cmdline>
J2VwaWtfcHl0aG9uJywgJy1waCcsICc3LjAnLCAnLXRuJywgJzgnLCAnLW1hJywgJzIwMCcsICctbWV0YWxfYmluZGluZycsICctaW1hZScsICc8aW5maWxlLm1hZT4nLCAnLW9tYWUnLCAnPG91dGZpbGUubWFlPic=

> <r_epik_Ionization_Penalty>
1.81664

> <r_epik_Ionization_Penalty_Charging>
1.81664

> <r_epik_Ionization_Penalty_Neutral>
5.71603e-08

> <r_epik_State_Penalty>
1.93152

> <r_epik_Charging_Adjusted_Penalty>
3.74817

> <i_epik_Tot_Q>
1

> <i_epik_Tot_abs_Q>
1

> <r_epik_Metal_State_Penalty>
1.95876

> <b_epik_Metal_Only>
0

> <s_lp_Force_Field>
OPLS_2005

> <r_lp_Energy>
22.4632

> <b_lp_Chiralities_Consistent>
1

> <s_lp_Variant>
AV-unprocessed.smi:3176-3

> <Gold.Version>
5.8.1

> <Gold.Id.Protein>
6NUR|6NUR_protein|mol2

> <Gold.PLP.Fitness>
46.3021

> <Gold.PLP.PLP>
-38.0698

> <Gold.PLP.part.hbond>
-2.0000

> <Gold.PLP.part.metal>
0.0000

> <Gold.PLP.part.buried>
-3.0557

> <Gold.PLP.part.nonpolar>
-32.6879

> <Gold.PLP.part.repulsive>
0.3263

> <Gold.PLP.ligand.clash>
0.0000

> <Gold.PLP.ligand.torsion>
0.3619

> <Gold.PLP.Chemscore.Hbond>
2.9760

> <Gold.PLP.Chemscore.CHOScore>
0.0000

> <Gold.PLP.Chemscore.Metal>
0.0000

> <Gold.Chemscore.Hbonds>
donor molecule, donor type, donor heavy atom, donor atom, acceptor molecule, acceptor atom, score
      L1  H    11    33       P1  8028  1.95
      P1  H  7997  8008       L1     1  0.94

> <Gold.PLP.Chemscore.Internal.Correction>
0.0280

> <Gold.Rescore>
     Score         DG    S(hbond)    S(metal)    S(lipo)     H(rot)  DE(clash)    DE(int)     intcor
     17.92     -18.32       1.94        0.00      89.43       1.61       0.13       0.27       ----

> <Gold.Chemscore.Fitness>
17.9209

> <Gold.Chemscore.DG>
-18.3171

> <Gold.Chemscore.ZeroCoef>
-5.4800

> <Gold.Chemscore.Hbond>
1.9413

> <Gold.Chemscore.Metal>
0.0000

> <Gold.Chemscore.Lipo>
89.4279

> <Gold.Chemscore.Internal_Hbond>
0.0000

> <Gold.Chemscore.DEClash>
0.1295

> <Gold.Chemscore.DEInternal>
0.2667

> <Gold.Chemscore.Rot>
1.6054

> <Gold.Chemscore.Internal.Correction>
   9.000000E+99

> <Gold.Chemscore.Hbonds>
donor molecule, donor type, donor heavy atom, donor atom, acceptor molecule, acceptor atom, score
      L1  H    11    33       P1  8028  0.85
      P1  H  7997  8008       L1     1  0.91

> <Gold.Chemscore.Hbond.Weighted>
-6.4838

> <Gold.Chemscore.Metal.Weighted>
-0.0000

> <Gold.Chemscore.Lipo.Weighted>
-10.4631

> <Gold.Chemscore.Internal_Hbond.Weighted>
0.0000

> <Gold.Chemscore.DEClash.Weighted>
0.1295

> <Gold.Chemscore.DEInternal.Weighted>
0.2667

> <Gold.Chemscore.Rot.Weighted>
4.1097

> <Gold.Chemscore.Internal.Correction.Weighted>
   9.000000E+99

> <Gold.Protein.RotatedTorsions>
[ 6907 6896 6895 6894 ] final  -75.37 input  -60.11 | X-H torsion
[ 7974 7965 7964 7962 ] final   44.63 input  175.53 | X-H torsion
[ 8008 7997 7996 7995 ] final  -82.12 input   59.86 | X-H torsion
[ 10167 10162 10161 10158 ] final  -73.98 input  -65.29 | X-H torsion
[ 10718 10713 10712 10709 ] final -109.39 input   66.30 | X-H torsion
[ 10763 10752 10751 10750 ] final   26.83 input  -60.55 | X-H torsion
[ 11005 11000 10999 10996 ] final  -29.64 input  -57.11 | X-H torsion

> <Gold.Protein.ActiveResidues>
 VAL166  LYS551  ARG553  GLY616  TRP617  ASP618  TYR619  PRO620  LYS621  CYS622 
 ASP623  PHE694  ASN695  SER759  ASP760  ASP761  ALA762  ILE779  LEU786  VAL792 
 PHE793  MET794  SER795  GLU796  ALA797  LYS798  CYS799  TRP800  GLU811  SER814 

> <Gold.Protein.RotatedAtoms>
  150.7061  134.4731  159.5434 H   0  0  0  0  0  0  0  0  0  0  0  0  # atno 6907 bound_to 6896
  152.2383  134.8251  160.0473 H   0  0  0  0  0  0  0  0  0  0  0  0  # atno 6908 bound_to 6896
  151.9042  133.3510  159.3878 H   0  0  0  0  0  0  0  0  0  0  0  0  # atno 6909 bound_to 6896
  146.0551  139.5053  142.9693 H   0  0  0  0  0  0  0  0  0  0  0  0  # atno 7974 bound_to 7965
  154.6053  140.0638  156.9423 H   0  0  0  0  0  0  0  0  0  0  0  0  # atno 8008 bound_to 7997
  155.2063  140.3319  155.4317 H   0  0  0  0  0  0  0  0  0  0  0  0  # atno 8009 bound_to 7997
  156.2344  140.1856  156.7143 H   0  0  0  0  0  0  0  0  0  0  0  0  # atno 8010 bound_to 7997
  140.5065  143.2352  151.7664 H   0  0  0  0  0  0  0  0  0  0  0  0  # atno 10167 bound_to 10162
  156.0534  130.5761  150.8092 H   0  0  0  0  0  0  0  0  0  0  0  0  # atno 10718 bound_to 10713
  153.0596  135.6551  154.0494 H   0  0  0  0  0  0  0  0  0  0  0  0  # atno 10763 bound_to 10752
  154.0165  135.2923  155.3387 H   0  0  0  0  0  0  0  0  0  0  0  0  # atno 10764 bound_to 10752
  154.6928  135.5276  153.8484 H   0  0  0  0  0  0  0  0  0  0  0  0  # atno 10765 bound_to 10752
  140.9313  133.7336  156.0941 H   0  0  0  0  0  0  0  0  0  0  0  0  # atno 11005 bound_to 11000
  145.6657  141.0229  143.1685 LP  0  0  0  0  0  0  0  0  0  0  0  0  # atno 17320 bound_to 7965
  144.7144  139.8252  143.7404 LP  0  0  0  0  0  0  0  0  0  0  0  0  # atno 17321 bound_to 7965
  139.4885  144.4450  151.9721 LP  0  0  0  0  0  0  0  0  0  0  0  0  # atno 17342 bound_to 10162
  140.3540  144.3054  150.5944 LP  0  0  0  0  0  0  0  0  0  0  0  0  # atno 17343 bound_to 10162
  157.5482  131.0943  150.9732 LP  0  0  0  0  0  0  0  0  0  0  0  0  # atno 17370 bound_to 10713
  156.9998  130.5595  149.5310 LP  0  0  0  0  0  0  0  0  0  0  0  0  # atno 17371 bound_to 10713
  140.7858  134.3673  157.5476 LP  0  0  0  0  0  0  0  0  0  0  0  0  # atno 17394 bound_to 11000
  139.8797  134.9110  156.3026 LP  0  0  0  0  0  0  0  0  0  0  0  0  # atno 17395 bound_to 11000

$$$$
