AV-unprocessed.smi:366|AV-procd|sdf|2429|dock3
  -GOLD-   2262022373D 1   1.00000     0.00000
 Structure written by MMmdl.
 50 51  0  0  0  0  0  0  0  0  1 V2000
  146.0877  136.1834  153.3424 C   0  0  0  0  0  0  0  0  0  0  0  0
  146.9932  135.7346  154.4840 C   0  0  0  0  0  0  0  0  0  0  0  0
  146.5690  135.7168  155.6392 O   0  0  0  0  0  0  0  0  0  0  0  0
  148.2418  135.3763  154.1455 N   0  0  0  0  0  0  0  0  0  0  0  0
  149.2793  134.9280  155.0771 C   0  0  2  0  0  0  0  0  0  0  0  0
  150.4761  135.8944  154.9818 C   0  0  0  0  0  0  0  0  0  0  0  0
  151.4867  135.7068  155.6615 O   0  0  0  0  0  0  0  0  0  0  0  0
  150.3352  136.9319  154.1419 N   0  0  0  0  0  0  0  0  0  0  0  0
  151.3348  137.9641  153.8865 C   0  0  0  0  0  0  0  0  0  0  0  0
  151.4727  138.9626  155.0241 C   0  0  0  0  0  0  0  0  0  0  0  0
  150.5174  139.9821  155.2057 C   0  0  0  0  0  0  0  0  0  0  0  0
  150.6832  140.8943  156.2651 C   0  0  0  0  0  0  0  0  0  0  0  0
  151.8059  140.7667  157.1172 C   0  0  0  0  0  0  0  0  0  0  0  0
  151.9933  141.6727  158.1837 N   0  0  0  0  0  0  0  0  0  0  0  0
  151.0286  142.7605  158.3353 C   0  0  0  0  0  0  0  0  0  0  0  0
  151.5432  143.7950  159.3502 C   0  0  0  0  0  0  0  0  0  0  0  0
  151.8399  143.1490  160.5835 O   0  0  0  0  0  0  0  0  0  0  0  0
  152.8616  142.1686  160.4349 C   0  0  0  0  0  0  0  0  0  0  0  0
  152.3989  141.0770  159.4546 C   0  0  0  0  0  0  0  0  0  0  0  0
  152.7215  139.7820  156.9405 N   0  0  0  0  0  0  0  0  0  0  0  0
  152.5593  138.9123  155.9215 C   0  0  0  0  0  0  0  0  0  0  0  0
  149.7212  133.4870  154.6845 C   0  0  0  0  0  0  0  0  0  0  0  0
  148.5197  132.6012  154.2996 C   0  0  0  0  0  0  0  0  0  0  0  0
  150.5301  132.7815  155.7928 C   0  0  0  0  0  0  0  0  0  0  0  0
  146.3971  137.1630  152.9775 H   0  0  0  0  0  0  0  0  0  0  0  0
  145.0514  136.2530  153.6742 H   0  0  0  0  0  0  0  0  0  0  0  0
  146.1328  135.4756  152.5144 H   0  0  0  0  0  0  0  0  0  0  0  0
  148.5020  135.4307  153.1715 H   0  0  0  0  0  0  0  0  0  0  0  0
  148.8824  134.9212  156.0946 H   0  0  0  0  0  0  0  0  0  0  0  0
  149.4683  137.0055  153.6291 H   0  0  0  0  0  0  0  0  0  0  0  0
  152.3124  137.5240  153.6835 H   0  0  0  0  0  0  0  0  0  0  0  0
  151.0445  138.4877  152.9752 H   0  0  0  0  0  0  0  0  0  0  0  0
  149.6651  140.0663  154.5477 H   0  0  0  0  0  0  0  0  0  0  0  0
  149.9451  141.6673  156.4189 H   0  0  0  0  0  0  0  0  0  0  0  0
  150.8580  143.2503  157.3757 H   0  0  0  0  0  0  0  0  0  0  0  0
  150.0733  142.3532  158.6693 H   0  0  0  0  0  0  0  0  0  0  0  0
  152.4305  144.3045  158.9706 H   0  0  0  0  0  0  0  0  0  0  0  0
  150.7862  144.5601  159.5224 H   0  0  0  0  0  0  0  0  0  0  0  0
  153.7833  142.6380  160.0874 H   0  0  0  0  0  0  0  0  0  0  0  0
  153.0761  141.7303  161.4095 H   0  0  0  0  0  0  0  0  0  0  0  0
  151.5508  140.5346  159.8743 H   0  0  0  0  0  0  0  0  0  0  0  0
  153.2032  140.3544  159.3244 H   0  0  0  0  0  0  0  0  0  0  0  0
  153.3250  138.1576  155.8216 H   0  0  0  0  0  0  0  0  0  0  0  0
  150.3647  133.5492  153.8049 H   0  0  0  0  0  0  0  0  0  0  0  0
  147.8082  132.5221  155.1221 H   0  0  0  0  0  0  0  0  0  0  0  0
  148.8423  131.5918  154.0432 H   0  0  0  0  0  0  0  0  0  0  0  0
  147.9849  132.9905  153.4333 H   0  0  0  0  0  0  0  0  0  0  0  0
  149.9647  132.7334  156.7239 H   0  0  0  0  0  0  0  0  0  0  0  0
  151.4724  133.2873  156.0007 H   0  0  0  0  0  0  0  0  0  0  0  0
  150.7806  131.7600  155.5055 H   0  0  0  0  0  0  0  0  0  0  0  0
  1  2  1  0  0  0  0
  1 25  1  0  0  0  0
  1 26  1  0  0  0  0
  1 27  1  0  0  0  0
  2  3  2  0  0  0  0
  2  4  1  0  0  0  0
  4  5  1  0  0  0  0
  4 28  1  0  0  0  0
  5  6  1  0  0  0  0
  5 22  1  0  0  0  0
  5 29  1  0  0  0  0
  6  7  2  0  0  0  0
  6  8  1  0  0  0  0
  8  9  1  0  0  0  0
  8 30  1  0  0  0  0
  9 10  1  0  0  0  0
  9 31  1  0  0  0  0
  9 32  1  0  0  0  0
 10 21  1  0  0  0  0
 10 11  2  0  0  0  0
 11 12  1  0  0  0  0
 11 33  1  0  0  0  0
 12 13  2  0  0  0  0
 12 34  1  0  0  0  0
 13 14  1  0  0  0  0
 13 20  1  0  0  0  0
 14 19  1  0  0  0  0
 14 15  1  0  0  0  0
 15 16  1  0  0  0  0
 15 35  1  0  0  0  0
 15 36  1  0  0  0  0
 16 17  1  0  0  0  0
 16 37  1  0  0  0  0
 16 38  1  0  0  0  0
 17 18  1  0  0  0  0
 18 19  1  0  0  0  0
 18 39  1  0  0  0  0
 18 40  1  0  0  0  0
 19 41  1  0  0  0  0
 19 42  1  0  0  0  0
 20 21  2  0  0  0  0
 21 43  1  0  0  0  0
 22 23  1  0  0  0  0
 22 24  1  0  0  0  0
 22 44  1  0  0  0  0
 23 45  1  0  0  0  0
 23 46  1  0  0  0  0
 23 47  1  0  0  0  0
 24 48  1  0  0  0  0
 24 49  1  0  0  0  0
 24 50  1  0  0  0  0
M  END
> <s_m_source_file>
AV-unprocessed.smi

> <i_m_source_file_index>
366

> <i_lp_mmshare_version>
43012

> <i_f3d_flags>
0

> <s_epik_input>
W0NIM11DKD1PKVtOSF1bQ0BASF0oW0NIXShbQ0gzXSlbQ0gzXSlDKD1PKVtOSF1bQ0gyXWMxW2NIXVtjSF1jKG5bY0hdMSlOMltDSDJdW0NIMl1PW0NIMl1bQ0gyXTI=

> <s_epik_cmdline>
J2VwaWtfcHl0aG9uJywgJy1waCcsICc3LjAnLCAnLXRuJywgJzgnLCAnLW1hJywgJzIwMCcsICctbWV0YWxfYmluZGluZycsICctaW1hZScsICc8aW5maWxlLm1hZT4nLCAnLW9tYWUnLCAnPG91dGZpbGUubWFlPic=

> <r_lp_tautomer_probability>
1

> <r_epik_Ionization_Penalty>
0.00485188

> <r_epik_Ionization_Penalty_Charging>
0

> <r_epik_Ionization_Penalty_Neutral>
0.00485188

> <r_epik_State_Penalty>
0.00351951

> <r_epik_Charging_Adjusted_Penalty>
0.00351951

> <i_epik_Tot_Q>
0

> <i_epik_Tot_abs_Q>
0

> <r_epik_Metal_State_Penalty>
-0

> <b_epik_Metal_Only>
0

> <s_lp_Force_Field>
OPLS_2005

> <r_lp_Energy>
18.3337

> <b_lp_Chiralities_Consistent>
1

> <s_lp_Variant>
AV-unprocessed.smi:366-1

> <Gold.Version>
5.8.1

> <Gold.Id.Protein>
6NUR|6NUR_protein|mol2

> <Gold.PLP.Fitness>
51.1195

> <Gold.PLP.PLP>
-41.6241

> <Gold.PLP.part.hbond>
-4.9975

> <Gold.PLP.part.metal>
0.0000

> <Gold.PLP.part.buried>
-1.4130

> <Gold.PLP.part.nonpolar>
-33.7811

> <Gold.PLP.part.repulsive>
0.2137

> <Gold.PLP.ligand.clash>
0.0000

> <Gold.PLP.ligand.torsion>
0.8123

> <Gold.PLP.Chemscore.Hbond>
3.5760

> <Gold.PLP.Chemscore.CHOScore>
0.0000

> <Gold.PLP.Chemscore.Metal>
0.0000

> <Gold.Chemscore.Hbonds>
donor molecule, donor type, donor heavy atom, donor atom, acceptor molecule, acceptor atom, score
      L1  H     4    28       P1  7948  1.00
      L1  H     8    30       P1  7948  0.58
      P1  H  7997  8008       L1    20  0.95
      P1  H 10752 10765       L1     7  1.00

> <Gold.PLP.Chemscore.Internal.Correction>
0.3920

> <Gold.Rescore>
     Score         DG    S(hbond)    S(metal)    S(lipo)     H(rot)  DE(clash)    DE(int)     intcor
     20.58     -21.50       3.00        0.00      99.16       2.18       0.06       0.87       ----

> <Gold.Chemscore.Fitness>
20.5756

> <Gold.Chemscore.DG>
-21.5047

> <Gold.Chemscore.ZeroCoef>
-5.4800

> <Gold.Chemscore.Hbond>
2.9961

> <Gold.Chemscore.Metal>
0.0000

> <Gold.Chemscore.Lipo>
99.1621

> <Gold.Chemscore.Internal_Hbond>
0.0000

> <Gold.Chemscore.DEClash>
0.0621

> <Gold.Chemscore.DEInternal>
0.8670

> <Gold.Chemscore.Rot>
2.1813

> <Gold.Chemscore.Internal.Correction>
   9.000000E+99

> <Gold.Chemscore.Hbonds>
donor molecule, donor type, donor heavy atom, donor atom, acceptor molecule, acceptor atom, score
      L1  H     4    28       P1  7948  0.92
      L1  H     8    30       P1  7948  0.52
      P1  H  7997  8008       L1    20  0.21
      P1  H 10752 10765       L1     7  0.99

> <Gold.Chemscore.Hbond.Weighted>
-10.0069

> <Gold.Chemscore.Metal.Weighted>
-0.0000

> <Gold.Chemscore.Lipo.Weighted>
-11.6020

> <Gold.Chemscore.Internal_Hbond.Weighted>
0.0000

> <Gold.Chemscore.DEClash.Weighted>
0.0621

> <Gold.Chemscore.DEInternal.Weighted>
0.8670

> <Gold.Chemscore.Rot.Weighted>
5.5842

> <Gold.Chemscore.Internal.Correction.Weighted>
   9.000000E+99

> <Gold.Protein.RotatedTorsions>
[ 6907 6896 6895 6894 ] final -171.80 input  -60.11 | X-H torsion
[ 7974 7965 7964 7962 ] final   93.87 input  175.53 | X-H torsion
[ 8008 7997 7996 7995 ] final  -71.24 input   59.86 | X-H torsion
[ 10167 10162 10161 10158 ] final -146.50 input  -65.29 | X-H torsion
[ 10718 10713 10712 10709 ] final  142.88 input   66.30 | X-H torsion
[ 10763 10752 10751 10750 ] final -155.72 input  -60.55 | X-H torsion
[ 11005 11000 10999 10996 ] final -134.70 input  -57.11 | X-H torsion

> <Gold.Protein.ActiveResidues>
 VAL166  LYS551  ARG553  GLY616  TRP617  ASP618  TYR619  PRO620  LYS621  CYS622 
 ASP623  PHE694  ASN695  SER759  ASP760  ASP761  ALA762  ILE779  LEU786  VAL792 
 PHE793  MET794  SER795  GLU796  ALA797  LYS798  CYS799  TRP800  GLU811  SER814 

> <Gold.Protein.RotatedAtoms>
  151.5296  133.3451  159.2915 H   0  0  0  0  0  0  0  0  0  0  0  0  # atno 6907 bound_to 6896
  150.8601  134.7953  159.7087 H   0  0  0  0  0  0  0  0  0  0  0  0  # atno 6908 bound_to 6896
  152.4623  134.5164  159.9821 H   0  0  0  0  0  0  0  0  0  0  0  0  # atno 6909 bound_to 6896
  145.4732  139.2281  143.2923 H   0  0  0  0  0  0  0  0  0  0  0  0  # atno 7974 bound_to 7965
  154.5072  140.0819  156.7918 H   0  0  0  0  0  0  0  0  0  0  0  0  # atno 8008 bound_to 7997
  155.3866  140.3430  155.4231 H   0  0  0  0  0  0  0  0  0  0  0  0  # atno 8009 bound_to 7997
  156.1530  140.1564  156.8726 H   0  0  0  0  0  0  0  0  0  0  0  0  # atno 8010 bound_to 7997
  139.7707  143.8242  152.2624 H   0  0  0  0  0  0  0  0  0  0  0  0  # atno 10167 bound_to 10162
  157.3754  131.0985  151.0789 H   0  0  0  0  0  0  0  0  0  0  0  0  # atno 10718 bound_to 10713
  154.7766  135.3161  154.8079 H   0  0  0  0  0  0  0  0  0  0  0  0  # atno 10763 bound_to 10752
  153.8801  135.6836  153.4772 H   0  0  0  0  0  0  0  0  0  0  0  0  # atno 10764 bound_to 10752
  153.1391  135.4747  154.9404 H   0  0  0  0  0  0  0  0  0  0  0  0  # atno 10765 bound_to 10752
  140.8965  134.1744  157.4491 H   0  0  0  0  0  0  0  0  0  0  0  0  # atno 11005 bound_to 11000
  146.2384  140.5512  142.8944 LP  0  0  0  0  0  0  0  0  0  0  0  0  # atno 17320 bound_to 7965
  144.7933  140.6073  143.6527 LP  0  0  0  0  0  0  0  0  0  0  0  0  # atno 17321 bound_to 7965
  139.8275  144.7268  150.9493 LP  0  0  0  0  0  0  0  0  0  0  0  0  # atno 17342 bound_to 10162
  140.7814  143.4101  151.1007 LP  0  0  0  0  0  0  0  0  0  0  0  0  # atno 17343 bound_to 10162
  157.1878  130.6338  149.5694 LP  0  0  0  0  0  0  0  0  0  0  0  0  # atno 17370 bound_to 10713
  155.9764  130.4732  150.6526 LP  0  0  0  0  0  0  0  0  0  0  0  0  # atno 17371 bound_to 10713
  139.8736  134.9880  156.5395 LP  0  0  0  0  0  0  0  0  0  0  0  0  # atno 17394 bound_to 11000
  140.8282  133.8300  155.8959 LP  0  0  0  0  0  0  0  0  0  0  0  0  # atno 17395 bound_to 11000

$$$$
