AV-unprocessed.smi:2088|AV-procd|sdf|8526|dock5
  -GOLD-   2272011243D 1   1.00000     0.00000
 Structure written by MMmdl.
 33 34  0  0  0  0  0  0  0  0  1 V2000
  155.0765  139.6466  159.1956 O   0  0  0  0  0  0  0  0  0  0  0  0
  154.4668  139.9618  160.2177 C   0  0  0  0  0  0  0  0  0  0  0  0
  154.2751  141.4385  160.5690 C   0  0  0  0  0  0  0  0  0  0  0  0
  153.2694  142.0526  159.7206 N   0  0  0  0  0  0  0  0  0  0  0  0
  153.0545  143.3925  159.4783 C   0  0  0  0  0  0  0  0  0  0  0  0
  152.0035  143.4848  158.6122 C   0  0  0  0  0  0  0  0  0  0  0  0
  151.6307  142.1300  158.3734 C   0  0  0  0  0  0  0  0  0  0  0  0
  150.5244  141.6075  157.4951 C   0  0  0  0  0  0  0  0  0  0  0  0
  150.5065  140.2748  157.5179 F   0  0  0  0  0  0  0  0  0  0  0  0
  149.3469  142.0592  157.9269 F   0  0  0  0  0  0  0  0  0  0  0  0
  150.7123  142.0124  156.2390 F   0  0  0  0  0  0  0  0  0  0  0  0
  152.3950  141.2774  159.0437 N   0  0  0  0  0  0  0  0  0  0  0  0
  153.9429  139.0673  161.0698 N   0  0  0  0  0  0  0  0  0  0  0  0
  154.0137  137.6190  160.9121 C   0  0  0  0  0  0  0  0  0  0  0  0
  154.4391  136.9219  162.2156 C   0  0  2  0  0  0  0  0  0  0  0  0
  153.3720  136.9543  163.3060 C   0  0  0  0  0  0  0  0  0  0  0  0
  154.2045  136.7276  164.5473 C   0  0  0  0  0  0  0  0  0  0  0  0
  155.4823  137.5009  164.2259 C   0  0  0  0  0  0  0  0  0  0  0  0
  155.5555  137.5830  162.8035 O   0  0  0  0  0  0  0  0  0  0  0  0
  153.9900  141.5572  161.6160 H   0  0  0  0  0  0  0  0  0  0  0  0
  155.2184  141.9685  160.4323 H   0  0  0  0  0  0  0  0  0  0  0  0
  153.6628  144.1594  159.9352 H   0  0  0  0  0  0  0  0  0  0  0  0
  151.5664  144.3857  158.2082 H   0  0  0  0  0  0  0  0  0  0  0  0
  153.4609  139.4139  161.8865 H   0  0  0  0  0  0  0  0  0  0  0  0
  153.0347  137.2578  160.5964 H   0  0  0  0  0  0  0  0  0  0  0  0
  154.7085  137.3723  160.1077 H   0  0  0  0  0  0  0  0  0  0  0  0
  154.7181  135.8839  162.0256 H   0  0  0  0  0  0  0  0  0  0  0  0
  152.8940  137.9341  163.3496 H   0  0  0  0  0  0  0  0  0  0  0  0
  152.5978  136.1994  163.1663 H   0  0  0  0  0  0  0  0  0  0  0  0
  153.7166  137.0694  165.4604 H   0  0  0  0  0  0  0  0  0  0  0  0
  154.4264  135.6652  164.6564 H   0  0  0  0  0  0  0  0  0  0  0  0
  155.4329  138.5126  164.6295 H   0  0  0  0  0  0  0  0  0  0  0  0
  156.3668  137.0149  164.6383 H   0  0  0  0  0  0  0  0  0  0  0  0
  1  2  2  0  0  0  0
  2  3  1  0  0  0  0
  2 13  1  0  0  0  0
  3  4  1  0  0  0  0
  3 20  1  0  0  0  0
  3 21  1  0  0  0  0
  4 12  1  0  0  0  0
  4  5  1  0  0  0  0
  5  6  2  0  0  0  0
  5 22  1  0  0  0  0
  6  7  1  0  0  0  0
  6 23  1  0  0  0  0
  7  8  1  0  0  0  0
  7 12  2  0  0  0  0
  8  9  1  0  0  0  0
  8 10  1  0  0  0  0
  8 11  1  0  0  0  0
 13 14  1  0  0  0  0
 13 24  1  0  0  0  0
 14 15  1  0  0  0  0
 14 25  1  0  0  0  0
 14 26  1  0  0  0  0
 15 19  1  0  0  0  0
 15 16  1  0  0  0  0
 15 27  1  0  0  0  0
 16 17  1  0  0  0  0
 16 28  1  0  0  0  0
 16 29  1  0  0  0  0
 17 18  1  0  0  0  0
 17 30  1  0  0  0  0
 17 31  1  0  0  0  0
 18 19  1  0  0  0  0
 18 32  1  0  0  0  0
 18 33  1  0  0  0  0
M  END
> <s_m_source_file>
AV-unprocessed.smi

> <i_m_source_file_index>
2088

> <i_lp_mmshare_version>
43012

> <i_f3d_flags>
0

> <s_epik_input>
TzFbQ0gyXVtDSDJdW0NIMl1bQ0BIXTFbQ0gyXVtOSF1DKD1PKVtDSDJdbjJbY0hdW2NIXWMobjIpQyhGKShGKUY=

> <s_epik_cmdline>
J2VwaWtfcHl0aG9uJywgJy1waCcsICc3LjAnLCAnLXRuJywgJzgnLCAnLW1hJywgJzIwMCcsICctbWV0YWxfYmluZGluZycsICctaW1hZScsICc8aW5maWxlLm1hZT4nLCAnLW9tYWUnLCAnPG91dGZpbGUubWFlPic=

> <r_lp_tautomer_probability>
1

> <r_epik_Ionization_Penalty>
2.25732e-07

> <r_epik_Ionization_Penalty_Charging>
0

> <r_epik_Ionization_Penalty_Neutral>
2.25732e-07

> <r_epik_State_Penalty>
-0

> <r_epik_Charging_Adjusted_Penalty>
0

> <i_epik_Tot_Q>
0

> <i_epik_Tot_abs_Q>
0

> <r_epik_Metal_State_Penalty>
-0

> <b_epik_Metal_Only>
0

> <s_lp_Force_Field>
OPLS_2005

> <r_lp_Energy>
20.6352

> <b_lp_Chiralities_Consistent>
1

> <s_lp_Variant>
AV-unprocessed.smi:2088-1

> <Gold.Version>
5.8.1

> <Gold.Id.Protein>
6NUR|6NUR_protein|mol2

> <Gold.PLP.Fitness>
42.3280

> <Gold.PLP.PLP>
-40.4767

> <Gold.PLP.part.hbond>
-1.0000

> <Gold.PLP.part.metal>
0.0000

> <Gold.PLP.part.buried>
-5.3152

> <Gold.PLP.part.nonpolar>
-34.8019

> <Gold.PLP.part.repulsive>
0.0193

> <Gold.PLP.ligand.clash>
0.0000

> <Gold.PLP.ligand.torsion>
0.5802

> <Gold.PLP.Chemscore.Hbond>
1.0000

> <Gold.PLP.Chemscore.CHOScore>
0.0000

> <Gold.PLP.Chemscore.Metal>
0.0000

> <Gold.Chemscore.Hbonds>
donor molecule, donor type, donor heavy atom, donor atom, acceptor molecule, acceptor atom, score
      P1  H  7997  8009       L1     1  1.00

> <Gold.PLP.Chemscore.Internal.Correction>
0.0118

> <Gold.Rescore>
     Score         DG    S(hbond)    S(metal)    S(lipo)     H(rot)  DE(clash)    DE(int)     intcor
     13.86     -14.47       1.00        0.00      89.78       1.89       0.07       0.54       ----

> <Gold.Chemscore.Fitness>
13.8623

> <Gold.Chemscore.DG>
-14.4742

> <Gold.Chemscore.ZeroCoef>
-5.4800

> <Gold.Chemscore.Hbond>
0.9987

> <Gold.Chemscore.Metal>
0.0000

> <Gold.Chemscore.Lipo>
89.7782

> <Gold.Chemscore.Internal_Hbond>
0.0000

> <Gold.Chemscore.DEClash>
0.0736

> <Gold.Chemscore.DEInternal>
0.5383

> <Gold.Chemscore.Rot>
1.8928

> <Gold.Chemscore.Internal.Correction>
   9.000000E+99

> <Gold.Chemscore.Hbonds>
donor molecule, donor type, donor heavy atom, donor atom, acceptor molecule, acceptor atom, score
      P1  H  7997  8009       L1     1  1.00

> <Gold.Chemscore.Hbond.Weighted>
-3.3356

> <Gold.Chemscore.Metal.Weighted>
-0.0000

> <Gold.Chemscore.Lipo.Weighted>
-10.5041

> <Gold.Chemscore.Internal_Hbond.Weighted>
0.0000

> <Gold.Chemscore.DEClash.Weighted>
0.0736

> <Gold.Chemscore.DEInternal.Weighted>
0.5383

> <Gold.Chemscore.Rot.Weighted>
4.8455

> <Gold.Chemscore.Internal.Correction.Weighted>
   9.000000E+99

> <Gold.Protein.RotatedTorsions>
[ 6907 6896 6895 6894 ] final  134.37 input  -60.11 | X-H torsion
[ 7974 7965 7964 7962 ] final   82.13 input  175.53 | X-H torsion
[ 8008 7997 7996 7995 ] final  108.60 input   59.86 | X-H torsion
[ 10167 10162 10161 10158 ] final -151.08 input  -65.29 | X-H torsion
[ 10718 10713 10712 10709 ] final -166.89 input   66.30 | X-H torsion
[ 10763 10752 10751 10750 ] final  -93.64 input  -60.55 | X-H torsion
[ 11005 11000 10999 10996 ] final    3.26 input  -57.11 | X-H torsion

> <Gold.Protein.ActiveResidues>
 VAL166  LYS551  ARG553  GLY616  TRP617  ASP618  TYR619  PRO620  LYS621  CYS622 
 ASP623  PHE694  ASN695  SER759  ASP760  ASP761  ALA762  ILE779  LEU786  VAL792 
 PHE793  MET794  SER795  GLU796  ALA797  LYS798  CYS799  TRP800  GLU811  SER814 

> <Gold.Protein.RotatedAtoms>
  152.3120  133.5763  159.5686 H   0  0  0  0  0  0  0  0  0  0  0  0  # atno 6907 bound_to 6896
  150.7328  134.0138  159.3687 H   0  0  0  0  0  0  0  0  0  0  0  0  # atno 6908 bound_to 6896
  151.8030  135.0704  160.0454 H   0  0  0  0  0  0  0  0  0  0  0  0  # atno 6909 bound_to 6896
  145.6291  139.2401  143.2095 H   0  0  0  0  0  0  0  0  0  0  0  0  # atno 7974 bound_to 7965
  156.1916  140.3073  155.9343 H   0  0  0  0  0  0  0  0  0  0  0  0  # atno 8008 bound_to 7997
  155.3161  140.0453  157.3054 H   0  0  0  0  0  0  0  0  0  0  0  0  # atno 8009 bound_to 7997
  154.5459  140.2276  155.8574 H   0  0  0  0  0  0  0  0  0  0  0  0  # atno 8010 bound_to 7997
  139.7298  143.8826  152.2531 H   0  0  0  0  0  0  0  0  0  0  0  0  # atno 10167 bound_to 10162
  156.6744  130.9097  151.3048 H   0  0  0  0  0  0  0  0  0  0  0  0  # atno 10718 bound_to 10713
  154.6979  135.5187  153.8484 H   0  0  0  0  0  0  0  0  0  0  0  0  # atno 10763 bound_to 10752
  153.0681  135.6592  154.0318 H   0  0  0  0  0  0  0  0  0  0  0  0  # atno 10764 bound_to 10752
  154.0182  135.2996  155.3364 H   0  0  0  0  0  0  0  0  0  0  0  0  # atno 10765 bound_to 10752
  140.5951  133.9888  155.8106 H   0  0  0  0  0  0  0  0  0  0  0  0  # atno 11005 bound_to 11000
  146.1371  140.7108  142.9384 LP  0  0  0  0  0  0  0  0  0  0  0  0  # atno 17320 bound_to 7965
  144.7201  140.4343  143.7015 LP  0  0  0  0  0  0  0  0  0  0  0  0  # atno 17321 bound_to 7965
  139.8746  144.7050  150.8948 LP  0  0  0  0  0  0  0  0  0  0  0  0  # atno 17342 bound_to 10162
  140.7769  143.3710  151.1649 LP  0  0  0  0  0  0  0  0  0  0  0  0  # atno 17343 bound_to 10162
  157.7066  130.9392  150.0950 LP  0  0  0  0  0  0  0  0  0  0  0  0  # atno 17370 bound_to 10713
  156.1914  130.3655  149.8905 LP  0  0  0  0  0  0  0  0  0  0  0  0  # atno 17371 bound_to 10713
  141.0909  133.9917  157.3238 LP  0  0  0  0  0  0  0  0  0  0  0  0  # atno 17394 bound_to 11000
  139.9257  135.0201  156.8225 LP  0  0  0  0  0  0  0  0  0  0  0  0  # atno 17395 bound_to 11000

$$$$
