AV-unprocessed.smi:37|AV-procd|sdf|309|dock1
  -GOLD-   2262016123D 1   1.00000     0.00000
 Structure written by MMmdl.
 44 45  0  0  0  0  0  0  0  0  1 V2000
  146.0837  134.9400  162.7866 C   0  0  0  0  0  0  0  0  0  0  0  0
  147.4465  135.5460  162.4258 C   0  0  0  0  0  0  0  0  0  0  0  0
  147.4524  136.1657  161.0303 C   0  0  0  0  0  0  0  0  0  0  0  0
  147.7787  137.3396  160.8525 O   0  0  0  0  0  0  0  0  0  0  0  0
  147.0609  135.3003  160.0790 O   0  0  0  0  0  0  0  0  0  0  0  0
  147.0671  135.6867  158.7131 C   0  0  0  0  0  0  0  0  0  0  0  0
  148.0715  134.8152  157.9479 C   0  0  2  0  0  0  0  0  0  0  0  0
  149.3863  135.2388  158.3046 O   0  0  0  0  0  0  0  0  0  0  0  0
  150.1016  135.5731  157.1579 C   0  0  2  0  0  0  0  0  0  0  0  0
  151.1140  136.6593  157.4564 N   0  0  0  0  0  0  0  0  0  0  0  0
  150.6759  137.8650  157.9855 C   0  0  0  0  0  0  0  0  0  0  0  0
  151.5065  138.8967  158.2662 C   0  0  0  0  0  0  0  0  0  0  0  0
  151.0049  140.0295  158.7867 F   0  0  0  0  0  0  0  0  0  0  0  0
  152.9391  138.7895  158.0091 C   0  0  0  0  0  0  0  0  0  0  0  0
  153.7711  139.6666  158.2314 O   0  0  0  0  0  0  0  0  0  0  0  0
  153.3361  137.5662  157.4627 N   0  0  0  0  0  0  0  0  0  0  0  0
  152.4909  136.4951  157.1669 C   0  0  0  0  0  0  0  0  0  0  0  0
  152.9610  135.4714  156.6732 O   0  0  0  0  0  0  0  0  0  0  0  0
  149.0938  135.8948  156.0451 C   0  0  2  0  0  0  0  0  0  0  0  0
  148.4072  137.7696  156.0250 Br  0  0  0  0  0  0  0  0  0  0  0  0
  147.9525  134.9621  156.4192 C   0  0  1  0  0  0  0  0  0  0  0  0
  148.1306  133.6804  155.8250 O   0  0  0  0  0  0  0  0  0  0  0  0
  148.0903  133.5391  154.4877 C   0  0  0  0  0  0  0  0  0  0  0  0
  147.8118  134.4271  153.6802 O   0  0  0  0  0  0  0  0  0  0  0  0
  148.4463  132.1163  154.0520 C   0  0  0  0  0  0  0  0  0  0  0  0
  149.7999  131.6294  154.5902 C   0  0  0  0  0  0  0  0  0  0  0  0
  154.3181  137.4485  157.2601 H   0  0  0  0  0  0  0  0  0  0  0  0
  146.1151  134.4919  163.7797 H   0  0  0  0  0  0  0  0  0  0  0  0
  145.7984  134.1588  162.0811 H   0  0  0  0  0  0  0  0  0  0  0  0
  145.2970  135.6953  162.7911 H   0  0  0  0  0  0  0  0  0  0  0  0
  147.7178  136.3130  163.1513 H   0  0  0  0  0  0  0  0  0  0  0  0
  148.2185  134.7776  162.4745 H   0  0  0  0  0  0  0  0  0  0  0  0
  146.0792  135.5949  158.2611 H   0  0  0  0  0  0  0  0  0  0  0  0
  147.3528  136.7368  158.6489 H   0  0  0  0  0  0  0  0  0  0  0  0
  147.9444  133.7753  158.2526 H   0  0  0  0  0  0  0  0  0  0  0  0
  150.6914  134.6893  156.9070 H   0  0  0  0  0  0  0  0  0  0  0  0
  149.6239  137.9929  158.1977 H   0  0  0  0  0  0  0  0  0  0  0  0
  149.5258  135.6939  155.0641 H   0  0  0  0  0  0  0  0  0  0  0  0
  146.9824  135.3698  156.1307 H   0  0  0  0  0  0  0  0  0  0  0  0
  147.6556  131.4439  154.3860 H   0  0  0  0  0  0  0  0  0  0  0  0
  148.4513  132.0804  152.9624 H   0  0  0  0  0  0  0  0  0  0  0  0
  150.0092  130.6175  154.2428 H   0  0  0  0  0  0  0  0  0  0  0  0
  149.8122  131.6124  155.6806 H   0  0  0  0  0  0  0  0  0  0  0  0
  150.6163  132.2687  154.2520 H   0  0  0  0  0  0  0  0  0  0  0  0
  1  2  1  0  0  0  0
  1 28  1  0  0  0  0
  1 29  1  0  0  0  0
  1 30  1  0  0  0  0
  2  3  1  0  0  0  0
  2 31  1  0  0  0  0
  2 32  1  0  0  0  0
  3  4  2  0  0  0  0
  3  5  1  0  0  0  0
  5  6  1  0  0  0  0
  6  7  1  0  0  0  0
  6 33  1  0  0  0  0
  6 34  1  0  0  0  0
  7 21  1  0  0  0  0
  7  8  1  0  0  0  0
  7 35  1  0  0  0  0
  8  9  1  0  0  0  0
  9 10  1  0  0  0  0
  9 19  1  0  0  0  0
  9 36  1  0  0  0  0
 10 17  1  0  0  0  0
 10 11  1  0  0  0  0
 11 12  2  0  0  0  0
 11 37  1  0  0  0  0
 12 13  1  0  0  0  0
 12 14  1  0  0  0  0
 14 15  2  0  0  0  0
 14 16  1  0  0  0  0
 16 27  1  0  0  0  0
 16 17  1  0  0  0  0
 17 18  2  0  0  0  0
 19 20  1  0  0  0  0
 19 21  1  0  0  0  0
 19 38  1  0  0  0  0
 21 22  1  0  0  0  0
 21 39  1  0  0  0  0
 22 23  1  0  0  0  0
 23 24  2  0  0  0  0
 23 25  1  0  0  0  0
 25 26  1  0  0  0  0
 25 40  1  0  0  0  0
 25 41  1  0  0  0  0
 26 42  1  0  0  0  0
 26 43  1  0  0  0  0
 26 44  1  0  0  0  0
M  END
> <s_m_source_file>
AV-unprocessed.smi

> <i_m_source_file_index>
37

> <i_lp_mmshare_version>
43012

> <i_f3d_flags>
0

> <s_epik_input>
W0NIM11bQ0gyXUMoPU8pT1tDSDJdW0NAQEhdMU9bQ0BASF0objJbY0hdYyhGKWMoPU8pW25IXWMyPU8pW0NAQEhdKEJyKVtDQEhdMU9DKD1PKVtDSDJdW0NIM10=

> <s_epik_cmdline>
J2VwaWtfcHl0aG9uJywgJy1waCcsICc3LjAnLCAnLXRuJywgJzgnLCAnLW1hJywgJzIwMCcsICctbWV0YWxfYmluZGluZycsICctaW1hZScsICc8aW5maWxlLm1hZT4nLCAnLW9tYWUnLCAnPG91dGZpbGUubWFlPic=

> <r_lp_tautomer_probability>
0.999537

> <r_epik_Ionization_Penalty>
0.104106

> <r_epik_Ionization_Penalty_Charging>
0.104106

> <r_epik_Ionization_Penalty_Neutral>
3.94675e-16

> <r_epik_State_Penalty>
0.0940182

> <r_epik_Charging_Adjusted_Penalty>
0.198124

> <i_epik_Tot_Q>
0

> <i_epik_Tot_abs_Q>
0

> <r_epik_Metal_State_Penalty>
3.05314

> <b_epik_Metal_Only>
0

> <s_epik_Chemistry_Notes>
This compound has an ester and may undergo hydrolysis at high or low pH. This compound contains an acetal/aminal-like group ( X-CH(R)-Y where X, Y are N, S, or O) that may be acid/base labile, releasing an aldehyde.

> <s_lp_Force_Field>
OPLS_2005

> <r_lp_Energy>
23.3394

> <b_lp_Chiralities_Consistent>
1

> <s_lp_Variant>
AV-unprocessed.smi:37-7

> <Gold.Version>
5.8.1

> <Gold.Id.Protein>
6NUR|6NUR_protein|mol2

> <Gold.PLP.Fitness>
40.4784

> <Gold.PLP.PLP>
-27.2583

> <Gold.PLP.part.hbond>
-5.0000

> <Gold.PLP.part.metal>
0.0000

> <Gold.PLP.part.buried>
-2.9887

> <Gold.PLP.part.nonpolar>
-20.8921

> <Gold.PLP.part.repulsive>
1.5879

> <Gold.PLP.ligand.clash>
0.0035

> <Gold.PLP.ligand.torsion>
0.6132

> <Gold.PLP.Chemscore.Hbond>
4.7600

> <Gold.PLP.Chemscore.CHOScore>
0.0000

> <Gold.PLP.Chemscore.Metal>
0.0000

> <Gold.Chemscore.Hbonds>
donor molecule, donor type, donor heavy atom, donor atom, acceptor molecule, acceptor atom, score
      P1  H  6896  6908       L1     8  1.00
      P1  H  6931  6943       L1     4  0.78
      P1  H  6934  6947       L1     4  0.83
      P1  H  7997  8010       L1    15  0.94
      P1  H 10752 10764       L1    18  0.81

> <Gold.PLP.Chemscore.Internal.Correction>
0.1700

> <Gold.Rescore>
     Score         DG    S(hbond)    S(metal)    S(lipo)     H(rot)  DE(clash)    DE(int)     intcor
     13.68     -15.29       3.90        0.00      45.53       3.33       0.00       1.62       ----

> <Gold.Chemscore.Fitness>
13.6751

> <Gold.Chemscore.DG>
-15.2945

> <Gold.Chemscore.ZeroCoef>
-5.4800

> <Gold.Chemscore.Hbond>
3.8961

> <Gold.Chemscore.Metal>
0.0000

> <Gold.Chemscore.Lipo>
45.5309

> <Gold.Chemscore.Internal_Hbond>
0.0000

> <Gold.Chemscore.DEClash>
0.0023

> <Gold.Chemscore.DEInternal>
1.6171

> <Gold.Chemscore.Rot>
3.3303

> <Gold.Chemscore.Internal.Correction>
   9.000000E+99

> <Gold.Chemscore.Hbonds>
donor molecule, donor type, donor heavy atom, donor atom, acceptor molecule, acceptor atom, score
      P1  H  6896  6908       L1     8  0.50
      P1  H  6931  6943       L1     4  0.79
      P1  H  6934  6947       L1     4  0.83
      P1  H  7997  8010       L1    15  0.76
      P1  H 10752 10764       L1    18  0.80

> <Gold.Chemscore.Hbond.Weighted>
-13.0130

> <Gold.Chemscore.Metal.Weighted>
-0.0000

> <Gold.Chemscore.Lipo.Weighted>
-5.3271

> <Gold.Chemscore.Internal_Hbond.Weighted>
0.0000

> <Gold.Chemscore.DEClash.Weighted>
0.0023

> <Gold.Chemscore.DEInternal.Weighted>
1.6171

> <Gold.Chemscore.Rot.Weighted>
8.5256

> <Gold.Chemscore.Internal.Correction.Weighted>
   9.000000E+99

> <Gold.Protein.RotatedTorsions>
[ 6907 6896 6895 6894 ] final  170.49 input  -60.11 | X-H torsion
[ 7974 7965 7964 7962 ] final  103.95 input  175.53 | X-H torsion
[ 8008 7997 7996 7995 ] final   36.36 input   59.86 | X-H torsion
[ 10167 10162 10161 10158 ] final  -98.17 input  -65.29 | X-H torsion
[ 10718 10713 10712 10709 ] final -141.41 input   66.30 | X-H torsion
[ 10763 10752 10751 10750 ] final    1.62 input  -60.55 | X-H torsion
[ 11005 11000 10999 10996 ] final  -52.00 input  -57.11 | X-H torsion

> <Gold.Protein.ActiveResidues>
 VAL166  LYS551  ARG553  GLY616  TRP617  ASP618  TYR619  PRO620  LYS621  CYS622 
 ASP623  PHE694  ASN695  SER759  ASP760  ASP761  ALA762  ILE779  LEU786  VAL792 
 PHE793  MET794  SER795  GLU796  ALA797  LYS798  CYS799  TRP800  GLU811  SER814 

> <Gold.Protein.RotatedAtoms>
  151.8152  133.3387  159.3567 H   0  0  0  0  0  0  0  0  0  0  0  0  # atno 6907 bound_to 6896
  150.7313  134.5626  159.5859 H   0  0  0  0  0  0  0  0  0  0  0  0  # atno 6908 bound_to 6896
  152.3046  134.7571  160.0401 H   0  0  0  0  0  0  0  0  0  0  0  0  # atno 6909 bound_to 6896
  145.3392  139.2466  143.3618 H   0  0  0  0  0  0  0  0  0  0  0  0  # atno 7974 bound_to 7965
  155.1862  140.3304  155.4366 H   0  0  0  0  0  0  0  0  0  0  0  0  # atno 8008 bound_to 7997
  156.2459  140.1918  156.6907 H   0  0  0  0  0  0  0  0  0  0  0  0  # atno 8009 bound_to 7997
  154.6237  140.0592  156.9633 H   0  0  0  0  0  0  0  0  0  0  0  0  # atno 8010 bound_to 7997
  140.2757  143.3314  152.0491 H   0  0  0  0  0  0  0  0  0  0  0  0  # atno 10167 bound_to 10162
  156.3337  130.7600  151.1723 H   0  0  0  0  0  0  0  0  0  0  0  0  # atno 10718 bound_to 10713
  153.3058  135.6959  153.7161 H   0  0  0  0  0  0  0  0  0  0  0  0  # atno 10763 bound_to 10752
  153.6057  135.3454  155.2962 H   0  0  0  0  0  0  0  0  0  0  0  0  # atno 10764 bound_to 10752
  154.8562  135.4351  154.2182 H   0  0  0  0  0  0  0  0  0  0  0  0  # atno 10765 bound_to 10752
  141.0901  133.6634  156.3959 H   0  0  0  0  0  0  0  0  0  0  0  0  # atno 11005 bound_to 11000
  146.3014  140.3986  142.8702 LP  0  0  0  0  0  0  0  0  0  0  0  0  # atno 17320 bound_to 7965
  144.8803  140.7392  143.5991 LP  0  0  0  0  0  0  0  0  0  0  0  0  # atno 17321 bound_to 7965
  139.4976  144.6626  151.6430 LP  0  0  0  0  0  0  0  0  0  0  0  0  # atno 17342 bound_to 10162
  140.5853  143.9875  150.6292 LP  0  0  0  0  0  0  0  0  0  0  0  0  # atno 17343 bound_to 10162
  157.7435  131.0474  150.4942 LP  0  0  0  0  0  0  0  0  0  0  0  0  # atno 17370 bound_to 10713
  156.5112  130.4140  149.6300 LP  0  0  0  0  0  0  0  0  0  0  0  0  # atno 17371 bound_to 10713
  140.5272  134.6247  157.5338 LP  0  0  0  0  0  0  0  0  0  0  0  0  # atno 17394 bound_to 11000
  139.9725  134.7269  156.0013 LP  0  0  0  0  0  0  0  0  0  0  0  0  # atno 17395 bound_to 11000

$$$$
