AV-unprocessed.smi:2647|AV-procd|sdf|10284|dock4
  -GOLD-   2272014293D 1   1.00000     0.00000
 Structure written by MMmdl.
 31 32  0  0  0  0  0  0  0  0  2 V2000
  150.3797  134.7836  156.3297 O   0  0  0  0  0  0  0  0  0  0  0  0
  150.3188  135.3453  155.2336 C   0  0  0  0  0  0  0  0  0  0  0  0
  149.2802  135.1115  154.4185 N   0  0  0  0  0  0  0  0  0  0  0  0
  148.1607  134.2169  154.6923 C   0  0  0  0  0  0  0  0  0  0  0  0
  147.4124  133.8372  153.4046 C   0  0  0  0  0  0  0  0  0  0  0  0
  146.6595  132.5026  153.5356 C   0  0  0  0  0  0  0  0  0  0  0  0
  145.5931  132.3882  152.5354 N   0  0  0  0  0  0  0  0  0  0  0  0
  144.6879  133.3462  152.2906 C   0  0  0  0  0  0  0  0  0  0  0  0
  144.6027  134.4327  152.8625 O   0  0  0  0  0  0  0  0  0  0  0  0
  143.7387  132.9295  151.1755 C   0  0  0  0  0  0  0  0  0  0  0  0
  144.2429  131.5339  150.7951 C   0  0  0  0  0  0  0  0  0  0  0  0
  145.4251  131.3277  151.7324 C   0  0  0  0  0  0  0  0  0  0  0  0
  146.1114  130.3065  151.7183 O   0  0  0  0  0  0  0  0  0  0  0  0
  151.2248  136.2119  154.7260 N   0  5  0  0  0  0  0  0  0  0  0  0
  150.9480  137.5257  154.6848 C   0  0  0  0  0  0  0  0  0  0  0  0
  151.9096  138.4630  154.6784 N   0  0  0  0  0  0  0  0  0  0  0  0
  151.4102  139.7578  154.6385 N   0  0  0  0  0  0  0  0  0  0  0  0
  150.0774  139.7641  154.6249 C   0  0  0  0  0  0  0  0  0  0  0  0
  149.3119  138.1899  154.6617 S   0  0  0  0  0  0  0  0  0  0  0  0
  149.2712  135.5941  153.5320 H   0  0  0  0  0  0  0  0  0  0  0  0
  148.5111  133.3231  155.2113 H   0  0  0  0  0  0  0  0  0  0  0  0
  147.4839  134.7279  155.3773 H   0  0  0  0  0  0  0  0  0  0  0  0
  146.7085  134.6305  153.1490 H   0  0  0  0  0  0  0  0  0  0  0  0
  148.1193  133.7736  152.5763 H   0  0  0  0  0  0  0  0  0  0  0  0
  147.3599  131.6717  153.4342 H   0  0  0  0  0  0  0  0  0  0  0  0
  146.2383  132.4103  154.5382 H   0  0  0  0  0  0  0  0  0  0  0  0
  142.7098  132.9069  151.5360 H   0  0  0  0  0  0  0  0  0  0  0  0
  143.8043  133.6264  150.3393 H   0  0  0  0  0  0  0  0  0  0  0  0
  143.4850  130.7680  150.9627 H   0  0  0  0  0  0  0  0  0  0  0  0
  144.5668  131.4878  149.7548 H   0  0  0  0  0  0  0  0  0  0  0  0
  149.5418  140.7011  154.5955 H   0  0  0  0  0  0  0  0  0  0  0  0
  1  2  2  0  0  0  0
  2  3  1  0  0  0  0
  2 14  1  0  0  0  0
  3  4  1  0  0  0  0
  3 20  1  0  0  0  0
  4  5  1  0  0  0  0
  4 21  1  0  0  0  0
  4 22  1  0  0  0  0
  5  6  1  0  0  0  0
  5 23  1  0  0  0  0
  5 24  1  0  0  0  0
  6  7  1  0  0  0  0
  6 25  1  0  0  0  0
  6 26  1  0  0  0  0
  7 12  1  0  0  0  0
  7  8  1  0  0  0  0
  8  9  2  0  0  0  0
  8 10  1  0  0  0  0
 10 11  1  0  0  0  0
 10 27  1  0  0  0  0
 10 28  1  0  0  0  0
 11 12  1  0  0  0  0
 11 29  1  0  0  0  0
 11 30  1  0  0  0  0
 12 13  2  0  0  0  0
 14 15  1  0  0  0  0
 15 19  1  0  0  0  0
 15 16  2  0  0  0  0
 16 17  1  0  0  0  0
 17 18  2  0  0  0  0
 18 19  1  0  0  0  0
 18 31  1  0  0  0  0
M  CHG  1  14  -1
M  END
> <s_m_source_file>
AV-unprocessed.smi

> <i_m_source_file_index>
2647

> <i_lp_mmshare_version>
43012

> <i_f3d_flags>
0

> <s_epik_input>
czFbY0hdbm5jMVtOSF1DKD1PKVtOSF1bQ0gyXVtDSDJdW0NIMl1OMkMoPU8pW0NIMl1bQ0gyXUMyPU8=

> <s_epik_cmdline>
J2VwaWtfcHl0aG9uJywgJy1waCcsICc3LjAnLCAnLXRuJywgJzgnLCAnLW1hJywgJzIwMCcsICctbWV0YWxfYmluZGluZycsICctaW1hZScsICc8aW5maWxlLm1hZT4nLCAnLW9tYWUnLCAnPG91dGZpbGUubWFlPic=

> <r_lp_tautomer_probability>
1

> <r_epik_Ionization_Penalty>
3.50019

> <r_epik_Ionization_Penalty_Charging>
3.45871

> <r_epik_Ionization_Penalty_Neutral>
0.0414811

> <r_epik_State_Penalty>
3.45698

> <r_epik_Charging_Adjusted_Penalty>
6.91569

> <i_epik_Tot_Q>
-1

> <i_epik_Tot_abs_Q>
1

> <r_epik_Metal_State_Penalty>
0.503209

> <b_epik_Metal_Only>
1

> <s_lp_Force_Field>
OPLS_2005

> <r_lp_Energy>
9.35786

> <b_lp_Chiralities_Consistent>
1

> <s_lp_Variant>
AV-unprocessed.smi:2647-2

> <Gold.Version>
5.8.1

> <Gold.Id.Protein>
6NUR|6NUR_protein|mol2

> <Gold.PLP.Fitness>
38.2237

> <Gold.PLP.PLP>
-28.7043

> <Gold.PLP.part.hbond>
-3.0000

> <Gold.PLP.part.metal>
0.0000

> <Gold.PLP.part.buried>
-6.6641

> <Gold.PLP.part.nonpolar>
-20.1564

> <Gold.PLP.part.repulsive>
0.5678

> <Gold.PLP.ligand.clash>
0.0000

> <Gold.PLP.ligand.torsion>
1.2906

> <Gold.PLP.Chemscore.Hbond>
4.0000

> <Gold.PLP.Chemscore.CHOScore>
0.0000

> <Gold.PLP.Chemscore.Metal>
0.0000

> <Gold.Chemscore.Hbonds>
donor molecule, donor type, donor heavy atom, donor atom, acceptor molecule, acceptor atom, score
      L1  H     3    20       P1  7948  1.00
      P1  H  7989  7998       L1    17  0.90
      P1  H 10752 10763       L1    14  2.00

> <Gold.PLP.Chemscore.Internal.Correction>
0.1005

> <Gold.Rescore>
     Score         DG    S(hbond)    S(metal)    S(lipo)     H(rot)  DE(clash)    DE(int)     intcor
     10.14     -12.63       2.49        0.00      40.78       2.32       0.02       2.47       ----

> <Gold.Chemscore.Fitness>
10.1403

> <Gold.Chemscore.DG>
-12.6273

> <Gold.Chemscore.ZeroCoef>
-5.4800

> <Gold.Chemscore.Hbond>
2.4910

> <Gold.Chemscore.Metal>
0.0000

> <Gold.Chemscore.Lipo>
40.7816

> <Gold.Chemscore.Internal_Hbond>
0.0000

> <Gold.Chemscore.DEClash>
0.0174

> <Gold.Chemscore.DEInternal>
2.4696

> <Gold.Chemscore.Rot>
2.3219

> <Gold.Chemscore.Internal.Correction>
   9.000000E+99

> <Gold.Chemscore.Hbonds>
donor molecule, donor type, donor heavy atom, donor atom, acceptor molecule, acceptor atom, score
      L1  H     3    20       P1  7948  0.45
      P1  H  7989  7998       L1    17  0.18
      P1  H 10752 10763       L1    14  0.95

> <Gold.Chemscore.Hbond.Weighted>
-8.3199

> <Gold.Chemscore.Metal.Weighted>
-0.0000

> <Gold.Chemscore.Lipo.Weighted>
-4.7714

> <Gold.Chemscore.Internal_Hbond.Weighted>
0.0000

> <Gold.Chemscore.DEClash.Weighted>
0.0174

> <Gold.Chemscore.DEInternal.Weighted>
2.4696

> <Gold.Chemscore.Rot.Weighted>
5.9441

> <Gold.Chemscore.Internal.Correction.Weighted>
   9.000000E+99

> <Gold.Protein.RotatedTorsions>
[ 6907 6896 6895 6894 ] final   -9.47 input  -60.11 | X-H torsion
[ 7974 7965 7964 7962 ] final  105.42 input  175.53 | X-H torsion
[ 8008 7997 7996 7995 ] final  167.34 input   59.86 | X-H torsion
[ 10167 10162 10161 10158 ] final  -58.25 input  -65.29 | X-H torsion
[ 10718 10713 10712 10709 ] final  111.22 input   66.30 | X-H torsion
[ 10763 10752 10751 10750 ] final   39.90 input  -60.55 | X-H torsion
[ 11005 11000 10999 10996 ] final -148.68 input  -57.11 | X-H torsion

> <Gold.Protein.ActiveResidues>
 VAL166  LYS551  ARG553  GLY616  TRP617  ASP618  TYR619  PRO620  LYS621  CYS622 
 ASP623  PHE694  ASN695  SER759  ASP760  ASP761  ALA762  ILE779  LEU786  VAL792 
 PHE793  MET794  SER795  GLU796  ALA797  LYS798  CYS799  TRP800  GLU811  SER814 

> <Gold.Protein.RotatedAtoms>
  151.4172  135.0993  159.9602 H   0  0  0  0  0  0  0  0  0  0  0  0  # atno 6907 bound_to 6896
  152.5000  133.8741  159.7324 H   0  0  0  0  0  0  0  0  0  0  0  0  # atno 6908 bound_to 6896
  150.9249  133.6778  159.2851 H   0  0  0  0  0  0  0  0  0  0  0  0  # atno 6909 bound_to 6896
  145.3199  139.2516  143.3717 H   0  0  0  0  0  0  0  0  0  0  0  0  # atno 7974 bound_to 7965
  156.1642  140.1619  156.8560 H   0  0  0  0  0  0  0  0  0  0  0  0  # atno 8008 bound_to 7997
  154.5190  140.0782  156.8172 H   0  0  0  0  0  0  0  0  0  0  0  0  # atno 8009 bound_to 7997
  155.3646  140.3397  155.4244 H   0  0  0  0  0  0  0  0  0  0  0  0  # atno 8010 bound_to 7997
  140.6208  143.2419  151.5484 H   0  0  0  0  0  0  0  0  0  0  0  0  # atno 10167 bound_to 10162
  157.6455  131.0947  150.6717 H   0  0  0  0  0  0  0  0  0  0  0  0  # atno 10718 bound_to 10713
  152.9953  135.6207  154.2539 H   0  0  0  0  0  0  0  0  0  0  0  0  # atno 10763 bound_to 10752
  154.2277  135.2793  155.2903 H   0  0  0  0  0  0  0  0  0  0  0  0  # atno 10764 bound_to 10752
  154.5476  135.5743  153.6951 H   0  0  0  0  0  0  0  0  0  0  0  0  # atno 10765 bound_to 10752
  140.7586  134.3324  157.5107 H   0  0  0  0  0  0  0  0  0  0  0  0  # atno 11005 bound_to 11000
  146.3086  140.3754  142.8678 LP  0  0  0  0  0  0  0  0  0  0  0  0  # atno 17320 bound_to 7965
  144.8948  140.7569  143.5904 LP  0  0  0  0  0  0  0  0  0  0  0  0  # atno 17321 bound_to 7965
  139.5437  144.2578  152.1401 LP  0  0  0  0  0  0  0  0  0  0  0  0  # atno 17342 bound_to 10162
  140.1797  144.4856  150.6535 LP  0  0  0  0  0  0  0  0  0  0  0  0  # atno 17343 bound_to 10162
  156.7034  130.4630  149.5566 LP  0  0  0  0  0  0  0  0  0  0  0  0  # atno 17370 bound_to 10713
  156.1779  130.6480  151.0916 LP  0  0  0  0  0  0  0  0  0  0  0  0  # atno 17371 bound_to 10713
  139.8774  134.9188  156.3211 LP  0  0  0  0  0  0  0  0  0  0  0  0  # atno 17394 bound_to 11000
  140.9684  133.7343  156.0499 LP  0  0  0  0  0  0  0  0  0  0  0  0  # atno 17395 bound_to 11000

$$$$
