AV-unprocessed.smi:285|AV-procd|sdf|2171|dock5
  -GOLD-   2262021533D 1   1.00000     0.00000
 Structure written by MMmdl.
 31 33  0  0  0  0  0  0  0  0  1 V2000
  141.6521  138.8433  153.8148 N   0  0  0  0  0  0  0  0  0  0  0  0
  141.7132  137.5066  153.7349 C   0  0  0  0  0  0  0  0  0  0  0  0
  140.7594  136.7806  154.3635 N   0  0  0  0  0  0  0  0  0  0  0  0
  140.7961  135.4458  154.2981 C   0  0  0  0  0  0  0  0  0  0  0  0
  141.6792  134.6635  153.6715 N   0  0  0  0  0  0  0  0  0  0  0  0
  142.6426  135.3957  153.0383 C   0  0  0  0  0  0  0  0  0  0  0  0
  142.7283  136.8191  153.0227 C   0  0  0  0  0  0  0  0  0  0  0  0
  143.8308  137.2257  152.2817 N   0  0  0  0  0  0  0  0  0  0  0  0
  144.3480  136.0941  151.8923 C   0  0  0  0  0  0  0  0  0  0  0  0
  145.9098  136.0740  150.8022 Br  0  0  0  0  0  0  0  0  0  0  0  0
  143.7121  134.9405  152.2926 N   0  0  0  0  0  0  0  0  0  0  0  0
  144.0711  133.5189  152.0031 C   0  0  2  0  0  0  0  0  0  0  0  0
  145.4849  133.4047  151.4542 C   0  0  0  0  0  0  0  0  0  0  0  0
  145.3740  132.0751  150.7412 C   0  0  2  0  0  0  0  0  0  0  0  0
  146.3980  131.9164  149.7794 O   0  0  0  0  0  0  0  0  0  0  0  0
  143.9372  132.1116  150.1754 C   0  0  2  0  0  0  0  0  0  0  0  0
  143.7955  132.6182  148.7261 C   0  0  0  0  0  0  0  0  0  0  0  0
  142.4829  132.4080  148.2473 O   0  0  0  0  0  0  0  0  0  0  0  0
  143.2254  133.0287  151.0116 O   0  0  0  0  0  0  0  0  0  0  0  0
  142.3517  139.4075  153.3537 H   0  0  0  0  0  0  0  0  0  0  0  0
  140.9074  139.2839  154.3351 H   0  0  0  0  0  0  0  0  0  0  0  0
  140.0050  134.9303  154.8222 H   0  0  0  0  0  0  0  0  0  0  0  0
  143.9199  132.9660  152.9300 H   0  0  0  0  0  0  0  0  0  0  0  0
  145.6804  134.2165  150.7516 H   0  0  0  0  0  0  0  0  0  0  0  0
  146.2271  133.4246  152.2526 H   0  0  0  0  0  0  0  0  0  0  0  0
  145.4520  131.2695  151.4728 H   0  0  0  0  0  0  0  0  0  0  0  0
  147.1460  131.5208  150.2009 H   0  0  0  0  0  0  0  0  0  0  0  0
  143.4700  131.1302  150.2676 H   0  0  0  0  0  0  0  0  0  0  0  0
  143.9885  133.6906  148.6883 H   0  0  0  0  0  0  0  0  0  0  0  0
  144.5192  132.1414  148.0643 H   0  0  0  0  0  0  0  0  0  0  0  0
  141.9472  133.1404  148.5111 H   0  0  0  0  0  0  0  0  0  0  0  0
  1  2  1  0  0  0  0
  1 20  1  0  0  0  0
  1 21  1  0  0  0  0
  2  7  1  0  0  0  0
  2  3  2  0  0  0  0
  3  4  1  0  0  0  0
  4  5  2  0  0  0  0
  4 22  1  0  0  0  0
  5  6  1  0  0  0  0
  6 11  1  0  0  0  0
  6  7  2  0  0  0  0
  7  8  1  0  0  0  0
  8  9  2  0  0  0  0
  9 10  1  0  0  0  0
  9 11  1  0  0  0  0
 11 12  1  0  0  0  0
 12 19  1  0  0  0  0
 12 13  1  0  0  0  0
 12 23  1  0  0  0  0
 13 14  1  0  0  0  0
 13 24  1  0  0  0  0
 13 25  1  0  0  0  0
 14 15  1  0  0  0  0
 14 16  1  0  0  0  0
 14 26  1  0  0  0  0
 15 27  1  0  0  0  0
 16 17  1  0  0  0  0
 16 19  1  0  0  0  0
 16 28  1  0  0  0  0
 17 18  1  0  0  0  0
 17 29  1  0  0  0  0
 17 30  1  0  0  0  0
 18 31  1  0  0  0  0
M  END
> <s_m_source_file>
AV-unprocessed.smi

> <i_m_source_file_index>
285

> <i_lp_mmshare_version>
43012

> <i_f3d_flags>
0

> <s_epik_input>
bjFbY0hdbmMoW05IMl0pYyhjMTIpbmMoQnIpbjJbQ0BASF0zW0NIMl1bQ0BASF0oW09IXSlbQ0BIXShPMylbQ0gyXVtPSF0=

> <s_epik_cmdline>
J2VwaWtfcHl0aG9uJywgJy1waCcsICc3LjAnLCAnLXRuJywgJzgnLCAnLW1hJywgJzIwMCcsICctbWV0YWxfYmluZGluZycsICctaW1hZScsICc8aW5maWxlLm1hZT4nLCAnLW9tYWUnLCAnPG91dGZpbGUubWFlPic=

> <r_lp_tautomer_probability>
1

> <r_epik_Ionization_Penalty>
0.000103242

> <r_epik_Ionization_Penalty_Charging>
0

> <r_epik_Ionization_Penalty_Neutral>
0.000103242

> <r_epik_State_Penalty>
-0

> <r_epik_Charging_Adjusted_Penalty>
0

> <i_epik_Tot_Q>
0

> <i_epik_Tot_abs_Q>
0

> <r_epik_Metal_State_Penalty>
-0

> <b_epik_Metal_Only>
0

> <s_epik_Chemistry_Notes>
This compound contains an acetal/aminal-like group ( X-CH(R)-Y where X, Y are N, S, or O) that may be acid/base labile, releasing an aldehyde.

> <s_lp_Force_Field>
OPLS_2005

> <r_lp_Energy>
36.2712

> <b_lp_Chiralities_Consistent>
1

> <s_lp_Variant>
AV-unprocessed.smi:285-7

> <Gold.Version>
5.8.1

> <Gold.Id.Protein>
6NUR|6NUR_protein|mol2

> <Gold.PLP.Fitness>
36.5679

> <Gold.PLP.PLP>
-33.0770

> <Gold.PLP.part.hbond>
-5.3013

> <Gold.PLP.part.metal>
0.0000

> <Gold.PLP.part.buried>
-6.6819

> <Gold.PLP.part.nonpolar>
-25.0377

> <Gold.PLP.part.repulsive>
3.6504

> <Gold.PLP.ligand.clash>
7.0514

> <Gold.PLP.ligand.torsion>
0.4650

> <Gold.PLP.Chemscore.Hbond>
3.0000

> <Gold.PLP.Chemscore.CHOScore>
0.8204

> <Gold.PLP.Chemscore.Metal>
0.0000

> <Gold.Chemscore.Hbonds>
donor molecule, donor type, donor heavy atom, donor atom, acceptor molecule, acceptor atom, score
      L1  H     1    20       P1 10175  1.00
      L1  H    15    27       P1 10747  1.00
      L1  H    18    31       P1 10186  1.00
      L1  C     4    22       P1 11000  0.79

> <Gold.PLP.Chemscore.Internal.Correction>
0.0110

> <Gold.Rescore>
     Score         DG    S(hbond)    S(metal)    S(lipo)     H(rot)  DE(clash)    DE(int)     intcor
      9.79     -13.05       2.94        0.00      47.70       3.06       1.73       1.52       ----

> <Gold.Chemscore.Fitness>
9.7945

> <Gold.Chemscore.DG>
-13.0497

> <Gold.Chemscore.ZeroCoef>
-5.4800

> <Gold.Chemscore.Hbond>
2.9413

> <Gold.Chemscore.Metal>
0.0000

> <Gold.Chemscore.Lipo>
47.7025

> <Gold.Chemscore.Internal_Hbond>
0.0000

> <Gold.Chemscore.DEClash>
1.7303

> <Gold.Chemscore.DEInternal>
1.5250

> <Gold.Chemscore.Rot>
3.0607

> <Gold.Chemscore.Internal.Correction>
   9.000000E+99

> <Gold.Chemscore.Hbonds>
donor molecule, donor type, donor heavy atom, donor atom, acceptor molecule, acceptor atom, score
      L1  H     1    20       P1 10175  1.00
      L1  H    15    27       P1 10747  0.97
      L1  H    18    31       P1 10186  1.00

> <Gold.Chemscore.Hbond.Weighted>
-9.8239

> <Gold.Chemscore.Metal.Weighted>
-0.0000

> <Gold.Chemscore.Lipo.Weighted>
-5.5812

> <Gold.Chemscore.Internal_Hbond.Weighted>
0.0000

> <Gold.Chemscore.DEClash.Weighted>
1.7303

> <Gold.Chemscore.DEInternal.Weighted>
1.5250

> <Gold.Chemscore.Rot.Weighted>
7.8354

> <Gold.Chemscore.Internal.Correction.Weighted>
   9.000000E+99

> <Gold.Protein.RotatedTorsions>
[ 6907 6896 6895 6894 ] final  172.11 input  -60.11 | X-H torsion
[ 7974 7965 7964 7962 ] final   70.62 input  175.53 | X-H torsion
[ 8008 7997 7996 7995 ] final   69.96 input   59.86 | X-H torsion
[ 10167 10162 10161 10158 ] final  147.05 input  -65.29 | X-H torsion
[ 10718 10713 10712 10709 ] final   92.37 input   66.30 | X-H torsion
[ 10763 10752 10751 10750 ] final   88.86 input  -60.55 | X-H torsion
[ 11005 11000 10999 10996 ] final -114.91 input  -57.11 | X-H torsion

> <Gold.Protein.ActiveResidues>
 VAL166  LYS551  ARG553  GLY616  TRP617  ASP618  TYR619  PRO620  LYS621  CYS622 
 ASP623  PHE694  ASN695  SER759  ASP760  ASP761  ALA762  ILE779  LEU786  VAL792 
 PHE793  MET794  SER795  GLU796  ALA797  LYS798  CYS799  TRP800  GLU811  SER814 

> <Gold.Protein.RotatedAtoms>
  151.7896  133.3358  159.3494 H   0  0  0  0  0  0  0  0  0  0  0  0  # atno 6907 bound_to 6896
  150.7397  134.5855  159.5970 H   0  0  0  0  0  0  0  0  0  0  0  0  # atno 6908 bound_to 6896
  152.3219  134.7370  160.0363 H   0  0  0  0  0  0  0  0  0  0  0  0  # atno 6909 bound_to 6896
  145.7759  139.2864  143.1294 H   0  0  0  0  0  0  0  0  0  0  0  0  # atno 7974 bound_to 7965
  155.7315  140.3492  155.5061 H   0  0  0  0  0  0  0  0  0  0  0  0  # atno 8008 bound_to 7997
  155.9178  140.1062  157.1252 H   0  0  0  0  0  0  0  0  0  0  0  0  # atno 8009 bound_to 7997
  154.4065  140.1255  156.4627 H   0  0  0  0  0  0  0  0  0  0  0  0  # atno 8010 bound_to 7997
  139.4896  144.5784  151.6920 H   0  0  0  0  0  0  0  0  0  0  0  0  # atno 10167 bound_to 10162
  157.6959  131.0441  150.3871 H   0  0  0  0  0  0  0  0  0  0  0  0  # atno 10718 bound_to 10713
  153.1812  135.4491  155.0030 H   0  0  0  0  0  0  0  0  0  0  0  0  # atno 10763 bound_to 10752
  154.8031  135.3263  154.7503 H   0  0  0  0  0  0  0  0  0  0  0  0  # atno 10764 bound_to 10752
  153.7967  135.6966  153.4917 H   0  0  0  0  0  0  0  0  0  0  0  0  # atno 10765 bound_to 10752
  141.0522  133.9669  157.2817 H   0  0  0  0  0  0  0  0  0  0  0  0  # atno 11005 bound_to 11000
  146.0123  140.8424  142.9964 LP  0  0  0  0  0  0  0  0  0  0  0  0  # atno 17320 bound_to 7965
  144.6804  140.2508  143.7332 LP  0  0  0  0  0  0  0  0  0  0  0  0  # atno 17321 bound_to 7965
  140.5385  144.0617  150.6079 LP  0  0  0  0  0  0  0  0  0  0  0  0  # atno 17342 bound_to 10162
  140.3631  143.2897  152.0362 LP  0  0  0  0  0  0  0  0  0  0  0  0  # atno 17343 bound_to 10162
  156.4279  130.3966  149.6780 LP  0  0  0  0  0  0  0  0  0  0  0  0  # atno 17370 bound_to 10713
  156.4008  130.7674  151.2681 LP  0  0  0  0  0  0  0  0  0  0  0  0  # atno 17371 bound_to 10713
  139.9360  135.0196  156.8556 LP  0  0  0  0  0  0  0  0  0  0  0  0  # atno 17394 bound_to 11000
  140.6034  134.0151  155.7546 LP  0  0  0  0  0  0  0  0  0  0  0  0  # atno 17395 bound_to 11000

$$$$
