AV-unprocessed.smi:1586|AV-procd|sdf|6375|dock8
  -GOLD-   22720 7 03D 1   1.00000     0.00000
 Structure written by MMmdl.
 47 48  0  0  0  0  0  0  0  0  2 V2000
  144.0933  131.8315  150.6596 C   0  0  0  0  0  0  0  0  0  0  0  0
  144.8977  132.1450  151.9293 C   0  0  0  0  0  0  0  0  0  0  0  0
  146.2326  132.6630  151.6196 N   0  0  0  0  0  0  0  0  0  0  0  0
  146.2057  133.6873  150.5757 C   0  0  0  0  0  0  0  0  0  0  0  0
  145.5812  135.0108  151.0675 C   0  0  0  0  0  0  0  0  0  0  0  0
  146.3169  135.5465  152.2466 N   0  3  0  0  0  0  0  0  0  0  0  0
  145.8365  136.8665  152.7709 C   0  0  2  0  0  0  0  0  0  0  0  0
  144.3184  136.8999  153.0727 C   0  0  0  0  0  0  0  0  0  0  0  0
  146.2074  138.0034  151.7815 C   0  0  0  0  0  0  0  0  0  0  0  0
  147.4254  138.7152  152.1580 N   0  0  0  0  0  0  0  0  0  0  0  0
  147.7210  139.1121  153.4041 C   0  0  0  0  0  0  0  0  0  0  0  0
  146.9824  138.9132  154.3692 O   0  0  0  0  0  0  0  0  0  0  0  0
  148.9053  139.7454  153.4503 N   0  0  0  0  0  0  0  0  0  0  0  0
  149.5366  140.3117  154.5871 C   0  0  0  0  0  0  0  0  0  0  0  0
  148.7905  141.0479  155.5452 C   0  0  0  0  0  0  0  0  0  0  0  0
  149.7384  141.4113  156.4601 C   0  0  0  0  0  0  0  0  0  0  0  0
  149.6792  142.1938  157.7270 C   0  0  0  0  0  0  0  0  0  0  0  0
  150.9590  140.9369  156.0914 O   0  0  0  0  0  0  0  0  0  0  0  0
  150.8231  140.2324  154.8894 N   0  0  0  0  0  0  0  0  0  0  0  0
  146.3688  134.4998  153.3044 C   0  0  0  0  0  0  0  0  0  0  0  0
  146.9788  133.1901  152.7651 C   0  0  0  0  0  0  0  0  0  0  0  0
  143.0642  131.5782  150.9147 H   0  0  0  0  0  0  0  0  0  0  0  0
  144.5053  130.9843  150.1121 H   0  0  0  0  0  0  0  0  0  0  0  0
  144.0636  132.6894  149.9873 H   0  0  0  0  0  0  0  0  0  0  0  0
  144.3559  132.9082  152.4895 H   0  0  0  0  0  0  0  0  0  0  0  0
  144.9432  131.2670  152.5722 H   0  0  0  0  0  0  0  0  0  0  0  0
  147.2278  133.8691  150.2405 H   0  0  0  0  0  0  0  0  0  0  0  0
  145.6632  133.3122  149.7071 H   0  0  0  0  0  0  0  0  0  0  0  0
  145.6366  135.7112  150.2348 H   0  0  0  0  0  0  0  0  0  0  0  0
  144.5249  134.8841  151.3083 H   0  0  0  0  0  0  0  0  0  0  0  0
  146.3456  137.0422  153.7199 H   0  0  0  0  0  0  0  0  0  0  0  0
  143.9993  137.8800  153.4268 H   0  0  0  0  0  0  0  0  0  0  0  0
  144.0418  136.1995  153.8608 H   0  0  0  0  0  0  0  0  0  0  0  0
  143.7295  136.6674  152.1848 H   0  0  0  0  0  0  0  0  0  0  0  0
  146.3352  137.6364  150.7637 H   0  0  0  0  0  0  0  0  0  0  0  0
  145.3962  138.7308  151.7374 H   0  0  0  0  0  0  0  0  0  0  0  0
  148.0860  138.9164  151.4214 H   0  0  0  0  0  0  0  0  0  0  0  0
  149.4084  139.8363  152.5802 H   0  0  0  0  0  0  0  0  0  0  0  0
  147.7348  141.2740  155.5625 H   0  0  0  0  0  0  0  0  0  0  0  0
  148.6797  142.5969  157.8903 H   0  0  0  0  0  0  0  0  0  0  0  0
  150.3797  143.0286  157.6990 H   0  0  0  0  0  0  0  0  0  0  0  0
  149.9342  141.5661  158.5809 H   0  0  0  0  0  0  0  0  0  0  0  0
  146.9792  134.8303  154.1424 H   0  0  0  0  0  0  0  0  0  0  0  0
  145.3711  134.3268  153.7093 H   0  0  0  0  0  0  0  0  0  0  0  0
  147.0380  132.4450  153.5576 H   0  0  0  0  0  0  0  0  0  0  0  0
  148.0078  133.3728  152.4522 H   0  0  0  0  0  0  0  0  0  0  0  0
  147.2649  135.6942  151.9318 H   0  0  0  0  0  0  0  0  0  0  0  0
  1  2  1  0  0  0  0
  1 22  1  0  0  0  0
  1 23  1  0  0  0  0
  1 24  1  0  0  0  0
  2  3  1  0  0  0  0
  2 25  1  0  0  0  0
  2 26  1  0  0  0  0
  3 21  1  0  0  0  0
  3  4  1  0  0  0  0
  4  5  1  0  0  0  0
  4 27  1  0  0  0  0
  4 28  1  0  0  0  0
  5  6  1  0  0  0  0
  5 29  1  0  0  0  0
  5 30  1  0  0  0  0
  6  7  1  0  0  0  0
  6 20  1  0  0  0  0
  6 47  1  0  0  0  0
  7  8  1  0  0  0  0
  7  9  1  0  0  0  0
  7 31  1  0  0  0  0
  8 32  1  0  0  0  0
  8 33  1  0  0  0  0
  8 34  1  0  0  0  0
  9 10  1  0  0  0  0
  9 35  1  0  0  0  0
  9 36  1  0  0  0  0
 10 11  1  0  0  0  0
 10 37  1  0  0  0  0
 11 12  2  0  0  0  0
 11 13  1  0  0  0  0
 13 14  1  0  0  0  0
 13 38  1  0  0  0  0
 14 19  2  0  0  0  0
 14 15  1  0  0  0  0
 15 16  2  0  0  0  0
 15 39  1  0  0  0  0
 16 17  1  0  0  0  0
 16 18  1  0  0  0  0
 17 40  1  0  0  0  0
 17 41  1  0  0  0  0
 17 42  1  0  0  0  0
 18 19  1  0  0  0  0
 20 21  1  0  0  0  0
 20 43  1  0  0  0  0
 20 44  1  0  0  0  0
 21 45  1  0  0  0  0
 21 46  1  0  0  0  0
M  CHG  1   6   1
M  END
> <s_m_source_file>
AV-unprocessed.smi

> <i_m_source_file_index>
1586

> <i_lp_mmshare_version>
43012

> <i_f3d_flags>
0

> <s_epik_input>
W0NIM11bQ0gyXU4xW0NIMl1bQ0gyXU4oW0NIMl1bQ0gyXTEpW0NASF0oW0NIM10pW0NIMl1bTkhdQyg9TylbTkhdYzJbY0hdYyhbQ0gzXSlvbjI=

> <s_epik_cmdline>
J2VwaWtfcHl0aG9uJywgJy1waCcsICc3LjAnLCAnLXRuJywgJzgnLCAnLW1hJywgJzIwMCcsICctbWV0YWxfYmluZGluZycsICctaW1hZScsICc8aW5maWxlLm1hZT4nLCAnLW9tYWUnLCAnPG91dGZpbGUubWFlPic=

> <r_epik_Ionization_Penalty>
0.153363

> <r_epik_Ionization_Penalty_Charging>
0.151842

> <r_epik_Ionization_Penalty_Neutral>
0.00152029

> <r_epik_State_Penalty>
0.985235

> <r_epik_Charging_Adjusted_Penalty>
1.13708

> <i_epik_Tot_Q>
1

> <i_epik_Tot_abs_Q>
1

> <r_epik_Metal_State_Penalty>
0.996168

> <b_epik_Metal_Only>
0

> <s_lp_Force_Field>
OPLS_2005

> <r_lp_Energy>
18.9403

> <b_lp_Chiralities_Consistent>
1

> <s_lp_Variant>
AV-unprocessed.smi:1586-3

> <Gold.Version>
5.8.1

> <Gold.Id.Protein>
6NUR|6NUR_protein|mol2

> <Gold.PLP.Fitness>
46.2768

> <Gold.PLP.PLP>
-34.2305

> <Gold.PLP.part.hbond>
-4.8399

> <Gold.PLP.part.metal>
0.0000

> <Gold.PLP.part.buried>
-4.9403

> <Gold.PLP.part.nonpolar>
-25.2612

> <Gold.PLP.part.repulsive>
0.5715

> <Gold.PLP.ligand.clash>
0.0000

> <Gold.PLP.ligand.torsion>
1.2468

> <Gold.PLP.Chemscore.Hbond>
4.8233

> <Gold.PLP.Chemscore.CHOScore>
0.0000

> <Gold.PLP.Chemscore.Metal>
0.0000

> <Gold.Chemscore.Hbonds>
donor molecule, donor type, donor heavy atom, donor atom, acceptor molecule, acceptor atom, score
      L1  H     6    47       P1  7948  2.00
      L1  H    10    37       P1  7957  0.78
      L1  H    13    38       P1  7957  0.80
      P1  H  7989  7998       L1    19  1.00

> <Gold.PLP.Chemscore.Internal.Correction>
0.0702

> <Gold.Rescore>
     Score         DG    S(hbond)    S(metal)    S(lipo)     H(rot)  DE(clash)    DE(int)     intcor
     17.56     -20.63       3.58        0.00      65.74       1.76       0.13       2.94       ----

> <Gold.Chemscore.Fitness>
17.5594

> <Gold.Chemscore.DG>
-20.6252

> <Gold.Chemscore.ZeroCoef>
-5.4800

> <Gold.Chemscore.Hbond>
3.5834

> <Gold.Chemscore.Metal>
0.0000

> <Gold.Chemscore.Lipo>
65.7399

> <Gold.Chemscore.Internal_Hbond>
0.0000

> <Gold.Chemscore.DEClash>
0.1263

> <Gold.Chemscore.DEInternal>
2.9395

> <Gold.Chemscore.Rot>
1.7637

> <Gold.Chemscore.Internal.Correction>
   9.000000E+99

> <Gold.Chemscore.Hbonds>
donor molecule, donor type, donor heavy atom, donor atom, acceptor molecule, acceptor atom, score
      L1  H     6    47       P1  7948  1.00
      L1  H    10    37       P1  7957  0.48
      L1  H    13    38       P1  7957  0.78
      P1  H  7989  7998       L1    19  0.42

> <Gold.Chemscore.Hbond.Weighted>
-11.9686

> <Gold.Chemscore.Metal.Weighted>
-0.0000

> <Gold.Chemscore.Lipo.Weighted>
-7.6916

> <Gold.Chemscore.Internal_Hbond.Weighted>
0.0000

> <Gold.Chemscore.DEClash.Weighted>
0.1263

> <Gold.Chemscore.DEInternal.Weighted>
2.9395

> <Gold.Chemscore.Rot.Weighted>
4.5150

> <Gold.Chemscore.Internal.Correction.Weighted>
   9.000000E+99

> <Gold.Protein.RotatedTorsions>
[ 6907 6896 6895 6894 ] final  138.72 input  -60.11 | X-H torsion
[ 7974 7965 7964 7962 ] final  118.03 input  175.53 | X-H torsion
[ 8008 7997 7996 7995 ] final  167.76 input   59.86 | X-H torsion
[ 10167 10162 10161 10158 ] final    9.36 input  -65.29 | X-H torsion
[ 10718 10713 10712 10709 ] final -101.51 input   66.30 | X-H torsion
[ 10763 10752 10751 10750 ] final  -19.53 input  -60.55 | X-H torsion
[ 11005 11000 10999 10996 ] final   18.84 input  -57.11 | X-H torsion

> <Gold.Protein.ActiveResidues>
 VAL166  LYS551  ARG553  GLY616  TRP617  ASP618  TYR619  PRO620  LYS621  CYS622 
 ASP623  PHE694  ASN695  SER759  ASP760  ASP761  ALA762  ILE779  LEU786  VAL792 
 PHE793  MET794  SER795  GLU796  ALA797  LYS798  CYS799  TRP800  GLU811  SER814 

> <Gold.Protein.RotatedAtoms>
  152.2633  133.5317  159.5394 H   0  0  0  0  0  0  0  0  0  0  0  0  # atno 6907 bound_to 6896
  150.7133  134.0799  159.3903 H   0  0  0  0  0  0  0  0  0  0  0  0  # atno 6908 bound_to 6896
  151.8716  135.0487  160.0530 H   0  0  0  0  0  0  0  0  0  0  0  0  # atno 6909 bound_to 6896
  145.1602  139.3159  143.4521 H   0  0  0  0  0  0  0  0  0  0  0  0  # atno 7974 bound_to 7965
  156.1606  140.1608  156.8619 H   0  0  0  0  0  0  0  0  0  0  0  0  # atno 8008 bound_to 7997
  154.5157  140.0790  156.8112 H   0  0  0  0  0  0  0  0  0  0  0  0  # atno 8009 bound_to 7997
  155.3715  140.3400  155.4245 H   0  0  0  0  0  0  0  0  0  0  0  0  # atno 8010 bound_to 7997
  140.6259  143.8101  150.7233 H   0  0  0  0  0  0  0  0  0  0  0  0  # atno 10167 bound_to 10162
  156.0197  130.5377  150.6974 H   0  0  0  0  0  0  0  0  0  0  0  0  # atno 10718 bound_to 10713
  153.6062  135.6998  153.5365 H   0  0  0  0  0  0  0  0  0  0  0  0  # atno 10763 bound_to 10752
  153.3055  135.4116  155.1290 H   0  0  0  0  0  0  0  0  0  0  0  0  # atno 10764 bound_to 10752
  154.8572  135.3659  154.5599 H   0  0  0  0  0  0  0  0  0  0  0  0  # atno 10765 bound_to 10752
  140.4203  134.1525  155.7672 H   0  0  0  0  0  0  0  0  0  0  0  0  # atno 11005 bound_to 11000
  146.3483  140.1709  142.8589 LP  0  0  0  0  0  0  0  0  0  0  0  0  # atno 17320 bound_to 7965
  145.0339  140.8893  143.5093 LP  0  0  0  0  0  0  0  0  0  0  0  0  # atno 17321 bound_to 7965
  140.1702  143.4201  152.2006 LP  0  0  0  0  0  0  0  0  0  0  0  0  # atno 17342 bound_to 10162
  139.5480  144.7314  151.4523 LP  0  0  0  0  0  0  0  0  0  0  0  0  # atno 17343 bound_to 10162
  157.4642  131.0886  151.0713 LP  0  0  0  0  0  0  0  0  0  0  0  0  # atno 17370 bound_to 10713
  157.1192  130.6054  149.5501 LP  0  0  0  0  0  0  0  0  0  0  0  0  # atno 17371 bound_to 10713
  141.1786  133.8461  157.1335 LP  0  0  0  0  0  0  0  0  0  0  0  0  # atno 17394 bound_to 11000
  140.0205  134.9948  157.0581 LP  0  0  0  0  0  0  0  0  0  0  0  0  # atno 17395 bound_to 11000

$$$$
