AV-unprocessed.smi:2165|AV-procd|sdf|8813|dock10
  -GOLD-   2272012 03D 1   1.00000     0.00000
 Structure written by MMmdl.
 36 37  0  0  0  0  0  0  0  0  1 V2000
  152.5347  144.2707  162.4267 C   0  0  0  0  0  0  0  0  0  0  0  0
  152.5903  143.3375  161.3209 N   0  0  0  0  0  0  0  0  0  0  0  0
  153.2911  142.1176  161.4813 C   0  0  0  0  0  0  0  0  0  0  0  0
  153.8579  141.8090  162.5299 O   0  0  0  0  0  0  0  0  0  0  0  0
  153.2895  141.2621  160.3005 C   0  0  0  0  0  0  0  0  0  0  0  0
  152.6633  141.6448  159.1662 C   0  0  0  0  0  0  0  0  0  0  0  0
  151.9909  142.8461  159.0346 N   0  0  0  0  0  0  0  0  0  0  0  0
  151.3514  143.1876  157.7575 C   0  0  0  0  0  0  0  0  0  0  0  0
  150.2840  142.1709  157.3311 C   0  0  0  0  0  0  0  0  0  0  0  0
  149.1955  142.1221  157.9061 O   0  0  0  0  0  0  0  0  0  0  0  0
  150.6085  141.3724  156.3034 N   0  0  0  0  0  0  0  0  0  0  0  0
  149.7552  140.3256  155.7538 C   0  0  0  0  0  0  0  0  0  0  0  0
  149.0153  140.8049  154.4938 C   0  0  1  0  0  0  0  0  0  0  0  0
  147.8854  139.8760  154.0541 C   0  0  0  0  0  0  0  0  0  0  0  0
  147.0018  140.8217  153.2741 C   0  0  0  0  0  0  0  0  0  0  0  0
  147.1017  142.0970  154.1060 C   0  0  0  0  0  0  0  0  0  0  0  0
  148.3835  142.0615  154.7292 O   0  0  0  0  0  0  0  0  0  0  0  0
  151.9430  143.7343  160.1303 C   0  0  0  0  0  0  0  0  0  0  0  0
  151.3577  144.8166  160.0392 O   0  0  0  0  0  0  0  0  0  0  0  0
  152.9524  143.8358  163.3341 H   0  0  0  0  0  0  0  0  0  0  0  0
  151.4851  144.5161  162.5978 H   0  0  0  0  0  0  0  0  0  0  0  0
  153.1063  145.1514  162.1292 H   0  0  0  0  0  0  0  0  0  0  0  0
  153.7994  140.3104  160.3340 H   0  0  0  0  0  0  0  0  0  0  0  0
  152.6954  140.9770  158.3176 H   0  0  0  0  0  0  0  0  0  0  0  0
  150.8780  144.1676  157.8276 H   0  0  0  0  0  0  0  0  0  0  0  0
  152.1079  143.2802  156.9758 H   0  0  0  0  0  0  0  0  0  0  0  0
  151.5228  141.4796  155.8885 H   0  0  0  0  0  0  0  0  0  0  0  0
  150.3528  139.4407  155.5288 H   0  0  0  0  0  0  0  0  0  0  0  0
  149.0377  140.0283  156.5191 H   0  0  0  0  0  0  0  0  0  0  0  0
  149.7113  140.9289  153.6624 H   0  0  0  0  0  0  0  0  0  0  0  0
  148.2362  139.0306  153.4618 H   0  0  0  0  0  0  0  0  0  0  0  0
  147.3441  139.4888  154.9187 H   0  0  0  0  0  0  0  0  0  0  0  0
  147.4176  140.9873  152.2792 H   0  0  0  0  0  0  0  0  0  0  0  0
  145.9782  140.4628  153.1630 H   0  0  0  0  0  0  0  0  0  0  0  0
  146.9765  142.9963  153.5030 H   0  0  0  0  0  0  0  0  0  0  0  0
  146.3397  142.1037  154.8862 H   0  0  0  0  0  0  0  0  0  0  0  0
  1  2  1  0  0  0  0
  1 20  1  0  0  0  0
  1 21  1  0  0  0  0
  1 22  1  0  0  0  0
  2 18  1  0  0  0  0
  2  3  1  0  0  0  0
  3  4  2  0  0  0  0
  3  5  1  0  0  0  0
  5  6  2  0  0  0  0
  5 23  1  0  0  0  0
  6  7  1  0  0  0  0
  6 24  1  0  0  0  0
  7  8  1  0  0  0  0
  7 18  1  0  0  0  0
  8  9  1  0  0  0  0
  8 25  1  0  0  0  0
  8 26  1  0  0  0  0
  9 10  2  0  0  0  0
  9 11  1  0  0  0  0
 11 12  1  0  0  0  0
 11 27  1  0  0  0  0
 12 13  1  0  0  0  0
 12 28  1  0  0  0  0
 12 29  1  0  0  0  0
 13 17  1  0  0  0  0
 13 14  1  0  0  0  0
 13 30  1  0  0  0  0
 14 15  1  0  0  0  0
 14 31  1  0  0  0  0
 14 32  1  0  0  0  0
 15 16  1  0  0  0  0
 15 33  1  0  0  0  0
 15 34  1  0  0  0  0
 16 17  1  0  0  0  0
 16 35  1  0  0  0  0
 16 36  1  0  0  0  0
 18 19  2  0  0  0  0
M  END
> <s_m_source_file>
AV-unprocessed.smi

> <i_m_source_file_index>
2165

> <i_lp_mmshare_version>
43012

> <i_f3d_flags>
0

> <s_epik_input>
W0NIM11uMWMoPU8pW2NIXVtjSF1uKGMxPU8pW0NIMl1DKD1PKVtOSF1bQ0gyXVtDQEBIXTJbQ0gyXVtDSDJdW0NIMl1PMg==

> <s_epik_cmdline>
J2VwaWtfcHl0aG9uJywgJy1waCcsICc3LjAnLCAnLXRuJywgJzgnLCAnLW1hJywgJzIwMCcsICctbWV0YWxfYmluZGluZycsICctaW1hZScsICc8aW5maWxlLm1hZT4nLCAnLW9tYWUnLCAnPG91dGZpbGUubWFlPic=

> <r_lp_tautomer_probability>
1

> <r_epik_Ionization_Penalty>
3.89869e-08

> <r_epik_Ionization_Penalty_Charging>
1.21279e-08

> <r_epik_Ionization_Penalty_Neutral>
2.6859e-08

> <r_epik_State_Penalty>
-0

> <r_epik_Charging_Adjusted_Penalty>
1.21279e-08

> <i_epik_Tot_Q>
0

> <i_epik_Tot_abs_Q>
0

> <r_epik_Metal_State_Penalty>
-0

> <b_epik_Metal_Only>
0

> <s_lp_Force_Field>
OPLS_2005

> <r_lp_Energy>
24.234

> <b_lp_Chiralities_Consistent>
1

> <s_lp_Variant>
AV-unprocessed.smi:2165-2

> <Gold.Version>
5.8.1

> <Gold.Id.Protein>
6NUR|6NUR_protein|mol2

> <Gold.PLP.Fitness>
41.1090

> <Gold.PLP.PLP>
-41.8304

> <Gold.PLP.part.hbond>
-1.0000

> <Gold.PLP.part.metal>
0.0000

> <Gold.PLP.part.buried>
-4.4570

> <Gold.PLP.part.nonpolar>
-37.8724

> <Gold.PLP.part.repulsive>
1.9336

> <Gold.PLP.ligand.clash>
0.0000

> <Gold.PLP.ligand.torsion>
0.3627

> <Gold.PLP.Chemscore.Hbond>
0.0000

> <Gold.PLP.Chemscore.CHOScore>
0.0000

> <Gold.PLP.Chemscore.Metal>
0.0000

> <Gold.PLP.Chemscore.Internal.Correction>
0.0040

> <Gold.Rescore>
     Score         DG    S(hbond)    S(metal)    S(lipo)     H(rot)  DE(clash)    DE(int)     intcor
      9.04      -9.44       0.00        0.00      74.70       1.87       0.15       0.25       ----

> <Gold.Chemscore.Fitness>
9.0372

> <Gold.Chemscore.DG>
-9.4373

> <Gold.Chemscore.ZeroCoef>
-5.4800

> <Gold.Chemscore.Hbond>
0.0000

> <Gold.Chemscore.Metal>
0.0000

> <Gold.Chemscore.Lipo>
74.6970

> <Gold.Chemscore.Internal_Hbond>
0.0000

> <Gold.Chemscore.DEClash>
0.1493

> <Gold.Chemscore.DEInternal>
0.2508

> <Gold.Chemscore.Rot>
1.8681

> <Gold.Chemscore.Internal.Correction>
   9.000000E+99

> <Gold.Chemscore.Hbond.Weighted>
-0.0000

> <Gold.Chemscore.Metal.Weighted>
-0.0000

> <Gold.Chemscore.Lipo.Weighted>
-8.7395

> <Gold.Chemscore.Internal_Hbond.Weighted>
0.0000

> <Gold.Chemscore.DEClash.Weighted>
0.1493

> <Gold.Chemscore.DEInternal.Weighted>
0.2508

> <Gold.Chemscore.Rot.Weighted>
4.7822

> <Gold.Chemscore.Internal.Correction.Weighted>
   9.000000E+99

> <Gold.Protein.RotatedTorsions>
[ 6907 6896 6895 6894 ] final   20.87 input  -60.11 | X-H torsion
[ 7974 7965 7964 7962 ] final   41.00 input  175.53 | X-H torsion
[ 8008 7997 7996 7995 ] final   27.07 input   59.86 | X-H torsion
[ 10167 10162 10161 10158 ] final  -89.73 input  -65.29 | X-H torsion
[ 10718 10713 10712 10709 ] final   14.34 input   66.30 | X-H torsion
[ 10763 10752 10751 10750 ] final  121.46 input  -60.55 | X-H torsion
[ 11005 11000 10999 10996 ] final  153.45 input  -57.11 | X-H torsion

> <Gold.Protein.ActiveResidues>
 VAL166  LYS551  ARG553  GLY616  TRP617  ASP618  TYR619  PRO620  LYS621  CYS622 
 ASP623  PHE694  ASN695  SER759  ASP760  ASP761  ALA762  ILE779  LEU786  VAL792 
 PHE793  MET794  SER795  GLU796  ALA797  LYS798  CYS799  TRP800  GLU811  SER814 

> <Gold.Protein.RotatedAtoms>
  151.9031  135.0370  160.0507 H   0  0  0  0  0  0  0  0  0  0  0  0  # atno 6907 bound_to 6896
  152.2342  133.5078  159.5241 H   0  0  0  0  0  0  0  0  0  0  0  0  # atno 6908 bound_to 6896
  150.7034  134.1092  159.4036 H   0  0  0  0  0  0  0  0  0  0  0  0  # atno 6909 bound_to 6896
  146.0859  139.5467  142.9507 H   0  0  0  0  0  0  0  0  0  0  0  0  # atno 7974 bound_to 7965
  155.0371  140.3165  155.4737 H   0  0  0  0  0  0  0  0  0  0  0  0  # atno 8008 bound_to 7997
  156.2862  140.2170  156.5437 H   0  0  0  0  0  0  0  0  0  0  0  0  # atno 8009 bound_to 7997
  154.7321  140.0480  157.0723 H   0  0  0  0  0  0  0  0  0  0  0  0  # atno 8010 bound_to 7997
  140.3619  143.2837  151.9604 H   0  0  0  0  0  0  0  0  0  0  0  0  # atno 10167 bound_to 10162
  157.0378  130.6219  149.5746 H   0  0  0  0  0  0  0  0  0  0  0  0  # atno 10718 bound_to 10713
  153.6145  135.3424  155.2990 H   0  0  0  0  0  0  0  0  0  0  0  0  # atno 10763 bound_to 10752
  154.8612  135.4258  154.2274 H   0  0  0  0  0  0  0  0  0  0  0  0  # atno 10764 bound_to 10752
  153.3132  135.7033  153.7169 H   0  0  0  0  0  0  0  0  0  0  0  0  # atno 10765 bound_to 10752
  140.1399  134.8746  157.2316 H   0  0  0  0  0  0  0  0  0  0  0  0  # atno 11005 bound_to 11000
  145.6131  141.0336  143.1956 LP  0  0  0  0  0  0  0  0  0  0  0  0  # atno 17320 bound_to 7965
  144.7325  139.7682  143.7341 LP  0  0  0  0  0  0  0  0  0  0  0  0  # atno 17321 bound_to 7965
  139.4813  144.5985  151.7648 LP  0  0  0  0  0  0  0  0  0  0  0  0  # atno 17342 bound_to 10162
  140.5119  144.1012  150.5997 LP  0  0  0  0  0  0  0  0  0  0  0  0  # atno 17343 bound_to 10162
  156.0048  130.5133  150.7791 LP  0  0  0  0  0  0  0  0  0  0  0  0  # atno 17370 bound_to 10713
  157.5128  131.0926  151.0177 LP  0  0  0  0  0  0  0  0  0  0  0  0  # atno 17371 bound_to 10713
  140.2736  134.3432  155.7365 LP  0  0  0  0  0  0  0  0  0  0  0  0  # atno 17394 bound_to 11000
  141.2184  133.7437  156.9259 LP  0  0  0  0  0  0  0  0  0  0  0  0  # atno 17395 bound_to 11000

$$$$
