AV-unprocessed.smi:255|AV-procd|sdf|1950|dock2
  -GOLD-   2262021 83D 1   1.00000     0.00000
 Structure written by MMmdl.
 44 47  0  0  0  0  0  0  0  0  1 V2000
  150.7770  139.3514  154.5902 O   0  0  0  0  0  0  0  0  0  0  0  0
  149.5843  138.7869  154.0896 C   0  0  0  0  0  0  0  0  0  0  0  0
  148.4058  139.7532  154.3091 C   0  0  1  0  0  0  0  0  0  0  0  0
  148.7865  141.2333  154.2562 C   0  0  0  0  0  0  0  0  0  0  0  0
  147.4361  141.9088  154.0224 C   0  0  2  0  0  0  0  0  0  0  0  0
  146.8367  142.1225  155.1945 F   0  0  0  0  0  0  0  0  0  0  0  0
  146.6273  140.8745  153.2260 C   0  0  0  0  0  0  0  0  0  0  0  0
  147.3793  139.6243  153.2817 N   0  0  0  0  0  0  0  0  0  0  0  0
  146.6236  138.5057  153.3327 C   0  0  0  0  0  0  0  0  0  0  0  0
  146.1897  138.0242  154.5271 N   0  0  0  0  0  0  0  0  0  0  0  0
  145.4398  136.9184  154.5652 C   0  0  0  0  0  0  0  0  0  0  0  0
  145.0223  136.1568  153.5510 N   0  0  0  0  0  0  0  0  0  0  0  0
  145.4675  136.6348  152.3529 C   0  0  0  0  0  0  0  0  0  0  0  0
  146.2611  137.7989  152.1576 C   0  0  0  0  0  0  0  0  0  0  0  0
  146.5088  137.9895  150.8053 N   0  0  0  0  0  0  0  0  0  0  0  0
  145.8900  136.9947  150.2306 C   0  0  0  0  0  0  0  0  0  0  0  0
  145.2567  136.1184  151.0851 N   0  0  0  0  0  0  0  0  0  0  0  0
  144.4916  134.9365  150.7128 C   0  0  0  0  0  0  0  0  0  0  0  0
  145.0439  133.5930  151.2576 C   0  0  1  0  0  0  0  0  0  0  0  0
  144.1568  132.5835  150.8111 O   0  0  0  0  0  0  0  0  0  0  0  0
  146.4497  133.2226  150.7837 C   0  0  0  0  0  0  0  0  0  0  0  0
  146.9919  132.3925  151.9391 C   0  0  0  0  0  0  0  0  0  0  0  0
  146.4952  133.0860  153.0697 O   0  0  0  0  0  0  0  0  0  0  0  0
  145.1570  133.4853  152.7948 C   0  0  0  0  0  0  0  0  0  0  0  0
  147.9561  139.5469  155.2822 H   0  0  0  0  0  0  0  0  0  0  0  0
  147.5190  142.8709  153.5164 H   0  0  0  0  0  0  0  0  0  0  0  0
  150.9327  139.0051  155.4552 H   0  0  0  0  0  0  0  0  0  0  0  0
  149.7076  138.5536  153.0316 H   0  0  0  0  0  0  0  0  0  0  0  0
  149.4128  137.8438  154.6096 H   0  0  0  0  0  0  0  0  0  0  0  0
  149.2888  141.5808  155.1594 H   0  0  0  0  0  0  0  0  0  0  0  0
  149.4452  141.4237  153.4073 H   0  0  0  0  0  0  0  0  0  0  0  0
  145.6107  140.7799  153.6115 H   0  0  0  0  0  0  0  0  0  0  0  0
  146.5530  141.1782  152.1815 H   0  0  0  0  0  0  0  0  0  0  0  0
  145.1303  136.5977  155.5489 H   0  0  0  0  0  0  0  0  0  0  0  0
  145.8814  136.8714  149.1573 H   0  0  0  0  0  0  0  0  0  0  0  0
  143.4656  135.0799  151.0550 H   0  0  0  0  0  0  0  0  0  0  0  0
  144.4427  134.9017  149.6235 H   0  0  0  0  0  0  0  0  0  0  0  0
  144.5061  132.2070  150.0179 H   0  0  0  0  0  0  0  0  0  0  0  0
  146.4674  132.6932  149.8301 H   0  0  0  0  0  0  0  0  0  0  0  0
  147.0800  134.1032  150.6801 H   0  0  0  0  0  0  0  0  0  0  0  0
  146.5914  131.3777  151.9198 H   0  0  0  0  0  0  0  0  0  0  0  0
  148.0806  132.3375  151.9464 H   0  0  0  0  0  0  0  0  0  0  0  0
  144.9522  134.4196  153.3119 H   0  0  0  0  0  0  0  0  0  0  0  0
  144.4710  132.7407  153.2022 H   0  0  0  0  0  0  0  0  0  0  0  0
  1  2  1  0  0  0  0
  1 27  1  0  0  0  0
  2  3  1  0  0  0  0
  2 28  1  0  0  0  0
  2 29  1  0  0  0  0
  3 25  1  0  0  0  0
  3  8  1  0  0  0  0
  3  4  1  0  0  0  0
  4  5  1  0  0  0  0
  4 30  1  0  0  0  0
  4 31  1  0  0  0  0
  5 26  1  0  0  0  0
  5  6  1  0  0  0  0
  5  7  1  0  0  0  0
  7  8  1  0  0  0  0
  7 32  1  0  0  0  0
  7 33  1  0  0  0  0
  8  9  1  0  0  0  0
  9 14  1  0  0  0  0
  9 10  2  0  0  0  0
 10 11  1  0  0  0  0
 11 12  2  0  0  0  0
 11 34  1  0  0  0  0
 12 13  1  0  0  0  0
 13 17  1  0  0  0  0
 13 14  2  0  0  0  0
 14 15  1  0  0  0  0
 15 16  2  0  0  0  0
 16 17  1  0  0  0  0
 16 35  1  0  0  0  0
 17 18  1  0  0  0  0
 18 19  1  0  0  0  0
 18 36  1  0  0  0  0
 18 37  1  0  0  0  0
 19 24  1  0  0  0  0
 19 20  1  0  0  0  0
 19 21  1  0  0  0  0
 20 38  1  0  0  0  0
 21 22  1  0  0  0  0
 21 39  1  0  0  0  0
 21 40  1  0  0  0  0
 22 23  1  0  0  0  0
 22 41  1  0  0  0  0
 22 42  1  0  0  0  0
 23 24  1  0  0  0  0
 24 43  1  0  0  0  0
 24 44  1  0  0  0  0
M  END
> <s_m_source_file>
AV-unprocessed.smi

> <i_m_source_file_index>
255

> <i_lp_mmshare_version>
43012

> <i_f3d_flags>
0

> <s_epik_input>
W09IXVtDSDJdW0NAQEhdMVtDSDJdW0NASF0oRilbQ0gyXU4xYyhuW2NIXW4yKWMoYzIzKW5bY0hdbjNbQ0gyXVtDQEBdNChbT0hdKVtDSDJdW0NIMl1PW0NIMl00

> <s_epik_cmdline>
J2VwaWtfcHl0aG9uJywgJy1waCcsICc3LjAnLCAnLXRuJywgJzgnLCAnLW1hJywgJzIwMCcsICctbWV0YWxfYmluZGluZycsICctaW1hZScsICc8aW5maWxlLm1hZT4nLCAnLW9tYWUnLCAnPG91dGZpbGUubWFlPic=

> <r_lp_tautomer_probability>
1

> <r_epik_Ionization_Penalty>
0.0058098

> <r_epik_Ionization_Penalty_Charging>
0

> <r_epik_Ionization_Penalty_Neutral>
0.0058098

> <r_epik_State_Penalty>
0.00411166

> <r_epik_Charging_Adjusted_Penalty>
0.00411166

> <i_epik_Tot_Q>
0

> <i_epik_Tot_abs_Q>
0

> <r_epik_Metal_State_Penalty>
-0

> <b_epik_Metal_Only>
0

> <s_lp_Force_Field>
OPLS_2005

> <r_lp_Energy>
51.0345

> <b_lp_Chiralities_Consistent>
1

> <s_lp_Variant>
AV-unprocessed.smi:255-2

> <Gold.Version>
5.8.1

> <Gold.Id.Protein>
6NUR|6NUR_protein|mol2

> <Gold.PLP.Fitness>
39.8080

> <Gold.PLP.PLP>
-32.6880

> <Gold.PLP.part.hbond>
-2.0000

> <Gold.PLP.part.metal>
0.0000

> <Gold.PLP.part.buried>
1.9875

> <Gold.PLP.part.nonpolar>
-35.5180

> <Gold.PLP.part.repulsive>
2.9467

> <Gold.PLP.ligand.clash>
0.0000

> <Gold.PLP.ligand.torsion>
0.9986

> <Gold.PLP.Chemscore.Hbond>
2.0000

> <Gold.PLP.Chemscore.CHOScore>
1.0000

> <Gold.PLP.Chemscore.Metal>
0.0000

> <Gold.Chemscore.Hbonds>
donor molecule, donor type, donor heavy atom, donor atom, acceptor molecule, acceptor atom, score
      P1  H  7954  7966       L1    15  0.95
      P1  H  7989  7998       L1     1  0.94
      L1  C    16    35       P1  7921  0.99

> <Gold.PLP.Chemscore.Internal.Correction>
0.1171

> <Gold.Rescore>
     Score         DG    S(hbond)    S(metal)    S(lipo)     H(rot)  DE(clash)    DE(int)     intcor
      4.06      -9.40       1.27        0.00      69.97       3.33       3.12       2.23       ----

> <Gold.Chemscore.Fitness>
4.0579

> <Gold.Chemscore.DG>
-9.3996

> <Gold.Chemscore.ZeroCoef>
-5.4800

> <Gold.Chemscore.Hbond>
1.2726

> <Gold.Chemscore.Metal>
0.0000

> <Gold.Chemscore.Lipo>
69.9746

> <Gold.Chemscore.Internal_Hbond>
0.0000

> <Gold.Chemscore.DEClash>
3.1159

> <Gold.Chemscore.DEInternal>
2.2257

> <Gold.Chemscore.Rot>
3.3273

> <Gold.Chemscore.Internal.Correction>
   9.000000E+99

> <Gold.Chemscore.Hbonds>
donor molecule, donor type, donor heavy atom, donor atom, acceptor molecule, acceptor atom, score
      P1  H  7954  7966       L1    15  0.21
      P1  H  7989  7998       L1     1  0.85

> <Gold.Chemscore.Hbond.Weighted>
-4.2505

> <Gold.Chemscore.Metal.Weighted>
-0.0000

> <Gold.Chemscore.Lipo.Weighted>
-8.1870

> <Gold.Chemscore.Internal_Hbond.Weighted>
0.0000

> <Gold.Chemscore.DEClash.Weighted>
3.1159

> <Gold.Chemscore.DEInternal.Weighted>
2.2257

> <Gold.Chemscore.Rot.Weighted>
8.5179

> <Gold.Chemscore.Internal.Correction.Weighted>
   9.000000E+99

> <Gold.Protein.RotatedTorsions>
[ 6907 6896 6895 6894 ] final  -13.74 input  -60.11 | X-H torsion
[ 7974 7965 7964 7962 ] final -106.36 input  175.53 | X-H torsion
[ 8008 7997 7996 7995 ] final  104.57 input   59.86 | X-H torsion
[ 10167 10162 10161 10158 ] final  -24.81 input  -65.29 | X-H torsion
[ 10718 10713 10712 10709 ] final   96.86 input   66.30 | X-H torsion
[ 10763 10752 10751 10750 ] final -173.75 input  -60.55 | X-H torsion
[ 11005 11000 10999 10996 ] final -139.09 input  -57.11 | X-H torsion

> <Gold.Protein.ActiveResidues>
 VAL166  LYS551  ARG553  GLY616  TRP617  ASP618  TYR619  PRO620  LYS621  CYS622 
 ASP623  PHE694  ASN695  SER759  ASP760  ASP761  ALA762  ILE779  LEU786  VAL792 
 PHE793  MET794  SER795  GLU796  ALA797  LYS798  CYS799  TRP800  GLU811  SER814 

> <Gold.Protein.RotatedAtoms>
  151.3502  135.0882  159.9399 H   0  0  0  0  0  0  0  0  0  0  0  0  # atno 6907 bound_to 6896
  152.5189  133.9360  159.7614 H   0  0  0  0  0  0  0  0  0  0  0  0  # atno 6908 bound_to 6896
  150.9734  133.6266  159.2763 H   0  0  0  0  0  0  0  0  0  0  0  0  # atno 6909 bound_to 6896
  145.2188  140.9126  143.3272 H   0  0  0  0  0  0  0  0  0  0  0  0  # atno 7974 bound_to 7965
  156.1584  140.3145  155.8766 H   0  0  0  0  0  0  0  0  0  0  0  0  # atno 8008 bound_to 7997
  155.3831  140.0489  157.3060 H   0  0  0  0  0  0  0  0  0  0  0  0  # atno 8009 bound_to 7997
  154.5123  140.2169  155.9143 H   0  0  0  0  0  0  0  0  0  0  0  0  # atno 8010 bound_to 7997
  140.7287  143.4320  151.0787 H   0  0  0  0  0  0  0  0  0  0  0  0  # atno 10167 bound_to 10162
  157.6921  131.0591  150.4556 H   0  0  0  0  0  0  0  0  0  0  0  0  # atno 10718 bound_to 10713
  154.6042  135.2857  155.0502 H   0  0  0  0  0  0  0  0  0  0  0  0  # atno 10763 bound_to 10752
  154.1756  135.6465  153.5024 H   0  0  0  0  0  0  0  0  0  0  0  0  # atno 10764 bound_to 10752
  153.0169  135.5411  154.6772 H   0  0  0  0  0  0  0  0  0  0  0  0  # atno 10765 bound_to 10752
  140.8553  134.2236  157.4738 H   0  0  0  0  0  0  0  0  0  0  0  0  # atno 11005 bound_to 11000
  144.9785  139.3807  143.6273 LP  0  0  0  0  0  0  0  0  0  0  0  0  # atno 17320 bound_to 7965
  146.3381  139.8916  142.8808 LP  0  0  0  0  0  0  0  0  0  0  0  0  # atno 17321 bound_to 7965
  139.7978  143.8127  152.3159 LP  0  0  0  0  0  0  0  0  0  0  0  0  # atno 17342 bound_to 10162
  139.8133  144.7327  150.9669 LP  0  0  0  0  0  0  0  0  0  0  0  0  # atno 17343 bound_to 10162
  156.4904  130.4094  149.6410 LP  0  0  0  0  0  0  0  0  0  0  0  0  # atno 17370 bound_to 10713
  156.3422  130.7388  151.2335 LP  0  0  0  0  0  0  0  0  0  0  0  0  # atno 17371 bound_to 10713
  139.8705  134.9703  156.4697 LP  0  0  0  0  0  0  0  0  0  0  0  0  # atno 17394 bound_to 11000
  140.8744  133.7964  155.9399 LP  0  0  0  0  0  0  0  0  0  0  0  0  # atno 17395 bound_to 11000

$$$$
