AV-unprocessed.smi:338|AV-procd|sdf|2377|dock7
  -GOLD-   2262022303D 1   1.00000     0.00000
 Structure written by MMmdl.
 42 44  0  0  0  0  0  0  0  0  2 V2000
  147.7433  134.8647  161.9730 C   0  0  0  0  0  0  0  0  0  0  0  0
  148.0189  136.2619  161.4199 C   0  0  0  0  0  0  0  0  0  0  0  0
  147.7795  137.2361  162.1329 O   0  0  0  0  0  0  0  0  0  0  0  0
  148.5697  136.3676  160.0381 C   0  0  0  0  0  0  0  0  0  0  0  0
  148.8657  135.2191  159.2676 C   0  0  0  0  0  0  0  0  0  0  0  0
  149.3823  135.3510  157.9659 C   0  0  0  0  0  0  0  0  0  0  0  0
  149.6082  136.6280  157.4218 C   0  0  0  0  0  0  0  0  0  0  0  0
  149.3216  137.7877  158.1680 C   0  0  0  0  0  0  0  0  0  0  0  0
  149.5729  138.9983  157.5584 O   0  0  0  0  0  0  0  0  0  0  0  0
  149.6415  139.0387  156.1390 C   0  0  0  0  0  0  0  0  0  0  0  0
  151.1153  138.9739  155.7142 C   0  0  1  0  0  0  0  0  0  0  0  0
  151.2260  139.4397  154.3837 O   0  0  0  0  0  0  0  0  0  0  0  0
  152.0299  139.8089  156.6326 C   0  0  0  0  0  0  0  0  0  0  0  0
  151.5446  141.1816  156.8210 N   0  0  0  0  0  0  0  0  0  0  0  0
  150.6569  141.9056  156.0868 C   0  0  0  0  0  0  0  0  0  0  0  0
  150.5446  143.1313  156.6706 N   0  3  0  0  0  0  0  0  0  0  0  0
  151.3729  143.1907  157.7938 C   0  0  0  0  0  0  0  0  0  0  0  0
  151.6028  144.2166  158.7053 C   0  0  0  0  0  0  0  0  0  0  0  0
  152.5173  143.9465  159.7447 C   0  0  0  0  0  0  0  0  0  0  0  0
  153.1634  142.6972  159.8495 C   0  0  0  0  0  0  0  0  0  0  0  0
  152.9228  141.6639  158.9199 C   0  0  0  0  0  0  0  0  0  0  0  0
  152.0176  141.9400  157.8962 C   0  0  0  0  0  0  0  0  0  0  0  0
  148.7998  137.6467  159.4789 C   0  0  0  0  0  0  0  0  0  0  0  0
  146.9923  134.3557  161.3686 H   0  0  0  0  0  0  0  0  0  0  0  0
  147.3724  134.9258  162.9965 H   0  0  0  0  0  0  0  0  0  0  0  0
  148.6556  134.2681  161.9773 H   0  0  0  0  0  0  0  0  0  0  0  0
  148.7034  134.2241  159.6543 H   0  0  0  0  0  0  0  0  0  0  0  0
  149.6059  134.4697  157.3828 H   0  0  0  0  0  0  0  0  0  0  0  0
  150.0059  136.7186  156.4216 H   0  0  0  0  0  0  0  0  0  0  0  0
  149.1039  138.1828  155.7271 H   0  0  0  0  0  0  0  0  0  0  0  0
  149.1792  139.9490  155.7531 H   0  0  0  0  0  0  0  0  0  0  0  0
  151.4374  137.9321  155.7219 H   0  0  0  0  0  0  0  0  0  0  0  0
  150.6006  138.9734  153.8498 H   0  0  0  0  0  0  0  0  0  0  0  0
  152.1013  139.3476  157.6186 H   0  0  0  0  0  0  0  0  0  0  0  0
  153.0461  139.8562  156.2387 H   0  0  0  0  0  0  0  0  0  0  0  0
  150.1390  141.5695  155.2000 H   0  0  0  0  0  0  0  0  0  0  0  0
  151.1100  145.1746  158.6274 H   0  0  0  0  0  0  0  0  0  0  0  0
  152.7280  144.7133  160.4761 H   0  0  0  0  0  0  0  0  0  0  0  0
  153.8582  142.5276  160.6593 H   0  0  0  0  0  0  0  0  0  0  0  0
  153.4223  140.7102  159.0064 H   0  0  0  0  0  0  0  0  0  0  0  0
  148.5704  138.5193  160.0714 H   0  0  0  0  0  0  0  0  0  0  0  0
  149.9469  143.8709  156.3246 H   0  0  0  0  0  0  0  0  0  0  0  0
  1  2  1  0  0  0  0
  1 24  1  0  0  0  0
  1 25  1  0  0  0  0
  1 26  1  0  0  0  0
  2  3  2  0  0  0  0
  2  4  1  0  0  0  0
  4 23  1  0  0  0  0
  4  5  2  0  0  0  0
  5  6  1  0  0  0  0
  5 27  1  0  0  0  0
  6  7  2  0  0  0  0
  6 28  1  0  0  0  0
  7  8  1  0  0  0  0
  7 29  1  0  0  0  0
  8  9  1  0  0  0  0
  8 23  2  0  0  0  0
  9 10  1  0  0  0  0
 10 11  1  0  0  0  0
 10 30  1  0  0  0  0
 10 31  1  0  0  0  0
 11 12  1  0  0  0  0
 11 13  1  0  0  0  0
 11 32  1  0  0  0  0
 12 33  1  0  0  0  0
 13 14  1  0  0  0  0
 13 34  1  0  0  0  0
 13 35  1  0  0  0  0
 14 22  1  0  0  0  0
 14 15  1  0  0  0  0
 15 16  2  0  0  0  0
 15 36  1  0  0  0  0
 16 17  1  0  0  0  0
 16 42  1  0  0  0  0
 17 22  2  0  0  0  0
 17 18  1  0  0  0  0
 18 19  2  0  0  0  0
 18 37  1  0  0  0  0
 19 20  1  0  0  0  0
 19 38  1  0  0  0  0
 20 21  2  0  0  0  0
 20 39  1  0  0  0  0
 21 22  1  0  0  0  0
 21 40  1  0  0  0  0
 23 41  1  0  0  0  0
M  CHG  1  16   1
M  END
> <s_m_source_file>
AV-unprocessed.smi

> <i_m_source_file_index>
338

> <i_lp_mmshare_version>
43012

> <i_f3d_flags>
0

> <s_epik_input>
W0NIM11DKD1PKWMxW2NIXVtjSF1bY0hdYyhbY0hdMSlPW0NIMl1bQ0BIXShbT0hdKVtDSDJdbihbY0hdbjIpYyhjMjMpW2NIXVtjSF1bY0hdW2NIXTM=

> <s_epik_cmdline>
J2VwaWtfcHl0aG9uJywgJy1waCcsICc3LjAnLCAnLXRuJywgJzgnLCAnLW1hJywgJzIwMCcsICctbWV0YWxfYmluZGluZycsICctaW1hZScsICc8aW5maWxlLm1hZT4nLCAnLW9tYWUnLCAnPG91dGZpbGUubWFlPic=

> <r_lp_tautomer_probability>
0.99995

> <r_epik_Ionization_Penalty>
1.35015

> <r_epik_Ionization_Penalty_Charging>
1.35015

> <r_epik_Ionization_Penalty_Neutral>
2.3993e-06

> <r_epik_State_Penalty>
1.42814

> <r_epik_Charging_Adjusted_Penalty>
2.77829

> <i_epik_Tot_Q>
1

> <i_epik_Tot_abs_Q>
1

> <r_epik_Metal_State_Penalty>
5.46522

> <b_epik_Metal_Only>
0

> <s_lp_Force_Field>
OPLS_2005

> <r_lp_Energy>
25.8652

> <b_lp_Chiralities_Consistent>
1

> <s_lp_Variant>
AV-unprocessed.smi:338-4

> <Gold.Version>
5.8.1

> <Gold.Id.Protein>
6NUR|6NUR_protein|mol2

> <Gold.PLP.Fitness>
51.4631

> <Gold.PLP.PLP>
-40.3366

> <Gold.PLP.part.hbond>
-4.0000

> <Gold.PLP.part.metal>
0.0000

> <Gold.PLP.part.buried>
-3.7217

> <Gold.PLP.part.nonpolar>
-32.0520

> <Gold.PLP.part.repulsive>
0.0411

> <Gold.PLP.ligand.clash>
0.6909

> <Gold.PLP.ligand.torsion>
1.0452

> <Gold.PLP.Chemscore.Hbond>
4.6000

> <Gold.PLP.Chemscore.CHOScore>
0.0000

> <Gold.PLP.Chemscore.Metal>
0.0000

> <Gold.Chemscore.Hbonds>
donor molecule, donor type, donor heavy atom, donor atom, acceptor molecule, acceptor atom, score
      L1  H    16    42       P1  8028  1.85
      P1  H  6931  6943       L1     3  0.98
      P1  H  6934  6947       L1     3  0.28
      P1  H  7989  7998       L1    12  1.00

> <Gold.PLP.Chemscore.Internal.Correction>
0.1079

> <Gold.Rescore>
     Score         DG    S(hbond)    S(metal)    S(lipo)     H(rot)  DE(clash)    DE(int)     intcor
     17.67     -20.71       2.87        0.00     102.50       2.48       0.04       2.99       ----

> <Gold.Chemscore.Fitness>
17.6738

> <Gold.Chemscore.DG>
-20.7064

> <Gold.Chemscore.ZeroCoef>
-5.4800

> <Gold.Chemscore.Hbond>
2.8723

> <Gold.Chemscore.Metal>
0.0000

> <Gold.Chemscore.Lipo>
102.4983

> <Gold.Chemscore.Internal_Hbond>
0.0000

> <Gold.Chemscore.DEClash>
0.0442

> <Gold.Chemscore.DEInternal>
2.9885

> <Gold.Chemscore.Rot>
2.4842

> <Gold.Chemscore.Internal.Correction>
   9.000000E+99

> <Gold.Chemscore.Hbonds>
donor molecule, donor type, donor heavy atom, donor atom, acceptor molecule, acceptor atom, score
      L1  H    16    42       P1  8028  0.89
      P1  H  6931  6943       L1     3  0.51
      P1  H  6934  6947       L1     3  0.24
      P1  H  7989  7998       L1    12  0.55

> <Gold.Chemscore.Hbond.Weighted>
-9.5936

> <Gold.Chemscore.Metal.Weighted>
-0.0000

> <Gold.Chemscore.Lipo.Weighted>
-11.9923

> <Gold.Chemscore.Internal_Hbond.Weighted>
0.0000

> <Gold.Chemscore.DEClash.Weighted>
0.0442

> <Gold.Chemscore.DEInternal.Weighted>
2.9885

> <Gold.Chemscore.Rot.Weighted>
6.3594

> <Gold.Chemscore.Internal.Correction.Weighted>
   9.000000E+99

> <Gold.Protein.RotatedTorsions>
[ 6907 6896 6895 6894 ] final  157.30 input  -60.11 | X-H torsion
[ 7974 7965 7964 7962 ] final    5.90 input  175.53 | X-H torsion
[ 8008 7997 7996 7995 ] final   -5.97 input   59.86 | X-H torsion
[ 10167 10162 10161 10158 ] final  -95.57 input  -65.29 | X-H torsion
[ 10718 10713 10712 10709 ] final  -16.76 input   66.30 | X-H torsion
[ 10763 10752 10751 10750 ] final   -5.35 input  -60.55 | X-H torsion
[ 11005 11000 10999 10996 ] final   70.03 input  -57.11 | X-H torsion

> <Gold.Protein.ActiveResidues>
 VAL166  LYS551  ARG553  GLY616  TRP617  ASP618  TYR619  PRO620  LYS621  CYS622 
 ASP623  PHE694  ASN695  SER759  ASP760  ASP761  ALA762  ILE779  LEU786  VAL792 
 PHE793  MET794  SER795  GLU796  ALA797  LYS798  CYS799  TRP800  GLU811  SER814 

> <Gold.Protein.RotatedAtoms>
  152.0171  133.3884  159.4242 H   0  0  0  0  0  0  0  0  0  0  0  0  # atno 6907 bound_to 6896
  150.6894  134.3667  159.4983 H   0  0  0  0  0  0  0  0  0  0  0  0  # atno 6908 bound_to 6896
  152.1436  134.9043  160.0603 H   0  0  0  0  0  0  0  0  0  0  0  0  # atno 6909 bound_to 6896
  146.2438  140.0315  142.8389 H   0  0  0  0  0  0  0  0  0  0  0  0  # atno 7974 bound_to 7965
  154.5985  140.2445  155.7824 H   0  0  0  0  0  0  0  0  0  0  0  0  # atno 8008 bound_to 7997
  156.2295  140.2971  156.0105 H   0  0  0  0  0  0  0  0  0  0  0  0  # atno 8009 bound_to 7997
  155.2251  140.0401  157.2944 H   0  0  0  0  0  0  0  0  0  0  0  0  # atno 8010 bound_to 7997
  140.3028  143.3152  152.0230 H   0  0  0  0  0  0  0  0  0  0  0  0  # atno 10167 bound_to 10162
  156.5831  130.4779  149.6312 H   0  0  0  0  0  0  0  0  0  0  0  0  # atno 10718 bound_to 10713
  153.3973  135.7004  153.6451 H   0  0  0  0  0  0  0  0  0  0  0  0  # atno 10763 bound_to 10752
  153.4999  135.3654  155.2535 H   0  0  0  0  0  0  0  0  0  0  0  0  # atno 10764 bound_to 10752
  154.8707  135.4109  154.3302 H   0  0  0  0  0  0  0  0  0  0  0  0  # atno 10765 bound_to 10752
  139.9620  134.7044  156.0625 H   0  0  0  0  0  0  0  0  0  0  0  0  # atno 11005 bound_to 11000
  145.1151  140.9428  143.4633 LP  0  0  0  0  0  0  0  0  0  0  0  0  # atno 17320 bound_to 7965
  145.0537  139.3161  143.5915 LP  0  0  0  0  0  0  0  0  0  0  0  0  # atno 17321 bound_to 7965
  139.4911  144.6443  151.6811 LP  0  0  0  0  0  0  0  0  0  0  0  0  # atno 17342 bound_to 10162
  140.5636  144.0227  150.6181 LP  0  0  0  0  0  0  0  0  0  0  0  0  # atno 17343 bound_to 10162
  156.2614  130.6965  151.1734 LP  0  0  0  0  0  0  0  0  0  0  0  0  # atno 17370 bound_to 10713
  157.7322  131.0602  150.5641 LP  0  0  0  0  0  0  0  0  0  0  0  0  # atno 17371 bound_to 10713
  141.1298  133.6589  156.3434 LP  0  0  0  0  0  0  0  0  0  0  0  0  # atno 17394 bound_to 11000
  140.5479  134.6057  157.5399 LP  0  0  0  0  0  0  0  0  0  0  0  0  # atno 17395 bound_to 11000

$$$$
