AV-unprocessed.smi:1418|AV-procd|sdf|5773|dock1
  -GOLD-   22720 5413D 1   1.00000     0.00000
 Structure written by MMmdl.
 39 41  0  0  0  0  0  0  0  0  1 V2000
  152.1749  136.5685  156.1071 O   0  0  0  0  0  0  0  0  0  0  0  0
  151.4686  136.8165  155.1301 C   0  0  0  0  0  0  0  0  0  0  0  0
  151.7585  138.0467  154.2694 C   0  0  0  0  0  0  0  0  0  0  0  0
  151.1908  139.2766  154.9198 C   0  0  0  0  0  0  0  0  0  0  0  0
  150.0617  139.9658  154.5456 C   0  0  0  0  0  0  0  0  0  0  0  0
  149.7638  141.3418  155.5708 S   0  0  0  0  0  0  0  0  0  0  0  0
  151.2041  140.9178  156.5008 C   0  0  0  0  0  0  0  0  0  0  0  0
  151.7091  141.6111  157.6414 N   0  0  0  0  0  0  0  0  0  0  0  0
  151.1834  142.9118  158.0452 C   0  0  0  0  0  0  0  0  0  0  0  0
  152.1148  143.4182  159.1520 C   0  0  0  0  0  0  0  0  0  0  0  0
  152.9243  142.1993  159.5881 C   0  0  0  0  0  0  0  0  0  0  0  0
  152.6671  141.1864  158.4843 C   0  0  0  0  0  0  0  0  0  0  0  0
  153.2894  140.1268  158.4280 O   0  0  0  0  0  0  0  0  0  0  0  0
  151.8256  139.8276  156.0379 N   0  0  0  0  0  0  0  0  0  0  0  0
  150.4407  136.0454  154.7415 N   0  0  0  0  0  0  0  0  0  0  0  0
  150.0584  134.7776  155.3509 C   0  0  0  0  0  0  0  0  0  0  0  0
  149.9132  133.6878  154.2915 C   0  0  0  0  0  0  0  0  0  0  0  0
  148.5618  133.4846  153.5905 C   0  0  0  0  0  0  0  0  0  0  0  0
  148.8620  131.9840  153.5446 C   0  0  0  0  0  0  0  0  0  0  0  0
  149.8292  132.2108  154.7090 C   0  0  0  0  0  0  0  0  0  0  0  0
  152.8342  138.1529  154.1239 H   0  0  0  0  0  0  0  0  0  0  0  0
  151.3285  137.8929  153.2787 H   0  0  0  0  0  0  0  0  0  0  0  0
  149.3934  139.7521  153.7246 H   0  0  0  0  0  0  0  0  0  0  0  0
  151.1515  143.6101  157.2077 H   0  0  0  0  0  0  0  0  0  0  0  0
  150.1672  142.7866  158.4218 H   0  0  0  0  0  0  0  0  0  0  0  0
  152.7832  144.1851  158.7584 H   0  0  0  0  0  0  0  0  0  0  0  0
  151.5587  143.8595  159.9797 H   0  0  0  0  0  0  0  0  0  0  0  0
  153.9870  142.4239  159.6848 H   0  0  0  0  0  0  0  0  0  0  0  0
  152.5626  141.8003  160.5360 H   0  0  0  0  0  0  0  0  0  0  0  0
  149.9136  136.3352  153.9305 H   0  0  0  0  0  0  0  0  0  0  0  0
  150.7768  134.4838  156.1179 H   0  0  0  0  0  0  0  0  0  0  0  0
  149.1097  134.9267  155.8667 H   0  0  0  0  0  0  0  0  0  0  0  0
  150.6863  133.7896  153.5265 H   0  0  0  0  0  0  0  0  0  0  0  0
  147.7111  133.7239  154.2308 H   0  0  0  0  0  0  0  0  0  0  0  0
  148.4773  133.9638  152.6147 H   0  0  0  0  0  0  0  0  0  0  0  0
  148.0126  131.3403  153.7742 H   0  0  0  0  0  0  0  0  0  0  0  0
  149.3681  131.6797  152.6273 H   0  0  0  0  0  0  0  0  0  0  0  0
  150.7702  131.6641  154.6390 H   0  0  0  0  0  0  0  0  0  0  0  0
  149.3554  132.0708  155.6819 H   0  0  0  0  0  0  0  0  0  0  0  0
  1  2  2  0  0  0  0
  2  3  1  0  0  0  0
  2 15  1  0  0  0  0
  3  4  1  0  0  0  0
  3 21  1  0  0  0  0
  3 22  1  0  0  0  0
  4 14  1  0  0  0  0
  4  5  2  0  0  0  0
  5  6  1  0  0  0  0
  5 23  1  0  0  0  0
  6  7  1  0  0  0  0
  7  8  1  0  0  0  0
  7 14  2  0  0  0  0
  8 12  1  0  0  0  0
  8  9  1  0  0  0  0
  9 10  1  0  0  0  0
  9 24  1  0  0  0  0
  9 25  1  0  0  0  0
 10 11  1  0  0  0  0
 10 26  1  0  0  0  0
 10 27  1  0  0  0  0
 11 12  1  0  0  0  0
 11 28  1  0  0  0  0
 11 29  1  0  0  0  0
 12 13  2  0  0  0  0
 15 16  1  0  0  0  0
 15 30  1  0  0  0  0
 16 17  1  0  0  0  0
 16 31  1  0  0  0  0
 16 32  1  0  0  0  0
 17 20  1  0  0  0  0
 17 18  1  0  0  0  0
 17 33  1  0  0  0  0
 18 19  1  0  0  0  0
 18 34  1  0  0  0  0
 18 35  1  0  0  0  0
 19 20  1  0  0  0  0
 19 36  1  0  0  0  0
 19 37  1  0  0  0  0
 20 38  1  0  0  0  0
 20 39  1  0  0  0  0
M  END
> <s_m_source_file>
AV-unprocessed.smi

> <i_m_source_file_index>
1418

> <i_lp_mmshare_version>
43012

> <i_f3d_flags>
0

> <s_epik_input>
W0NIMl0xW0NIMl1bQ0gyXVtDSF0xW0NIMl1bTkhdQyg9TylbQ0gyXWMyW2NIXXNjKG4yKU4zW0NIMl1bQ0gyXVtDSDJdQzM9Tw==

> <s_epik_cmdline>
J2VwaWtfcHl0aG9uJywgJy1waCcsICc3LjAnLCAnLXRuJywgJzgnLCAnLW1hJywgJzIwMCcsICctbWV0YWxfYmluZGluZycsICctaW1hZScsICc8aW5maWxlLm1hZT4nLCAnLW9tYWUnLCAnPG91dGZpbGUubWFlPic=

> <r_lp_tautomer_probability>
1

> <r_epik_Ionization_Penalty>
2.96456e-05

> <r_epik_Ionization_Penalty_Charging>
0

> <r_epik_Ionization_Penalty_Neutral>
2.96456e-05

> <r_epik_State_Penalty>
-0

> <r_epik_Charging_Adjusted_Penalty>
0

> <i_epik_Tot_Q>
0

> <i_epik_Tot_abs_Q>
0

> <r_epik_Metal_State_Penalty>
-0

> <b_epik_Metal_Only>
0

> <s_lp_Force_Field>
OPLS_2005

> <r_lp_Energy>
26.2197

> <b_lp_Chiralities_Consistent>
1

> <s_lp_Variant>
AV-unprocessed.smi:1418-1

> <Gold.Version>
5.8.1

> <Gold.Id.Protein>
6NUR|6NUR_protein|mol2

> <Gold.PLP.Fitness>
53.6951

> <Gold.PLP.PLP>
-43.3041

> <Gold.PLP.part.hbond>
-3.2418

> <Gold.PLP.part.metal>
0.0000

> <Gold.PLP.part.buried>
-0.8836

> <Gold.PLP.part.nonpolar>
-37.1563

> <Gold.PLP.part.repulsive>
0.0828

> <Gold.PLP.ligand.clash>
0.0000

> <Gold.PLP.ligand.torsion>
0.7705

> <Gold.PLP.Chemscore.Hbond>
3.0000

> <Gold.PLP.Chemscore.CHOScore>
0.9506

> <Gold.PLP.Chemscore.Metal>
0.0000

> <Gold.Chemscore.Hbonds>
donor molecule, donor type, donor heavy atom, donor atom, acceptor molecule, acceptor atom, score
      L1  H    15    30       P1  7948  0.47
      P1  H  7997  8010       L1    13  0.96
      P1  H 10752 10765       L1     1  0.60
      L1  C     5    23       P1  7957  0.85

> <Gold.PLP.Chemscore.Internal.Correction>
0.0802

> <Gold.Rescore>
     Score         DG    S(hbond)    S(metal)    S(lipo)     H(rot)  DE(clash)    DE(int)     intcor
     17.46     -19.97       2.46        0.00      88.78       1.60       0.25       2.26       ----

> <Gold.Chemscore.Fitness>
17.4609

> <Gold.Chemscore.DG>
-19.9703

> <Gold.Chemscore.ZeroCoef>
-5.4800

> <Gold.Chemscore.Hbond>
2.4577

> <Gold.Chemscore.Metal>
0.0000

> <Gold.Chemscore.Lipo>
88.7787

> <Gold.Chemscore.Internal_Hbond>
0.0000

> <Gold.Chemscore.DEClash>
0.2463

> <Gold.Chemscore.DEInternal>
2.2632

> <Gold.Chemscore.Rot>
1.6038

> <Gold.Chemscore.Internal.Correction>
   9.000000E+99

> <Gold.Chemscore.Hbonds>
donor molecule, donor type, donor heavy atom, donor atom, acceptor molecule, acceptor atom, score
      L1  H    15    30       P1  7948  0.14
      P1  H  7997  8010       L1    13  0.78
      P1  H 10752 10765       L1     1  0.04

> <Gold.Chemscore.Hbond.Weighted>
-8.2088

> <Gold.Chemscore.Metal.Weighted>
-0.0000

> <Gold.Chemscore.Lipo.Weighted>
-10.3871

> <Gold.Chemscore.Internal_Hbond.Weighted>
0.0000

> <Gold.Chemscore.DEClash.Weighted>
0.2463

> <Gold.Chemscore.DEInternal.Weighted>
2.2632

> <Gold.Chemscore.Rot.Weighted>
4.1056

> <Gold.Chemscore.Internal.Correction.Weighted>
   9.000000E+99

> <Gold.Protein.RotatedTorsions>
[ 6907 6896 6895 6894 ] final  -55.67 input  -60.11 | X-H torsion
[ 7974 7965 7964 7962 ] final   32.61 input  175.53 | X-H torsion
[ 8008 7997 7996 7995 ] final   38.38 input   59.86 | X-H torsion
[ 10167 10162 10161 10158 ] final -103.18 input  -65.29 | X-H torsion
[ 10718 10713 10712 10709 ] final -134.07 input   66.30 | X-H torsion
[ 10763 10752 10751 10750 ] final -142.24 input  -60.55 | X-H torsion
[ 11005 11000 10999 10996 ] final   -9.19 input  -57.11 | X-H torsion

> <Gold.Protein.ActiveResidues>
 VAL166  LYS551  ARG553  GLY616  TRP617  ASP618  TYR619  PRO620  LYS621  CYS622 
 ASP623  PHE694  ASN695  SER759  ASP760  ASP761  ALA762  ILE779  LEU786  VAL792 
 PHE793  MET794  SER795  GLU796  ALA797  LYS798  CYS799  TRP800  GLU811  SER814 

> <Gold.Protein.RotatedAtoms>
  150.8231  134.7449  159.6789 H   0  0  0  0  0  0  0  0  0  0  0  0  # atno 6907 bound_to 6896
  152.4345  134.5710  159.9931 H   0  0  0  0  0  0  0  0  0  0  0  0  # atno 6908 bound_to 6896
  151.5889  133.3331  159.3059 H   0  0  0  0  0  0  0  0  0  0  0  0  # atno 6909 bound_to 6896
  146.1475  139.6504  142.9121 H   0  0  0  0  0  0  0  0  0  0  0  0  # atno 7974 bound_to 7965
  155.2192  140.3329  155.4318 H   0  0  0  0  0  0  0  0  0  0  0  0  # atno 8008 bound_to 7997
  156.2340  140.1863  156.7216 H   0  0  0  0  0  0  0  0  0  0  0  0  # atno 8009 bound_to 7997
  154.6026  140.0621  156.9374 H   0  0  0  0  0  0  0  0  0  0  0  0  # atno 8010 bound_to 7997
  140.2227  143.3664  152.0955 H   0  0  0  0  0  0  0  0  0  0  0  0  # atno 10167 bound_to 10162
  156.2516  130.7156  151.1058 H   0  0  0  0  0  0  0  0  0  0  0  0  # atno 10718 bound_to 10713
  154.8516  135.3501  154.5996 H   0  0  0  0  0  0  0  0  0  0  0  0  # atno 10763 bound_to 10752
  153.6605  135.6990  153.5184 H   0  0  0  0  0  0  0  0  0  0  0  0  # atno 10764 bound_to 10752
  153.2821  135.4260  155.1046 H   0  0  0  0  0  0  0  0  0  0  0  0  # atno 10765 bound_to 10752
  140.7315  133.8745  155.8897 H   0  0  0  0  0  0  0  0  0  0  0  0  # atno 11005 bound_to 11000
  145.4902  141.0438  143.2597 LP  0  0  0  0  0  0  0  0  0  0  0  0  # atno 17320 bound_to 7965
  144.7864  139.6418  143.7132 LP  0  0  0  0  0  0  0  0  0  0  0  0  # atno 17321 bound_to 7965
  139.5138  144.6938  151.5686 LP  0  0  0  0  0  0  0  0  0  0  0  0  # atno 17342 bound_to 10162
  140.6243  143.9199  150.6551 LP  0  0  0  0  0  0  0  0  0  0  0  0  # atno 17343 bound_to 10162
  157.7216  131.0677  150.6109 LP  0  0  0  0  0  0  0  0  0  0  0  0  # atno 17370 bound_to 10713
  156.6190  130.4400  149.5829 LP  0  0  0  0  0  0  0  0  0  0  0  0  # atno 17371 bound_to 10713
  140.9916  134.1271  157.4402 LP  0  0  0  0  0  0  0  0  0  0  0  0  # atno 17394 bound_to 11000
  139.8825  135.0042  156.6235 LP  0  0  0  0  0  0  0  0  0  0  0  0  # atno 17395 bound_to 11000

$$$$
