AV-unprocessed.smi:3335|AV-procd|sdf|12843|dock2
  -GOLD-   2272019233D 1   1.00000     0.00000
 Structure written by MMmdl.
 47 48  0  0  0  0  0  0  0  0  2 V2000
  152.2444  144.0544  159.0562 C   0  0  0  0  0  0  0  0  0  0  0  0
  152.5831  142.6244  159.3638 C   0  0  0  0  0  0  0  0  0  0  0  0
  153.6937  142.1292  160.1036 C   0  0  0  0  0  0  0  0  0  0  0  0
  153.7076  140.8091  160.1849 N   0  0  0  0  0  0  0  0  0  0  0  0
  152.6068  140.4134  159.5075 N   0  0  0  0  0  0  0  0  0  0  0  0
  152.3010  138.9939  159.3675 C   0  0  2  0  0  0  0  0  0  0  0  0
  153.4240  138.2931  158.5782 C   0  0  0  0  0  0  0  0  0  0  0  0
  150.8912  138.7902  158.7516 C   0  0  1  0  0  0  0  0  0  0  0  0
  150.8437  139.1004  157.2441 C   0  0  0  0  0  0  0  0  0  0  0  0
  150.4381  137.3957  158.9782 N   0  3  0  0  0  0  0  0  0  0  0  0
  148.9809  137.2203  159.1754 C   0  0  1  0  0  0  0  0  0  0  0  0
  148.2364  137.5936  157.8846 C   0  0  0  0  0  0  0  0  0  0  0  0
  148.6574  135.7643  159.5627 C   0  0  0  0  0  0  0  0  0  0  0  0
  149.0165  134.8596  158.8076 O   0  0  0  0  0  0  0  0  0  0  0  0
  147.9779  135.5134  160.7018 N   0  0  0  0  0  0  0  0  0  0  0  0
  147.6491  134.1621  161.1530 C   0  0  0  0  0  0  0  0  0  0  0  0
  147.1107  134.3174  162.5751 C   0  0  0  0  0  0  0  0  0  0  0  0
  146.5676  135.7386  162.6125 C   0  0  0  0  0  0  0  0  0  0  0  0
  147.4666  136.5078  161.6445 C   0  0  0  0  0  0  0  0  0  0  0  0
  151.9097  141.4918  159.0034 C   0  0  0  0  0  0  0  0  0  0  0  0
  152.9310  144.7475  159.5427 H   0  0  0  0  0  0  0  0  0  0  0  0
  151.2390  144.3113  159.3903 H   0  0  0  0  0  0  0  0  0  0  0  0
  152.2902  144.2562  157.9859 H   0  0  0  0  0  0  0  0  0  0  0  0
  154.4896  142.6863  160.5756 H   0  0  0  0  0  0  0  0  0  0  0  0
  152.2986  138.5686  160.3725 H   0  0  0  0  0  0  0  0  0  0  0  0
  153.3250  137.2085  158.6138 H   0  0  0  0  0  0  0  0  0  0  0  0
  154.4025  138.5347  158.9947 H   0  0  0  0  0  0  0  0  0  0  0  0
  153.4267  138.5944  157.5301 H   0  0  0  0  0  0  0  0  0  0  0  0
  150.2023  139.4692  159.2571 H   0  0  0  0  0  0  0  0  0  0  0  0
  151.0590  140.1495  157.0423 H   0  0  0  0  0  0  0  0  0  0  0  0
  149.8573  138.8985  156.8262 H   0  0  0  0  0  0  0  0  0  0  0  0
  151.5657  138.4980  156.6919 H   0  0  0  0  0  0  0  0  0  0  0  0
  150.7358  136.8391  158.1901 H   0  0  0  0  0  0  0  0  0  0  0  0
  148.6663  137.9132  159.9546 H   0  0  0  0  0  0  0  0  0  0  0  0
  147.1568  137.4975  158.0075 H   0  0  0  0  0  0  0  0  0  0  0  0
  148.5335  136.9565  157.0501 H   0  0  0  0  0  0  0  0  0  0  0  0
  148.4404  138.6265  157.6009 H   0  0  0  0  0  0  0  0  0  0  0  0
  146.8834  133.7449  160.4972 H   0  0  0  0  0  0  0  0  0  0  0  0
  148.5154  133.4987  161.1286 H   0  0  0  0  0  0  0  0  0  0  0  0
  146.3587  133.5693  162.8272 H   0  0  0  0  0  0  0  0  0  0  0  0
  147.9298  134.2215  163.2892 H   0  0  0  0  0  0  0  0  0  0  0  0
  145.5412  135.7454  162.2430 H   0  0  0  0  0  0  0  0  0  0  0  0
  146.5640  136.1644  163.6163 H   0  0  0  0  0  0  0  0  0  0  0  0
  148.3048  136.9552  162.1807 H   0  0  0  0  0  0  0  0  0  0  0  0
  146.9115  137.3042  161.1467 H   0  0  0  0  0  0  0  0  0  0  0  0
  151.0030  141.3664  158.4299 H   0  0  0  0  0  0  0  0  0  0  0  0
  150.8910  137.0434  159.8100 H   0  0  0  0  0  0  0  0  0  0  0  0
  1  2  1  0  0  0  0
  1 21  1  0  0  0  0
  1 22  1  0  0  0  0
  1 23  1  0  0  0  0
  2 20  2  0  0  0  0
  2  3  1  0  0  0  0
  3  4  2  0  0  0  0
  3 24  1  0  0  0  0
  4  5  1  0  0  0  0
  5  6  1  0  0  0  0
  5 20  1  0  0  0  0
  6  7  1  0  0  0  0
  6  8  1  0  0  0  0
  6 25  1  0  0  0  0
  7 26  1  0  0  0  0
  7 27  1  0  0  0  0
  7 28  1  0  0  0  0
  8  9  1  0  0  0  0
  8 10  1  0  0  0  0
  8 29  1  0  0  0  0
  9 30  1  0  0  0  0
  9 31  1  0  0  0  0
  9 32  1  0  0  0  0
 10 11  1  0  0  0  0
 10 33  1  0  0  0  0
 10 47  1  0  0  0  0
 11 12  1  0  0  0  0
 11 13  1  0  0  0  0
 11 34  1  0  0  0  0
 12 35  1  0  0  0  0
 12 36  1  0  0  0  0
 12 37  1  0  0  0  0
 13 14  2  0  0  0  0
 13 15  1  0  0  0  0
 15 19  1  0  0  0  0
 15 16  1  0  0  0  0
 16 17  1  0  0  0  0
 16 38  1  0  0  0  0
 16 39  1  0  0  0  0
 17 18  1  0  0  0  0
 17 40  1  0  0  0  0
 17 41  1  0  0  0  0
 18 19  1  0  0  0  0
 18 42  1  0  0  0  0
 18 43  1  0  0  0  0
 19 44  1  0  0  0  0
 19 45  1  0  0  0  0
 20 46  1  0  0  0  0
M  CHG  1  10   1
M  END
> <s_m_source_file>
AV-unprocessed.smi

> <i_m_source_file_index>
3335

> <i_lp_mmshare_version>
43012

> <i_f3d_flags>
0

> <s_epik_input>
W0NIM11jMVtjSF1ubihbY0hdMSlbQ0BIXShbQ0gzXSlbQ0BIXShbQ0gzXSlbTkhdW0NASF0oW0NIM10pQyg9TylOMltDSDJdW0NIMl1bQ0gyXVtDSDJdMg==

> <s_epik_cmdline>
J2VwaWtfcHl0aG9uJywgJy1waCcsICc3LjAnLCAnLXRuJywgJzgnLCAnLW1hJywgJzIwMCcsICctbWV0YWxfYmluZGluZycsICctaW1hZScsICc8aW5maWxlLm1hZT4nLCAnLW9tYWUnLCAnPG91dGZpbGUubWFlPic=

> <r_lp_tautomer_probability>
1

> <r_epik_Ionization_Penalty>
0.14175

> <r_epik_Ionization_Penalty_Charging>
0.141731

> <r_epik_Ionization_Penalty_Neutral>
1.91261e-05

> <r_epik_State_Penalty>
0.131043

> <r_epik_Charging_Adjusted_Penalty>
0.272773

> <i_epik_Tot_Q>
1

> <i_epik_Tot_abs_Q>
1

> <r_epik_Metal_State_Penalty>
0.131408

> <b_epik_Metal_Only>
0

> <s_lp_Force_Field>
OPLS_2005

> <r_lp_Energy>
35.1527

> <b_lp_Chiralities_Consistent>
1

> <s_lp_Variant>
AV-unprocessed.smi:3335-7

> <Gold.Version>
5.8.1

> <Gold.Id.Protein>
6NUR|6NUR_protein|mol2

> <Gold.PLP.Fitness>
42.4485

> <Gold.PLP.PLP>
-40.7785

> <Gold.PLP.part.hbond>
-1.0000

> <Gold.PLP.part.metal>
0.0000

> <Gold.PLP.part.buried>
-5.9430

> <Gold.PLP.part.nonpolar>
-34.8357

> <Gold.PLP.part.repulsive>
0.1721

> <Gold.PLP.ligand.clash>
0.0000

> <Gold.PLP.ligand.torsion>
0.7194

> <Gold.PLP.Chemscore.Hbond>
1.0000

> <Gold.PLP.Chemscore.CHOScore>
0.0000

> <Gold.PLP.Chemscore.Metal>
0.0000

> <Gold.Chemscore.Hbonds>
donor molecule, donor type, donor heavy atom, donor atom, acceptor molecule, acceptor atom, score
      P1  H  6896  6909       L1    14  1.00

> <Gold.PLP.Chemscore.Internal.Correction>
0.1087

> <Gold.Rescore>
     Score         DG    S(hbond)    S(metal)    S(lipo)     H(rot)  DE(clash)    DE(int)     intcor
     15.18     -16.41       0.97        0.00     102.62       1.68       0.09       1.14       ----

> <Gold.Chemscore.Fitness>
15.1793

> <Gold.Chemscore.DG>
-16.4144

> <Gold.Chemscore.ZeroCoef>
-5.4800

> <Gold.Chemscore.Hbond>
0.9651

> <Gold.Chemscore.Metal>
0.0000

> <Gold.Chemscore.Lipo>
102.6173

> <Gold.Chemscore.Internal_Hbond>
0.0000

> <Gold.Chemscore.DEClash>
0.0922

> <Gold.Chemscore.DEInternal>
1.1429

> <Gold.Chemscore.Rot>
1.6778

> <Gold.Chemscore.Internal.Correction>
   9.000000E+99

> <Gold.Chemscore.Hbonds>
donor molecule, donor type, donor heavy atom, donor atom, acceptor molecule, acceptor atom, score
      P1  H  6896  6909       L1    14  0.65

> <Gold.Chemscore.Hbond.Weighted>
-3.2234

> <Gold.Chemscore.Metal.Weighted>
-0.0000

> <Gold.Chemscore.Lipo.Weighted>
-12.0062

> <Gold.Chemscore.Internal_Hbond.Weighted>
0.0000

> <Gold.Chemscore.DEClash.Weighted>
0.0922

> <Gold.Chemscore.DEInternal.Weighted>
1.1429

> <Gold.Chemscore.Rot.Weighted>
4.2952

> <Gold.Chemscore.Internal.Correction.Weighted>
   9.000000E+99

> <Gold.Protein.RotatedTorsions>
[ 6907 6896 6895 6894 ] final   27.65 input  -60.11 | X-H torsion
[ 7974 7965 7964 7962 ] final -119.11 input  175.53 | X-H torsion
[ 8008 7997 7996 7995 ] final -140.49 input   59.86 | X-H torsion
[ 10167 10162 10161 10158 ] final  113.04 input  -65.29 | X-H torsion
[ 10718 10713 10712 10709 ] final -128.28 input   66.30 | X-H torsion
[ 10763 10752 10751 10750 ] final  119.26 input  -60.55 | X-H torsion
[ 11005 11000 10999 10996 ] final  -65.52 input  -57.11 | X-H torsion

> <Gold.Protein.ActiveResidues>
 VAL166  LYS551  ARG553  GLY616  TRP617  ASP618  TYR619  PRO620  LYS621  CYS622 
 ASP623  PHE694  ASN695  SER759  ASP760  ASP761  ALA762  ILE779  LEU786  VAL792 
 PHE793  MET794  SER795  GLU796  ALA797  LYS798  CYS799  TRP800  GLU811  SER814 

> <Gold.Protein.RotatedAtoms>
  152.0054  134.9905  160.0566 H   0  0  0  0  0  0  0  0  0  0  0  0  # atno 6907 bound_to 6896
  152.1480  133.4499  159.4807 H   0  0  0  0  0  0  0  0  0  0  0  0  # atno 6908 bound_to 6896
  150.6872  134.2142  159.4414 H   0  0  0  0  0  0  0  0  0  0  0  0  # atno 6909 bound_to 6896
  145.0663  140.8326  143.4122 H   0  0  0  0  0  0  0  0  0  0  0  0  # atno 7974 bound_to 7965
  155.4622  140.0546  157.2989 H   0  0  0  0  0  0  0  0  0  0  0  0  # atno 8008 bound_to 7997
  154.4732  140.2050  155.9896 H   0  0  0  0  0  0  0  0  0  0  0  0  # atno 8009 bound_to 7997
  156.1090  140.3207  155.8051 H   0  0  0  0  0  0  0  0  0  0  0  0  # atno 8010 bound_to 7997
  139.6491  144.7128  151.2084 H   0  0  0  0  0  0  0  0  0  0  0  0  # atno 10167 bound_to 10162
  156.1936  130.6811  151.0454 H   0  0  0  0  0  0  0  0  0  0  0  0  # atno 10718 bound_to 10713
  153.5803  135.3485  155.2872 H   0  0  0  0  0  0  0  0  0  0  0  0  # atno 10763 bound_to 10752
  154.8669  135.4180  154.2627 H   0  0  0  0  0  0  0  0  0  0  0  0  # atno 10764 bound_to 10752
  153.3412  135.7050  153.6936 H   0  0  0  0  0  0  0  0  0  0  0  0  # atno 10765 bound_to 10752
  141.1457  133.6683  156.5999 H   0  0  0  0  0  0  0  0  0  0  0  0  # atno 11005 bound_to 11000
  145.1347  139.2609  143.5521 LP  0  0  0  0  0  0  0  0  0  0  0  0  # atno 17320 bound_to 7965
  146.3527  140.1008  142.8608 LP  0  0  0  0  0  0  0  0  0  0  0  0  # atno 17321 bound_to 7965
  140.7529  143.6181  150.8540 LP  0  0  0  0  0  0  0  0  0  0  0  0  # atno 17342 bound_to 10162
  139.9827  143.5934  152.2937 LP  0  0  0  0  0  0  0  0  0  0  0  0  # atno 17343 bound_to 10162
  157.6944  131.0799  150.7013 LP  0  0  0  0  0  0  0  0  0  0  0  0  # atno 17370 bound_to 10713
  156.7070  130.4640  149.5557 LP  0  0  0  0  0  0  0  0  0  0  0  0  # atno 17371 bound_to 10713
  140.3697  134.7617  157.4590 LP  0  0  0  0  0  0  0  0  0  0  0  0  # atno 17394 bound_to 11000
  140.0720  134.5849  155.8631 LP  0  0  0  0  0  0  0  0  0  0  0  0  # atno 17395 bound_to 11000

$$$$
