AV-unprocessed.smi:2030|AV-procd|sdf|8225|dock7
  -GOLD-   2272010493D 1   1.00000     0.00000
 Structure written by MMmdl.
 36 37  0  0  0  0  0  0  0  0  2 V2000
  146.5450  136.1395  154.5196 C   0  0  0  0  0  0  0  0  0  0  0  0
  146.7574  137.3385  153.7113 N   0  0  0  0  0  0  0  0  0  0  0  0
  147.6601  138.2401  154.2376 N   0  0  0  0  0  0  0  0  0  0  0  0
  147.7902  139.4399  153.7643 C   0  0  0  0  0  0  0  0  0  0  0  0
  148.7681  140.3798  154.3763 C   0  0  0  0  0  0  0  0  0  0  0  0
  148.8318  141.5561  154.0172 O   0  0  0  0  0  0  0  0  0  0  0  0
  149.5643  139.8652  155.3314 N   0  0  0  0  0  0  0  0  0  0  0  0
  150.5838  140.6085  156.0616 C   0  0  0  0  0  0  0  0  0  0  0  0
  149.9600  141.5522  157.1032 C   0  0  0  0  0  0  0  0  0  0  0  0
  151.0098  142.3005  157.9008 C   0  0  0  0  0  0  0  0  0  0  0  0
  151.9018  141.6418  158.7747 C   0  0  0  0  0  0  0  0  0  0  0  0
  152.8506  142.4012  159.4908 C   0  0  0  0  0  0  0  0  0  0  0  0
  152.8875  143.8006  159.3181 C   0  0  0  0  0  0  0  0  0  0  0  0
  151.9727  144.4064  158.4328 C   0  0  0  0  0  0  0  0  0  0  0  0
  151.0780  143.6449  157.7656 N   0  3  0  0  0  0  0  0  0  0  0  0
  146.9291  139.9088  152.6079 C   0  0  0  0  0  0  0  0  0  0  0  0
  146.4744  138.7391  151.7127 C   0  0  0  0  0  0  0  0  0  0  0  0
  146.1166  137.4917  152.5257 C   0  0  0  0  0  0  0  0  0  0  0  0
  145.3041  136.6830  152.0774 O   0  0  0  0  0  0  0  0  0  0  0  0
  146.8384  135.2462  153.9663 H   0  0  0  0  0  0  0  0  0  0  0  0
  145.4935  136.0417  154.7934 H   0  0  0  0  0  0  0  0  0  0  0  0
  147.1247  136.1602  155.4439 H   0  0  0  0  0  0  0  0  0  0  0  0
  149.4465  138.8905  155.5701 H   0  0  0  0  0  0  0  0  0  0  0  0
  151.2780  139.9139  156.5377 H   0  0  0  0  0  0  0  0  0  0  0  0
  151.1655  141.1834  155.3405 H   0  0  0  0  0  0  0  0  0  0  0  0
  149.3046  142.2713  156.6099 H   0  0  0  0  0  0  0  0  0  0  0  0
  149.3323  140.9913  157.7968 H   0  0  0  0  0  0  0  0  0  0  0  0
  151.8602  140.5691  158.8975 H   0  0  0  0  0  0  0  0  0  0  0  0
  153.5414  141.9159  160.1648 H   0  0  0  0  0  0  0  0  0  0  0  0
  153.6063  144.4002  159.8572 H   0  0  0  0  0  0  0  0  0  0  0  0
  151.9293  145.4686  158.2403 H   0  0  0  0  0  0  0  0  0  0  0  0
  146.0590  140.4374  152.9990 H   0  0  0  0  0  0  0  0  0  0  0  0
  147.4709  140.6249  151.9889 H   0  0  0  0  0  0  0  0  0  0  0  0
  145.6277  139.0406  151.0953 H   0  0  0  0  0  0  0  0  0  0  0  0
  147.2797  138.4651  151.0301 H   0  0  0  0  0  0  0  0  0  0  0  0
  150.4241  144.1046  157.1311 H   0  0  0  0  0  0  0  0  0  0  0  0
  1  2  1  0  0  0  0
  1 20  1  0  0  0  0
  1 21  1  0  0  0  0
  1 22  1  0  0  0  0
  2 18  1  0  0  0  0
  2  3  1  0  0  0  0
  3  4  2  0  0  0  0
  4  5  1  0  0  0  0
  4 16  1  0  0  0  0
  5  6  2  0  0  0  0
  5  7  1  0  0  0  0
  7  8  1  0  0  0  0
  7 23  1  0  0  0  0
  8  9  1  0  0  0  0
  8 24  1  0  0  0  0
  8 25  1  0  0  0  0
  9 10  1  0  0  0  0
  9 26  1  0  0  0  0
  9 27  1  0  0  0  0
 10 15  1  0  0  0  0
 10 11  2  0  0  0  0
 11 12  1  0  0  0  0
 11 28  1  0  0  0  0
 12 13  2  0  0  0  0
 12 29  1  0  0  0  0
 13 14  1  0  0  0  0
 13 30  1  0  0  0  0
 14 15  2  0  0  0  0
 14 31  1  0  0  0  0
 15 36  1  0  0  0  0
 16 17  1  0  0  0  0
 16 32  1  0  0  0  0
 16 33  1  0  0  0  0
 17 18  1  0  0  0  0
 17 34  1  0  0  0  0
 17 35  1  0  0  0  0
 18 19  2  0  0  0  0
M  CHG  1  15   1
M  END
> <s_m_source_file>
AV-unprocessed.smi

> <i_m_source_file_index>
2030

> <i_lp_mmshare_version>
43012

> <i_f3d_flags>
0

> <s_epik_input>
Tz1DMVtDSDJdW0NIMl1DKD1OTjFbQ0gzXSlDKD1PKVtOSF1bQ0gyXVtDSDJdYzJbY0hdW2NIXVtjSF1bY0hdbjI=

> <s_epik_cmdline>
J2VwaWtfcHl0aG9uJywgJy1waCcsICc3LjAnLCAnLXRuJywgJzgnLCAnLW1hJywgJzIwMCcsICctbWV0YWxfYmluZGluZycsICctaW1hZScsICc8aW5maWxlLm1hZT4nLCAnLW9tYWUnLCAnPG91dGZpbGUubWFlPic=

> <r_epik_Ionization_Penalty>
2.09642

> <r_epik_Ionization_Penalty_Charging>
2.0963

> <r_epik_Ionization_Penalty_Neutral>
0.00011851

> <r_epik_State_Penalty>
2.23213

> <r_epik_Charging_Adjusted_Penalty>
4.32843

> <i_epik_Tot_Q>
1

> <i_epik_Tot_abs_Q>
1

> <r_epik_Metal_State_Penalty>
2.41268

> <b_epik_Metal_Only>
0

> <s_epik_Chemistry_Notes>
This compound has an imine and may undergo hydrolysis.

> <s_lp_Force_Field>
OPLS_2005

> <r_lp_Energy>
21.0672

> <b_lp_Chiralities_Consistent>
1

> <s_lp_Variant>
AV-unprocessed.smi:2030-2

> <Gold.Version>
5.8.1

> <Gold.Id.Protein>
6NUR|6NUR_protein|mol2

> <Gold.PLP.Fitness>
43.6751

> <Gold.PLP.PLP>
-35.6636

> <Gold.PLP.part.hbond>
-2.4374

> <Gold.PLP.part.metal>
0.0000

> <Gold.PLP.part.buried>
-2.4711

> <Gold.PLP.part.nonpolar>
-33.7788

> <Gold.PLP.part.repulsive>
0.9834

> <Gold.PLP.ligand.clash>
0.0000

> <Gold.PLP.ligand.torsion>
0.1300

> <Gold.PLP.Chemscore.Hbond>
2.7520

> <Gold.PLP.Chemscore.CHOScore>
0.0000

> <Gold.PLP.Chemscore.Metal>
0.0000

> <Gold.Chemscore.Hbonds>
donor molecule, donor type, donor heavy atom, donor atom, acceptor molecule, acceptor atom, score
      L1  H    15    36       P1  8028  1.20
      P1  H  8011  8017       L1     6  0.50

> <Gold.PLP.Chemscore.Internal.Correction>
0.0154

> <Gold.Rescore>
     Score         DG    S(hbond)    S(metal)    S(lipo)     H(rot)  DE(clash)    DE(int)     intcor
     18.12     -18.60       1.78        0.00      94.52       1.52       0.31       0.16       ----

> <Gold.Chemscore.Fitness>
18.1231

> <Gold.Chemscore.DG>
-18.6008

> <Gold.Chemscore.ZeroCoef>
-5.4800

> <Gold.Chemscore.Hbond>
1.7791

> <Gold.Chemscore.Metal>
0.0000

> <Gold.Chemscore.Lipo>
94.5188

> <Gold.Chemscore.Internal_Hbond>
0.0000

> <Gold.Chemscore.DEClash>
0.3141

> <Gold.Chemscore.DEInternal>
0.1636

> <Gold.Chemscore.Rot>
1.5157

> <Gold.Chemscore.Internal.Correction>
   9.000000E+99

> <Gold.Chemscore.Hbonds>
donor molecule, donor type, donor heavy atom, donor atom, acceptor molecule, acceptor atom, score
      L1  H    15    36       P1  8028  0.57
      P1  H  8011  8017       L1     6  0.49

> <Gold.Chemscore.Hbond.Weighted>
-5.9422

> <Gold.Chemscore.Metal.Weighted>
-0.0000

> <Gold.Chemscore.Lipo.Weighted>
-11.0587

> <Gold.Chemscore.Internal_Hbond.Weighted>
0.0000

> <Gold.Chemscore.DEClash.Weighted>
0.3141

> <Gold.Chemscore.DEInternal.Weighted>
0.1636

> <Gold.Chemscore.Rot.Weighted>
3.8801

> <Gold.Chemscore.Internal.Correction.Weighted>
   9.000000E+99

> <Gold.Protein.RotatedTorsions>
[ 6907 6896 6895 6894 ] final   -9.31 input  -60.11 | X-H torsion
[ 7974 7965 7964 7962 ] final -150.17 input  175.53 | X-H torsion
[ 8008 7997 7996 7995 ] final  131.15 input   59.86 | X-H torsion
[ 10167 10162 10161 10158 ] final  143.92 input  -65.29 | X-H torsion
[ 10718 10713 10712 10709 ] final  -17.42 input   66.30 | X-H torsion
[ 10763 10752 10751 10750 ] final  170.18 input  -60.55 | X-H torsion
[ 11005 11000 10999 10996 ] final -115.72 input  -57.11 | X-H torsion

> <Gold.Protein.ActiveResidues>
 VAL166  LYS551  ARG553  GLY616  TRP617  ASP618  TYR619  PRO620  LYS621  CYS622 
 ASP623  PHE694  ASN695  SER759  ASP760  ASP761  ALA762  ILE779  LEU786  VAL792 
 PHE793  MET794  SER795  GLU796  ALA797  LYS798  CYS799  TRP800  GLU811  SER814 

> <Gold.Protein.RotatedAtoms>
  151.4198  135.0996  159.9610 H   0  0  0  0  0  0  0  0  0  0  0  0  # atno 6907 bound_to 6896
  152.4992  133.8718  159.7313 H   0  0  0  0  0  0  0  0  0  0  0  0  # atno 6908 bound_to 6896
  150.9231  133.6798  159.2855 H   0  0  0  0  0  0  0  0  0  0  0  0  # atno 6909 bound_to 6896
  144.7924  140.4968  143.5764 H   0  0  0  0  0  0  0  0  0  0  0  0  # atno 7974 bound_to 7965
  156.2966  140.2578  156.2878 H   0  0  0  0  0  0  0  0  0  0  0  0  # atno 8008 bound_to 7997
  154.9539  140.0394  157.2176 H   0  0  0  0  0  0  0  0  0  0  0  0  # atno 8009 bound_to 7997
  154.8010  140.2828  155.5926 H   0  0  0  0  0  0  0  0  0  0  0  0  # atno 8010 bound_to 7997
  139.4958  144.6007  151.6486 H   0  0  0  0  0  0  0  0  0  0  0  0  # atno 10167 bound_to 10162
  156.5738  130.4756  149.6351 H   0  0  0  0  0  0  0  0  0  0  0  0  # atno 10718 bound_to 10713
  154.3939  135.2754  155.2138 H   0  0  0  0  0  0  0  0  0  0  0  0  # atno 10763 bound_to 10752
  154.4193  135.6004  153.6003 H   0  0  0  0  0  0  0  0  0  0  0  0  # atno 10764 bound_to 10752
  152.9831  135.5968  154.4197 H   0  0  0  0  0  0  0  0  0  0  0  0  # atno 10765 bound_to 10752
  141.0469  133.9748  157.2902 H   0  0  0  0  0  0  0  0  0  0  0  0  # atno 11005 bound_to 11000
  145.5761  139.1486  143.3261 LP  0  0  0  0  0  0  0  0  0  0  0  0  # atno 17320 bound_to 7965
  146.2180  140.5893  142.9030 LP  0  0  0  0  0  0  0  0  0  0  0  0  # atno 17321 bound_to 7965
  140.5656  144.0195  150.6191 LP  0  0  0  0  0  0  0  0  0  0  0  0  # atno 17342 bound_to 10162
  140.3295  143.3086  152.0701 LP  0  0  0  0  0  0  0  0  0  0  0  0  # atno 17343 bound_to 10162
  156.2691  130.7007  151.1799 LP  0  0  0  0  0  0  0  0  0  0  0  0  # atno 17370 bound_to 10713
  157.7342  131.0584  150.5536 LP  0  0  0  0  0  0  0  0  0  0  0  0  # atno 17371 bound_to 10713
  139.9319  135.0199  156.8429 LP  0  0  0  0  0  0  0  0  0  0  0  0  # atno 17394 bound_to 11000
  140.6129  134.0066  155.7584 LP  0  0  0  0  0  0  0  0  0  0  0  0  # atno 17395 bound_to 11000

$$$$
