AV-unprocessed.smi:1644|AV-procd|sdf|6599|dock3
  -GOLD-   22720 7303D 1   1.00000     0.00000
 Structure written by MMmdl.
 49 51  0  0  0  0  0  0  0  0  3 V2000
  147.8579  135.5352  162.3776 C   0  0  0  0  0  0  0  0  0  0  0  0
  147.1993  136.2378  161.1856 C   0  0  0  0  0  0  0  0  0  0  0  0
  147.5360  135.5558  159.8421 C   0  0  0  0  0  0  0  0  0  0  0  0
  148.9940  135.7098  159.3440 C   0  0  1  0  0  0  0  0  0  0  0  0
  149.3248  134.7261  158.3339 N   0  5  0  0  0  0  0  0  0  0  0  0
  149.7442  135.3782  157.2243 C   0  0  0  0  0  0  0  0  0  0  0  0
  150.0930  134.8688  156.1592 O   0  0  0  0  0  0  0  0  0  0  0  0
  149.7215  136.7133  157.4071 N   0  0  0  0  0  0  0  0  0  0  0  0
  150.0694  137.7076  156.3877 C   0  0  0  0  0  0  0  0  0  0  0  0
  151.5923  137.9498  156.3347 C   0  0  1  0  0  0  0  0  0  0  0  0
  152.2266  136.8103  155.7875 O   0  0  0  0  0  0  0  0  0  0  0  0
  151.9536  139.1686  155.4636 C   0  0  0  0  0  0  0  0  0  0  0  0
  151.4917  140.4320  156.0511 N   0  0  0  0  0  0  0  0  0  0  0  0
  150.6492  141.3788  155.5573 C   0  0  0  0  0  0  0  0  0  0  0  0
  150.5515  142.3665  156.4908 N   0  3  0  0  0  0  0  0  0  0  0  0
  151.3474  142.0462  157.5937 C   0  0  0  0  0  0  0  0  0  0  0  0
  151.5827  142.7313  158.7800 C   0  0  0  0  0  0  0  0  0  0  0  0
  152.4623  142.1298  159.7088 C   0  0  0  0  0  0  0  0  0  0  0  0
  152.7486  142.8563  161.0118 C   0  0  0  0  0  0  0  0  0  0  0  0
  153.0685  140.8760  159.4350 C   0  0  0  0  0  0  0  0  0  0  0  0
  154.0129  140.2374  160.4390 C   0  0  0  0  0  0  0  0  0  0  0  0
  152.8133  140.1936  158.2248 C   0  0  0  0  0  0  0  0  0  0  0  0
  151.9498  140.8040  157.3188 C   0  0  0  0  0  0  0  0  0  0  0  0
  149.2742  137.0161  158.6289 C   0  0  0  0  0  0  0  0  0  0  0  0
  149.0973  138.1338  159.1144 O   0  0  0  0  0  0  0  0  0  0  0  0
  147.5963  136.0303  163.3127 H   0  0  0  0  0  0  0  0  0  0  0  0
  148.9443  135.5444  162.2877 H   0  0  0  0  0  0  0  0  0  0  0  0
  147.5353  134.4962  162.4493 H   0  0  0  0  0  0  0  0  0  0  0  0
  146.1194  136.2504  161.3360 H   0  0  0  0  0  0  0  0  0  0  0  0
  147.5208  137.2796  161.1729 H   0  0  0  0  0  0  0  0  0  0  0  0
  147.3087  134.4920  159.9241 H   0  0  0  0  0  0  0  0  0  0  0  0
  146.8636  135.9383  159.0730 H   0  0  0  0  0  0  0  0  0  0  0  0
  149.6672  135.6431  160.1996 H   0  0  0  0  0  0  0  0  0  0  0  0
  149.6777  137.4316  155.4068 H   0  0  0  0  0  0  0  0  0  0  0  0
  149.5553  138.6353  156.6450 H   0  0  0  0  0  0  0  0  0  0  0  0
  151.9819  138.1051  157.3412 H   0  0  0  0  0  0  0  0  0  0  0  0
  152.1204  136.0898  156.3894 H   0  0  0  0  0  0  0  0  0  0  0  0
  153.0328  139.2369  155.3195 H   0  0  0  0  0  0  0  0  0  0  0  0
  151.5122  139.0825  154.4697 H   0  0  0  0  0  0  0  0  0  0  0  0
  150.1531  141.3540  154.5980 H   0  0  0  0  0  0  0  0  0  0  0  0
  151.1178  143.6852  158.9821 H   0  0  0  0  0  0  0  0  0  0  0  0
  153.8178  143.0402  161.1214 H   0  0  0  0  0  0  0  0  0  0  0  0
  152.4095  142.2635  161.8615 H   0  0  0  0  0  0  0  0  0  0  0  0
  152.2399  143.8201  161.0522 H   0  0  0  0  0  0  0  0  0  0  0  0
  154.3567  139.2605  160.0972 H   0  0  0  0  0  0  0  0  0  0  0  0
  153.5158  140.0973  161.3993 H   0  0  0  0  0  0  0  0  0  0  0  0
  154.8910  140.8658  160.5901 H   0  0  0  0  0  0  0  0  0  0  0  0
  153.2786  139.2414  158.0123 H   0  0  0  0  0  0  0  0  0  0  0  0
  149.9863  143.1984  156.3784 H   0  0  0  0  0  0  0  0  0  0  0  0
  1  2  1  0  0  0  0
  1 26  1  0  0  0  0
  1 27  1  0  0  0  0
  1 28  1  0  0  0  0
  2  3  1  0  0  0  0
  2 29  1  0  0  0  0
  2 30  1  0  0  0  0
  3  4  1  0  0  0  0
  3 31  1  0  0  0  0
  3 32  1  0  0  0  0
  4 24  1  0  0  0  0
  4  5  1  0  0  0  0
  4 33  1  0  0  0  0
  5  6  1  0  0  0  0
  6  7  2  0  0  0  0
  6  8  1  0  0  0  0
  8  9  1  0  0  0  0
  8 24  1  0  0  0  0
  9 10  1  0  0  0  0
  9 34  1  0  0  0  0
  9 35  1  0  0  0  0
 10 11  1  0  0  0  0
 10 12  1  0  0  0  0
 10 36  1  0  0  0  0
 11 37  1  0  0  0  0
 12 13  1  0  0  0  0
 12 38  1  0  0  0  0
 12 39  1  0  0  0  0
 13 23  1  0  0  0  0
 13 14  1  0  0  0  0
 14 15  2  0  0  0  0
 14 40  1  0  0  0  0
 15 16  1  0  0  0  0
 15 49  1  0  0  0  0
 16 23  2  0  0  0  0
 16 17  1  0  0  0  0
 17 18  2  0  0  0  0
 17 41  1  0  0  0  0
 18 19  1  0  0  0  0
 18 20  1  0  0  0  0
 19 42  1  0  0  0  0
 19 43  1  0  0  0  0
 19 44  1  0  0  0  0
 20 21  1  0  0  0  0
 20 22  2  0  0  0  0
 21 45  1  0  0  0  0
 21 46  1  0  0  0  0
 21 47  1  0  0  0  0
 22 23  1  0  0  0  0
 22 48  1  0  0  0  0
 24 25  2  0  0  0  0
M  CHG  1   5  -1
M  CHG  1  15   1
M  END
> <s_m_source_file>
AV-unprocessed.smi

> <i_m_source_file_index>
1644

> <i_lp_mmshare_version>
43012

> <i_f3d_flags>
0

> <s_epik_input>
W0NIM11bQ0gyXVtDSDJdW0NAQEhdMVtOSF1DKD1PKU4oQzE9TylbQ0gyXVtDQEhdKFtPSF0pW0NIMl1uKFtjSF1uMiljKGMyMylbY0hdYyhbQ0gzXSljKFtjSF0zKVtDSDNd

> <s_epik_cmdline>
J2VwaWtfcHl0aG9uJywgJy1waCcsICc3LjAnLCAnLXRuJywgJzgnLCAnLW1hJywgJzIwMCcsICctbWV0YWxfYmluZGluZycsICctaW1hZScsICc8aW5maWxlLm1hZT4nLCAnLW9tYWUnLCAnPG91dGZpbGUubWFlPic=

> <r_lp_tautomer_probability>
1

> <r_epik_Ionization_Penalty>
6.86868

> <r_epik_Ionization_Penalty_Charging>
6.86868

> <r_epik_Ionization_Penalty_Neutral>
5.84798e-07

> <r_epik_State_Penalty>
6.92818

> <r_epik_Charging_Adjusted_Penalty>
13.7969

> <i_epik_Tot_Q>
0

> <i_epik_Tot_abs_Q>
2

> <r_epik_Metal_State_Penalty>
2.98017

> <b_epik_Metal_Only>
1

> <s_lp_Force_Field>
OPLS_2005

> <r_lp_Energy>
22.7733

> <b_lp_Chiralities_Consistent>
1

> <s_lp_Variant>
AV-unprocessed.smi:1644-16

> <Gold.Version>
5.8.1

> <Gold.Id.Protein>
6NUR|6NUR_protein|mol2

> <Gold.PLP.Fitness>
56.8843

> <Gold.PLP.PLP>
-44.1643

> <Gold.PLP.part.hbond>
-5.0000

> <Gold.PLP.part.metal>
0.0000

> <Gold.PLP.part.buried>
-2.7732

> <Gold.PLP.part.nonpolar>
-36.6474

> <Gold.PLP.part.repulsive>
0.0729

> <Gold.PLP.ligand.clash>
0.0000

> <Gold.PLP.ligand.torsion>
0.6212

> <Gold.PLP.Chemscore.Hbond>
4.5981

> <Gold.PLP.Chemscore.CHOScore>
0.0000

> <Gold.PLP.Chemscore.Metal>
0.0000

> <Gold.Chemscore.Hbonds>
donor molecule, donor type, donor heavy atom, donor atom, acceptor molecule, acceptor atom, score
      L1  H    15    49       P1  8028  2.00
      P1  H  6896  6909       L1     5  1.00
      P1  H 10752 10765       L1    11  0.23

> <Gold.PLP.Chemscore.Internal.Correction>
0.1683

> <Gold.Rescore>
     Score         DG    S(hbond)    S(metal)    S(lipo)     H(rot)  DE(clash)    DE(int)     intcor
     14.48     -15.92       1.40        0.00     108.96       2.72       0.11       1.32       ----

> <Gold.Chemscore.Fitness>
14.4782

> <Gold.Chemscore.DG>
-15.9151

> <Gold.Chemscore.ZeroCoef>
-5.4800

> <Gold.Chemscore.Hbond>
1.3956

> <Gold.Chemscore.Metal>
0.0000

> <Gold.Chemscore.Lipo>
108.9612

> <Gold.Chemscore.Internal_Hbond>
0.0000

> <Gold.Chemscore.DEClash>
0.1140

> <Gold.Chemscore.DEInternal>
1.3228

> <Gold.Chemscore.Rot>
2.7245

> <Gold.Chemscore.Internal.Correction>
   9.000000E+99

> <Gold.Chemscore.Hbonds>
donor molecule, donor type, donor heavy atom, donor atom, acceptor molecule, acceptor atom, score
      L1  H    15    49       P1  8028  0.95
      P1  H  6896  6909       L1     5  0.02

> <Gold.Chemscore.Hbond.Weighted>
-4.6614

> <Gold.Chemscore.Metal.Weighted>
-0.0000

> <Gold.Chemscore.Lipo.Weighted>
-12.7485

> <Gold.Chemscore.Internal_Hbond.Weighted>
0.0000

> <Gold.Chemscore.DEClash.Weighted>
0.1140

> <Gold.Chemscore.DEInternal.Weighted>
1.3228

> <Gold.Chemscore.Rot.Weighted>
6.9748

> <Gold.Chemscore.Internal.Correction.Weighted>
   9.000000E+99

> <Gold.Protein.RotatedTorsions>
[ 6907 6896 6895 6894 ] final   20.08 input  -60.11 | X-H torsion
[ 7974 7965 7964 7962 ] final  -91.02 input  175.53 | X-H torsion
[ 8008 7997 7996 7995 ] final  152.74 input   59.86 | X-H torsion
[ 10167 10162 10161 10158 ] final   30.17 input  -65.29 | X-H torsion
[ 10718 10713 10712 10709 ] final -161.93 input   66.30 | X-H torsion
[ 10763 10752 10751 10750 ] final -173.31 input  -60.55 | X-H torsion
[ 11005 11000 10999 10996 ] final  -66.01 input  -57.11 | X-H torsion

> <Gold.Protein.ActiveResidues>
 VAL166  LYS551  ARG553  GLY616  TRP617  ASP618  TYR619  PRO620  LYS621  CYS622 
 ASP623  PHE694  ASN695  SER759  ASP760  ASP761  ALA762  ILE779  LEU786  VAL792 
 PHE793  MET794  SER795  GLU796  ALA797  LYS798  CYS799  TRP800  GLU811  SER814 

> <Gold.Protein.RotatedAtoms>
  151.8908  135.0417  160.0497 H   0  0  0  0  0  0  0  0  0  0  0  0  # atno 6907 bound_to 6896
  152.2438  133.5153  159.5293 H   0  0  0  0  0  0  0  0  0  0  0  0  # atno 6908 bound_to 6896
  150.7062  134.0970  159.3994 H   0  0  0  0  0  0  0  0  0  0  0  0  # atno 6909 bound_to 6896
  145.4186  140.9550  143.2193 H   0  0  0  0  0  0  0  0  0  0  0  0  # atno 7974 bound_to 7965
  156.2615  140.2012  156.6381 H   0  0  0  0  0  0  0  0  0  0  0  0  # atno 8008 bound_to 7997
  154.6630  140.0558  157.0108 H   0  0  0  0  0  0  0  0  0  0  0  0  # atno 8009 bound_to 7997
  155.1248  140.3228  155.4491 H   0  0  0  0  0  0  0  0  0  0  0  0  # atno 8010 bound_to 7997
  140.4701  144.0775  150.6235 H   0  0  0  0  0  0  0  0  0  0  0  0  # atno 10167 bound_to 10162
  156.6032  130.8819  151.2919 H   0  0  0  0  0  0  0  0  0  0  0  0  # atno 10718 bound_to 10713
  154.6093  135.2863  155.0450 H   0  0  0  0  0  0  0  0  0  0  0  0  # atno 10763 bound_to 10752
  154.1686  135.6476  153.5007 H   0  0  0  0  0  0  0  0  0  0  0  0  # atno 10764 bound_to 10752
  153.0188  135.5395  154.6840 H   0  0  0  0  0  0  0  0  0  0  0  0  # atno 10765 bound_to 10752
  141.1470  133.6691  156.6074 H   0  0  0  0  0  0  0  0  0  0  0  0  # atno 11005 bound_to 11000
  144.8260  139.5709  143.6965 LP  0  0  0  0  0  0  0  0  0  0  0  0  # atno 17320 bound_to 7965
  146.2668  139.6539  142.9324 LP  0  0  0  0  0  0  0  0  0  0  0  0  # atno 17321 bound_to 7965
  140.3987  143.2715  151.9974 LP  0  0  0  0  0  0  0  0  0  0  0  0  # atno 17342 bound_to 10162
  139.4817  144.6016  151.7596 LP  0  0  0  0  0  0  0  0  0  0  0  0  # atno 17343 bound_to 10162
  157.7274  130.9642  150.1697 LP  0  0  0  0  0  0  0  0  0  0  0  0  # atno 17370 bound_to 10713
  156.2451  130.3695  149.8293 LP  0  0  0  0  0  0  0  0  0  0  0  0  # atno 17371 bound_to 10713
  140.3641  134.7662  157.4554 LP  0  0  0  0  0  0  0  0  0  0  0  0  # atno 17394 bound_to 11000
  140.0762  134.5794  155.8589 LP  0  0  0  0  0  0  0  0  0  0  0  0  # atno 17395 bound_to 11000

$$$$
