AV-unprocessed.smi:1535|AV-procd|sdf|6175|dock1
  -GOLD-   22720 6323D 1   1.00000     0.00000
 Structure written by MMmdl.
 47 48  0  0  0  0  0  0  0  0  2 V2000
  152.4532  143.7645  161.2490 C   0  0  0  0  0  0  0  0  0  0  0  0
  152.2267  142.9699  159.9740 C   0  0  0  0  0  0  0  0  0  0  0  0
  151.2420  143.4193  159.0654 C   0  0  0  0  0  0  0  0  0  0  0  0
  151.0561  142.6703  157.9095 C   0  0  0  0  0  0  0  0  0  0  0  0
  150.1785  142.8445  156.8373 N   0  3  0  0  0  0  0  0  0  0  0  0
  150.3634  141.8443  155.9317 C   0  0  0  0  0  0  0  0  0  0  0  0
  151.3463  141.0339  156.4107 N   0  0  0  0  0  0  0  0  0  0  0  0
  151.9283  139.8130  155.8367 C   0  0  0  0  0  0  0  0  0  0  0  0
  150.8748  138.8886  155.1940 C   0  0  1  0  0  0  0  0  0  0  0  0
  150.5602  139.3732  153.9027 O   0  0  0  0  0  0  0  0  0  0  0  0
  151.3958  137.4427  155.0606 C   0  0  0  0  0  0  0  0  0  0  0  0
  150.3948  136.3894  155.2647 N   0  0  0  0  0  0  0  0  0  0  0  0
  149.7175  136.5418  156.5495 C   0  0  0  0  0  0  0  0  0  0  0  0
  150.9822  135.0503  155.1748 C   0  0  0  0  0  0  0  0  0  0  0  0
  150.0025  133.8751  155.3685 C   0  0  2  0  0  0  0  0  0  0  0  0
  148.5994  134.1939  154.8324 C   0  0  0  0  0  0  0  0  0  0  0  0
  149.9330  133.4960  156.7887 C   0  0  0  0  0  0  0  0  0  0  0  0
  149.8783  133.1980  157.9052 N   0  0  0  0  0  0  0  0  0  0  0  0
  151.8104  141.5118  157.6409 C   0  0  0  0  0  0  0  0  0  0  0  0
  152.7871  141.0567  158.5231 C   0  0  0  0  0  0  0  0  0  0  0  0
  152.9901  141.8039  159.7056 C   0  0  0  0  0  0  0  0  0  0  0  0
  154.0466  141.3305  160.6893 C   0  0  0  0  0  0  0  0  0  0  0  0
  151.7660  144.6080  161.3211 H   0  0  0  0  0  0  0  0  0  0  0  0
  153.4691  144.1586  161.2784 H   0  0  0  0  0  0  0  0  0  0  0  0
  152.2992  143.1360  162.1262 H   0  0  0  0  0  0  0  0  0  0  0  0
  150.6580  144.3065  159.2620 H   0  0  0  0  0  0  0  0  0  0  0  0
  149.8244  141.7148  155.0044 H   0  0  0  0  0  0  0  0  0  0  0  0
  152.6671  140.1204  155.0950 H   0  0  0  0  0  0  0  0  0  0  0  0
  152.4760  139.2925  156.6233 H   0  0  0  0  0  0  0  0  0  0  0  0
  149.9708  138.9255  155.7990 H   0  0  0  0  0  0  0  0  0  0  0  0
  150.0013  138.7437  153.4736 H   0  0  0  0  0  0  0  0  0  0  0  0
  151.8454  137.3522  154.0734 H   0  0  0  0  0  0  0  0  0  0  0  0
  152.2145  137.2898  155.7654 H   0  0  0  0  0  0  0  0  0  0  0  0
  148.9868  135.7461  156.6977 H   0  0  0  0  0  0  0  0  0  0  0  0
  149.1718  137.4819  156.6094 H   0  0  0  0  0  0  0  0  0  0  0  0
  150.4270  136.5047  157.3772 H   0  0  0  0  0  0  0  0  0  0  0  0
  151.4893  134.9422  154.2146 H   0  0  0  0  0  0  0  0  0  0  0  0
  151.7612  134.9493  155.9321 H   0  0  0  0  0  0  0  0  0  0  0  0
  150.3745  132.9859  154.8625 H   0  0  0  0  0  0  0  0  0  0  0  0
  147.9217  133.3547  154.9913 H   0  0  0  0  0  0  0  0  0  0  0  0
  148.6205  134.3997  153.7619 H   0  0  0  0  0  0  0  0  0  0  0  0
  148.1741  135.0645  155.3324 H   0  0  0  0  0  0  0  0  0  0  0  0
  153.3662  140.1684  158.3186 H   0  0  0  0  0  0  0  0  0  0  0  0
  154.5448  140.4270  160.3364 H   0  0  0  0  0  0  0  0  0  0  0  0
  153.5963  141.1058  161.6563 H   0  0  0  0  0  0  0  0  0  0  0  0
  154.8088  142.0971  160.8310 H   0  0  0  0  0  0  0  0  0  0  0  0
  149.5004  143.5880  156.7301 H   0  0  0  0  0  0  0  0  0  0  0  0
  1  2  1  0  0  0  0
  1 23  1  0  0  0  0
  1 24  1  0  0  0  0
  1 25  1  0  0  0  0
  2 21  1  0  0  0  0
  2  3  2  0  0  0  0
  3  4  1  0  0  0  0
  3 26  1  0  0  0  0
  4 19  2  0  0  0  0
  4  5  1  0  0  0  0
  5  6  2  0  0  0  0
  5 47  1  0  0  0  0
  6  7  1  0  0  0  0
  6 27  1  0  0  0  0
  7  8  1  0  0  0  0
  7 19  1  0  0  0  0
  8  9  1  0  0  0  0
  8 28  1  0  0  0  0
  8 29  1  0  0  0  0
  9 10  1  0  0  0  0
  9 11  1  0  0  0  0
  9 30  1  0  0  0  0
 10 31  1  0  0  0  0
 11 12  1  0  0  0  0
 11 32  1  0  0  0  0
 11 33  1  0  0  0  0
 12 13  1  0  0  0  0
 12 14  1  0  0  0  0
 13 34  1  0  0  0  0
 13 35  1  0  0  0  0
 13 36  1  0  0  0  0
 14 15  1  0  0  0  0
 14 37  1  0  0  0  0
 14 38  1  0  0  0  0
 15 16  1  0  0  0  0
 15 17  1  0  0  0  0
 15 39  1  0  0  0  0
 16 40  1  0  0  0  0
 16 41  1  0  0  0  0
 16 42  1  0  0  0  0
 17 18  3  0  0  0  0
 19 20  1  0  0  0  0
 20 21  2  0  0  0  0
 20 43  1  0  0  0  0
 21 22  1  0  0  0  0
 22 44  1  0  0  0  0
 22 45  1  0  0  0  0
 22 46  1  0  0  0  0
M  CHG  1   5   1
M  END
> <s_m_source_file>
AV-unprocessed.smi

> <i_m_source_file_index>
1535

> <i_lp_mmshare_version>
43012

> <i_f3d_flags>
0

> <s_epik_input>
W0NIM11jKFtjSF0xKWMoW0NIM10pW2NIXWMoYzEyKW4oW2NIXW4yKVtDSDJdW0NASF0oW09IXSlbQ0gyXU4oW0NIM10pW0NIMl1bQ0BIXShbQ0gzXSlDI04=

> <s_epik_cmdline>
J2VwaWtfcHl0aG9uJywgJy1waCcsICc3LjAnLCAnLXRuJywgJzgnLCAnLW1hJywgJzIwMCcsICctbWV0YWxfYmluZGluZycsICctaW1hZScsICc8aW5maWxlLm1hZT4nLCAnLW9tYWUnLCAnPG91dGZpbGUubWFlPic=

> <r_epik_Ionization_Penalty>
1.22846

> <r_epik_Ionization_Penalty_Charging>
1.21333

> <r_epik_Ionization_Penalty_Neutral>
0.0151341

> <r_epik_State_Penalty>
1.27012

> <r_epik_Charging_Adjusted_Penalty>
2.48344

> <i_epik_Tot_Q>
1

> <i_epik_Tot_abs_Q>
1

> <r_epik_Metal_State_Penalty>
5.28751

> <b_epik_Metal_Only>
0

> <s_lp_Force_Field>
OPLS_2005

> <r_lp_Energy>
30.2724

> <b_lp_Chiralities_Consistent>
1

> <s_lp_Variant>
AV-unprocessed.smi:1535-6

> <Gold.Version>
5.8.1

> <Gold.Id.Protein>
6NUR|6NUR_protein|mol2

> <Gold.PLP.Fitness>
53.1961

> <Gold.PLP.PLP>
-43.0986

> <Gold.PLP.part.hbond>
-3.9505

> <Gold.PLP.part.metal>
0.0000

> <Gold.PLP.part.buried>
-4.5583

> <Gold.PLP.part.nonpolar>
-35.1148

> <Gold.PLP.part.repulsive>
0.1607

> <Gold.PLP.ligand.clash>
0.0000

> <Gold.PLP.ligand.torsion>
1.3119

> <Gold.PLP.Chemscore.Hbond>
4.0000

> <Gold.PLP.Chemscore.CHOScore>
0.0000

> <Gold.PLP.Chemscore.Metal>
0.0000

> <Gold.Chemscore.Hbonds>
donor molecule, donor type, donor heavy atom, donor atom, acceptor molecule, acceptor atom, score
      L1  H     5    47       P1  8028  1.79
      P1  H  6896  6908       L1    18  1.00
      P1  H  7989  7998       L1    10  1.00

> <Gold.PLP.Chemscore.Internal.Correction>
0.7213

> <Gold.Rescore>
     Score         DG    S(hbond)    S(metal)    S(lipo)     H(rot)  DE(clash)    DE(int)     intcor
     20.14     -21.90       2.88        0.00     114.76       2.59       0.35       1.42       ----

> <Gold.Chemscore.Fitness>
20.1393

> <Gold.Chemscore.DG>
-21.9039

> <Gold.Chemscore.ZeroCoef>
-5.4800

> <Gold.Chemscore.Hbond>
2.8839

> <Gold.Chemscore.Metal>
0.0000

> <Gold.Chemscore.Lipo>
114.7591

> <Gold.Chemscore.Internal_Hbond>
0.0000

> <Gold.Chemscore.DEClash>
0.3463

> <Gold.Chemscore.DEInternal>
1.4182

> <Gold.Chemscore.Rot>
2.5918

> <Gold.Chemscore.Internal.Correction>
   9.000000E+99

> <Gold.Chemscore.Hbonds>
donor molecule, donor type, donor heavy atom, donor atom, acceptor molecule, acceptor atom, score
      L1  H     5    47       P1  8028  0.87
      P1  H  6896  6908       L1    18  1.00
      P1  H  7989  7998       L1    10  0.76

> <Gold.Chemscore.Hbond.Weighted>
-9.6322

> <Gold.Chemscore.Metal.Weighted>
-0.0000

> <Gold.Chemscore.Lipo.Weighted>
-13.4268

> <Gold.Chemscore.Internal_Hbond.Weighted>
0.0000

> <Gold.Chemscore.DEClash.Weighted>
0.3463

> <Gold.Chemscore.DEInternal.Weighted>
1.4182

> <Gold.Chemscore.Rot.Weighted>
6.6351

> <Gold.Chemscore.Internal.Correction.Weighted>
   9.000000E+99

> <Gold.Protein.RotatedTorsions>
[ 6907 6896 6895 6894 ] final  103.88 input  -60.11 | X-H torsion
[ 7974 7965 7964 7962 ] final -148.95 input  175.53 | X-H torsion
[ 8008 7997 7996 7995 ] final -169.21 input   59.86 | X-H torsion
[ 10167 10162 10161 10158 ] final  -73.19 input  -65.29 | X-H torsion
[ 10718 10713 10712 10709 ] final  104.15 input   66.30 | X-H torsion
[ 10763 10752 10751 10750 ] final  -17.63 input  -60.55 | X-H torsion
[ 11005 11000 10999 10996 ] final   76.12 input  -57.11 | X-H torsion

> <Gold.Protein.ActiveResidues>
 VAL166  LYS551  ARG553  GLY616  TRP617  ASP618  TYR619  PRO620  LYS621  CYS622 
 ASP623  PHE694  ASN695  SER759  ASP760  ASP761  ALA762  ILE779  LEU786  VAL792 
 PHE793  MET794  SER795  GLU796  ALA797  LYS798  CYS799  TRP800  GLU811  SER814 

> <Gold.Protein.RotatedAtoms>
  152.5282  133.9760  159.7783 H   0  0  0  0  0  0  0  0  0  0  0  0  # atno 6907 bound_to 6896
  151.0023  133.6036  159.2700 H   0  0  0  0  0  0  0  0  0  0  0  0  # atno 6908 bound_to 6896
  151.3141  135.0808  159.9336 H   0  0  0  0  0  0  0  0  0  0  0  0  # atno 6909 bound_to 6896
  144.7997  140.5129  143.5715 H   0  0  0  0  0  0  0  0  0  0  0  0  # atno 7974 bound_to 7965
  155.9018  140.1042  157.1344 H   0  0  0  0  0  0  0  0  0  0  0  0  # atno 8008 bound_to 7997
  154.4027  140.1291  156.4510 H   0  0  0  0  0  0  0  0  0  0  0  0  # atno 8009 bound_to 7997
  155.7413  140.3467  155.5108 H   0  0  0  0  0  0  0  0  0  0  0  0  # atno 8010 bound_to 7997
  140.5131  143.2342  151.7560 H   0  0  0  0  0  0  0  0  0  0  0  0  # atno 10167 bound_to 10162
  157.6749  131.0797  150.5663 H   0  0  0  0  0  0  0  0  0  0  0  0  # atno 10718 bound_to 10713
  153.5769  135.7006  153.5480 H   0  0  0  0  0  0  0  0  0  0  0  0  # atno 10763 bound_to 10752
  153.3295  135.4051  155.1484 H   0  0  0  0  0  0  0  0  0  0  0  0  # atno 10764 bound_to 10752
  154.8624  135.3715  154.5294 H   0  0  0  0  0  0  0  0  0  0  0  0  # atno 10765 bound_to 10752
  139.9312  134.7574  156.1356 H   0  0  0  0  0  0  0  0  0  0  0  0  # atno 11005 bound_to 11000
  145.5583  139.1478  143.3355 LP  0  0  0  0  0  0  0  0  0  0  0  0  # atno 17320 bound_to 7965
  146.2275  140.5720  142.8990 LP  0  0  0  0  0  0  0  0  0  0  0  0  # atno 17321 bound_to 7965
  139.4901  144.4363  151.9816 LP  0  0  0  0  0  0  0  0  0  0  0  0  # atno 17342 bound_to 10162
  140.3456  144.3151  150.5959 LP  0  0  0  0  0  0  0  0  0  0  0  0  # atno 17343 bound_to 10162
  156.5965  130.4343  149.5915 LP  0  0  0  0  0  0  0  0  0  0  0  0  # atno 17370 bound_to 10713
  156.2541  130.6924  151.1671 LP  0  0  0  0  0  0  0  0  0  0  0  0  # atno 17371 bound_to 10713
  141.0902  133.6717  156.2524 LP  0  0  0  0  0  0  0  0  0  0  0  0  # atno 17394 bound_to 11000
  140.6196  134.5375  157.5545 LP  0  0  0  0  0  0  0  0  0  0  0  0  # atno 17395 bound_to 11000

$$$$
