AV-unprocessed.smi:1785|AV-procd|sdf|7200|dock6
  -GOLD-   22720 8443D 1   1.00000     0.00000
 Structure written by MMmdl.
 28 29  0  0  0  0  0  0  0  0  1 V2000
  154.1360  139.7042  160.1305 C   0  0  0  0  0  0  0  0  0  0  0  0
  153.4574  141.0361  160.4078 C   0  0  0  0  0  0  0  0  0  0  0  0
  153.7025  141.6941  161.6317 C   0  0  0  0  0  0  0  0  0  0  0  0
  153.0744  142.9252  161.8864 C   0  0  0  0  0  0  0  0  0  0  0  0
  152.2226  143.4496  160.8993 C   0  0  0  0  0  0  0  0  0  0  0  0
  151.9830  142.8281  159.7267 N   0  0  0  0  0  0  0  0  0  0  0  0
  152.5810  141.6384  159.4653 C   0  0  0  0  0  0  0  0  0  0  0  0
  152.3756  140.9244  158.2514 N   0  0  0  0  0  0  0  0  0  0  0  0
  151.5445  141.2105  157.2299 C   0  0  0  0  0  0  0  0  0  0  0  0
  150.7993  142.1916  157.2013 O   0  0  0  0  0  0  0  0  0  0  0  0
  151.6426  140.2115  156.1725 C   0  0  0  0  0  0  0  0  0  0  0  0
  150.6419  140.0973  155.2687 C   0  0  0  0  0  0  0  0  0  0  0  0
  150.6249  139.1620  154.2643 O   0  0  0  0  0  0  0  0  0  0  0  0
  151.6108  138.1437  154.3857 C   0  0  0  0  0  0  0  0  0  0  0  0
  152.9459  138.7447  154.8489 C   0  0  0  0  0  0  0  0  0  0  0  0
  152.7747  139.4303  156.0848 O   0  0  0  0  0  0  0  0  0  0  0  0
  154.7583  139.3929  160.9701 H   0  0  0  0  0  0  0  0  0  0  0  0
  154.7739  139.7777  159.2493 H   0  0  0  0  0  0  0  0  0  0  0  0
  153.3932  138.9248  159.9578 H   0  0  0  0  0  0  0  0  0  0  0  0
  154.3636  141.2629  162.3692 H   0  0  0  0  0  0  0  0  0  0  0  0
  153.2408  143.4530  162.8138 H   0  0  0  0  0  0  0  0  0  0  0  0
  151.7199  144.3928  161.0545 H   0  0  0  0  0  0  0  0  0  0  0  0
  152.9296  140.0875  158.1430 H   0  0  0  0  0  0  0  0  0  0  0  0
  149.7415  140.6951  155.2675 H   0  0  0  0  0  0  0  0  0  0  0  0
  151.2649  137.3923  155.0969 H   0  0  0  0  0  0  0  0  0  0  0  0
  151.7294  137.6450  153.4236 H   0  0  0  0  0  0  0  0  0  0  0  0
  153.6935  137.9616  154.9759 H   0  0  0  0  0  0  0  0  0  0  0  0
  153.3320  139.4399  154.1021 H   0  0  0  0  0  0  0  0  0  0  0  0
  1  2  1  0  0  0  0
  1 17  1  0  0  0  0
  1 18  1  0  0  0  0
  1 19  1  0  0  0  0
  2  7  1  0  0  0  0
  2  3  2  0  0  0  0
  3  4  1  0  0  0  0
  3 20  1  0  0  0  0
  4  5  2  0  0  0  0
  4 21  1  0  0  0  0
  5  6  1  0  0  0  0
  5 22  1  0  0  0  0
  6  7  2  0  0  0  0
  7  8  1  0  0  0  0
  8  9  1  0  0  0  0
  8 23  1  0  0  0  0
  9 10  2  0  0  0  0
  9 11  1  0  0  0  0
 11 16  1  0  0  0  0
 11 12  2  0  0  0  0
 12 13  1  0  0  0  0
 12 24  1  0  0  0  0
 13 14  1  0  0  0  0
 14 15  1  0  0  0  0
 14 25  1  0  0  0  0
 14 26  1  0  0  0  0
 15 16  1  0  0  0  0
 15 27  1  0  0  0  0
 15 28  1  0  0  0  0
M  END
> <s_m_source_file>
AV-unprocessed.smi

> <i_m_source_file_index>
1785

> <i_lp_mmshare_version>
43012

> <i_f3d_flags>
0

> <s_epik_input>
W0NIM11jMVtjSF1bY0hdW2NIXW5jMVtOSF1DKD1PKUMyPVtDSF1PW0NIMl1bQ0gyXU8y

> <s_epik_cmdline>
J2VwaWtfcHl0aG9uJywgJy1waCcsICc3LjAnLCAnLXRuJywgJzgnLCAnLW1hJywgJzIwMCcsICctbWV0YWxfYmluZGluZycsICctaW1hZScsICc8aW5maWxlLm1hZT4nLCAnLW9tYWUnLCAnPG91dGZpbGUubWFlPic=

> <r_lp_tautomer_probability>
1

> <r_epik_Ionization_Penalty>
8.87723e-05

> <r_epik_Ionization_Penalty_Charging>
0

> <r_epik_Ionization_Penalty_Neutral>
8.87723e-05

> <r_epik_State_Penalty>
-0

> <r_epik_Charging_Adjusted_Penalty>
0

> <i_epik_Tot_Q>
0

> <i_epik_Tot_abs_Q>
0

> <r_epik_Metal_State_Penalty>
0.0224094

> <b_epik_Metal_Only>
0

> <s_lp_Force_Field>
OPLS_2005

> <r_lp_Energy>
4.55211

> <b_lp_Chiralities_Consistent>
1

> <s_lp_Variant>
AV-unprocessed.smi:1785-1

> <Gold.Version>
5.8.1

> <Gold.Id.Protein>
6NUR|6NUR_protein|mol2

> <Gold.PLP.Fitness>
39.2269

> <Gold.PLP.PLP>
-36.6000

> <Gold.PLP.part.hbond>
-1.6302

> <Gold.PLP.part.metal>
0.0000

> <Gold.PLP.part.buried>
-5.6350

> <Gold.PLP.part.nonpolar>
-29.4825

> <Gold.PLP.part.repulsive>
0.3507

> <Gold.PLP.ligand.clash>
0.0000

> <Gold.PLP.ligand.torsion>
0.1872

> <Gold.PLP.Chemscore.Hbond>
1.0000

> <Gold.PLP.Chemscore.CHOScore>
0.0000

> <Gold.PLP.Chemscore.Metal>
0.0000

> <Gold.Chemscore.Hbonds>
donor molecule, donor type, donor heavy atom, donor atom, acceptor molecule, acceptor atom, score
      P1  H  7997  8008       L1    16  1.00

> <Gold.PLP.Chemscore.Internal.Correction>
0.0012

> <Gold.Rescore>
     Score         DG    S(hbond)    S(metal)    S(lipo)     H(rot)  DE(clash)    DE(int)     intcor
     16.63     -18.16       0.88        0.00      83.32       0.00       0.01       1.53       ----

> <Gold.Chemscore.Fitness>
16.6288

> <Gold.Chemscore.DG>
-18.1649

> <Gold.Chemscore.ZeroCoef>
-5.4800

> <Gold.Chemscore.Hbond>
0.8791

> <Gold.Chemscore.Metal>
0.0000

> <Gold.Chemscore.Lipo>
83.3235

> <Gold.Chemscore.Internal_Hbond>
0.0000

> <Gold.Chemscore.DEClash>
0.0069

> <Gold.Chemscore.DEInternal>
1.5292

> <Gold.Chemscore.Rot>
0.0000

> <Gold.Chemscore.Internal.Correction>
   9.000000E+99

> <Gold.Chemscore.Hbonds>
donor molecule, donor type, donor heavy atom, donor atom, acceptor molecule, acceptor atom, score
      P1  H  7997  8008       L1    16  0.25

> <Gold.Chemscore.Hbond.Weighted>
-2.9360

> <Gold.Chemscore.Metal.Weighted>
-0.0000

> <Gold.Chemscore.Lipo.Weighted>
-9.7488

> <Gold.Chemscore.Internal_Hbond.Weighted>
0.0000

> <Gold.Chemscore.DEClash.Weighted>
0.0069

> <Gold.Chemscore.DEInternal.Weighted>
1.5292

> <Gold.Chemscore.Rot.Weighted>
0.0000

> <Gold.Chemscore.Internal.Correction.Weighted>
   9.000000E+99

> <Gold.Protein.RotatedTorsions>
[ 6907 6896 6895 6894 ] final  -37.24 input  -60.11 | X-H torsion
[ 7974 7965 7964 7962 ] final  -54.56 input  175.53 | X-H torsion
[ 8008 7997 7996 7995 ] final  -37.73 input   59.86 | X-H torsion
[ 10167 10162 10161 10158 ] final  101.16 input  -65.29 | X-H torsion
[ 10718 10713 10712 10709 ] final  -35.59 input   66.30 | X-H torsion
[ 10763 10752 10751 10750 ] final  118.69 input  -60.55 | X-H torsion
[ 11005 11000 10999 10996 ] final   41.51 input  -57.11 | X-H torsion

> <Gold.Protein.ActiveResidues>
 VAL166  LYS551  ARG553  GLY616  TRP617  ASP618  TYR619  PRO620  LYS621  CYS622 
 ASP623  PHE694  ASN695  SER759  ASP760  ASP761  ALA762  ILE779  LEU786  VAL792 
 PHE793  MET794  SER795  GLU796  ALA797  LYS798  CYS799  TRP800  GLU811  SER814 

> <Gold.Protein.RotatedAtoms>
  151.0172  134.9441  159.8039 H   0  0  0  0  0  0  0  0  0  0  0  0  # atno 6907 bound_to 6896
  152.5316  134.2951  159.9067 H   0  0  0  0  0  0  0  0  0  0  0  0  # atno 6908 bound_to 6896
  151.2958  133.4103  159.2670 H   0  0  0  0  0  0  0  0  0  0  0  0  # atno 6909 bound_to 6896
  145.8842  140.8121  142.9824 H   0  0  0  0  0  0  0  0  0  0  0  0  # atno 7974 bound_to 7965
  154.4048  140.1596  156.2584 H   0  0  0  0  0  0  0  0  0  0  0  0  # atno 8008 bound_to 7997
  155.9058  140.3430  155.6038 H   0  0  0  0  0  0  0  0  0  0  0  0  # atno 8009 bound_to 7997
  155.7394  140.0790  157.2243 H   0  0  0  0  0  0  0  0  0  0  0  0  # atno 8010 bound_to 7997
  139.7463  144.6997  151.0500 H   0  0  0  0  0  0  0  0  0  0  0  0  # atno 10167 bound_to 10162
  156.3369  130.4287  149.7822 H   0  0  0  0  0  0  0  0  0  0  0  0  # atno 10718 bound_to 10713
  153.5715  135.3501  155.2839 H   0  0  0  0  0  0  0  0  0  0  0  0  # atno 10763 bound_to 10752
  154.8681  135.4160  154.2720 H   0  0  0  0  0  0  0  0  0  0  0  0  # atno 10764 bound_to 10752
  153.3487  135.7054  153.6876 H   0  0  0  0  0  0  0  0  0  0  0  0  # atno 10765 bound_to 10752
  140.1827  134.4084  155.8191 H   0  0  0  0  0  0  0  0  0  0  0  0  # atno 11005 bound_to 11000
  144.6728  140.1430  143.7435 LP  0  0  0  0  0  0  0  0  0  0  0  0  # atno 17320 bound_to 7965
  145.8987  139.2418  143.1506 LP  0  0  0  0  0  0  0  0  0  0  0  0  # atno 17321 bound_to 7965
  140.7792  143.4863  150.9951 LP  0  0  0  0  0  0  0  0  0  0  0  0  # atno 17342 bound_to 10162
  139.8551  143.7387  152.3176 LP  0  0  0  0  0  0  0  0  0  0  0  0  # atno 17343 bound_to 10162
  156.5074  130.8156  151.3156 LP  0  0  0  0  0  0  0  0  0  0  0  0  # atno 17370 bound_to 10713
  157.7440  130.9925  150.2638 LP  0  0  0  0  0  0  0  0  0  0  0  0  # atno 17371 bound_to 10713
  141.2223  133.7008  156.7959 LP  0  0  0  0  0  0  0  0  0  0  0  0  # atno 17394 bound_to 11000
  140.2249  134.8729  157.3416 LP  0  0  0  0  0  0  0  0  0  0  0  0  # atno 17395 bound_to 11000

$$$$
