AV-unprocessed.smi:62|AV-procd|sdf|604|dock3
  -GOLD-   2262016493D 1   1.00000     0.00000
 Structure written by MMmdl.
 31 32  0  0  0  0  0  0  0  0  3 V2000
  148.2088  131.6726  153.9067 C   0  0  0  0  0  0  0  0  0  0  0  0
  149.0135  132.6976  154.5359 N   0  0  0  0  0  0  0  0  0  0  0  0
  149.0366  134.0494  154.2848 C   0  0  0  0  0  0  0  0  0  0  0  0
  149.9529  134.6239  155.1231 C   0  0  0  0  0  0  0  0  0  0  0  0
  150.2693  136.1022  155.1765 C   0  0  0  0  0  0  0  0  0  0  0  0
  149.2310  136.8952  154.4769 N   0  3  2  0  0  0  0  0  0  0  0  0
  149.5288  138.3421  154.3592 C   0  0  0  0  0  0  0  0  0  0  0  0
  148.1974  139.0861  154.5423 C   0  0  0  0  0  0  0  0  0  0  0  0
  147.1319  137.9944  154.4551 C   0  0  2  0  0  0  0  0  0  0  0  0
  145.9774  138.3210  155.1994 O   0  0  0  0  0  0  0  0  0  0  0  0
  147.8586  136.7730  155.0091 C   0  0  0  0  0  0  0  0  0  0  0  0
  150.4608  133.4986  155.8618 C   0  0  0  0  0  0  0  0  0  0  0  0
  151.5225  133.6207  156.9227 C   0  0  0  0  0  0  0  0  0  0  0  0
  151.7742  132.6555  157.6753 O   0  0  0  0  0  0  0  0  0  0  0  0
  152.1294  134.7098  157.0173 O   0  5  0  0  0  0  0  0  0  0  0  0
  149.8835  132.3592  155.5036 N   0  0  0  0  0  0  0  0  0  0  0  0
  147.3971  132.1301  153.3402 H   0  0  0  0  0  0  0  0  0  0  0  0
  147.7834  131.0141  154.6648 H   0  0  0  0  0  0  0  0  0  0  0  0
  148.8286  131.0850  153.2289 H   0  0  0  0  0  0  0  0  0  0  0  0
  148.3980  134.4936  153.5355 H   0  0  0  0  0  0  0  0  0  0  0  0
  150.4221  136.4834  156.1845 H   0  0  0  0  0  0  0  0  0  0  0  0
  151.2165  136.2829  154.6667 H   0  0  0  0  0  0  0  0  0  0  0  0
  150.2483  138.6679  155.1122 H   0  0  0  0  0  0  0  0  0  0  0  0
  149.9629  138.5368  153.3783 H   0  0  0  0  0  0  0  0  0  0  0  0
  148.1812  139.5498  155.5303 H   0  0  0  0  0  0  0  0  0  0  0  0
  148.0489  139.8755  153.8049 H   0  0  0  0  0  0  0  0  0  0  0  0
  146.8597  137.8227  153.4127 H   0  0  0  0  0  0  0  0  0  0  0  0
  146.0838  137.9992  156.0820 H   0  0  0  0  0  0  0  0  0  0  0  0
  147.3881  135.8316  154.7227 H   0  0  0  0  0  0  0  0  0  0  0  0
  147.8842  136.8282  156.0980 H   0  0  0  0  0  0  0  0  0  0  0  0
  149.1904  136.5495  153.5290 H   0  0  0  0  0  0  0  0  0  0  0  0
  1  2  1  0  0  0  0
  1 17  1  0  0  0  0
  1 18  1  0  0  0  0
  1 19  1  0  0  0  0
  2 16  1  0  0  0  0
  2  3  1  0  0  0  0
  3  4  2  0  0  0  0
  3 20  1  0  0  0  0
  4  5  1  0  0  0  0
  4 12  1  0  0  0  0
  5  6  1  0  0  0  0
  5 21  1  0  0  0  0
  5 22  1  0  0  0  0
  6 11  1  0  0  0  0
  6  7  1  0  0  0  0
  6 31  1  0  0  0  0
  7  8  1  0  0  0  0
  7 23  1  0  0  0  0
  7 24  1  0  0  0  0
  8  9  1  0  0  0  0
  8 25  1  0  0  0  0
  8 26  1  0  0  0  0
  9 10  1  0  0  0  0
  9 11  1  0  0  0  0
  9 27  1  0  0  0  0
 10 28  1  0  0  0  0
 11 29  1  0  0  0  0
 11 30  1  0  0  0  0
 12 13  1  0  0  0  0
 12 16  2  0  0  0  0
 13 14  2  0  0  0  0
 13 15  1  0  0  0  0
M  CHG  1   6   1
M  CHG  1  15  -1
M  END
> <s_m_source_file>
AV-unprocessed.smi

> <i_m_source_file_index>
62

> <i_lp_mmshare_version>
43012

> <i_f3d_flags>
0

> <s_epik_input>
W0NIM11uMVtjSF1jKGMobjEpQyg9TylbT0hdKVtDSDJdTjJbQ0gyXVtDSDJdW0NAQEhdKFtPSF0pW0NIMl0y

> <s_epik_cmdline>
J2VwaWtfcHl0aG9uJywgJy1waCcsICc3LjAnLCAnLXRuJywgJzgnLCAnLW1hJywgJzIwMCcsICctbWV0YWxfYmluZGluZycsICctaW1hZScsICc8aW5maWxlLm1hZT4nLCAnLW9tYWUnLCAnPG91dGZpbGUubWFlPic=

> <r_epik_Ionization_Penalty>
0.0522993

> <r_epik_Ionization_Penalty_Charging>
0.0522915

> <r_epik_Ionization_Penalty_Neutral>
7.84975e-06

> <r_epik_State_Penalty>
0.0448084

> <r_epik_Charging_Adjusted_Penalty>
0.0970998

> <i_epik_Tot_Q>
0

> <i_epik_Tot_abs_Q>
2

> <r_epik_Metal_State_Penalty>
0.0448097

> <b_epik_Metal_Only>
0

> <s_lp_Force_Field>
OPLS_2005

> <r_lp_Energy>
19.3538

> <b_lp_Chiralities_Consistent>
1

> <s_lp_Variant>
AV-unprocessed.smi:62-4

> <Gold.Version>
5.8.1

> <Gold.Id.Protein>
6NUR|6NUR_protein|mol2

> <Gold.PLP.Fitness>
40.8971

> <Gold.PLP.PLP>
-20.5664

> <Gold.PLP.part.hbond>
-3.4967

> <Gold.PLP.part.metal>
0.0000

> <Gold.PLP.part.buried>
-1.3859

> <Gold.PLP.part.nonpolar>
-15.6234

> <Gold.PLP.part.repulsive>
0.0063

> <Gold.PLP.ligand.clash>
0.0000

> <Gold.PLP.ligand.torsion>
0.2555

> <Gold.PLP.Chemscore.Hbond>
5.9520

> <Gold.PLP.Chemscore.CHOScore>
0.9911

> <Gold.PLP.Chemscore.Metal>
0.0000

> <Gold.Chemscore.Hbonds>
donor molecule, donor type, donor heavy atom, donor atom, acceptor molecule, acceptor atom, score
      L1  H     6    31       P1  7948  2.00
      P1  H  6896  6908       L1    14  1.98
      P1  H 10752 10763       L1    15  0.90
      L1  C     3    20       P1  7948  0.96

> <Gold.PLP.Chemscore.Internal.Correction>
0.0126

> <Gold.Rescore>
     Score         DG    S(hbond)    S(metal)    S(lipo)     H(rot)  DE(clash)    DE(int)     intcor
     13.45     -14.98       2.76        0.00      41.88       1.81       0.12       1.41       ----

> <Gold.Chemscore.Fitness>
13.4543

> <Gold.Chemscore.DG>
-14.9837

> <Gold.Chemscore.ZeroCoef>
-5.4800

> <Gold.Chemscore.Hbond>
2.7649

> <Gold.Chemscore.Metal>
0.0000

> <Gold.Chemscore.Lipo>
41.8819

> <Gold.Chemscore.Internal_Hbond>
0.0000

> <Gold.Chemscore.DEClash>
0.1199

> <Gold.Chemscore.DEInternal>
1.4095

> <Gold.Chemscore.Rot>
1.8091

> <Gold.Chemscore.Internal.Correction>
   9.000000E+99

> <Gold.Chemscore.Hbonds>
donor molecule, donor type, donor heavy atom, donor atom, acceptor molecule, acceptor atom, score
      L1  H     6    31       P1  7948  0.97
      P1  H  6896  6908       L1    14  0.47
      P1  H 10752 10763       L1    15  0.41

> <Gold.Chemscore.Hbond.Weighted>
-9.2349

> <Gold.Chemscore.Metal.Weighted>
-0.0000

> <Gold.Chemscore.Lipo.Weighted>
-4.9002

> <Gold.Chemscore.Internal_Hbond.Weighted>
0.0000

> <Gold.Chemscore.DEClash.Weighted>
0.1199

> <Gold.Chemscore.DEInternal.Weighted>
1.4095

> <Gold.Chemscore.Rot.Weighted>
4.6314

> <Gold.Chemscore.Internal.Correction.Weighted>
   9.000000E+99

> <Gold.Protein.RotatedTorsions>
[ 6907 6896 6895 6894 ] final   54.36 input  -60.11 | X-H torsion
[ 7974 7965 7964 7962 ] final  -81.40 input  175.53 | X-H torsion
[ 8008 7997 7996 7995 ] final  174.21 input   59.86 | X-H torsion
[ 10167 10162 10161 10158 ] final  140.56 input  -65.29 | X-H torsion
[ 10718 10713 10712 10709 ] final -159.90 input   66.30 | X-H torsion
[ 10763 10752 10751 10750 ] final  109.06 input  -60.55 | X-H torsion
[ 11005 11000 10999 10996 ] final -158.39 input  -57.11 | X-H torsion

> <Gold.Protein.ActiveResidues>
 VAL166  LYS551  ARG553  GLY616  TRP617  ASP618  TYR619  PRO620  LYS621  CYS622 
 ASP623  PHE694  ASN695  SER759  ASP760  ASP761  ALA762  ILE779  LEU786  VAL792 
 PHE793  MET794  SER795  GLU796  ALA797  LYS798  CYS799  TRP800  GLU811  SER814 

> <Gold.Protein.RotatedAtoms>
  152.3431  134.7107  160.0257 H   0  0  0  0  0  0  0  0  0  0  0  0  # atno 6907 bound_to 6896
  151.7486  133.3320  159.3393 H   0  0  0  0  0  0  0  0  0  0  0  0  # atno 6908 bound_to 6896
  150.7492  134.6146  159.6148 H   0  0  0  0  0  0  0  0  0  0  0  0  # atno 6909 bound_to 6896
  145.5472  140.9502  143.1519 H   0  0  0  0  0  0  0  0  0  0  0  0  # atno 7974 bound_to 7965
  156.0998  140.1440  156.9483 H   0  0  0  0  0  0  0  0  0  0  0  0  # atno 8008 bound_to 7997
  154.4695  140.0915  156.7152 H   0  0  0  0  0  0  0  0  0  0  0  0  # atno 8009 bound_to 7997
  155.4780  140.3444  155.4337 H   0  0  0  0  0  0  0  0  0  0  0  0  # atno 8010 bound_to 7997
  139.5045  144.6227  151.6013 H   0  0  0  0  0  0  0  0  0  0  0  0  # atno 10167 bound_to 10162
  156.5745  130.8703  151.2847 H   0  0  0  0  0  0  0  0  0  0  0  0  # atno 10718 bound_to 10713
  153.4295  135.3792  155.2161 H   0  0  0  0  0  0  0  0  0  0  0  0  # atno 10763 bound_to 10752
  154.8749  135.3836  154.4286 H   0  0  0  0  0  0  0  0  0  0  0  0  # atno 10764 bound_to 10752
  153.4816  135.7088  153.5997 H   0  0  0  0  0  0  0  0  0  0  0  0  # atno 10765 bound_to 10752
  140.6542  134.4419  157.5235 H   0  0  0  0  0  0  0  0  0  0  0  0  # atno 11005 bound_to 11000
  144.7547  139.7104  143.7259 LP  0  0  0  0  0  0  0  0  0  0  0  0  # atno 17320 bound_to 7965
  146.1941  139.5198  142.9786 LP  0  0  0  0  0  0  0  0  0  0  0  0  # atno 17321 bound_to 7965
  140.5934  143.9740  150.6339 LP  0  0  0  0  0  0  0  0  0  0  0  0  # atno 17342 bound_to 10162
  140.2928  143.3313  152.1046 LP  0  0  0  0  0  0  0  0  0  0  0  0  # atno 17343 bound_to 10162
  157.7340  130.9740  150.2009 LP  0  0  0  0  0  0  0  0  0  0  0  0  # atno 17370 bound_to 10713
  156.2685  130.3719  149.8056 LP  0  0  0  0  0  0  0  0  0  0  0  0  # atno 17371 bound_to 10713
  139.9035  134.8501  156.1798 LP  0  0  0  0  0  0  0  0  0  0  0  0  # atno 17394 bound_to 11000
  141.0514  133.6887  156.1779 LP  0  0  0  0  0  0  0  0  0  0  0  0  # atno 17395 bound_to 11000

$$$$
