AV-unprocessed.smi:1206|AV-procd|sdf|5048|dock5
  -GOLD-   22720 4 73D 1   1.00000     0.00000
 Structure written by MMmdl.
 40 41  0  0  0  0  0  0  0  0  3 V2000
  148.7041  141.3940  155.3120 C   0  0  0  0  0  0  0  0  0  0  0  0
  149.2753  140.7367  156.5164 N   0  3  0  0  0  0  0  0  0  0  0  0
  149.6918  141.7595  157.5088 C   0  0  0  0  0  0  0  0  0  0  0  0
  150.2511  139.6154  156.2404 C   0  0  0  0  0  0  0  0  0  0  0  0
  150.5974  138.9345  157.6034 C   0  0  0  0  0  0  0  0  0  0  0  0
  149.5150  138.0858  158.1035 N   0  0  0  0  0  0  0  0  0  0  0  0
  149.5747  137.2400  159.1420 C   0  0  0  0  0  0  0  0  0  0  0  0
  150.6053  137.1576  159.8130 O   0  0  0  0  0  0  0  0  0  0  0  0
  148.4425  136.5267  159.3250 N   0  5  0  0  0  0  0  0  0  0  0  0
  147.9525  136.3555  160.5641 C   0  0  0  0  0  0  0  0  0  0  0  0
  147.8145  137.3746  161.4273 N   0  0  0  0  0  0  0  0  0  0  0  0
  147.2889  136.9850  162.6519 N   0  0  0  0  0  0  0  0  0  0  0  0
  147.0527  135.6736  162.6842 C   0  0  0  0  0  0  0  0  0  0  0  0
  147.4501  134.7959  161.2221 S   0  0  0  0  0  0  0  0  0  0  0  0
  149.6358  138.5716  155.2599 C   0  0  0  0  0  0  0  0  0  0  0  0
  150.6196  137.4705  154.8180 C   0  0  0  0  0  0  0  0  0  0  0  0
  151.9002  138.0582  154.2112 C   0  0  0  0  0  0  0  0  0  0  0  0
  152.5620  139.0561  155.1702 C   0  0  0  0  0  0  0  0  0  0  0  0
  151.5682  140.1555  155.5878 C   0  0  0  0  0  0  0  0  0  0  0  0
  149.4270  142.0637  154.8450 H   0  0  0  0  0  0  0  0  0  0  0  0
  147.8342  141.9901  155.5891 H   0  0  0  0  0  0  0  0  0  0  0  0
  148.3696  140.6791  154.5625 H   0  0  0  0  0  0  0  0  0  0  0  0
  150.6336  142.2296  157.2243 H   0  0  0  0  0  0  0  0  0  0  0  0
  149.7927  141.3342  158.5072 H   0  0  0  0  0  0  0  0  0  0  0  0
  148.9391  142.5443  157.5912 H   0  0  0  0  0  0  0  0  0  0  0  0
  151.5255  138.3669  157.5367 H   0  0  0  0  0  0  0  0  0  0  0  0
  150.7964  139.6714  158.3781 H   0  0  0  0  0  0  0  0  0  0  0  0
  148.6424  138.1228  157.5965 H   0  0  0  0  0  0  0  0  0  0  0  0
  146.6449  135.2199  163.5752 H   0  0  0  0  0  0  0  0  0  0  0  0
  148.7691  138.0840  155.7065 H   0  0  0  0  0  0  0  0  0  0  0  0
  149.2701  139.0818  154.3679 H   0  0  0  0  0  0  0  0  0  0  0  0
  150.8727  136.8301  155.6631 H   0  0  0  0  0  0  0  0  0  0  0  0
  150.1351  136.8215  154.0878 H   0  0  0  0  0  0  0  0  0  0  0  0
  152.5983  137.2580  153.9642 H   0  0  0  0  0  0  0  0  0  0  0  0
  151.6595  138.5592  153.2728 H   0  0  0  0  0  0  0  0  0  0  0  0
  152.9596  138.5370  156.0417 H   0  0  0  0  0  0  0  0  0  0  0  0
  153.4233  139.5116  154.6806 H   0  0  0  0  0  0  0  0  0  0  0  0
  151.3447  140.7016  154.6717 H   0  0  0  0  0  0  0  0  0  0  0  0
  152.0655  140.8671  156.2475 H   0  0  0  0  0  0  0  0  0  0  0  0
  148.4900  140.2721  156.9520 H   0  0  0  0  0  0  0  0  0  0  0  0
  1  2  1  0  0  0  0
  1 20  1  0  0  0  0
  1 21  1  0  0  0  0
  1 22  1  0  0  0  0
  2  3  1  0  0  0  0
  2  4  1  0  0  0  0
  2 40  1  0  0  0  0
  3 23  1  0  0  0  0
  3 24  1  0  0  0  0
  3 25  1  0  0  0  0
  4 19  1  0  0  0  0
  4  5  1  0  0  0  0
  4 15  1  0  0  0  0
  5  6  1  0  0  0  0
  5 26  1  0  0  0  0
  5 27  1  0  0  0  0
  6  7  1  0  0  0  0
  6 28  1  0  0  0  0
  7  8  2  0  0  0  0
  7  9  1  0  0  0  0
  9 10  1  0  0  0  0
 10 14  1  0  0  0  0
 10 11  2  0  0  0  0
 11 12  1  0  0  0  0
 12 13  2  0  0  0  0
 13 14  1  0  0  0  0
 13 29  1  0  0  0  0
 15 16  1  0  0  0  0
 15 30  1  0  0  0  0
 15 31  1  0  0  0  0
 16 17  1  0  0  0  0
 16 32  1  0  0  0  0
 16 33  1  0  0  0  0
 17 18  1  0  0  0  0
 17 34  1  0  0  0  0
 17 35  1  0  0  0  0
 18 19  1  0  0  0  0
 18 36  1  0  0  0  0
 18 37  1  0  0  0  0
 19 38  1  0  0  0  0
 19 39  1  0  0  0  0
M  CHG  1   2   1
M  CHG  1   9  -1
M  END
> <s_m_source_file>
AV-unprocessed.smi

> <i_m_source_file_index>
1206

> <i_lp_mmshare_version>
43012

> <i_f3d_flags>
0

> <s_epik_input>
W0NIMl0xW0NIMl1bQ0gyXVtDSDJdW0NIMl1DMShOKFtDSDNdKVtDSDNdKVtDSDJdW05IXUMoPU8pW05IXWMybm5bY0hdczI=

> <s_epik_cmdline>
J2VwaWtfcHl0aG9uJywgJy1waCcsICc3LjAnLCAnLXRuJywgJzgnLCAnLW1hJywgJzIwMCcsICctbWV0YWxfYmluZGluZycsICctaW1hZScsICc8aW5maWxlLm1hZT4nLCAnLW9tYWUnLCAnPG91dGZpbGUubWFlPic=

> <r_lp_tautomer_probability>
1

> <r_epik_Ionization_Penalty>
3.99546

> <r_epik_Ionization_Penalty_Charging>
3.96229

> <r_epik_Ionization_Penalty_Neutral>
0.0331711

> <r_epik_State_Penalty>
3.95985

> <r_epik_Charging_Adjusted_Penalty>
7.92214

> <i_epik_Tot_Q>
0

> <i_epik_Tot_abs_Q>
2

> <r_epik_Metal_State_Penalty>
0.609364

> <b_epik_Metal_Only>
1

> <s_lp_Force_Field>
OPLS_2005

> <r_lp_Energy>
23.6676

> <b_lp_Chiralities_Consistent>
1

> <s_lp_Variant>
AV-unprocessed.smi:1206-2

> <Gold.Version>
5.8.1

> <Gold.Id.Protein>
6NUR|6NUR_protein|mol2

> <Gold.PLP.Fitness>
38.6311

> <Gold.PLP.PLP>
-32.5244

> <Gold.PLP.part.hbond>
-3.6934

> <Gold.PLP.part.metal>
0.0000

> <Gold.PLP.part.buried>
-4.5679

> <Gold.PLP.part.nonpolar>
-24.5620

> <Gold.PLP.part.repulsive>
0.1317

> <Gold.PLP.ligand.clash>
0.0000

> <Gold.PLP.ligand.torsion>
1.0340

> <Gold.PLP.Chemscore.Hbond>
2.6732

> <Gold.PLP.Chemscore.CHOScore>
0.0000

> <Gold.PLP.Chemscore.Metal>
0.0000

> <Gold.Chemscore.Hbonds>
donor molecule, donor type, donor heavy atom, donor atom, acceptor molecule, acceptor atom, score
      P1  H  6896  6908       L1     8  0.75
      P1  H  6931  6943       L1    11  0.94
      P1  H  6934  6947       L1    11  0.70

> <Gold.PLP.Chemscore.Internal.Correction>
0.1550

> <Gold.Rescore>
     Score         DG    S(hbond)    S(metal)    S(lipo)     H(rot)  DE(clash)    DE(int)     intcor
     15.55     -16.58       2.40        0.00      62.14       1.64       0.04       0.99       ----

> <Gold.Chemscore.Fitness>
15.5468

> <Gold.Chemscore.DG>
-16.5761

> <Gold.Chemscore.ZeroCoef>
-5.4800

> <Gold.Chemscore.Hbond>
2.4003

> <Gold.Chemscore.Metal>
0.0000

> <Gold.Chemscore.Lipo>
62.1385

> <Gold.Chemscore.Internal_Hbond>
0.0000

> <Gold.Chemscore.DEClash>
0.0402

> <Gold.Chemscore.DEInternal>
0.9891

> <Gold.Chemscore.Rot>
1.6371

> <Gold.Chemscore.Internal.Correction>
   9.000000E+99

> <Gold.Chemscore.Hbonds>
donor molecule, donor type, donor heavy atom, donor atom, acceptor molecule, acceptor atom, score
      P1  H  6896  6908       L1     8  0.45
      P1  H  6931  6943       L1    11  0.22
      P1  H  6934  6947       L1    11  0.55

> <Gold.Chemscore.Hbond.Weighted>
-8.0168

> <Gold.Chemscore.Metal.Weighted>
-0.0000

> <Gold.Chemscore.Lipo.Weighted>
-7.2702

> <Gold.Chemscore.Internal_Hbond.Weighted>
0.0000

> <Gold.Chemscore.DEClash.Weighted>
0.0402

> <Gold.Chemscore.DEInternal.Weighted>
0.9891

> <Gold.Chemscore.Rot.Weighted>
4.1909

> <Gold.Chemscore.Internal.Correction.Weighted>
   9.000000E+99

> <Gold.Protein.RotatedTorsions>
[ 6907 6896 6895 6894 ] final -145.84 input  -60.11 | X-H torsion
[ 7974 7965 7964 7962 ] final  126.38 input  175.53 | X-H torsion
[ 8008 7997 7996 7995 ] final -139.90 input   59.86 | X-H torsion
[ 10167 10162 10161 10158 ] final  -73.45 input  -65.29 | X-H torsion
[ 10718 10713 10712 10709 ] final   84.14 input   66.30 | X-H torsion
[ 10763 10752 10751 10750 ] final -134.21 input  -60.55 | X-H torsion
[ 11005 11000 10999 10996 ] final  137.83 input  -57.11 | X-H torsion

> <Gold.Protein.ActiveResidues>
 VAL166  LYS551  ARG553  GLY616  TRP617  ASP618  TYR619  PRO620  LYS621  CYS622 
 ASP623  PHE694  ASN695  SER759  ASP760  ASP761  ALA762  ILE779  LEU786  VAL792 
 PHE793  MET794  SER795  GLU796  ALA797  LYS798  CYS799  TRP800  GLU811  SER814 

> <Gold.Protein.RotatedAtoms>
  151.1334  133.5021  159.2598 H   0  0  0  0  0  0  0  0  0  0  0  0  # atno 6907 bound_to 6896
  151.1733  135.0327  159.8771 H   0  0  0  0  0  0  0  0  0  0  0  0  # atno 6908 bound_to 6896
  152.5460  134.1195  159.8446 H   0  0  0  0  0  0  0  0  0  0  0  0  # atno 6909 bound_to 6896
  145.0623  139.3795  143.4999 H   0  0  0  0  0  0  0  0  0  0  0  0  # atno 7974 bound_to 7965
  155.4525  140.0539  157.2999 H   0  0  0  0  0  0  0  0  0  0  0  0  # atno 8008 bound_to 7997
  154.4771  140.2065  155.9807 H   0  0  0  0  0  0  0  0  0  0  0  0  # atno 8009 bound_to 7997
  156.1149  140.3198  155.8129 H   0  0  0  0  0  0  0  0  0  0  0  0  # atno 8010 bound_to 7997
  140.5109  143.2345  151.7595 H   0  0  0  0  0  0  0  0  0  0  0  0  # atno 10167 bound_to 10162
  157.6892  131.0121  150.2628 H   0  0  0  0  0  0  0  0  0  0  0  0  # atno 10718 bound_to 10713
  154.8722  135.3742  154.4698 H   0  0  0  0  0  0  0  0  0  0  0  0  # atno 10763 bound_to 10752
  153.5359  135.7027  153.5665 H   0  0  0  0  0  0  0  0  0  0  0  0  # atno 10764 bound_to 10752
  153.3848  135.3987  155.1847 H   0  0  0  0  0  0  0  0  0  0  0  0  # atno 10765 bound_to 10752
  140.0141  134.9426  157.0340 H   0  0  0  0  0  0  0  0  0  0  0  0  # atno 11005 bound_to 11000
  146.3525  140.0328  142.8649 LP  0  0  0  0  0  0  0  0  0  0  0  0  # atno 17320 bound_to 7965
  145.1393  140.9562  143.4498 LP  0  0  0  0  0  0  0  0  0  0  0  0  # atno 17321 bound_to 7965
  139.4896  144.4392  151.9784 LP  0  0  0  0  0  0  0  0  0  0  0  0  # atno 17342 bound_to 10162
  140.3484  144.3118  150.5954 LP  0  0  0  0  0  0  0  0  0  0  0  0  # atno 17343 bound_to 10162
  156.3205  130.3785  149.7580 LP  0  0  0  0  0  0  0  0  0  0  0  0  # atno 17370 bound_to 10713
  156.5151  130.8190  151.3183 LP  0  0  0  0  0  0  0  0  0  0  0  0  # atno 17371 bound_to 10713
  140.4502  134.1590  155.7181 LP  0  0  0  0  0  0  0  0  0  0  0  0  # atno 17394 bound_to 11000
  141.1731  133.8569  157.1508 LP  0  0  0  0  0  0  0  0  0  0  0  0  # atno 17395 bound_to 11000

$$$$
