AV-unprocessed.smi:828|AV-procd|sdf|3858|dock4
  -GOLD-   22720 1313D 1   1.00000     0.00000
 Structure written by MMmdl.
 35 36  0  0  0  0  0  0  0  0  2 V2000
  153.6666  136.9427  157.4829 C   0  0  0  0  0  0  0  0  0  0  0  0
  152.6370  137.4309  156.5223 C   0  0  0  0  0  0  0  0  0  0  0  0
  152.6988  138.6381  155.9469 N   0  0  0  0  0  0  0  0  0  0  0  0
  151.6280  138.8705  155.0951 N   0  0  0  0  0  0  0  0  0  0  0  0
  150.7869  137.8280  155.0538 C   0  0  0  0  0  0  0  0  0  0  0  0
  149.6053  137.7990  154.2665 N   0  0  0  0  0  0  0  0  0  0  0  0
  148.3914  138.2910  154.5702 C   0  0  0  0  0  0  0  0  0  0  0  0
  148.1023  138.8889  155.6071 O   0  0  0  0  0  0  0  0  0  0  0  0
  147.5072  138.0495  153.5915 N   0  0  0  0  0  0  0  0  0  0  0  0
  146.1061  138.4572  153.6200 C   0  0  0  0  0  0  0  0  0  0  0  0
  145.1465  137.2581  153.7699 C   0  0  2  0  0  0  0  0  0  0  0  0
  145.3952  136.1353  152.7419 C   0  0  0  0  0  0  0  0  0  0  0  0
  144.2103  136.2046  151.7839 C   0  0  0  0  0  0  0  0  0  0  0  0
  143.0874  136.7309  152.6684 C   0  0  0  0  0  0  0  0  0  0  0  0
  143.7419  137.6948  153.5737 N   0  3  1  0  0  0  0  0  0  0  0  0
  142.9958  137.9490  154.8248 C   0  0  0  0  0  0  0  0  0  0  0  0
  151.2394  136.4654  156.0637 S   0  0  0  0  0  0  0  0  0  0  0  0
  154.6334  137.4003  157.2711 H   0  0  0  0  0  0  0  0  0  0  0  0
  153.7703  135.8603  157.4060 H   0  0  0  0  0  0  0  0  0  0  0  0
  153.3741  137.1960  158.5020 H   0  0  0  0  0  0  0  0  0  0  0  0
  149.6951  137.3436  153.3704 H   0  0  0  0  0  0  0  0  0  0  0  0
  147.8249  137.5550  152.7706 H   0  0  0  0  0  0  0  0  0  0  0  0
  145.9546  139.1695  154.4327 H   0  0  0  0  0  0  0  0  0  0  0  0
  145.8902  138.9953  152.6963 H   0  0  0  0  0  0  0  0  0  0  0  0
  145.2523  136.8322  154.7692 H   0  0  0  0  0  0  0  0  0  0  0  0
  146.3483  136.2211  152.2192 H   0  0  0  0  0  0  0  0  0  0  0  0
  145.3925  135.1710  153.2516 H   0  0  0  0  0  0  0  0  0  0  0  0
  144.4197  136.9177  150.9855 H   0  0  0  0  0  0  0  0  0  0  0  0
  143.9758  135.2430  151.3261 H   0  0  0  0  0  0  0  0  0  0  0  0
  142.2839  137.1964  152.0971 H   0  0  0  0  0  0  0  0  0  0  0  0
  142.6613  135.9091  153.2464 H   0  0  0  0  0  0  0  0  0  0  0  0
  142.9055  137.0405  155.4218 H   0  0  0  0  0  0  0  0  0  0  0  0
  141.9930  138.3147  154.6027 H   0  0  0  0  0  0  0  0  0  0  0  0
  143.5046  138.7038  155.4253 H   0  0  0  0  0  0  0  0  0  0  0  0
  143.7891  138.5675  153.0673 H   0  0  0  0  0  0  0  0  0  0  0  0
  1  2  1  0  0  0  0
  1 18  1  0  0  0  0
  1 19  1  0  0  0  0
  1 20  1  0  0  0  0
  2 17  1  0  0  0  0
  2  3  2  0  0  0  0
  3  4  1  0  0  0  0
  4  5  2  0  0  0  0
  5  6  1  0  0  0  0
  5 17  1  0  0  0  0
  6  7  1  0  0  0  0
  6 21  1  0  0  0  0
  7  8  2  0  0  0  0
  7  9  1  0  0  0  0
  9 10  1  0  0  0  0
  9 22  1  0  0  0  0
 10 11  1  0  0  0  0
 10 23  1  0  0  0  0
 10 24  1  0  0  0  0
 11 15  1  0  0  0  0
 11 12  1  0  0  0  0
 11 25  1  0  0  0  0
 12 13  1  0  0  0  0
 12 26  1  0  0  0  0
 12 27  1  0  0  0  0
 13 14  1  0  0  0  0
 13 28  1  0  0  0  0
 13 29  1  0  0  0  0
 14 15  1  0  0  0  0
 14 30  1  0  0  0  0
 14 31  1  0  0  0  0
 15 16  1  0  0  0  0
 15 35  1  0  0  0  0
 16 32  1  0  0  0  0
 16 33  1  0  0  0  0
 16 34  1  0  0  0  0
M  CHG  1  15   1
M  END
> <s_m_source_file>
AV-unprocessed.smi

> <i_m_source_file_index>
828

> <i_lp_mmshare_version>
43012

> <i_f3d_flags>
0

> <s_epik_input>
W0NIM11jMW5uYyhzMSlbTkhdQyg9TylbTkhdW0NIMl1bQ0BASF0yW0NIMl1bQ0gyXVtDSDJdTjJbQ0gzXQ==

> <s_epik_cmdline>
J2VwaWtfcHl0aG9uJywgJy1waCcsICc3LjAnLCAnLXRuJywgJzgnLCAnLW1hJywgJzIwMCcsICctbWV0YWxfYmluZGluZycsICctaW1hZScsICc8aW5maWxlLm1hZT4nLCAnLW9tYWUnLCAnPG91dGZpbGUubWFlPic=

> <r_lp_tautomer_probability>
1

> <r_epik_Ionization_Penalty>
0.00466477

> <r_epik_Ionization_Penalty_Charging>
0.00372199

> <r_epik_Ionization_Penalty_Neutral>
0.000942783

> <r_epik_State_Penalty>
-0

> <r_epik_Charging_Adjusted_Penalty>
0.00372199

> <i_epik_Tot_Q>
1

> <i_epik_Tot_abs_Q>
1

> <r_epik_Metal_State_Penalty>
0.28212

> <b_epik_Metal_Only>
0

> <s_lp_Force_Field>
OPLS_2005

> <r_lp_Energy>
24.623

> <b_lp_Chiralities_Consistent>
1

> <s_lp_Variant>
AV-unprocessed.smi:828-1

> <Gold.Version>
5.8.1

> <Gold.Id.Protein>
6NUR|6NUR_protein|mol2

> <Gold.PLP.Fitness>
36.9378

> <Gold.PLP.PLP>
-20.7348

> <Gold.PLP.part.hbond>
-5.0000

> <Gold.PLP.part.metal>
0.0000

> <Gold.PLP.part.buried>
-4.0348

> <Gold.PLP.part.nonpolar>
-12.5499

> <Gold.PLP.part.repulsive>
0.1844

> <Gold.PLP.ligand.clash>
0.0000

> <Gold.PLP.ligand.torsion>
0.8264

> <Gold.PLP.Chemscore.Hbond>
5.9516

> <Gold.PLP.Chemscore.CHOScore>
0.0000

> <Gold.PLP.Chemscore.Metal>
0.0000

> <Gold.Chemscore.Hbonds>
donor molecule, donor type, donor heavy atom, donor atom, acceptor molecule, acceptor atom, score
      L1  H     6    21       P1  7948  1.00
      L1  H     9    22       P1  7948  1.00
      L1  H    15    35       P1 10175  2.00
      P1  H  7997  8008       L1     3  0.37

> <Gold.PLP.Chemscore.Internal.Correction>
0.0010

> <Gold.Rescore>
     Score         DG    S(hbond)    S(metal)    S(lipo)     H(rot)  DE(clash)    DE(int)     intcor
     19.39     -20.24       4.17        0.00      36.07       1.33       0.05       0.80       ----

> <Gold.Chemscore.Fitness>
19.3913

> <Gold.Chemscore.DG>
-20.2376

> <Gold.Chemscore.ZeroCoef>
-5.4800

> <Gold.Chemscore.Hbond>
4.1740

> <Gold.Chemscore.Metal>
0.0000

> <Gold.Chemscore.Lipo>
36.0668

> <Gold.Chemscore.Internal_Hbond>
0.0000

> <Gold.Chemscore.DEClash>
0.0485

> <Gold.Chemscore.DEInternal>
0.7978

> <Gold.Chemscore.Rot>
1.3294

> <Gold.Chemscore.Internal.Correction>
   9.000000E+99

> <Gold.Chemscore.Hbonds>
donor molecule, donor type, donor heavy atom, donor atom, acceptor molecule, acceptor atom, score
      L1  H     6    21       P1  7948  0.66
      L1  H     9    22       P1  7948  0.96
      L1  H    15    35       P1 10175  0.98
      P1  H  7997  8008       L1     3  0.34

> <Gold.Chemscore.Hbond.Weighted>
-13.9411

> <Gold.Chemscore.Metal.Weighted>
-0.0000

> <Gold.Chemscore.Lipo.Weighted>
-4.2198

> <Gold.Chemscore.Internal_Hbond.Weighted>
0.0000

> <Gold.Chemscore.DEClash.Weighted>
0.0485

> <Gold.Chemscore.DEInternal.Weighted>
0.7978

> <Gold.Chemscore.Rot.Weighted>
3.4033

> <Gold.Chemscore.Internal.Correction.Weighted>
   9.000000E+99

> <Gold.Protein.RotatedTorsions>
[ 6907 6896 6895 6894 ] final   86.05 input  -60.11 | X-H torsion
[ 7974 7965 7964 7962 ] final  -17.49 input  175.53 | X-H torsion
[ 8008 7997 7996 7995 ] final  -23.74 input   59.86 | X-H torsion
[ 10167 10162 10161 10158 ] final   27.18 input  -65.29 | X-H torsion
[ 10718 10713 10712 10709 ] final  138.47 input   66.30 | X-H torsion
[ 10763 10752 10751 10750 ] final   36.20 input  -60.55 | X-H torsion
[ 11005 11000 10999 10996 ] final   65.03 input  -57.11 | X-H torsion

> <Gold.Protein.ActiveResidues>
 VAL166  LYS551  ARG553  GLY616  TRP617  ASP618  TYR619  PRO620  LYS621  CYS622 
 ASP623  PHE694  ASN695  SER759  ASP760  ASP761  ALA762  ILE779  LEU786  VAL792 
 PHE793  MET794  SER795  GLU796  ALA797  LYS798  CYS799  TRP800  GLU811  SER814 

> <Gold.Protein.RotatedAtoms>
  152.5387  134.2491  159.8891 H   0  0  0  0  0  0  0  0  0  0  0  0  # atno 6907 bound_to 6896
  151.2455  133.4370  159.2617 H   0  0  0  0  0  0  0  0  0  0  0  0  # atno 6908 bound_to 6896
  151.0587  134.9736  159.8305 H   0  0  0  0  0  0  0  0  0  0  0  0  # atno 6909 bound_to 6896
  146.1938  140.3787  142.8448 H   0  0  0  0  0  0  0  0  0  0  0  0  # atno 7974 bound_to 7965
  154.4568  140.1972  156.0356 H   0  0  0  0  0  0  0  0  0  0  0  0  # atno 8008 bound_to 7997
  156.0762  140.3278  155.7609 H   0  0  0  0  0  0  0  0  0  0  0  0  # atno 8009 bound_to 7997
  155.5184  140.0567  157.2902 H   0  0  0  0  0  0  0  0  0  0  0  0  # atno 8010 bound_to 7997
  140.4960  144.0392  150.6314 H   0  0  0  0  0  0  0  0  0  0  0  0  # atno 10167 bound_to 10162
  157.4250  131.1042  151.0313 H   0  0  0  0  0  0  0  0  0  0  0  0  # atno 10718 bound_to 10713
  153.0087  135.6312  154.1948 H   0  0  0  0  0  0  0  0  0  0  0  0  # atno 10763 bound_to 10752
  154.1691  135.2819  155.3088 H   0  0  0  0  0  0  0  0  0  0  0  0  # atno 10764 bound_to 10752
  154.5922  135.5614  153.7350 H   0  0  0  0  0  0  0  0  0  0  0  0  # atno 10765 bound_to 10752
  139.9921  134.6575  156.0074 H   0  0  0  0  0  0  0  0  0  0  0  0  # atno 11005 bound_to 11000
  144.8539  140.7042  143.6150 LP  0  0  0  0  0  0  0  0  0  0  0  0  # atno 17320 bound_to 7965
  145.3708  139.1659  143.4333 LP  0  0  0  0  0  0  0  0  0  0  0  0  # atno 17321 bound_to 7965
  140.3674  143.2873  152.0316 LP  0  0  0  0  0  0  0  0  0  0  0  0  # atno 17342 bound_to 10162
  139.4861  144.6256  151.7170 LP  0  0  0  0  0  0  0  0  0  0  0  0  # atno 17343 bound_to 10162
  157.1230  130.6070  149.5510 LP  0  0  0  0  0  0  0  0  0  0  0  0  # atno 17370 bound_to 10713
  155.9893  130.4940  150.7209 LP  0  0  0  0  0  0  0  0  0  0  0  0  # atno 17371 bound_to 10713
  141.1574  133.6541  156.4206 LP  0  0  0  0  0  0  0  0  0  0  0  0  # atno 17394 bound_to 11000
  140.4889  134.6594  157.5202 LP  0  0  0  0  0  0  0  0  0  0  0  0  # atno 17395 bound_to 11000

$$$$
