AV-unprocessed.smi:1933|AV-procd|sdf|7822|dock1
  -GOLD-   22720 9563D 1   1.00000     0.00000
 Structure written by MMmdl.
 48 50  0  0  0  0  0  0  0  0  2 V2000
  147.8849  134.7885  158.0621 O   0  0  0  0  0  0  0  0  0  0  0  0
  147.1936  135.8051  157.9966 C   0  0  0  0  0  0  0  0  0  0  0  0
  146.8109  136.3667  156.8405 N   0  0  0  0  0  0  0  0  0  0  0  0
  147.1523  135.8776  155.5082 C   0  0  0  0  0  0  0  0  0  0  0  0
  148.6754  135.6327  155.3317 C   0  0  1  0  0  0  0  0  0  0  0  0
  149.0151  134.3856  154.4659 C   0  0  1  0  0  0  0  0  0  0  0  0
  149.3571  133.1419  155.2724 C   0  0  0  0  0  0  0  0  0  0  0  0
  149.1813  132.0341  154.2436 C   0  0  0  0  0  0  0  0  0  0  0  0
  148.0623  132.4394  153.4696 O   0  0  0  0  0  0  0  0  0  0  0  0
  147.8741  133.8465  153.5887 C   0  0  0  0  0  0  0  0  0  0  0  0
  149.3710  136.8356  154.7812 N   0  3  0  0  0  0  0  0  0  0  0  0
  148.8871  138.1534  155.2673 C   0  0  0  0  0  0  0  0  0  0  0  0
  149.5672  139.2842  154.4784 C   0  0  0  0  0  0  0  0  0  0  0  0
  150.9796  139.1716  154.6092 O   0  0  0  0  0  0  0  0  0  0  0  0
  151.4712  137.9451  154.0813 C   0  0  0  0  0  0  0  0  0  0  0  0
  150.8511  136.7640  154.8474 C   0  0  0  0  0  0  0  0  0  0  0  0
  146.7279  136.4984  159.0505 N   0  0  0  0  0  0  0  0  0  0  0  0
  146.9348  136.2384  160.4317 C   0  0  0  0  0  0  0  0  0  0  0  0
  147.0994  134.8752  160.7665 C   0  0  0  0  0  0  0  0  0  0  0  0
  147.3107  134.5126  162.1110 C   0  0  0  0  0  0  0  0  0  0  0  0
  147.3521  135.5237  163.0875 C   0  0  0  0  0  0  0  0  0  0  0  0
  147.1775  136.8559  162.6698 C   0  0  0  0  0  0  0  0  0  0  0  0
  146.9749  137.2056  161.3820 N   0  0  0  0  0  0  0  0  0  0  0  0
  146.2400  137.1980  156.8863 H   0  0  0  0  0  0  0  0  0  0  0  0
  146.6056  134.9587  155.2918 H   0  0  0  0  0  0  0  0  0  0  0  0
  146.7971  136.6232  154.7975 H   0  0  0  0  0  0  0  0  0  0  0  0
  149.1011  135.4526  156.3204 H   0  0  0  0  0  0  0  0  0  0  0  0
  149.8613  134.6098  153.8149 H   0  0  0  0  0  0  0  0  0  0  0  0
  150.3640  133.1624  155.6905 H   0  0  0  0  0  0  0  0  0  0  0  0
  148.6480  133.0069  156.0909 H   0  0  0  0  0  0  0  0  0  0  0  0
  150.0561  131.9720  153.5950 H   0  0  0  0  0  0  0  0  0  0  0  0
  149.0219  131.0562  154.6986 H   0  0  0  0  0  0  0  0  0  0  0  0
  146.9028  134.0168  154.0545 H   0  0  0  0  0  0  0  0  0  0  0  0
  147.8619  134.3108  152.6027 H   0  0  0  0  0  0  0  0  0  0  0  0
  147.8060  138.2303  155.1553 H   0  0  0  0  0  0  0  0  0  0  0  0
  149.1125  138.2735  156.3275 H   0  0  0  0  0  0  0  0  0  0  0  0
  149.2821  139.2525  153.4254 H   0  0  0  0  0  0  0  0  0  0  0  0
  149.2527  140.2538  154.8648 H   0  0  0  0  0  0  0  0  0  0  0  0
  151.2471  137.8787  153.0154 H   0  0  0  0  0  0  0  0  0  0  0  0
  152.5568  137.9277  154.1799 H   0  0  0  0  0  0  0  0  0  0  0  0
  151.1828  136.7836  155.8858 H   0  0  0  0  0  0  0  0  0  0  0  0
  151.2016  135.8262  154.4149 H   0  0  0  0  0  0  0  0  0  0  0  0
  146.1639  137.3091  158.8429 H   0  0  0  0  0  0  0  0  0  0  0  0
  147.0651  134.1106  160.0042 H   0  0  0  0  0  0  0  0  0  0  0  0
  147.4392  133.4767  162.3871 H   0  0  0  0  0  0  0  0  0  0  0  0
  147.5127  135.2851  164.1285 H   0  0  0  0  0  0  0  0  0  0  0  0
  147.2010  137.6621  163.3878 H   0  0  0  0  0  0  0  0  0  0  0  0
  149.1584  136.8192  153.7939 H   0  0  0  0  0  0  0  0  0  0  0  0
  1  2  2  0  0  0  0
  2  3  1  0  0  0  0
  2 17  1  0  0  0  0
  3  4  1  0  0  0  0
  3 24  1  0  0  0  0
  4  5  1  0  0  0  0
  4 25  1  0  0  0  0
  4 26  1  0  0  0  0
  5  6  1  0  0  0  0
  5 11  1  0  0  0  0
  5 27  1  0  0  0  0
  6 10  1  0  0  0  0
  6  7  1  0  0  0  0
  6 28  1  0  0  0  0
  7  8  1  0  0  0  0
  7 29  1  0  0  0  0
  7 30  1  0  0  0  0
  8  9  1  0  0  0  0
  8 31  1  0  0  0  0
  8 32  1  0  0  0  0
  9 10  1  0  0  0  0
 10 33  1  0  0  0  0
 10 34  1  0  0  0  0
 11 16  1  0  0  0  0
 11 12  1  0  0  0  0
 11 48  1  0  0  0  0
 12 13  1  0  0  0  0
 12 35  1  0  0  0  0
 12 36  1  0  0  0  0
 13 14  1  0  0  0  0
 13 37  1  0  0  0  0
 13 38  1  0  0  0  0
 14 15  1  0  0  0  0
 15 16  1  0  0  0  0
 15 39  1  0  0  0  0
 15 40  1  0  0  0  0
 16 41  1  0  0  0  0
 16 42  1  0  0  0  0
 17 18  1  0  0  0  0
 17 43  1  0  0  0  0
 18 23  1  0  0  0  0
 18 19  2  0  0  0  0
 19 20  1  0  0  0  0
 19 44  1  0  0  0  0
 20 21  2  0  0  0  0
 20 45  1  0  0  0  0
 21 22  1  0  0  0  0
 21 46  1  0  0  0  0
 22 23  2  0  0  0  0
 22 47  1  0  0  0  0
M  CHG  1  11   1
M  END
> <s_m_source_file>
AV-unprocessed.smi

> <i_m_source_file_index>
1933

> <i_lp_mmshare_version>
43012

> <i_f3d_flags>
0

> <s_epik_input>
bjFbY0hdW2NIXVtjSF1bY0hdYzFbTkhdQyg9TylbTkhdW0NIMl1bQ0BIXShbQ0BASF0yW0NIMl1bQ0gyXU9bQ0gyXTIpTjNbQ0gyXVtDSDJdT1tDSDJdW0NIMl0z

> <s_epik_cmdline>
J2VwaWtfcHl0aG9uJywgJy1waCcsICc3LjAnLCAnLXRuJywgJzgnLCAnLW1hJywgJzIwMCcsICctbWV0YWxfYmluZGluZycsICctaW1hZScsICc8aW5maWxlLm1hZT4nLCAnLW9tYWUnLCAnPG91dGZpbGUubWFlPic=

> <r_epik_Ionization_Penalty>
0.983294

> <r_epik_Ionization_Penalty_Charging>
0.98326

> <r_epik_Ionization_Penalty_Neutral>
3.39688e-05

> <r_epik_State_Penalty>
1.0303

> <r_epik_Charging_Adjusted_Penalty>
2.01356

> <i_epik_Tot_Q>
1

> <i_epik_Tot_abs_Q>
1

> <r_epik_Metal_State_Penalty>
1.0303

> <b_epik_Metal_Only>
0

> <s_lp_Force_Field>
OPLS_2005

> <r_lp_Energy>
40.1163

> <b_lp_Chiralities_Consistent>
1

> <s_lp_Variant>
AV-unprocessed.smi:1933-8

> <Gold.Version>
5.8.1

> <Gold.Id.Protein>
6NUR|6NUR_protein|mol2

> <Gold.PLP.Fitness>
44.9082

> <Gold.PLP.PLP>
-36.5950

> <Gold.PLP.part.hbond>
-3.2510

> <Gold.PLP.part.metal>
0.0000

> <Gold.PLP.part.buried>
-4.7546

> <Gold.PLP.part.nonpolar>
-29.3611

> <Gold.PLP.part.repulsive>
0.2913

> <Gold.PLP.ligand.clash>
0.0000

> <Gold.PLP.ligand.torsion>
2.1393

> <Gold.PLP.Chemscore.Hbond>
4.0000

> <Gold.PLP.Chemscore.CHOScore>
0.0000

> <Gold.PLP.Chemscore.Metal>
0.0000

> <Gold.Chemscore.Hbonds>
donor molecule, donor type, donor heavy atom, donor atom, acceptor molecule, acceptor atom, score
      L1  H    11    48       P1  7948  2.00
      P1  H  6934  6947       L1    23  1.00
      P1  H  7989  7998       L1    14  0.76

> <Gold.PLP.Chemscore.Internal.Correction>
0.5919

> <Gold.Rescore>
     Score         DG    S(hbond)    S(metal)    S(lipo)     H(rot)  DE(clash)    DE(int)     intcor
     14.51     -19.13       2.46        0.00      85.10       1.77       0.13       4.49       ----

> <Gold.Chemscore.Fitness>
14.5052

> <Gold.Chemscore.DG>
-19.1273

> <Gold.Chemscore.ZeroCoef>
-5.4800

> <Gold.Chemscore.Hbond>
2.4593

> <Gold.Chemscore.Metal>
0.0000

> <Gold.Chemscore.Lipo>
85.1023

> <Gold.Chemscore.Internal_Hbond>
0.0000

> <Gold.Chemscore.DEClash>
0.1343

> <Gold.Chemscore.DEInternal>
4.4878

> <Gold.Chemscore.Rot>
1.7671

> <Gold.Chemscore.Internal.Correction>
   9.000000E+99

> <Gold.Chemscore.Hbonds>
donor molecule, donor type, donor heavy atom, donor atom, acceptor molecule, acceptor atom, score
      L1  H    11    48       P1  7948  0.94
      P1  H  6934  6947       L1    23  0.91
      P1  H  7989  7998       L1    14  0.18

> <Gold.Chemscore.Hbond.Weighted>
-8.2141

> <Gold.Chemscore.Metal.Weighted>
-0.0000

> <Gold.Chemscore.Lipo.Weighted>
-9.9570

> <Gold.Chemscore.Internal_Hbond.Weighted>
0.0000

> <Gold.Chemscore.DEClash.Weighted>
0.1343

> <Gold.Chemscore.DEInternal.Weighted>
4.4878

> <Gold.Chemscore.Rot.Weighted>
4.5238

> <Gold.Chemscore.Internal.Correction.Weighted>
   9.000000E+99

> <Gold.Protein.RotatedTorsions>
[ 6907 6896 6895 6894 ] final  -93.70 input  -60.11 | X-H torsion
[ 7974 7965 7964 7962 ] final -150.07 input  175.53 | X-H torsion
[ 8008 7997 7996 7995 ] final   63.66 input   59.86 | X-H torsion
[ 10167 10162 10161 10158 ] final   89.28 input  -65.29 | X-H torsion
[ 10718 10713 10712 10709 ] final -113.27 input   66.30 | X-H torsion
[ 10763 10752 10751 10750 ] final   56.63 input  -60.55 | X-H torsion
[ 11005 11000 10999 10996 ] final   25.02 input  -57.11 | X-H torsion

> <Gold.Protein.ActiveResidues>
 VAL166  LYS551  ARG553  GLY616  TRP617  ASP618  TYR619  PRO620  LYS621  CYS622 
 ASP623  PHE694  ASN695  SER759  ASP760  ASP761  ALA762  ILE779  LEU786  VAL792 
 PHE793  MET794  SER795  GLU796  ALA797  LYS798  CYS799  TRP800  GLU811  SER814 

> <Gold.Protein.RotatedAtoms>
  150.6927  134.1926  159.4290 H   0  0  0  0  0  0  0  0  0  0  0  0  # atno 6907 bound_to 6896
  151.9896  134.9983  160.0570 H   0  0  0  0  0  0  0  0  0  0  0  0  # atno 6908 bound_to 6896
  152.1679  133.4589  159.4931 H   0  0  0  0  0  0  0  0  0  0  0  0  # atno 6909 bound_to 6896
  144.7929  140.4980  143.5760 H   0  0  0  0  0  0  0  0  0  0  0  0  # atno 7974 bound_to 7965
  155.6338  140.3496  155.4692 H   0  0  0  0  0  0  0  0  0  0  0  0  # atno 8008 bound_to 7997
  155.9982  140.1207  157.0597 H   0  0  0  0  0  0  0  0  0  0  0  0  # atno 8009 bound_to 7997
  154.4240  140.1106  156.5645 H   0  0  0  0  0  0  0  0  0  0  0  0  # atno 8010 bound_to 7997
  139.8589  144.6554  150.9082 H   0  0  0  0  0  0  0  0  0  0  0  0  # atno 10167 bound_to 10162
  156.0756  130.5964  150.8620 H   0  0  0  0  0  0  0  0  0  0  0  0  # atno 10718 bound_to 10713
  152.9835  135.5669  154.5260 H   0  0  0  0  0  0  0  0  0  0  0  0  # atno 10763 bound_to 10752
  154.4740  135.2786  155.1623 H   0  0  0  0  0  0  0  0  0  0  0  0  # atno 10764 bound_to 10752
  154.3160  135.6279  153.5539 H   0  0  0  0  0  0  0  0  0  0  0  0  # atno 10765 bound_to 10752
  140.3524  134.2214  155.7679 H   0  0  0  0  0  0  0  0  0  0  0  0  # atno 11005 bound_to 11000
  145.5748  139.1485  143.3268 LP  0  0  0  0  0  0  0  0  0  0  0  0  # atno 17320 bound_to 7965
  146.2187  140.5880  142.9027 LP  0  0  0  0  0  0  0  0  0  0  0  0  # atno 17321 bound_to 7965
  140.7778  143.3762  151.1559 LP  0  0  0  0  0  0  0  0  0  0  0  0  # atno 17342 bound_to 10162
  139.7393  143.8949  152.3045 LP  0  0  0  0  0  0  0  0  0  0  0  0  # atno 17343 bound_to 10162
  157.5850  131.0945  150.9210 LP  0  0  0  0  0  0  0  0  0  0  0  0  # atno 17370 bound_to 10713
  156.9398  130.5380  149.5280 LP  0  0  0  0  0  0  0  0  0  0  0  0  # atno 17371 bound_to 10713
  141.2008  133.7978  157.0471 LP  0  0  0  0  0  0  0  0  0  0  0  0  # atno 17394 bound_to 11000
  140.0692  134.9712  157.1438 LP  0  0  0  0  0  0  0  0  0  0  0  0  # atno 17395 bound_to 11000

$$$$
