AV-unprocessed.smi:1695|AV-procd|sdf|6797|dock5
  -GOLD-   22720 7563D 1   1.00000     0.00000
 Structure written by MMmdl.
 50 52  0  0  0  0  0  0  0  0  1 V2000
  152.9434  142.9366  161.0439 C   0  0  0  0  0  0  0  0  0  0  0  0
  152.3407  142.5744  159.6980 C   0  0  0  0  0  0  0  0  0  0  0  0
  152.7055  141.3529  159.0884 C   0  0  0  0  0  0  0  0  0  0  0  0
  152.1703  140.9802  157.8359 C   0  0  0  0  0  0  0  0  0  0  0  0
  152.3857  139.8494  157.0669 N   0  0  0  0  0  0  0  0  0  0  0  0
  151.6061  140.0881  156.0161 C   0  0  0  0  0  0  0  0  0  0  0  0
  150.9100  141.2412  156.0140 N   0  0  0  0  0  0  0  0  0  0  0  0
  150.0024  141.7169  154.9852 C   0  0  0  0  0  0  0  0  0  0  0  0
  148.8540  140.7276  154.7046 C   0  0  2  0  0  0  0  0  0  0  0  0
  149.3895  139.5894  154.0561 O   0  0  0  0  0  0  0  0  0  0  0  0
  147.7660  141.3537  153.8064 C   0  0  0  0  0  0  0  0  0  0  0  0
  146.9733  142.4169  154.4261 N   0  0  0  0  0  0  0  0  0  0  0  0
  146.3317  141.9848  155.6707 C   0  0  0  0  0  0  0  0  0  0  0  0
  145.5335  143.1118  156.3485 C   0  0  0  0  0  0  0  0  0  0  0  0
  144.4683  143.6803  155.3895 C   0  0  0  0  0  0  0  0  0  0  0  0
  143.7244  144.8663  156.0179 C   0  0  0  0  0  0  0  0  0  0  0  0
  142.7742  145.4475  155.2811 N   0  0  0  0  0  0  0  0  0  0  0  0
  144.0011  145.2552  157.1511 O   0  0  0  0  0  0  0  0  0  0  0  0
  145.1495  144.0864  154.0680 C   0  0  0  0  0  0  0  0  0  0  0  0
  145.9583  142.9110  153.4948 C   0  0  0  0  0  0  0  0  0  0  0  0
  151.2523  141.8701  157.2054 C   0  0  0  0  0  0  0  0  0  0  0  0
  150.8797  143.0870  157.8027 C   0  0  0  0  0  0  0  0  0  0  0  0
  151.4235  143.4438  159.0544 C   0  0  0  0  0  0  0  0  0  0  0  0
  151.0155  144.7608  159.6904 C   0  0  0  0  0  0  0  0  0  0  0  0
  153.6716  142.1925  161.3674 H   0  0  0  0  0  0  0  0  0  0  0  0
  152.1658  142.9976  161.8054 H   0  0  0  0  0  0  0  0  0  0  0  0
  153.4524  143.8990  160.9899 H   0  0  0  0  0  0  0  0  0  0  0  0
  153.4024  140.6895  159.5789 H   0  0  0  0  0  0  0  0  0  0  0  0
  151.5338  139.3829  155.2008 H   0  0  0  0  0  0  0  0  0  0  0  0
  149.6012  142.6780  155.3091 H   0  0  0  0  0  0  0  0  0  0  0  0
  150.5737  141.9078  154.0752 H   0  0  0  0  0  0  0  0  0  0  0  0
  148.4174  140.4189  155.6558 H   0  0  0  0  0  0  0  0  0  0  0  0
  149.5079  139.7957  153.1415 H   0  0  0  0  0  0  0  0  0  0  0  0
  148.2723  141.7870  152.9427 H   0  0  0  0  0  0  0  0  0  0  0  0
  147.1152  140.5792  153.3969 H   0  0  0  0  0  0  0  0  0  0  0  0
  145.6727  141.1377  155.4736 H   0  0  0  0  0  0  0  0  0  0  0  0
  147.0841  141.6351  156.3767 H   0  0  0  0  0  0  0  0  0  0  0  0
  145.0608  142.7322  157.2551 H   0  0  0  0  0  0  0  0  0  0  0  0
  146.2223  143.8978  156.6636 H   0  0  0  0  0  0  0  0  0  0  0  0
  143.7469  142.8900  155.1738 H   0  0  0  0  0  0  0  0  0  0  0  0
  142.2550  146.2301  155.6519 H   0  0  0  0  0  0  0  0  0  0  0  0
  142.5771  145.0988  154.3543 H   0  0  0  0  0  0  0  0  0  0  0  0
  144.4027  144.4070  153.3408 H   0  0  0  0  0  0  0  0  0  0  0  0
  145.8148  144.9369  154.2268 H   0  0  0  0  0  0  0  0  0  0  0  0
  146.4360  143.2361  152.5696 H   0  0  0  0  0  0  0  0  0  0  0  0
  145.2798  142.1008  153.2225 H   0  0  0  0  0  0  0  0  0  0  0  0
  150.1805  143.7392  157.3004 H   0  0  0  0  0  0  0  0  0  0  0  0
  150.2521  145.2678  159.0997 H   0  0  0  0  0  0  0  0  0  0  0  0
  151.8752  145.4262  159.7709 H   0  0  0  0  0  0  0  0  0  0  0  0
  150.6090  144.5962  160.6885 H   0  0  0  0  0  0  0  0  0  0  0  0
  1  2  1  0  0  0  0
  1 25  1  0  0  0  0
  1 26  1  0  0  0  0
  1 27  1  0  0  0  0
  2 23  1  0  0  0  0
  2  3  2  0  0  0  0
  3  4  1  0  0  0  0
  3 28  1  0  0  0  0
  4 21  2  0  0  0  0
  4  5  1  0  0  0  0
  5  6  2  0  0  0  0
  6  7  1  0  0  0  0
  6 29  1  0  0  0  0
  7  8  1  0  0  0  0
  7 21  1  0  0  0  0
  8  9  1  0  0  0  0
  8 30  1  0  0  0  0
  8 31  1  0  0  0  0
  9 10  1  0  0  0  0
  9 11  1  0  0  0  0
  9 32  1  0  0  0  0
 10 33  1  0  0  0  0
 11 12  1  0  0  0  0
 11 34  1  0  0  0  0
 11 35  1  0  0  0  0
 12 20  1  0  0  0  0
 12 13  1  0  0  0  0
 13 14  1  0  0  0  0
 13 36  1  0  0  0  0
 13 37  1  0  0  0  0
 14 15  1  0  0  0  0
 14 38  1  0  0  0  0
 14 39  1  0  0  0  0
 15 16  1  0  0  0  0
 15 19  1  0  0  0  0
 15 40  1  0  0  0  0
 16 17  1  0  0  0  0
 16 18  2  0  0  0  0
 17 41  1  0  0  0  0
 17 42  1  0  0  0  0
 19 20  1  0  0  0  0
 19 43  1  0  0  0  0
 19 44  1  0  0  0  0
 20 45  1  0  0  0  0
 20 46  1  0  0  0  0
 21 22  1  0  0  0  0
 22 23  2  0  0  0  0
 22 47  1  0  0  0  0
 23 24  1  0  0  0  0
 24 48  1  0  0  0  0
 24 49  1  0  0  0  0
 24 50  1  0  0  0  0
M  END
> <s_m_source_file>
AV-unprocessed.smi

> <i_m_source_file_index>
1695

> <i_lp_mmshare_version>
43012

> <i_f3d_flags>
0

> <s_epik_input>
W0NIM11jKFtjSF0xKWMoW0NIM10pW2NIXWMoYzEyKW4oW2NIXW4yKVtDSDJdW0NASF0oW09IXSlbQ0gyXU4zW0NIMl1bQ0gyXVtDSF0oQyg9TylbTkgyXSlbQ0gyXVtDSDJdMw==

> <s_epik_cmdline>
J2VwaWtfcHl0aG9uJywgJy1waCcsICc3LjAnLCAnLXRuJywgJzgnLCAnLW1hJywgJzIwMCcsICctbWV0YWxfYmluZGluZycsICctaW1hZScsICc8aW5maWxlLm1hZT4nLCAnLW9tYWUnLCAnPG91dGZpbGUubWFlPic=

> <r_epik_Ionization_Penalty>
1.9508

> <r_epik_Ionization_Penalty_Charging>
0

> <r_epik_Ionization_Penalty_Neutral>
1.9508

> <r_epik_State_Penalty>
2.03746

> <r_epik_Charging_Adjusted_Penalty>
2.03746

> <i_epik_Tot_Q>
0

> <i_epik_Tot_abs_Q>
0

> <r_epik_Metal_State_Penalty>
2.03012

> <b_epik_Metal_Only>
0

> <s_lp_Force_Field>
OPLS_2005

> <r_lp_Energy>
30.2081

> <b_lp_Chiralities_Consistent>
1

> <s_lp_Variant>
AV-unprocessed.smi:1695-9

> <Gold.Version>
5.8.1

> <Gold.Id.Protein>
6NUR|6NUR_protein|mol2

> <Gold.PLP.Fitness>
53.4024

> <Gold.PLP.PLP>
-47.6075

> <Gold.PLP.part.hbond>
-2.0000

> <Gold.PLP.part.metal>
0.0000

> <Gold.PLP.part.buried>
-7.1399

> <Gold.PLP.part.nonpolar>
-37.9624

> <Gold.PLP.part.repulsive>
0.2518

> <Gold.PLP.ligand.clash>
0.0000

> <Gold.PLP.ligand.torsion>
0.1111

> <Gold.PLP.Chemscore.Hbond>
2.0000

> <Gold.PLP.Chemscore.CHOScore>
0.0000

> <Gold.PLP.Chemscore.Metal>
0.0000

> <Gold.Chemscore.Hbonds>
donor molecule, donor type, donor heavy atom, donor atom, acceptor molecule, acceptor atom, score
      L1  H    10    33       P1  7957  1.00
      P1  H  7997  8010       L1     5  0.94

> <Gold.PLP.Chemscore.Internal.Correction>
0.0171

> <Gold.Rescore>
     Score         DG    S(hbond)    S(metal)    S(lipo)     H(rot)  DE(clash)    DE(int)     intcor
     16.53     -18.12       1.68        0.00     121.08       2.78       0.63       0.95       ----

> <Gold.Chemscore.Fitness>
16.5274

> <Gold.Chemscore.DG>
-18.1165

> <Gold.Chemscore.ZeroCoef>
-5.4800

> <Gold.Chemscore.Hbond>
1.6764

> <Gold.Chemscore.Metal>
0.0000

> <Gold.Chemscore.Lipo>
121.0845

> <Gold.Chemscore.Internal_Hbond>
0.0000

> <Gold.Chemscore.DEClash>
0.6345

> <Gold.Chemscore.DEInternal>
0.9547

> <Gold.Chemscore.Rot>
2.7849

> <Gold.Chemscore.Internal.Correction>
   9.000000E+99

> <Gold.Chemscore.Hbonds>
donor molecule, donor type, donor heavy atom, donor atom, acceptor molecule, acceptor atom, score
      L1  H    10    33       P1  7957  0.96
      P1  H  7997  8010       L1     5  0.19

> <Gold.Chemscore.Hbond.Weighted>
-5.5991

> <Gold.Chemscore.Metal.Weighted>
-0.0000

> <Gold.Chemscore.Lipo.Weighted>
-14.1669

> <Gold.Chemscore.Internal_Hbond.Weighted>
0.0000

> <Gold.Chemscore.DEClash.Weighted>
0.6345

> <Gold.Chemscore.DEInternal.Weighted>
0.9547

> <Gold.Chemscore.Rot.Weighted>
7.1294

> <Gold.Chemscore.Internal.Correction.Weighted>
   9.000000E+99

> <Gold.Protein.RotatedTorsions>
[ 6907 6896 6895 6894 ] final -156.96 input  -60.11 | X-H torsion
[ 7974 7965 7964 7962 ] final   86.01 input  175.53 | X-H torsion
[ 8008 7997 7996 7995 ] final   67.17 input   59.86 | X-H torsion
[ 10167 10162 10161 10158 ] final   94.75 input  -65.29 | X-H torsion
[ 10718 10713 10712 10709 ] final  124.25 input   66.30 | X-H torsion
[ 10763 10752 10751 10750 ] final   33.07 input  -60.55 | X-H torsion
[ 11005 11000 10999 10996 ] final -179.30 input  -57.11 | X-H torsion

> <Gold.Protein.ActiveResidues>
 VAL166  LYS551  ARG553  GLY616  TRP617  ASP618  TYR619  PRO620  LYS621  CYS622 
 ASP623  PHE694  ASN695  SER759  ASP760  ASP761  ALA762  ILE779  LEU786  VAL792 
 PHE793  MET794  SER795  GLU796  ALA797  LYS798  CYS799  TRP800  GLU811  SER814 

> <Gold.Protein.RotatedAtoms>
  151.2955  133.4146  159.2635 H   0  0  0  0  0  0  0  0  0  0  0  0  # atno 6907 bound_to 6896
  151.0240  134.9491  159.8085 H   0  0  0  0  0  0  0  0  0  0  0  0  # atno 6908 bound_to 6896
  152.5331  134.2917  159.9098 H   0  0  0  0  0  0  0  0  0  0  0  0  # atno 6909 bound_to 6896
  145.5779  139.2321  143.2369 H   0  0  0  0  0  0  0  0  0  0  0  0  # atno 7974 bound_to 7965
  155.6887  140.3496  155.4885 H   0  0  0  0  0  0  0  0  0  0  0  0  # atno 8008 bound_to 7997
  155.9543  140.1125  157.0973 H   0  0  0  0  0  0  0  0  0  0  0  0  # atno 8009 bound_to 7997
  154.4129  140.1188  156.5080 H   0  0  0  0  0  0  0  0  0  0  0  0  # atno 8010 bound_to 7997
  139.8054  144.6796  150.9710 H   0  0  0  0  0  0  0  0  0  0  0  0  # atno 10167 bound_to 10162
  157.5600  131.1090  150.8555 H   0  0  0  0  0  0  0  0  0  0  0  0  # atno 10718 bound_to 10713
  153.0230  135.6397  154.1453 H   0  0  0  0  0  0  0  0  0  0  0  0  # atno 10763 bound_to 10752
  154.1186  135.2848  155.3215 H   0  0  0  0  0  0  0  0  0  0  0  0  # atno 10764 bound_to 10752
  154.6280  135.5502  153.7711 H   0  0  0  0  0  0  0  0  0  0  0  0  # atno 10765 bound_to 10752
  140.4202  134.6613  157.4660 H   0  0  0  0  0  0  0  0  0  0  0  0  # atno 11005 bound_to 11000
  146.1737  140.6605  142.9221 LP  0  0  0  0  0  0  0  0  0  0  0  0  # atno 17320 bound_to 7965
  144.7407  140.4935  143.6871 LP  0  0  0  0  0  0  0  0  0  0  0  0  # atno 17321 bound_to 7965
  140.7819  143.4239  151.0798 LP  0  0  0  0  0  0  0  0  0  0  0  0  # atno 17342 bound_to 10162
  139.7909  143.8220  152.3151 LP  0  0  0  0  0  0  0  0  0  0  0  0  # atno 17343 bound_to 10162
  156.9056  130.5262  149.5281 LP  0  0  0  0  0  0  0  0  0  0  0  0  # atno 17370 bound_to 10713
  156.0654  130.5698  150.9277 LP  0  0  0  0  0  0  0  0  0  0  0  0  # atno 17371 bound_to 10713
  140.0206  134.6553  155.9246 LP  0  0  0  0  0  0  0  0  0  0  0  0  # atno 17394 bound_to 11000
  141.1787  133.6543  156.4932 LP  0  0  0  0  0  0  0  0  0  0  0  0  # atno 17395 bound_to 11000

$$$$
