AV-unprocessed.smi:81|AV-procd|sdf|792|dock9
  -GOLD-   2262017173D 1   1.00000     0.00000
 Structure written by MMmdl.
 64 67  0  0  0  0  0  0  0  0  2 V2000
  147.9580  132.1108  161.2502 C   0  0  0  0  0  0  0  0  0  0  0  0
  147.9787  131.9571  159.7204 C   0  0  0  0  0  0  0  0  0  0  0  0
  149.1008  131.0013  159.2921 C   0  0  0  0  0  0  0  0  0  0  0  0
  148.1343  133.3207  159.0080 C   0  0  0  0  0  0  0  0  0  0  0  0
  147.8246  133.2967  157.5740 N   0  0  0  0  0  0  0  0  0  0  0  0
  148.5195  134.1714  156.8068 C   0  0  0  0  0  0  0  0  0  0  0  0
  148.5658  133.9271  155.4733 N   0  0  0  0  0  0  0  0  0  0  0  0
  149.2664  134.7296  154.6672 C   0  0  0  0  0  0  0  0  0  0  0  0
  149.9840  135.8087  154.9836 N   0  0  0  0  0  0  0  0  0  0  0  0
  149.9500  136.0525  156.3247 C   0  0  0  0  0  0  0  0  0  0  0  0
  149.2513  135.2888  157.3019 C   0  0  0  0  0  0  0  0  0  0  0  0
  149.4517  135.8395  158.5621 N   0  0  0  0  0  0  0  0  0  0  0  0
  150.2243  136.8677  158.3429 C   0  0  0  0  0  0  0  0  0  0  0  0
  150.5652  137.0749  157.0257 N   0  0  0  0  0  0  0  0  0  0  0  0
  151.4052  138.1421  156.5047 C   0  0  0  0  0  0  0  0  0  0  0  0
  150.6329  139.1782  155.6529 C   0  0  1  0  0  0  0  0  0  0  0  0
  151.5652  140.0876  155.0888 O   0  0  0  0  0  0  0  0  0  0  0  0
  149.8558  138.5301  154.5170 C   0  0  0  0  0  0  0  0  0  0  0  0
  148.7643  139.5544  154.2355 C   0  0  0  0  0  0  0  0  0  0  0  0
  148.4100  140.0496  155.5184 O   0  0  0  0  0  0  0  0  0  0  0  0
  149.5144  139.9317  156.4140 C   0  0  2  0  0  0  0  0  0  0  0  0
  149.8744  141.3093  156.9951 C   0  0  0  0  0  0  0  0  0  0  0  0
  146.4333  132.9903  157.2015 C   0  0  2  0  0  0  0  0  0  0  0  0
  146.1941  131.5821  156.6053 C   0  0  0  0  0  0  0  0  0  0  0  0
  146.3290  131.5128  155.0719 C   0  0  0  0  0  0  0  0  0  0  0  0
  145.4921  132.5461  154.4201 N   0  3  2  0  0  0  0  0  0  0  0  0
  145.4524  132.3967  152.9498 C   0  0  0  0  0  0  0  0  0  0  0  0
  145.8883  133.9093  154.8425 C   0  0  0  0  0  0  0  0  0  0  0  0
  145.7278  134.0843  156.3639 C   0  0  0  0  0  0  0  0  0  0  0  0
  148.8777  132.5695  161.6146 H   0  0  0  0  0  0  0  0  0  0  0  0
  147.8524  131.1424  161.7402 H   0  0  0  0  0  0  0  0  0  0  0  0
  147.1243  132.7319  161.5780 H   0  0  0  0  0  0  0  0  0  0  0  0
  147.0402  131.4932  159.4157 H   0  0  0  0  0  0  0  0  0  0  0  0
  150.0812  131.3934  159.5643 H   0  0  0  0  0  0  0  0  0  0  0  0
  149.0929  130.8445  158.2130 H   0  0  0  0  0  0  0  0  0  0  0  0
  148.9893  130.0255  159.7658 H   0  0  0  0  0  0  0  0  0  0  0  0
  147.4800  134.0443  159.4955 H   0  0  0  0  0  0  0  0  0  0  0  0
  149.1457  133.6978  159.1543 H   0  0  0  0  0  0  0  0  0  0  0  0
  149.2518  134.4680  153.6194 H   0  0  0  0  0  0  0  0  0  0  0  0
  150.5653  137.5124  159.1403 H   0  0  0  0  0  0  0  0  0  0  0  0
  151.8894  138.6358  157.3485 H   0  0  0  0  0  0  0  0  0  0  0  0
  152.2059  137.6906  155.9175 H   0  0  0  0  0  0  0  0  0  0  0  0
  152.1886  140.3288  155.7572 H   0  0  0  0  0  0  0  0  0  0  0  0
  150.4654  138.3004  153.6417 H   0  0  0  0  0  0  0  0  0  0  0  0
  149.3947  137.6008  154.8551 H   0  0  0  0  0  0  0  0  0  0  0  0
  149.1515  140.3757  153.6308 H   0  0  0  0  0  0  0  0  0  0  0  0
  147.9051  139.1260  153.7189 H   0  0  0  0  0  0  0  0  0  0  0  0
  149.1548  139.2994  157.2261 H   0  0  0  0  0  0  0  0  0  0  0  0
  150.7264  141.2464  157.6713 H   0  0  0  0  0  0  0  0  0  0  0  0
  149.0349  141.7168  157.5589 H   0  0  0  0  0  0  0  0  0  0  0  0
  150.1189  142.0255  156.2105 H   0  0  0  0  0  0  0  0  0  0  0  0
  145.9197  132.9759  158.1638 H   0  0  0  0  0  0  0  0  0  0  0  0
  146.8377  130.8438  157.0846 H   0  0  0  0  0  0  0  0  0  0  0  0
  145.1756  131.2837  156.8563 H   0  0  0  0  0  0  0  0  0  0  0  0
  147.3641  131.6348  154.7543 H   0  0  0  0  0  0  0  0  0  0  0  0
  146.0168  130.5244  154.7324 H   0  0  0  0  0  0  0  0  0  0  0  0
  146.4429  132.5304  152.5161 H   0  0  0  0  0  0  0  0  0  0  0  0
  144.7810  133.1321  152.5049 H   0  0  0  0  0  0  0  0  0  0  0  0
  145.0896  131.4062  152.6729 H   0  0  0  0  0  0  0  0  0  0  0  0
  146.9119  134.1028  154.5270 H   0  0  0  0  0  0  0  0  0  0  0  0
  145.2641  134.6436  154.3320 H   0  0  0  0  0  0  0  0  0  0  0  0
  144.6613  134.0424  156.5887 H   0  0  0  0  0  0  0  0  0  0  0  0
  146.0481  135.0817  156.6651 H   0  0  0  0  0  0  0  0  0  0  0  0
  144.5468  132.4036  154.7464 H   0  0  0  0  0  0  0  0  0  0  0  0
  1  2  1  0  0  0  0
  1 30  1  0  0  0  0
  1 31  1  0  0  0  0
  1 32  1  0  0  0  0
  2  3  1  0  0  0  0
  2  4  1  0  0  0  0
  2 33  1  0  0  0  0
  3 34  1  0  0  0  0
  3 35  1  0  0  0  0
  3 36  1  0  0  0  0
  4  5  1  0  0  0  0
  4 37  1  0  0  0  0
  4 38  1  0  0  0  0
  5  6  1  0  0  0  0
  5 23  1  0  0  0  0
  6 11  1  0  0  0  0
  6  7  2  0  0  0  0
  7  8  1  0  0  0  0
  8  9  2  0  0  0  0
  8 39  1  0  0  0  0
  9 10  1  0  0  0  0
 10 14  1  0  0  0  0
 10 11  2  0  0  0  0
 11 12  1  0  0  0  0
 12 13  2  0  0  0  0
 13 14  1  0  0  0  0
 13 40  1  0  0  0  0
 14 15  1  0  0  0  0
 15 16  1  0  0  0  0
 15 41  1  0  0  0  0
 15 42  1  0  0  0  0
 16 21  1  0  0  0  0
 16 17  1  0  0  0  0
 16 18  1  0  0  0  0
 17 43  1  0  0  0  0
 18 19  1  0  0  0  0
 18 44  1  0  0  0  0
 18 45  1  0  0  0  0
 19 20  1  0  0  0  0
 19 46  1  0  0  0  0
 19 47  1  0  0  0  0
 20 21  1  0  0  0  0
 21 22  1  0  0  0  0
 21 48  1  0  0  0  0
 22 49  1  0  0  0  0
 22 50  1  0  0  0  0
 22 51  1  0  0  0  0
 23 29  1  0  0  0  0
 23 24  1  0  0  0  0
 23 52  1  0  0  0  0
 24 25  1  0  0  0  0
 24 53  1  0  0  0  0
 24 54  1  0  0  0  0
 25 26  1  0  0  0  0
 25 55  1  0  0  0  0
 25 56  1  0  0  0  0
 26 27  1  0  0  0  0
 26 28  1  0  0  0  0
 26 64  1  0  0  0  0
 27 57  1  0  0  0  0
 27 58  1  0  0  0  0
 27 59  1  0  0  0  0
 28 29  1  0  0  0  0
 28 60  1  0  0  0  0
 28 61  1  0  0  0  0
 29 62  1  0  0  0  0
 29 63  1  0  0  0  0
M  CHG  1  26   1
M  END
> <s_m_source_file>
AV-unprocessed.smi

> <i_m_source_file_index>
81

> <i_lp_mmshare_version>
43012

> <i_f3d_flags>
0

> <s_epik_input>
W0NIMl0xW0NIMl1OKFtDSDNdKVtDSDJdW0NIMl1bQ0hdMU4oW0NIMl1bQ0hdKFtDSDNdKVtDSDNdKWMobltjSF1uMiljKGMyMyluW2NIXW4zW0NIMl1bQ0BAXTQoW09IXSlbQ0gyXVtDSDJdT1tDQEhdNFtDSDNd

> <s_epik_cmdline>
J2VwaWtfcHl0aG9uJywgJy1waCcsICc3LjAnLCAnLXRuJywgJzgnLCAnLW1hJywgJzIwMCcsICctbWV0YWxfYmluZGluZycsICctaW1hZScsICc8aW5maWxlLm1hZT4nLCAnLW9tYWUnLCAnPG91dGZpbGUubWFlPic=

> <r_lp_tautomer_probability>
1

> <r_epik_Ionization_Penalty>
0.00272708

> <r_epik_Ionization_Penalty_Charging>
0.00158983

> <r_epik_Ionization_Penalty_Neutral>
0.00113725

> <r_epik_State_Penalty>
-0

> <r_epik_Charging_Adjusted_Penalty>
0.00158983

> <i_epik_Tot_Q>
1

> <i_epik_Tot_abs_Q>
1

> <r_epik_Metal_State_Penalty>
-0

> <b_epik_Metal_Only>
0

> <s_lp_Force_Field>
OPLS_2005

> <r_lp_Energy>
48.65

> <b_lp_Chiralities_Consistent>
1

> <s_lp_Variant>
AV-unprocessed.smi:81-7

> <Gold.Version>
5.8.1

> <Gold.Id.Protein>
6NUR|6NUR_protein|mol2

> <Gold.PLP.Fitness>
37.1629

> <Gold.PLP.PLP>
-25.0578

> <Gold.PLP.part.hbond>
-3.0000

> <Gold.PLP.part.metal>
0.0000

> <Gold.PLP.part.buried>
-4.7799

> <Gold.PLP.part.nonpolar>
-18.6701

> <Gold.PLP.part.repulsive>
0.2326

> <Gold.PLP.ligand.clash>
0.0000

> <Gold.PLP.ligand.torsion>
1.2219

> <Gold.PLP.Chemscore.Hbond>
3.9500

> <Gold.PLP.Chemscore.CHOScore>
0.4285

> <Gold.PLP.Chemscore.Metal>
0.0000

> <Gold.Chemscore.Hbonds>
donor molecule, donor type, donor heavy atom, donor atom, acceptor molecule, acceptor atom, score
      L1  H    26    64       P1 10957  2.00
      P1  H  6896  6909       L1    12  1.00
      P1  H  7989  7998       L1    17  1.00
      L1  C     8    39       P1  7948  0.52

> <Gold.PLP.Chemscore.Internal.Correction>
1.4136

> <Gold.Rescore>
     Score         DG    S(hbond)    S(metal)    S(lipo)     H(rot)  DE(clash)    DE(int)     intcor
      6.48     -12.94       2.07        0.00      55.34       2.32       0.00       6.45       ----

> <Gold.Chemscore.Fitness>
6.4820

> <Gold.Chemscore.DG>
-12.9352

> <Gold.Chemscore.ZeroCoef>
-5.4800

> <Gold.Chemscore.Hbond>
2.0689

> <Gold.Chemscore.Metal>
0.0000

> <Gold.Chemscore.Lipo>
55.3405

> <Gold.Chemscore.Internal_Hbond>
0.0000

> <Gold.Chemscore.DEClash>
0.0048

> <Gold.Chemscore.DEInternal>
6.4484

> <Gold.Chemscore.Rot>
2.3163

> <Gold.Chemscore.Internal.Correction>
   9.000000E+99

> <Gold.Chemscore.Hbonds>
donor molecule, donor type, donor heavy atom, donor atom, acceptor molecule, acceptor atom, score
      L1  H    26    64       P1 10957  0.80
      P1  H  6896  6909       L1    12  0.17
      P1  H  7989  7998       L1    17  0.93

> <Gold.Chemscore.Hbond.Weighted>
-6.9101

> <Gold.Chemscore.Metal.Weighted>
-0.0000

> <Gold.Chemscore.Lipo.Weighted>
-6.4748

> <Gold.Chemscore.Internal_Hbond.Weighted>
0.0000

> <Gold.Chemscore.DEClash.Weighted>
0.0048

> <Gold.Chemscore.DEInternal.Weighted>
6.4484

> <Gold.Chemscore.Rot.Weighted>
5.9297

> <Gold.Chemscore.Internal.Correction.Weighted>
   9.000000E+99

> <Gold.Protein.RotatedTorsions>
[ 6907 6896 6895 6894 ] final   56.44 input  -60.11 | X-H torsion
[ 7974 7965 7964 7962 ] final  169.24 input  175.53 | X-H torsion
[ 8008 7997 7996 7995 ] final   95.60 input   59.86 | X-H torsion
[ 10167 10162 10161 10158 ] final  142.83 input  -65.29 | X-H torsion
[ 10718 10713 10712 10709 ] final   82.37 input   66.30 | X-H torsion
[ 10763 10752 10751 10750 ] final  -99.53 input  -60.55 | X-H torsion
[ 11005 11000 10999 10996 ] final -111.42 input  -57.11 | X-H torsion

> <Gold.Protein.ActiveResidues>
 VAL166  LYS551  ARG553  GLY616  TRP617  ASP618  TYR619  PRO620  LYS621  CYS622 
 ASP623  PHE694  ASN695  SER759  ASP760  ASP761  ALA762  ILE779  LEU786  VAL792 
 PHE793  MET794  SER795  GLU796  ALA797  LYS798  CYS799  TRP800  GLU811  SER814 

> <Gold.Protein.RotatedAtoms>
  152.3636  134.6837  160.0199 H   0  0  0  0  0  0  0  0  0  0  0  0  # atno 6907 bound_to 6896
  151.7152  133.3307  159.3309 H   0  0  0  0  0  0  0  0  0  0  0  0  # atno 6908 bound_to 6896
  150.7622  134.6431  159.6292 H   0  0  0  0  0  0  0  0  0  0  0  0  # atno 6909 bound_to 6896
  144.7362  139.9025  143.6410 H   0  0  0  0  0  0  0  0  0  0  0  0  # atno 7974 bound_to 7965
  156.0707  140.3284  155.7572 H   0  0  0  0  0  0  0  0  0  0  0  0  # atno 8008 bound_to 7997
  155.5310  140.0593  157.2906 H   0  0  0  0  0  0  0  0  0  0  0  0  # atno 8009 bound_to 7997
  154.4528  140.1927  156.0484 H   0  0  0  0  0  0  0  0  0  0  0  0  # atno 8010 bound_to 7997
  139.4984  144.6081  151.6333 H   0  0  0  0  0  0  0  0  0  0  0  0  # atno 10167 bound_to 10162
  157.6855  131.0045  150.2365 H   0  0  0  0  0  0  0  0  0  0  0  0  # atno 10718 bound_to 10713
  154.7505  135.4969  153.9281 H   0  0  0  0  0  0  0  0  0  0  0  0  # atno 10763 bound_to 10752
  153.1138  135.6715  153.9461 H   0  0  0  0  0  0  0  0  0  0  0  0  # atno 10764 bound_to 10752
  153.9213  135.3088  155.3426 H   0  0  0  0  0  0  0  0  0  0  0  0  # atno 10765 bound_to 10752
  141.0735  133.9340  157.2437 H   0  0  0  0  0  0  0  0  0  0  0  0  # atno 11005 bound_to 11000
  146.1061  139.4061  143.0316 LP  0  0  0  0  0  0  0  0  0  0  0  0  # atno 17320 bound_to 7965
  145.7509  140.9973  143.1251 LP  0  0  0  0  0  0  0  0  0  0  0  0  # atno 17321 bound_to 7965
  140.5748  144.0047  150.6236 LP  0  0  0  0  0  0  0  0  0  0  0  0  # atno 17342 bound_to 10162
  140.3176  143.3157  152.0816 LP  0  0  0  0  0  0  0  0  0  0  0  0  # atno 17343 bound_to 10162
  156.2987  130.3755  149.7771 LP  0  0  0  0  0  0  0  0  0  0  0  0  # atno 17370 bound_to 10713
  156.5407  130.8299  151.3268 LP  0  0  0  0  0  0  0  0  0  0  0  0  # atno 17371 bound_to 10713
  139.9547  135.0168  156.9095 LP  0  0  0  0  0  0  0  0  0  0  0  0  # atno 17394 bound_to 11000
  140.5623  134.0523  155.7403 LP  0  0  0  0  0  0  0  0  0  0  0  0  # atno 17395 bound_to 11000

$$$$
