AV-unprocessed.smi:1952|AV-procd|sdf|7885|dock1
  -GOLD-   2272010 33D 1   1.00000     0.00000
 Structure written by MMmdl.
 40 41  0  0  0  0  0  0  0  0  2 V2000
  152.7686  140.4355  158.4167 C   0  0  0  0  0  0  0  0  0  0  0  0
  152.3566  139.7048  157.1849 C   0  0  0  0  0  0  0  0  0  0  0  0
  151.2509  139.7800  156.3851 C   0  0  0  0  0  0  0  0  0  0  0  0
  151.5118  138.8035  155.3875 C   0  0  0  0  0  0  0  0  0  0  0  0
  150.5828  138.5639  154.3429 N   0  0  0  0  0  0  0  0  0  0  0  0
  149.2905  138.9291  154.2985 C   0  0  0  0  0  0  0  0  0  0  0  0
  148.6924  139.5302  155.1911 O   0  0  0  0  0  0  0  0  0  0  0  0
  148.7187  138.5637  153.1411 N   0  0  0  0  0  0  0  0  0  0  0  0
  147.3166  138.7650  152.7715 C   0  0  2  0  0  0  0  0  0  0  0  0
  146.8998  140.1895  153.1630 C   0  0  0  0  0  0  0  0  0  0  0  0
  146.3966  137.7124  153.4336 C   0  0  0  0  0  0  0  0  0  0  0  0
  146.3288  136.4353  152.6788 N   0  3  0  0  0  0  0  0  0  0  0  0
  145.9319  135.2832  153.5213 C   0  0  0  0  0  0  0  0  0  0  0  0
  145.9562  133.9856  152.6954 C   0  0  0  0  0  0  0  0  0  0  0  0
  145.1068  134.1212  151.5625 O   0  0  0  0  0  0  0  0  0  0  0  0
  145.5267  135.1745  150.7038 C   0  0  0  0  0  0  0  0  0  0  0  0
  145.4769  136.5083  151.4668 C   0  0  0  0  0  0  0  0  0  0  0  0
  152.6688  138.1842  155.5648 N   0  0  0  0  0  0  0  0  0  0  0  0
  153.2172  138.7602  156.7169 O   0  0  0  0  0  0  0  0  0  0  0  0
  151.9359  141.0069  158.8272 H   0  0  0  0  0  0  0  0  0  0  0  0
  153.5809  141.1294  158.2002 H   0  0  0  0  0  0  0  0  0  0  0  0
  153.1114  139.7408  159.1835 H   0  0  0  0  0  0  0  0  0  0  0  0
  150.3967  140.4311  156.4977 H   0  0  0  0  0  0  0  0  0  0  0  0
  150.9428  138.0618  153.5446 H   0  0  0  0  0  0  0  0  0  0  0  0
  149.2927  138.0749  152.4692 H   0  0  0  0  0  0  0  0  0  0  0  0
  147.2222  138.6979  151.6870 H   0  0  0  0  0  0  0  0  0  0  0  0
  145.8681  140.3900  152.8719 H   0  0  0  0  0  0  0  0  0  0  0  0
  147.5286  140.9322  152.6710 H   0  0  0  0  0  0  0  0  0  0  0  0
  146.9777  140.3468  154.2394 H   0  0  0  0  0  0  0  0  0  0  0  0
  146.7767  137.5148  154.4372 H   0  0  0  0  0  0  0  0  0  0  0  0
  145.3885  138.1086  153.5658 H   0  0  0  0  0  0  0  0  0  0  0  0
  146.6129  135.1895  154.3680 H   0  0  0  0  0  0  0  0  0  0  0  0
  144.9333  135.4527  153.9272 H   0  0  0  0  0  0  0  0  0  0  0  0
  146.9719  133.7459  152.3764 H   0  0  0  0  0  0  0  0  0  0  0  0
  145.6066  133.1489  153.3004 H   0  0  0  0  0  0  0  0  0  0  0  0
  146.5321  134.9773  150.3274 H   0  0  0  0  0  0  0  0  0  0  0  0
  144.8642  135.2111  149.8389 H   0  0  0  0  0  0  0  0  0  0  0  0
  144.4488  136.7375  151.7512 H   0  0  0  0  0  0  0  0  0  0  0  0
  145.8127  137.3116  150.8118 H   0  0  0  0  0  0  0  0  0  0  0  0
  147.2689  136.2423  152.3621 H   0  0  0  0  0  0  0  0  0  0  0  0
  1  2  1  0  0  0  0
  1 20  1  0  0  0  0
  1 21  1  0  0  0  0
  1 22  1  0  0  0  0
  2 19  1  0  0  0  0
  2  3  2  0  0  0  0
  3  4  1  0  0  0  0
  3 23  1  0  0  0  0
  4  5  1  0  0  0  0
  4 18  2  0  0  0  0
  5  6  1  0  0  0  0
  5 24  1  0  0  0  0
  6  7  2  0  0  0  0
  6  8  1  0  0  0  0
  8  9  1  0  0  0  0
  8 25  1  0  0  0  0
  9 10  1  0  0  0  0
  9 11  1  0  0  0  0
  9 26  1  0  0  0  0
 10 27  1  0  0  0  0
 10 28  1  0  0  0  0
 10 29  1  0  0  0  0
 11 12  1  0  0  0  0
 11 30  1  0  0  0  0
 11 31  1  0  0  0  0
 12 17  1  0  0  0  0
 12 13  1  0  0  0  0
 12 40  1  0  0  0  0
 13 14  1  0  0  0  0
 13 32  1  0  0  0  0
 13 33  1  0  0  0  0
 14 15  1  0  0  0  0
 14 34  1  0  0  0  0
 14 35  1  0  0  0  0
 15 16  1  0  0  0  0
 16 17  1  0  0  0  0
 16 36  1  0  0  0  0
 16 37  1  0  0  0  0
 17 38  1  0  0  0  0
 17 39  1  0  0  0  0
 18 19  1  0  0  0  0
M  CHG  1  12   1
M  END
> <s_m_source_file>
AV-unprocessed.smi

> <i_m_source_file_index>
1952

> <i_lp_mmshare_version>
43012

> <i_f3d_flags>
0

> <s_epik_input>
W0NIM11jMVtjSF1jKG5vMSlbTkhdQyg9TylbTkhdW0NASF0oW0NIM10pW0NIMl1OMltDSDJdW0NIMl1PW0NIMl1bQ0gyXTI=

> <s_epik_cmdline>
J2VwaWtfcHl0aG9uJywgJy1waCcsICc3LjAnLCAnLXRuJywgJzgnLCAnLW1hJywgJzIwMCcsICctbWV0YWxfYmluZGluZycsICctaW1hZScsICc8aW5maWxlLm1hZT4nLCAnLW9tYWUnLCAnPG91dGZpbGUubWFlPic=

> <r_epik_Ionization_Penalty>
0.707079

> <r_epik_Ionization_Penalty_Charging>
0.707039

> <r_epik_Ionization_Penalty_Neutral>
4.01892e-05

> <r_epik_State_Penalty>
0.730276

> <r_epik_Charging_Adjusted_Penalty>
1.43732

> <i_epik_Tot_Q>
1

> <i_epik_Tot_abs_Q>
1

> <r_epik_Metal_State_Penalty>
0.744847

> <b_epik_Metal_Only>
0

> <s_lp_Force_Field>
OPLS_2005

> <r_lp_Energy>
19.2222

> <b_lp_Chiralities_Consistent>
1

> <s_lp_Variant>
AV-unprocessed.smi:1952-3

> <Gold.Version>
5.8.1

> <Gold.Id.Protein>
6NUR|6NUR_protein|mol2

> <Gold.PLP.Fitness>
36.1383

> <Gold.PLP.PLP>
-26.8495

> <Gold.PLP.part.hbond>
-3.9638

> <Gold.PLP.part.metal>
0.0000

> <Gold.PLP.part.buried>
0.9578

> <Gold.PLP.part.nonpolar>
-23.9262

> <Gold.PLP.part.repulsive>
0.3535

> <Gold.PLP.ligand.clash>
0.0000

> <Gold.PLP.ligand.torsion>
0.7525

> <Gold.PLP.Chemscore.Hbond>
3.5760

> <Gold.PLP.Chemscore.CHOScore>
0.0000

> <Gold.PLP.Chemscore.Metal>
0.0000

> <Gold.Chemscore.Hbonds>
donor molecule, donor type, donor heavy atom, donor atom, acceptor molecule, acceptor atom, score
      L1  H     8    25       P1  7948  0.51
      L1  H    12    40       P1  7948  2.00
      P1  H  7997  8008       L1    19  0.30

> <Gold.PLP.Chemscore.Internal.Correction>
0.0656

> <Gold.Rescore>
     Score         DG    S(hbond)    S(metal)    S(lipo)     H(rot)  DE(clash)    DE(int)     intcor
     11.89     -16.47       2.58        0.00      55.51       1.61       1.01       3.56       ----

> <Gold.Chemscore.Fitness>
11.8935

> <Gold.Chemscore.DG>
-16.4687

> <Gold.Chemscore.ZeroCoef>
-5.4800

> <Gold.Chemscore.Hbond>
2.5779

> <Gold.Chemscore.Metal>
0.0000

> <Gold.Chemscore.Lipo>
55.5081

> <Gold.Chemscore.Internal_Hbond>
0.0000

> <Gold.Chemscore.DEClash>
1.0116

> <Gold.Chemscore.DEInternal>
3.5636

> <Gold.Chemscore.Rot>
1.6078

> <Gold.Chemscore.Internal.Correction>
   9.000000E+99

> <Gold.Chemscore.Hbonds>
donor molecule, donor type, donor heavy atom, donor atom, acceptor molecule, acceptor atom, score
      L1  H     8    25       P1  7948  0.44
      L1  H    12    40       P1  7948  1.00

> <Gold.Chemscore.Hbond.Weighted>
-8.6101

> <Gold.Chemscore.Metal.Weighted>
-0.0000

> <Gold.Chemscore.Lipo.Weighted>
-6.4944

> <Gold.Chemscore.Internal_Hbond.Weighted>
0.0000

> <Gold.Chemscore.DEClash.Weighted>
1.0116

> <Gold.Chemscore.DEInternal.Weighted>
3.5636

> <Gold.Chemscore.Rot.Weighted>
4.1158

> <Gold.Chemscore.Internal.Correction.Weighted>
   9.000000E+99

> <Gold.Protein.RotatedTorsions>
[ 6907 6896 6895 6894 ] final  -92.92 input  -60.11 | X-H torsion
[ 7974 7965 7964 7962 ] final  -23.05 input  175.53 | X-H torsion
[ 8008 7997 7996 7995 ] final  -54.58 input   59.86 | X-H torsion
[ 10167 10162 10161 10158 ] final   16.19 input  -65.29 | X-H torsion
[ 10718 10713 10712 10709 ] final  -23.97 input   66.30 | X-H torsion
[ 10763 10752 10751 10750 ] final  170.68 input  -60.55 | X-H torsion
[ 11005 11000 10999 10996 ] final -115.88 input  -57.11 | X-H torsion

> <Gold.Protein.ActiveResidues>
 VAL166  LYS551  ARG553  GLY616  TRP617  ASP618  TYR619  PRO620  LYS621  CYS622 
 ASP623  PHE694  ASN695  SER759  ASP760  ASP761  ALA762  ILE779  LEU786  VAL792 
 PHE793  MET794  SER795  GLU796  ALA797  LYS798  CYS799  TRP800  GLU811  SER814 

> <Gold.Protein.RotatedAtoms>
  150.6914  134.2047  159.4335 H   0  0  0  0  0  0  0  0  0  0  0  0  # atno 6907 bound_to 6896
  152.0012  134.9925  160.0574 H   0  0  0  0  0  0  0  0  0  0  0  0  # atno 6908 bound_to 6896
  152.1577  133.4527  159.4882 H   0  0  0  0  0  0  0  0  0  0  0  0  # atno 6909 bound_to 6896
  146.1639  140.4563  142.8560 H   0  0  0  0  0  0  0  0  0  0  0  0  # atno 7974 bound_to 7965
  154.4167  140.1173  156.5339 H   0  0  0  0  0  0  0  0  0  0  0  0  # atno 8008 bound_to 7997
  155.6578  140.3496  155.4752 H   0  0  0  0  0  0  0  0  0  0  0  0  # atno 8009 bound_to 7997
  155.9739  140.1147  157.0777 H   0  0  0  0  0  0  0  0  0  0  0  0  # atno 8010 bound_to 7997
  140.5815  143.8972  150.6793 H   0  0  0  0  0  0  0  0  0  0  0  0  # atno 10167 bound_to 10162
  156.4840  130.4551  149.6795 H   0  0  0  0  0  0  0  0  0  0  0  0  # atno 10718 bound_to 10713
  154.4010  135.2755  155.2096 H   0  0  0  0  0  0  0  0  0  0  0  0  # atno 10763 bound_to 10752
  154.4122  135.6020  153.5963 H   0  0  0  0  0  0  0  0  0  0  0  0  # atno 10764 bound_to 10752
  152.9831  135.5952  154.4278 H   0  0  0  0  0  0  0  0  0  0  0  0  # atno 10765 bound_to 10752
  141.0459  133.9763  157.2918 H   0  0  0  0  0  0  0  0  0  0  0  0  # atno 11005 bound_to 11000
  144.8065  140.6309  143.6443 LP  0  0  0  0  0  0  0  0  0  0  0  0  # atno 17320 bound_to 7965
  145.4517  139.1523  143.3915 LP  0  0  0  0  0  0  0  0  0  0  0  0  # atno 17321 bound_to 7965
  140.2472  143.3619  152.1436 LP  0  0  0  0  0  0  0  0  0  0  0  0  # atno 17342 bound_to 10162
  139.5172  144.6989  151.5551 LP  0  0  0  0  0  0  0  0  0  0  0  0  # atno 17343 bound_to 10162
  156.3493  130.7423  151.2381 LP  0  0  0  0  0  0  0  0  0  0  0  0  # atno 17370 bound_to 10713
  157.7480  131.0381  150.4489 LP  0  0  0  0  0  0  0  0  0  0  0  0  # atno 17371 bound_to 10713
  139.9311  135.0200  156.8404 LP  0  0  0  0  0  0  0  0  0  0  0  0  # atno 17394 bound_to 11000
  140.6148  134.0049  155.7592 LP  0  0  0  0  0  0  0  0  0  0  0  0  # atno 17395 bound_to 11000

$$$$
