AV-unprocessed.smi:143|AV-procd|sdf|1194|dock1
  -GOLD-   2262018353D 1   1.00000     0.00000
 Structure written by MMmdl.
 38 40  0  0  0  0  0  0  0  0  1 V2000
  152.3117  139.4314  158.2164 O   0  0  0  0  0  0  0  0  0  0  0  0
  152.1631  140.6551  158.2131 C   0  0  0  0  0  0  0  0  0  0  0  0
  151.7164  141.3746  156.9222 C   0  0  0  0  0  0  0  0  0  0  0  0
  151.0424  140.4905  155.9774 N   0  0  0  0  0  0  0  0  0  0  0  0
  151.7660  139.3788  155.4793 C   0  0  0  0  0  0  0  0  0  0  0  0
  152.9323  139.1548  155.8075 O   0  0  0  0  0  0  0  0  0  0  0  0
  151.0094  138.5224  154.5743 C   0  0  0  0  0  0  0  0  0  0  0  0
  151.5841  137.4177  154.0696 F   0  0  0  0  0  0  0  0  0  0  0  0
  149.7307  138.8081  154.2477 C   0  0  0  0  0  0  0  0  0  0  0  0
  149.0535  139.9228  154.7213 N   0  0  0  0  0  0  0  0  0  0  0  0
  147.5845  140.1789  154.4188 C   0  0  1  0  0  0  0  0  0  0  0  0
  147.2609  140.3128  152.9243 C   0  0  0  0  0  0  0  0  0  0  0  0
  146.7543  138.9228  152.5483 C   0  0  0  0  0  0  0  0  0  0  0  0
  146.8411  138.1106  153.8445 C   0  0  0  0  0  0  0  0  0  0  0  0
  146.8445  139.0909  154.8733 O   0  0  0  0  0  0  0  0  0  0  0  0
  149.6942  140.7744  155.6500 C   0  0  0  0  0  0  0  0  0  0  0  0
  149.0924  141.7238  156.1579 O   0  0  0  0  0  0  0  0  0  0  0  0
  152.3978  141.4966  159.4231 C   0  0  0  0  0  0  0  0  0  0  0  0
  153.2221  141.0008  160.4609 C   0  0  0  0  0  0  0  0  0  0  0  0
  153.4673  141.7709  161.6142 C   0  0  0  0  0  0  0  0  0  0  0  0
  152.8921  143.0482  161.7445 C   0  0  0  0  0  0  0  0  0  0  0  0
  153.2270  144.0910  163.3009 Br  0  0  0  0  0  0  0  0  0  0  0  0
  152.0694  143.5525  160.7205 C   0  0  0  0  0  0  0  0  0  0  0  0
  151.8223  142.7828  159.5669 C   0  0  0  0  0  0  0  0  0  0  0  0
  151.0401  142.2010  157.1466 H   0  0  0  0  0  0  0  0  0  0  0  0
  152.5670  141.8251  156.4088 H   0  0  0  0  0  0  0  0  0  0  0  0
  149.2287  138.1103  153.5964 H   0  0  0  0  0  0  0  0  0  0  0  0
  147.3303  141.0907  154.9616 H   0  0  0  0  0  0  0  0  0  0  0  0
  146.4541  141.0383  152.8138 H   0  0  0  0  0  0  0  0  0  0  0  0
  148.1072  140.6718  152.3392 H   0  0  0  0  0  0  0  0  0  0  0  0
  145.7205  138.9844  152.2064 H   0  0  0  0  0  0  0  0  0  0  0  0
  147.3417  138.4684  151.7501 H   0  0  0  0  0  0  0  0  0  0  0  0
  146.0081  137.4170  153.9599 H   0  0  0  0  0  0  0  0  0  0  0  0
  147.7651  137.5320  153.8824 H   0  0  0  0  0  0  0  0  0  0  0  0
  153.6766  140.0235  160.3846 H   0  0  0  0  0  0  0  0  0  0  0  0
  154.0988  141.3801  162.3985 H   0  0  0  0  0  0  0  0  0  0  0  0
  151.6259  144.5325  160.8183 H   0  0  0  0  0  0  0  0  0  0  0  0
  151.1859  143.2043  158.8036 H   0  0  0  0  0  0  0  0  0  0  0  0
  1  2  2  0  0  0  0
  2  3  1  0  0  0  0
  2 18  1  0  0  0  0
  3  4  1  0  0  0  0
  3 25  1  0  0  0  0
  3 26  1  0  0  0  0
  4 16  1  0  0  0  0
  4  5  1  0  0  0  0
  5  6  2  0  0  0  0
  5  7  1  0  0  0  0
  7  8  1  0  0  0  0
  7  9  2  0  0  0  0
  9 10  1  0  0  0  0
  9 27  1  0  0  0  0
 10 11  1  0  0  0  0
 10 16  1  0  0  0  0
 11 15  1  0  0  0  0
 11 12  1  0  0  0  0
 11 28  1  0  0  0  0
 12 13  1  0  0  0  0
 12 29  1  0  0  0  0
 12 30  1  0  0  0  0
 13 14  1  0  0  0  0
 13 31  1  0  0  0  0
 13 32  1  0  0  0  0
 14 15  1  0  0  0  0
 14 33  1  0  0  0  0
 14 34  1  0  0  0  0
 16 17  2  0  0  0  0
 18 24  1  0  0  0  0
 18 19  2  0  0  0  0
 19 20  1  0  0  0  0
 19 35  1  0  0  0  0
 20 21  2  0  0  0  0
 20 36  1  0  0  0  0
 21 22  1  0  0  0  0
 21 23  1  0  0  0  0
 23 24  2  0  0  0  0
 23 37  1  0  0  0  0
 24 38  1  0  0  0  0
M  END
> <s_m_source_file>
AV-unprocessed.smi

> <i_m_source_file_index>
143

> <i_lp_mmshare_version>
43012

> <i_f3d_flags>
0

> <s_epik_input>
W2NIXTFbY0hdYyhCcilbY0hdW2NIXWMxQyg9TylbQ0gyXW4yYyg9TyljKEYpW2NIXW4oYzI9TylbQ0BASF0zW0NIMl1bQ0gyXVtDSDJdTzM=

> <s_epik_cmdline>
J2VwaWtfcHl0aG9uJywgJy1waCcsICc3LjAnLCAnLXRuJywgJzgnLCAnLW1hJywgJzIwMCcsICctbWV0YWxfYmluZGluZycsICctaW1hZScsICc8aW5maWxlLm1hZT4nLCAnLW9tYWUnLCAnPG91dGZpbGUubWFlPic=

> <r_lp_tautomer_probability>
1

> <r_epik_Ionization_Penalty>
4.7008e-09

> <r_epik_Ionization_Penalty_Charging>
4.69459e-09

> <r_epik_Ionization_Penalty_Neutral>
6.21034e-12

> <r_epik_State_Penalty>
-0

> <r_epik_Charging_Adjusted_Penalty>
4.69459e-09

> <i_epik_Tot_Q>
0

> <i_epik_Tot_abs_Q>
0

> <r_epik_Metal_State_Penalty>
-0

> <b_epik_Metal_Only>
0

> <s_epik_Chemistry_Notes>
This compound contains an acetal/aminal-like group ( X-CH(R)-Y where X, Y are N, S, or O) that may be acid/base labile, releasing an aldehyde.

> <s_lp_Force_Field>
OPLS_2005

> <r_lp_Energy>
39.4707

> <b_lp_Chiralities_Consistent>
1

> <s_lp_Variant>
AV-unprocessed.smi:143-2

> <Gold.Version>
5.8.1

> <Gold.Id.Protein>
6NUR|6NUR_protein|mol2

> <Gold.PLP.Fitness>
53.6433

> <Gold.PLP.PLP>
-48.6661

> <Gold.PLP.part.hbond>
-1.0000

> <Gold.PLP.part.metal>
0.0000

> <Gold.PLP.part.buried>
-1.5169

> <Gold.PLP.part.nonpolar>
-44.8934

> <Gold.PLP.part.repulsive>
0.3500

> <Gold.PLP.ligand.clash>
0.0075

> <Gold.PLP.ligand.torsion>
0.5570

> <Gold.PLP.Chemscore.Hbond>
1.0000

> <Gold.PLP.Chemscore.CHOScore>
0.9920

> <Gold.PLP.Chemscore.Metal>
0.0000

> <Gold.Chemscore.Hbonds>
donor molecule, donor type, donor heavy atom, donor atom, acceptor molecule, acceptor atom, score
      P1  H  7997  8010       L1     6  1.00
      L1  C     9    27       P1  7948  0.96

> <Gold.PLP.Chemscore.Internal.Correction>
0.1226

> <Gold.Rescore>
     Score         DG    S(hbond)    S(metal)    S(lipo)     H(rot)  DE(clash)    DE(int)     intcor
     11.77     -18.10       1.00        0.00     113.94       1.58       2.10       4.23       ----

> <Gold.Chemscore.Fitness>
11.7711

> <Gold.Chemscore.DG>
-18.1039

> <Gold.Chemscore.ZeroCoef>
-5.4800

> <Gold.Chemscore.Hbond>
0.9968

> <Gold.Chemscore.Metal>
0.0000

> <Gold.Chemscore.Lipo>
113.9352

> <Gold.Chemscore.Internal_Hbond>
0.0000

> <Gold.Chemscore.DEClash>
2.1016

> <Gold.Chemscore.DEInternal>
4.2313

> <Gold.Chemscore.Rot>
1.5765

> <Gold.Chemscore.Internal.Correction>
   9.000000E+99

> <Gold.Chemscore.Hbonds>
donor molecule, donor type, donor heavy atom, donor atom, acceptor molecule, acceptor atom, score
      P1  H  7997  8010       L1     6  1.00

> <Gold.Chemscore.Hbond.Weighted>
-3.3294

> <Gold.Chemscore.Metal.Weighted>
-0.0000

> <Gold.Chemscore.Lipo.Weighted>
-13.3304

> <Gold.Chemscore.Internal_Hbond.Weighted>
0.0000

> <Gold.Chemscore.DEClash.Weighted>
2.1016

> <Gold.Chemscore.DEInternal.Weighted>
4.2313

> <Gold.Chemscore.Rot.Weighted>
4.0359

> <Gold.Chemscore.Internal.Correction.Weighted>
   9.000000E+99

> <Gold.Protein.RotatedTorsions>
[ 6907 6896 6895 6894 ] final -170.44 input  -60.11 | X-H torsion
[ 7974 7965 7964 7962 ] final   84.08 input  175.53 | X-H torsion
[ 8008 7997 7996 7995 ] final   88.88 input   59.86 | X-H torsion
[ 10167 10162 10161 10158 ] final  143.84 input  -65.29 | X-H torsion
[ 10718 10713 10712 10709 ] final  150.01 input   66.30 | X-H torsion
[ 10763 10752 10751 10750 ] final -111.54 input  -60.55 | X-H torsion
[ 11005 11000 10999 10996 ] final  137.87 input  -57.11 | X-H torsion

> <Gold.Protein.ActiveResidues>
 VAL166  LYS551  ARG553  GLY616  TRP617  ASP618  TYR619  PRO620  LYS621  CYS622 
 ASP623  PHE694  ASN695  SER759  ASP760  ASP761  ALA762  ILE779  LEU786  VAL792 
 PHE793  MET794  SER795  GLU796  ALA797  LYS798  CYS799  TRP800  GLU811  SER814 

> <Gold.Protein.RotatedAtoms>
  151.5077  133.3491  159.2879 H   0  0  0  0  0  0  0  0  0  0  0  0  # atno 6907 bound_to 6896
  150.8732  134.8112  159.7181 H   0  0  0  0  0  0  0  0  0  0  0  0  # atno 6908 bound_to 6896
  152.4713  134.4964  159.9763 H   0  0  0  0  0  0  0  0  0  0  0  0  # atno 6909 bound_to 6896
  145.6035  139.2356  143.2232 H   0  0  0  0  0  0  0  0  0  0  0  0  # atno 7974 bound_to 7965
  155.9932  140.3367  155.6773 H   0  0  0  0  0  0  0  0  0  0  0  0  # atno 8008 bound_to 7997
  155.6392  140.0693  157.2642 H   0  0  0  0  0  0  0  0  0  0  0  0  # atno 8009 bound_to 7997
  154.4226  140.1745  156.1542 H   0  0  0  0  0  0  0  0  0  0  0  0  # atno 8010 bound_to 7997
  139.4960  144.6013  151.6474 H   0  0  0  0  0  0  0  0  0  0  0  0  # atno 10167 bound_to 10162
  157.2888  131.0849  151.1477 H   0  0  0  0  0  0  0  0  0  0  0  0  # atno 10718 bound_to 10713
  154.8305  135.4523  154.1055 H   0  0  0  0  0  0  0  0  0  0  0  0  # atno 10763 bound_to 10752
  153.2332  135.6908  153.7873 H   0  0  0  0  0  0  0  0  0  0  0  0  # atno 10764 bound_to 10752
  153.7248  135.3336  155.3250 H   0  0  0  0  0  0  0  0  0  0  0  0  # atno 10765 bound_to 10752
  140.0144  134.9425  157.0344 H   0  0  0  0  0  0  0  0  0  0  0  0  # atno 11005 bound_to 11000
  146.1558  140.6859  142.9300 LP  0  0  0  0  0  0  0  0  0  0  0  0  # atno 17320 bound_to 7965
  144.7300  140.4642  143.6945 LP  0  0  0  0  0  0  0  0  0  0  0  0  # atno 17321 bound_to 7965
  140.5663  144.0183  150.6194 LP  0  0  0  0  0  0  0  0  0  0  0  0  # atno 17342 bound_to 10162
  140.3286  143.3092  152.0710 LP  0  0  0  0  0  0  0  0  0  0  0  0  # atno 17343 bound_to 10162
  157.2881  130.6783  149.6100 LP  0  0  0  0  0  0  0  0  0  0  0  0  # atno 17370 bound_to 10713
  155.9666  130.4429  150.5400 LP  0  0  0  0  0  0  0  0  0  0  0  0  # atno 17371 bound_to 10713
  140.4498  134.1594  155.7180 LP  0  0  0  0  0  0  0  0  0  0  0  0  # atno 17394 bound_to 11000
  141.1732  133.8566  157.1503 LP  0  0  0  0  0  0  0  0  0  0  0  0  # atno 17395 bound_to 11000

$$$$
