AV-unprocessed.smi:1081|AV-procd|sdf|4710|dock10
  -GOLD-   22720 3233D 1   1.00000     0.00000
 Structure written by MMmdl.
 52 54  0  0  0  0  0  0  0  0  1 V2000
  147.4414  136.3062  155.9798 O   0  0  0  0  0  0  0  0  0  0  0  0
  148.0121  136.3533  154.8906 C   0  0  0  0  0  0  0  0  0  0  0  0
  147.7297  135.5225  153.8758 N   0  0  0  0  0  0  0  0  0  0  0  0
  146.7294  134.4562  153.9153 C   0  0  0  0  0  0  0  0  0  0  0  0
  146.9100  133.3957  152.8113 C   0  0  0  0  0  0  0  0  0  0  0  0
  147.8397  132.5913  152.9015 O   0  0  0  0  0  0  0  0  0  0  0  0
  146.0463  133.3823  151.7665 N   0  0  0  0  0  0  0  0  0  0  0  0
  146.0297  132.3891  150.6823 C   0  0  0  0  0  0  0  0  0  0  0  0
  144.7575  131.5309  150.8100 C   0  0  0  0  0  0  0  0  0  0  0  0
  143.4945  132.4119  150.8064 C   0  0  0  0  0  0  0  0  0  0  0  0
  143.6028  133.5599  151.8268 C   0  0  0  0  0  0  0  0  0  0  0  0
  144.9261  134.3268  151.6529 C   0  0  0  0  0  0  0  0  0  0  0  0
  148.9913  137.2112  154.5557 N   0  0  0  0  0  0  0  0  0  0  0  0
  149.5929  138.2384  155.3339 C   0  0  0  0  0  0  0  0  0  0  0  0
  149.6583  138.2506  156.7472 C   0  0  0  0  0  0  0  0  0  0  0  0
  150.2776  139.3382  157.3920 C   0  0  0  0  0  0  0  0  0  0  0  0
  150.8128  140.3915  156.6149 C   0  0  0  0  0  0  0  0  0  0  0  0
  151.4404  141.4862  157.2464 N   0  0  0  0  0  0  0  0  0  0  0  0
  150.8880  142.7991  156.9076 C   0  0  0  0  0  0  0  0  0  0  0  0
  151.8560  143.9280  157.3019 C   0  0  0  0  0  0  0  0  0  0  0  0
  152.2617  143.8193  158.7793 C   0  0  0  0  0  0  0  0  0  0  0  0
  152.8374  142.4244  159.0648 C   0  0  0  0  0  0  0  0  0  0  0  0
  151.8501  141.3226  158.6434 C   0  0  0  0  0  0  0  0  0  0  0  0
  150.7358  140.3845  155.2619 N   0  0  0  0  0  0  0  0  0  0  0  0
  150.1436  139.3392  154.6480 C   0  0  0  0  0  0  0  0  0  0  0  0
  148.2529  135.6226  153.0186 H   0  0  0  0  0  0  0  0  0  0  0  0
  146.7571  133.9786  154.8962 H   0  0  0  0  0  0  0  0  0  0  0  0
  145.7461  134.9150  153.8078 H   0  0  0  0  0  0  0  0  0  0  0  0
  146.0334  132.9093  149.7234 H   0  0  0  0  0  0  0  0  0  0  0  0
  146.9031  131.7396  150.6628 H   0  0  0  0  0  0  0  0  0  0  0  0
  144.7092  130.8076  149.9956 H   0  0  0  0  0  0  0  0  0  0  0  0
  144.7990  130.9541  151.7348 H   0  0  0  0  0  0  0  0  0  0  0  0
  143.3565  132.8330  149.8097 H   0  0  0  0  0  0  0  0  0  0  0  0
  142.6106  131.8072  151.0106 H   0  0  0  0  0  0  0  0  0  0  0  0
  142.7572  134.2393  151.7161 H   0  0  0  0  0  0  0  0  0  0  0  0
  143.5466  133.1570  152.8390 H   0  0  0  0  0  0  0  0  0  0  0  0
  144.9789  135.1397  152.3780 H   0  0  0  0  0  0  0  0  0  0  0  0
  144.9570  134.8039  150.6724 H   0  0  0  0  0  0  0  0  0  0  0  0
  149.3857  137.0875  153.6348 H   0  0  0  0  0  0  0  0  0  0  0  0
  149.2410  137.4639  157.3547 H   0  0  0  0  0  0  0  0  0  0  0  0
  150.3208  139.3617  158.4707 H   0  0  0  0  0  0  0  0  0  0  0  0
  150.6657  142.8801  155.8444 H   0  0  0  0  0  0  0  0  0  0  0  0
  149.9403  142.9223  157.4336 H   0  0  0  0  0  0  0  0  0  0  0  0
  152.7468  143.8787  156.6741 H   0  0  0  0  0  0  0  0  0  0  0  0
  151.3950  144.8974  157.1104 H   0  0  0  0  0  0  0  0  0  0  0  0
  152.9947  144.5877  159.0266 H   0  0  0  0  0  0  0  0  0  0  0  0
  151.3931  143.9966  159.4147 H   0  0  0  0  0  0  0  0  0  0  0  0
  153.7757  142.2993  158.5227 H   0  0  0  0  0  0  0  0  0  0  0  0
  153.0764  142.3263  160.1240 H   0  0  0  0  0  0  0  0  0  0  0  0
  150.9656  141.3502  159.2814 H   0  0  0  0  0  0  0  0  0  0  0  0
  152.3211  140.3490  158.7856 H   0  0  0  0  0  0  0  0  0  0  0  0
  150.1110  139.3849  153.5691 H   0  0  0  0  0  0  0  0  0  0  0  0
  1  2  2  0  0  0  0
  2  3  1  0  0  0  0
  2 13  1  0  0  0  0
  3  4  1  0  0  0  0
  3 26  1  0  0  0  0
  4  5  1  0  0  0  0
  4 27  1  0  0  0  0
  4 28  1  0  0  0  0
  5  6  2  0  0  0  0
  5  7  1  0  0  0  0
  7 12  1  0  0  0  0
  7  8  1  0  0  0  0
  8  9  1  0  0  0  0
  8 29  1  0  0  0  0
  8 30  1  0  0  0  0
  9 10  1  0  0  0  0
  9 31  1  0  0  0  0
  9 32  1  0  0  0  0
 10 11  1  0  0  0  0
 10 33  1  0  0  0  0
 10 34  1  0  0  0  0
 11 12  1  0  0  0  0
 11 35  1  0  0  0  0
 11 36  1  0  0  0  0
 12 37  1  0  0  0  0
 12 38  1  0  0  0  0
 13 14  1  0  0  0  0
 13 39  1  0  0  0  0
 14 25  1  0  0  0  0
 14 15  2  0  0  0  0
 15 16  1  0  0  0  0
 15 40  1  0  0  0  0
 16 17  2  0  0  0  0
 16 41  1  0  0  0  0
 17 18  1  0  0  0  0
 17 24  1  0  0  0  0
 18 23  1  0  0  0  0
 18 19  1  0  0  0  0
 19 20  1  0  0  0  0
 19 42  1  0  0  0  0
 19 43  1  0  0  0  0
 20 21  1  0  0  0  0
 20 44  1  0  0  0  0
 20 45  1  0  0  0  0
 21 22  1  0  0  0  0
 21 46  1  0  0  0  0
 21 47  1  0  0  0  0
 22 23  1  0  0  0  0
 22 48  1  0  0  0  0
 22 49  1  0  0  0  0
 23 50  1  0  0  0  0
 23 51  1  0  0  0  0
 24 25  2  0  0  0  0
 25 52  1  0  0  0  0
M  END
> <s_m_source_file>
AV-unprocessed.smi

> <i_m_source_file_index>
1081

> <i_lp_mmshare_version>
43012

> <i_f3d_flags>
0

> <s_epik_input>
W0NIMl0xW0NIMl1bQ0gyXVtDSDJdW0NIMl1OMUMoPU8pW0NIMl1bTkhdQyg9TylbTkhdYzJbY0hdW2NIXWMobltjSF0yKU4zW0NIMl1bQ0gyXVtDSDJdW0NIMl1bQ0gyXTM=

> <s_epik_cmdline>
J2VwaWtfcHl0aG9uJywgJy1waCcsICc3LjAnLCAnLXRuJywgJzgnLCAnLW1hJywgJzIwMCcsICctbWV0YWxfYmluZGluZycsICctaW1hZScsICc8aW5maWxlLm1hZT4nLCAnLW9tYWUnLCAnPG91dGZpbGUubWFlPic=

> <r_lp_tautomer_probability>
1

> <r_epik_Ionization_Penalty>
0.2566

> <r_epik_Ionization_Penalty_Charging>
0

> <r_epik_Ionization_Penalty_Neutral>
0.2566

> <r_epik_State_Penalty>
0.242651

> <r_epik_Charging_Adjusted_Penalty>
0.242651

> <i_epik_Tot_Q>
0

> <i_epik_Tot_abs_Q>
0

> <r_epik_Metal_State_Penalty>
0.169478

> <b_epik_Metal_Only>
0

> <s_lp_Force_Field>
OPLS_2005

> <r_lp_Energy>
36.1946

> <b_lp_Chiralities_Consistent>
1

> <s_lp_Variant>
AV-unprocessed.smi:1081-1

> <Gold.Version>
5.8.1

> <Gold.Id.Protein>
6NUR|6NUR_protein|mol2

> <Gold.PLP.Fitness>
50.4924

> <Gold.PLP.PLP>
-41.9326

> <Gold.PLP.part.hbond>
-2.6998

> <Gold.PLP.part.metal>
0.0000

> <Gold.PLP.part.buried>
-5.3808

> <Gold.PLP.part.nonpolar>
-34.8452

> <Gold.PLP.part.repulsive>
0.2570

> <Gold.PLP.ligand.clash>
0.0000

> <Gold.PLP.ligand.torsion>
0.6681

> <Gold.PLP.Chemscore.Hbond>
2.1608

> <Gold.PLP.Chemscore.CHOScore>
0.9945

> <Gold.PLP.Chemscore.Metal>
0.0000

> <Gold.Chemscore.Hbonds>
donor molecule, donor type, donor heavy atom, donor atom, acceptor molecule, acceptor atom, score
      L1  H     3    26       P1  7948  0.84
      L1  H    13    39       P1  7948  0.83
      P1  H  7989  7998       L1    24  0.50
      L1  C    25    52       P1  7957  0.98

> <Gold.PLP.Chemscore.Internal.Correction>
0.4300

> <Gold.Rescore>
     Score         DG    S(hbond)    S(metal)    S(lipo)     H(rot)  DE(clash)    DE(int)     intcor
     19.85     -21.30       2.06        0.00     107.30       1.41       0.10       1.35       ----

> <Gold.Chemscore.Fitness>
19.8522

> <Gold.Chemscore.DG>
-21.3033

> <Gold.Chemscore.ZeroCoef>
-5.4800

> <Gold.Chemscore.Hbond>
2.0601

> <Gold.Chemscore.Metal>
0.0000

> <Gold.Chemscore.Lipo>
107.3031

> <Gold.Chemscore.Internal_Hbond>
0.0000

> <Gold.Chemscore.DEClash>
0.1047

> <Gold.Chemscore.DEInternal>
1.3464

> <Gold.Chemscore.Rot>
1.4109

> <Gold.Chemscore.Internal.Correction>
   9.000000E+99

> <Gold.Chemscore.Hbonds>
donor molecule, donor type, donor heavy atom, donor atom, acceptor molecule, acceptor atom, score
      L1  H     3    26       P1  7948  0.82
      L1  H    13    39       P1  7948  0.77
      P1  H  7989  7998       L1    24  0.02

> <Gold.Chemscore.Hbond.Weighted>
-6.8806

> <Gold.Chemscore.Metal.Weighted>
-0.0000

> <Gold.Chemscore.Lipo.Weighted>
-12.5545

> <Gold.Chemscore.Internal_Hbond.Weighted>
0.0000

> <Gold.Chemscore.DEClash.Weighted>
0.1047

> <Gold.Chemscore.DEInternal.Weighted>
1.3464

> <Gold.Chemscore.Rot.Weighted>
3.6118

> <Gold.Chemscore.Internal.Correction.Weighted>
   9.000000E+99

> <Gold.Protein.RotatedTorsions>
[ 6907 6896 6895 6894 ] final   41.88 input  -60.11 | X-H torsion
[ 7974 7965 7964 7962 ] final    3.70 input  175.53 | X-H torsion
[ 8008 7997 7996 7995 ] final   18.84 input   59.86 | X-H torsion
[ 10167 10162 10161 10158 ] final  -10.71 input  -65.29 | X-H torsion
[ 10718 10713 10712 10709 ] final -139.16 input   66.30 | X-H torsion
[ 10763 10752 10751 10750 ] final -120.38 input  -60.55 | X-H torsion
[ 11005 11000 10999 10996 ] final -179.75 input  -57.11 | X-H torsion

> <Gold.Protein.ActiveResidues>
 VAL166  LYS551  ARG553  GLY616  TRP617  ASP618  TYR619  PRO620  LYS621  CYS622 
 ASP623  PHE694  ASN695  SER759  ASP760  ASP761  ALA762  ILE779  LEU786  VAL792 
 PHE793  MET794  SER795  GLU796  ALA797  LYS798  CYS799  TRP800  GLU811  SER814 

> <Gold.Protein.RotatedAtoms>
  152.2008  134.8589  160.0507 H   0  0  0  0  0  0  0  0  0  0  0  0  # atno 6907 bound_to 6896
  151.9443  133.3642  159.3985 H   0  0  0  0  0  0  0  0  0  0  0  0  # atno 6908 bound_to 6896
  150.6954  134.4330  159.5301 H   0  0  0  0  0  0  0  0  0  0  0  0  # atno 6909 bound_to 6896
  146.2445  140.0646  142.8366 H   0  0  0  0  0  0  0  0  0  0  0  0  # atno 7974 bound_to 7965
  154.9119  140.3015  155.5261 H   0  0  0  0  0  0  0  0  0  0  0  0  # atno 8008 bound_to 7997
  156.3014  140.2387  156.4095 H   0  0  0  0  0  0  0  0  0  0  0  0  # atno 8009 bound_to 7997
  154.8416  140.0413  157.1534 H   0  0  0  0  0  0  0  0  0  0  0  0  # atno 8010 bound_to 7997
  140.7120  143.5719  150.9084 H   0  0  0  0  0  0  0  0  0  0  0  0  # atno 10167 bound_to 10162
  156.3076  130.7463  151.1531 H   0  0  0  0  0  0  0  0  0  0  0  0  # atno 10718 bound_to 10713
  154.8642  135.4205  154.2450 H   0  0  0  0  0  0  0  0  0  0  0  0  # atno 10763 bound_to 10752
  153.3408  135.6993  153.6874 H   0  0  0  0  0  0  0  0  0  0  0  0  # atno 10764 bound_to 10752
  153.5853  135.3565  155.2863 H   0  0  0  0  0  0  0  0  0  0  0  0  # atno 10765 bound_to 10752
  140.4152  134.6656  157.4635 H   0  0  0  0  0  0  0  0  0  0  0  0  # atno 11005 bound_to 11000
  145.0869  140.9259  143.4792 LP  0  0  0  0  0  0  0  0  0  0  0  0  # atno 17320 bound_to 7965
  145.0811  139.2959  143.5783 LP  0  0  0  0  0  0  0  0  0  0  0  0  # atno 17321 bound_to 7965
  139.9445  143.6344  152.3045 LP  0  0  0  0  0  0  0  0  0  0  0  0  # atno 17342 bound_to 10162
  139.6840  144.7653  151.1557 LP  0  0  0  0  0  0  0  0  0  0  0  0  # atno 17343 bound_to 10162
  157.7383  131.0542  150.5302 LP  0  0  0  0  0  0  0  0  0  0  0  0  # atno 17370 bound_to 10713
  156.5437  130.4214  149.6141 LP  0  0  0  0  0  0  0  0  0  0  0  0  # atno 17371 bound_to 10713
  140.0239  134.6506  155.9200 LP  0  0  0  0  0  0  0  0  0  0  0  0  # atno 17394 bound_to 11000
  141.1806  133.6546  156.5003 LP  0  0  0  0  0  0  0  0  0  0  0  0  # atno 17395 bound_to 11000

$$$$
