AV-unprocessed.smi:142|AV-procd|sdf|1192|dock6
  -GOLD-   2262018353D 1   1.00000     0.00000
 Structure written by MMmdl.
 52 55  0  0  0  0  0  0  0  0  1 V2000
  153.0096  137.8834  160.3762 C   0  0  0  0  0  0  0  0  0  0  0  0
  153.0663  138.7633  159.1204 C   0  0  1  0  0  0  0  0  0  0  0  0
  152.0581  138.3100  158.1657 N   0  0  0  0  0  0  0  0  0  0  0  0
  152.1905  138.3480  156.8309 C   0  0  0  0  0  0  0  0  0  0  0  0
  153.2296  138.6841  156.2624 O   0  0  0  0  0  0  0  0  0  0  0  0
  150.9509  137.9598  156.0142 C   0  0  0  0  0  0  0  0  0  0  0  0
  150.1523  136.9226  156.7025 N   0  0  0  0  0  0  0  0  0  0  0  0
  149.1911  137.3153  157.6663 C   0  0  0  0  0  0  0  0  0  0  0  0
  148.9777  138.5034  157.9110 O   0  0  0  0  0  0  0  0  0  0  0  0
  148.4974  136.2249  158.3422 C   0  0  0  0  0  0  0  0  0  0  0  0
  147.5768  136.5018  159.2812 F   0  0  0  0  0  0  0  0  0  0  0  0
  148.7722  134.9378  158.0469 C   0  0  0  0  0  0  0  0  0  0  0  0
  149.6988  134.5658  157.0924 N   0  0  0  0  0  0  0  0  0  0  0  0
  149.9898  133.0946  156.8880 C   0  0  1  0  0  0  0  0  0  0  0  0
  150.2607  132.7112  155.4251 C   0  0  0  0  0  0  0  0  0  0  0  0
  151.3181  131.6404  155.5904 C   0  0  0  0  0  0  0  0  0  0  0  0
  152.0938  132.1399  156.8044 C   0  0  0  0  0  0  0  0  0  0  0  0
  151.1125  132.7415  157.6446 O   0  0  0  0  0  0  0  0  0  0  0  0
  150.4287  135.5650  156.4077 C   0  0  0  0  0  0  0  0  0  0  0  0
  151.2933  135.2685  155.5815 O   0  0  0  0  0  0  0  0  0  0  0  0
  152.9119  140.2392  159.4781 C   0  0  0  0  0  0  0  0  0  0  0  0
  153.8046  140.8693  160.3754 C   0  0  0  0  0  0  0  0  0  0  0  0
  153.6441  142.2284  160.7054 C   0  0  0  0  0  0  0  0  0  0  0  0
  152.5927  142.9741  160.1364 C   0  0  0  0  0  0  0  0  0  0  0  0
  152.4254  144.3354  160.4647 C   0  0  0  0  0  0  0  0  0  0  0  0
  151.3729  145.0751  159.8909 C   0  0  0  0  0  0  0  0  0  0  0  0
  150.4857  144.4573  158.9883 C   0  0  0  0  0  0  0  0  0  0  0  0
  150.6482  143.0979  158.6573 C   0  0  0  0  0  0  0  0  0  0  0  0
  151.6999  142.3521  159.2287 C   0  0  0  0  0  0  0  0  0  0  0  0
  151.8651  140.9902  158.9025 C   0  0  0  0  0  0  0  0  0  0  0  0
  153.7938  138.1586  161.0822 H   0  0  0  0  0  0  0  0  0  0  0  0
  153.1470  136.8309  160.1260 H   0  0  0  0  0  0  0  0  0  0  0  0
  152.0518  137.9819  160.8884 H   0  0  0  0  0  0  0  0  0  0  0  0
  154.0472  138.6229  158.6621 H   0  0  0  0  0  0  0  0  0  0  0  0
  151.1711  138.0136  158.5460 H   0  0  0  0  0  0  0  0  0  0  0  0
  150.3747  138.8650  155.8195 H   0  0  0  0  0  0  0  0  0  0  0  0
  151.2467  137.6121  155.0225 H   0  0  0  0  0  0  0  0  0  0  0  0
  148.2357  134.1695  158.5844 H   0  0  0  0  0  0  0  0  0  0  0  0
  149.1301  132.5589  157.2925 H   0  0  0  0  0  0  0  0  0  0  0  0
  149.3515  132.3540  154.9414 H   0  0  0  0  0  0  0  0  0  0  0  0
  150.6511  133.5517  154.8531 H   0  0  0  0  0  0  0  0  0  0  0  0
  150.8479  130.6825  155.8161 H   0  0  0  0  0  0  0  0  0  0  0  0
  151.9437  131.5157  154.7064 H   0  0  0  0  0  0  0  0  0  0  0  0
  152.6212  131.3389  157.3225 H   0  0  0  0  0  0  0  0  0  0  0  0
  152.8297  132.8877  156.5084 H   0  0  0  0  0  0  0  0  0  0  0  0
  154.6173  140.3133  160.8186 H   0  0  0  0  0  0  0  0  0  0  0  0
  154.3311  142.6940  161.3965 H   0  0  0  0  0  0  0  0  0  0  0  0
  153.1015  144.8173  161.1559 H   0  0  0  0  0  0  0  0  0  0  0  0
  151.2458  146.1175  160.1434 H   0  0  0  0  0  0  0  0  0  0  0  0
  149.6796  145.0267  158.5497 H   0  0  0  0  0  0  0  0  0  0  0  0
  149.9623  142.6315  157.9652 H   0  0  0  0  0  0  0  0  0  0  0  0
  151.1820  140.5163  158.2123 H   0  0  0  0  0  0  0  0  0  0  0  0
  1  2  1  0  0  0  0
  1 31  1  0  0  0  0
  1 32  1  0  0  0  0
  1 33  1  0  0  0  0
  2  3  1  0  0  0  0
  2 21  1  0  0  0  0
  2 34  1  0  0  0  0
  3  4  1  0  0  0  0
  3 35  1  0  0  0  0
  4  5  2  0  0  0  0
  4  6  1  0  0  0  0
  6  7  1  0  0  0  0
  6 36  1  0  0  0  0
  6 37  1  0  0  0  0
  7 19  1  0  0  0  0
  7  8  1  0  0  0  0
  8  9  2  0  0  0  0
  8 10  1  0  0  0  0
 10 11  1  0  0  0  0
 10 12  2  0  0  0  0
 12 13  1  0  0  0  0
 12 38  1  0  0  0  0
 13 14  1  0  0  0  0
 13 19  1  0  0  0  0
 14 18  1  0  0  0  0
 14 15  1  0  0  0  0
 14 39  1  0  0  0  0
 15 16  1  0  0  0  0
 15 40  1  0  0  0  0
 15 41  1  0  0  0  0
 16 17  1  0  0  0  0
 16 42  1  0  0  0  0
 16 43  1  0  0  0  0
 17 18  1  0  0  0  0
 17 44  1  0  0  0  0
 17 45  1  0  0  0  0
 19 20  2  0  0  0  0
 21 30  1  0  0  0  0
 21 22  2  0  0  0  0
 22 23  1  0  0  0  0
 22 46  1  0  0  0  0
 23 24  2  0  0  0  0
 23 47  1  0  0  0  0
 24 29  1  0  0  0  0
 24 25  1  0  0  0  0
 25 26  2  0  0  0  0
 25 48  1  0  0  0  0
 26 27  1  0  0  0  0
 26 49  1  0  0  0  0
 27 28  2  0  0  0  0
 27 50  1  0  0  0  0
 28 29  1  0  0  0  0
 28 51  1  0  0  0  0
 29 30  2  0  0  0  0
 30 52  1  0  0  0  0
M  END
> <s_m_source_file>
AV-unprocessed.smi

> <i_m_source_file_index>
142

> <i_lp_mmshare_version>
43012

> <i_f3d_flags>
0

> <s_epik_input>
W2NIXTFbY0hdW2NIXVtjSF1jKGMxMilbY0hdYyhbY0hdW2NIXTIpW0NASF0oW0NIM10pW05IXUMoPU8pW0NIMl1uM2MoPU8pYyhGKVtjSF1uKGMzPU8pW0NAQEhdNFtDSDJdW0NIMl1bQ0gyXU80

> <s_epik_cmdline>
J2VwaWtfcHl0aG9uJywgJy1waCcsICc3LjAnLCAnLXRuJywgJzgnLCAnLW1hJywgJzIwMCcsICctbWV0YWxfYmluZGluZycsICctaW1hZScsICc8aW5maWxlLm1hZT4nLCAnLW9tYWUnLCAnPG91dGZpbGUubWFlPic=

> <r_lp_tautomer_probability>
1

> <r_epik_Ionization_Penalty>
3.35688e-08

> <r_epik_Ionization_Penalty_Charging>
3.59856e-09

> <r_epik_Ionization_Penalty_Neutral>
2.99702e-08

> <r_epik_State_Penalty>
-0

> <r_epik_Charging_Adjusted_Penalty>
3.59856e-09

> <i_epik_Tot_Q>
0

> <i_epik_Tot_abs_Q>
0

> <r_epik_Metal_State_Penalty>
-0

> <b_epik_Metal_Only>
0

> <s_epik_Chemistry_Notes>
This compound contains an acetal/aminal-like group ( X-CH(R)-Y where X, Y are N, S, or O) that may be acid/base labile, releasing an aldehyde.

> <s_lp_Force_Field>
OPLS_2005

> <r_lp_Energy>
24.972

> <b_lp_Chiralities_Consistent>
1

> <s_lp_Variant>
AV-unprocessed.smi:142-4

> <Gold.Version>
5.8.1

> <Gold.Id.Protein>
6NUR|6NUR_protein|mol2

> <Gold.PLP.Fitness>
51.8399

> <Gold.PLP.PLP>
-46.4834

> <Gold.PLP.part.hbond>
-3.0000

> <Gold.PLP.part.metal>
0.0000

> <Gold.PLP.part.buried>
-7.7265

> <Gold.PLP.part.nonpolar>
-35.8709

> <Gold.PLP.part.repulsive>
0.1437

> <Gold.PLP.ligand.clash>
0.0000

> <Gold.PLP.ligand.torsion>
1.7154

> <Gold.PLP.Chemscore.Hbond>
2.8960

> <Gold.PLP.Chemscore.CHOScore>
0.0000

> <Gold.PLP.Chemscore.Metal>
0.0000

> <Gold.Chemscore.Hbonds>
donor molecule, donor type, donor heavy atom, donor atom, acceptor molecule, acceptor atom, score
      P1  H  6896  6908       L1    18  1.00
      P1  H  7997  8009       L1     5  0.88
      P1  H 10752 10763       L1    20  1.00

> <Gold.PLP.Chemscore.Internal.Correction>
0.0993

> <Gold.Rescore>
     Score         DG    S(hbond)    S(metal)    S(lipo)     H(rot)  DE(clash)    DE(int)     intcor
     22.18     -25.26       2.87        0.00     131.37       2.02       0.02       3.06       ----

> <Gold.Chemscore.Fitness>
22.1834

> <Gold.Chemscore.DG>
-25.2579

> <Gold.Chemscore.ZeroCoef>
-5.4800

> <Gold.Chemscore.Hbond>
2.8661

> <Gold.Chemscore.Metal>
0.0000

> <Gold.Chemscore.Lipo>
131.3683

> <Gold.Chemscore.Internal_Hbond>
0.0000

> <Gold.Chemscore.DEClash>
0.0163

> <Gold.Chemscore.DEInternal>
3.0582

> <Gold.Chemscore.Rot>
2.0175

> <Gold.Chemscore.Internal.Correction>
   9.000000E+99

> <Gold.Chemscore.Hbonds>
donor molecule, donor type, donor heavy atom, donor atom, acceptor molecule, acceptor atom, score
      P1  H  6896  6908       L1    18  0.94
      P1  H  7997  8009       L1     5  0.86
      P1  H 10752 10763       L1    20  0.97

> <Gold.Chemscore.Hbond.Weighted>
-9.5726

> <Gold.Chemscore.Metal.Weighted>
-0.0000

> <Gold.Chemscore.Lipo.Weighted>
-15.3701

> <Gold.Chemscore.Internal_Hbond.Weighted>
0.0000

> <Gold.Chemscore.DEClash.Weighted>
0.0163

> <Gold.Chemscore.DEInternal.Weighted>
3.0582

> <Gold.Chemscore.Rot.Weighted>
5.1648

> <Gold.Chemscore.Internal.Correction.Weighted>
   9.000000E+99

> <Gold.Protein.RotatedTorsions>
[ 6907 6896 6895 6894 ] final   69.28 input  -60.11 | X-H torsion
[ 7974 7965 7964 7962 ] final  155.26 input  175.53 | X-H torsion
[ 8008 7997 7996 7995 ] final  176.71 input   59.86 | X-H torsion
[ 10167 10162 10161 10158 ] final -164.24 input  -65.29 | X-H torsion
[ 10718 10713 10712 10709 ] final   55.11 input   66.30 | X-H torsion
[ 10763 10752 10751 10750 ] final   75.56 input  -60.55 | X-H torsion
[ 11005 11000 10999 10996 ] final   98.59 input  -57.11 | X-H torsion

> <Gold.Protein.ActiveResidues>
 VAL166  LYS551  ARG553  GLY616  TRP617  ASP618  TYR619  PRO620  LYS621  CYS622 
 ASP623  PHE694  ASN695  SER759  ASP760  ASP761  ALA762  ILE779  LEU786  VAL792 
 PHE793  MET794  SER795  GLU796  ALA797  LYS798  CYS799  TRP800  GLU811  SER814 

> <Gold.Protein.RotatedAtoms>
  152.4675  134.5039  159.9732 H   0  0  0  0  0  0  0  0  0  0  0  0  # atno 6907 bound_to 6896
  151.5073  133.3486  159.2887 H   0  0  0  0  0  0  0  0  0  0  0  0  # atno 6908 bound_to 6896
  150.8668  134.8061  159.7186 H   0  0  0  0  0  0  0  0  0  0  0  0  # atno 6909 bound_to 6896
  144.8036  139.7045  143.6171 H   0  0  0  0  0  0  0  0  0  0  0  0  # atno 7974 bound_to 7965
  156.0735  140.1376  156.9800 H   0  0  0  0  0  0  0  0  0  0  0  0  # atno 8008 bound_to 7997
  154.4545  140.0967  156.6767 H   0  0  0  0  0  0  0  0  0  0  0  0  # atno 8009 bound_to 7997
  155.5190  140.3455  155.4405 H   0  0  0  0  0  0  0  0  0  0  0  0  # atno 8010 bound_to 7997
  139.6264  144.0524  152.1978 H   0  0  0  0  0  0  0  0  0  0  0  0  # atno 10167 bound_to 10162
  157.5316  130.8634  149.8696 H   0  0  0  0  0  0  0  0  0  0  0  0  # atno 10718 bound_to 10713
  153.0663  135.4984  154.8208 H   0  0  0  0  0  0  0  0  0  0  0  0  # atno 10763 bound_to 10752
  154.6959  135.2992  154.9415 H   0  0  0  0  0  0  0  0  0  0  0  0  # atno 10764 bound_to 10752
  154.0155  135.6749  153.4821 H   0  0  0  0  0  0  0  0  0  0  0  0  # atno 10765 bound_to 10752
  139.8772  134.9056  156.4479 H   0  0  0  0  0  0  0  0  0  0  0  0  # atno 11005 bound_to 11000
  146.2322  139.5836  142.9547 LP  0  0  0  0  0  0  0  0  0  0  0  0  # atno 17320 bound_to 7965
  145.5493  141.0414  143.2287 LP  0  0  0  0  0  0  0  0  0  0  0  0  # atno 17321 bound_to 7965
  140.0179  144.6175  150.7592 LP  0  0  0  0  0  0  0  0  0  0  0  0  # atno 17342 bound_to 10162
  140.7413  143.2817  151.3581 LP  0  0  0  0  0  0  0  0  0  0  0  0  # atno 17343 bound_to 10162
  156.0427  130.3735  150.1395 LP  0  0  0  0  0  0  0  0  0  0  0  0  # atno 17370 bound_to 10713
  156.9579  130.9795  151.3485 LP  0  0  0  0  0  0  0  0  0  0  0  0  # atno 17371 bound_to 10713
  140.8953  133.7819  155.9618 LP  0  0  0  0  0  0  0  0  0  0  0  0  # atno 17394 bound_to 11000
  140.8710  134.2727  157.5191 LP  0  0  0  0  0  0  0  0  0  0  0  0  # atno 17395 bound_to 11000

$$$$
