AV-unprocessed.smi:2460|AV-procd|sdf|9715|dock7
  -GOLD-   2272013353D 1   1.00000     0.00000
 Structure written by MMmdl.
 46 48  0  0  0  0  0  0  0  0  1 V2000
  142.7598  134.1170  152.3161 C   0  0  0  0  0  0  0  0  0  0  0  0
  144.1636  133.9946  151.6994 C   0  0  0  0  0  0  0  0  0  0  0  0
  144.0906  133.4433  150.2672 C   0  0  0  0  0  0  0  0  0  0  0  0
  144.9408  135.3148  151.7753 C   0  0  0  0  0  0  0  0  0  0  0  0
  145.6658  135.2131  153.1027 C   0  0  2  0  0  0  0  0  0  0  0  0
  146.8569  136.0597  153.1329 N   0  0  0  0  0  0  0  0  0  0  0  0
  147.1055  137.0076  154.0464 C   0  0  0  0  0  0  0  0  0  0  0  0
  146.3270  137.2988  154.9540 O   0  0  0  0  0  0  0  0  0  0  0  0
  148.3116  137.5656  153.8500 N   0  0  0  0  0  0  0  0  0  0  0  0
  148.9493  138.5665  154.6298 C   0  0  0  0  0  0  0  0  0  0  0  0
  150.0270  139.2869  154.0735 C   0  0  0  0  0  0  0  0  0  0  0  0
  150.6709  140.2550  154.7599 N   0  0  0  0  0  0  0  0  0  0  0  0
  150.2396  140.5034  155.9997 C   0  0  0  0  0  0  0  0  0  0  0  0
  150.9364  141.5967  156.7482 C   0  0  0  0  0  0  0  0  0  0  0  0
  151.7507  141.2905  157.9886 C   0  0  0  0  0  0  0  0  0  0  0  0
  150.4490  142.0315  158.1156 C   0  0  0  0  0  0  0  0  0  0  0  0
  149.2146  139.9119  156.6194 N   0  0  0  0  0  0  0  0  0  0  0  0
  148.5661  138.9405  155.9413 C   0  0  0  0  0  0  0  0  0  0  0  0
  145.9717  133.7022  153.2000 C   0  0  0  0  0  0  0  0  0  0  0  0
  147.2716  133.2690  152.4891 C   0  0  0  0  0  0  0  0  0  0  0  0
  145.9509  133.1944  154.6503 C   0  0  0  0  0  0  0  0  0  0  0  0
  144.8989  133.0720  152.5018 O   0  0  0  0  0  0  0  0  0  0  0  0
  142.1416  134.8185  151.7555 H   0  0  0  0  0  0  0  0  0  0  0  0
  142.8048  134.4659  153.3480 H   0  0  0  0  0  0  0  0  0  0  0  0
  142.2481  133.1542  152.3197 H   0  0  0  0  0  0  0  0  0  0  0  0
  143.5582  134.1288  149.6077 H   0  0  0  0  0  0  0  0  0  0  0  0
  143.5719  132.4846  150.2405 H   0  0  0  0  0  0  0  0  0  0  0  0
  145.0870  133.2889  149.8521 H   0  0  0  0  0  0  0  0  0  0  0  0
  145.6631  135.3764  150.9597 H   0  0  0  0  0  0  0  0  0  0  0  0
  144.3000  136.1947  151.7096 H   0  0  0  0  0  0  0  0  0  0  0  0
  144.9694  135.5080  153.8904 H   0  0  0  0  0  0  0  0  0  0  0  0
  147.5547  135.8866  152.4244 H   0  0  0  0  0  0  0  0  0  0  0  0
  148.8690  137.1733  153.1054 H   0  0  0  0  0  0  0  0  0  0  0  0
  150.3812  139.0834  153.0736 H   0  0  0  0  0  0  0  0  0  0  0  0
  151.3079  142.3653  156.0731 H   0  0  0  0  0  0  0  0  0  0  0  0
  151.7760  140.2605  158.3392 H   0  0  0  0  0  0  0  0  0  0  0  0
  152.6683  141.8558  158.1372 H   0  0  0  0  0  0  0  0  0  0  0  0
  150.4947  143.0929  158.3503 H   0  0  0  0  0  0  0  0  0  0  0  0
  149.6086  141.4944  158.5511 H   0  0  0  0  0  0  0  0  0  0  0  0
  147.7327  138.4895  156.4568 H   0  0  0  0  0  0  0  0  0  0  0  0
  148.1553  133.6661  152.9893 H   0  0  0  0  0  0  0  0  0  0  0  0
  147.2956  133.6055  151.4526 H   0  0  0  0  0  0  0  0  0  0  0  0
  147.3664  132.1829  152.4796 H   0  0  0  0  0  0  0  0  0  0  0  0
  146.7547  133.6386  155.2374 H   0  0  0  0  0  0  0  0  0  0  0  0
  146.0727  132.1118  154.6902 H   0  0  0  0  0  0  0  0  0  0  0  0
  145.0076  133.4367  155.1405 H   0  0  0  0  0  0  0  0  0  0  0  0
  1  2  1  0  0  0  0
  1 23  1  0  0  0  0
  1 24  1  0  0  0  0
  1 25  1  0  0  0  0
  2 22  1  0  0  0  0
  2  3  1  0  0  0  0
  2  4  1  0  0  0  0
  3 26  1  0  0  0  0
  3 27  1  0  0  0  0
  3 28  1  0  0  0  0
  4  5  1  0  0  0  0
  4 29  1  0  0  0  0
  4 30  1  0  0  0  0
  5  6  1  0  0  0  0
  5 19  1  0  0  0  0
  5 31  1  0  0  0  0
  6  7  1  0  0  0  0
  6 32  1  0  0  0  0
  7  8  2  0  0  0  0
  7  9  1  0  0  0  0
  9 10  1  0  0  0  0
  9 33  1  0  0  0  0
 10 18  1  0  0  0  0
 10 11  2  0  0  0  0
 11 12  1  0  0  0  0
 11 34  1  0  0  0  0
 12 13  2  0  0  0  0
 13 14  1  0  0  0  0
 13 17  1  0  0  0  0
 14 16  1  0  0  0  0
 14 15  1  0  0  0  0
 14 35  1  0  0  0  0
 15 16  1  0  0  0  0
 15 36  1  0  0  0  0
 15 37  1  0  0  0  0
 16 38  1  0  0  0  0
 16 39  1  0  0  0  0
 17 18  2  0  0  0  0
 18 40  1  0  0  0  0
 19 20  1  0  0  0  0
 19 21  1  0  0  0  0
 19 22  1  0  0  0  0
 20 41  1  0  0  0  0
 20 42  1  0  0  0  0
 20 43  1  0  0  0  0
 21 44  1  0  0  0  0
 21 45  1  0  0  0  0
 21 46  1  0  0  0  0
M  END
> <s_m_source_file>
AV-unprocessed.smi

> <i_m_source_file_index>
2460

> <i_lp_mmshare_version>
43012

> <i_f3d_flags>
0

> <s_epik_input>
W0NIM11DMShbQ0gzXSlbQ0gyXVtDQEhdKEMoTzEpKFtDSDNdKVtDSDNdKVtOSF1DKD1PKVtOSF1jMltjSF1uYyhuW2NIXTIpW0NIXTNbQ0gyXVtDSDJdMw==

> <s_epik_cmdline>
J2VwaWtfcHl0aG9uJywgJy1waCcsICc3LjAnLCAnLXRuJywgJzgnLCAnLW1hJywgJzIwMCcsICctbWV0YWxfYmluZGluZycsICctaW1hZScsICc8aW5maWxlLm1hZT4nLCAnLW9tYWUnLCAnPG91dGZpbGUubWFlPic=

> <r_lp_tautomer_probability>
1

> <r_epik_Ionization_Penalty>
2.38399e-05

> <r_epik_Ionization_Penalty_Charging>
0

> <r_epik_Ionization_Penalty_Neutral>
2.38399e-05

> <r_epik_State_Penalty>
-0

> <r_epik_Charging_Adjusted_Penalty>
0

> <i_epik_Tot_Q>
0

> <i_epik_Tot_abs_Q>
0

> <r_epik_Metal_State_Penalty>
-0

> <b_epik_Metal_Only>
0

> <s_lp_Force_Field>
OPLS_2005

> <r_lp_Energy>
17.9428

> <b_lp_Chiralities_Consistent>
1

> <s_lp_Variant>
AV-unprocessed.smi:2460-2

> <Gold.Version>
5.8.1

> <Gold.Id.Protein>
6NUR|6NUR_protein|mol2

> <Gold.PLP.Fitness>
38.9283

> <Gold.PLP.PLP>
-27.4024

> <Gold.PLP.part.hbond>
-2.6020

> <Gold.PLP.part.metal>
0.0000

> <Gold.PLP.part.buried>
-1.8457

> <Gold.PLP.part.nonpolar>
-23.4098

> <Gold.PLP.part.repulsive>
0.2636

> <Gold.PLP.ligand.clash>
0.0000

> <Gold.PLP.ligand.torsion>
0.1326

> <Gold.PLP.Chemscore.Hbond>
2.9840

> <Gold.PLP.Chemscore.CHOScore>
0.9033

> <Gold.PLP.Chemscore.Metal>
0.0000

> <Gold.Chemscore.Hbonds>
donor molecule, donor type, donor heavy atom, donor atom, acceptor molecule, acceptor atom, score
      L1  H     6    32       P1  7948  0.98
      L1  H     9    33       P1  7948  0.99
      P1  H  7989  7998       L1    12  0.95
      L1  C    11    34       P1  7957  0.94

> <Gold.PLP.Chemscore.Internal.Correction>
0.1292

> <Gold.Rescore>
     Score         DG    S(hbond)    S(metal)    S(lipo)     H(rot)  DE(clash)    DE(int)     intcor
     16.37     -18.59       2.44        0.00      68.17       1.18       0.90       1.32       ----

> <Gold.Chemscore.Fitness>
16.3732

> <Gold.Chemscore.DG>
-18.5884

> <Gold.Chemscore.ZeroCoef>
-5.4800

> <Gold.Chemscore.Hbond>
2.4399

> <Gold.Chemscore.Metal>
0.0000

> <Gold.Chemscore.Lipo>
68.1726

> <Gold.Chemscore.Internal_Hbond>
0.0000

> <Gold.Chemscore.DEClash>
0.8990

> <Gold.Chemscore.DEInternal>
1.3163

> <Gold.Chemscore.Rot>
1.1785

> <Gold.Chemscore.Internal.Correction>
   9.000000E+99

> <Gold.Chemscore.Hbonds>
donor molecule, donor type, donor heavy atom, donor atom, acceptor molecule, acceptor atom, score
      L1  H     6    32       P1  7948  0.87
      L1  H     9    33       P1  7948  0.90
      P1  H  7989  7998       L1    12  0.21

> <Gold.Chemscore.Hbond.Weighted>
-8.1491

> <Gold.Chemscore.Metal.Weighted>
-0.0000

> <Gold.Chemscore.Lipo.Weighted>
-7.9762

> <Gold.Chemscore.Internal_Hbond.Weighted>
0.0000

> <Gold.Chemscore.DEClash.Weighted>
0.8990

> <Gold.Chemscore.DEInternal.Weighted>
1.3163

> <Gold.Chemscore.Rot.Weighted>
3.0169

> <Gold.Chemscore.Internal.Correction.Weighted>
   9.000000E+99

> <Gold.Protein.RotatedTorsions>
[ 6907 6896 6895 6894 ] final  -81.69 input  -60.11 | X-H torsion
[ 7974 7965 7964 7962 ] final  -78.87 input  175.53 | X-H torsion
[ 8008 7997 7996 7995 ] final  115.69 input   59.86 | X-H torsion
[ 10167 10162 10161 10158 ] final -113.72 input  -65.29 | X-H torsion
[ 10718 10713 10712 10709 ] final  -72.58 input   66.30 | X-H torsion
[ 10763 10752 10751 10750 ] final -107.29 input  -60.55 | X-H torsion
[ 11005 11000 10999 10996 ] final  -17.95 input  -57.11 | X-H torsion

> <Gold.Protein.ActiveResidues>
 VAL166  LYS551  ARG553  GLY616  TRP617  ASP618  TYR619  PRO620  LYS621  CYS622 
 ASP623  PHE694  ASN695  SER759  ASP760  ASP761  ALA762  ILE779  LEU786  VAL792 
 PHE793  MET794  SER795  GLU796  ALA797  LYS798  CYS799  TRP800  GLU811  SER814 

> <Gold.Protein.RotatedAtoms>
  150.6908  134.3779  159.5020 H   0  0  0  0  0  0  0  0  0  0  0  0  # atno 6907 bound_to 6896
  152.1585  134.8928  160.0552 H   0  0  0  0  0  0  0  0  0  0  0  0  # atno 6908 bound_to 6896
  151.9999  133.3787  159.4214 H   0  0  0  0  0  0  0  0  0  0  0  0  # atno 6909 bound_to 6896
  145.5807  140.9449  143.1345 H   0  0  0  0  0  0  0  0  0  0  0  0  # atno 7974 bound_to 7965
  156.2396  140.2933  156.0408 H   0  0  0  0  0  0  0  0  0  0  0  0  # atno 8008 bound_to 7997
  155.1989  140.0409  157.2931 H   0  0  0  0  0  0  0  0  0  0  0  0  # atno 8009 bound_to 7997
  154.6144  140.2460  155.7636 H   0  0  0  0  0  0  0  0  0  0  0  0  # atno 8010 bound_to 7997
  140.1088  143.4546  152.1766 H   0  0  0  0  0  0  0  0  0  0  0  0  # atno 10167 bound_to 10162
  156.0315  130.4375  150.2614 H   0  0  0  0  0  0  0  0  0  0  0  0  # atno 10718 bound_to 10713
  154.8066  135.4680  154.0408 H   0  0  0  0  0  0  0  0  0  0  0  0  # atno 10763 bound_to 10752
  153.1872  135.6849  153.8406 H   0  0  0  0  0  0  0  0  0  0  0  0  # atno 10764 bound_to 10752
  153.7936  135.3239  155.3359 H   0  0  0  0  0  0  0  0  0  0  0  0  # atno 10765 bound_to 10752
  140.8219  133.8061  155.9669 H   0  0  0  0  0  0  0  0  0  0  0  0  # atno 11005 bound_to 11000
  144.7395  139.7489  143.7316 LP  0  0  0  0  0  0  0  0  0  0  0  0  # atno 17320 bound_to 7965
  146.1718  139.4872  142.9922 LP  0  0  0  0  0  0  0  0  0  0  0  0  # atno 17321 bound_to 7965
  139.5630  144.7418  151.4100 LP  0  0  0  0  0  0  0  0  0  0  0  0  # atno 17342 bound_to 10162
  140.6937  143.7800  150.7294 LP  0  0  0  0  0  0  0  0  0  0  0  0  # atno 17343 bound_to 10162
  157.0716  131.0118  151.3188 LP  0  0  0  0  0  0  0  0  0  0  0  0  # atno 17370 bound_to 10713
  157.4995  130.7871  149.7590 LP  0  0  0  0  0  0  0  0  0  0  0  0  # atno 17371 bound_to 10713
  140.9089  134.2285  157.4997 LP  0  0  0  0  0  0  0  0  0  0  0  0  # atno 17394 bound_to 11000
  139.8708  134.9741  156.4834 LP  0  0  0  0  0  0  0  0  0  0  0  0  # atno 17395 bound_to 11000

$$$$
