AV-unprocessed.smi:1083|AV-procd|sdf|4715|dock9
  -GOLD-   22720 3243D 1   1.00000     0.00000
 Structure written by MMmdl.
 43 45  0  0  0  0  0  0  0  0  1 V2000
  151.0230  141.1268  156.8789 O   0  0  0  0  0  0  0  0  0  0  0  0
  150.5401  142.2169  156.5722 C   0  0  0  0  0  0  0  0  0  0  0  0
  149.5537  142.4027  155.6803 N   0  0  0  0  0  0  0  0  0  0  0  0
  148.9002  141.4196  154.8855 C   0  0  0  0  0  0  0  0  0  0  0  0
  149.4748  140.1501  154.6367 C   0  0  0  0  0  0  0  0  0  0  0  0
  148.7526  139.2057  153.8857 C   0  0  0  0  0  0  0  0  0  0  0  0
  147.4747  139.5604  153.4188 C   0  0  0  0  0  0  0  0  0  0  0  0
  146.9085  140.7608  153.6583 N   0  0  0  0  0  0  0  0  0  0  0  0
  147.5986  141.6792  154.3778 C   0  0  0  0  0  0  0  0  0  0  0  0
  146.9877  142.9317  154.5885 N   0  0  0  0  0  0  0  0  0  0  0  0
  146.1899  143.3910  153.4569 C   0  0  0  0  0  0  0  0  0  0  0  0
  145.7850  144.8609  153.6614 C   0  0  0  0  0  0  0  0  0  0  0  0
  145.1033  145.0027  154.9048 O   0  0  0  0  0  0  0  0  0  0  0  0
  145.9179  144.6223  156.0103 C   0  0  0  0  0  0  0  0  0  0  0  0
  146.3217  143.1446  155.8699 C   0  0  0  0  0  0  0  0  0  0  0  0
  150.9592  143.3848  157.0784 N   0  0  0  0  0  0  0  0  0  0  0  0
  152.0446  143.5431  158.0426 C   0  0  0  0  0  0  0  0  0  0  0  0
  151.6381  142.9835  159.4200 C   0  0  0  0  0  0  0  0  0  0  0  0
  151.9603  144.0795  160.4378 C   0  0  0  0  0  0  0  0  0  0  0  0
  151.8321  145.3793  159.6501 C   0  0  0  0  0  0  0  0  0  0  0  0
  152.3803  145.0307  158.2666 C   0  0  0  0  0  0  0  0  0  0  0  0
  149.3266  143.3610  155.4580 H   0  0  0  0  0  0  0  0  0  0  0  0
  150.4457  139.8816  155.0249 H   0  0  0  0  0  0  0  0  0  0  0  0
  149.1655  138.2292  153.6800 H   0  0  0  0  0  0  0  0  0  0  0  0
  146.8889  138.8603  152.8421 H   0  0  0  0  0  0  0  0  0  0  0  0
  146.7399  143.2864  152.5216 H   0  0  0  0  0  0  0  0  0  0  0  0
  145.2994  142.7666  153.3725 H   0  0  0  0  0  0  0  0  0  0  0  0
  146.6608  145.5115  153.6381 H   0  0  0  0  0  0  0  0  0  0  0  0
  145.1260  145.1850  152.8559 H   0  0  0  0  0  0  0  0  0  0  0  0
  146.7994  145.2633  156.0639 H   0  0  0  0  0  0  0  0  0  0  0  0
  145.3574  144.7728  156.9331 H   0  0  0  0  0  0  0  0  0  0  0  0
  145.4339  142.5136  155.9337 H   0  0  0  0  0  0  0  0  0  0  0  0
  146.9856  142.8583  156.6865 H   0  0  0  0  0  0  0  0  0  0  0  0
  150.5049  144.2297  156.7643 H   0  0  0  0  0  0  0  0  0  0  0  0
  152.9332  143.0186  157.6858 H   0  0  0  0  0  0  0  0  0  0  0  0
  150.5679  142.7727  159.4516 H   0  0  0  0  0  0  0  0  0  0  0  0
  152.1547  142.0517  159.6525 H   0  0  0  0  0  0  0  0  0  0  0  0
  151.3056  144.0492  161.3090 H   0  0  0  0  0  0  0  0  0  0  0  0
  152.9867  143.9647  160.7889 H   0  0  0  0  0  0  0  0  0  0  0  0
  150.7807  145.6589  159.5698 H   0  0  0  0  0  0  0  0  0  0  0  0
  152.3643  146.2088  160.1165 H   0  0  0  0  0  0  0  0  0  0  0  0
  153.4638  145.1563  158.2688 H   0  0  0  0  0  0  0  0  0  0  0  0
  151.9854  145.6891  157.4915 H   0  0  0  0  0  0  0  0  0  0  0  0
  1  2  2  0  0  0  0
  2  3  1  0  0  0  0
  2 16  1  0  0  0  0
  3  4  1  0  0  0  0
  3 22  1  0  0  0  0
  4  9  1  0  0  0  0
  4  5  2  0  0  0  0
  5  6  1  0  0  0  0
  5 23  1  0  0  0  0
  6  7  2  0  0  0  0
  6 24  1  0  0  0  0
  7  8  1  0  0  0  0
  7 25  1  0  0  0  0
  8  9  2  0  0  0  0
  9 10  1  0  0  0  0
 10 15  1  0  0  0  0
 10 11  1  0  0  0  0
 11 12  1  0  0  0  0
 11 26  1  0  0  0  0
 11 27  1  0  0  0  0
 12 13  1  0  0  0  0
 12 28  1  0  0  0  0
 12 29  1  0  0  0  0
 13 14  1  0  0  0  0
 14 15  1  0  0  0  0
 14 30  1  0  0  0  0
 14 31  1  0  0  0  0
 15 32  1  0  0  0  0
 15 33  1  0  0  0  0
 16 17  1  0  0  0  0
 16 34  1  0  0  0  0
 17 21  1  0  0  0  0
 17 18  1  0  0  0  0
 17 35  1  0  0  0  0
 18 19  1  0  0  0  0
 18 36  1  0  0  0  0
 18 37  1  0  0  0  0
 19 20  1  0  0  0  0
 19 38  1  0  0  0  0
 19 39  1  0  0  0  0
 20 21  1  0  0  0  0
 20 40  1  0  0  0  0
 20 41  1  0  0  0  0
 21 42  1  0  0  0  0
 21 43  1  0  0  0  0
M  END
> <s_m_source_file>
AV-unprocessed.smi

> <i_m_source_file_index>
1083

> <i_lp_mmshare_version>
43012

> <i_f3d_flags>
0

> <s_epik_input>
W0NIMl0xW0NIMl1bQ0gyXVtDSDJdW0NIXTFbTkhdQyg9TylbTkhdYzJbY0hdW2NIXVtjSF1uYzJOM1tDSDJdW0NIMl1PW0NIMl1bQ0gyXTM=

> <s_epik_cmdline>
J2VwaWtfcHl0aG9uJywgJy1waCcsICc3LjAnLCAnLXRuJywgJzgnLCAnLW1hJywgJzIwMCcsICctbWV0YWxfYmluZGluZycsICctaW1hZScsICc8aW5maWxlLm1hZT4nLCAnLW9tYWUnLCAnPG91dGZpbGUubWFlPic=

> <r_lp_tautomer_probability>
1

> <r_epik_Ionization_Penalty>
0.00217669

> <r_epik_Ionization_Penalty_Charging>
0

> <r_epik_Ionization_Penalty_Neutral>
0.00217669

> <r_epik_State_Penalty>
0.00146536

> <r_epik_Charging_Adjusted_Penalty>
0.00146536

> <i_epik_Tot_Q>
0

> <i_epik_Tot_abs_Q>
0

> <r_epik_Metal_State_Penalty>
-0

> <b_epik_Metal_Only>
0

> <s_lp_Force_Field>
OPLS_2005

> <r_lp_Energy>
35.5183

> <b_lp_Chiralities_Consistent>
1

> <s_lp_Variant>
AV-unprocessed.smi:1083-1

> <Gold.Version>
5.8.1

> <Gold.Id.Protein>
6NUR|6NUR_protein|mol2

> <Gold.PLP.Fitness>
43.3091

> <Gold.PLP.PLP>
-39.6393

> <Gold.PLP.part.hbond>
-1.9589

> <Gold.PLP.part.metal>
0.0000

> <Gold.PLP.part.buried>
-2.8112

> <Gold.PLP.part.nonpolar>
-35.3075

> <Gold.PLP.part.repulsive>
0.5455

> <Gold.PLP.ligand.clash>
0.0000

> <Gold.PLP.ligand.torsion>
0.8166

> <Gold.PLP.Chemscore.Hbond>
1.6978

> <Gold.PLP.Chemscore.CHOScore>
0.0000

> <Gold.PLP.Chemscore.Metal>
0.0000

> <Gold.Chemscore.Hbonds>
donor molecule, donor type, donor heavy atom, donor atom, acceptor molecule, acceptor atom, score
      L1  H     3    22       P1  8028  0.76
      L1  H    16    34       P1  8028  0.77

> <Gold.PLP.Chemscore.Internal.Correction>
0.2095

> <Gold.Rescore>
     Score         DG    S(hbond)    S(metal)    S(lipo)     H(rot)  DE(clash)    DE(int)     intcor
     18.00     -20.49       1.85        0.00     101.57       1.19       0.16       2.33       ----

> <Gold.Chemscore.Fitness>
17.9967

> <Gold.Chemscore.DG>
-20.4938

> <Gold.Chemscore.ZeroCoef>
-5.4800

> <Gold.Chemscore.Hbond>
1.8498

> <Gold.Chemscore.Metal>
0.0000

> <Gold.Chemscore.Lipo>
101.5724

> <Gold.Chemscore.Internal_Hbond>
0.0000

> <Gold.Chemscore.DEClash>
0.1625

> <Gold.Chemscore.DEInternal>
2.3345

> <Gold.Chemscore.Rot>
1.1909

> <Gold.Chemscore.Internal.Correction>
   9.000000E+99

> <Gold.Chemscore.Hbonds>
donor molecule, donor type, donor heavy atom, donor atom, acceptor molecule, acceptor atom, score
      L1  H     3    22       P1  8028  0.76
      L1  H    16    34       P1  8028  0.74

> <Gold.Chemscore.Hbond.Weighted>
-6.1785

> <Gold.Chemscore.Metal.Weighted>
-0.0000

> <Gold.Chemscore.Lipo.Weighted>
-11.8840

> <Gold.Chemscore.Internal_Hbond.Weighted>
0.0000

> <Gold.Chemscore.DEClash.Weighted>
0.1625

> <Gold.Chemscore.DEInternal.Weighted>
2.3345

> <Gold.Chemscore.Rot.Weighted>
3.0487

> <Gold.Chemscore.Internal.Correction.Weighted>
   9.000000E+99

> <Gold.Protein.RotatedTorsions>
[ 6907 6896 6895 6894 ] final  119.49 input  -60.11 | X-H torsion
[ 7974 7965 7964 7962 ] final  -58.49 input  175.53 | X-H torsion
[ 8008 7997 7996 7995 ] final   99.25 input   59.86 | X-H torsion
[ 10167 10162 10161 10158 ] final  100.86 input  -65.29 | X-H torsion
[ 10718 10713 10712 10709 ] final  -31.26 input   66.30 | X-H torsion
[ 10763 10752 10751 10750 ] final   43.03 input  -60.55 | X-H torsion
[ 11005 11000 10999 10996 ] final  -32.97 input  -57.11 | X-H torsion

> <Gold.Protein.ActiveResidues>
 VAL166  LYS551  ARG553  GLY616  TRP617  ASP618  TYR619  PRO620  LYS621  CYS622 
 ASP623  PHE694  ASN695  SER759  ASP760  ASP761  ALA762  ILE779  LEU786  VAL792 
 PHE793  MET794  SER795  GLU796  ALA797  LYS798  CYS799  TRP800  GLU811  SER814 

> <Gold.Protein.RotatedAtoms>
  152.4468  133.7552  159.6715 H   0  0  0  0  0  0  0  0  0  0  0  0  # atno 6907 bound_to 6896
  150.8370  133.7987  159.3082 H   0  0  0  0  0  0  0  0  0  0  0  0  # atno 6908 bound_to 6896
  151.5624  135.1067  160.0027 H   0  0  0  0  0  0  0  0  0  0  0  0  # atno 6909 bound_to 6896
  145.8386  140.8432  143.0046 H   0  0  0  0  0  0  0  0  0  0  0  0  # atno 7974 bound_to 7965
  156.1086  140.3231  155.8041 H   0  0  0  0  0  0  0  0  0  0  0  0  # atno 8008 bound_to 7997
  155.4712  140.0547  157.2996 H   0  0  0  0  0  0  0  0  0  0  0  0  # atno 8009 bound_to 7997
  154.4744  140.2026  155.9928 H   0  0  0  0  0  0  0  0  0  0  0  0  # atno 8010 bound_to 7997
  139.7489  144.6990  151.0461 H   0  0  0  0  0  0  0  0  0  0  0  0  # atno 10167 bound_to 10162
  156.3895  130.4370  149.7406 H   0  0  0  0  0  0  0  0  0  0  0  0  # atno 10718 bound_to 10713
  152.9869  135.6114  154.3046 H   0  0  0  0  0  0  0  0  0  0  0  0  # atno 10763 bound_to 10752
  154.2765  135.2778  155.2718 H   0  0  0  0  0  0  0  0  0  0  0  0  # atno 10764 bound_to 10752
  154.5076  135.5850  153.6636 H   0  0  0  0  0  0  0  0  0  0  0  0  # atno 10765 bound_to 10752
  140.9596  133.7172  156.1348 H   0  0  0  0  0  0  0  0  0  0  0  0  # atno 11005 bound_to 11000
  144.6735  140.0779  143.7470 LP  0  0  0  0  0  0  0  0  0  0  0  0  # atno 17320 bound_to 7965
  145.9490  139.2721  143.1223 LP  0  0  0  0  0  0  0  0  0  0  0  0  # atno 17321 bound_to 7965
  140.7795  143.4832  150.9990 LP  0  0  0  0  0  0  0  0  0  0  0  0  # atno 17342 bound_to 10162
  139.8520  143.7426  152.3177 LP  0  0  0  0  0  0  0  0  0  0  0  0  # atno 17343 bound_to 10162
  156.4465  130.7886  151.2907 LP  0  0  0  0  0  0  0  0  0  0  0  0  # atno 17370 bound_to 10713
  157.7498  131.0109  150.3323 LP  0  0  0  0  0  0  0  0  0  0  0  0  # atno 17371 bound_to 10713
  140.7486  134.4070  157.5544 LP  0  0  0  0  0  0  0  0  0  0  0  0  # atno 17394 bound_to 11000
  139.8873  134.8885  156.2533 LP  0  0  0  0  0  0  0  0  0  0  0  0  # atno 17395 bound_to 11000

$$$$
