AV-unprocessed.smi:232|AV-procd|sdf|1774|dock10
  -GOLD-   2262020313D 1   1.00000     0.00000
 Structure written by MMmdl.
 52 55  0  0  0  0  0  0  0  0  1 V2000
  154.0298  140.9049  161.1558 C   0  0  0  0  0  0  0  0  0  0  0  0
  153.4638  140.7596  159.7376 C   0  0  0  0  0  0  0  0  0  0  0  0
  152.2505  141.6781  159.4730 C   0  0  1  0  0  0  0  0  0  0  0  0
  152.4655  143.1224  159.9664 C   0  0  0  0  0  0  0  0  0  0  0  0
  152.0610  144.0257  158.7957 C   0  0  0  0  0  0  0  0  0  0  0  0
  151.3083  143.1057  157.8333 C   0  0  2  0  0  0  0  0  0  0  0  0
  149.7915  143.1042  158.1162 C   0  0  0  0  0  0  0  0  0  0  0  0
  151.9335  141.8055  158.0503 N   0  0  0  0  0  0  0  0  0  0  0  0
  151.4407  140.7559  157.3396 C   0  0  0  0  0  0  0  0  0  0  0  0
  151.3120  140.8496  155.9888 N   0  0  0  0  0  0  0  0  0  0  0  0
  150.8454  139.8182  155.2796 C   0  0  0  0  0  0  0  0  0  0  0  0
  150.4575  138.6171  155.7107 N   0  0  0  0  0  0  0  0  0  0  0  0
  150.5827  138.5153  157.0648 C   0  0  0  0  0  0  0  0  0  0  0  0
  151.0618  139.5250  157.9470 C   0  0  0  0  0  0  0  0  0  0  0  0
  151.0383  139.0564  159.2558 N   0  0  0  0  0  0  0  0  0  0  0  0
  150.5766  137.8403  159.1529 C   0  0  0  0  0  0  0  0  0  0  0  0
  150.2741  137.4359  157.8733 N   0  0  0  0  0  0  0  0  0  0  0  0
  149.7377  136.1463  157.4758 C   0  0  0  0  0  0  0  0  0  0  0  0
  150.6598  135.4058  156.4865 C   0  0  1  0  0  0  0  0  0  0  0  0
  151.9864  135.4066  156.9811 O   0  0  0  0  0  0  0  0  0  0  0  0
  150.1922  133.9582  156.2329 C   0  0  2  0  0  0  0  0  0  0  0  0
  148.8254  133.7859  155.5444 C   0  0  0  0  0  0  0  0  0  0  0  0
  148.0170  132.9840  156.5478 C   0  0  0  0  0  0  0  0  0  0  0  0
  149.0965  132.2708  157.3514 C   0  0  0  0  0  0  0  0  0  0  0  0
  150.1106  133.2551  157.4688 O   0  0  0  0  0  0  0  0  0  0  0  0
  154.8745  140.2323  161.3052 H   0  0  0  0  0  0  0  0  0  0  0  0
  153.2757  140.6617  161.9047 H   0  0  0  0  0  0  0  0  0  0  0  0
  154.3784  141.9195  161.3479 H   0  0  0  0  0  0  0  0  0  0  0  0
  154.2472  140.9653  159.0074 H   0  0  0  0  0  0  0  0  0  0  0  0
  153.1880  139.7156  159.5918 H   0  0  0  0  0  0  0  0  0  0  0  0
  151.3760  141.2690  159.9815 H   0  0  0  0  0  0  0  0  0  0  0  0
  151.8444  143.3155  160.8418 H   0  0  0  0  0  0  0  0  0  0  0  0
  153.5000  143.3183  160.2513 H   0  0  0  0  0  0  0  0  0  0  0  0
  151.4775  144.8919  159.1092 H   0  0  0  0  0  0  0  0  0  0  0  0
  152.9605  144.3996  158.3049 H   0  0  0  0  0  0  0  0  0  0  0  0
  151.4804  143.4474  156.8131 H   0  0  0  0  0  0  0  0  0  0  0  0
  149.3746  144.1041  157.9939 H   0  0  0  0  0  0  0  0  0  0  0  0
  149.5681  142.7748  159.1313 H   0  0  0  0  0  0  0  0  0  0  0  0
  149.2578  142.4476  157.4285 H   0  0  0  0  0  0  0  0  0  0  0  0
  150.7736  139.9779  154.2140 H   0  0  0  0  0  0  0  0  0  0  0  0
  150.4372  137.2024  160.0136 H   0  0  0  0  0  0  0  0  0  0  0  0
  149.5716  135.5456  158.3708 H   0  0  0  0  0  0  0  0  0  0  0  0
  148.7578  136.3105  157.0263 H   0  0  0  0  0  0  0  0  0  0  0  0
  150.6551  135.9471  155.5395 H   0  0  0  0  0  0  0  0  0  0  0  0
  151.9618  135.6337  157.8981 H   0  0  0  0  0  0  0  0  0  0  0  0
  150.9480  133.4420  155.6385 H   0  0  0  0  0  0  0  0  0  0  0  0
  148.3365  134.7263  155.2882 H   0  0  0  0  0  0  0  0  0  0  0  0
  148.9471  133.2201  154.6200 H   0  0  0  0  0  0  0  0  0  0  0  0
  147.4586  133.6585  157.1982 H   0  0  0  0  0  0  0  0  0  0  0  0
  147.3100  132.2994  156.0789 H   0  0  0  0  0  0  0  0  0  0  0  0
  148.7449  131.9347  158.3271 H   0  0  0  0  0  0  0  0  0  0  0  0
  149.4836  131.4086  156.8059 H   0  0  0  0  0  0  0  0  0  0  0  0
  1  2  1  0  0  0  0
  1 26  1  0  0  0  0
  1 27  1  0  0  0  0
  1 28  1  0  0  0  0
  2  3  1  0  0  0  0
  2 29  1  0  0  0  0
  2 30  1  0  0  0  0
  3  8  1  0  0  0  0
  3  4  1  0  0  0  0
  3 31  1  0  0  0  0
  4  5  1  0  0  0  0
  4 32  1  0  0  0  0
  4 33  1  0  0  0  0
  5  6  1  0  0  0  0
  5 34  1  0  0  0  0
  5 35  1  0  0  0  0
  6  7  1  0  0  0  0
  6  8  1  0  0  0  0
  6 36  1  0  0  0  0
  7 37  1  0  0  0  0
  7 38  1  0  0  0  0
  7 39  1  0  0  0  0
  8  9  1  0  0  0  0
  9 14  1  0  0  0  0
  9 10  2  0  0  0  0
 10 11  1  0  0  0  0
 11 12  2  0  0  0  0
 11 40  1  0  0  0  0
 12 13  1  0  0  0  0
 13 17  1  0  0  0  0
 13 14  2  0  0  0  0
 14 15  1  0  0  0  0
 15 16  2  0  0  0  0
 16 17  1  0  0  0  0
 16 41  1  0  0  0  0
 17 18  1  0  0  0  0
 18 19  1  0  0  0  0
 18 42  1  0  0  0  0
 18 43  1  0  0  0  0
 19 20  1  0  0  0  0
 19 21  1  0  0  0  0
 19 44  1  0  0  0  0
 20 45  1  0  0  0  0
 21 25  1  0  0  0  0
 21 22  1  0  0  0  0
 21 46  1  0  0  0  0
 22 23  1  0  0  0  0
 22 47  1  0  0  0  0
 22 48  1  0  0  0  0
 23 24  1  0  0  0  0
 23 49  1  0  0  0  0
 23 50  1  0  0  0  0
 24 25  1  0  0  0  0
 24 51  1  0  0  0  0
 24 52  1  0  0  0  0
M  END
> <s_m_source_file>
AV-unprocessed.smi

> <i_m_source_file_index>
232

> <i_lp_mmshare_version>
43012

> <i_f3d_flags>
0

> <s_epik_input>
W0NIM11bQ0gyXVtDQEBIXTFbQ0gyXVtDSDJdW0NAQEhdKFtDSDNdKU4xYyhuW2NIXW4yKWMoYzIzKW5bY0hdbjNbQ0gyXVtDQEhdKFtPSF0pW0NAQEhdNFtDSDJdW0NIMl1bQ0gyXU80

> <s_epik_cmdline>
J2VwaWtfcHl0aG9uJywgJy1waCcsICc3LjAnLCAnLXRuJywgJzgnLCAnLW1hJywgJzIwMCcsICctbWV0YWxfYmluZGluZycsICctaW1hZScsICc8aW5maWxlLm1hZT4nLCAnLW9tYWUnLCAnPG91dGZpbGUubWFlPic=

> <r_lp_tautomer_probability>
1

> <r_epik_Ionization_Penalty>
0.00258048

> <r_epik_Ionization_Penalty_Charging>
0

> <r_epik_Ionization_Penalty_Neutral>
0.00258048

> <r_epik_State_Penalty>
0.00168551

> <r_epik_Charging_Adjusted_Penalty>
0.00168551

> <i_epik_Tot_Q>
0

> <i_epik_Tot_abs_Q>
0

> <r_epik_Metal_State_Penalty>
-0

> <b_epik_Metal_Only>
0

> <s_lp_Force_Field>
OPLS_2005

> <r_lp_Energy>
56.0552

> <b_lp_Chiralities_Consistent>
1

> <s_lp_Variant>
AV-unprocessed.smi:232-8

> <Gold.Version>
5.8.1

> <Gold.Id.Protein>
6NUR|6NUR_protein|mol2

> <Gold.PLP.Fitness>
43.4719

> <Gold.PLP.PLP>
-37.9371

> <Gold.PLP.part.hbond>
-2.1575

> <Gold.PLP.part.metal>
0.0000

> <Gold.PLP.part.buried>
-4.8730

> <Gold.PLP.part.nonpolar>
-31.3410

> <Gold.PLP.part.repulsive>
0.0403

> <Gold.PLP.ligand.clash>
0.0000

> <Gold.PLP.ligand.torsion>
0.3106

> <Gold.PLP.Chemscore.Hbond>
1.9440

> <Gold.PLP.Chemscore.CHOScore>
0.0000

> <Gold.PLP.Chemscore.Metal>
0.0000

> <Gold.Chemscore.Hbonds>
donor molecule, donor type, donor heavy atom, donor atom, acceptor molecule, acceptor atom, score
      P1  H  6896  6908       L1    25  0.86
      P1  H 10752 10764       L1    20  0.52

> <Gold.PLP.Chemscore.Internal.Correction>
0.3239

> <Gold.Rescore>
     Score         DG    S(hbond)    S(metal)    S(lipo)     H(rot)  DE(clash)    DE(int)     intcor
     13.47     -16.41       1.86        0.00      93.35       2.43       0.13       2.82       ----

> <Gold.Chemscore.Fitness>
13.4662

> <Gold.Chemscore.DG>
-16.4136

> <Gold.Chemscore.ZeroCoef>
-5.4800

> <Gold.Chemscore.Hbond>
1.8628

> <Gold.Chemscore.Metal>
0.0000

> <Gold.Chemscore.Lipo>
93.3545

> <Gold.Chemscore.Internal_Hbond>
0.0000

> <Gold.Chemscore.DEClash>
0.1274

> <Gold.Chemscore.DEInternal>
2.8200

> <Gold.Chemscore.Rot>
2.4260

> <Gold.Chemscore.Internal.Correction>
   9.000000E+99

> <Gold.Chemscore.Hbonds>
donor molecule, donor type, donor heavy atom, donor atom, acceptor molecule, acceptor atom, score
      P1  H  6896  6908       L1    25  0.79
      P1  H 10752 10764       L1    20  0.21

> <Gold.Chemscore.Hbond.Weighted>
-6.2218

> <Gold.Chemscore.Metal.Weighted>
-0.0000

> <Gold.Chemscore.Lipo.Weighted>
-10.9225

> <Gold.Chemscore.Internal_Hbond.Weighted>
0.0000

> <Gold.Chemscore.DEClash.Weighted>
0.1274

> <Gold.Chemscore.DEInternal.Weighted>
2.8200

> <Gold.Chemscore.Rot.Weighted>
6.2107

> <Gold.Chemscore.Internal.Correction.Weighted>
   9.000000E+99

> <Gold.Protein.RotatedTorsions>
[ 6907 6896 6895 6894 ] final   88.01 input  -60.11 | X-H torsion
[ 7974 7965 7964 7962 ] final -105.53 input  175.53 | X-H torsion
[ 8008 7997 7996 7995 ] final   45.04 input   59.86 | X-H torsion
[ 10167 10162 10161 10158 ] final  113.88 input  -65.29 | X-H torsion
[ 10718 10713 10712 10709 ] final  -44.26 input   66.30 | X-H torsion
[ 10763 10752 10751 10750 ] final  -25.59 input  -60.55 | X-H torsion
[ 11005 11000 10999 10996 ] final  -46.67 input  -57.11 | X-H torsion

> <Gold.Protein.ActiveResidues>
 VAL166  LYS551  ARG553  GLY616  TRP617  ASP618  TYR619  PRO620  LYS621  CYS622 
 ASP623  PHE694  ASN695  SER759  ASP760  ASP761  ALA762  ILE779  LEU786  VAL792 
 PHE793  MET794  SER795  GLU796  ALA797  LYS798  CYS799  TRP800  GLU811  SER814 

> <Gold.Protein.RotatedAtoms>
  152.5419  134.2187  159.8778 H   0  0  0  0  0  0  0  0  0  0  0  0  # atno 6907 bound_to 6896
  151.2165  133.4519  159.2607 H   0  0  0  0  0  0  0  0  0  0  0  0  # atno 6908 bound_to 6896
  151.0846  134.9892  159.8428 H   0  0  0  0  0  0  0  0  0  0  0  0  # atno 6909 bound_to 6896
  145.2293  140.9164  143.3214 H   0  0  0  0  0  0  0  0  0  0  0  0  # atno 7974 bound_to 7965
  155.3292  140.3401  155.4240 H   0  0  0  0  0  0  0  0  0  0  0  0  # atno 8008 bound_to 7997
  156.1870  140.1684  156.8203 H   0  0  0  0  0  0  0  0  0  0  0  0  # atno 8009 bound_to 7997
  154.5398  140.0727  156.8473 H   0  0  0  0  0  0  0  0  0  0  0  0  # atno 8010 bound_to 7997
  139.6429  144.7125  151.2201 H   0  0  0  0  0  0  0  0  0  0  0  0  # atno 10167 bound_to 10162
  156.2404  130.4179  149.8768 H   0  0  0  0  0  0  0  0  0  0  0  0  # atno 10718 bound_to 10713
  153.7022  135.6955  153.5060 H   0  0  0  0  0  0  0  0  0  0  0  0  # atno 10763 bound_to 10752
  153.2334  135.4330  155.0619 H   0  0  0  0  0  0  0  0  0  0  0  0  # atno 10764 bound_to 10752
  154.8340  135.3490  154.6561 H   0  0  0  0  0  0  0  0  0  0  0  0  # atno 10765 bound_to 10752
  141.0593  133.6714  156.3188 H   0  0  0  0  0  0  0  0  0  0  0  0  # atno 11005 bound_to 11000
  144.9692  139.3898  143.6317 LP  0  0  0  0  0  0  0  0  0  0  0  0  # atno 17320 bound_to 7965
  146.3357  139.8781  142.8829 LP  0  0  0  0  0  0  0  0  0  0  0  0  # atno 17321 bound_to 7965
  140.7500  143.6281  150.8449 LP  0  0  0  0  0  0  0  0  0  0  0  0  # atno 17342 bound_to 10162
  139.9921  143.5836  152.2906 LP  0  0  0  0  0  0  0  0  0  0  0  0  # atno 17343 bound_to 10162
  156.6351  130.8682  151.3503 LP  0  0  0  0  0  0  0  0  0  0  0  0  # atno 17370 bound_to 10713
  157.7173  130.9513  150.1302 LP  0  0  0  0  0  0  0  0  0  0  0  0  # atno 17371 bound_to 10713
  140.5901  134.5659  157.5497 LP  0  0  0  0  0  0  0  0  0  0  0  0  # atno 17394 bound_to 11000
  139.9418  134.7773  156.0659 LP  0  0  0  0  0  0  0  0  0  0  0  0  # atno 17395 bound_to 11000

$$$$
