AV-unprocessed.smi:196|AV-procd|sdf|1536|dock1
  -GOLD-   2262019393D 1   1.00000     0.00000
 Structure written by MMmdl.
 47 50  0  0  0  0  0  0  0  0  1 V2000
  151.6450  137.6854  155.0535 C   0  0  0  0  0  0  0  0  0  0  0  0
  151.5091  139.2157  155.0147 C   0  0  2  0  0  0  0  0  0  0  0  0
  152.2230  139.7424  156.1306 O   0  0  0  0  0  0  0  0  0  0  0  0
  151.6005  140.9443  156.5481 C   0  0  0  0  0  0  0  0  0  0  0  0
  150.1230  140.6106  156.4133 C   0  0  0  0  0  0  0  0  0  0  0  0
  150.0702  139.7964  155.1231 C   0  0  1  0  0  0  0  0  0  0  0  0
  149.8922  140.7012  154.0457 O   0  0  0  0  0  0  0  0  0  0  0  0
  148.9062  138.7717  155.0834 C   0  0  0  0  0  0  0  0  0  0  0  0
  148.5120  138.2907  156.3994 N   0  0  0  0  0  0  0  0  0  0  0  0
  147.6958  138.9340  157.2995 C   0  0  0  0  0  0  0  0  0  0  0  0
  147.4908  138.2936  158.4166 N   0  0  0  0  0  0  0  0  0  0  0  0
  148.2078  137.1087  158.2806 C   0  0  0  0  0  0  0  0  0  0  0  0
  148.4215  135.9592  159.1028 C   0  0  0  0  0  0  0  0  0  0  0  0
  147.8923  135.7651  160.3432 N   0  0  0  0  0  0  0  0  0  0  0  0
  147.9915  134.4874  161.0439 C   0  0  0  0  0  0  0  0  0  0  0  0
  147.2140  134.6701  162.3486 C   0  0  2  0  0  0  0  0  0  0  0  0
  145.9592  134.2462  162.1899 F   0  0  0  0  0  0  0  0  0  0  0  0
  147.2317  136.1840  162.5624 C   0  0  0  0  0  0  0  0  0  0  0  0
  147.2158  136.7853  161.1452 C   0  0  2  0  0  0  0  0  0  0  0  0
  145.7828  137.0687  160.6562 C   0  0  0  0  0  0  0  0  0  0  0  0
  145.0498  137.8991  161.4013 N   0  0  0  0  0  0  0  0  0  0  0  0
  145.3404  136.5520  159.6312 O   0  0  0  0  0  0  0  0  0  0  0  0
  149.2223  134.9832  158.5973 N   0  0  0  0  0  0  0  0  0  0  0  0
  149.7677  135.1033  157.3849 C   0  0  0  0  0  0  0  0  0  0  0  0
  149.6507  136.1062  156.5152 N   0  0  0  0  0  0  0  0  0  0  0  0
  148.8567  137.0973  157.0103 C   0  0  0  0  0  0  0  0  0  0  0  0
  147.6405  134.1123  163.1826 H   0  0  0  0  0  0  0  0  0  0  0  0
  147.7901  137.7120  161.1535 H   0  0  0  0  0  0  0  0  0  0  0  0
  151.1288  137.2178  154.2150 H   0  0  0  0  0  0  0  0  0  0  0  0
  151.2431  137.2703  155.9782 H   0  0  0  0  0  0  0  0  0  0  0  0
  152.6932  137.3919  154.9943 H   0  0  0  0  0  0  0  0  0  0  0  0
  151.9991  139.5800  154.1097 H   0  0  0  0  0  0  0  0  0  0  0  0
  151.8824  141.2121  157.5665 H   0  0  0  0  0  0  0  0  0  0  0  0
  151.8845  141.7600  155.8815 H   0  0  0  0  0  0  0  0  0  0  0  0
  149.8287  139.9903  157.2605 H   0  0  0  0  0  0  0  0  0  0  0  0
  149.4798  141.4918  156.4079 H   0  0  0  0  0  0  0  0  0  0  0  0
  149.2001  141.3035  154.2722 H   0  0  0  0  0  0  0  0  0  0  0  0
  148.0290  139.2109  154.6069 H   0  0  0  0  0  0  0  0  0  0  0  0
  149.1808  137.9040  154.4834 H   0  0  0  0  0  0  0  0  0  0  0  0
  147.2592  139.9023  157.1021 H   0  0  0  0  0  0  0  0  0  0  0  0
  147.5930  133.6603  160.4544 H   0  0  0  0  0  0  0  0  0  0  0  0
  149.0418  134.2814  161.2549 H   0  0  0  0  0  0  0  0  0  0  0  0
  146.4134  136.5285  163.1965 H   0  0  0  0  0  0  0  0  0  0  0  0
  148.1618  136.4640  163.0589 H   0  0  0  0  0  0  0  0  0  0  0  0
  144.1019  138.1168  161.1310 H   0  0  0  0  0  0  0  0  0  0  0  0
  145.4469  138.3030  162.2373 H   0  0  0  0  0  0  0  0  0  0  0  0
  150.3851  134.2765  157.0658 H   0  0  0  0  0  0  0  0  0  0  0  0
  1  2  1  0  0  0  0
  1 29  1  0  0  0  0
  1 30  1  0  0  0  0
  1 31  1  0  0  0  0
  2  6  1  0  0  0  0
  2  3  1  0  0  0  0
  2 32  1  0  0  0  0
  3  4  1  0  0  0  0
  4  5  1  0  0  0  0
  4 33  1  0  0  0  0
  4 34  1  0  0  0  0
  5  6  1  0  0  0  0
  5 35  1  0  0  0  0
  5 36  1  0  0  0  0
  6  7  1  0  0  0  0
  6  8  1  0  0  0  0
  7 37  1  0  0  0  0
  8  9  1  0  0  0  0
  8 38  1  0  0  0  0
  8 39  1  0  0  0  0
  9 26  1  0  0  0  0
  9 10  1  0  0  0  0
 10 11  2  0  0  0  0
 10 40  1  0  0  0  0
 11 12  1  0  0  0  0
 12 26  2  0  0  0  0
 12 13  1  0  0  0  0
 13 14  1  0  0  0  0
 13 23  2  0  0  0  0
 14 19  1  0  0  0  0
 14 15  1  0  0  0  0
 15 16  1  0  0  0  0
 15 41  1  0  0  0  0
 15 42  1  0  0  0  0
 16 27  1  0  0  0  0
 16 17  1  0  0  0  0
 16 18  1  0  0  0  0
 18 19  1  0  0  0  0
 18 43  1  0  0  0  0
 18 44  1  0  0  0  0
 19 28  1  0  0  0  0
 19 20  1  0  0  0  0
 20 21  1  0  0  0  0
 20 22  2  0  0  0  0
 21 45  1  0  0  0  0
 21 46  1  0  0  0  0
 23 24  1  0  0  0  0
 24 25  2  0  0  0  0
 24 47  1  0  0  0  0
 25 26  1  0  0  0  0
M  END
> <s_m_source_file>
AV-unprocessed.smi

> <i_m_source_file_index>
196

> <i_lp_mmshare_version>
43012

> <i_f3d_flags>
0

> <s_epik_input>
W0NIMl0xW0NIMl1PW0NAQEhdKFtDSDNdKVtDQEBdMShbT0hdKVtDSDJdbihbY0hdbjIpYyhjMjMpbltjSF1uYzNONFtDSDJdW0NASF0oRilbQ0gyXVtDQEhdNEMoPU8pW05IMl0=

> <s_epik_cmdline>
J2VwaWtfcHl0aG9uJywgJy1waCcsICc3LjAnLCAnLXRuJywgJzgnLCAnLW1hJywgJzIwMCcsICctbWV0YWxfYmluZGluZycsICctaW1hZScsICc8aW5maWxlLm1hZT4nLCAnLW9tYWUnLCAnPG91dGZpbGUubWFlPic=

> <r_lp_tautomer_probability>
1

> <r_epik_Ionization_Penalty>
0.000857933

> <r_epik_Ionization_Penalty_Charging>
0

> <r_epik_Ionization_Penalty_Neutral>
0.000857933

> <r_epik_State_Penalty>
0.000462053

> <r_epik_Charging_Adjusted_Penalty>
0.000462053

> <i_epik_Tot_Q>
0

> <i_epik_Tot_abs_Q>
0

> <r_epik_Metal_State_Penalty>
-0

> <b_epik_Metal_Only>
0

> <s_lp_Force_Field>
OPLS_2005

> <r_lp_Energy>
42.9342

> <b_lp_Chiralities_Consistent>
1

> <s_lp_Variant>
AV-unprocessed.smi:196-9

> <Gold.Version>
5.8.1

> <Gold.Id.Protein>
6NUR|6NUR_protein|mol2

> <Gold.PLP.Fitness>
41.2125

> <Gold.PLP.PLP>
-36.1143

> <Gold.PLP.part.hbond>
-4.5663

> <Gold.PLP.part.metal>
0.0000

> <Gold.PLP.part.buried>
-4.2800

> <Gold.PLP.part.nonpolar>
-27.2378

> <Gold.PLP.part.repulsive>
0.4409

> <Gold.PLP.ligand.clash>
0.0000

> <Gold.PLP.ligand.torsion>
0.9746

> <Gold.PLP.Chemscore.Hbond>
2.3390

> <Gold.PLP.Chemscore.CHOScore>
0.0000

> <Gold.PLP.Chemscore.Metal>
0.0000

> <Gold.Chemscore.Hbonds>
donor molecule, donor type, donor heavy atom, donor atom, acceptor molecule, acceptor atom, score
      P1  H  6896  6909       L1    23  0.95
      P1  H  7989  7998       L1     7  0.62
      P1  H  7997  8008       L1     3  0.70

> <Gold.PLP.Chemscore.Internal.Correction>
0.0304

> <Gold.Rescore>
     Score         DG    S(hbond)    S(metal)    S(lipo)     H(rot)  DE(clash)    DE(int)     intcor
      9.46     -12.78       1.74        0.00      69.61       2.60       0.50       2.82       ----

> <Gold.Chemscore.Fitness>
9.4640

> <Gold.Chemscore.DG>
-12.7816

> <Gold.Chemscore.ZeroCoef>
-5.4800

> <Gold.Chemscore.Hbond>
1.7380

> <Gold.Chemscore.Metal>
0.0000

> <Gold.Chemscore.Lipo>
69.6096

> <Gold.Chemscore.Internal_Hbond>
0.0000

> <Gold.Chemscore.DEClash>
0.4976

> <Gold.Chemscore.DEInternal>
2.8199

> <Gold.Chemscore.Rot>
2.5968

> <Gold.Chemscore.Internal.Correction>
   9.000000E+99

> <Gold.Chemscore.Hbonds>
donor molecule, donor type, donor heavy atom, donor atom, acceptor molecule, acceptor atom, score
      P1  H  6896  6909       L1    23  0.21
      P1  H  7989  7998       L1     7  0.19
      P1  H  7997  8008       L1     3  0.31

> <Gold.Chemscore.Hbond.Weighted>
-5.8050

> <Gold.Chemscore.Metal.Weighted>
-0.0000

> <Gold.Chemscore.Lipo.Weighted>
-8.1443

> <Gold.Chemscore.Internal_Hbond.Weighted>
0.0000

> <Gold.Chemscore.DEClash.Weighted>
0.4976

> <Gold.Chemscore.DEInternal.Weighted>
2.8199

> <Gold.Chemscore.Rot.Weighted>
6.6477

> <Gold.Chemscore.Internal.Correction.Weighted>
   9.000000E+99

> <Gold.Protein.RotatedTorsions>
[ 6907 6896 6895 6894 ] final   40.58 input  -60.11 | X-H torsion
[ 7974 7965 7964 7962 ] final  127.74 input  175.53 | X-H torsion
[ 8008 7997 7996 7995 ] final  -41.60 input   59.86 | X-H torsion
[ 10167 10162 10161 10158 ] final   31.37 input  -65.29 | X-H torsion
[ 10718 10713 10712 10709 ] final   27.26 input   66.30 | X-H torsion
[ 10763 10752 10751 10750 ] final  164.72 input  -60.55 | X-H torsion
[ 11005 11000 10999 10996 ] final  -18.25 input  -57.11 | X-H torsion

> <Gold.Protein.ActiveResidues>
 VAL166  LYS551  ARG553  GLY616  TRP617  ASP618  TYR619  PRO620  LYS621  CYS622 
 ASP623  PHE694  ASN695  SER759  ASP760  ASP761  ALA762  ILE779  LEU786  VAL792 
 PHE793  MET794  SER795  GLU796  ALA797  LYS798  CYS799  TRP800  GLU811  SER814 

> <Gold.Protein.RotatedAtoms>
  152.1843  134.8727  160.0523 H   0  0  0  0  0  0  0  0  0  0  0  0  # atno 6907 bound_to 6896
  151.9639  133.3699  159.4054 H   0  0  0  0  0  0  0  0  0  0  0  0  # atno 6908 bound_to 6896
  150.6923  134.4134  159.5216 H   0  0  0  0  0  0  0  0  0  0  0  0  # atno 6909 bound_to 6896
  145.0472  139.3913  143.5072 H   0  0  0  0  0  0  0  0  0  0  0  0  # atno 7974 bound_to 7965
  154.4003  140.1495  156.3218 H   0  0  0  0  0  0  0  0  0  0  0  0  # atno 8008 bound_to 7997
  155.8523  140.3457  155.5680 H   0  0  0  0  0  0  0  0  0  0  0  0  # atno 8009 bound_to 7997
  155.7971  140.0865  157.1968 H   0  0  0  0  0  0  0  0  0  0  0  0  # atno 8010 bound_to 7997
  140.4594  144.0929  150.6209 H   0  0  0  0  0  0  0  0  0  0  0  0  # atno 10167 bound_to 10162
  157.2178  130.6964  149.6256 H   0  0  0  0  0  0  0  0  0  0  0  0  # atno 10718 bound_to 10713
  154.3131  135.2757  155.2556 H   0  0  0  0  0  0  0  0  0  0  0  0  # atno 10763 bound_to 10752
  154.4942  135.5825  153.6485 H   0  0  0  0  0  0  0  0  0  0  0  0  # atno 10764 bound_to 10752
  152.9885  135.6142  154.3310 H   0  0  0  0  0  0  0  0  0  0  0  0  # atno 10765 bound_to 10752
  140.8249  133.8040  155.9698 H   0  0  0  0  0  0  0  0  0  0  0  0  # atno 11005 bound_to 11000
  146.3515  140.0104  142.8667 LP  0  0  0  0  0  0  0  0  0  0  0  0  # atno 17320 bound_to 7965
  145.1572  140.9654  143.4398 LP  0  0  0  0  0  0  0  0  0  0  0  0  # atno 17321 bound_to 7965
  140.4111  143.2656  151.9831 LP  0  0  0  0  0  0  0  0  0  0  0  0  # atno 17342 bound_to 10162
  139.4804  144.5914  151.7765 LP  0  0  0  0  0  0  0  0  0  0  0  0  # atno 17343 bound_to 10162
  155.9685  130.4530  150.5795 LP  0  0  0  0  0  0  0  0  0  0  0  0  # atno 17370 bound_to 10713
  157.3607  131.0749  151.1639 LP  0  0  0  0  0  0  0  0  0  0  0  0  # atno 17371 bound_to 10713
  140.9059  134.2320  157.5014 LP  0  0  0  0  0  0  0  0  0  0  0  0  # atno 17394 bound_to 11000
  139.8707  134.9728  156.4786 LP  0  0  0  0  0  0  0  0  0  0  0  0  # atno 17395 bound_to 11000

$$$$
