AV-unprocessed.smi:1824|AV-procd|sdf|7411|dock8
  -GOLD-   22720 9 83D 1   1.00000     0.00000
 Structure written by MMmdl.
 45 47  0  0  0  0  0  0  0  0  2 V2000
  152.5925  138.0406  154.7679 C   0  0  0  0  0  0  0  0  0  0  0  0
  151.2736  138.6950  155.1925 C   0  0  1  0  0  0  0  0  0  0  0  0
  151.4623  140.1704  155.5910 C   0  0  0  0  0  0  0  0  0  0  0  0
  150.1923  140.8203  155.9045 N   0  0  0  0  0  0  0  0  0  0  0  0
  150.3542  142.2227  156.2926 C   0  0  0  0  0  0  0  0  0  0  0  0
  150.7812  142.4605  157.7546 C   0  0  2  0  0  0  0  0  0  0  0  0
  149.6205  142.4469  158.5624 O   0  0  0  0  0  0  0  0  0  0  0  0
  151.5085  143.8095  157.9173 C   0  0  0  0  0  0  0  0  0  0  0  0
  151.8708  144.0996  159.3125 N   0  0  0  0  0  0  0  0  0  0  0  0
  151.6977  145.2395  160.0351 C   0  0  0  0  0  0  0  0  0  0  0  0
  152.1995  145.0165  161.2815 N   0  3  0  0  0  0  0  0  0  0  0  0
  152.7027  143.7157  161.3563 C   0  0  0  0  0  0  0  0  0  0  0  0
  153.3099  143.0322  162.4050 C   0  0  0  0  0  0  0  0  0  0  0  0
  153.7160  141.7059  162.1485 C   0  0  0  0  0  0  0  0  0  0  0  0
  154.3140  140.9955  163.1340 F   0  0  0  0  0  0  0  0  0  0  0  0
  153.5125  141.1071  160.8872 C   0  0  0  0  0  0  0  0  0  0  0  0
  153.9191  139.8318  160.6824 F   0  0  0  0  0  0  0  0  0  0  0  0
  152.8942  141.8100  159.8323 C   0  0  0  0  0  0  0  0  0  0  0  0
  152.4954  143.1203  160.0944 C   0  0  0  0  0  0  0  0  0  0  0  0
  149.3056  140.7011  154.7519 C   0  0  0  0  0  0  0  0  0  0  0  0
  149.1003  139.2405  154.3036 C   0  0  2  0  0  0  0  0  0  0  0  0
  148.2039  138.4301  155.2559 C   0  0  0  0  0  0  0  0  0  0  0  0
  150.3643  138.6084  154.0970 O   0  0  0  0  0  0  0  0  0  0  0  0
  153.3213  138.0649  155.5785 H   0  0  0  0  0  0  0  0  0  0  0  0
  153.0285  138.5523  153.9094 H   0  0  0  0  0  0  0  0  0  0  0  0
  152.4384  136.9974  154.4909 H   0  0  0  0  0  0  0  0  0  0  0  0
  150.8724  138.1381  156.0398 H   0  0  0  0  0  0  0  0  0  0  0  0
  152.1322  140.2094  156.4486 H   0  0  0  0  0  0  0  0  0  0  0  0
  151.9602  140.7062  154.7811 H   0  0  0  0  0  0  0  0  0  0  0  0
  151.0776  142.6940  155.6252 H   0  0  0  0  0  0  0  0  0  0  0  0
  149.4147  142.7529  156.1278 H   0  0  0  0  0  0  0  0  0  0  0  0
  151.4476  141.6713  158.0999 H   0  0  0  0  0  0  0  0  0  0  0  0
  149.1297  141.6641  158.3612 H   0  0  0  0  0  0  0  0  0  0  0  0
  152.4356  143.8005  157.3426 H   0  0  0  0  0  0  0  0  0  0  0  0
  150.9138  144.6325  157.5206 H   0  0  0  0  0  0  0  0  0  0  0  0
  151.2448  146.1554  159.6831 H   0  0  0  0  0  0  0  0  0  0  0  0
  153.4688  143.4865  163.3717 H   0  0  0  0  0  0  0  0  0  0  0  0
  152.7510  141.3430  158.8694 H   0  0  0  0  0  0  0  0  0  0  0  0
  148.3374  141.1507  154.9765 H   0  0  0  0  0  0  0  0  0  0  0  0
  149.7200  141.2689  153.9172 H   0  0  0  0  0  0  0  0  0  0  0  0
  148.6028  139.2542  153.3335 H   0  0  0  0  0  0  0  0  0  0  0  0
  147.2048  138.8629  155.3095 H   0  0  0  0  0  0  0  0  0  0  0  0
  148.6012  138.4032  156.2704 H   0  0  0  0  0  0  0  0  0  0  0  0
  148.1000  137.4014  154.9103 H   0  0  0  0  0  0  0  0  0  0  0  0
  152.1985  145.7047  162.0237 H   0  0  0  0  0  0  0  0  0  0  0  0
  1  2  1  0  0  0  0
  1 24  1  0  0  0  0
  1 25  1  0  0  0  0
  1 26  1  0  0  0  0
  2 23  1  0  0  0  0
  2  3  1  0  0  0  0
  2 27  1  0  0  0  0
  3  4  1  0  0  0  0
  3 28  1  0  0  0  0
  3 29  1  0  0  0  0
  4  5  1  0  0  0  0
  4 20  1  0  0  0  0
  5  6  1  0  0  0  0
  5 30  1  0  0  0  0
  5 31  1  0  0  0  0
  6  7  1  0  0  0  0
  6  8  1  0  0  0  0
  6 32  1  0  0  0  0
  7 33  1  0  0  0  0
  8  9  1  0  0  0  0
  8 34  1  0  0  0  0
  8 35  1  0  0  0  0
  9 19  1  0  0  0  0
  9 10  1  0  0  0  0
 10 11  2  0  0  0  0
 10 36  1  0  0  0  0
 11 12  1  0  0  0  0
 11 45  1  0  0  0  0
 12 19  2  0  0  0  0
 12 13  1  0  0  0  0
 13 14  2  0  0  0  0
 13 37  1  0  0  0  0
 14 15  1  0  0  0  0
 14 16  1  0  0  0  0
 16 17  1  0  0  0  0
 16 18  2  0  0  0  0
 18 19  1  0  0  0  0
 18 38  1  0  0  0  0
 20 21  1  0  0  0  0
 20 39  1  0  0  0  0
 20 40  1  0  0  0  0
 21 22  1  0  0  0  0
 21 23  1  0  0  0  0
 21 41  1  0  0  0  0
 22 42  1  0  0  0  0
 22 43  1  0  0  0  0
 22 44  1  0  0  0  0
M  CHG  1  11   1
M  END
> <s_m_source_file>
AV-unprocessed.smi

> <i_m_source_file_index>
1824

> <i_lp_mmshare_version>
43012

> <i_f3d_flags>
0

> <s_epik_input>
W0NIM11bQ0BASF0xW0NIMl1OKFtDSDJdW0NASF0oTzEpW0NIM10pW0NIMl1bQ0BIXShbT0hdKVtDSDJdbihbY0hdbjIpYyhjMjMpW2NIXWMoRiljKEYpW2NIXTM=

> <s_epik_cmdline>
J2VwaWtfcHl0aG9uJywgJy1waCcsICc3LjAnLCAnLXRuJywgJzgnLCAnLW1hJywgJzIwMCcsICctbWV0YWxfYmluZGluZycsICctaW1hZScsICc8aW5maWxlLm1hZT4nLCAnLW9tYWUnLCAnPG91dGZpbGUubWFlPic=

> <r_epik_Ionization_Penalty>
2.58709

> <r_epik_Ionization_Penalty_Charging>
2.37273

> <r_epik_Ionization_Penalty_Neutral>
0.214359

> <r_epik_State_Penalty>
2.71799

> <r_epik_Charging_Adjusted_Penalty>
5.09071

> <i_epik_Tot_Q>
1

> <i_epik_Tot_abs_Q>
1

> <r_epik_Metal_State_Penalty>
6.80217

> <b_epik_Metal_Only>
0

> <s_lp_Force_Field>
OPLS_2005

> <r_lp_Energy>
35.2196

> <b_lp_Chiralities_Consistent>
1

> <s_lp_Variant>
AV-unprocessed.smi:1824-19

> <Gold.Version>
5.8.1

> <Gold.Id.Protein>
6NUR|6NUR_protein|mol2

> <Gold.PLP.Fitness>
54.1940

> <Gold.PLP.PLP>
-55.3961

> <Gold.PLP.part.hbond>
-1.1542

> <Gold.PLP.part.metal>
0.0000

> <Gold.PLP.part.buried>
-1.6709

> <Gold.PLP.part.nonpolar>
-51.6506

> <Gold.PLP.part.repulsive>
0.3572

> <Gold.PLP.ligand.clash>
0.0000

> <Gold.PLP.ligand.torsion>
0.6358

> <Gold.PLP.Chemscore.Hbond>
0.0032

> <Gold.PLP.Chemscore.CHOScore>
0.0000

> <Gold.PLP.Chemscore.Metal>
0.0000

> <Gold.PLP.Chemscore.Internal.Correction>
0.0598

> <Gold.Rescore>
     Score         DG    S(hbond)    S(metal)    S(lipo)     H(rot)  DE(clash)    DE(int)     intcor
     12.94     -15.25       0.00        0.00     134.28       2.32       1.68       0.63       ----

> <Gold.Chemscore.Fitness>
12.9417

> <Gold.Chemscore.DG>
-15.2492

> <Gold.Chemscore.ZeroCoef>
-5.4800

> <Gold.Chemscore.Hbond>
0.0000

> <Gold.Chemscore.Metal>
0.0000

> <Gold.Chemscore.Lipo>
134.2797

> <Gold.Chemscore.Internal_Hbond>
0.0000

> <Gold.Chemscore.DEClash>
1.6809

> <Gold.Chemscore.DEInternal>
0.6265

> <Gold.Chemscore.Rot>
2.3210

> <Gold.Chemscore.Internal.Correction>
   9.000000E+99

> <Gold.Chemscore.Hbond.Weighted>
-0.0001

> <Gold.Chemscore.Metal.Weighted>
-0.0000

> <Gold.Chemscore.Lipo.Weighted>
-15.7107

> <Gold.Chemscore.Internal_Hbond.Weighted>
0.0000

> <Gold.Chemscore.DEClash.Weighted>
1.6809

> <Gold.Chemscore.DEInternal.Weighted>
0.6265

> <Gold.Chemscore.Rot.Weighted>
5.9416

> <Gold.Chemscore.Internal.Correction.Weighted>
   9.000000E+99

> <Gold.Protein.RotatedTorsions>
[ 6907 6896 6895 6894 ] final -100.93 input  -60.11 | X-H torsion
[ 7974 7965 7964 7962 ] final  132.00 input  175.53 | X-H torsion
[ 8008 7997 7996 7995 ] final -122.20 input   59.86 | X-H torsion
[ 10167 10162 10161 10158 ] final  175.60 input  -65.29 | X-H torsion
[ 10718 10713 10712 10709 ] final  -11.32 input   66.30 | X-H torsion
[ 10763 10752 10751 10750 ] final   98.31 input  -60.55 | X-H torsion
[ 11005 11000 10999 10996 ] final -117.05 input  -57.11 | X-H torsion

> <Gold.Protein.ActiveResidues>
 VAL166  LYS551  ARG553  GLY616  TRP617  ASP618  TYR619  PRO620  LYS621  CYS622 
 ASP623  PHE694  ASN695  SER759  ASP760  ASP761  ALA762  ILE779  LEU786  VAL792 
 PHE793  MET794  SER795  GLU796  ALA797  LYS798  CYS799  TRP800  GLU811  SER814 

> <Gold.Protein.RotatedAtoms>
  150.7135  134.0811  159.3898 H   0  0  0  0  0  0  0  0  0  0  0  0  # atno 6907 bound_to 6896
  151.8795  135.0456  160.0496 H   0  0  0  0  0  0  0  0  0  0  0  0  # atno 6908 bound_to 6896
  152.2579  133.5236  159.5400 H   0  0  0  0  0  0  0  0  0  0  0  0  # atno 6909 bound_to 6896
  145.0014  139.4308  143.5290 H   0  0  0  0  0  0  0  0  0  0  0  0  # atno 7974 bound_to 7965
  155.1603  140.0406  157.2841 H   0  0  0  0  0  0  0  0  0  0  0  0  # atno 8008 bound_to 7997
  154.6341  140.2531  155.7372 H   0  0  0  0  0  0  0  0  0  0  0  0  # atno 8009 bound_to 7997
  156.2499  140.2869  156.0706 H   0  0  0  0  0  0  0  0  0  0  0  0  # atno 8010 bound_to 7997
  139.5183  144.3013  152.0376 H   0  0  0  0  0  0  0  0  0  0  0  0  # atno 10167 bound_to 10162
  156.6607  130.4981  149.6031 H   0  0  0  0  0  0  0  0  0  0  0  0  # atno 10718 bound_to 10713
  153.2875  135.4153  155.1136 H   0  0  0  0  0  0  0  0  0  0  0  0  # atno 10763 bound_to 10752
  154.8510  135.3510  154.6027 H   0  0  0  0  0  0  0  0  0  0  0  0  # atno 10764 bound_to 10752
  153.6449  135.7055  153.5287 H   0  0  0  0  0  0  0  0  0  0  0  0  # atno 10765 bound_to 10752
  141.0381  133.9879  157.3039 H   0  0  0  0  0  0  0  0  0  0  0  0  # atno 11005 bound_to 11000
  146.3452  139.9405  142.8741 LP  0  0  0  0  0  0  0  0  0  0  0  0  # atno 17320 bound_to 7965
  145.2147  140.9910  143.4080 LP  0  0  0  0  0  0  0  0  0  0  0  0  # atno 17321 bound_to 7965
  140.2460  144.4219  150.6240 LP  0  0  0  0  0  0  0  0  0  0  0  0  # atno 17342 bound_to 10162
  140.6257  143.2181  151.6601 LP  0  0  0  0  0  0  0  0  0  0  0  0  # atno 17343 bound_to 10162
  156.2013  130.6622  151.1171 LP  0  0  0  0  0  0  0  0  0  0  0  0  # atno 17370 bound_to 10713
  157.7111  131.0734  150.6498 LP  0  0  0  0  0  0  0  0  0  0  0  0  # atno 17371 bound_to 10713
  139.9255  135.0201  156.8219 LP  0  0  0  0  0  0  0  0  0  0  0  0  # atno 17394 bound_to 11000
  140.6286  133.9927  155.7651 LP  0  0  0  0  0  0  0  0  0  0  0  0  # atno 17395 bound_to 11000

$$$$
