AV-unprocessed.smi:3246|AV-procd|sdf|12411|dock8
  -GOLD-   2272018293D 1   1.00000     0.00000
 Structure written by MMmdl.
 36 37  0  0  0  0  0  0  0  0  2 V2000
  153.3478  139.7971  158.5487 O   0  0  0  0  0  0  0  0  0  0  0  0
  152.3673  140.4616  158.8829 C   0  0  0  0  0  0  0  0  0  0  0  0
  152.5183  141.4937  160.0128 C   0  0  0  0  0  0  0  0  0  0  0  0
  152.2374  142.8797  159.6293 N   0  0  0  0  0  0  0  0  0  0  0  0
  152.0277  143.2338  158.2350 C   0  0  0  0  0  0  0  0  0  0  0  0
  151.5492  144.6925  158.2618 C   0  0  0  0  0  0  0  0  0  0  0  0
  151.8519  145.2048  159.6741 C   0  0  0  0  0  0  0  0  0  0  0  0
  152.1620  143.9358  160.4492 C   0  0  0  0  0  0  0  0  0  0  0  0
  152.3089  143.9173  161.6702 O   0  0  0  0  0  0  0  0  0  0  0  0
  151.1666  140.3257  158.2938 N   0  0  0  0  0  0  0  0  0  0  0  0
  150.8627  139.3945  157.2147 C   0  0  0  0  0  0  0  0  0  0  0  0
  150.7101  140.1223  155.8693 C   0  0  0  0  0  0  0  0  0  0  0  0
  149.5024  139.6371  155.0920 C   0  0  0  0  0  0  0  0  0  0  0  0
  148.4686  140.5306  154.7340 C   0  0  0  0  0  0  0  0  0  0  0  0
  147.3564  140.0474  154.0134 C   0  0  0  0  0  0  0  0  0  0  0  0
  147.3031  138.6815  153.6672 C   0  0  0  0  0  0  0  0  0  0  0  0
  148.3105  137.8564  154.0284 N   0  3  0  0  0  0  0  0  0  0  0  0
  149.3922  138.2800  154.7187 C   0  0  0  0  0  0  0  0  0  0  0  0
  151.8641  141.2052  160.8371 H   0  0  0  0  0  0  0  0  0  0  0  0
  153.5364  141.4311  160.3993 H   0  0  0  0  0  0  0  0  0  0  0  0
  152.9704  143.1413  157.6941 H   0  0  0  0  0  0  0  0  0  0  0  0
  151.2960  142.5766  157.7632 H   0  0  0  0  0  0  0  0  0  0  0  0
  152.0418  145.2921  157.4956 H   0  0  0  0  0  0  0  0  0  0  0  0
  150.4756  144.7381  158.0739 H   0  0  0  0  0  0  0  0  0  0  0  0
  152.7252  145.8578  159.6826 H   0  0  0  0  0  0  0  0  0  0  0  0
  151.0076  145.7414  160.1081 H   0  0  0  0  0  0  0  0  0  0  0  0
  150.4087  140.9048  158.6260 H   0  0  0  0  0  0  0  0  0  0  0  0
  151.6400  138.6306  157.1523 H   0  0  0  0  0  0  0  0  0  0  0  0
  149.9373  138.8753  157.4653 H   0  0  0  0  0  0  0  0  0  0  0  0
  150.6227  141.1972  156.0334 H   0  0  0  0  0  0  0  0  0  0  0  0
  151.6009  139.9773  155.2563 H   0  0  0  0  0  0  0  0  0  0  0  0
  148.5249  141.5741  155.0084 H   0  0  0  0  0  0  0  0  0  0  0  0
  146.5560  140.7154  153.7302 H   0  0  0  0  0  0  0  0  0  0  0  0
  146.4914  138.2274  153.1175 H   0  0  0  0  0  0  0  0  0  0  0  0
  150.1304  137.5256  154.9506 H   0  0  0  0  0  0  0  0  0  0  0  0
  148.2521  136.8710  153.7687 H   0  0  0  0  0  0  0  0  0  0  0  0
  1  2  2  0  0  0  0
  2  3  1  0  0  0  0
  2 10  1  0  0  0  0
  3  4  1  0  0  0  0
  3 19  1  0  0  0  0
  3 20  1  0  0  0  0
  4  8  1  0  0  0  0
  4  5  1  0  0  0  0
  5  6  1  0  0  0  0
  5 21  1  0  0  0  0
  5 22  1  0  0  0  0
  6  7  1  0  0  0  0
  6 23  1  0  0  0  0
  6 24  1  0  0  0  0
  7  8  1  0  0  0  0
  7 25  1  0  0  0  0
  7 26  1  0  0  0  0
  8  9  2  0  0  0  0
 10 11  1  0  0  0  0
 10 27  1  0  0  0  0
 11 12  1  0  0  0  0
 11 28  1  0  0  0  0
 11 29  1  0  0  0  0
 12 13  1  0  0  0  0
 12 30  1  0  0  0  0
 12 31  1  0  0  0  0
 13 18  1  0  0  0  0
 13 14  2  0  0  0  0
 14 15  1  0  0  0  0
 14 32  1  0  0  0  0
 15 16  2  0  0  0  0
 15 33  1  0  0  0  0
 16 17  1  0  0  0  0
 16 34  1  0  0  0  0
 17 18  2  0  0  0  0
 17 36  1  0  0  0  0
 18 35  1  0  0  0  0
M  CHG  1  17   1
M  END
> <s_m_source_file>
AV-unprocessed.smi

> <i_m_source_file_index>
3246

> <i_lp_mmshare_version>
43012

> <i_f3d_flags>
0

> <s_epik_input>
Tz1DMVtDSDJdW0NIMl1bQ0gyXU4xW0NIMl1DKD1PKVtOSF1bQ0gyXVtDSDJdYzJbY0hdW2NIXVtjSF1uW2NIXTI=

> <s_epik_cmdline>
J2VwaWtfcHl0aG9uJywgJy1waCcsICc3LjAnLCAnLXRuJywgJzgnLCAnLW1hJywgJzIwMCcsICctbWV0YWxfYmluZGluZycsICctaW1hZScsICc8aW5maWxlLm1hZT4nLCAnLW9tYWUnLCAnPG91dGZpbGUubWFlPic=

> <r_epik_Ionization_Penalty>
2.27275

> <r_epik_Ionization_Penalty_Charging>
2.27275

> <r_epik_Ionization_Penalty_Neutral>
5.87859e-08

> <r_epik_State_Penalty>
2.42145

> <r_epik_Charging_Adjusted_Penalty>
4.69419

> <i_epik_Tot_Q>
1

> <i_epik_Tot_abs_Q>
1

> <r_epik_Metal_State_Penalty>
2.43419

> <b_epik_Metal_Only>
0

> <s_lp_Force_Field>
OPLS_2005

> <r_lp_Energy>
18.8936

> <b_lp_Chiralities_Consistent>
1

> <s_lp_Variant>
AV-unprocessed.smi:3246-2

> <Gold.Version>
5.8.1

> <Gold.Id.Protein>
6NUR|6NUR_protein|mol2

> <Gold.PLP.Fitness>
52.3183

> <Gold.PLP.PLP>
-44.2265

> <Gold.PLP.part.hbond>
-3.0000

> <Gold.PLP.part.metal>
0.0000

> <Gold.PLP.part.buried>
-2.5508

> <Gold.PLP.part.nonpolar>
-38.9651

> <Gold.PLP.part.repulsive>
0.3028

> <Gold.PLP.ligand.clash>
0.0000

> <Gold.PLP.ligand.torsion>
0.4620

> <Gold.PLP.Chemscore.Hbond>
3.0000

> <Gold.PLP.Chemscore.CHOScore>
0.0000

> <Gold.PLP.Chemscore.Metal>
0.0000

> <Gold.Chemscore.Hbonds>
donor molecule, donor type, donor heavy atom, donor atom, acceptor molecule, acceptor atom, score
      L1  H    17    36       P1  7948  0.61
      P1  H  7997  8009       L1     1  1.00

> <Gold.PLP.Chemscore.Internal.Correction>
0.0158

> <Gold.Rescore>
     Score         DG    S(hbond)    S(metal)    S(lipo)     H(rot)  DE(clash)    DE(int)     intcor
     18.82     -19.54       2.68        0.00      86.35       1.96       0.09       0.63       ----

> <Gold.Chemscore.Fitness>
18.8208

> <Gold.Chemscore.DG>
-19.5376

> <Gold.Chemscore.ZeroCoef>
-5.4800

> <Gold.Chemscore.Hbond>
2.6846

> <Gold.Chemscore.Metal>
0.0000

> <Gold.Chemscore.Lipo>
86.3524

> <Gold.Chemscore.Internal_Hbond>
0.0000

> <Gold.Chemscore.DEClash>
0.0862

> <Gold.Chemscore.DEInternal>
0.6306

> <Gold.Chemscore.Rot>
1.9579

> <Gold.Chemscore.Internal.Correction>
   9.000000E+99

> <Gold.Chemscore.Hbonds>
donor molecule, donor type, donor heavy atom, donor atom, acceptor molecule, acceptor atom, score
      L1  H    17    36       P1  7948  0.30
      P1  H  7997  8009       L1     1  0.94

> <Gold.Chemscore.Hbond.Weighted>
-8.9665

> <Gold.Chemscore.Metal.Weighted>
-0.0000

> <Gold.Chemscore.Lipo.Weighted>
-10.1032

> <Gold.Chemscore.Internal_Hbond.Weighted>
0.0000

> <Gold.Chemscore.DEClash.Weighted>
0.0862

> <Gold.Chemscore.DEInternal.Weighted>
0.6306

> <Gold.Chemscore.Rot.Weighted>
5.0121

> <Gold.Chemscore.Internal.Correction.Weighted>
   9.000000E+99

> <Gold.Protein.RotatedTorsions>
[ 6907 6896 6895 6894 ] final  139.90 input  -60.11 | X-H torsion
[ 7974 7965 7964 7962 ] final  -29.26 input  175.53 | X-H torsion
[ 8008 7997 7996 7995 ] final  159.77 input   59.86 | X-H torsion
[ 10167 10162 10161 10158 ] final   83.76 input  -65.29 | X-H torsion
[ 10718 10713 10712 10709 ] final  144.04 input   66.30 | X-H torsion
[ 10763 10752 10751 10750 ] final -125.61 input  -60.55 | X-H torsion
[ 11005 11000 10999 10996 ] final -113.10 input  -57.11 | X-H torsion

> <Gold.Protein.ActiveResidues>
 VAL166  LYS551  ARG553  GLY616  TRP617  ASP618  TYR619  PRO620  LYS621  CYS622 
 ASP623  PHE694  ASN695  SER759  ASP760  ASP761  ALA762  ILE779  LEU786  VAL792 
 PHE793  MET794  SER795  GLU796  ALA797  LYS798  CYS799  TRP800  GLU811  SER814 

> <Gold.Protein.RotatedAtoms>
  152.2494  133.5202  159.5316 H   0  0  0  0  0  0  0  0  0  0  0  0  # atno 6907 bound_to 6896
  150.7089  134.0980  159.3964 H   0  0  0  0  0  0  0  0  0  0  0  0  # atno 6908 bound_to 6896
  151.8900  135.0420  160.0547 H   0  0  0  0  0  0  0  0  0  0  0  0  # atno 6909 bound_to 6896
  146.1229  140.5390  142.8727 H   0  0  0  0  0  0  0  0  0  0  0  0  # atno 7974 bound_to 7965
  156.2216  140.1822  156.7462 H   0  0  0  0  0  0  0  0  0  0  0  0  # atno 8008 bound_to 7997
  154.5875  140.0656  156.9220 H   0  0  0  0  0  0  0  0  0  0  0  0  # atno 8009 bound_to 7997
  155.2394  140.3321  155.4296 H   0  0  0  0  0  0  0  0  0  0  0  0  # atno 8010 bound_to 7997
  139.9151  144.6248  150.8498 H   0  0  0  0  0  0  0  0  0  0  0  0  # atno 10167 bound_to 10162
  157.3619  131.0966  151.0907 H   0  0  0  0  0  0  0  0  0  0  0  0  # atno 10718 bound_to 10713
  154.8737  135.4023  154.3296 H   0  0  0  0  0  0  0  0  0  0  0  0  # atno 10763 bound_to 10752
  153.4112  135.7021  153.6363 H   0  0  0  0  0  0  0  0  0  0  0  0  # atno 10764 bound_to 10752
  153.5065  135.3716  155.2536 H   0  0  0  0  0  0  0  0  0  0  0  0  # atno 10765 bound_to 10752
  141.0635  133.9497  157.2623 H   0  0  0  0  0  0  0  0  0  0  0  0  # atno 11005 bound_to 11000
  144.7614  140.5431  143.6733 LP  0  0  0  0  0  0  0  0  0  0  0  0  # atno 17320 bound_to 7965
  145.5427  139.1475  143.3438 LP  0  0  0  0  0  0  0  0  0  0  0  0  # atno 17321 bound_to 7965
  140.7676  143.3337  151.2354 LP  0  0  0  0  0  0  0  0  0  0  0  0  # atno 17342 bound_to 10162
  139.6909  143.9693  152.2859 LP  0  0  0  0  0  0  0  0  0  0  0  0  # atno 17343 bound_to 10162
  157.2044  130.6409  149.5750 LP  0  0  0  0  0  0  0  0  0  0  0  0  # atno 17370 bound_to 10713
  155.9739  130.4680  150.6346 LP  0  0  0  0  0  0  0  0  0  0  0  0  # atno 17371 bound_to 10713
  139.9454  135.0185  156.8837 LP  0  0  0  0  0  0  0  0  0  0  0  0  # atno 17394 bound_to 11000
  140.5821  134.0342  155.7468 LP  0  0  0  0  0  0  0  0  0  0  0  0  # atno 17395 bound_to 11000

$$$$
