AV-unprocessed.smi:3003|AV-procd|sdf|11437|dock8
  -GOLD-   2272016363D 1   1.00000     0.00000
 Structure written by MMmdl.
 41 42  0  0  0  0  0  0  0  0  1 V2000
  152.2583  145.0523  159.4465 C   0  0  0  0  0  0  0  0  0  0  0  0
  152.1705  143.7643  158.1732 S   0  0  0  0  0  0  0  0  0  0  0  0
  152.4332  142.2681  159.1729 C   0  0  2  0  0  0  0  0  0  0  0  0
  153.8682  142.2436  159.7221 C   0  0  0  0  0  0  0  0  0  0  0  0
  152.1272  140.9892  158.3841 C   0  0  0  0  0  0  0  0  0  0  0  0
  153.0330  140.2073  158.0921 O   0  0  0  0  0  0  0  0  0  0  0  0
  150.8465  140.7939  158.0321 N   0  0  0  0  0  0  0  0  0  0  0  0
  150.3607  139.6596  157.2543 C   0  0  0  0  0  0  0  0  0  0  0  0
  149.7604  138.5575  158.1114 C   0  0  0  0  0  0  0  0  0  0  0  0
  148.3897  138.2384  158.0411 C   0  0  0  0  0  0  0  0  0  0  0  0
  147.8860  137.2056  158.8542 C   0  0  0  0  0  0  0  0  0  0  0  0
  148.7667  136.5201  159.7250 C   0  0  0  0  0  0  0  0  0  0  0  0
  148.2845  135.4804  160.5499 N   0  0  0  0  0  0  0  0  0  0  0  0
  147.8416  134.2729  159.8570 C   0  0  0  0  0  0  0  0  0  0  0  0
  147.6438  133.1227  160.8593 C   0  0  0  0  0  0  0  0  0  0  0  0
  146.7482  133.5280  161.8891 O   0  0  0  0  0  0  0  0  0  0  0  0
  147.2531  134.6383  162.6229 C   0  0  0  0  0  0  0  0  0  0  0  0
  147.4342  135.8418  161.6829 C   0  0  0  0  0  0  0  0  0  0  0  0
  150.0852  136.8321  159.7888 N   0  0  0  0  0  0  0  0  0  0  0  0
  150.5630  137.8226  159.0066 C   0  0  0  0  0  0  0  0  0  0  0  0
  152.1834  146.0375  158.9869 H   0  0  0  0  0  0  0  0  0  0  0  0
  153.2032  144.9939  159.9862 H   0  0  0  0  0  0  0  0  0  0  0  0
  151.4406  144.9457  160.1582 H   0  0  0  0  0  0  0  0  0  0  0  0
  151.7537  142.3276  160.0244 H   0  0  0  0  0  0  0  0  0  0  0  0
  154.0484  141.3522  160.3243 H   0  0  0  0  0  0  0  0  0  0  0  0
  154.0553  143.1099  160.3576 H   0  0  0  0  0  0  0  0  0  0  0  0
  154.6065  142.2593  158.9191 H   0  0  0  0  0  0  0  0  0  0  0  0
  150.1645  141.4836  158.3129 H   0  0  0  0  0  0  0  0  0  0  0  0
  149.6372  139.9986  156.5107 H   0  0  0  0  0  0  0  0  0  0  0  0
  151.2005  139.2423  156.6985 H   0  0  0  0  0  0  0  0  0  0  0  0
  147.7316  138.7719  157.3712 H   0  0  0  0  0  0  0  0  0  0  0  0
  146.8407  136.9436  158.7893 H   0  0  0  0  0  0  0  0  0  0  0  0
  146.9021  134.4863  159.3453 H   0  0  0  0  0  0  0  0  0  0  0  0
  148.5526  133.9587  159.0943 H   0  0  0  0  0  0  0  0  0  0  0  0
  147.2300  132.2510  160.3524 H   0  0  0  0  0  0  0  0  0  0  0  0
  148.5975  132.8157  161.2916 H   0  0  0  0  0  0  0  0  0  0  0  0
  146.5513  134.8867  163.4189 H   0  0  0  0  0  0  0  0  0  0  0  0
  148.1971  134.3730  163.1018 H   0  0  0  0  0  0  0  0  0  0  0  0
  147.8755  136.6702  162.2386 H   0  0  0  0  0  0  0  0  0  0  0  0
  146.4637  136.1758  161.3137 H   0  0  0  0  0  0  0  0  0  0  0  0
  151.6190  138.0298  159.0974 H   0  0  0  0  0  0  0  0  0  0  0  0
  1  2  1  0  0  0  0
  1 21  1  0  0  0  0
  1 22  1  0  0  0  0
  1 23  1  0  0  0  0
  2  3  1  0  0  0  0
  3  4  1  0  0  0  0
  3  5  1  0  0  0  0
  3 24  1  0  0  0  0
  4 25  1  0  0  0  0
  4 26  1  0  0  0  0
  4 27  1  0  0  0  0
  5  6  2  0  0  0  0
  5  7  1  0  0  0  0
  7  8  1  0  0  0  0
  7 28  1  0  0  0  0
  8  9  1  0  0  0  0
  8 29  1  0  0  0  0
  8 30  1  0  0  0  0
  9 20  1  0  0  0  0
  9 10  2  0  0  0  0
 10 11  1  0  0  0  0
 10 31  1  0  0  0  0
 11 12  2  0  0  0  0
 11 32  1  0  0  0  0
 12 13  1  0  0  0  0
 12 19  1  0  0  0  0
 13 18  1  0  0  0  0
 13 14  1  0  0  0  0
 14 15  1  0  0  0  0
 14 33  1  0  0  0  0
 14 34  1  0  0  0  0
 15 16  1  0  0  0  0
 15 35  1  0  0  0  0
 15 36  1  0  0  0  0
 16 17  1  0  0  0  0
 17 18  1  0  0  0  0
 17 37  1  0  0  0  0
 17 38  1  0  0  0  0
 18 39  1  0  0  0  0
 18 40  1  0  0  0  0
 19 20  2  0  0  0  0
 20 41  1  0  0  0  0
M  END
> <s_m_source_file>
AV-unprocessed.smi

> <i_m_source_file_index>
3003

> <i_lp_mmshare_version>
43012

> <i_f3d_flags>
0

> <s_epik_input>
W0NIM11TW0NASF0oW0NIM10pQyg9TylbTkhdW0NIMl1jMVtjSF1bY0hdYyhuW2NIXTEpTjJbQ0gyXVtDSDJdT1tDSDJdW0NIMl0y

> <s_epik_cmdline>
J2VwaWtfcHl0aG9uJywgJy1waCcsICc3LjAnLCAnLXRuJywgJzgnLCAnLW1hJywgJzIwMCcsICctbWV0YWxfYmluZGluZycsICctaW1hZScsICc8aW5maWxlLm1hZT4nLCAnLW9tYWUnLCAnPG91dGZpbGUubWFlPic=

> <r_lp_tautomer_probability>
1

> <r_epik_Ionization_Penalty>
0.00417642

> <r_epik_Ionization_Penalty_Charging>
0

> <r_epik_Ionization_Penalty_Neutral>
0.00417642

> <r_epik_State_Penalty>
0.00299889

> <r_epik_Charging_Adjusted_Penalty>
0.00299889

> <i_epik_Tot_Q>
0

> <i_epik_Tot_abs_Q>
0

> <r_epik_Metal_State_Penalty>
-0

> <b_epik_Metal_Only>
0

> <s_lp_Force_Field>
OPLS_2005

> <r_lp_Energy>
16.2796

> <b_lp_Chiralities_Consistent>
1

> <s_lp_Variant>
AV-unprocessed.smi:3003-1

> <Gold.Version>
5.8.1

> <Gold.Id.Protein>
6NUR|6NUR_protein|mol2

> <Gold.PLP.Fitness>
43.0296

> <Gold.PLP.PLP>
-37.9126

> <Gold.PLP.part.hbond>
-2.4753

> <Gold.PLP.part.metal>
0.0000

> <Gold.PLP.part.buried>
-4.7952

> <Gold.PLP.part.nonpolar>
-31.0417

> <Gold.PLP.part.repulsive>
0.1096

> <Gold.PLP.ligand.clash>
0.0000

> <Gold.PLP.ligand.torsion>
0.5577

> <Gold.PLP.Chemscore.Hbond>
1.9513

> <Gold.PLP.Chemscore.CHOScore>
0.0000

> <Gold.PLP.Chemscore.Metal>
0.0000

> <Gold.Chemscore.Hbonds>
donor molecule, donor type, donor heavy atom, donor atom, acceptor molecule, acceptor atom, score
      P1  H  6896  6908       L1    19  0.98
      P1  H  7997  8010       L1     6  0.98

> <Gold.PLP.Chemscore.Internal.Correction>
0.3786

> <Gold.Rescore>
     Score         DG    S(hbond)    S(metal)    S(lipo)     H(rot)  DE(clash)    DE(int)     intcor
     16.14     -16.52       1.65        0.00      83.81       1.67       0.00       0.38       ----

> <Gold.Chemscore.Fitness>
16.1446

> <Gold.Chemscore.DG>
-16.5236

> <Gold.Chemscore.ZeroCoef>
-5.4800

> <Gold.Chemscore.Hbond>
1.6494

> <Gold.Chemscore.Metal>
0.0000

> <Gold.Chemscore.Lipo>
83.8065

> <Gold.Chemscore.Internal_Hbond>
0.0000

> <Gold.Chemscore.DEClash>
0.0009

> <Gold.Chemscore.DEInternal>
0.3781

> <Gold.Chemscore.Rot>
1.6682

> <Gold.Chemscore.Internal.Correction>
   9.000000E+99

> <Gold.Chemscore.Hbonds>
donor molecule, donor type, donor heavy atom, donor atom, acceptor molecule, acceptor atom, score
      P1  H  6896  6908       L1    19  0.31
      P1  H  7997  8010       L1     6  0.92

> <Gold.Chemscore.Hbond.Weighted>
-5.5089

> <Gold.Chemscore.Metal.Weighted>
-0.0000

> <Gold.Chemscore.Lipo.Weighted>
-9.8054

> <Gold.Chemscore.Internal_Hbond.Weighted>
0.0000

> <Gold.Chemscore.DEClash.Weighted>
0.0009

> <Gold.Chemscore.DEInternal.Weighted>
0.3781

> <Gold.Chemscore.Rot.Weighted>
4.2707

> <Gold.Chemscore.Internal.Correction.Weighted>
   9.000000E+99

> <Gold.Protein.RotatedTorsions>
[ 6907 6896 6895 6894 ] final -159.32 input  -60.11 | X-H torsion
[ 7974 7965 7964 7962 ] final    9.44 input  175.53 | X-H torsion
[ 8008 7997 7996 7995 ] final   39.63 input   59.86 | X-H torsion
[ 10167 10162 10161 10158 ] final  -56.37 input  -65.29 | X-H torsion
[ 10718 10713 10712 10709 ] final -108.92 input   66.30 | X-H torsion
[ 10763 10752 10751 10750 ] final -113.77 input  -60.55 | X-H torsion
[ 11005 11000 10999 10996 ] final  118.64 input  -57.11 | X-H torsion

> <Gold.Protein.ActiveResidues>
 VAL166  LYS551  ARG553  GLY616  TRP617  ASP618  TYR619  PRO620  LYS621  CYS622 
 ASP623  PHE694  ASN695  SER759  ASP760  ASP761  ALA762  ILE779  LEU786  VAL792 
 PHE793  MET794  SER795  GLU796  ALA797  LYS798  CYS799  TRP800  GLU811  SER814 

> <Gold.Protein.RotatedAtoms>
  151.3318  133.3997  159.2663 H   0  0  0  0  0  0  0  0  0  0  0  0  # atno 6907 bound_to 6896
  150.9950  134.9276  159.7931 H   0  0  0  0  0  0  0  0  0  0  0  0  # atno 6908 bound_to 6896
  152.5258  134.3283  159.9226 H   0  0  0  0  0  0  0  0  0  0  0  0  # atno 6909 bound_to 6896
  146.2403  139.9783  142.8439 H   0  0  0  0  0  0  0  0  0  0  0  0  # atno 7974 bound_to 7965
  155.2397  140.3344  155.4293 H   0  0  0  0  0  0  0  0  0  0  0  0  # atno 8008 bound_to 7997
  156.2261  140.1830  156.7405 H   0  0  0  0  0  0  0  0  0  0  0  0  # atno 8009 bound_to 7997
  154.5901  140.0639  156.9211 H   0  0  0  0  0  0  0  0  0  0  0  0  # atno 8010 bound_to 7997
  140.6321  143.2464  151.5214 H   0  0  0  0  0  0  0  0  0  0  0  0  # atno 10167 bound_to 10162
  156.0510  130.5737  150.8028 H   0  0  0  0  0  0  0  0  0  0  0  0  # atno 10718 bound_to 10713
  154.8411  135.4442  154.1401 H   0  0  0  0  0  0  0  0  0  0  0  0  # atno 10763 bound_to 10752
  153.2588  135.6934  153.7606 H   0  0  0  0  0  0  0  0  0  0  0  0  # atno 10764 bound_to 10752
  153.6890  135.3390  155.3173 H   0  0  0  0  0  0  0  0  0  0  0  0  # atno 10765 bound_to 10752
  139.9117  134.9622  156.7534 H   0  0  0  0  0  0  0  0  0  0  0  0  # atno 11005 bound_to 11000
  145.1615  140.9675  143.4374 LP  0  0  0  0  0  0  0  0  0  0  0  0  # atno 17320 bound_to 7965
  145.0111  139.3509  143.6119 LP  0  0  0  0  0  0  0  0  0  0  0  0  # atno 17321 bound_to 7965
  139.5534  144.2337  152.1571 LP  0  0  0  0  0  0  0  0  0  0  0  0  # atno 17342 bound_to 10162
  140.1583  144.5050  150.6647 LP  0  0  0  0  0  0  0  0  0  0  0  0  # atno 17343 bound_to 10162
  157.5436  131.0941  150.9793 LP  0  0  0  0  0  0  0  0  0  0  0  0  # atno 17370 bound_to 10713
  157.0070  130.5622  149.5317 LP  0  0  0  0  0  0  0  0  0  0  0  0  # atno 17371 bound_to 10713
  140.6755  133.9521  155.7881 LP  0  0  0  0  0  0  0  0  0  0  0  0  # atno 17394 bound_to 11000
  141.0547  134.0434  157.3738 LP  0  0  0  0  0  0  0  0  0  0  0  0  # atno 17395 bound_to 11000

$$$$
