AV-unprocessed.smi:1013|AV-procd|sdf|4427|dock3
  -GOLD-   22720 2383D 1   1.00000     0.00000
 Structure written by MMmdl.
 30 31  0  0  0  0  0  0  0  0  3 V2000
  151.1762  140.4577  155.1231 O   0  0  0  0  0  0  0  0  0  0  0  0
  151.1229  140.7491  156.3379 C   0  0  0  0  0  0  0  0  0  0  0  0
  151.6977  140.1194  157.2551 O   0  5  0  0  0  0  0  0  0  0  0  0
  150.2975  141.9881  156.7245 C   0  0  1  0  0  0  0  0  0  0  0  0
  151.2439  143.1492  157.1125 C   0  0  0  0  0  0  0  0  0  0  0  0
  151.8161  143.0065  158.4419 N   0  0  0  0  0  0  0  0  0  0  0  0
  151.7428  143.8883  159.4984 C   0  0  0  0  0  0  0  0  0  0  0  0
  152.4526  143.3466  160.5311 C   0  0  0  0  0  0  0  0  0  0  0  0
  152.9483  142.1186  160.0047 C   0  0  0  0  0  0  0  0  0  0  0  0
  153.8055  141.0861  160.6883 C   0  0  0  0  0  0  0  0  0  0  0  0
  153.2360  139.8849  160.5924 F   0  0  0  0  0  0  0  0  0  0  0  0
  155.0106  141.0367  160.1208 F   0  0  0  0  0  0  0  0  0  0  0  0
  153.9502  141.3983  161.9760 F   0  0  0  0  0  0  0  0  0  0  0  0
  152.5679  141.9274  158.7488 N   0  0  0  0  0  0  0  0  0  0  0  0
  149.4253  142.3787  155.5932 N   0  3  0  0  0  0  0  0  0  0  0  0
  148.3078  141.4505  155.3220 C   0  0  0  0  0  0  0  0  0  0  0  0
  147.7904  141.5051  153.9048 C   0  0  0  0  0  0  0  0  0  0  0  0
  147.0115  142.1635  155.0234 C   0  0  0  0  0  0  0  0  0  0  0  0
  149.6668  141.7484  157.5833 H   0  0  0  0  0  0  0  0  0  0  0  0
  152.0683  143.2169  156.4011 H   0  0  0  0  0  0  0  0  0  0  0  0
  150.7191  144.1054  157.0719 H   0  0  0  0  0  0  0  0  0  0  0  0
  151.1965  144.8177  159.4300 H   0  0  0  0  0  0  0  0  0  0  0  0
  152.6019  143.7675  161.5144 H   0  0  0  0  0  0  0  0  0  0  0  0
  149.0248  143.2777  155.8179 H   0  0  0  0  0  0  0  0  0  0  0  0
  148.2876  140.5300  155.9027 H   0  0  0  0  0  0  0  0  0  0  0  0
  148.3022  142.1537  153.1959 H   0  0  0  0  0  0  0  0  0  0  0  0
  147.3853  140.5865  153.4849 H   0  0  0  0  0  0  0  0  0  0  0  0
  146.0880  141.6809  155.3368 H   0  0  0  0  0  0  0  0  0  0  0  0
  147.0015  143.2515  155.0552 H   0  0  0  0  0  0  0  0  0  0  0  0
  149.9958  142.4719  154.7651 H   0  0  0  0  0  0  0  0  0  0  0  0
  1  2  2  0  0  0  0
  2  3  1  0  0  0  0
  2  4  1  0  0  0  0
  4  5  1  0  0  0  0
  4 15  1  0  0  0  0
  4 19  1  0  0  0  0
  5  6  1  0  0  0  0
  5 20  1  0  0  0  0
  5 21  1  0  0  0  0
  6 14  1  0  0  0  0
  6  7  1  0  0  0  0
  7  8  2  0  0  0  0
  7 22  1  0  0  0  0
  8  9  1  0  0  0  0
  8 23  1  0  0  0  0
  9 10  1  0  0  0  0
  9 14  2  0  0  0  0
 10 11  1  0  0  0  0
 10 12  1  0  0  0  0
 10 13  1  0  0  0  0
 15 16  1  0  0  0  0
 15 24  1  0  0  0  0
 15 30  1  0  0  0  0
 16 18  1  0  0  0  0
 16 17  1  0  0  0  0
 16 25  1  0  0  0  0
 17 18  1  0  0  0  0
 17 26  1  0  0  0  0
 17 27  1  0  0  0  0
 18 28  1  0  0  0  0
 18 29  1  0  0  0  0
M  CHG  1   3  -1
M  CHG  1  15   1
M  END
> <s_m_source_file>
AV-unprocessed.smi

> <i_m_source_file_index>
1013

> <i_lp_mmshare_version>
43012

> <i_f3d_flags>
0

> <s_epik_input>
W0NIMl0xW0NIMl1bQ0hdMVtOSF1bQ0BIXShDKD1PKVtPSF0pW0NIMl1uMltjSF1bY0hdYyhuMilDKEYpKEYpRg==

> <s_epik_cmdline>
J2VwaWtfcHl0aG9uJywgJy1waCcsICc3LjAnLCAnLXRuJywgJzgnLCAnLW1hJywgJzIwMCcsICctbWV0YWxfYmluZGluZycsICctaW1hZScsICc8aW5maWxlLm1hZT4nLCAnLW9tYWUnLCAnPG91dGZpbGUubWFlPic=

> <r_lp_tautomer_probability>
1

> <r_epik_Ionization_Penalty>
0.183175

> <r_epik_Ionization_Penalty_Charging>
0.183175

> <r_epik_Ionization_Penalty_Neutral>
3.57035e-11

> <r_epik_State_Penalty>
0.172705

> <r_epik_Charging_Adjusted_Penalty>
0.35588

> <i_epik_Tot_Q>
0

> <i_epik_Tot_abs_Q>
2

> <r_epik_Metal_State_Penalty>
0.172705

> <b_epik_Metal_Only>
0

> <s_lp_Force_Field>
OPLS_2005

> <r_lp_Energy>
10.483

> <b_lp_Chiralities_Consistent>
1

> <s_lp_Variant>
AV-unprocessed.smi:1013-2

> <Gold.Version>
5.8.1

> <Gold.Id.Protein>
6NUR|6NUR_protein|mol2

> <Gold.PLP.Fitness>
48.4631

> <Gold.PLP.PLP>
-41.0321

> <Gold.PLP.part.hbond>
-1.9232

> <Gold.PLP.part.metal>
0.0000

> <Gold.PLP.part.buried>
-3.1645

> <Gold.PLP.part.nonpolar>
-35.9217

> <Gold.PLP.part.repulsive>
0.2279

> <Gold.PLP.ligand.clash>
0.0000

> <Gold.PLP.ligand.torsion>
1.1217

> <Gold.PLP.Chemscore.Hbond>
2.9760

> <Gold.PLP.Chemscore.CHOScore>
0.0000

> <Gold.PLP.Chemscore.Metal>
0.0000

> <Gold.Chemscore.Hbonds>
donor molecule, donor type, donor heavy atom, donor atom, acceptor molecule, acceptor atom, score
      L1  H    15    24       P1  8028  1.62
      P1  H  7989  7998       L1     1  0.99

> <Gold.PLP.Chemscore.Internal.Correction>
0.7465

> <Gold.Rescore>
     Score         DG    S(hbond)    S(metal)    S(lipo)     H(rot)  DE(clash)    DE(int)     intcor
     11.51     -14.50       1.97        0.00      77.57       2.60       0.14       2.84       ----

> <Gold.Chemscore.Fitness>
11.5140

> <Gold.Chemscore.DG>
-14.4951

> <Gold.Chemscore.ZeroCoef>
-5.4800

> <Gold.Chemscore.Hbond>
1.9725

> <Gold.Chemscore.Metal>
0.0000

> <Gold.Chemscore.Lipo>
77.5683

> <Gold.Chemscore.Internal_Hbond>
0.0000

> <Gold.Chemscore.DEClash>
0.1421

> <Gold.Chemscore.DEInternal>
2.8391

> <Gold.Chemscore.Rot>
2.5970

> <Gold.Chemscore.Internal.Correction>
   9.000000E+99

> <Gold.Chemscore.Hbonds>
donor molecule, donor type, donor heavy atom, donor atom, acceptor molecule, acceptor atom, score
      L1  H    15    24       P1  8028  0.78
      P1  H  7989  7998       L1     1  0.94

> <Gold.Chemscore.Hbond.Weighted>
-6.5880

> <Gold.Chemscore.Metal.Weighted>
-0.0000

> <Gold.Chemscore.Lipo.Weighted>
-9.0755

> <Gold.Chemscore.Internal_Hbond.Weighted>
0.0000

> <Gold.Chemscore.DEClash.Weighted>
0.1421

> <Gold.Chemscore.DEInternal.Weighted>
2.8391

> <Gold.Chemscore.Rot.Weighted>
6.6484

> <Gold.Chemscore.Internal.Correction.Weighted>
   9.000000E+99

> <Gold.Protein.RotatedTorsions>
[ 6907 6896 6895 6894 ] final   32.38 input  -60.11 | X-H torsion
[ 7974 7965 7964 7962 ] final  130.00 input  175.53 | X-H torsion
[ 8008 7997 7996 7995 ] final   -3.55 input   59.86 | X-H torsion
[ 10167 10162 10161 10158 ] final  116.17 input  -65.29 | X-H torsion
[ 10718 10713 10712 10709 ] final  -10.98 input   66.30 | X-H torsion
[ 10763 10752 10751 10750 ] final  162.49 input  -60.55 | X-H torsion
[ 11005 11000 10999 10996 ] final -113.14 input  -57.11 | X-H torsion

> <Gold.Protein.ActiveResidues>
 VAL166  LYS551  ARG553  GLY616  TRP617  ASP618  TYR619  PRO620  LYS621  CYS622 
 ASP623  PHE694  ASN695  SER759  ASP760  ASP761  ALA762  ILE779  LEU786  VAL792 
 PHE793  MET794  SER795  GLU796  ALA797  LYS798  CYS799  TRP800  GLU811  SER814 

> <Gold.Protein.RotatedAtoms>
  152.0737  134.9517  160.0574 H   0  0  0  0  0  0  0  0  0  0  0  0  # atno 6907 bound_to 6896
  152.0833  133.4159  159.4519 H   0  0  0  0  0  0  0  0  0  0  0  0  # atno 6908 bound_to 6896
  150.6836  134.2876  159.4697 H   0  0  0  0  0  0  0  0  0  0  0  0  # atno 6909 bound_to 6896
  145.0226  139.4118  143.5189 H   0  0  0  0  0  0  0  0  0  0  0  0  # atno 7974 bound_to 7965
  154.6237  140.2506  155.7518 H   0  0  0  0  0  0  0  0  0  0  0  0  # atno 8008 bound_to 7997
  156.2441  140.2921  156.0477 H   0  0  0  0  0  0  0  0  0  0  0  0  # atno 8009 bound_to 7997
  155.1855  140.0390  157.2881 H   0  0  0  0  0  0  0  0  0  0  0  0  # atno 8010 bound_to 7997
  139.6266  144.7109  151.2521 H   0  0  0  0  0  0  0  0  0  0  0  0  # atno 10167 bound_to 10162
  156.6657  130.4994  149.6016 H   0  0  0  0  0  0  0  0  0  0  0  0  # atno 10718 bound_to 10713
  154.2792  135.2763  155.2704 H   0  0  0  0  0  0  0  0  0  0  0  0  # atno 10763 bound_to 10752
  154.5233  135.5750  153.6702 H   0  0  0  0  0  0  0  0  0  0  0  0  # atno 10764 bound_to 10752
  152.9932  135.6210  154.2950 H   0  0  0  0  0  0  0  0  0  0  0  0  # atno 10765 bound_to 10752
  141.0632  133.9501  157.2627 H   0  0  0  0  0  0  0  0  0  0  0  0  # atno 11005 bound_to 11000
  146.3487  139.9732  142.8704 LP  0  0  0  0  0  0  0  0  0  0  0  0  # atno 17320 bound_to 7965
  145.1875  140.9796  143.4230 LP  0  0  0  0  0  0  0  0  0  0  0  0  # atno 17321 bound_to 7965
  140.7414  143.6557  150.8208 LP  0  0  0  0  0  0  0  0  0  0  0  0  # atno 17342 bound_to 10162
  140.0176  143.5576  152.2814 LP  0  0  0  0  0  0  0  0  0  0  0  0  # atno 17343 bound_to 10162
  156.1977  130.6600  151.1132 LP  0  0  0  0  0  0  0  0  0  0  0  0  # atno 17370 bound_to 10713
  157.7094  131.0741  150.6553 LP  0  0  0  0  0  0  0  0  0  0  0  0  # atno 17371 bound_to 10713
  139.9452  135.0185  156.8830 LP  0  0  0  0  0  0  0  0  0  0  0  0  # atno 17394 bound_to 11000
  140.5826  134.0338  155.7469 LP  0  0  0  0  0  0  0  0  0  0  0  0  # atno 17395 bound_to 11000

$$$$
