AV-unprocessed.smi:1196|AV-procd|sdf|5004|dock4
  -GOLD-   22720 4 13D 1   1.00000     0.00000
 Structure written by MMmdl.
 36 37  0  0  0  0  0  0  0  0  2 V2000
  150.8678  139.0181  157.6611 C   0  0  0  0  0  0  0  0  0  0  0  0
  151.1027  140.5314  157.5632 C   0  0  2  0  0  0  0  0  0  0  0  0
  151.0395  141.2039  158.9512 C   0  0  0  0  0  0  0  0  0  0  0  0
  151.4533  142.5965  158.9165 N   0  0  0  0  0  0  0  0  0  0  0  0
  152.5275  143.1870  159.5479 C   0  0  0  0  0  0  0  0  0  0  0  0
  152.5283  144.5071  159.1991 C   0  0  0  0  0  0  0  0  0  0  0  0
  151.3990  144.6315  158.3424 C   0  0  0  0  0  0  0  0  0  0  0  0
  150.7538  143.4876  158.1805 N   0  0  0  0  0  0  0  0  0  0  0  0
  150.1093  141.1139  156.6616 N   0  0  0  0  0  0  0  0  0  0  0  0
  150.0517  140.9222  155.3338 C   0  0  0  0  0  0  0  0  0  0  0  0
  150.8035  140.1612  154.7241 O   0  0  0  0  0  0  0  0  0  0  0  0
  148.9971  141.7289  154.5748 C   0  0  0  0  0  0  0  0  0  0  0  0
  147.6005  141.0898  154.6846 C   0  0  0  0  0  0  0  0  0  0  0  0
  147.5845  139.6040  154.2767 C   0  0  2  0  0  0  0  0  0  0  0  0
  147.7901  139.4504  152.8527 N   0  0  0  0  0  0  0  0  0  0  0  0
  146.7743  138.8057  152.2823 C   0  0  0  0  0  0  0  0  0  0  0  0
  146.7613  138.5559  151.0790 O   0  0  0  0  0  0  0  0  0  0  0  0
  145.8371  138.5085  153.2033 N   0  5  0  0  0  0  0  0  0  0  0  0
  146.2131  138.9456  154.4247 C   0  0  0  0  0  0  0  0  0  0  0  0
  145.6381  138.8680  155.5091 O   0  0  0  0  0  0  0  0  0  0  0  0
  151.6123  138.5472  158.3035 H   0  0  0  0  0  0  0  0  0  0  0  0
  150.9351  138.5458  156.6805 H   0  0  0  0  0  0  0  0  0  0  0  0
  149.8834  138.7937  158.0733 H   0  0  0  0  0  0  0  0  0  0  0  0
  152.1052  140.6741  157.1557 H   0  0  0  0  0  0  0  0  0  0  0  0
  150.0307  141.1395  159.3632 H   0  0  0  0  0  0  0  0  0  0  0  0
  151.6931  140.6800  159.6497 H   0  0  0  0  0  0  0  0  0  0  0  0
  153.1985  142.6227  160.1787 H   0  0  0  0  0  0  0  0  0  0  0  0
  153.2307  145.2675  159.5059 H   0  0  0  0  0  0  0  0  0  0  0  0
  151.0311  145.5126  157.8377 H   0  0  0  0  0  0  0  0  0  0  0  0
  149.4499  141.7601  157.0703 H   0  0  0  0  0  0  0  0  0  0  0  0
  148.9823  142.7418  154.9778 H   0  0  0  0  0  0  0  0  0  0  0  0
  149.2815  141.8133  153.5248 H   0  0  0  0  0  0  0  0  0  0  0  0
  147.2566  141.1752  155.7170 H   0  0  0  0  0  0  0  0  0  0  0  0
  146.8831  141.6482  154.0802 H   0  0  0  0  0  0  0  0  0  0  0  0
  148.3287  139.0301  154.8305 H   0  0  0  0  0  0  0  0  0  0  0  0
  148.6129  139.7774  152.3685 H   0  0  0  0  0  0  0  0  0  0  0  0
  1  2  1  0  0  0  0
  1 21  1  0  0  0  0
  1 22  1  0  0  0  0
  1 23  1  0  0  0  0
  2  3  1  0  0  0  0
  2  9  1  0  0  0  0
  2 24  1  0  0  0  0
  3  4  1  0  0  0  0
  3 25  1  0  0  0  0
  3 26  1  0  0  0  0
  4  8  1  0  0  0  0
  4  5  1  0  0  0  0
  5  6  2  0  0  0  0
  5 27  1  0  0  0  0
  6  7  1  0  0  0  0
  6 28  1  0  0  0  0
  7  8  2  0  0  0  0
  7 29  1  0  0  0  0
  9 10  1  0  0  0  0
  9 30  1  0  0  0  0
 10 11  2  0  0  0  0
 10 12  1  0  0  0  0
 12 13  1  0  0  0  0
 12 31  1  0  0  0  0
 12 32  1  0  0  0  0
 13 14  1  0  0  0  0
 13 33  1  0  0  0  0
 13 34  1  0  0  0  0
 14 19  1  0  0  0  0
 14 15  1  0  0  0  0
 14 35  1  0  0  0  0
 15 16  1  0  0  0  0
 15 36  1  0  0  0  0
 16 17  2  0  0  0  0
 16 18  1  0  0  0  0
 18 19  1  0  0  0  0
 19 20  2  0  0  0  0
M  CHG  1  18  -1
M  END
> <s_m_source_file>
AV-unprocessed.smi

> <i_m_source_file_index>
1196

> <i_lp_mmshare_version>
43012

> <i_f3d_flags>
0

> <s_epik_input>
bjFbY0hdW2NIXVtjSF1uMVtDSDJdW0NAQEhdKFtDSDNdKVtOSF1DKD1PKVtDSDJdW0NIMl1bQ0BASF0yW05IXUMoPU8pW05IXUMyPU8=

> <s_epik_cmdline>
J2VwaWtfcHl0aG9uJywgJy1waCcsICc3LjAnLCAnLXRuJywgJzgnLCAnLW1hJywgJzIwMCcsICctbWV0YWxfYmluZGluZycsICctaW1hZScsICc8aW5maWxlLm1hZT4nLCAnLW9tYWUnLCAnPG91dGZpbGUubWFlPic=

> <r_lp_tautomer_probability>
1

> <r_epik_Ionization_Penalty>
2.57056

> <r_epik_Ionization_Penalty_Charging>
2.57023

> <r_epik_Ionization_Penalty_Neutral>
0.000331301

> <r_epik_State_Penalty>
2.56828

> <r_epik_Charging_Adjusted_Penalty>
5.13851

> <i_epik_Tot_Q>
-1

> <i_epik_Tot_abs_Q>
1

> <r_epik_Metal_State_Penalty>
0.444883

> <b_epik_Metal_Only>
1

> <s_lp_Force_Field>
OPLS_2005

> <r_lp_Energy>
6.89561

> <b_lp_Chiralities_Consistent>
1

> <s_lp_Variant>
AV-unprocessed.smi:1196-9

> <Gold.Version>
5.8.1

> <Gold.Id.Protein>
6NUR|6NUR_protein|mol2

> <Gold.PLP.Fitness>
44.0132

> <Gold.PLP.PLP>
-35.8232

> <Gold.PLP.part.hbond>
-2.9118

> <Gold.PLP.part.metal>
0.0000

> <Gold.PLP.part.buried>
-4.6752

> <Gold.PLP.part.nonpolar>
-28.9678

> <Gold.PLP.part.repulsive>
1.2980

> <Gold.PLP.ligand.clash>
0.0000

> <Gold.PLP.ligand.torsion>
0.4613

> <Gold.PLP.Chemscore.Hbond>
3.0000

> <Gold.PLP.Chemscore.CHOScore>
0.0000

> <Gold.PLP.Chemscore.Metal>
0.0000

> <Gold.Chemscore.Hbonds>
donor molecule, donor type, donor heavy atom, donor atom, acceptor molecule, acceptor atom, score
      L1  H    15    36       P1  7957  1.00
      P1  H  7954  7966       L1    17  1.00
      P1  H  7989  7998       L1    11  1.00

> <Gold.PLP.Chemscore.Internal.Correction>
0.1125

> <Gold.Rescore>
     Score         DG    S(hbond)    S(metal)    S(lipo)     H(rot)  DE(clash)    DE(int)     intcor
     14.96     -15.69       2.77        0.00      71.39       2.89       0.25       0.48       ----

> <Gold.Chemscore.Fitness>
14.9571

> <Gold.Chemscore.DG>
-15.6908

> <Gold.Chemscore.ZeroCoef>
-5.4800

> <Gold.Chemscore.Hbond>
2.7750

> <Gold.Chemscore.Metal>
0.0000

> <Gold.Chemscore.Lipo>
71.3882

> <Gold.Chemscore.Internal_Hbond>
0.0000

> <Gold.Chemscore.DEClash>
0.2492

> <Gold.Chemscore.DEInternal>
0.4845

> <Gold.Chemscore.Rot>
2.8946

> <Gold.Chemscore.Internal.Correction>
   9.000000E+99

> <Gold.Chemscore.Hbonds>
donor molecule, donor type, donor heavy atom, donor atom, acceptor molecule, acceptor atom, score
      L1  H    15    36       P1  7957  0.96
      P1  H  7954  7966       L1    17  0.95
      P1  H  7989  7998       L1    11  0.88

> <Gold.Chemscore.Hbond.Weighted>
-9.2685

> <Gold.Chemscore.Metal.Weighted>
-0.0000

> <Gold.Chemscore.Lipo.Weighted>
-8.3524

> <Gold.Chemscore.Internal_Hbond.Weighted>
0.0000

> <Gold.Chemscore.DEClash.Weighted>
0.2492

> <Gold.Chemscore.DEInternal.Weighted>
0.4845

> <Gold.Chemscore.Rot.Weighted>
7.4101

> <Gold.Chemscore.Internal.Correction.Weighted>
   9.000000E+99

> <Gold.Protein.RotatedTorsions>
[ 6907 6896 6895 6894 ] final -164.43 input  -60.11 | X-H torsion
[ 7974 7965 7964 7962 ] final  169.56 input  175.53 | X-H torsion
[ 8008 7997 7996 7995 ] final  -86.84 input   59.86 | X-H torsion
[ 10167 10162 10161 10158 ] final   74.96 input  -65.29 | X-H torsion
[ 10718 10713 10712 10709 ] final -116.17 input   66.30 | X-H torsion
[ 10763 10752 10751 10750 ] final   55.62 input  -60.55 | X-H torsion
[ 11005 11000 10999 10996 ] final  -36.86 input  -57.11 | X-H torsion

> <Gold.Protein.ActiveResidues>
 VAL166  LYS551  ARG553  GLY616  TRP617  ASP618  TYR619  PRO620  LYS621  CYS622 
 ASP623  PHE694  ASN695  SER759  ASP760  ASP761  ALA762  ILE779  LEU786  VAL792 
 PHE793  MET794  SER795  GLU796  ALA797  LYS798  CYS799  TRP800  GLU811  SER814 

> <Gold.Protein.RotatedAtoms>
  151.4117  133.3725  159.2744 H   0  0  0  0  0  0  0  0  0  0  0  0  # atno 6907 bound_to 6896
  150.9358  134.8772  159.7591 H   0  0  0  0  0  0  0  0  0  0  0  0  # atno 6908 bound_to 6896
  152.5049  134.4065  159.9486 H   0  0  0  0  0  0  0  0  0  0  0  0  # atno 6909 bound_to 6896
  144.7351  139.9073  143.6413 H   0  0  0  0  0  0  0  0  0  0  0  0  # atno 7974 bound_to 7965
  154.6564  140.0573  157.0013 H   0  0  0  0  0  0  0  0  0  0  0  0  # atno 8008 bound_to 7997
  155.1294  140.3255  155.4459 H   0  0  0  0  0  0  0  0  0  0  0  0  # atno 8009 bound_to 7997
  156.2599  140.1983  156.6414 H   0  0  0  0  0  0  0  0  0  0  0  0  # atno 8010 bound_to 7997
  140.0081  144.5635  150.7681 H   0  0  0  0  0  0  0  0  0  0  0  0  # atno 10167 bound_to 10162
  156.0945  130.6121  150.9001 H   0  0  0  0  0  0  0  0  0  0  0  0  # atno 10718 bound_to 10713
  152.9819  135.5704  154.5097 H   0  0  0  0  0  0  0  0  0  0  0  0  # atno 10763 bound_to 10752
  154.4603  135.2781  155.1720 H   0  0  0  0  0  0  0  0  0  0  0  0  # atno 10764 bound_to 10752
  154.3310  135.6249  153.5605 H   0  0  0  0  0  0  0  0  0  0  0  0  # atno 10765 bound_to 10752
  140.9908  133.7006  156.1846 H   0  0  0  0  0  0  0  0  0  0  0  0  # atno 11005 bound_to 11000
  146.1027  139.4024  143.0336 LP  0  0  0  0  0  0  0  0  0  0  0  0  # atno 17320 bound_to 7965
  145.7555  140.9956  143.1228 LP  0  0  0  0  0  0  0  0  0  0  0  0  # atno 17321 bound_to 7965
  140.7392  143.2788  151.3659 LP  0  0  0  0  0  0  0  0  0  0  0  0  # atno 17342 bound_to 10162
  139.6224  144.0880  152.2403 LP  0  0  0  0  0  0  0  0  0  0  0  0  # atno 17343 bound_to 10162
  157.6103  131.0936  150.8807 LP  0  0  0  0  0  0  0  0  0  0  0  0  # atno 17370 bound_to 10713
  156.8948  130.5225  149.5285 LP  0  0  0  0  0  0  0  0  0  0  0  0  # atno 17371 bound_to 10713
  140.7043  134.4530  157.5585 LP  0  0  0  0  0  0  0  0  0  0  0  0  # atno 17394 bound_to 11000
  139.8991  134.8598  156.1973 LP  0  0  0  0  0  0  0  0  0  0  0  0  # atno 17395 bound_to 11000

$$$$
