AV-unprocessed.smi:2470|AV-procd|sdf|9735|dock9
  -GOLD-   2272013373D 1   1.00000     0.00000
 Structure written by MMmdl.
 33 34  0  0  0  0  0  0  0  0  1 V2000
  152.8735  136.0657  157.3234 C   0  0  0  0  0  0  0  0  0  0  0  0
  152.0727  136.0324  156.1474 O   0  0  0  0  0  0  0  0  0  0  0  0
  151.5647  137.2233  155.6715 C   0  0  0  0  0  0  0  0  0  0  0  0
  151.6820  138.3877  156.4581 C   0  0  0  0  0  0  0  0  0  0  0  0
  151.1523  139.5874  155.9322 C   0  0  0  0  0  0  0  0  0  0  0  0
  151.2916  140.7360  156.7554 N   0  0  0  0  0  0  0  0  0  0  0  0
  152.1599  140.9338  157.7627 C   0  0  0  0  0  0  0  0  0  0  0  0
  152.9860  140.1113  158.1596 O   0  0  0  0  0  0  0  0  0  0  0  0
  152.0117  142.1563  158.2953 N   0  0  0  0  0  0  0  0  0  0  0  0
  152.7863  142.7074  159.4041 C   0  0  2  0  0  0  0  0  0  0  0  0
  152.6104  141.8092  160.6367 C   0  0  0  0  0  0  0  0  0  0  0  0
  152.4127  144.1437  159.7176 C   0  0  0  0  0  0  0  0  0  0  0  0
  150.9971  144.6366  159.5382 C   0  0  0  0  0  0  0  0  0  0  0  0
  152.0910  145.1225  158.6136 C   0  0  0  0  0  0  0  0  0  0  0  0
  150.5563  139.5869  154.7141 N   0  0  0  0  0  0  0  0  0  0  0  0
  150.4941  138.4321  154.0487 C   0  0  0  0  0  0  0  0  0  0  0  0
  150.9637  137.2527  154.4573 N   0  0  0  0  0  0  0  0  0  0  0  0
  153.1825  135.0521  157.5782 H   0  0  0  0  0  0  0  0  0  0  0  0
  152.3185  136.4653  158.1734 H   0  0  0  0  0  0  0  0  0  0  0  0
  153.7762  136.6596  157.1736 H   0  0  0  0  0  0  0  0  0  0  0  0
  152.1622  138.3558  157.4252 H   0  0  0  0  0  0  0  0  0  0  0  0
  150.6602  141.4960  156.5509 H   0  0  0  0  0  0  0  0  0  0  0  0
  151.3043  142.7586  157.9005 H   0  0  0  0  0  0  0  0  0  0  0  0
  153.8470  142.7029  159.1469 H   0  0  0  0  0  0  0  0  0  0  0  0
  153.2077  142.1715  161.4740 H   0  0  0  0  0  0  0  0  0  0  0  0
  152.9271  140.7869  160.4267 H   0  0  0  0  0  0  0  0  0  0  0  0
  151.5694  141.7770  160.9601 H   0  0  0  0  0  0  0  0  0  0  0  0
  152.9525  144.5578  160.5676 H   0  0  0  0  0  0  0  0  0  0  0  0
  150.2664  143.9403  159.1310 H   0  0  0  0  0  0  0  0  0  0  0  0
  150.6126  145.3379  160.2760 H   0  0  0  0  0  0  0  0  0  0  0  0
  152.4352  146.1473  158.7351 H   0  0  0  0  0  0  0  0  0  0  0  0
  152.0836  144.7508  157.5908 H   0  0  0  0  0  0  0  0  0  0  0  0
  150.0146  138.4549  153.0815 H   0  0  0  0  0  0  0  0  0  0  0  0
  1  2  1  0  0  0  0
  1 18  1  0  0  0  0
  1 19  1  0  0  0  0
  1 20  1  0  0  0  0
  2  3  1  0  0  0  0
  3 17  1  0  0  0  0
  3  4  2  0  0  0  0
  4  5  1  0  0  0  0
  4 21  1  0  0  0  0
  5  6  1  0  0  0  0
  5 15  2  0  0  0  0
  6  7  1  0  0  0  0
  6 22  1  0  0  0  0
  7  8  2  0  0  0  0
  7  9  1  0  0  0  0
  9 10  1  0  0  0  0
  9 23  1  0  0  0  0
 10 11  1  0  0  0  0
 10 12  1  0  0  0  0
 10 24  1  0  0  0  0
 11 25  1  0  0  0  0
 11 26  1  0  0  0  0
 11 27  1  0  0  0  0
 12 14  1  0  0  0  0
 12 13  1  0  0  0  0
 12 28  1  0  0  0  0
 13 14  1  0  0  0  0
 13 29  1  0  0  0  0
 13 30  1  0  0  0  0
 14 31  1  0  0  0  0
 14 32  1  0  0  0  0
 15 16  1  0  0  0  0
 16 17  2  0  0  0  0
 16 33  1  0  0  0  0
M  END
> <s_m_source_file>
AV-unprocessed.smi

> <i_m_source_file_index>
2470

> <i_lp_mmshare_version>
43012

> <i_f3d_flags>
0

> <s_epik_input>
W0NIM11PYzFbY0hdYyhuW2NIXW4xKVtOSF1DKD1PKVtOSF1bQ0BIXShbQ0gzXSlbQ0hdMltDSDJdW0NIMl0y

> <s_epik_cmdline>
J2VwaWtfcHl0aG9uJywgJy1waCcsICc3LjAnLCAnLXRuJywgJzgnLCAnLW1hJywgJzIwMCcsICctbWV0YWxfYmluZGluZycsICctaW1hZScsICc8aW5maWxlLm1hZT4nLCAnLW9tYWUnLCAnPG91dGZpbGUubWFlPic=

> <r_lp_tautomer_probability>
1

> <r_epik_Ionization_Penalty>
2.81207e-05

> <r_epik_Ionization_Penalty_Charging>
0

> <r_epik_Ionization_Penalty_Neutral>
2.81207e-05

> <r_epik_State_Penalty>
-0

> <r_epik_Charging_Adjusted_Penalty>
0

> <i_epik_Tot_Q>
0

> <i_epik_Tot_abs_Q>
0

> <r_epik_Metal_State_Penalty>
-0

> <b_epik_Metal_Only>
0

> <s_lp_Force_Field>
OPLS_2005

> <r_lp_Energy>
11.3699

> <b_lp_Chiralities_Consistent>
1

> <s_lp_Variant>
AV-unprocessed.smi:2470-1

> <Gold.Version>
5.8.1

> <Gold.Id.Protein>
6NUR|6NUR_protein|mol2

> <Gold.PLP.Fitness>
44.8602

> <Gold.PLP.PLP>
-31.8075

> <Gold.PLP.part.hbond>
-2.9803

> <Gold.PLP.part.metal>
0.0000

> <Gold.PLP.part.buried>
-4.8801

> <Gold.PLP.part.nonpolar>
-24.8744

> <Gold.PLP.part.repulsive>
0.4685

> <Gold.PLP.ligand.clash>
0.0152

> <Gold.PLP.ligand.torsion>
0.7125

> <Gold.PLP.Chemscore.Hbond>
3.0000

> <Gold.PLP.Chemscore.CHOScore>
1.4736

> <Gold.PLP.Chemscore.Metal>
0.0000

> <Gold.Chemscore.Hbonds>
donor molecule, donor type, donor heavy atom, donor atom, acceptor molecule, acceptor atom, score
      P1  H  7989  7998       L1    15  0.91
      P1  H  7997  8010       L1     8  1.00
      P1  H 10752 10764       L1     2  1.00
      L1  C    16    33       P1  7948  0.51
      L1  C    16    33       P1  7957  1.00

> <Gold.PLP.Chemscore.Internal.Correction>
1.0722

> <Gold.Rescore>
     Score         DG    S(hbond)    S(metal)    S(lipo)     H(rot)  DE(clash)    DE(int)     intcor
     13.04     -15.31       1.73        0.00      69.96       1.61       0.04       2.22       ----

> <Gold.Chemscore.Fitness>
13.0399

> <Gold.Chemscore.DG>
-15.3060

> <Gold.Chemscore.ZeroCoef>
-5.4800

> <Gold.Chemscore.Hbond>
1.7259

> <Gold.Chemscore.Metal>
0.0000

> <Gold.Chemscore.Lipo>
69.9623

> <Gold.Chemscore.Internal_Hbond>
0.0000

> <Gold.Chemscore.DEClash>
0.0439

> <Gold.Chemscore.DEInternal>
2.2222

> <Gold.Chemscore.Rot>
1.6109

> <Gold.Chemscore.Internal.Correction>
   9.000000E+99

> <Gold.Chemscore.Hbonds>
donor molecule, donor type, donor heavy atom, donor atom, acceptor molecule, acceptor atom, score
      P1  H  7989  7998       L1    15  0.28
      P1  H  7997  8010       L1     8  0.79
      P1  H 10752 10764       L1     2  0.25

> <Gold.Chemscore.Hbond.Weighted>
-5.7644

> <Gold.Chemscore.Metal.Weighted>
-0.0000

> <Gold.Chemscore.Lipo.Weighted>
-8.1856

> <Gold.Chemscore.Internal_Hbond.Weighted>
0.0000

> <Gold.Chemscore.DEClash.Weighted>
0.0439

> <Gold.Chemscore.DEInternal.Weighted>
2.2222

> <Gold.Chemscore.Rot.Weighted>
4.1240

> <Gold.Chemscore.Internal.Correction.Weighted>
   9.000000E+99

> <Gold.Protein.RotatedTorsions>
[ 6907 6896 6895 6894 ] final -131.72 input  -60.11 | X-H torsion
[ 7974 7965 7964 7962 ] final   60.43 input  175.53 | X-H torsion
[ 8008 7997 7996 7995 ] final   33.34 input   59.86 | X-H torsion
[ 10167 10162 10161 10158 ] final  118.66 input  -65.29 | X-H torsion
[ 10718 10713 10712 10709 ] final   11.09 input   66.30 | X-H torsion
[ 10763 10752 10751 10750 ] final  -38.45 input  -60.55 | X-H torsion
[ 11005 11000 10999 10996 ] final   -9.21 input  -57.11 | X-H torsion

> <Gold.Protein.ActiveResidues>
 VAL166  LYS551  ARG553  GLY616  TRP617  ASP618  TYR619  PRO620  LYS621  CYS622 
 ASP623  PHE694  ASN695  SER759  ASP760  ASP761  ALA762  ILE779  LEU786  VAL792 
 PHE793  MET794  SER795  GLU796  ALA797  LYS798  CYS799  TRP800  GLU811  SER814 

> <Gold.Protein.RotatedAtoms>
  150.9541  133.6516  159.2766 H   0  0  0  0  0  0  0  0  0  0  0  0  # atno 6907 bound_to 6896
  151.3862  135.0947  159.9521 H   0  0  0  0  0  0  0  0  0  0  0  0  # atno 6908 bound_to 6896
  152.5122  133.9065  159.7521 H   0  0  0  0  0  0  0  0  0  0  0  0  # atno 6909 bound_to 6896
  145.8961  139.3546  143.0620 H   0  0  0  0  0  0  0  0  0  0  0  0  # atno 7974 bound_to 7965
  155.1370  140.3262  155.4461 H   0  0  0  0  0  0  0  0  0  0  0  0  # atno 8008 bound_to 7997
  156.2617  140.2000  156.6436 H   0  0  0  0  0  0  0  0  0  0  0  0  # atno 8009 bound_to 7997
  154.6570  140.0551  157.0007 H   0  0  0  0  0  0  0  0  0  0  0  0  # atno 8010 bound_to 7997
  139.6096  144.7078  151.2873 H   0  0  0  0  0  0  0  0  0  0  0  0  # atno 10167 bound_to 10162
  156.9905  130.6041  149.5685 H   0  0  0  0  0  0  0  0  0  0  0  0  # atno 10718 bound_to 10713
  153.9130  135.6790  153.4750 H   0  0  0  0  0  0  0  0  0  0  0  0  # atno 10763 bound_to 10752
  153.1068  135.4801  154.8963 H   0  0  0  0  0  0  0  0  0  0  0  0  # atno 10764 bound_to 10752
  154.7517  135.3186  154.8500 H   0  0  0  0  0  0  0  0  0  0  0  0  # atno 10765 bound_to 10752
  140.7318  133.8743  155.8898 H   0  0  0  0  0  0  0  0  0  0  0  0  # atno 11005 bound_to 11000
  145.8849  140.9340  143.0582 LP  0  0  0  0  0  0  0  0  0  0  0  0  # atno 17320 bound_to 7965
  144.6733  140.0829  143.7468 LP  0  0  0  0  0  0  0  0  0  0  0  0  # atno 17321 bound_to 7965
  140.7310  143.6864  150.7958 LP  0  0  0  0  0  0  0  0  0  0  0  0  # atno 17342 bound_to 10162
  140.0456  143.5301  152.2697 LP  0  0  0  0  0  0  0  0  0  0  0  0  # atno 17343 bound_to 10162
  156.0209  130.5304  150.8272 LP  0  0  0  0  0  0  0  0  0  0  0  0  # atno 17370 bound_to 10713
  157.5462  131.0942  150.9759 LP  0  0  0  0  0  0  0  0  0  0  0  0  # atno 17371 bound_to 10713
  140.9914  134.1273  157.4404 LP  0  0  0  0  0  0  0  0  0  0  0  0  # atno 17394 bound_to 11000
  139.8825  135.0041  156.6232 LP  0  0  0  0  0  0  0  0  0  0  0  0  # atno 17395 bound_to 11000

$$$$
