AV-unprocessed.smi:1809|AV-procd|sdf|7317|dock8
  -GOLD-   22720 8573D 1   1.00000     0.00000
 Structure written by MMmdl.
 39 41  0  0  0  0  0  0  0  0  1 V2000
  146.5635  134.1786  162.3571 C   0  0  0  0  0  0  0  0  0  0  0  0
  146.8708  135.3435  161.4793 C   0  0  0  0  0  0  0  0  0  0  0  0
  146.2962  136.5419  161.6396 N   0  0  0  0  0  0  0  0  0  0  0  0
  146.7372  137.4663  160.7029 N   0  0  0  0  0  0  0  0  0  0  0  0
  147.6333  136.9351  159.8597 C   0  0  0  0  0  0  0  0  0  0  0  0
  148.2479  137.6569  158.8026 N   0  0  0  0  0  0  0  0  0  0  0  0
  149.5177  137.5782  158.3677 C   0  0  0  0  0  0  0  0  0  0  0  0
  150.3849  136.8381  158.8329 O   0  0  0  0  0  0  0  0  0  0  0  0
  149.7311  138.4169  157.3435 N   0  0  0  0  0  0  0  0  0  0  0  0
  151.0002  138.5819  156.6426 C   0  0  0  0  0  0  0  0  0  0  0  0
  151.6140  139.9698  156.8921 C   0  0  2  0  0  0  0  0  0  0  0  0
  151.9221  140.1924  158.3909 C   0  0  0  0  0  0  0  0  0  0  0  0
  152.3838  141.5499  158.6073 N   0  0  0  0  0  0  0  0  0  0  0  0
  152.6381  141.9427  159.9739 C   0  0  0  0  0  0  0  0  0  0  0  0
  152.6890  143.4800  159.9242 C   0  0  0  0  0  0  0  0  0  0  0  0
  151.9523  143.8483  158.6169 C   0  0  0  0  0  0  0  0  0  0  0  0
  151.4073  142.4990  158.1459 C   0  0  1  0  0  0  0  0  0  0  0  0
  151.1442  142.3187  156.6446 C   0  0  0  0  0  0  0  0  0  0  0  0
  150.7000  140.9760  156.4363 O   0  0  0  0  0  0  0  0  0  0  0  0
  148.0134  135.2451  160.1449 S   0  0  0  0  0  0  0  0  0  0  0  0
  146.2374  134.5173  163.3410 H   0  0  0  0  0  0  0  0  0  0  0  0
  147.4500  133.5563  162.4796 H   0  0  0  0  0  0  0  0  0  0  0  0
  145.7710  133.5769  161.9122 H   0  0  0  0  0  0  0  0  0  0  0  0
  147.6484  138.3083  158.3182 H   0  0  0  0  0  0  0  0  0  0  0  0
  148.9617  138.9886  157.0278 H   0  0  0  0  0  0  0  0  0  0  0  0
  151.7051  137.7950  156.9167 H   0  0  0  0  0  0  0  0  0  0  0  0
  150.8018  138.4569  155.5779 H   0  0  0  0  0  0  0  0  0  0  0  0
  152.5409  140.0591  156.3223 H   0  0  0  0  0  0  0  0  0  0  0  0
  151.0255  140.0057  158.9838 H   0  0  0  0  0  0  0  0  0  0  0  0
  152.6797  139.4848  158.7292 H   0  0  0  0  0  0  0  0  0  0  0  0
  151.8179  141.6200  160.6173 H   0  0  0  0  0  0  0  0  0  0  0  0
  153.5603  141.5030  160.3543 H   0  0  0  0  0  0  0  0  0  0  0  0
  152.2092  143.9159  160.8010 H   0  0  0  0  0  0  0  0  0  0  0  0
  153.7190  143.8370  159.8930 H   0  0  0  0  0  0  0  0  0  0  0  0
  151.1598  144.5811  158.7712 H   0  0  0  0  0  0  0  0  0  0  0  0
  152.6566  144.2565  157.8908 H   0  0  0  0  0  0  0  0  0  0  0  0
  150.4674  142.3217  158.6737 H   0  0  0  0  0  0  0  0  0  0  0  0
  150.3759  143.0113  156.3007 H   0  0  0  0  0  0  0  0  0  0  0  0
  152.0446  142.5094  156.0587 H   0  0  0  0  0  0  0  0  0  0  0  0
  1  2  1  0  0  0  0
  1 21  1  0  0  0  0
  1 22  1  0  0  0  0
  1 23  1  0  0  0  0
  2 20  1  0  0  0  0
  2  3  2  0  0  0  0
  3  4  1  0  0  0  0
  4  5  2  0  0  0  0
  5  6  1  0  0  0  0
  5 20  1  0  0  0  0
  6  7  1  0  0  0  0
  6 24  1  0  0  0  0
  7  8  2  0  0  0  0
  7  9  1  0  0  0  0
  9 10  1  0  0  0  0
  9 25  1  0  0  0  0
 10 11  1  0  0  0  0
 10 26  1  0  0  0  0
 10 27  1  0  0  0  0
 11 19  1  0  0  0  0
 11 12  1  0  0  0  0
 11 28  1  0  0  0  0
 12 13  1  0  0  0  0
 12 29  1  0  0  0  0
 12 30  1  0  0  0  0
 13 17  1  0  0  0  0
 13 14  1  0  0  0  0
 14 15  1  0  0  0  0
 14 31  1  0  0  0  0
 14 32  1  0  0  0  0
 15 16  1  0  0  0  0
 15 33  1  0  0  0  0
 15 34  1  0  0  0  0
 16 17  1  0  0  0  0
 16 35  1  0  0  0  0
 16 36  1  0  0  0  0
 17 18  1  0  0  0  0
 17 37  1  0  0  0  0
 18 19  1  0  0  0  0
 18 38  1  0  0  0  0
 18 39  1  0  0  0  0
M  END
> <s_m_source_file>
AV-unprocessed.smi

> <i_m_source_file_index>
1809

> <i_lp_mmshare_version>
43012

> <i_f3d_flags>
0

> <s_epik_input>
W0NIM11jMW5uYyhzMSlbTkhdQyg9TylbTkhdW0NIMl1bQ0BIXShbQ0gyXTIpT1tDSDJdW0NAQEhdKE4yMylbQ0gyXVtDSDJdW0NIMl0z

> <s_epik_cmdline>
J2VwaWtfcHl0aG9uJywgJy1waCcsICc3LjAnLCAnLXRuJywgJzgnLCAnLW1hJywgJzIwMCcsICctbWV0YWxfYmluZGluZycsICctaW1hZScsICc8aW5maWxlLm1hZT4nLCAnLW9tYWUnLCAnPG91dGZpbGUubWFlPic=

> <r_lp_tautomer_probability>
1

> <r_epik_Ionization_Penalty>
1.05954

> <r_epik_Ionization_Penalty_Charging>
0

> <r_epik_Ionization_Penalty_Neutral>
1.05954

> <r_epik_State_Penalty>
1.4238

> <r_epik_Charging_Adjusted_Penalty>
1.4238

> <i_epik_Tot_Q>
0

> <i_epik_Tot_abs_Q>
0

> <r_epik_Metal_State_Penalty>
1.7901

> <b_epik_Metal_Only>
0

> <s_lp_Force_Field>
OPLS_2005

> <r_lp_Energy>
46.8482

> <b_lp_Chiralities_Consistent>
1

> <s_lp_Variant>
AV-unprocessed.smi:1809-9

> <Gold.Version>
5.8.1

> <Gold.Id.Protein>
6NUR|6NUR_protein|mol2

> <Gold.PLP.Fitness>
39.8728

> <Gold.PLP.PLP>
-34.5746

> <Gold.PLP.part.hbond>
-2.1107

> <Gold.PLP.part.metal>
0.0000

> <Gold.PLP.part.buried>
-5.8184

> <Gold.PLP.part.nonpolar>
-27.4489

> <Gold.PLP.part.repulsive>
0.2461

> <Gold.PLP.ligand.clash>
0.0000

> <Gold.PLP.ligand.torsion>
0.3139

> <Gold.PLP.Chemscore.Hbond>
1.9750

> <Gold.PLP.Chemscore.CHOScore>
0.0000

> <Gold.PLP.Chemscore.Metal>
0.0000

> <Gold.Chemscore.Hbonds>
donor molecule, donor type, donor heavy atom, donor atom, acceptor molecule, acceptor atom, score
      P1  H  6896  6907       L1     8  0.70
      P1  H  6934  6947       L1     4  1.00

> <Gold.PLP.Chemscore.Internal.Correction>
0.0009

> <Gold.Rescore>
     Score         DG    S(hbond)    S(metal)    S(lipo)     H(rot)  DE(clash)    DE(int)     intcor
     18.44     -18.88       1.86        0.00      90.40       1.32       0.00       0.44       ----

> <Gold.Chemscore.Fitness>
18.4379

> <Gold.Chemscore.DG>
-18.8811

> <Gold.Chemscore.ZeroCoef>
-5.4800

> <Gold.Chemscore.Hbond>
1.8569

> <Gold.Chemscore.Metal>
0.0000

> <Gold.Chemscore.Lipo>
90.4046

> <Gold.Chemscore.Internal_Hbond>
0.0000

> <Gold.Chemscore.DEClash>
0.0000

> <Gold.Chemscore.DEInternal>
0.4432

> <Gold.Chemscore.Rot>
1.3196

> <Gold.Chemscore.Internal.Correction>
   9.000000E+99

> <Gold.Chemscore.Hbonds>
donor molecule, donor type, donor heavy atom, donor atom, acceptor molecule, acceptor atom, score
      P1  H  6896  6907       L1     8  0.70
      P1  H  6934  6947       L1     4  0.60

> <Gold.Chemscore.Hbond.Weighted>
-6.2021

> <Gold.Chemscore.Metal.Weighted>
-0.0000

> <Gold.Chemscore.Lipo.Weighted>
-10.5773

> <Gold.Chemscore.Internal_Hbond.Weighted>
0.0000

> <Gold.Chemscore.DEClash.Weighted>
0.0000

> <Gold.Chemscore.DEInternal.Weighted>
0.4432

> <Gold.Chemscore.Rot.Weighted>
3.3783

> <Gold.Chemscore.Internal.Correction.Weighted>
   9.000000E+99

> <Gold.Protein.RotatedTorsions>
[ 6907 6896 6895 6894 ] final  -36.05 input  -60.11 | X-H torsion
[ 7974 7965 7964 7962 ] final  103.30 input  175.53 | X-H torsion
[ 8008 7997 7996 7995 ] final  129.91 input   59.86 | X-H torsion
[ 10167 10162 10161 10158 ] final -155.00 input  -65.29 | X-H torsion
[ 10718 10713 10712 10709 ] final -139.06 input   66.30 | X-H torsion
[ 10763 10752 10751 10750 ] final  174.23 input  -60.55 | X-H torsion
[ 11005 11000 10999 10996 ] final  -52.20 input  -57.11 | X-H torsion

> <Gold.Protein.ActiveResidues>
 VAL166  LYS551  ARG553  GLY616  TRP617  ASP618  TYR619  PRO620  LYS621  CYS622 
 ASP623  PHE694  ASN695  SER759  ASP760  ASP761  ALA762  ILE779  LEU786  VAL792 
 PHE793  MET794  SER795  GLU796  ALA797  LYS798  CYS799  TRP800  GLU811  SER814 

> <Gold.Protein.RotatedAtoms>
  151.0320  134.9546  159.8115 H   0  0  0  0  0  0  0  0  0  0  0  0  # atno 6907 bound_to 6896
  152.5347  134.2768  159.9002 H   0  0  0  0  0  0  0  0  0  0  0  0  # atno 6908 bound_to 6896
  151.2777  133.4182  159.2659 H   0  0  0  0  0  0  0  0  0  0  0  0  # atno 6909 bound_to 6896
  145.3477  139.2447  143.3575 H   0  0  0  0  0  0  0  0  0  0  0  0  # atno 7974 bound_to 7965
  156.2945  140.2609  156.2675 H   0  0  0  0  0  0  0  0  0  0  0  0  # atno 8008 bound_to 7997
  154.9727  140.0391  157.2260 H   0  0  0  0  0  0  0  0  0  0  0  0  # atno 8009 bound_to 7997
  154.7844  140.2801  155.6044 H   0  0  0  0  0  0  0  0  0  0  0  0  # atno 8010 bound_to 7997
  139.6967  143.9331  152.2410 H   0  0  0  0  0  0  0  0  0  0  0  0  # atno 10167 bound_to 10162
  156.3064  130.7457  151.1522 H   0  0  0  0  0  0  0  0  0  0  0  0  # atno 10718 bound_to 10713
  154.4510  135.2765  155.1781 H   0  0  0  0  0  0  0  0  0  0  0  0  # atno 10763 bound_to 10752
  154.3608  135.6130  153.5693 H   0  0  0  0  0  0  0  0  0  0  0  0  # atno 10764 bound_to 10752
  152.9847  135.5834  154.4855 H   0  0  0  0  0  0  0  0  0  0  0  0  # atno 10765 bound_to 10752
  141.0912  133.6632  156.3989 H   0  0  0  0  0  0  0  0  0  0  0  0  # atno 11005 bound_to 11000
  146.2981  140.4087  142.8714 LP  0  0  0  0  0  0  0  0  0  0  0  0  # atno 17320 bound_to 7965
  144.8741  140.7313  143.6028 LP  0  0  0  0  0  0  0  0  0  0  0  0  # atno 17321 bound_to 7965
  139.9162  144.6827  150.8510 LP  0  0  0  0  0  0  0  0  0  0  0  0  # atno 17342 bound_to 10162
  140.7698  143.3408  151.2213 LP  0  0  0  0  0  0  0  0  0  0  0  0  # atno 17343 bound_to 10162
  157.7380  131.0545  150.5318 LP  0  0  0  0  0  0  0  0  0  0  0  0  # atno 17370 bound_to 10713
  156.5452  130.4218  149.6134 LP  0  0  0  0  0  0  0  0  0  0  0  0  # atno 17371 bound_to 10713
  140.5248  134.6269  157.5330 LP  0  0  0  0  0  0  0  0  0  0  0  0  # atno 17394 bound_to 11000
  139.9738  134.7249  155.9989 LP  0  0  0  0  0  0  0  0  0  0  0  0  # atno 17395 bound_to 11000

$$$$
