AV-unprocessed.smi:2698|AV-procd|sdf|10419|dock1
  -GOLD-   2272014453D 1   1.00000     0.00000
 Structure written by MMmdl.
 33 33  0  0  0  0  0  0  0  0  2 V2000
  151.6038  144.5899  159.6166 C   0  0  0  0  0  0  0  0  0  0  0  0
  151.5377  143.3256  160.4935 C   0  0  0  0  0  0  0  0  0  0  0  0
  151.9267  143.6559  161.9422 C   0  0  0  0  0  0  0  0  0  0  0  0
  152.3994  142.1610  159.9535 C   0  0  0  0  0  0  0  0  0  0  0  0
  151.7219  141.3824  158.8239 C   0  0  0  0  0  0  0  0  0  0  0  0
  151.5893  140.1616  158.9098 O   0  0  0  0  0  0  0  0  0  0  0  0
  151.3066  142.1066  157.7737 N   0  0  0  0  0  0  0  0  0  0  0  0
  150.6576  141.5900  156.5693 C   0  0  2  0  0  0  0  0  0  0  0  0
  149.3042  140.9525  156.9549 C   0  0  0  0  0  0  0  0  0  0  0  0
  148.3199  140.7763  155.8201 C   0  0  0  0  0  0  0  0  0  0  0  0
  147.8031  139.6560  155.2029 C   0  0  0  0  0  0  0  0  0  0  0  0
  146.9069  140.0344  154.2003 N   0  0  0  0  0  0  0  0  0  0  0  0
  146.9033  141.3608  154.2555 C   0  0  0  0  0  0  0  0  0  0  0  0
  147.7133  141.8528  155.1966 N   0  0  0  0  0  0  0  0  0  0  0  0
  151.5738  140.5516  155.9077 C   0  0  0  0  0  0  0  0  0  0  0  0
  152.6516  140.2784  156.4825 O   0  0  0  0  0  0  0  0  0  0  0  0
  151.1792  140.0463  154.8342 O   0  5  0  0  0  0  0  0  0  0  0  0
  147.8616  142.8289  155.4098 H   0  0  0  0  0  0  0  0  0  0  0  0
  152.6281  144.9507  159.5192 H   0  0  0  0  0  0  0  0  0  0  0  0
  151.0075  145.3950  160.0466 H   0  0  0  0  0  0  0  0  0  0  0  0
  151.2168  144.4085  158.6140 H   0  0  0  0  0  0  0  0  0  0  0  0
  150.4978  142.9948  160.5102 H   0  0  0  0  0  0  0  0  0  0  0  0
  152.9607  143.9963  162.0064 H   0  0  0  0  0  0  0  0  0  0  0  0
  151.8229  142.7822  162.5865 H   0  0  0  0  0  0  0  0  0  0  0  0
  151.2913  144.4416  162.3518 H   0  0  0  0  0  0  0  0  0  0  0  0
  153.3578  142.5396  159.5951 H   0  0  0  0  0  0  0  0  0  0  0  0
  152.6328  141.4652  160.7610 H   0  0  0  0  0  0  0  0  0  0  0  0
  151.4419  143.1064  157.8080 H   0  0  0  0  0  0  0  0  0  0  0  0
  150.4768  142.3903  155.8489 H   0  0  0  0  0  0  0  0  0  0  0  0
  149.4715  139.9686  157.3955 H   0  0  0  0  0  0  0  0  0  0  0  0
  148.8204  141.5535  157.7269 H   0  0  0  0  0  0  0  0  0  0  0  0
  148.0046  138.6134  155.3998 H   0  0  0  0  0  0  0  0  0  0  0  0
  146.3030  141.9802  153.6057 H   0  0  0  0  0  0  0  0  0  0  0  0
  1  2  1  0  0  0  0
  1 19  1  0  0  0  0
  1 20  1  0  0  0  0
  1 21  1  0  0  0  0
  2  3  1  0  0  0  0
  2  4  1  0  0  0  0
  2 22  1  0  0  0  0
  3 23  1  0  0  0  0
  3 24  1  0  0  0  0
  3 25  1  0  0  0  0
  4  5  1  0  0  0  0
  4 26  1  0  0  0  0
  4 27  1  0  0  0  0
  5  6  2  0  0  0  0
  5  7  1  0  0  0  0
  7  8  1  0  0  0  0
  7 28  1  0  0  0  0
  8  9  1  0  0  0  0
  8 15  1  0  0  0  0
  8 29  1  0  0  0  0
  9 30  1  0  0  0  0
  9 31  1  0  0  0  0
  9 10  1  0  0  0  0
 10 11  2  0  0  0  0
 10 14  1  0  0  0  0
 11 32  1  0  0  0  0
 11 12  1  0  0  0  0
 12 13  2  0  0  0  0
 13 14  1  0  0  0  0
 13 33  1  0  0  0  0
 14 18  1  0  0  0  0
 15 16  2  0  0  0  0
 15 17  1  0  0  0  0
M  CHG  1  17  -1
M  END
> <s_m_source_file>
AV-unprocessed.smi

> <i_m_source_file_index>
2698

> <i_lp_mmshare_version>
43012

> <i_f3d_flags>
0

> <s_epik_input>
W0NIM11bQ0hdKFtDSDNdKVtDSDJdQyg9TylbTkhdW0NAQEhdKEMoPU8pW09IXSlbQ0gyXWMxW2NIXVtuSF1bY0hdbjE=

> <s_epik_cmdline>
J2VwaWtfcHl0aG9uJywgJy1waCcsICc3LjAnLCAnLXRuJywgJzgnLCAnLW1hJywgJzIwMCcsICctbWV0YWxfYmluZGluZycsICctaW1hZScsICc8aW5maWxlLm1hZT4nLCAnLW9tYWUnLCAnPG91dGZpbGUubWFlPic=

> <r_lp_tautomer_probability>
0.5

> <r_epik_Ionization_Penalty>
0.536153

> <r_epik_Ionization_Penalty_Charging>
0.536153

> <r_epik_Ionization_Penalty_Neutral>
4.95393e-08

> <r_epik_State_Penalty>
0.778213

> <r_epik_Charging_Adjusted_Penalty>
1.31437

> <i_epik_Tot_Q>
-1

> <i_epik_Tot_abs_Q>
1

> <r_epik_Metal_State_Penalty>
0.658344

> <b_epik_Metal_Only>
0

> <s_lp_Force_Field>
OPLS_2005

> <r_lp_Energy>
3.7745

> <b_lp_Chiralities_Consistent>
1

> <s_lp_Variant>
AV-unprocessed.smi:2698-3

> <Gold.Version>
5.8.1

> <Gold.Id.Protein>
6NUR|6NUR_protein|mol2

> <Gold.PLP.Fitness>
46.4820

> <Gold.PLP.PLP>
-35.3276

> <Gold.PLP.part.hbond>
-3.0000

> <Gold.PLP.part.metal>
0.0000

> <Gold.PLP.part.buried>
-5.5548

> <Gold.PLP.part.nonpolar>
-26.7143

> <Gold.PLP.part.repulsive>
0.4301

> <Gold.PLP.ligand.clash>
0.0000

> <Gold.PLP.ligand.torsion>
0.5148

> <Gold.PLP.Chemscore.Hbond>
4.0000

> <Gold.PLP.Chemscore.CHOScore>
0.0000

> <Gold.PLP.Chemscore.Metal>
0.0000

> <Gold.Chemscore.Hbonds>
donor molecule, donor type, donor heavy atom, donor atom, acceptor molecule, acceptor atom, score
      L1  H    14    18       P1  8028  0.73
      P1  H  7989  7998       L1    17  1.00
      P1  H  7997  8008       L1    16  2.00

> <Gold.PLP.Chemscore.Internal.Correction>
0.1841

> <Gold.Rescore>
     Score         DG    S(hbond)    S(metal)    S(lipo)     H(rot)  DE(clash)    DE(int)     intcor
     10.51     -15.44       2.88        0.00      68.87       3.01       0.09       4.84       ----

> <Gold.Chemscore.Fitness>
10.5091

> <Gold.Chemscore.DG>
-15.4420

> <Gold.Chemscore.ZeroCoef>
-5.4800

> <Gold.Chemscore.Hbond>
2.8806

> <Gold.Chemscore.Metal>
0.0000

> <Gold.Chemscore.Lipo>
68.8712

> <Gold.Chemscore.Internal_Hbond>
0.0000

> <Gold.Chemscore.DEClash>
0.0904

> <Gold.Chemscore.DEInternal>
4.8425

> <Gold.Chemscore.Rot>
3.0145

> <Gold.Chemscore.Internal.Correction>
   9.000000E+99

> <Gold.Chemscore.Hbonds>
donor molecule, donor type, donor heavy atom, donor atom, acceptor molecule, acceptor atom, score
      L1  H    14    18       P1  8028  0.57
      P1  H  7989  7998       L1    17  0.88
      P1  H  7997  8008       L1    16  0.96

> <Gold.Chemscore.Hbond.Weighted>
-9.6211

> <Gold.Chemscore.Metal.Weighted>
-0.0000

> <Gold.Chemscore.Lipo.Weighted>
-8.0579

> <Gold.Chemscore.Internal_Hbond.Weighted>
0.0000

> <Gold.Chemscore.DEClash.Weighted>
0.0904

> <Gold.Chemscore.DEInternal.Weighted>
4.8425

> <Gold.Chemscore.Rot.Weighted>
7.7171

> <Gold.Chemscore.Internal.Correction.Weighted>
   9.000000E+99

> <Gold.Protein.RotatedTorsions>
[ 6907 6896 6895 6894 ] final -159.32 input  -60.11 | X-H torsion
[ 7974 7965 7964 7962 ] final  -81.52 input  175.53 | X-H torsion
[ 8008 7997 7996 7995 ] final  -47.07 input   59.86 | X-H torsion
[ 10167 10162 10161 10158 ] final  -15.22 input  -65.29 | X-H torsion
[ 10718 10713 10712 10709 ] final  140.36 input   66.30 | X-H torsion
[ 10763 10752 10751 10750 ] final -127.83 input  -60.55 | X-H torsion
[ 11005 11000 10999 10996 ] final  165.52 input  -57.11 | X-H torsion

> <Gold.Protein.ActiveResidues>
 VAL166  LYS551  ARG553  GLY616  TRP617  ASP618  TYR619  PRO620  LYS621  CYS622 
 ASP623  PHE694  ASN695  SER759  ASP760  ASP761  ALA762  ILE779  LEU786  VAL792 
 PHE793  MET794  SER795  GLU796  ALA797  LYS798  CYS799  TRP800  GLU811  SER814 

> <Gold.Protein.RotatedAtoms>
  151.3318  133.3997  159.2663 H   0  0  0  0  0  0  0  0  0  0  0  0  # atno 6907 bound_to 6896
  150.9949  134.9276  159.7931 H   0  0  0  0  0  0  0  0  0  0  0  0  # atno 6908 bound_to 6896
  152.5258  134.3283  159.9226 H   0  0  0  0  0  0  0  0  0  0  0  0  # atno 6909 bound_to 6896
  145.5456  140.9504  143.1527 H   0  0  0  0  0  0  0  0  0  0  0  0  # atno 7974 bound_to 7965
  154.4013  140.1355  156.4116 H   0  0  0  0  0  0  0  0  0  0  0  0  # atno 8008 bound_to 7997
  155.7728  140.3483  155.5236 H   0  0  0  0  0  0  0  0  0  0  0  0  # atno 8009 bound_to 7997
  155.8750  140.0978  157.1515 H   0  0  0  0  0  0  0  0  0  0  0  0  # atno 8010 bound_to 7997
  140.7215  143.5241  150.9598 H   0  0  0  0  0  0  0  0  0  0  0  0  # atno 10167 bound_to 10162
  157.4042  131.1020  151.0521 H   0  0  0  0  0  0  0  0  0  0  0  0  # atno 10718 bound_to 10713
  154.8754  135.3949  154.3657 H   0  0  0  0  0  0  0  0  0  0  0  0  # atno 10763 bound_to 10752
  153.4423  135.7027  153.6166 H   0  0  0  0  0  0  0  0  0  0  0  0  # atno 10764 bound_to 10752
  153.4741  135.3784  155.2376 H   0  0  0  0  0  0  0  0  0  0  0  0  # atno 10765 bound_to 10752
  140.2570  134.7932  157.3555 H   0  0  0  0  0  0  0  0  0  0  0  0  # atno 11005 bound_to 11000
  144.7555  139.7086  143.7256 LP  0  0  0  0  0  0  0  0  0  0  0  0  # atno 17320 bound_to 7965
  146.1951  139.5214  142.9779 LP  0  0  0  0  0  0  0  0  0  0  0  0  # atno 17321 bound_to 7965
  139.8959  143.6896  152.3138 LP  0  0  0  0  0  0  0  0  0  0  0  0  # atno 17342 bound_to 10162
  139.7228  144.7599  151.0927 LP  0  0  0  0  0  0  0  0  0  0  0  0  # atno 17343 bound_to 10162
  157.1509  130.6183  149.5582 LP  0  0  0  0  0  0  0  0  0  0  0  0  # atno 17370 bound_to 10713
  155.9832  130.4849  150.6919 LP  0  0  0  0  0  0  0  0  0  0  0  0  # atno 17371 bound_to 10713
  140.1502  134.4860  155.7967 LP  0  0  0  0  0  0  0  0  0  0  0  0  # atno 17394 bound_to 11000
  141.2195  133.6859  156.7364 LP  0  0  0  0  0  0  0  0  0  0  0  0  # atno 17395 bound_to 11000

$$$$
