AV-unprocessed.smi:2597|AV-procd|sdf|10174|dock2
  -GOLD-   2272014183D 1   1.00000     0.00000
 Structure written by MMmdl.
 30 31  0  0  0  0  0  0  0  0  1 V2000
  148.3159  138.7201  153.1593 N   0  0  0  0  0  0  0  0  0  0  0  0
  147.5108  139.8751  153.5163 C   0  0  1  0  0  0  0  0  0  0  0  0
  146.5464  139.5194  154.6672 C   0  0  0  0  0  0  0  0  0  0  0  0
  145.7023  140.7363  155.0789 C   0  0  0  0  0  0  0  0  0  0  0  0
  146.5810  141.9490  155.4255 C   0  0  0  0  0  0  0  0  0  0  0  0
  147.5184  142.3103  154.2588 C   0  0  0  0  0  0  0  0  0  0  0  0
  148.3935  141.1246  153.7955 C   0  0  1  0  0  0  0  0  0  0  0  0
  149.5293  140.9056  154.6950 N   0  0  0  0  0  0  0  0  0  0  0  0
  149.7716  141.5371  155.8985 C   0  0  0  0  0  0  0  0  0  0  0  0
  150.9216  140.9528  156.3525 C   0  0  0  0  0  0  0  0  0  0  0  0
  151.7069  141.1936  157.6100 C   0  0  0  0  0  0  0  0  0  0  0  0
  152.7117  140.2036  157.6902 O   0  0  0  0  0  0  0  0  0  0  0  0
  151.3198  139.9910  155.4273 N   0  0  0  0  0  0  0  0  0  0  0  0
  150.4757  139.9666  154.4453 N   0  0  0  0  0  0  0  0  0  0  0  0
  146.8979  140.1018  152.6430 H   0  0  0  0  0  0  0  0  0  0  0  0
  148.8326  141.4151  152.8397 H   0  0  0  0  0  0  0  0  0  0  0  0
  149.0326  138.9924  152.5019 H   0  0  0  0  0  0  0  0  0  0  0  0
  148.7910  138.3671  153.9778 H   0  0  0  0  0  0  0  0  0  0  0  0
  145.8830  138.7119  154.3555 H   0  0  0  0  0  0  0  0  0  0  0  0
  147.0878  139.1387  155.5325 H   0  0  0  0  0  0  0  0  0  0  0  0
  145.0279  141.0006  154.2635 H   0  0  0  0  0  0  0  0  0  0  0  0
  145.0708  140.4790  155.9296 H   0  0  0  0  0  0  0  0  0  0  0  0
  145.9473  142.8038  155.6629 H   0  0  0  0  0  0  0  0  0  0  0  0
  147.1584  141.7438  156.3267 H   0  0  0  0  0  0  0  0  0  0  0  0
  146.9108  142.6476  153.4183 H   0  0  0  0  0  0  0  0  0  0  0  0
  148.1472  143.1585  154.5325 H   0  0  0  0  0  0  0  0  0  0  0  0
  149.1371  142.3095  156.3071 H   0  0  0  0  0  0  0  0  0  0  0  0
  152.1678  142.1814  157.6018 H   0  0  0  0  0  0  0  0  0  0  0  0
  151.0694  141.1315  158.4923 H   0  0  0  0  0  0  0  0  0  0  0  0
  152.3434  139.4366  158.1014 H   0  0  0  0  0  0  0  0  0  0  0  0
  1  2  1  0  0  0  0
  1 17  1  0  0  0  0
  1 18  1  0  0  0  0
  2 15  1  0  0  0  0
  2  7  1  0  0  0  0
  2  3  1  0  0  0  0
  3  4  1  0  0  0  0
  3 19  1  0  0  0  0
  3 20  1  0  0  0  0
  4  5  1  0  0  0  0
  4 21  1  0  0  0  0
  4 22  1  0  0  0  0
  5  6  1  0  0  0  0
  5 23  1  0  0  0  0
  5 24  1  0  0  0  0
  6  7  1  0  0  0  0
  6 25  1  0  0  0  0
  6 26  1  0  0  0  0
  7 16  1  0  0  0  0
  7  8  1  0  0  0  0
  8 14  1  0  0  0  0
  8  9  1  0  0  0  0
  9 10  2  0  0  0  0
  9 27  1  0  0  0  0
 10 11  1  0  0  0  0
 10 13  1  0  0  0  0
 11 12  1  0  0  0  0
 11 28  1  0  0  0  0
 11 29  1  0  0  0  0
 12 30  1  0  0  0  0
 13 14  2  0  0  0  0
M  END
> <s_m_source_file>
AV-unprocessed.smi

> <i_m_source_file_index>
2597

> <i_lp_mmshare_version>
43012

> <i_f3d_flags>
0

> <s_epik_input>
W05IMl1bQ0BIXTFbQ0gyXVtDSDJdW0NIMl1bQ0gyXVtDQEhdMW4yW2NIXWMobm4yKVtDSDJdW09IXQ==

> <s_epik_cmdline>
J2VwaWtfcHl0aG9uJywgJy1waCcsICc3LjAnLCAnLXRuJywgJzgnLCAnLW1hJywgJzIwMCcsICctbWV0YWxfYmluZGluZycsICctaW1hZScsICc8aW5maWxlLm1hZT4nLCAnLW9tYWUnLCAnPG91dGZpbGUubWFlPic=

> <r_lp_tautomer_probability>
1

> <r_epik_Ionization_Penalty>
2.21303

> <r_epik_Ionization_Penalty_Charging>
0

> <r_epik_Ionization_Penalty_Neutral>
2.21303

> <r_epik_State_Penalty>
2.3573

> <r_epik_Charging_Adjusted_Penalty>
2.3573

> <i_epik_Tot_Q>
0

> <i_epik_Tot_abs_Q>
0

> <r_epik_Metal_State_Penalty>
2.35724

> <b_epik_Metal_Only>
0

> <s_lp_Force_Field>
OPLS_2005

> <r_lp_Energy>
16.8416

> <b_lp_Chiralities_Consistent>
1

> <s_lp_Variant>
AV-unprocessed.smi:2597-5

> <Gold.Version>
5.8.1

> <Gold.Id.Protein>
6NUR|6NUR_protein|mol2

> <Gold.PLP.Fitness>
35.2977

> <Gold.PLP.PLP>
-25.0881

> <Gold.PLP.part.hbond>
-4.8866

> <Gold.PLP.part.metal>
0.0000

> <Gold.PLP.part.buried>
0.2581

> <Gold.PLP.part.nonpolar>
-19.8952

> <Gold.PLP.part.repulsive>
0.1262

> <Gold.PLP.ligand.clash>
0.0000

> <Gold.PLP.ligand.torsion>
0.0910

> <Gold.PLP.Chemscore.Hbond>
2.4500

> <Gold.PLP.Chemscore.CHOScore>
0.9928

> <Gold.PLP.Chemscore.Metal>
0.0000

> <Gold.Chemscore.Hbonds>
donor molecule, donor type, donor heavy atom, donor atom, acceptor molecule, acceptor atom, score
      L1  H     1    17       P1  7957  1.00
      P1  H  7989  7998       L1    14  0.45
      P1  H  7997  8008       L1    12  1.00
      L1  C     9    27       P1  8028  1.00

> <Gold.PLP.Chemscore.Internal.Correction>
0.0631

> <Gold.Rescore>
     Score         DG    S(hbond)    S(metal)    S(lipo)     H(rot)  DE(clash)    DE(int)     intcor
     11.28     -12.78       1.97        0.00      46.10       1.82       0.02       1.48       ----

> <Gold.Chemscore.Fitness>
11.2817

> <Gold.Chemscore.DG>
-12.7767

> <Gold.Chemscore.ZeroCoef>
-5.4800

> <Gold.Chemscore.Hbond>
1.9665

> <Gold.Chemscore.Metal>
0.0000

> <Gold.Chemscore.Lipo>
46.0983

> <Gold.Chemscore.Internal_Hbond>
0.0000

> <Gold.Chemscore.DEClash>
0.0174

> <Gold.Chemscore.DEInternal>
1.4776

> <Gold.Chemscore.Rot>
1.8222

> <Gold.Chemscore.Internal.Correction>
   9.000000E+99

> <Gold.Chemscore.Hbonds>
donor molecule, donor type, donor heavy atom, donor atom, acceptor molecule, acceptor atom, score
      L1  H     1    17       P1  7957  0.94
      P1  H  7989  7998       L1    14  0.01
      P1  H  7997  8008       L1    12  0.91

> <Gold.Chemscore.Hbond.Weighted>
-6.5682

> <Gold.Chemscore.Metal.Weighted>
-0.0000

> <Gold.Chemscore.Lipo.Weighted>
-5.3935

> <Gold.Chemscore.Internal_Hbond.Weighted>
0.0000

> <Gold.Chemscore.DEClash.Weighted>
0.0174

> <Gold.Chemscore.DEInternal.Weighted>
1.4776

> <Gold.Chemscore.Rot.Weighted>
4.6649

> <Gold.Chemscore.Internal.Correction.Weighted>
   9.000000E+99

> <Gold.Protein.RotatedTorsions>
[ 6907 6896 6895 6894 ] final   20.37 input  -60.11 | X-H torsion
[ 7974 7965 7964 7962 ] final  -49.25 input  175.53 | X-H torsion
[ 8008 7997 7996 7995 ] final  -72.31 input   59.86 | X-H torsion
[ 10167 10162 10161 10158 ] final  -21.52 input  -65.29 | X-H torsion
[ 10718 10713 10712 10709 ] final  112.21 input   66.30 | X-H torsion
[ 10763 10752 10751 10750 ] final  -24.98 input  -60.55 | X-H torsion
[ 11005 11000 10999 10996 ] final  144.60 input  -57.11 | X-H torsion

> <Gold.Protein.ActiveResidues>
 VAL166  LYS551  ARG553  GLY616  TRP617  ASP618  TYR619  PRO620  LYS621  CYS622 
 ASP623  PHE694  ASN695  SER759  ASP760  ASP761  ALA762  ILE779  LEU786  VAL792 
 PHE793  MET794  SER795  GLU796  ALA797  LYS798  CYS799  TRP800  GLU811  SER814 

> <Gold.Protein.RotatedAtoms>
  151.8953  135.0400  160.0501 H   0  0  0  0  0  0  0  0  0  0  0  0  # atno 6907 bound_to 6896
  152.2402  133.5125  159.5274 H   0  0  0  0  0  0  0  0  0  0  0  0  # atno 6908 bound_to 6896
  150.7051  134.1015  159.4010 H   0  0  0  0  0  0  0  0  0  0  0  0  # atno 6909 bound_to 6896
  145.9425  140.7649  142.9545 H   0  0  0  0  0  0  0  0  0  0  0  0  # atno 7974 bound_to 7965
  154.5156  140.0799  156.8074 H   0  0  0  0  0  0  0  0  0  0  0  0  # atno 8008 bound_to 7997
  155.3688  140.3422  155.4224 H   0  0  0  0  0  0  0  0  0  0  0  0  # atno 8009 bound_to 7997
  156.1623  140.1592  156.8577 H   0  0  0  0  0  0  0  0  0  0  0  0  # atno 8010 bound_to 7997
  140.7282  143.4620  151.0366 H   0  0  0  0  0  0  0  0  0  0  0  0  # atno 10167 bound_to 10162
  157.6404  131.0964  150.6862 H   0  0  0  0  0  0  0  0  0  0  0  0  # atno 10718 bound_to 10713
  153.6924  135.6961  153.5086 H   0  0  0  0  0  0  0  0  0  0  0  0  # atno 10763 bound_to 10752
  153.2403  135.4308  155.0690 H   0  0  0  0  0  0  0  0  0  0  0  0  # atno 10764 bound_to 10752
  154.8368  135.3506  154.6466 H   0  0  0  0  0  0  0  0  0  0  0  0  # atno 10765 bound_to 10752
  140.0645  134.9186  157.1241 H   0  0  0  0  0  0  0  0  0  0  0  0  # atno 11005 bound_to 11000
  144.6781  140.2303  143.7356 LP  0  0  0  0  0  0  0  0  0  0  0  0  # atno 17320 bound_to 7965
  145.8280  139.2073  143.1899 LP  0  0  0  0  0  0  0  0  0  0  0  0  # atno 17321 bound_to 7965
  139.8305  143.7697  152.3179 LP  0  0  0  0  0  0  0  0  0  0  0  0  # atno 17342 bound_to 10162
  139.7811  144.7444  151.0087 LP  0  0  0  0  0  0  0  0  0  0  0  0  # atno 17343 bound_to 10162
  156.7186  130.4674  149.5528 LP  0  0  0  0  0  0  0  0  0  0  0  0  # atno 17370 bound_to 10713
  156.1680  130.6418  151.0803 LP  0  0  0  0  0  0  0  0  0  0  0  0  # atno 17371 bound_to 10713
  140.3720  134.2380  155.7177 LP  0  0  0  0  0  0  0  0  0  0  0  0  # atno 17394 bound_to 11000
  141.1987  133.8029  157.0571 LP  0  0  0  0  0  0  0  0  0  0  0  0  # atno 17395 bound_to 11000

$$$$
