AV-unprocessed.smi:759|AV-procd|sdf|3625|dock2
  -GOLD-   22720 1 13D 1   1.00000     0.00000
 Structure written by MMmdl.
 23 24  0  0  0  0  0  0  0  0  3 V2000
  151.6724  140.6863  157.5315 C   0  0  0  0  0  0  0  0  0  0  0  0
  152.5380  139.9238  156.8501 N   0  5  0  0  0  0  0  0  0  0  0  0
  151.9923  139.6335  155.6846 N   0  0  0  0  0  0  0  0  0  0  0  0
  150.7862  140.2321  155.6797 C   0  0  0  0  0  0  0  0  0  0  0  0
  149.7973  140.1581  154.5332 C   0  0  2  0  0  0  0  0  0  0  0  0
  148.4860  140.9011  154.8476 C   0  0  0  0  0  0  0  0  0  0  0  0
  147.5059  140.7796  153.6706 C   0  0  0  0  0  0  0  0  0  0  0  0
  147.2893  139.3063  153.2852 C   0  0  0  0  0  0  0  0  0  0  0  0
  148.5788  138.6511  152.9741 N   0  3  0  0  0  0  0  0  0  0  0  0
  149.5391  138.7031  154.0979 C   0  0  0  0  0  0  0  0  0  0  0  0
  150.5702  140.8945  156.8273 N   0  0  0  0  0  0  0  0  0  0  0  0
  151.9061  141.0480  158.5254 H   0  0  0  0  0  0  0  0  0  0  0  0
  150.2657  140.6710  153.6912 H   0  0  0  0  0  0  0  0  0  0  0  0
  148.0289  140.4817  155.7451 H   0  0  0  0  0  0  0  0  0  0  0  0
  148.6876  141.9513  155.0617 H   0  0  0  0  0  0  0  0  0  0  0  0
  146.5531  141.2421  153.9300 H   0  0  0  0  0  0  0  0  0  0  0  0
  147.8939  141.3304  152.8126 H   0  0  0  0  0  0  0  0  0  0  0  0
  146.7999  138.7687  154.0986 H   0  0  0  0  0  0  0  0  0  0  0  0
  146.6351  139.2346  152.4162 H   0  0  0  0  0  0  0  0  0  0  0  0
  148.4081  137.6847  152.7358 H   0  0  0  0  0  0  0  0  0  0  0  0
  150.4705  138.2271  153.7899 H   0  0  0  0  0  0  0  0  0  0  0  0
  149.1427  138.1195  154.9302 H   0  0  0  0  0  0  0  0  0  0  0  0
  148.9924  139.1159  152.1785 H   0  0  0  0  0  0  0  0  0  0  0  0
  1 11  2  0  0  0  0
  1 12  1  0  0  0  0
  1  2  1  0  0  0  0
  2  3  1  0  0  0  0
  3  4  2  0  0  0  0
  4 11  1  0  0  0  0
  4  5  1  0  0  0  0
  5 10  1  0  0  0  0
  5  6  1  0  0  0  0
  5 13  1  0  0  0  0
  6  7  1  0  0  0  0
  6 14  1  0  0  0  0
  6 15  1  0  0  0  0
  7  8  1  0  0  0  0
  7 16  1  0  0  0  0
  7 17  1  0  0  0  0
  8  9  1  0  0  0  0
  8 18  1  0  0  0  0
  8 19  1  0  0  0  0
  9 10  1  0  0  0  0
  9 20  1  0  0  0  0
  9 23  1  0  0  0  0
 10 21  1  0  0  0  0
 10 22  1  0  0  0  0
M  CHG  1   2  -1
M  CHG  1   9   1
M  END
> <s_m_source_file>
AV-unprocessed.smi

> <i_m_source_file_index>
759

> <i_lp_mmshare_version>
43012

> <i_f3d_flags>
0

> <s_epik_input>
W25IXTFbY0hdbm5jMVtDQEBIXTJbQ0gyXVtDSDJdW0NIMl1bTkhdW0NIMl0y

> <s_epik_cmdline>
J2VwaWtfcHl0aG9uJywgJy1waCcsICc3LjAnLCAnLXRuJywgJzgnLCAnLW1hJywgJzIwMCcsICctbWV0YWxfYmluZGluZycsICctaW1hZScsICc8aW5maWxlLm1hZT4nLCAnLW9tYWUnLCAnPG91dGZpbGUubWFlPic=

> <r_lp_tautomer_probability>
0.948284

> <r_epik_Ionization_Penalty>
7.12535

> <r_epik_Ionization_Penalty_Charging>
7.12535

> <r_epik_Ionization_Penalty_Neutral>
7.15677e-14

> <r_epik_State_Penalty>
3.13859

> <r_epik_Charging_Adjusted_Penalty>
10.2639

> <i_epik_Tot_Q>
0

> <i_epik_Tot_abs_Q>
2

> <r_epik_Metal_State_Penalty>
0.603007

> <b_epik_Metal_Only>
1

> <s_lp_Force_Field>
OPLS_2005

> <r_lp_Energy>
6.41651

> <b_lp_Chiralities_Consistent>
1

> <s_lp_Variant>
AV-unprocessed.smi:759-7

> <Gold.Version>
5.8.1

> <Gold.Id.Protein>
6NUR|6NUR_protein|mol2

> <Gold.PLP.Fitness>
34.6879

> <Gold.PLP.PLP>
-20.4848

> <Gold.PLP.part.hbond>
-2.8778

> <Gold.PLP.part.metal>
0.0000

> <Gold.PLP.part.buried>
-2.0896

> <Gold.PLP.part.nonpolar>
-15.9387

> <Gold.PLP.part.repulsive>
0.1119

> <Gold.PLP.ligand.clash>
0.0000

> <Gold.PLP.ligand.torsion>
0.0682

> <Gold.PLP.Chemscore.Hbond>
4.7660

> <Gold.PLP.Chemscore.CHOScore>
0.0000

> <Gold.PLP.Chemscore.Metal>
0.0000

> <Gold.Chemscore.Hbonds>
donor molecule, donor type, donor heavy atom, donor atom, acceptor molecule, acceptor atom, score
      L1  H     9    20       P1  7948  1.86
      L1  H     9    23       P1  7957  0.89
      P1  H  7997  8009       L1     2  2.00

> <Gold.PLP.Chemscore.Internal.Correction>
0.0414

> <Gold.Rescore>
     Score         DG    S(hbond)    S(metal)    S(lipo)     H(rot)  DE(clash)    DE(int)     intcor
     16.14     -16.19       2.81        0.00      33.23       1.00       0.03       0.03       ----

> <Gold.Chemscore.Fitness>
16.1355

> <Gold.Chemscore.DG>
-16.1873

> <Gold.Chemscore.ZeroCoef>
-5.4800

> <Gold.Chemscore.Hbond>
2.8083

> <Gold.Chemscore.Metal>
0.0000

> <Gold.Chemscore.Lipo>
33.2269

> <Gold.Chemscore.Internal_Hbond>
0.0000

> <Gold.Chemscore.DEClash>
0.0254

> <Gold.Chemscore.DEInternal>
0.0263

> <Gold.Chemscore.Rot>
1.0000

> <Gold.Chemscore.Internal.Correction>
   9.000000E+99

> <Gold.Chemscore.Hbonds>
donor molecule, donor type, donor heavy atom, donor atom, acceptor molecule, acceptor atom, score
      L1  H     9    20       P1  7948  0.90
      L1  H     9    23       P1  7957  0.86
      P1  H  7997  8009       L1     2  0.45

> <Gold.Chemscore.Hbond.Weighted>
-9.3797

> <Gold.Chemscore.Metal.Weighted>
-0.0000

> <Gold.Chemscore.Lipo.Weighted>
-3.8876

> <Gold.Chemscore.Internal_Hbond.Weighted>
0.0000

> <Gold.Chemscore.DEClash.Weighted>
0.0254

> <Gold.Chemscore.DEInternal.Weighted>
0.0263

> <Gold.Chemscore.Rot.Weighted>
2.5600

> <Gold.Chemscore.Internal.Correction.Weighted>
   9.000000E+99

> <Gold.Protein.RotatedTorsions>
[ 6907 6896 6895 6894 ] final    9.03 input  -60.11 | X-H torsion
[ 7974 7965 7964 7962 ] final  114.91 input  175.53 | X-H torsion
[ 8008 7997 7996 7995 ] final -168.60 input   59.86 | X-H torsion
[ 10167 10162 10161 10158 ] final   81.26 input  -65.29 | X-H torsion
[ 10718 10713 10712 10709 ] final  -50.27 input   66.30 | X-H torsion
[ 10763 10752 10751 10750 ] final   14.31 input  -60.55 | X-H torsion
[ 11005 11000 10999 10996 ] final  -21.77 input  -57.11 | X-H torsion

> <Gold.Protein.ActiveResidues>
 VAL166  LYS551  ARG553  GLY616  TRP617  ASP618  TYR619  PRO620  LYS621  CYS622 
 ASP623  PHE694  ASN695  SER759  ASP760  ASP761  ALA762  ILE779  LEU786  VAL792 
 PHE793  MET794  SER795  GLU796  ALA797  LYS798  CYS799  TRP800  GLU811  SER814 

> <Gold.Protein.RotatedAtoms>
  151.7156  135.0904  160.0274 H   0  0  0  0  0  0  0  0  0  0  0  0  # atno 6907 bound_to 6896
  152.3634  133.6322  159.6041 H   0  0  0  0  0  0  0  0  0  0  0  0  # atno 6908 bound_to 6896
  150.7621  133.9303  159.3466 H   0  0  0  0  0  0  0  0  0  0  0  0  # atno 6909 bound_to 6896
  145.1985  139.2964  143.4331 H   0  0  0  0  0  0  0  0  0  0  0  0  # atno 7974 bound_to 7965
  155.8936  140.1029  157.1401 H   0  0  0  0  0  0  0  0  0  0  0  0  # atno 8008 bound_to 7997
  154.4018  140.1306  156.4410 H   0  0  0  0  0  0  0  0  0  0  0  0  # atno 8009 bound_to 7997
  155.7505  140.3465  155.5150 H   0  0  0  0  0  0  0  0  0  0  0  0  # atno 8010 bound_to 7997
  139.9411  144.6089  150.8251 H   0  0  0  0  0  0  0  0  0  0  0  0  # atno 10167 bound_to 10162
  156.1816  130.4150  149.9499 H   0  0  0  0  0  0  0  0  0  0  0  0  # atno 10718 bound_to 10713
  153.1635  135.6800  153.8708 H   0  0  0  0  0  0  0  0  0  0  0  0  # atno 10763 bound_to 10752
  153.8096  135.3144  155.3400 H   0  0  0  0  0  0  0  0  0  0  0  0  # atno 10764 bound_to 10752
  154.7949  135.4813  154.0227 H   0  0  0  0  0  0  0  0  0  0  0  0  # atno 10765 bound_to 10752
  140.8593  133.7800  156.0056 H   0  0  0  0  0  0  0  0  0  0  0  0  # atno 11005 bound_to 11000
  146.3422  140.2222  142.8591 LP  0  0  0  0  0  0  0  0  0  0  0  0  # atno 17320 bound_to 7965
  144.9971  140.8599  143.5304 LP  0  0  0  0  0  0  0  0  0  0  0  0  # atno 17321 bound_to 7965
  140.7610  143.3165  151.2721 LP  0  0  0  0  0  0  0  0  0  0  0  0  # atno 17342 bound_to 10162
  139.6703  144.0031  152.2749 LP  0  0  0  0  0  0  0  0  0  0  0  0  # atno 17343 bound_to 10162
  156.7267  130.9028  151.3622 LP  0  0  0  0  0  0  0  0  0  0  0  0  # atno 17370 bound_to 10713
  157.6872  130.9197  150.0417 LP  0  0  0  0  0  0  0  0  0  0  0  0  # atno 17371 bound_to 10713
  140.8701  134.2736  157.5194 LP  0  0  0  0  0  0  0  0  0  0  0  0  # atno 17394 bound_to 11000
  139.8706  134.9563  156.4233 LP  0  0  0  0  0  0  0  0  0  0  0  0  # atno 17395 bound_to 11000

$$$$
