AV-unprocessed.smi:135|AV-procd|sdf|1169|dock10
  -GOLD-   2262018313D 1   1.00000     0.00000
 Structure written by MMmdl.
 51 54  0  0  0  0  0  0  0  0  1 V2000
  148.7005  135.6220  156.5548 O   0  0  0  0  0  0  0  0  0  0  0  0
  148.8292  135.8926  155.3601 C   0  0  0  0  0  0  0  0  0  0  0  0
  148.8265  137.3533  154.8845 C   0  0  0  0  0  0  0  0  0  0  0  0
  149.9441  138.1521  155.4321 N   0  0  0  0  0  0  0  0  0  0  0  0
  151.2696  137.7609  155.1206 C   0  0  0  0  0  0  0  0  0  0  0  0
  151.4956  136.7839  154.4051 O   0  0  0  0  0  0  0  0  0  0  0  0
  152.3225  138.5819  155.7071 C   0  0  0  0  0  0  0  0  0  0  0  0
  153.6103  138.2808  155.4693 F   0  0  0  0  0  0  0  0  0  0  0  0
  152.0256  139.6402  156.4891 C   0  0  0  0  0  0  0  0  0  0  0  0
  150.7255  140.0154  156.7806 N   0  0  0  0  0  0  0  0  0  0  0  0
  150.4092  141.1878  157.6877 C   0  0  2  0  0  0  0  0  0  0  0  0
  150.9854  142.4985  157.1134 C   0  0  0  0  0  0  0  0  0  0  0  0
  151.8166  143.0369  158.2617 C   0  0  0  0  0  0  0  0  0  0  0  0
  152.2063  141.7637  158.9963 C   0  0  0  0  0  0  0  0  0  0  0  0
  151.0105  140.9986  158.9371 O   0  0  0  0  0  0  0  0  0  0  0  0
  149.6510  139.2566  156.2668 C   0  0  0  0  0  0  0  0  0  0  0  0
  148.4865  139.5509  156.5450 O   0  0  0  0  0  0  0  0  0  0  0  0
  148.9801  134.9760  154.3887 N   0  0  0  0  0  0  0  0  0  0  0  0
  149.0572  133.5649  154.5270 C   0  0  0  0  0  0  0  0  0  0  0  0
  149.5810  132.9498  155.6892 C   0  0  0  0  0  0  0  0  0  0  0  0
  149.6003  131.5468  155.8033 C   0  0  0  0  0  0  0  0  0  0  0  0
  149.0853  130.7478  154.7660 C   0  0  0  0  0  0  0  0  0  0  0  0
  148.5501  131.3531  153.6137 C   0  0  0  0  0  0  0  0  0  0  0  0
  148.5377  132.7573  153.4865 C   0  0  0  0  0  0  0  0  0  0  0  0
  148.0094  133.3176  152.3500 O   0  0  0  0  0  0  0  0  0  0  0  0
  146.6760  133.1028  152.1047 C   0  0  0  0  0  0  0  0  0  0  0  0
  145.7374  134.1552  152.1854 C   0  0  0  0  0  0  0  0  0  0  0  0
  144.3740  133.9091  151.9317 C   0  0  0  0  0  0  0  0  0  0  0  0
  143.9432  132.6124  151.5916 C   0  0  0  0  0  0  0  0  0  0  0  0
  144.8772  131.5627  151.4997 C   0  0  0  0  0  0  0  0  0  0  0  0
  146.2405  131.8089  151.7523 C   0  0  0  0  0  0  0  0  0  0  0  0
  148.8413  137.3739  153.7931 H   0  0  0  0  0  0  0  0  0  0  0  0
  147.8615  137.7923  155.1420 H   0  0  0  0  0  0  0  0  0  0  0  0
  152.8531  140.2007  156.8961 H   0  0  0  0  0  0  0  0  0  0  0  0
  149.3231  141.1848  157.7960 H   0  0  0  0  0  0  0  0  0  0  0  0
  151.6187  142.2911  156.2495 H   0  0  0  0  0  0  0  0  0  0  0  0
  150.1859  143.1757  156.8120 H   0  0  0  0  0  0  0  0  0  0  0  0
  152.6763  143.6200  157.9310 H   0  0  0  0  0  0  0  0  0  0  0  0
  151.2021  143.6663  158.9069 H   0  0  0  0  0  0  0  0  0  0  0  0
  153.0132  141.2455  158.4762 H   0  0  0  0  0  0  0  0  0  0  0  0
  152.5176  141.9462  160.0247 H   0  0  0  0  0  0  0  0  0  0  0  0
  149.1796  135.3346  153.4663 H   0  0  0  0  0  0  0  0  0  0  0  0
  149.9577  133.5415  156.5100 H   0  0  0  0  0  0  0  0  0  0  0  0
  150.0024  131.0839  156.6924 H   0  0  0  0  0  0  0  0  0  0  0  0
  149.0958  129.6717  154.8563 H   0  0  0  0  0  0  0  0  0  0  0  0
  148.1516  130.7379  152.8204 H   0  0  0  0  0  0  0  0  0  0  0  0
  146.0593  135.1529  152.4442 H   0  0  0  0  0  0  0  0  0  0  0  0
  143.6585  134.7153  151.9985 H   0  0  0  0  0  0  0  0  0  0  0  0
  142.8973  132.4235  151.3994 H   0  0  0  0  0  0  0  0  0  0  0  0
  144.5478  130.5680  151.2382 H   0  0  0  0  0  0  0  0  0  0  0  0
  146.9528  131.0000  151.6836 H   0  0  0  0  0  0  0  0  0  0  0  0
  1  2  2  0  0  0  0
  2  3  1  0  0  0  0
  2 18  1  0  0  0  0
  3  4  1  0  0  0  0
  3 32  1  0  0  0  0
  3 33  1  0  0  0  0
  4 16  1  0  0  0  0
  4  5  1  0  0  0  0
  5  6  2  0  0  0  0
  5  7  1  0  0  0  0
  7  8  1  0  0  0  0
  7  9  2  0  0  0  0
  9 10  1  0  0  0  0
  9 34  1  0  0  0  0
 10 11  1  0  0  0  0
 10 16  1  0  0  0  0
 11 15  1  0  0  0  0
 11 12  1  0  0  0  0
 11 35  1  0  0  0  0
 12 13  1  0  0  0  0
 12 36  1  0  0  0  0
 12 37  1  0  0  0  0
 13 14  1  0  0  0  0
 13 38  1  0  0  0  0
 13 39  1  0  0  0  0
 14 15  1  0  0  0  0
 14 40  1  0  0  0  0
 14 41  1  0  0  0  0
 16 17  2  0  0  0  0
 18 19  1  0  0  0  0
 18 42  1  0  0  0  0
 19 24  1  0  0  0  0
 19 20  2  0  0  0  0
 20 21  1  0  0  0  0
 20 43  1  0  0  0  0
 21 22  2  0  0  0  0
 21 44  1  0  0  0  0
 22 23  1  0  0  0  0
 22 45  1  0  0  0  0
 23 24  2  0  0  0  0
 23 46  1  0  0  0  0
 24 25  1  0  0  0  0
 25 26  1  0  0  0  0
 26 31  1  0  0  0  0
 26 27  2  0  0  0  0
 27 28  1  0  0  0  0
 27 47  1  0  0  0  0
 28 29  2  0  0  0  0
 28 48  1  0  0  0  0
 29 30  1  0  0  0  0
 29 49  1  0  0  0  0
 30 31  2  0  0  0  0
 30 50  1  0  0  0  0
 31 51  1  0  0  0  0
M  END
> <s_m_source_file>
AV-unprocessed.smi

> <i_m_source_file_index>
135

> <i_lp_mmshare_version>
43012

> <i_f3d_flags>
0

> <s_epik_input>
TzFbQ0gyXVtDSDJdW0NIMl1bQ0BIXTFuKGMyPU8pW2NIXWMoRiljKD1PKW4yW0NIMl1DKD1PKVtOSF1jM1tjSF1bY0hdW2NIXVtjSF1jM09jNFtjSF1bY0hdW2NIXVtjSF1bY0hdNA==

> <s_epik_cmdline>
J2VwaWtfcHl0aG9uJywgJy1waCcsICc3LjAnLCAnLXRuJywgJzgnLCAnLW1hJywgJzIwMCcsICctbWV0YWxfYmluZGluZycsICctaW1hZScsICc8aW5maWxlLm1hZT4nLCAnLW9tYWUnLCAnPG91dGZpbGUubWFlPic=

> <r_lp_tautomer_probability>
1

> <r_epik_Ionization_Penalty>
1.89877e-06

> <r_epik_Ionization_Penalty_Charging>
3.88729e-08

> <r_epik_Ionization_Penalty_Neutral>
1.8599e-06

> <r_epik_State_Penalty>
-0

> <r_epik_Charging_Adjusted_Penalty>
3.88729e-08

> <i_epik_Tot_Q>
0

> <i_epik_Tot_abs_Q>
0

> <r_epik_Metal_State_Penalty>
-0

> <b_epik_Metal_Only>
0

> <s_epik_Chemistry_Notes>
This compound contains an acetal/aminal-like group ( X-CH(R)-Y where X, Y are N, S, or O) that may be acid/base labile, releasing an aldehyde.

> <s_lp_Force_Field>
OPLS_2005

> <r_lp_Energy>
40.0565

> <b_lp_Chiralities_Consistent>
1

> <s_lp_Variant>
AV-unprocessed.smi:135-1

> <Gold.Version>
5.8.1

> <Gold.Id.Protein>
6NUR|6NUR_protein|mol2

> <Gold.PLP.Fitness>
50.2226

> <Gold.PLP.PLP>
-44.7889

> <Gold.PLP.part.hbond>
-2.0000

> <Gold.PLP.part.metal>
0.0000

> <Gold.PLP.part.buried>
-2.4249

> <Gold.PLP.part.nonpolar>
-42.4444

> <Gold.PLP.part.repulsive>
2.0487

> <Gold.PLP.ligand.clash>
0.0000

> <Gold.PLP.ligand.torsion>
0.3073

> <Gold.PLP.Chemscore.Hbond>
2.0000

> <Gold.PLP.Chemscore.CHOScore>
0.0000

> <Gold.PLP.Chemscore.Metal>
0.0000

> <Gold.Chemscore.Hbonds>
donor molecule, donor type, donor heavy atom, donor atom, acceptor molecule, acceptor atom, score
      L1  H    18    42       P1  7948  1.00
      P1  H 10752 10763       L1     6  1.00

> <Gold.PLP.Chemscore.Internal.Correction>
0.0483

> <Gold.Rescore>
     Score         DG    S(hbond)    S(metal)    S(lipo)     H(rot)  DE(clash)    DE(int)     intcor
     14.88     -17.33       1.70        0.00      97.38       2.04       0.65       1.79       ----

> <Gold.Chemscore.Fitness>
14.8838

> <Gold.Chemscore.DG>
-17.3257

> <Gold.Chemscore.ZeroCoef>
-5.4800

> <Gold.Chemscore.Hbond>
1.6971

> <Gold.Chemscore.Metal>
0.0000

> <Gold.Chemscore.Lipo>
97.3841

> <Gold.Chemscore.Internal_Hbond>
0.0000

> <Gold.Chemscore.DEClash>
0.6549

> <Gold.Chemscore.DEInternal>
1.7871

> <Gold.Chemscore.Rot>
2.0377

> <Gold.Chemscore.Internal.Correction>
   9.000000E+99

> <Gold.Chemscore.Hbonds>
donor molecule, donor type, donor heavy atom, donor atom, acceptor molecule, acceptor atom, score
      L1  H    18    42       P1  7948  0.35
      P1  H 10752 10763       L1     6  1.00

> <Gold.Chemscore.Hbond.Weighted>
-5.6683

> <Gold.Chemscore.Metal.Weighted>
-0.0000

> <Gold.Chemscore.Lipo.Weighted>
-11.3939

> <Gold.Chemscore.Internal_Hbond.Weighted>
0.0000

> <Gold.Chemscore.DEClash.Weighted>
0.6549

> <Gold.Chemscore.DEInternal.Weighted>
1.7871

> <Gold.Chemscore.Rot.Weighted>
5.2165

> <Gold.Chemscore.Internal.Correction.Weighted>
   9.000000E+99

> <Gold.Protein.RotatedTorsions>
[ 6907 6896 6895 6894 ] final   96.03 input  -60.11 | X-H torsion
[ 7974 7965 7964 7962 ] final -124.48 input  175.53 | X-H torsion
[ 8008 7997 7996 7995 ] final   65.24 input   59.86 | X-H torsion
[ 10167 10162 10161 10158 ] final  -48.10 input  -65.29 | X-H torsion
[ 10718 10713 10712 10709 ] final  -67.38 input   66.30 | X-H torsion
[ 10763 10752 10751 10750 ] final   46.33 input  -60.55 | X-H torsion
[ 11005 11000 10999 10996 ] final  -30.78 input  -57.11 | X-H torsion

> <Gold.Protein.ActiveResidues>
 VAL166  LYS551  ARG553  GLY616  TRP617  ASP618  TYR619  PRO620  LYS621  CYS622 
 ASP623  PHE694  ASN695  SER759  ASP760  ASP761  ALA762  ILE779  LEU786  VAL792 
 PHE793  MET794  SER795  GLU796  ALA797  LYS798  CYS799  TRP800  GLU811  SER814 

> <Gold.Protein.RotatedAtoms>
  152.5439  134.0949  159.8292 H   0  0  0  0  0  0  0  0  0  0  0  0  # atno 6907 bound_to 6896
  151.1033  133.5219  159.2616 H   0  0  0  0  0  0  0  0  0  0  0  0  # atno 6908 bound_to 6896
  151.1966  135.0434  159.8909 H   0  0  0  0  0  0  0  0  0  0  0  0  # atno 6909 bound_to 6896
  145.0077  140.7877  143.4458 H   0  0  0  0  0  0  0  0  0  0  0  0  # atno 7974 bound_to 7965
  155.6587  140.3497  155.4774 H   0  0  0  0  0  0  0  0  0  0  0  0  # atno 8008 bound_to 7997
  155.9787  140.1170  157.0769 H   0  0  0  0  0  0  0  0  0  0  0  0  # atno 8009 bound_to 7997
  154.4185  140.1142  156.5392 H   0  0  0  0  0  0  0  0  0  0  0  0  # atno 8010 bound_to 7997
  140.6746  143.2755  151.4022 H   0  0  0  0  0  0  0  0  0  0  0  0  # atno 10167 bound_to 10162
  156.0561  130.4277  150.1846 H   0  0  0  0  0  0  0  0  0  0  0  0  # atno 10718 bound_to 10713
  152.9812  135.6011  154.3582 H   0  0  0  0  0  0  0  0  0  0  0  0  # atno 10763 bound_to 10752
  154.3266  135.2769  155.2495 H   0  0  0  0  0  0  0  0  0  0  0  0  # atno 10764 bound_to 10752
  154.4637  135.5959  153.6329 H   0  0  0  0  0  0  0  0  0  0  0  0  # atno 10765 bound_to 10752
  140.9412  133.7278  156.1078 H   0  0  0  0  0  0  0  0  0  0  0  0  # atno 11005 bound_to 11000
  145.2066  139.2225  143.5165 LP  0  0  0  0  0  0  0  0  0  0  0  0  # atno 17320 bound_to 7965
  146.3464  140.1895  142.8589 LP  0  0  0  0  0  0  0  0  0  0  0  0  # atno 17321 bound_to 7965
  139.6031  144.1253  152.2220 LP  0  0  0  0  0  0  0  0  0  0  0  0  # atno 17342 bound_to 10162
  140.0643  144.5831  150.7239 LP  0  0  0  0  0  0  0  0  0  0  0  0  # atno 17343 bound_to 10162
  156.9922  130.9897  151.3412 LP  0  0  0  0  0  0  0  0  0  0  0  0  # atno 17370 bound_to 10713
  157.5531  130.8195  149.8170 LP  0  0  0  0  0  0  0  0  0  0  0  0  # atno 17371 bound_to 10713
  140.7731  134.3810  157.5503 LP  0  0  0  0  0  0  0  0  0  0  0  0  # atno 17394 bound_to 11000
  139.8821  134.9035  156.2856 LP  0  0  0  0  0  0  0  0  0  0  0  0  # atno 17395 bound_to 11000

$$$$
