AV-unprocessed.smi:652|AV-procd|sdf|3197|dock7
  -GOLD-   22720 0123D 1   1.00000     0.00000
 Structure written by MMmdl.
 47 48  0  0  0  0  0  0  0  0  1 V2000
  153.6976  141.2897  160.9852 C   0  0  0  0  0  0  0  0  0  0  0  0
  153.0949  142.5879  160.4265 C   0  0  0  0  0  0  0  0  0  0  0  0
  152.5283  143.4783  161.5405 C   0  0  0  0  0  0  0  0  0  0  0  0
  152.0396  142.2880  159.4636 N   0  0  0  0  0  0  0  0  0  0  0  0
  152.1005  141.3468  158.5086 C   0  0  0  0  0  0  0  0  0  0  0  0
  153.0638  140.5954  158.3560 O   0  0  0  0  0  0  0  0  0  0  0  0
  150.8873  141.2377  157.5790 C   0  0  0  0  0  0  0  0  0  0  0  0
  151.2453  141.4381  156.0909 C   0  0  0  0  0  0  0  0  0  0  0  0
  150.7596  140.4044  155.1741 N   0  0  0  0  0  0  0  0  0  0  0  0
  149.3380  140.5449  154.8698 C   0  0  0  0  0  0  0  0  0  0  0  0
  148.8481  139.4474  153.9096 C   0  0  0  0  0  0  0  0  0  0  0  0
  149.1242  138.1635  154.4604 O   0  0  0  0  0  0  0  0  0  0  0  0
  150.5067  137.9682  154.7488 C   0  0  2  0  0  0  0  0  0  0  0  0
  150.7170  136.5426  155.2831 C   0  0  0  0  0  0  0  0  0  0  0  0
  150.0417  135.5389  154.4724 N   0  0  0  0  0  0  0  0  0  0  0  0
  150.1906  134.1738  154.7474 C   0  0  0  0  0  0  0  0  0  0  0  0
  149.6464  133.1608  153.9246 C   0  0  0  0  0  0  0  0  0  0  0  0
  149.8652  131.8258  154.3061 C   0  0  0  0  0  0  0  0  0  0  0  0
  150.6090  131.6023  155.4786 C   0  0  0  0  0  0  0  0  0  0  0  0
  151.1058  132.6113  156.2284 N   0  0  0  0  0  0  0  0  0  0  0  0
  150.8972  133.8819  155.8644 N   0  0  0  0  0  0  0  0  0  0  0  0
  151.0014  139.0700  155.7094 C   0  0  0  0  0  0  0  0  0  0  0  0
  154.4935  141.5043  161.6990 H   0  0  0  0  0  0  0  0  0  0  0  0
  154.1272  140.6785  160.1909 H   0  0  0  0  0  0  0  0  0  0  0  0
  152.9446  140.6897  161.4971 H   0  0  0  0  0  0  0  0  0  0  0  0
  153.8855  143.1495  159.9255 H   0  0  0  0  0  0  0  0  0  0  0  0
  153.3027  143.7459  162.2597 H   0  0  0  0  0  0  0  0  0  0  0  0
  151.7285  142.9749  162.0849 H   0  0  0  0  0  0  0  0  0  0  0  0
  152.1229  144.4056  161.1340 H   0  0  0  0  0  0  0  0  0  0  0  0
  151.2054  142.8547  159.5139 H   0  0  0  0  0  0  0  0  0  0  0  0
  150.4498  140.2480  157.7120 H   0  0  0  0  0  0  0  0  0  0  0  0
  150.1160  141.9462  157.8836 H   0  0  0  0  0  0  0  0  0  0  0  0
  150.8399  142.4025  155.7808 H   0  0  0  0  0  0  0  0  0  0  0  0
  152.3277  141.5323  155.9940 H   0  0  0  0  0  0  0  0  0  0  0  0
  148.7559  140.5055  155.7917 H   0  0  0  0  0  0  0  0  0  0  0  0
  149.1426  141.5161  154.4165 H   0  0  0  0  0  0  0  0  0  0  0  0
  147.7747  139.5405  153.7433 H   0  0  0  0  0  0  0  0  0  0  0  0
  149.3320  139.5443  152.9366 H   0  0  0  0  0  0  0  0  0  0  0  0
  151.0598  138.0521  153.8114 H   0  0  0  0  0  0  0  0  0  0  0  0
  151.7837  136.3175  155.3152 H   0  0  0  0  0  0  0  0  0  0  0  0
  150.3448  136.4845  156.3066 H   0  0  0  0  0  0  0  0  0  0  0  0
  149.6230  135.8241  153.5987 H   0  0  0  0  0  0  0  0  0  0  0  0
  149.0826  133.3813  153.0309 H   0  0  0  0  0  0  0  0  0  0  0  0
  149.4778  131.0041  153.7223 H   0  0  0  0  0  0  0  0  0  0  0  0
  150.8094  130.5984  155.8222 H   0  0  0  0  0  0  0  0  0  0  0  0
  152.0681  138.9349  155.8925 H   0  0  0  0  0  0  0  0  0  0  0  0
  150.5046  138.9696  156.6755 H   0  0  0  0  0  0  0  0  0  0  0  0
  1  2  1  0  0  0  0
  1 23  1  0  0  0  0
  1 24  1  0  0  0  0
  1 25  1  0  0  0  0
  2  3  1  0  0  0  0
  2  4  1  0  0  0  0
  2 26  1  0  0  0  0
  3 27  1  0  0  0  0
  3 28  1  0  0  0  0
  3 29  1  0  0  0  0
  4  5  1  0  0  0  0
  4 30  1  0  0  0  0
  5  6  2  0  0  0  0
  5  7  1  0  0  0  0
  7  8  1  0  0  0  0
  7 31  1  0  0  0  0
  7 32  1  0  0  0  0
  8  9  1  0  0  0  0
  8 33  1  0  0  0  0
  8 34  1  0  0  0  0
  9 22  1  0  0  0  0
  9 10  1  0  0  0  0
 10 11  1  0  0  0  0
 10 35  1  0  0  0  0
 10 36  1  0  0  0  0
 11 12  1  0  0  0  0
 11 37  1  0  0  0  0
 11 38  1  0  0  0  0
 12 13  1  0  0  0  0
 13 14  1  0  0  0  0
 13 22  1  0  0  0  0
 13 39  1  0  0  0  0
 14 15  1  0  0  0  0
 14 40  1  0  0  0  0
 14 41  1  0  0  0  0
 15 16  1  0  0  0  0
 15 42  1  0  0  0  0
 16 21  1  0  0  0  0
 16 17  2  0  0  0  0
 17 18  1  0  0  0  0
 17 43  1  0  0  0  0
 18 19  2  0  0  0  0
 18 44  1  0  0  0  0
 19 20  1  0  0  0  0
 19 45  1  0  0  0  0
 20 21  2  0  0  0  0
 22 46  1  0  0  0  0
 22 47  1  0  0  0  0
M  END
> <s_m_source_file>
AV-unprocessed.smi

> <i_m_source_file_index>
652

> <i_lp_mmshare_version>
43012

> <i_f3d_flags>
0

> <s_epik_input>
W0NIM11bQ0hdKFtDSDNdKVtOSF1DKD1PKVtDSDJdW0NIMl1OMVtDSDJdW0NIMl1PW0NASF0oW0NIMl0xKVtDSDJdW05IXWMyW2NIXVtjSF1bY0hdbm4y

> <s_epik_cmdline>
J2VwaWtfcHl0aG9uJywgJy1waCcsICc3LjAnLCAnLXRuJywgJzgnLCAnLW1hJywgJzIwMCcsICctbWV0YWxfYmluZGluZycsICctaW1hZScsICc8aW5maWxlLm1hZT4nLCAnLW9tYWUnLCAnPG91dGZpbGUubWFlPic=

> <r_lp_tautomer_probability>
0.999978

> <r_epik_Ionization_Penalty>
0.428793

> <r_epik_Ionization_Penalty_Charging>
0

> <r_epik_Ionization_Penalty_Neutral>
0.428793

> <r_epik_State_Penalty>
0.437051

> <r_epik_Charging_Adjusted_Penalty>
0.437051

> <i_epik_Tot_Q>
0

> <i_epik_Tot_abs_Q>
0

> <r_epik_Metal_State_Penalty>
0.432371

> <b_epik_Metal_Only>
0

> <s_lp_Force_Field>
OPLS_2005

> <r_lp_Energy>
25.2897

> <b_lp_Chiralities_Consistent>
1

> <s_lp_Variant>
AV-unprocessed.smi:652-6

> <Gold.Version>
5.8.1

> <Gold.Id.Protein>
6NUR|6NUR_protein|mol2

> <Gold.PLP.Fitness>
48.1640

> <Gold.PLP.PLP>
-40.6566

> <Gold.PLP.part.hbond>
-3.2990

> <Gold.PLP.part.metal>
0.0000

> <Gold.PLP.part.buried>
-4.3910

> <Gold.PLP.part.nonpolar>
-33.2348

> <Gold.PLP.part.repulsive>
0.4069

> <Gold.PLP.ligand.clash>
0.0000

> <Gold.PLP.ligand.torsion>
0.7540

> <Gold.PLP.Chemscore.Hbond>
2.9760

> <Gold.PLP.Chemscore.CHOScore>
0.0000

> <Gold.PLP.Chemscore.Metal>
0.0000

> <Gold.Chemscore.Hbonds>
donor molecule, donor type, donor heavy atom, donor atom, acceptor molecule, acceptor atom, score
      L1  H    15    42       P1  7948  0.95
      P1  H  7989  7998       L1     9  1.00
      P1  H  7997  8008       L1     6  0.64

> <Gold.PLP.Chemscore.Internal.Correction>
0.0874

> <Gold.Rescore>
     Score         DG    S(hbond)    S(metal)    S(lipo)     H(rot)  DE(clash)    DE(int)     intcor
     14.19     -16.32       1.76        0.00      90.48       2.20       0.30       1.83       ----

> <Gold.Chemscore.Fitness>
14.1876

> <Gold.Chemscore.DG>
-16.3220

> <Gold.Chemscore.ZeroCoef>
-5.4800

> <Gold.Chemscore.Hbond>
1.7638

> <Gold.Chemscore.Metal>
0.0000

> <Gold.Chemscore.Lipo>
90.4823

> <Gold.Chemscore.Internal_Hbond>
0.0000

> <Gold.Chemscore.DEClash>
0.3016

> <Gold.Chemscore.DEInternal>
1.8328

> <Gold.Chemscore.Rot>
2.2013

> <Gold.Chemscore.Internal.Correction>
   9.000000E+99

> <Gold.Chemscore.Hbonds>
donor molecule, donor type, donor heavy atom, donor atom, acceptor molecule, acceptor atom, score
      L1  H    15    42       P1  7948  0.22
      P1  H  7989  7998       L1     9  0.14
      P1  H  7997  8008       L1     6  0.64

> <Gold.Chemscore.Hbond.Weighted>
-5.8910

> <Gold.Chemscore.Metal.Weighted>
-0.0000

> <Gold.Chemscore.Lipo.Weighted>
-10.5864

> <Gold.Chemscore.Internal_Hbond.Weighted>
0.0000

> <Gold.Chemscore.DEClash.Weighted>
0.3016

> <Gold.Chemscore.DEInternal.Weighted>
1.8328

> <Gold.Chemscore.Rot.Weighted>
5.6354

> <Gold.Chemscore.Internal.Correction.Weighted>
   9.000000E+99

> <Gold.Protein.RotatedTorsions>
[ 6907 6896 6895 6894 ] final -120.41 input  -60.11 | X-H torsion
[ 7974 7965 7964 7962 ] final  135.22 input  175.53 | X-H torsion
[ 8008 7997 7996 7995 ] final  -86.68 input   59.86 | X-H torsion
[ 10167 10162 10161 10158 ] final -123.05 input  -65.29 | X-H torsion
[ 10718 10713 10712 10709 ] final  -72.65 input   66.30 | X-H torsion
[ 10763 10752 10751 10750 ] final -120.16 input  -60.55 | X-H torsion
[ 11005 11000 10999 10996 ] final   22.67 input  -57.11 | X-H torsion

> <Gold.Protein.ActiveResidues>
 VAL166  LYS551  ARG553  GLY616  TRP617  ASP618  TYR619  PRO620  LYS621  CYS622 
 ASP623  PHE694  ASN695  SER759  ASP760  ASP761  ALA762  ILE779  LEU786  VAL792 
 PHE793  MET794  SER795  GLU796  ALA797  LYS798  CYS799  TRP800  GLU811  SER814 

> <Gold.Protein.RotatedAtoms>
  150.8390  133.7966  159.3067 H   0  0  0  0  0  0  0  0  0  0  0  0  # atno 6907 bound_to 6896
  151.5673  135.1062  159.9996 H   0  0  0  0  0  0  0  0  0  0  0  0  # atno 6908 bound_to 6896
  152.4457  133.7490  159.6740 H   0  0  0  0  0  0  0  0  0  0  0  0  # atno 6909 bound_to 6896
  144.9685  139.4632  143.5445 H   0  0  0  0  0  0  0  0  0  0  0  0  # atno 7974 bound_to 7965
  154.6546  140.0575  156.9994 H   0  0  0  0  0  0  0  0  0  0  0  0  # atno 8008 bound_to 7997
  155.1320  140.3257  155.4453 H   0  0  0  0  0  0  0  0  0  0  0  0  # atno 8009 bound_to 7997
  156.2591  140.1979  156.6439 H   0  0  0  0  0  0  0  0  0  0  0  0  # atno 8010 bound_to 7997
  140.0076  143.5475  152.2277 H   0  0  0  0  0  0  0  0  0  0  0  0  # atno 10167 bound_to 10162
  156.0311  130.4377  150.2625 H   0  0  0  0  0  0  0  0  0  0  0  0  # atno 10718 bound_to 10713
  154.8637  135.4213  154.2414 H   0  0  0  0  0  0  0  0  0  0  0  0  # atno 10763 bound_to 10752
  153.3379  135.6992  153.6898 H   0  0  0  0  0  0  0  0  0  0  0  0  # atno 10764 bound_to 10752
  153.5888  135.3559  155.2876 H   0  0  0  0  0  0  0  0  0  0  0  0  # atno 10765 bound_to 10752
  140.3780  134.1951  155.7664 H   0  0  0  0  0  0  0  0  0  0  0  0  # atno 11005 bound_to 11000
  146.3375  139.8881  142.8813 LP  0  0  0  0  0  0  0  0  0  0  0  0  # atno 17320 bound_to 7965
  145.2594  141.0072  143.3835 LP  0  0  0  0  0  0  0  0  0  0  0  0  # atno 17321 bound_to 7965
  139.6227  144.7632  151.2705 LP  0  0  0  0  0  0  0  0  0  0  0  0  # atno 17342 bound_to 10162
  140.7394  143.6619  150.8157 LP  0  0  0  0  0  0  0  0  0  0  0  0  # atno 17343 bound_to 10162
  157.0727  131.0121  151.3184 LP  0  0  0  0  0  0  0  0  0  0  0  0  # atno 17370 bound_to 10713
  157.4987  130.7866  149.7582 LP  0  0  0  0  0  0  0  0  0  0  0  0  # atno 17371 bound_to 10713
  141.1933  133.8154  157.0805 LP  0  0  0  0  0  0  0  0  0  0  0  0  # atno 17394 bound_to 11000
  140.0500  134.9810  157.1119 LP  0  0  0  0  0  0  0  0  0  0  0  0  # atno 17395 bound_to 11000

$$$$
