AV-unprocessed.smi:544|AV-procd|sdf|2880|dock4
  -GOLD-   2262023373D 1   1.00000     0.00000
 Structure written by MMmdl.
 48 50  0  0  0  0  0  0  0  0  2 V2000
  151.9620  131.8896  156.7271 C   0  0  0  0  0  0  0  0  0  0  0  0
  150.6744  131.6279  157.5116 C   0  0  0  0  0  0  0  0  0  0  0  0
  150.1012  132.8743  157.8626 O   0  0  0  0  0  0  0  0  0  0  0  0
  149.9105  133.7387  156.7566 C   0  0  0  0  0  0  0  0  0  0  0  0
  148.7746  134.7462  157.0339 C   0  0  0  0  0  0  0  0  0  0  0  0
  149.2463  135.9969  157.6293 N   0  0  0  0  0  0  0  0  0  0  0  0
  148.9116  136.5680  158.8273 C   0  0  0  0  0  0  0  0  0  0  0  0
  148.0312  136.0029  159.7678 N   0  0  0  0  0  0  0  0  0  0  0  0
  147.3409  134.7107  159.7439 C   0  0  0  0  0  0  0  0  0  0  0  0
  147.6561  133.8707  160.9944 C   0  0  0  0  0  0  0  0  0  0  0  0
  147.2470  134.6278  162.2636 C   0  0  0  0  0  0  0  0  0  0  0  0
  147.8557  136.0397  162.2563 C   0  0  2  0  0  0  0  0  0  0  0  0
  147.3832  136.8619  163.4627 C   0  0  0  0  0  0  0  0  0  0  0  0
  147.5264  136.7485  160.9262 C   0  0  0  0  0  0  0  0  0  0  0  0
  149.5426  137.7201  159.0701 N   0  0  0  0  0  0  0  0  0  0  0  0
  150.3490  137.8954  157.9612 C   0  0  0  0  0  0  0  0  0  0  0  0
  150.2159  136.8596  157.0923 C   0  0  0  0  0  0  0  0  0  0  0  0
  151.0100  136.7393  155.8440 C   0  0  0  0  0  0  0  0  0  0  0  0
  150.9168  135.7524  155.1173 O   0  0  0  0  0  0  0  0  0  0  0  0
  151.8268  137.8206  155.6401 N   0  5  0  0  0  0  0  0  0  0  0  0
  151.9721  138.8970  156.4871 C   0  0  0  0  0  0  0  0  0  0  0  0
  152.7323  139.8309  156.2277 O   0  0  0  0  0  0  0  0  0  0  0  0
  151.2586  138.9436  157.6546 N   0  0  0  0  0  0  0  0  0  0  0  0
  151.4059  140.0672  158.5844 C   0  0  0  0  0  0  0  0  0  0  0  0
  152.4388  130.9537  156.4351 H   0  0  0  0  0  0  0  0  0  0  0  0
  152.6748  132.4570  157.3267 H   0  0  0  0  0  0  0  0  0  0  0  0
  151.7585  132.4602  155.8205 H   0  0  0  0  0  0  0  0  0  0  0  0
  149.9770  131.0495  156.9037 H   0  0  0  0  0  0  0  0  0  0  0  0
  150.8947  131.0480  158.4090 H   0  0  0  0  0  0  0  0  0  0  0  0
  150.8499  134.2505  156.5548 H   0  0  0  0  0  0  0  0  0  0  0  0
  149.6659  133.1532  155.8694 H   0  0  0  0  0  0  0  0  0  0  0  0
  148.2172  134.9592  156.1260 H   0  0  0  0  0  0  0  0  0  0  0  0
  148.0340  134.2981  157.6942 H   0  0  0  0  0  0  0  0  0  0  0  0
  146.2664  134.8913  159.6890 H   0  0  0  0  0  0  0  0  0  0  0  0
  147.5750  134.1493  158.8484 H   0  0  0  0  0  0  0  0  0  0  0  0
  147.1317  132.9163  160.9452 H   0  0  0  0  0  0  0  0  0  0  0  0
  148.7207  133.6391  161.0328 H   0  0  0  0  0  0  0  0  0  0  0  0
  146.1594  134.6948  162.3097 H   0  0  0  0  0  0  0  0  0  0  0  0
  147.5650  134.0778  163.1497 H   0  0  0  0  0  0  0  0  0  0  0  0
  148.9405  135.9439  162.3262 H   0  0  0  0  0  0  0  0  0  0  0  0
  146.3006  136.9919  163.4543 H   0  0  0  0  0  0  0  0  0  0  0  0
  147.8368  137.8531  163.4630 H   0  0  0  0  0  0  0  0  0  0  0  0
  147.6534  136.3748  164.3998 H   0  0  0  0  0  0  0  0  0  0  0  0
  147.9586  137.7490  160.9473 H   0  0  0  0  0  0  0  0  0  0  0  0
  146.4490  136.8879  160.8255 H   0  0  0  0  0  0  0  0  0  0  0  0
  152.4434  140.1635  158.9070 H   0  0  0  0  0  0  0  0  0  0  0  0
  150.7972  139.9556  159.4813 H   0  0  0  0  0  0  0  0  0  0  0  0
  151.1099  141.0004  158.1035 H   0  0  0  0  0  0  0  0  0  0  0  0
  1  2  1  0  0  0  0
  1 25  1  0  0  0  0
  1 26  1  0  0  0  0
  1 27  1  0  0  0  0
  2  3  1  0  0  0  0
  2 28  1  0  0  0  0
  2 29  1  0  0  0  0
  3  4  1  0  0  0  0
  4  5  1  0  0  0  0
  4 30  1  0  0  0  0
  4 31  1  0  0  0  0
  5  6  1  0  0  0  0
  5 32  1  0  0  0  0
  5 33  1  0  0  0  0
  6 17  1  0  0  0  0
  6  7  1  0  0  0  0
  7  8  1  0  0  0  0
  7 15  2  0  0  0  0
  8 14  1  0  0  0  0
  8  9  1  0  0  0  0
  9 10  1  0  0  0  0
  9 34  1  0  0  0  0
  9 35  1  0  0  0  0
 10 11  1  0  0  0  0
 10 36  1  0  0  0  0
 10 37  1  0  0  0  0
 11 12  1  0  0  0  0
 11 38  1  0  0  0  0
 11 39  1  0  0  0  0
 12 13  1  0  0  0  0
 12 14  1  0  0  0  0
 12 40  1  0  0  0  0
 13 41  1  0  0  0  0
 13 42  1  0  0  0  0
 13 43  1  0  0  0  0
 14 44  1  0  0  0  0
 14 45  1  0  0  0  0
 15 16  1  0  0  0  0
 16 23  1  0  0  0  0
 16 17  2  0  0  0  0
 17 18  1  0  0  0  0
 18 19  2  0  0  0  0
 18 20  1  0  0  0  0
 20 21  1  0  0  0  0
 21 22  2  0  0  0  0
 21 23  1  0  0  0  0
 23 24  1  0  0  0  0
 24 46  1  0  0  0  0
 24 47  1  0  0  0  0
 24 48  1  0  0  0  0
M  CHG  1  20  -1
M  END
> <s_m_source_file>
AV-unprocessed.smi

> <i_m_source_file_index>
544

> <i_lp_mmshare_version>
43012

> <i_f3d_flags>
0

> <s_epik_input>
W0NIM11uMWMoPU8pW25IXWMoPU8pYyhjMTIpbihbQ0gyXVtDSDJdT1tDSDJdW0NIM10pYyhuMilOM1tDSDJdW0NIMl1bQ0gyXVtDQEBIXShbQ0gzXSlbQ0gyXTM=

> <s_epik_cmdline>
J2VwaWtfcHl0aG9uJywgJy1waCcsICc3LjAnLCAnLXRuJywgJzgnLCAnLW1hJywgJzIwMCcsICctbWV0YWxfYmluZGluZycsICctaW1hZScsICc8aW5maWxlLm1hZT4nLCAnLW9tYWUnLCAnPG91dGZpbGUubWFlPic=

> <r_lp_tautomer_probability>
1

> <r_epik_Ionization_Penalty>
5.1213

> <r_epik_Ionization_Penalty_Charging>
0.0741877

> <r_epik_Ionization_Penalty_Neutral>
5.04711

> <r_epik_State_Penalty>
5.04142

> <r_epik_Charging_Adjusted_Penalty>
5.11561

> <i_epik_Tot_Q>
-1

> <i_epik_Tot_abs_Q>
1

> <r_epik_Metal_State_Penalty>
1.14934

> <b_epik_Metal_Only>
1

> <s_lp_Force_Field>
OPLS_2005

> <r_lp_Energy>
42.4298

> <b_lp_Chiralities_Consistent>
1

> <s_lp_Variant>
AV-unprocessed.smi:544-4

> <Gold.Version>
5.8.1

> <Gold.Id.Protein>
6NUR|6NUR_protein|mol2

> <Gold.PLP.Fitness>
41.4860

> <Gold.PLP.PLP>
-33.5330

> <Gold.PLP.part.hbond>
-3.0000

> <Gold.PLP.part.metal>
0.0000

> <Gold.PLP.part.buried>
-5.3353

> <Gold.PLP.part.nonpolar>
-25.7183

> <Gold.PLP.part.repulsive>
0.1655

> <Gold.PLP.ligand.clash>
0.0000

> <Gold.PLP.ligand.torsion>
0.3960

> <Gold.PLP.Chemscore.Hbond>
2.9000

> <Gold.PLP.Chemscore.CHOScore>
0.0000

> <Gold.PLP.Chemscore.Metal>
0.0000

> <Gold.Chemscore.Hbonds>
donor molecule, donor type, donor heavy atom, donor atom, acceptor molecule, acceptor atom, score
      P1  H  6896  6907       L1     3  1.00
      P1  H  7997  8009       L1    22  1.00
      P1  H 10752 10765       L1    19  0.78

> <Gold.PLP.Chemscore.Internal.Correction>
0.0450

> <Gold.Rescore>
     Score         DG    S(hbond)    S(metal)    S(lipo)     H(rot)  DE(clash)    DE(int)     intcor
     14.99     -17.80       2.61        0.00      64.78       1.55       0.35       2.46       ----

> <Gold.Chemscore.Fitness>
14.9861

> <Gold.Chemscore.DG>
-17.8035

> <Gold.Chemscore.ZeroCoef>
-5.4800

> <Gold.Chemscore.Hbond>
2.6111

> <Gold.Chemscore.Metal>
0.0000

> <Gold.Chemscore.Lipo>
64.7810

> <Gold.Chemscore.Internal_Hbond>
0.0000

> <Gold.Chemscore.DEClash>
0.3547

> <Gold.Chemscore.DEInternal>
2.4627

> <Gold.Chemscore.Rot>
1.5534

> <Gold.Chemscore.Internal.Correction>
   9.000000E+99

> <Gold.Chemscore.Hbonds>
donor molecule, donor type, donor heavy atom, donor atom, acceptor molecule, acceptor atom, score
      P1  H  6896  6907       L1     3  0.76
      P1  H  7997  8009       L1    22  0.99
      P1  H 10752 10765       L1    19  0.15

> <Gold.Chemscore.Hbond.Weighted>
-8.7210

> <Gold.Chemscore.Metal.Weighted>
-0.0000

> <Gold.Chemscore.Lipo.Weighted>
-7.5794

> <Gold.Chemscore.Internal_Hbond.Weighted>
0.0000

> <Gold.Chemscore.DEClash.Weighted>
0.3547

> <Gold.Chemscore.DEInternal.Weighted>
2.4627

> <Gold.Chemscore.Rot.Weighted>
3.9768

> <Gold.Chemscore.Internal.Correction.Weighted>
   9.000000E+99

> <Gold.Protein.RotatedTorsions>
[ 6907 6896 6895 6894 ] final -123.73 input  -60.11 | X-H torsion
[ 7974 7965 7964 7962 ] final  -94.35 input  175.53 | X-H torsion
[ 8008 7997 7996 7995 ] final -159.17 input   59.86 | X-H torsion
[ 10167 10162 10161 10158 ] final  101.69 input  -65.29 | X-H torsion
[ 10718 10713 10712 10709 ] final -165.51 input   66.30 | X-H torsion
[ 10763 10752 10751 10750 ] final -178.10 input  -60.55 | X-H torsion
[ 11005 11000 10999 10996 ] final  154.92 input  -57.11 | X-H torsion

> <Gold.Protein.ActiveResidues>
 VAL166  LYS551  ARG553  GLY616  TRP617  ASP618  TYR619  PRO620  LYS621  CYS622 
 ASP623  PHE694  ASN695  SER759  ASP760  ASP761  ALA762  ILE779  LEU786  VAL792 
 PHE793  MET794  SER795  GLU796  ALA797  LYS798  CYS799  TRP800  GLU811  SER814 

> <Gold.Protein.RotatedAtoms>
  150.8699  133.7520  159.2964 H   0  0  0  0  0  0  0  0  0  0  0  0  # atno 6907 bound_to 6896
  151.5136  135.1064  159.9870 H   0  0  0  0  0  0  0  0  0  0  0  0  # atno 6908 bound_to 6896
  152.4688  133.7937  159.6971 H   0  0  0  0  0  0  0  0  0  0  0  0  # atno 6909 bound_to 6896
  145.3745  140.9510  143.2428 H   0  0  0  0  0  0  0  0  0  0  0  0  # atno 7974 bound_to 7965
  155.7586  140.0836  157.2166 H   0  0  0  0  0  0  0  0  0  0  0  0  # atno 8008 bound_to 7997
  154.4005  140.1547  156.2863 H   0  0  0  0  0  0  0  0  0  0  0  0  # atno 8009 bound_to 7997
  155.8861  140.3418  155.5925 H   0  0  0  0  0  0  0  0  0  0  0  0  # atno 8010 bound_to 7997
  139.7416  144.7009  151.0567 H   0  0  0  0  0  0  0  0  0  0  0  0  # atno 10167 bound_to 10162
  156.6545  130.9021  151.3019 H   0  0  0  0  0  0  0  0  0  0  0  0  # atno 10718 bound_to 10713
  154.5519  135.2813  155.1000 H   0  0  0  0  0  0  0  0  0  0  0  0  # atno 10763 bound_to 10752
  154.2442  135.6351  153.5221 H   0  0  0  0  0  0  0  0  0  0  0  0  # atno 10764 bound_to 10752
  153.0005  135.5567  154.6088 H   0  0  0  0  0  0  0  0  0  0  0  0  # atno 10765 bound_to 10752
  140.1534  134.8659  157.2483 H   0  0  0  0  0  0  0  0  0  0  0  0  # atno 11005 bound_to 11000
  144.8552  139.5260  143.6838 LP  0  0  0  0  0  0  0  0  0  0  0  0  # atno 17320 bound_to 7965
  146.2870  139.7032  142.9188 LP  0  0  0  0  0  0  0  0  0  0  0  0  # atno 17321 bound_to 7965
  140.7786  143.4918  150.9884 LP  0  0  0  0  0  0  0  0  0  0  0  0  # atno 17342 bound_to 10162
  139.8606  143.7320  152.3173 LP  0  0  0  0  0  0  0  0  0  0  0  0  # atno 17343 bound_to 10162
  157.7130  130.9463  150.1155 LP  0  0  0  0  0  0  0  0  0  0  0  0  # atno 17370 bound_to 10713
  156.2058  130.3663  149.8731 LP  0  0  0  0  0  0  0  0  0  0  0  0  # atno 17371 bound_to 10713
  140.2577  134.3608  155.7418 LP  0  0  0  0  0  0  0  0  0  0  0  0  # atno 17394 bound_to 11000
  141.2201  133.7352  156.9032 LP  0  0  0  0  0  0  0  0  0  0  0  0  # atno 17395 bound_to 11000

$$$$
