AV-unprocessed.smi:1385|AV-procd|sdf|5630|dock4
  -GOLD-   22720 5243D 1   1.00000     0.00000
 Structure written by MMmdl.
 39 40  0  0  0  0  0  0  0  0  2 V2000
  153.1473  140.9088  159.6614 C   0  0  0  0  0  0  0  0  0  0  0  0
  152.5700  140.3610  158.4012 C   0  0  0  0  0  0  0  0  0  0  0  0
  153.0702  139.2836  157.7840 N   0  0  0  0  0  0  0  0  0  0  0  0
  152.3668  138.9638  156.6309 N   0  0  0  0  0  0  0  0  0  0  0  0
  151.3520  139.8115  156.4135 C   0  0  0  0  0  0  0  0  0  0  0  0
  150.4701  139.7186  155.3043 N   0  0  0  0  0  0  0  0  0  0  0  0
  149.3284  140.3955  155.0895 C   0  0  0  0  0  0  0  0  0  0  0  0
  148.8468  141.2402  155.8445 O   0  0  0  0  0  0  0  0  0  0  0  0
  148.7582  140.0303  153.9318 N   0  0  0  0  0  0  0  0  0  0  0  0
  147.5064  140.5695  153.4009 C   0  0  2  0  0  0  0  0  0  0  0  0
  146.3657  140.4932  154.4353 C   0  0  0  0  0  0  0  0  0  0  0  0
  145.9069  139.0452  154.6799 C   0  0  0  0  0  0  0  0  0  0  0  0
  145.5036  138.3889  153.4075 N   0  3  2  0  0  0  0  0  0  0  0  0
  144.9231  137.0359  153.6086 C   0  0  0  0  0  0  0  0  0  0  0  0
  143.3934  137.0218  153.5217 C   0  0  0  0  0  0  0  0  0  0  0  0
  142.7947  138.1834  153.2491 N   0  0  0  0  0  0  0  0  0  0  0  0
  142.7584  135.9861  153.7124 O   0  0  0  0  0  0  0  0  0  0  0  0
  146.6106  138.3894  152.4171 C   0  0  0  0  0  0  0  0  0  0  0  0
  147.0955  139.8208  152.1212 C   0  0  0  0  0  0  0  0  0  0  0  0
  151.1709  141.0802  157.6130 S   0  0  0  0  0  0  0  0  0  0  0  0
  154.1924  140.6150  159.7630 H   0  0  0  0  0  0  0  0  0  0  0  0
  152.5915  140.5313  160.5197 H   0  0  0  0  0  0  0  0  0  0  0  0
  153.0910  141.9975  159.6586 H   0  0  0  0  0  0  0  0  0  0  0  0
  150.7379  139.0525  154.5949 H   0  0  0  0  0  0  0  0  0  0  0  0
  149.2296  139.3350  153.3720 H   0  0  0  0  0  0  0  0  0  0  0  0
  147.6758  141.6159  153.1399 H   0  0  0  0  0  0  0  0  0  0  0  0
  146.6674  140.9542  155.3765 H   0  0  0  0  0  0  0  0  0  0  0  0
  145.5179  141.0774  154.0750 H   0  0  0  0  0  0  0  0  0  0  0  0
  146.7050  138.4704  155.1523 H   0  0  0  0  0  0  0  0  0  0  0  0
  145.0710  139.0514  155.3798 H   0  0  0  0  0  0  0  0  0  0  0  0
  145.2841  136.3618  152.8308 H   0  0  0  0  0  0  0  0  0  0  0  0
  145.2579  136.6219  154.5613 H   0  0  0  0  0  0  0  0  0  0  0  0
  141.7884  138.2326  153.1765 H   0  0  0  0  0  0  0  0  0  0  0  0
  143.3525  139.0146  153.1119 H   0  0  0  0  0  0  0  0  0  0  0  0
  147.4334  137.7765  152.7883 H   0  0  0  0  0  0  0  0  0  0  0  0
  146.2712  137.9315  151.4872 H   0  0  0  0  0  0  0  0  0  0  0  0
  146.2933  140.3721  151.6285 H   0  0  0  0  0  0  0  0  0  0  0  0
  147.9245  139.7978  151.4127 H   0  0  0  0  0  0  0  0  0  0  0  0
  144.7656  138.9518  153.0080 H   0  0  0  0  0  0  0  0  0  0  0  0
  1  2  1  0  0  0  0
  1 21  1  0  0  0  0
  1 22  1  0  0  0  0
  1 23  1  0  0  0  0
  2 20  1  0  0  0  0
  2  3  2  0  0  0  0
  3  4  1  0  0  0  0
  4  5  2  0  0  0  0
  5  6  1  0  0  0  0
  5 20  1  0  0  0  0
  6  7  1  0  0  0  0
  6 24  1  0  0  0  0
  7  8  2  0  0  0  0
  7  9  1  0  0  0  0
  9 10  1  0  0  0  0
  9 25  1  0  0  0  0
 10 19  1  0  0  0  0
 10 11  1  0  0  0  0
 10 26  1  0  0  0  0
 11 12  1  0  0  0  0
 11 27  1  0  0  0  0
 11 28  1  0  0  0  0
 12 13  1  0  0  0  0
 12 29  1  0  0  0  0
 12 30  1  0  0  0  0
 13 14  1  0  0  0  0
 13 18  1  0  0  0  0
 13 39  1  0  0  0  0
 14 15  1  0  0  0  0
 14 31  1  0  0  0  0
 14 32  1  0  0  0  0
 15 16  1  0  0  0  0
 15 17  2  0  0  0  0
 16 33  1  0  0  0  0
 16 34  1  0  0  0  0
 18 19  1  0  0  0  0
 18 35  1  0  0  0  0
 18 36  1  0  0  0  0
 19 37  1  0  0  0  0
 19 38  1  0  0  0  0
M  CHG  1  13   1
M  END
> <s_m_source_file>
AV-unprocessed.smi

> <i_m_source_file_index>
1385

> <i_lp_mmshare_version>
43012

> <i_f3d_flags>
0

> <s_epik_input>
W0NIM11jMW5uYyhzMSlbTkhdQyg9TylbTkhdW0NIXTJbQ0gyXVtDSDJdTihbQ0gyXVtDSDJdMilbQ0gyXUMoPU8pW05IMl0=

> <s_epik_cmdline>
J2VwaWtfcHl0aG9uJywgJy1waCcsICc3LjAnLCAnLXRuJywgJzgnLCAnLW1hJywgJzIwMCcsICctbWV0YWxfYmluZGluZycsICctaW1hZScsICc8aW5maWxlLm1hZT4nLCAnLW9tYWUnLCAnPG91dGZpbGUubWFlPic=

> <r_lp_tautomer_probability>
1

> <r_epik_Ionization_Penalty>
0.866317

> <r_epik_Ionization_Penalty_Charging>
0.862349

> <r_epik_Ionization_Penalty_Neutral>
0.00396799

> <r_epik_State_Penalty>
0.898939

> <r_epik_Charging_Adjusted_Penalty>
1.76129

> <i_epik_Tot_Q>
1

> <i_epik_Tot_abs_Q>
1

> <r_epik_Metal_State_Penalty>
1.25402

> <b_epik_Metal_Only>
0

> <s_lp_Force_Field>
OPLS_2005

> <r_lp_Energy>
11.903

> <b_lp_Chiralities_Consistent>
1

> <s_lp_Variant>
AV-unprocessed.smi:1385-3

> <Gold.Version>
5.8.1

> <Gold.Id.Protein>
6NUR|6NUR_protein|mol2

> <Gold.PLP.Fitness>
41.2041

> <Gold.PLP.PLP>
-28.1077

> <Gold.PLP.part.hbond>
-5.6811

> <Gold.PLP.part.metal>
0.0000

> <Gold.PLP.part.buried>
-1.0772

> <Gold.PLP.part.nonpolar>
-23.7970

> <Gold.PLP.part.repulsive>
0.9079

> <Gold.PLP.ligand.clash>
0.0000

> <Gold.PLP.ligand.torsion>
0.7103

> <Gold.PLP.Chemscore.Hbond>
4.8320

> <Gold.PLP.Chemscore.CHOScore>
0.0000

> <Gold.PLP.Chemscore.Metal>
0.0000

> <Gold.Chemscore.Hbonds>
donor molecule, donor type, donor heavy atom, donor atom, acceptor molecule, acceptor atom, score
      L1  H     9    25       P1  7957  0.05
      L1  H    13    39       P1 10175  2.00
      L1  H    16    34       P1 10175  1.00
      P1  H  7997  8008       L1     3  0.45

> <Gold.PLP.Chemscore.Internal.Correction>
0.0209

> <Gold.Rescore>
     Score         DG    S(hbond)    S(metal)    S(lipo)     H(rot)  DE(clash)    DE(int)     intcor
     12.45     -17.10       2.96        0.00      59.97       2.07       1.65       2.99       ----

> <Gold.Chemscore.Fitness>
12.4473

> <Gold.Chemscore.DG>
-17.0952

> <Gold.Chemscore.ZeroCoef>
-5.4800

> <Gold.Chemscore.Hbond>
2.9597

> <Gold.Chemscore.Metal>
0.0000

> <Gold.Chemscore.Lipo>
59.9675

> <Gold.Chemscore.Internal_Hbond>
0.0000

> <Gold.Chemscore.DEClash>
1.6549

> <Gold.Chemscore.DEInternal>
2.9930

> <Gold.Chemscore.Rot>
2.0650

> <Gold.Chemscore.Internal.Correction>
   9.000000E+99

> <Gold.Chemscore.Hbonds>
donor molecule, donor type, donor heavy atom, donor atom, acceptor molecule, acceptor atom, score
      L1  H     9    25       P1  7957  0.06
      L1  H    13    39       P1 10175  0.99
      L1  H    16    34       P1 10175  0.94

> <Gold.Chemscore.Hbond.Weighted>
-9.8854

> <Gold.Chemscore.Metal.Weighted>
-0.0000

> <Gold.Chemscore.Lipo.Weighted>
-7.0162

> <Gold.Chemscore.Internal_Hbond.Weighted>
0.0000

> <Gold.Chemscore.DEClash.Weighted>
1.6549

> <Gold.Chemscore.DEInternal.Weighted>
2.9930

> <Gold.Chemscore.Rot.Weighted>
5.2864

> <Gold.Chemscore.Internal.Correction.Weighted>
   9.000000E+99

> <Gold.Protein.RotatedTorsions>
[ 6907 6896 6895 6894 ] final  -18.83 input  -60.11 | X-H torsion
[ 7974 7965 7964 7962 ] final   14.20 input  175.53 | X-H torsion
[ 8008 7997 7996 7995 ] final  -63.08 input   59.86 | X-H torsion
[ 10167 10162 10161 10158 ] final -133.95 input  -65.29 | X-H torsion
[ 10718 10713 10712 10709 ] final  127.43 input   66.30 | X-H torsion
[ 10763 10752 10751 10750 ] final  -44.21 input  -60.55 | X-H torsion
[ 11005 11000 10999 10996 ] final   37.25 input  -57.11 | X-H torsion

> <Gold.Protein.ActiveResidues>
 VAL166  LYS551  ARG553  GLY616  TRP617  ASP618  TYR619  PRO620  LYS621  CYS622 
 ASP623  PHE694  ASN695  SER759  ASP760  ASP761  ALA762  ILE779  LEU786  VAL792 
 PHE793  MET794  SER795  GLU796  ALA797  LYS798  CYS799  TRP800  GLU811  SER814 

> <Gold.Protein.RotatedAtoms>
  151.2723  135.0688  159.9138 H   0  0  0  0  0  0  0  0  0  0  0  0  # atno 6907 bound_to 6896
  152.5348  134.0117  159.7952 H   0  0  0  0  0  0  0  0  0  0  0  0  # atno 6908 bound_to 6896
  151.0358  133.5700  159.2687 H   0  0  0  0  0  0  0  0  0  0  0  0  # atno 6909 bound_to 6896
  146.2311  139.9076  142.8529 H   0  0  0  0  0  0  0  0  0  0  0  0  # atno 7974 bound_to 7965
  154.4534  140.0982  156.6686 H   0  0  0  0  0  0  0  0  0  0  0  0  # atno 8008 bound_to 7997
  155.5213  140.3479  155.4389 H   0  0  0  0  0  0  0  0  0  0  0  0  # atno 8009 bound_to 7997
  156.0728  140.1354  156.9796 H   0  0  0  0  0  0  0  0  0  0  0  0  # atno 8010 bound_to 7997
  139.8930  143.6699  152.2609 H   0  0  0  0  0  0  0  0  0  0  0  0  # atno 10167 bound_to 10162
  157.5333  131.1098  150.8975 H   0  0  0  0  0  0  0  0  0  0  0  0  # atno 10718 bound_to 10713
  154.0084  135.6684  153.4763 H   0  0  0  0  0  0  0  0  0  0  0  0  # atno 10763 bound_to 10752
  153.0632  135.5016  154.8136 H   0  0  0  0  0  0  0  0  0  0  0  0  # atno 10764 bound_to 10752
  154.7011  135.3079  154.9304 H   0  0  0  0  0  0  0  0  0  0  0  0  # atno 10765 bound_to 10752
  140.2244  134.3602  155.7990 H   0  0  0  0  0  0  0  0  0  0  0  0  # atno 11005 bound_to 11000
  145.2262  140.9955  143.4017 LP  0  0  0  0  0  0  0  0  0  0  0  0  # atno 17320 bound_to 7965
  144.9569  139.4022  143.6375 LP  0  0  0  0  0  0  0  0  0  0  0  0  # atno 17321 bound_to 7965
  139.7093  144.7623  151.1140 LP  0  0  0  0  0  0  0  0  0  0  0  0  # atno 17342 bound_to 10162
  140.7723  143.5352  150.9376 LP  0  0  0  0  0  0  0  0  0  0  0  0  # atno 17343 bound_to 10162
  156.9550  130.5434  149.5284 LP  0  0  0  0  0  0  0  0  0  0  0  0  # atno 17370 bound_to 10713
  156.0439  130.5518  150.8835 LP  0  0  0  0  0  0  0  0  0  0  0  0  # atno 17371 bound_to 10713
  141.2221  133.7211  156.8629 LP  0  0  0  0  0  0  0  0  0  0  0  0  # atno 17394 bound_to 11000
  140.1815  134.9029  157.2954 LP  0  0  0  0  0  0  0  0  0  0  0  0  # atno 17395 bound_to 11000

$$$$
