AV-unprocessed.smi:2889|AV-procd|sdf|11109|dock4
  -GOLD-   2272015573D 1   1.00000     0.00000
 Structure written by MMmdl.
 36 37  0  0  0  0  0  0  0  0  1 V2000
  151.8715  144.4771  157.7970 C   0  0  0  0  0  0  0  0  0  0  0  0
  151.5370  144.6246  159.5730 S   0  0  0  0  0  0  0  0  0  0  0  0
  152.7994  143.5118  160.2725 C   0  0  1  0  0  0  0  0  0  0  0  0
  152.5039  143.2226  161.7565 C   0  0  0  0  0  0  0  0  0  0  0  0
  153.5638  142.3034  162.3804 C   0  0  0  0  0  0  0  0  0  0  0  0
  153.6820  140.9884  161.5985 C   0  0  0  0  0  0  0  0  0  0  0  0
  153.9948  141.2455  160.1156 C   0  0  0  0  0  0  0  0  0  0  0  0
  152.9841  142.2080  159.4557 C   0  0  1  0  0  0  0  0  0  0  0  0
  151.6958  141.5400  159.2236 N   0  0  0  0  0  0  0  0  0  0  0  0
  151.6236  140.1553  158.1932 S   0  0  0  0  0  0  0  0  0  0  0  0
  152.9830  139.8879  157.6971 O   0  0  0  0  0  0  0  0  0  0  0  0
  150.8803  139.1151  158.9203 O   0  0  0  0  0  0  0  0  0  0  0  0
  150.5817  140.7604  156.7950 C   0  0  0  0  0  0  0  0  0  0  0  0
  150.4410  139.6894  155.7504 C   0  0  0  0  0  0  0  0  0  0  0  0
  149.8635  138.3969  155.8862 C   0  0  0  0  0  0  0  0  0  0  0  0
  149.9930  137.8566  154.6397 C   0  0  0  0  0  0  0  0  0  0  0  0
  150.6082  138.7314  153.8048 O   0  0  0  0  0  0  0  0  0  0  0  0
  150.8954  139.8968  154.5245 N   0  0  0  0  0  0  0  0  0  0  0  0
  151.2535  145.1838  157.2436 H   0  0  0  0  0  0  0  0  0  0  0  0
  151.6380  143.4741  157.4405 H   0  0  0  0  0  0  0  0  0  0  0  0
  152.9184  144.6930  157.5840 H   0  0  0  0  0  0  0  0  0  0  0  0
  153.7415  144.0606  160.2347 H   0  0  0  0  0  0  0  0  0  0  0  0
  152.4603  144.1585  162.3144 H   0  0  0  0  0  0  0  0  0  0  0  0
  151.5203  142.7613  161.8541 H   0  0  0  0  0  0  0  0  0  0  0  0
  154.5289  142.8113  162.3938 H   0  0  0  0  0  0  0  0  0  0  0  0
  153.3085  142.0954  163.4198 H   0  0  0  0  0  0  0  0  0  0  0  0
  154.4610  140.3646  162.0372 H   0  0  0  0  0  0  0  0  0  0  0  0
  152.7522  140.4249  161.6847 H   0  0  0  0  0  0  0  0  0  0  0  0
  154.9910  141.6834  160.0425 H   0  0  0  0  0  0  0  0  0  0  0  0
  154.0468  140.3019  159.5720 H   0  0  0  0  0  0  0  0  0  0  0  0
  153.3900  142.4840  158.4833 H   0  0  0  0  0  0  0  0  0  0  0  0
  151.2052  141.3720  160.1015 H   0  0  0  0  0  0  0  0  0  0  0  0
  149.6071  141.0358  157.1987 H   0  0  0  0  0  0  0  0  0  0  0  0
  151.0349  141.6631  156.3862 H   0  0  0  0  0  0  0  0  0  0  0  0
  149.4168  137.9419  156.7577 H   0  0  0  0  0  0  0  0  0  0  0  0
  149.7125  136.9063  154.2100 H   0  0  0  0  0  0  0  0  0  0  0  0
  1  2  1  0  0  0  0
  1 19  1  0  0  0  0
  1 20  1  0  0  0  0
  1 21  1  0  0  0  0
  2  3  1  0  0  0  0
  3  8  1  0  0  0  0
  3  4  1  0  0  0  0
  3 22  1  0  0  0  0
  4  5  1  0  0  0  0
  4 23  1  0  0  0  0
  4 24  1  0  0  0  0
  5  6  1  0  0  0  0
  5 25  1  0  0  0  0
  5 26  1  0  0  0  0
  6  7  1  0  0  0  0
  6 27  1  0  0  0  0
  6 28  1  0  0  0  0
  7  8  1  0  0  0  0
  7 29  1  0  0  0  0
  7 30  1  0  0  0  0
  8  9  1  0  0  0  0
  8 31  1  0  0  0  0
  9 10  1  0  0  0  0
  9 32  1  0  0  0  0
 10 11  2  0  0  0  0
 10 12  2  0  0  0  0
 10 13  1  0  0  0  0
 13 14  1  0  0  0  0
 13 33  1  0  0  0  0
 13 34  1  0  0  0  0
 14 18  2  0  0  0  0
 14 15  1  0  0  0  0
 15 16  2  0  0  0  0
 15 35  1  0  0  0  0
 16 17  1  0  0  0  0
 16 36  1  0  0  0  0
 17 18  1  0  0  0  0
M  END
> <s_m_source_file>
AV-unprocessed.smi

> <i_m_source_file_index>
2889

> <i_lp_mmshare_version>
43012

> <i_f3d_flags>
0

> <s_epik_input>
W0NIM11TW0NAQEhdMVtDSDJdW0NIMl1bQ0gyXVtDSDJdW0NASF0xW05IXVMoPU8pKD1PKVtDSDJdYzJbY0hdW2NIXW9uMg==

> <s_epik_cmdline>
J2VwaWtfcHl0aG9uJywgJy1waCcsICc3LjAnLCAnLXRuJywgJzgnLCAnLW1hJywgJzIwMCcsICctbWV0YWxfYmluZGluZycsICctaW1hZScsICc8aW5maWxlLm1hZT4nLCAnLW9tYWUnLCAnPG91dGZpbGUubWFlPic=

> <r_lp_tautomer_probability>
1

> <r_epik_Ionization_Penalty>
0.000229547

> <r_epik_Ionization_Penalty_Charging>
0

> <r_epik_Ionization_Penalty_Neutral>
0.000229547

> <r_epik_State_Penalty>
-0

> <r_epik_Charging_Adjusted_Penalty>
0

> <i_epik_Tot_Q>
0

> <i_epik_Tot_abs_Q>
0

> <r_epik_Metal_State_Penalty>
0.145979

> <b_epik_Metal_Only>
0

> <s_lp_Force_Field>
OPLS_2005

> <r_lp_Energy>
4.05076

> <b_lp_Chiralities_Consistent>
1

> <s_lp_Variant>
AV-unprocessed.smi:2889-2

> <Gold.Version>
5.8.1

> <Gold.Id.Protein>
6NUR|6NUR_protein|mol2

> <Gold.PLP.Fitness>
48.9382

> <Gold.PLP.PLP>
-40.3053

> <Gold.PLP.part.hbond>
-2.1663

> <Gold.PLP.part.metal>
0.0000

> <Gold.PLP.part.buried>
-4.5113

> <Gold.PLP.part.nonpolar>
-33.7080

> <Gold.PLP.part.repulsive>
0.6168

> <Gold.PLP.ligand.clash>
0.0000

> <Gold.PLP.ligand.torsion>
0.2579

> <Gold.PLP.Chemscore.Hbond>
2.0000

> <Gold.PLP.Chemscore.CHOScore>
0.9945

> <Gold.PLP.Chemscore.Metal>
0.0000

> <Gold.Chemscore.Hbonds>
donor molecule, donor type, donor heavy atom, donor atom, acceptor molecule, acceptor atom, score
      P1  H  7989  7998       L1    18  1.00
      P1  H  7997  8009       L1    11  1.00
      L1  C    16    36       P1  7948  1.00

> <Gold.PLP.Chemscore.Internal.Correction>
0.1652

> <Gold.Rescore>
     Score         DG    S(hbond)    S(metal)    S(lipo)     H(rot)  DE(clash)    DE(int)     intcor
     19.08     -21.01       1.98        0.00     115.86       1.81       0.62       1.32       ----

> <Gold.Chemscore.Fitness>
19.0753

> <Gold.Chemscore.DG>
-21.0135

> <Gold.Chemscore.ZeroCoef>
-5.4800

> <Gold.Chemscore.Hbond>
1.9764

> <Gold.Chemscore.Metal>
0.0000

> <Gold.Chemscore.Lipo>
115.8555

> <Gold.Chemscore.Internal_Hbond>
0.0000

> <Gold.Chemscore.DEClash>
0.6180

> <Gold.Chemscore.DEInternal>
1.3202

> <Gold.Chemscore.Rot>
1.8058

> <Gold.Chemscore.Internal.Correction>
   9.000000E+99

> <Gold.Chemscore.Hbonds>
donor molecule, donor type, donor heavy atom, donor atom, acceptor molecule, acceptor atom, score
      P1  H  7989  7998       L1    18  0.49
      P1  H  7997  8009       L1    11  0.99

> <Gold.Chemscore.Hbond.Weighted>
-6.6012

> <Gold.Chemscore.Metal.Weighted>
-0.0000

> <Gold.Chemscore.Lipo.Weighted>
-13.5551

> <Gold.Chemscore.Internal_Hbond.Weighted>
0.0000

> <Gold.Chemscore.DEClash.Weighted>
0.6180

> <Gold.Chemscore.DEInternal.Weighted>
1.3202

> <Gold.Chemscore.Rot.Weighted>
4.6228

> <Gold.Chemscore.Internal.Correction.Weighted>
   9.000000E+99

> <Gold.Protein.RotatedTorsions>
[ 6907 6896 6895 6894 ] final -175.98 input  -60.11 | X-H torsion
[ 7974 7965 7964 7962 ] final  130.53 input  175.53 | X-H torsion
[ 8008 7997 7996 7995 ] final  173.19 input   59.86 | X-H torsion
[ 10167 10162 10161 10158 ] final  101.18 input  -65.29 | X-H torsion
[ 10718 10713 10712 10709 ] final  -76.35 input   66.30 | X-H torsion
[ 10763 10752 10751 10750 ] final   29.73 input  -60.55 | X-H torsion
[ 11005 11000 10999 10996 ] final  -37.08 input  -57.11 | X-H torsion

> <Gold.Protein.ActiveResidues>
 VAL166  LYS551  ARG553  GLY616  TRP617  ASP618  TYR619  PRO620  LYS621  CYS622 
 ASP623  PHE694  ASN695  SER759  ASP760  ASP761  ALA762  ILE779  LEU786  VAL792 
 PHE793  MET794  SER795  GLU796  ALA797  LYS798  CYS799  TRP800  GLU811  SER814 

> <Gold.Protein.RotatedAtoms>
  151.5973  133.3360  159.3039 H   0  0  0  0  0  0  0  0  0  0  0  0  # atno 6907 bound_to 6896
  150.8227  134.7446  159.6797 H   0  0  0  0  0  0  0  0  0  0  0  0  # atno 6908 bound_to 6896
  152.4319  134.5767  159.9988 H   0  0  0  0  0  0  0  0  0  0  0  0  # atno 6909 bound_to 6896
  145.0169  139.4168  143.5217 H   0  0  0  0  0  0  0  0  0  0  0  0  # atno 7974 bound_to 7965
  156.1100  140.1466  156.9351 H   0  0  0  0  0  0  0  0  0  0  0  0  # atno 8008 bound_to 7997
  154.4760  140.0894  156.7307 H   0  0  0  0  0  0  0  0  0  0  0  0  # atno 8009 bound_to 7997
  155.4612  140.3438  155.4315 H   0  0  0  0  0  0  0  0  0  0  0  0  # atno 8010 bound_to 7997
  139.7461  144.6997  151.0502 H   0  0  0  0  0  0  0  0  0  0  0  0  # atno 10167 bound_to 10162
  156.0178  130.4463  150.3181 H   0  0  0  0  0  0  0  0  0  0  0  0  # atno 10718 bound_to 10713
  153.0413  135.6482  154.0936 H   0  0  0  0  0  0  0  0  0  0  0  0  # atno 10763 bound_to 10752
  154.0642  135.2885  155.3321 H   0  0  0  0  0  0  0  0  0  0  0  0  # atno 10764 bound_to 10752
  154.6638  135.5382  153.8116 H   0  0  0  0  0  0  0  0  0  0  0  0  # atno 10765 bound_to 10752
  140.9925  133.6997  156.1875 H   0  0  0  0  0  0  0  0  0  0  0  0  # atno 11005 bound_to 11000
  146.3479  139.9645  142.8713 LP  0  0  0  0  0  0  0  0  0  0  0  0  # atno 17320 bound_to 7965
  145.1948  140.9828  143.4190 LP  0  0  0  0  0  0  0  0  0  0  0  0  # atno 17321 bound_to 7965
  140.7792  143.4865  150.9949 LP  0  0  0  0  0  0  0  0  0  0  0  0  # atno 17342 bound_to 10162
  139.8553  143.7385  152.3176 LP  0  0  0  0  0  0  0  0  0  0  0  0  # atno 17343 bound_to 10162
  157.1281  131.0264  151.2981 LP  0  0  0  0  0  0  0  0  0  0  0  0  # atno 17370 bound_to 10713
  157.4573  130.7633  149.7204 LP  0  0  0  0  0  0  0  0  0  0  0  0  # atno 17371 bound_to 10713
  140.7018  134.4556  157.5586 LP  0  0  0  0  0  0  0  0  0  0  0  0  # atno 17394 bound_to 11000
  139.8999  134.8581  156.1942 LP  0  0  0  0  0  0  0  0  0  0  0  0  # atno 17395 bound_to 11000

$$$$
