AV-unprocessed.smi:1724|AV-procd|sdf|6950|dock8
  -GOLD-   22720 8163D 1   1.00000     0.00000
 Structure written by MMmdl.
 38 39  0  0  0  0  0  0  0  0  1 V2000
  151.0533  141.0329  156.8850 O   0  0  0  0  0  0  0  0  0  0  0  0
  150.3418  142.0337  156.8074 C   0  0  0  0  0  0  0  0  0  0  0  0
  150.6993  143.2296  157.2975 N   0  0  0  0  0  0  0  0  0  0  0  0
  151.9557  143.5295  157.9792 C   0  0  0  0  0  0  0  0  0  0  0  0
  152.0785  142.7967  159.3306 C   0  0  1  0  0  0  0  0  0  0  0  0
  153.5174  142.3452  159.6453 C   0  0  0  0  0  0  0  0  0  0  0  0
  153.5826  141.7110  161.0393 C   0  0  0  0  0  0  0  0  0  0  0  0
  152.9771  142.6555  162.0881 C   0  0  0  0  0  0  0  0  0  0  0  0
  151.6415  142.9841  161.7233 O   0  0  0  0  0  0  0  0  0  0  0  0
  151.5582  143.6794  160.4835 C   0  0  0  0  0  0  0  0  0  0  0  0
  149.1266  142.1000  156.2321 N   0  0  0  0  0  0  0  0  0  0  0  0
  148.3698  141.0968  155.6011 C   0  0  0  0  0  0  0  0  0  0  0  0
  147.2837  140.4779  156.1352 C   0  0  0  0  0  0  0  0  0  0  0  0
  146.5516  139.4481  155.4143 C   0  0  0  0  0  0  0  0  0  0  0  0
  145.3419  138.7409  156.0043 C   0  0  0  0  0  0  0  0  0  0  0  0
  145.5466  137.4241  156.0305 F   0  0  0  0  0  0  0  0  0  0  0  0
  145.1354  139.1489  157.2563 F   0  0  0  0  0  0  0  0  0  0  0  0
  144.2364  138.9790  155.2980 F   0  0  0  0  0  0  0  0  0  0  0  0
  147.0003  139.1408  154.1844 C   0  0  0  0  0  0  0  0  0  0  0  0
  148.1105  139.7765  153.6256 N   0  0  0  0  0  0  0  0  0  0  0  0
  148.8290  140.7371  154.2485 C   0  0  0  0  0  0  0  0  0  0  0  0
  149.7957  141.2508  153.6865 O   0  0  0  0  0  0  0  0  0  0  0  0
  148.3837  139.4912  152.6963 H   0  0  0  0  0  0  0  0  0  0  0  0
  150.0527  143.9969  157.1868 H   0  0  0  0  0  0  0  0  0  0  0  0
  152.8139  143.3020  157.3444 H   0  0  0  0  0  0  0  0  0  0  0  0
  151.9830  144.6067  158.1460 H   0  0  0  0  0  0  0  0  0  0  0  0
  151.4484  141.9068  159.2881 H   0  0  0  0  0  0  0  0  0  0  0  0
  153.8719  141.6289  158.9037 H   0  0  0  0  0  0  0  0  0  0  0  0
  154.1917  143.2015  159.6011 H   0  0  0  0  0  0  0  0  0  0  0  0
  153.0340  140.7683  161.0392 H   0  0  0  0  0  0  0  0  0  0  0  0
  154.6149  141.4727  161.2970 H   0  0  0  0  0  0  0  0  0  0  0  0
  152.9668  142.1736  163.0659 H   0  0  0  0  0  0  0  0  0  0  0  0
  153.5740  143.5636  162.1861 H   0  0  0  0  0  0  0  0  0  0  0  0
  152.1171  144.6149  160.5433 H   0  0  0  0  0  0  0  0  0  0  0  0
  150.5150  143.9450  160.3109 H   0  0  0  0  0  0  0  0  0  0  0  0
  148.6886  143.0098  156.2293 H   0  0  0  0  0  0  0  0  0  0  0  0
  146.9216  140.7388  157.1150 H   0  0  0  0  0  0  0  0  0  0  0  0
  146.5502  138.3957  153.5450 H   0  0  0  0  0  0  0  0  0  0  0  0
  1  2  2  0  0  0  0
  2  3  1  0  0  0  0
  2 11  1  0  0  0  0
  3  4  1  0  0  0  0
  3 24  1  0  0  0  0
  4  5  1  0  0  0  0
  4 25  1  0  0  0  0
  4 26  1  0  0  0  0
  5 10  1  0  0  0  0
  5  6  1  0  0  0  0
  5 27  1  0  0  0  0
  6  7  1  0  0  0  0
  6 28  1  0  0  0  0
  6 29  1  0  0  0  0
  7  8  1  0  0  0  0
  7 30  1  0  0  0  0
  7 31  1  0  0  0  0
  8  9  1  0  0  0  0
  8 32  1  0  0  0  0
  8 33  1  0  0  0  0
  9 10  1  0  0  0  0
 10 34  1  0  0  0  0
 10 35  1  0  0  0  0
 11 12  1  0  0  0  0
 11 36  1  0  0  0  0
 12 21  1  0  0  0  0
 12 13  2  0  0  0  0
 13 14  1  0  0  0  0
 13 37  1  0  0  0  0
 14 15  1  0  0  0  0
 14 19  2  0  0  0  0
 15 16  1  0  0  0  0
 15 17  1  0  0  0  0
 15 18  1  0  0  0  0
 19 20  1  0  0  0  0
 19 38  1  0  0  0  0
 20 23  1  0  0  0  0
 20 21  1  0  0  0  0
 21 22  2  0  0  0  0
M  END
> <s_m_source_file>
AV-unprocessed.smi

> <i_m_source_file_index>
1724

> <i_lp_mmshare_version>
43012

> <i_f3d_flags>
0

> <s_epik_input>
Tz1jMVtuSF1bY0hdYyhDKEYpKEYpRilbY0hdYzFbTkhdQyg9TylbTkhdW0NIMl1bQ0BASF0yW0NIMl1bQ0gyXVtDSDJdT1tDSDJdMg==

> <s_epik_cmdline>
J2VwaWtfcHl0aG9uJywgJy1waCcsICc3LjAnLCAnLXRuJywgJzgnLCAnLW1hJywgJzIwMCcsICctbWV0YWxfYmluZGluZycsICctaW1hZScsICc8aW5maWxlLm1hZT4nLCAnLW9tYWUnLCAnPG91dGZpbGUubWFlPic=

> <r_lp_tautomer_probability>
1

> <r_epik_Ionization_Penalty>
0.00384958

> <r_epik_Ionization_Penalty_Charging>
0.00382926

> <r_epik_Ionization_Penalty_Neutral>
2.03186e-05

> <r_epik_State_Penalty>
-0

> <r_epik_Charging_Adjusted_Penalty>
0.00382926

> <i_epik_Tot_Q>
0

> <i_epik_Tot_abs_Q>
0

> <r_epik_Metal_State_Penalty>
0.371494

> <b_epik_Metal_Only>
0

> <s_lp_Force_Field>
OPLS_2005

> <r_lp_Energy>
21.778

> <b_lp_Chiralities_Consistent>
1

> <s_lp_Variant>
AV-unprocessed.smi:1724-2

> <Gold.Version>
5.8.1

> <Gold.Id.Protein>
6NUR|6NUR_protein|mol2

> <Gold.PLP.Fitness>
42.1484

> <Gold.PLP.PLP>
-32.0606

> <Gold.PLP.part.hbond>
-5.5257

> <Gold.PLP.part.metal>
0.0000

> <Gold.PLP.part.buried>
-3.1324

> <Gold.PLP.part.nonpolar>
-26.0473

> <Gold.PLP.part.repulsive>
2.8895

> <Gold.PLP.ligand.clash>
0.0000

> <Gold.PLP.ligand.torsion>
1.2159

> <Gold.PLP.Chemscore.Hbond>
4.1671

> <Gold.PLP.Chemscore.CHOScore>
0.0000

> <Gold.PLP.Chemscore.Metal>
0.0000

> <Gold.Chemscore.Hbonds>
donor molecule, donor type, donor heavy atom, donor atom, acceptor molecule, acceptor atom, score
      L1  H     3    24       P1  8028  0.73
      L1  H    11    36       P1  8028  0.88
      L1  H    20    23       P1  7957  0.84
      P1  H  6933  6945       L1     9  0.60
      P1  H  7989  7998       L1    22  0.22
      P1  H  8011  8017       L1    22  0.85

> <Gold.PLP.Chemscore.Internal.Correction>
0.0183

> <Gold.Rescore>
     Score         DG    S(hbond)    S(metal)    S(lipo)     H(rot)  DE(clash)    DE(int)     intcor
     21.22     -24.53       3.97        0.00      78.57       1.33       2.22       1.09       ----

> <Gold.Chemscore.Fitness>
21.2214

> <Gold.Chemscore.DG>
-24.5318

> <Gold.Chemscore.ZeroCoef>
-5.4800

> <Gold.Chemscore.Hbond>
3.9747

> <Gold.Chemscore.Metal>
0.0000

> <Gold.Chemscore.Lipo>
78.5672

> <Gold.Chemscore.Internal_Hbond>
0.0000

> <Gold.Chemscore.DEClash>
2.2233

> <Gold.Chemscore.DEInternal>
1.0870

> <Gold.Chemscore.Rot>
1.3344

> <Gold.Chemscore.Internal.Correction>
   9.000000E+99

> <Gold.Chemscore.Hbonds>
donor molecule, donor type, donor heavy atom, donor atom, acceptor molecule, acceptor atom, score
      L1  H     3    24       P1  8028  0.58
      L1  H    11    36       P1  8028  0.85
      L1  H    20    23       P1  7957  0.78
      P1  H  6933  6945       L1     9  0.54
      P1  H  7989  7998       L1    22  0.22
      P1  H  8011  8017       L1    22  0.85

> <Gold.Chemscore.Hbond.Weighted>
-13.2754

> <Gold.Chemscore.Metal.Weighted>
-0.0000

> <Gold.Chemscore.Lipo.Weighted>
-9.1924

> <Gold.Chemscore.Internal_Hbond.Weighted>
0.0000

> <Gold.Chemscore.DEClash.Weighted>
2.2233

> <Gold.Chemscore.DEInternal.Weighted>
1.0870

> <Gold.Chemscore.Rot.Weighted>
3.4160

> <Gold.Chemscore.Internal.Correction.Weighted>
   9.000000E+99

> <Gold.Protein.RotatedTorsions>
[ 6907 6896 6895 6894 ] final  -87.05 input  -60.11 | X-H torsion
[ 7974 7965 7964 7962 ] final  115.11 input  175.53 | X-H torsion
[ 8008 7997 7996 7995 ] final -176.58 input   59.86 | X-H torsion
[ 10167 10162 10161 10158 ] final  -91.85 input  -65.29 | X-H torsion
[ 10718 10713 10712 10709 ] final  143.00 input   66.30 | X-H torsion
[ 10763 10752 10751 10750 ] final -100.63 input  -60.55 | X-H torsion
[ 11005 11000 10999 10996 ] final   36.38 input  -57.11 | X-H torsion

> <Gold.Protein.ActiveResidues>
 VAL166  LYS551  ARG553  GLY616  TRP617  ASP618  TYR619  PRO620  LYS621  CYS622 
 ASP623  PHE694  ASN695  SER759  ASP760  ASP761  ALA762  ILE779  LEU786  VAL792 
 PHE793  MET794  SER795  GLU796  ALA797  LYS798  CYS799  TRP800  GLU811  SER814 

> <Gold.Protein.RotatedAtoms>
  150.6866  134.2956  159.4684 H   0  0  0  0  0  0  0  0  0  0  0  0  # atno 6907 bound_to 6896
  152.0857  134.9439  160.0582 H   0  0  0  0  0  0  0  0  0  0  0  0  # atno 6908 bound_to 6896
  152.0774  133.4101  159.4523 H   0  0  0  0  0  0  0  0  0  0  0  0  # atno 6909 bound_to 6896
  145.1961  139.2976  143.4343 H   0  0  0  0  0  0  0  0  0  0  0  0  # atno 7974 bound_to 7965
  155.9966  140.1212  157.0588 H   0  0  0  0  0  0  0  0  0  0  0  0  # atno 8008 bound_to 7997
  154.4228  140.1115  156.5707 H   0  0  0  0  0  0  0  0  0  0  0  0  # atno 8009 bound_to 7997
  155.6270  140.3472  155.4673 H   0  0  0  0  0  0  0  0  0  0  0  0  # atno 8010 bound_to 7997
  140.3408  143.2943  151.9838 H   0  0  0  0  0  0  0  0  0  0  0  0  # atno 10167 bound_to 10162
  157.3740  131.0983  151.0802 H   0  0  0  0  0  0  0  0  0  0  0  0  # atno 10718 bound_to 10713
  154.7594  135.4928  153.9436 H   0  0  0  0  0  0  0  0  0  0  0  0  # atno 10763 bound_to 10752
  153.1234  135.6737  153.9305 H   0  0  0  0  0  0  0  0  0  0  0  0  # atno 10764 bound_to 10752
  153.9030  135.3107  155.3427 H   0  0  0  0  0  0  0  0  0  0  0  0  # atno 10765 bound_to 10752
  140.2331  134.3504  155.7956 H   0  0  0  0  0  0  0  0  0  0  0  0  # atno 11005 bound_to 11000
  146.3427  140.2190  142.8591 LP  0  0  0  0  0  0  0  0  0  0  0  0  # atno 17320 bound_to 7965
  144.9994  140.8618  143.5291 LP  0  0  0  0  0  0  0  0  0  0  0  0  # atno 17321 bound_to 7965
  139.4841  144.6158  151.7348 LP  0  0  0  0  0  0  0  0  0  0  0  0  # atno 17342 bound_to 10162
  140.5311  144.0729  150.6054 LP  0  0  0  0  0  0  0  0  0  0  0  0  # atno 17343 bound_to 10162
  157.1895  130.6345  149.5699 LP  0  0  0  0  0  0  0  0  0  0  0  0  # atno 17370 bound_to 10713
  155.9761  130.4727  150.6507 LP  0  0  0  0  0  0  0  0  0  0  0  0  # atno 17371 bound_to 10713
  141.2216  133.7256  156.8764 LP  0  0  0  0  0  0  0  0  0  0  0  0  # atno 17394 bound_to 11000
  140.1730  134.9087  157.2856 LP  0  0  0  0  0  0  0  0  0  0  0  0  # atno 17395 bound_to 11000

$$$$
