AV-unprocessed.smi:678|AV-procd|sdf|3315|dock10
  -GOLD-   22720 0283D 1   1.00000     0.00000
 Structure written by MMmdl.
 51 52  0  0  0  0  0  0  0  0  2 V2000
  154.6299  141.3371  160.5698 C   0  0  0  0  0  0  0  0  0  0  0  0
  153.3648  141.3233  159.7299 C   0  0  0  0  0  0  0  0  0  0  0  0
  152.4582  142.3220  159.8033 C   0  0  0  0  0  0  0  0  0  0  0  0
  151.2565  142.2986  159.0050 C   0  0  0  0  0  0  0  0  0  0  0  0
  151.0610  141.2566  158.1844 C   0  0  0  0  0  0  0  0  0  0  0  0
  151.9905  140.2044  158.0871 N   0  0  0  0  0  0  0  0  0  0  0  0
  151.6689  139.1104  157.1542 C   0  0  0  0  0  0  0  0  0  0  0  0
  151.0387  139.6077  155.8460 C   0  0  0  0  0  0  0  0  0  0  0  0
  151.5677  140.5131  155.2002 O   0  0  0  0  0  0  0  0  0  0  0  0
  149.9037  139.0007  155.4686 N   0  0  0  0  0  0  0  0  0  0  0  0
  149.0980  139.3733  154.3110 C   0  0  0  0  0  0  0  0  0  0  0  0
  147.8042  138.5417  154.2415 C   0  0  2  0  0  0  0  0  0  0  0  0
  146.7763  139.1555  153.2647 C   0  0  0  0  0  0  0  0  0  0  0  0
  145.4906  138.4094  153.2754 N   0  3  1  0  0  0  0  0  0  0  0  0
  145.5010  137.1318  152.5118 C   0  0  0  0  0  0  0  0  0  0  0  0
  144.2337  136.2802  152.7422 C   0  0  0  0  0  0  0  0  0  0  0  0
  144.1097  135.1466  151.7100 C   0  0  0  0  0  0  0  0  0  0  0  0
  142.9780  137.1644  152.7193 C   0  0  0  0  0  0  0  0  0  0  0  0
  144.9850  138.2673  154.6625 C   0  0  0  0  0  0  0  0  0  0  0  0
  146.0602  137.6706  155.5871 C   0  0  0  0  0  0  0  0  0  0  0  0
  147.2202  138.4899  155.5400 O   0  0  0  0  0  0  0  0  0  0  0  0
  153.1457  140.1807  158.8234 C   0  0  0  0  0  0  0  0  0  0  0  0
  153.9498  139.2505  158.7287 O   0  0  0  0  0  0  0  0  0  0  0  0
  154.6803  142.2262  161.1990 H   0  0  0  0  0  0  0  0  0  0  0  0
  155.5129  141.3269  159.9301 H   0  0  0  0  0  0  0  0  0  0  0  0
  154.6657  140.4625  161.2203 H   0  0  0  0  0  0  0  0  0  0  0  0
  152.6268  143.1546  160.4705 H   0  0  0  0  0  0  0  0  0  0  0  0
  150.5318  143.0969  159.0702 H   0  0  0  0  0  0  0  0  0  0  0  0
  150.1848  141.1604  157.5598 H   0  0  0  0  0  0  0  0  0  0  0  0
  152.5609  138.5355  156.9022 H   0  0  0  0  0  0  0  0  0  0  0  0
  150.9978  138.4002  157.6415 H   0  0  0  0  0  0  0  0  0  0  0  0
  149.5492  138.2556  156.0511 H   0  0  0  0  0  0  0  0  0  0  0  0
  148.8743  140.4415  154.3159 H   0  0  0  0  0  0  0  0  0  0  0  0
  149.7008  139.1895  153.4212 H   0  0  0  0  0  0  0  0  0  0  0  0
  148.0646  137.5313  153.9230 H   0  0  0  0  0  0  0  0  0  0  0  0
  146.5685  140.1844  153.5618 H   0  0  0  0  0  0  0  0  0  0  0  0
  147.1886  139.2106  152.2582 H   0  0  0  0  0  0  0  0  0  0  0  0
  145.6356  137.3333  151.4492 H   0  0  0  0  0  0  0  0  0  0  0  0
  146.3650  136.5372  152.8123 H   0  0  0  0  0  0  0  0  0  0  0  0
  144.2790  135.8275  153.7323 H   0  0  0  0  0  0  0  0  0  0  0  0
  144.0574  135.5390  150.6938 H   0  0  0  0  0  0  0  0  0  0  0  0
  143.2093  134.5563  151.8832 H   0  0  0  0  0  0  0  0  0  0  0  0
  144.9583  134.4642  151.7607 H   0  0  0  0  0  0  0  0  0  0  0  0
  142.8532  137.6526  151.7521 H   0  0  0  0  0  0  0  0  0  0  0  0
  143.0304  137.9429  153.4809 H   0  0  0  0  0  0  0  0  0  0  0  0
  142.0796  136.5777  152.9135 H   0  0  0  0  0  0  0  0  0  0  0  0
  144.7067  139.2564  155.0284 H   0  0  0  0  0  0  0  0  0  0  0  0
  144.0747  137.6671  154.6843 H   0  0  0  0  0  0  0  0  0  0  0  0
  145.6956  137.6381  156.6139 H   0  0  0  0  0  0  0  0  0  0  0  0
  146.3061  136.6456  155.3054 H   0  0  0  0  0  0  0  0  0  0  0  0
  144.8158  138.9906  152.7983 H   0  0  0  0  0  0  0  0  0  0  0  0
  1  2  1  0  0  0  0
  1 24  1  0  0  0  0
  1 25  1  0  0  0  0
  1 26  1  0  0  0  0
  2 22  1  0  0  0  0
  2  3  2  0  0  0  0
  3  4  1  0  0  0  0
  3 27  1  0  0  0  0
  4  5  2  0  0  0  0
  4 28  1  0  0  0  0
  5  6  1  0  0  0  0
  5 29  1  0  0  0  0
  6  7  1  0  0  0  0
  6 22  1  0  0  0  0
  7  8  1  0  0  0  0
  7 30  1  0  0  0  0
  7 31  1  0  0  0  0
  8  9  2  0  0  0  0
  8 10  1  0  0  0  0
 10 11  1  0  0  0  0
 10 32  1  0  0  0  0
 11 12  1  0  0  0  0
 11 33  1  0  0  0  0
 11 34  1  0  0  0  0
 12 21  1  0  0  0  0
 12 13  1  0  0  0  0
 12 35  1  0  0  0  0
 13 14  1  0  0  0  0
 13 36  1  0  0  0  0
 13 37  1  0  0  0  0
 14 15  1  0  0  0  0
 14 19  1  0  0  0  0
 14 51  1  0  0  0  0
 15 16  1  0  0  0  0
 15 38  1  0  0  0  0
 15 39  1  0  0  0  0
 16 17  1  0  0  0  0
 16 18  1  0  0  0  0
 16 40  1  0  0  0  0
 17 41  1  0  0  0  0
 17 42  1  0  0  0  0
 17 43  1  0  0  0  0
 18 44  1  0  0  0  0
 18 45  1  0  0  0  0
 18 46  1  0  0  0  0
 19 20  1  0  0  0  0
 19 47  1  0  0  0  0
 19 48  1  0  0  0  0
 20 21  1  0  0  0  0
 20 49  1  0  0  0  0
 20 50  1  0  0  0  0
 22 23  2  0  0  0  0
M  CHG  1  14   1
M  END
> <s_m_source_file>
AV-unprocessed.smi

> <i_m_source_file_index>
678

> <i_lp_mmshare_version>
43012

> <i_f3d_flags>
0

> <s_epik_input>
W0NIM11jMVtjSF1bY0hdW2NIXW4oYzE9TylbQ0gyXUMoPU8pW05IXVtDSDJdW0NAQEhdMltDSDJdTihbQ0gyXVtDSDJdTzIpW0NIMl1bQ0hdKFtDSDNdKVtDSDNd

> <s_epik_cmdline>
J2VwaWtfcHl0aG9uJywgJy1waCcsICc3LjAnLCAnLXRuJywgJzgnLCAnLW1hJywgJzIwMCcsICctbWV0YWxfYmluZGluZycsICctaW1hZScsICc8aW5maWxlLm1hZT4nLCAnLW9tYWUnLCAnPG91dGZpbGUubWFlPic=

> <r_lp_tautomer_probability>
1

> <r_epik_Ionization_Penalty>
0.0975937

> <r_epik_Ionization_Penalty_Charging>
0.0975937

> <r_epik_Ionization_Penalty_Neutral>
6.27044e-08

> <r_epik_State_Penalty>
0.0877056

> <r_epik_Charging_Adjusted_Penalty>
0.185299

> <i_epik_Tot_Q>
1

> <i_epik_Tot_abs_Q>
1

> <r_epik_Metal_State_Penalty>
0.0877109

> <b_epik_Metal_Only>
0

> <s_lp_Force_Field>
OPLS_2005

> <r_lp_Energy>
29.877

> <b_lp_Chiralities_Consistent>
1

> <s_lp_Variant>
AV-unprocessed.smi:678-3

> <Gold.Version>
5.8.1

> <Gold.Id.Protein>
6NUR|6NUR_protein|mol2

> <Gold.PLP.Fitness>
44.3046

> <Gold.PLP.PLP>
-34.1406

> <Gold.PLP.part.hbond>
-3.0000

> <Gold.PLP.part.metal>
0.0000

> <Gold.PLP.part.buried>
-3.0232

> <Gold.PLP.part.nonpolar>
-28.1412

> <Gold.PLP.part.repulsive>
0.0864

> <Gold.PLP.ligand.clash>
0.0000

> <Gold.PLP.ligand.torsion>
0.7103

> <Gold.PLP.Chemscore.Hbond>
3.8320

> <Gold.PLP.Chemscore.CHOScore>
0.0000

> <Gold.PLP.Chemscore.Metal>
0.0000

> <Gold.Chemscore.Hbonds>
donor molecule, donor type, donor heavy atom, donor atom, acceptor molecule, acceptor atom, score
      L1  H    14    51       P1 10175  2.00
      P1  H  7989  7998       L1     9  0.83
      P1  H  7997  8009       L1    23  0.95

> <Gold.PLP.Chemscore.Internal.Correction>
0.0885

> <Gold.Rescore>
     Score         DG    S(hbond)    S(metal)    S(lipo)     H(rot)  DE(clash)    DE(int)     intcor
     18.33     -18.81       2.64        0.00      79.80       1.89       0.04       0.44       ----

> <Gold.Chemscore.Fitness>
18.3317

> <Gold.Chemscore.DG>
-18.8121

> <Gold.Chemscore.ZeroCoef>
-5.4800

> <Gold.Chemscore.Hbond>
2.6427

> <Gold.Chemscore.Metal>
0.0000

> <Gold.Chemscore.Lipo>
79.7979

> <Gold.Chemscore.Internal_Hbond>
0.0000

> <Gold.Chemscore.DEClash>
0.0398

> <Gold.Chemscore.DEInternal>
0.4407

> <Gold.Chemscore.Rot>
1.8871

> <Gold.Chemscore.Internal.Correction>
   9.000000E+99

> <Gold.Chemscore.Hbonds>
donor molecule, donor type, donor heavy atom, donor atom, acceptor molecule, acceptor atom, score
      L1  H    14    51       P1 10175  0.99
      P1  H  7989  7998       L1     9  0.81
      P1  H  7997  8009       L1    23  0.20

> <Gold.Chemscore.Hbond.Weighted>
-8.8267

> <Gold.Chemscore.Metal.Weighted>
-0.0000

> <Gold.Chemscore.Lipo.Weighted>
-9.3364

> <Gold.Chemscore.Internal_Hbond.Weighted>
0.0000

> <Gold.Chemscore.DEClash.Weighted>
0.0398

> <Gold.Chemscore.DEInternal.Weighted>
0.4407

> <Gold.Chemscore.Rot.Weighted>
4.8309

> <Gold.Chemscore.Internal.Correction.Weighted>
   9.000000E+99

> <Gold.Protein.RotatedTorsions>
[ 6907 6896 6895 6894 ] final  118.72 input  -60.11 | X-H torsion
[ 7974 7965 7964 7962 ] final   28.06 input  175.53 | X-H torsion
[ 8008 7997 7996 7995 ] final  116.95 input   59.86 | X-H torsion
[ 10167 10162 10161 10158 ] final  -24.00 input  -65.29 | X-H torsion
[ 10718 10713 10712 10709 ] final   62.68 input   66.30 | X-H torsion
[ 10763 10752 10751 10750 ] final -154.80 input  -60.55 | X-H torsion
[ 11005 11000 10999 10996 ] final  -29.23 input  -57.11 | X-H torsion

> <Gold.Protein.ActiveResidues>
 VAL166  LYS551  ARG553  GLY616  TRP617  ASP618  TYR619  PRO620  LYS621  CYS622 
 ASP623  PHE694  ASN695  SER759  ASP760  ASP761  ALA762  ILE779  LEU786  VAL792 
 PHE793  MET794  SER795  GLU796  ALA797  LYS798  CYS799  TRP800  GLU811  SER814 

> <Gold.Protein.RotatedAtoms>
  152.4523  133.7653  159.6768 H   0  0  0  0  0  0  0  0  0  0  0  0  # atno 6907 bound_to 6896
  150.8438  133.7883  159.3057 H   0  0  0  0  0  0  0  0  0  0  0  0  # atno 6908 bound_to 6896
  151.5500  135.1070  159.9999 H   0  0  0  0  0  0  0  0  0  0  0  0  # atno 6909 bound_to 6896
  146.1750  139.7108  142.8941 H   0  0  0  0  0  0  0  0  0  0  0  0  # atno 7974 bound_to 7965
  156.2467  140.2907  156.0602 H   0  0  0  0  0  0  0  0  0  0  0  0  # atno 8008 bound_to 7997
  155.1784  140.0403  157.2894 H   0  0  0  0  0  0  0  0  0  0  0  0  # atno 8009 bound_to 7997
  154.6277  140.2491  155.7479 H   0  0  0  0  0  0  0  0  0  0  0  0  # atno 8010 bound_to 7997
  140.7288  143.4392  151.0682 H   0  0  0  0  0  0  0  0  0  0  0  0  # atno 10167 bound_to 10162
  157.5918  130.9063  149.9619 H   0  0  0  0  0  0  0  0  0  0  0  0  # atno 10718 bound_to 10713
  154.7833  135.3182  154.7942 H   0  0  0  0  0  0  0  0  0  0  0  0  # atno 10763 bound_to 10752
  153.8648  135.6850  153.4784 H   0  0  0  0  0  0  0  0  0  0  0  0  # atno 10764 bound_to 10752
  153.1476  135.4712  154.9528 H   0  0  0  0  0  0  0  0  0  0  0  0  # atno 10765 bound_to 10752
  140.9278  133.7357  156.0893 H   0  0  0  0  0  0  0  0  0  0  0  0  # atno 11005 bound_to 11000
  145.4236  141.0409  143.2950 LP  0  0  0  0  0  0  0  0  0  0  0  0  # atno 17320 bound_to 7965
  144.8222  139.5772  143.6982 LP  0  0  0  0  0  0  0  0  0  0  0  0  # atno 17321 bound_to 7965
  139.8058  143.8020  152.3167 LP  0  0  0  0  0  0  0  0  0  0  0  0  # atno 17342 bound_to 10162
  139.8052  144.7358  150.9770 LP  0  0  0  0  0  0  0  0  0  0  0  0  # atno 17343 bound_to 10162
  156.0974  130.3658  150.0281 LP  0  0  0  0  0  0  0  0  0  0  0  0  # atno 17370 bound_to 10713
  156.8403  130.9423  151.3632 LP  0  0  0  0  0  0  0  0  0  0  0  0  # atno 17371 bound_to 10713
  140.7903  134.3625  157.5466 LP  0  0  0  0  0  0  0  0  0  0  0  0  # atno 17394 bound_to 11000
  139.8789  134.9136  156.3087 LP  0  0  0  0  0  0  0  0  0  0  0  0  # atno 17395 bound_to 11000

$$$$
