AV-unprocessed.smi:1199|AV-procd|sdf|5019|dock7
  -GOLD-   22720 4 43D 1   1.00000     0.00000
 Structure written by MMmdl.
 41 42  0  0  0  0  0  0  0  0  1 V2000
  150.0300  134.6718  155.4786 C   0  0  0  0  0  0  0  0  0  0  0  0
  150.0590  136.0987  156.0468 C   0  0  1  0  0  0  0  0  0  0  0  0
  149.9950  137.1613  154.9272 C   0  0  0  0  0  0  0  0  0  0  0  0
  149.9269  138.5545  155.3772 N   0  0  0  0  0  0  0  0  0  0  0  0
  149.2895  139.4401  154.4035 C   0  0  0  0  0  0  0  0  0  0  0  0
  149.2697  140.9044  154.8744 C   0  0  0  0  0  0  0  0  0  0  0  0
  150.5952  141.3339  155.1643 O   0  0  0  0  0  0  0  0  0  0  0  0
  151.2248  140.5290  156.1554 C   0  0  0  0  0  0  0  0  0  0  0  0
  151.2597  139.0662  155.6804 C   0  0  0  0  0  0  0  0  0  0  0  0
  148.9230  136.2693  156.9493 N   0  0  0  0  0  0  0  0  0  0  0  0
  148.7167  135.5820  158.0829 C   0  0  0  0  0  0  0  0  0  0  0  0
  149.4236  134.6412  158.4444 O   0  0  0  0  0  0  0  0  0  0  0  0
  147.5323  136.0380  158.9427 C   0  0  0  0  0  0  0  0  0  0  0  0
  147.4751  135.2976  160.2103 N   0  0  0  0  0  0  0  0  0  0  0  0
  147.4712  133.9191  160.0500 N   0  0  0  0  0  0  0  0  0  0  0  0
  147.3749  133.1496  161.0806 C   0  0  0  0  0  0  0  0  0  0  0  0
  147.3671  131.7921  160.8740 O   0  0  0  0  0  0  0  0  0  0  0  0
  147.2786  133.6961  162.4158 C   0  0  0  0  0  0  0  0  0  0  0  0
  147.2892  135.0392  162.5630 C   0  0  0  0  0  0  0  0  0  0  0  0
  147.3906  135.9420  161.4148 C   0  0  0  0  0  0  0  0  0  0  0  0
  147.3926  137.1680  161.5215 O   0  0  0  0  0  0  0  0  0  0  0  0
  146.4667  131.5267  160.9823 H   0  0  0  0  0  0  0  0  0  0  0  0
  150.8793  134.4957  154.8178 H   0  0  0  0  0  0  0  0  0  0  0  0
  149.1196  134.4884  154.9072 H   0  0  0  0  0  0  0  0  0  0  0  0
  150.0792  133.9303  156.2766 H   0  0  0  0  0  0  0  0  0  0  0  0
  151.0020  136.2188  156.5836 H   0  0  0  0  0  0  0  0  0  0  0  0
  150.9003  137.0559  154.3277 H   0  0  0  0  0  0  0  0  0  0  0  0
  149.1720  136.9428  154.2445 H   0  0  0  0  0  0  0  0  0  0  0  0
  149.8075  139.3736  153.4454 H   0  0  0  0  0  0  0  0  0  0  0  0
  148.2609  139.1303  154.2293 H   0  0  0  0  0  0  0  0  0  0  0  0
  148.8466  141.5448  154.1001 H   0  0  0  0  0  0  0  0  0  0  0  0
  148.6425  141.0160  155.7603 H   0  0  0  0  0  0  0  0  0  0  0  0
  152.2366  140.8978  156.3242 H   0  0  0  0  0  0  0  0  0  0  0  0
  150.6887  140.6162  157.1018 H   0  0  0  0  0  0  0  0  0  0  0  0
  151.7266  138.4504  156.4500 H   0  0  0  0  0  0  0  0  0  0  0  0
  151.8936  138.9923  154.7954 H   0  0  0  0  0  0  0  0  0  0  0  0
  148.2801  137.0160  156.7292 H   0  0  0  0  0  0  0  0  0  0  0  0
  147.6094  137.1077  159.1490 H   0  0  0  0  0  0  0  0  0  0  0  0
  146.6133  135.9200  158.3664 H   0  0  0  0  0  0  0  0  0  0  0  0
  147.2010  133.0384  163.2689 H   0  0  0  0  0  0  0  0  0  0  0  0
  147.2170  135.4606  163.5548 H   0  0  0  0  0  0  0  0  0  0  0  0
  1  2  1  0  0  0  0
  1 23  1  0  0  0  0
  1 24  1  0  0  0  0
  1 25  1  0  0  0  0
  2  3  1  0  0  0  0
  2 10  1  0  0  0  0
  2 26  1  0  0  0  0
  3  4  1  0  0  0  0
  3 27  1  0  0  0  0
  3 28  1  0  0  0  0
  4  9  1  0  0  0  0
  4  5  1  0  0  0  0
  5  6  1  0  0  0  0
  5 29  1  0  0  0  0
  5 30  1  0  0  0  0
  6  7  1  0  0  0  0
  6 31  1  0  0  0  0
  6 32  1  0  0  0  0
  7  8  1  0  0  0  0
  8  9  1  0  0  0  0
  8 33  1  0  0  0  0
  8 34  1  0  0  0  0
  9 35  1  0  0  0  0
  9 36  1  0  0  0  0
 10 11  1  0  0  0  0
 10 37  1  0  0  0  0
 11 12  2  0  0  0  0
 11 13  1  0  0  0  0
 13 38  1  0  0  0  0
 13 39  1  0  0  0  0
 13 14  1  0  0  0  0
 14 15  1  0  0  0  0
 14 20  1  0  0  0  0
 15 16  2  0  0  0  0
 16 17  1  0  0  0  0
 16 18  1  0  0  0  0
 17 22  1  0  0  0  0
 18 40  1  0  0  0  0
 18 19  2  0  0  0  0
 19 41  1  0  0  0  0
 19 20  1  0  0  0  0
 20 21  2  0  0  0  0
M  END
> <s_m_source_file>
AV-unprocessed.smi

> <i_m_source_file_index>
1199

> <i_lp_mmshare_version>
43012

> <i_f3d_flags>
0

> <s_epik_input>
W0NIMl0xW0NIMl1PW0NIMl1bQ0gyXU4xW0NIMl1bQ0BASF0oW0NIM10pW05IXUMoPU8pW0NIMl1uMltuSF1jKD1PKVtjSF1bY0hdYzI9Tw==

> <s_epik_cmdline>
J2VwaWtfcHl0aG9uJywgJy1waCcsICc3LjAnLCAnLXRuJywgJzgnLCAnLW1hJywgJzIwMCcsICctbWV0YWxfYmluZGluZycsICctaW1hZScsICc8aW5maWxlLm1hZT4nLCAnLW9tYWUnLCAnPG91dGZpbGUubWFlPic=

> <r_epik_Ionization_Penalty>
2.36432

> <r_epik_Ionization_Penalty_Charging>
3.67277e-08

> <r_epik_Ionization_Penalty_Neutral>
2.36432

> <r_epik_State_Penalty>
1.96081

> <r_epik_Charging_Adjusted_Penalty>
1.96081

> <i_epik_Tot_Q>
0

> <i_epik_Tot_abs_Q>
0

> <r_epik_Metal_State_Penalty>
1.96081

> <b_epik_Metal_Only>
0

> <s_lp_Force_Field>
OPLS_2005

> <r_lp_Energy>
38.3542

> <b_lp_Chiralities_Consistent>
1

> <s_lp_Variant>
AV-unprocessed.smi:1199-6

> <Gold.Version>
5.8.1

> <Gold.Id.Protein>
6NUR|6NUR_protein|mol2

> <Gold.PLP.Fitness>
42.6323

> <Gold.PLP.PLP>
-33.5841

> <Gold.PLP.part.hbond>
-3.8872

> <Gold.PLP.part.metal>
0.0000

> <Gold.PLP.part.buried>
-2.3275

> <Gold.PLP.part.nonpolar>
-28.2722

> <Gold.PLP.part.repulsive>
0.2043

> <Gold.PLP.ligand.clash>
0.0000

> <Gold.PLP.ligand.torsion>
0.3656

> <Gold.PLP.Chemscore.Hbond>
3.2560

> <Gold.PLP.Chemscore.CHOScore>
0.0000

> <Gold.PLP.Chemscore.Metal>
0.0000

> <Gold.Chemscore.Hbonds>
donor molecule, donor type, donor heavy atom, donor atom, acceptor molecule, acceptor atom, score
      P1  H  6896  6908       L1    12  1.00
      P1  H  6931  6943       L1    21  0.93
      P1  H  6934  6947       L1    21  0.90
      P1  H  7989  7998       L1     7  0.54

> <Gold.PLP.Chemscore.Internal.Correction>
0.0114

> <Gold.Rescore>
     Score         DG    S(hbond)    S(metal)    S(lipo)     H(rot)  DE(clash)    DE(int)     intcor
     12.08     -13.94       2.71        0.00      59.34       2.94       0.00       1.85       ----

> <Gold.Chemscore.Fitness>
12.0817

> <Gold.Chemscore.DG>
-13.9356

> <Gold.Chemscore.ZeroCoef>
-5.4800

> <Gold.Chemscore.Hbond>
2.7091

> <Gold.Chemscore.Metal>
0.0000

> <Gold.Chemscore.Lipo>
59.3429

> <Gold.Chemscore.Internal_Hbond>
0.0000

> <Gold.Chemscore.DEClash>
0.0048

> <Gold.Chemscore.DEInternal>
1.8491

> <Gold.Chemscore.Rot>
2.9437

> <Gold.Chemscore.Internal.Correction>
   9.000000E+99

> <Gold.Chemscore.Hbonds>
donor molecule, donor type, donor heavy atom, donor atom, acceptor molecule, acceptor atom, score
      P1  H  6896  6908       L1    12  0.97
      P1  H  6931  6943       L1    21  0.86
      P1  H  6934  6947       L1    21  0.87
      P1  H  7989  7998       L1     7  0.09

> <Gold.Chemscore.Hbond.Weighted>
-9.0484

> <Gold.Chemscore.Metal.Weighted>
-0.0000

> <Gold.Chemscore.Lipo.Weighted>
-6.9431

> <Gold.Chemscore.Internal_Hbond.Weighted>
0.0000

> <Gold.Chemscore.DEClash.Weighted>
0.0048

> <Gold.Chemscore.DEInternal.Weighted>
1.8491

> <Gold.Chemscore.Rot.Weighted>
7.5359

> <Gold.Chemscore.Internal.Correction.Weighted>
   9.000000E+99

> <Gold.Protein.RotatedTorsions>
[ 6907 6896 6895 6894 ] final  168.48 input  -60.11 | X-H torsion
[ 7974 7965 7964 7962 ] final  178.49 input  175.53 | X-H torsion
[ 8008 7997 7996 7995 ] final -150.74 input   59.86 | X-H torsion
[ 10167 10162 10161 10158 ] final -155.10 input  -65.29 | X-H torsion
[ 10718 10713 10712 10709 ] final  -56.60 input   66.30 | X-H torsion
[ 10763 10752 10751 10750 ] final   83.47 input  -60.55 | X-H torsion
[ 11005 11000 10999 10996 ] final   47.84 input  -57.11 | X-H torsion

> <Gold.Protein.ActiveResidues>
 VAL166  LYS551  ARG553  GLY616  TRP617  ASP618  TYR619  PRO620  LYS621  CYS622 
 ASP623  PHE694  ASN695  SER759  ASP760  ASP761  ALA762  ILE779  LEU786  VAL792 
 PHE793  MET794  SER795  GLU796  ALA797  LYS798  CYS799  TRP800  GLU811  SER814 

> <Gold.Protein.RotatedAtoms>
  151.8470  133.3433  159.3660 H   0  0  0  0  0  0  0  0  0  0  0  0  # atno 6907 bound_to 6896
  150.7218  134.5336  159.5722 H   0  0  0  0  0  0  0  0  0  0  0  0  # atno 6908 bound_to 6896
  152.2822  134.7817  160.0445 H   0  0  0  0  0  0  0  0  0  0  0  0  # atno 6909 bound_to 6896
  144.7155  140.0405  143.6437 H   0  0  0  0  0  0  0  0  0  0  0  0  # atno 7974 bound_to 7965
  155.6284  140.0689  157.2656 H   0  0  0  0  0  0  0  0  0  0  0  0  # atno 8008 bound_to 7997
  154.4212  140.1772  156.1494 H   0  0  0  0  0  0  0  0  0  0  0  0  # atno 8009 bound_to 7997
  155.9953  140.3341  155.6796 H   0  0  0  0  0  0  0  0  0  0  0  0  # atno 8010 bound_to 7997
  139.6959  143.9344  152.2406 H   0  0  0  0  0  0  0  0  0  0  0  0  # atno 10167 bound_to 10162
  156.1276  130.4161  150.0327 H   0  0  0  0  0  0  0  0  0  0  0  0  # atno 10718 bound_to 10713
  153.1293  135.4690  154.9324 H   0  0  0  0  0  0  0  0  0  0  0  0  # atno 10763 bound_to 10752
  154.7650  135.3142  154.8307 H   0  0  0  0  0  0  0  0  0  0  0  0  # atno 10764 bound_to 10752
  153.8853  135.6890  153.4818 H   0  0  0  0  0  0  0  0  0  0  0  0  # atno 10765 bound_to 10752
  140.1244  134.4788  155.8571 H   0  0  0  0  0  0  0  0  0  0  0  0  # atno 11005 bound_to 11000
  146.0027  139.3104  143.0918 LP  0  0  0  0  0  0  0  0  0  0  0  0  # atno 17320 bound_to 7965
  145.8774  140.9383  143.0619 LP  0  0  0  0  0  0  0  0  0  0  0  0  # atno 17321 bound_to 7965
  139.9173  144.6821  150.8499 LP  0  0  0  0  0  0  0  0  0  0  0  0  # atno 17342 bound_to 10162
  140.7696  143.3400  151.2227 LP  0  0  0  0  0  0  0  0  0  0  0  0  # atno 17343 bound_to 10162
  156.8248  130.9371  151.3640 LP  0  0  0  0  0  0  0  0  0  0  0  0  # atno 17370 bound_to 10713
  157.6456  130.8842  149.9533 LP  0  0  0  0  0  0  0  0  0  0  0  0  # atno 17371 bound_to 10713
  141.2158  133.6772  156.6949 LP  0  0  0  0  0  0  0  0  0  0  0  0  # atno 17394 bound_to 11000
  140.2924  134.8230  157.4028 LP  0  0  0  0  0  0  0  0  0  0  0  0  # atno 17395 bound_to 11000

$$$$
