AV-unprocessed.smi:1669|AV-procd|sdf|6691|dock5
  -GOLD-   22720 7423D 1   1.00000     0.00000
 Structure written by MMmdl.
 49 51  0  0  0  0  0  0  0  0  3 V2000
  151.4175  136.2721  154.7436 C   0  0  0  0  0  0  0  0  0  0  0  0
  150.0867  136.8808  154.5081 N   0  3  1  0  0  0  0  0  0  0  0  0
  149.0339  136.1837  155.2925 C   0  0  0  0  0  0  0  0  0  0  0  0
  148.7091  134.8022  154.7486 C   0  0  0  0  0  0  0  0  0  0  0  0
  147.4176  134.5173  154.2545 C   0  0  0  0  0  0  0  0  0  0  0  0
  147.1224  133.2398  153.7406 C   0  0  0  0  0  0  0  0  0  0  0  0
  148.1150  132.2411  153.7230 C   0  0  0  0  0  0  0  0  0  0  0  0
  149.4031  132.5200  154.2197 C   0  0  0  0  0  0  0  0  0  0  0  0
  149.6998  133.7980  154.7320 C   0  0  0  0  0  0  0  0  0  0  0  0
  150.0748  138.3579  154.7009 C   0  0  0  0  0  0  0  0  0  0  0  0
  151.2324  138.8920  155.5746 C   0  0  1  0  0  0  0  0  0  0  0  0
  151.7976  140.0328  154.9606 O   0  0  0  0  0  0  0  0  0  0  0  0
  150.7895  139.3175  156.9910 C   0  0  0  0  0  0  0  0  0  0  0  0
  150.6947  140.7765  157.1665 N   0  0  0  0  0  0  0  0  0  0  0  0
  149.8676  141.6788  156.5626 C   0  0  0  0  0  0  0  0  0  0  0  0
  148.8218  141.3921  155.5362 C   0  0  0  0  0  0  0  0  0  0  0  0
  148.9682  142.1934  154.3853 O   0  0  0  0  0  0  0  0  0  0  0  0
  150.1581  142.9046  157.0817 N   0  3  0  0  0  0  0  0  0  0  0  0
  151.1765  142.7886  158.0283 C   0  0  0  0  0  0  0  0  0  0  0  0
  151.8011  143.7517  158.8147 C   0  0  0  0  0  0  0  0  0  0  0  0
  152.8114  143.2984  159.6878 C   0  0  0  0  0  0  0  0  0  0  0  0
  153.1648  141.9354  159.7562 C   0  0  0  0  0  0  0  0  0  0  0  0
  152.5230  140.9679  158.9555 C   0  0  0  0  0  0  0  0  0  0  0  0
  151.5252  141.4234  158.0923 C   0  0  0  0  0  0  0  0  0  0  0  0
  151.7606  136.4641  155.7611 H   0  0  0  0  0  0  0  0  0  0  0  0
  152.1643  136.6564  154.0501 H   0  0  0  0  0  0  0  0  0  0  0  0
  151.3803  135.1921  154.5971 H   0  0  0  0  0  0  0  0  0  0  0  0
  149.3645  136.0613  156.3251 H   0  0  0  0  0  0  0  0  0  0  0  0
  148.1315  136.7964  155.3271 H   0  0  0  0  0  0  0  0  0  0  0  0
  146.6511  135.2787  154.2617 H   0  0  0  0  0  0  0  0  0  0  0  0
  146.1344  133.0252  153.3603 H   0  0  0  0  0  0  0  0  0  0  0  0
  147.8884  131.2608  153.3298 H   0  0  0  0  0  0  0  0  0  0  0  0
  150.1636  131.7530  154.2070 H   0  0  0  0  0  0  0  0  0  0  0  0
  150.6909  134.0052  155.1092 H   0  0  0  0  0  0  0  0  0  0  0  0
  150.1435  138.8560  153.7351 H   0  0  0  0  0  0  0  0  0  0  0  0
  149.1113  138.6416  155.1260 H   0  0  0  0  0  0  0  0  0  0  0  0
  152.0106  138.1366  155.6748 H   0  0  0  0  0  0  0  0  0  0  0  0
  151.7190  140.7699  155.5465 H   0  0  0  0  0  0  0  0  0  0  0  0
  149.8065  138.9002  157.2136 H   0  0  0  0  0  0  0  0  0  0  0  0
  151.4605  138.9123  157.7487 H   0  0  0  0  0  0  0  0  0  0  0  0
  148.8746  140.3424  155.2467 H   0  0  0  0  0  0  0  0  0  0  0  0
  147.8333  141.5571  155.9644 H   0  0  0  0  0  0  0  0  0  0  0  0
  149.0375  143.0976  154.6521 H   0  0  0  0  0  0  0  0  0  0  0  0
  151.5298  144.7964  158.7668 H   0  0  0  0  0  0  0  0  0  0  0  0
  153.3242  144.0101  160.3190 H   0  0  0  0  0  0  0  0  0  0  0  0
  153.9426  141.6250  160.4394 H   0  0  0  0  0  0  0  0  0  0  0  0
  152.8052  139.9279  159.0220 H   0  0  0  0  0  0  0  0  0  0  0  0
  149.8612  136.7156  153.5374 H   0  0  0  0  0  0  0  0  0  0  0  0
  149.6841  143.7574  156.8127 H   0  0  0  0  0  0  0  0  0  0  0  0
  1  2  1  0  0  0  0
  1 25  1  0  0  0  0
  1 26  1  0  0  0  0
  1 27  1  0  0  0  0
  2  3  1  0  0  0  0
  2 10  1  0  0  0  0
  2 48  1  0  0  0  0
  3  4  1  0  0  0  0
  3 28  1  0  0  0  0
  3 29  1  0  0  0  0
  4  9  1  0  0  0  0
  4  5  2  0  0  0  0
  5  6  1  0  0  0  0
  5 30  1  0  0  0  0
  6  7  2  0  0  0  0
  6 31  1  0  0  0  0
  7  8  1  0  0  0  0
  7 32  1  0  0  0  0
  8  9  2  0  0  0  0
  8 33  1  0  0  0  0
  9 34  1  0  0  0  0
 10 11  1  0  0  0  0
 10 35  1  0  0  0  0
 10 36  1  0  0  0  0
 11 12  1  0  0  0  0
 11 13  1  0  0  0  0
 11 37  1  0  0  0  0
 12 38  1  0  0  0  0
 13 14  1  0  0  0  0
 13 39  1  0  0  0  0
 13 40  1  0  0  0  0
 14 24  1  0  0  0  0
 14 15  1  0  0  0  0
 15 16  1  0  0  0  0
 15 18  2  0  0  0  0
 16 17  1  0  0  0  0
 16 41  1  0  0  0  0
 16 42  1  0  0  0  0
 17 43  1  0  0  0  0
 18 19  1  0  0  0  0
 18 49  1  0  0  0  0
 19 24  2  0  0  0  0
 19 20  1  0  0  0  0
 20 21  2  0  0  0  0
 20 44  1  0  0  0  0
 21 22  1  0  0  0  0
 21 45  1  0  0  0  0
 22 23  2  0  0  0  0
 22 46  1  0  0  0  0
 23 24  1  0  0  0  0
 23 47  1  0  0  0  0
M  CHG  1   2   1
M  CHG  1  18   1
M  END
> <s_m_source_file>
AV-unprocessed.smi

> <i_m_source_file_index>
1669

> <i_lp_mmshare_version>
43012

> <i_f3d_flags>
0

> <s_epik_input>
W2NIXTFbY0hdW2NIXVtjSF1bY0hdYzFbQ0gyXU4oW0NIM10pW0NIMl1bQ0BIXShbT0hdKVtDSDJdbihjKG4yKVtDSDJdW09IXSljKGMyMylbY0hdW2NIXVtjSF1bY0hdMw==

> <s_epik_cmdline>
J2VwaWtfcHl0aG9uJywgJy1waCcsICc3LjAnLCAnLXRuJywgJzgnLCAnLW1hJywgJzIwMCcsICctbWV0YWxfYmluZGluZycsICctaW1hZScsICc8aW5maWxlLm1hZT4nLCAnLW9tYWUnLCAnPG91dGZpbGUubWFlPic=

> <r_epik_Ionization_Penalty>
1.57484

> <r_epik_Ionization_Penalty_Charging>
1.57398

> <r_epik_Ionization_Penalty_Neutral>
0.000858917

> <r_epik_State_Penalty>
1.64997

> <r_epik_Charging_Adjusted_Penalty>
3.22395

> <i_epik_Tot_Q>
2

> <i_epik_Tot_abs_Q>
2

> <r_epik_Metal_State_Penalty>
5.70481

> <b_epik_Metal_Only>
0

> <s_lp_Force_Field>
OPLS_2005

> <r_lp_Energy>
25.6323

> <b_lp_Chiralities_Consistent>
1

> <s_lp_Variant>
AV-unprocessed.smi:1669-9

> <Gold.Version>
5.8.1

> <Gold.Id.Protein>
6NUR|6NUR_protein|mol2

> <Gold.PLP.Fitness>
58.4503

> <Gold.PLP.PLP>
-43.9367

> <Gold.PLP.part.hbond>
-5.1458

> <Gold.PLP.part.metal>
0.0000

> <Gold.PLP.part.buried>
-1.4526

> <Gold.PLP.part.nonpolar>
-37.7446

> <Gold.PLP.part.repulsive>
0.0511

> <Gold.PLP.ligand.clash>
0.0000

> <Gold.PLP.ligand.torsion>
2.0682

> <Gold.PLP.Chemscore.Hbond>
6.0873

> <Gold.PLP.Chemscore.CHOScore>
0.0000

> <Gold.PLP.Chemscore.Metal>
0.0000

> <Gold.Chemscore.Hbonds>
donor molecule, donor type, donor heavy atom, donor atom, acceptor molecule, acceptor atom, score
      L1  H     2    48       P1  7948  2.00
      L1  H    17    43       P1  8028  1.00
      L1  H    18    49       P1  8028  2.00
      P1  H  7989  7998       L1    12  0.85
      P1  H  8011  8017       L1    17  0.13

> <Gold.PLP.Chemscore.Internal.Correction>
0.3882

> <Gold.Rescore>
     Score         DG    S(hbond)    S(metal)    S(lipo)     H(rot)  DE(clash)    DE(int)     intcor
     16.91     -20.22       3.06        0.00     110.14       3.27       0.27       3.04       ----

> <Gold.Chemscore.Fitness>
16.9056

> <Gold.Chemscore.DG>
-20.2220

> <Gold.Chemscore.ZeroCoef>
-5.4800

> <Gold.Chemscore.Hbond>
3.0633

> <Gold.Chemscore.Metal>
0.0000

> <Gold.Chemscore.Lipo>
110.1411

> <Gold.Chemscore.Internal_Hbond>
0.0000

> <Gold.Chemscore.DEClash>
0.2719

> <Gold.Chemscore.DEInternal>
3.0445

> <Gold.Chemscore.Rot>
3.2718

> <Gold.Chemscore.Internal.Correction>
   9.000000E+99

> <Gold.Chemscore.Hbonds>
donor molecule, donor type, donor heavy atom, donor atom, acceptor molecule, acceptor atom, score
      L1  H     2    48       P1  7948  0.35
      L1  H    17    43       P1  8028  1.00
      L1  H    18    49       P1  8028  0.94
      P1  H  7989  7998       L1    12  0.16
      P1  H  8011  8017       L1    17  0.02

> <Gold.Chemscore.Hbond.Weighted>
-10.2314

> <Gold.Chemscore.Metal.Weighted>
-0.0000

> <Gold.Chemscore.Lipo.Weighted>
-12.8865

> <Gold.Chemscore.Internal_Hbond.Weighted>
0.0000

> <Gold.Chemscore.DEClash.Weighted>
0.2719

> <Gold.Chemscore.DEInternal.Weighted>
3.0445

> <Gold.Chemscore.Rot.Weighted>
8.3759

> <Gold.Chemscore.Internal.Correction.Weighted>
   9.000000E+99

> <Gold.Protein.RotatedTorsions>
[ 6907 6896 6895 6894 ] final  115.81 input  -60.11 | X-H torsion
[ 7974 7965 7964 7962 ] final   35.83 input  175.53 | X-H torsion
[ 8008 7997 7996 7995 ] final   64.23 input   59.86 | X-H torsion
[ 10167 10162 10161 10158 ] final   -3.69 input  -65.29 | X-H torsion
[ 10718 10713 10712 10709 ] final  146.10 input   66.30 | X-H torsion
[ 10763 10752 10751 10750 ] final   34.96 input  -60.55 | X-H torsion
[ 11005 11000 10999 10996 ] final   78.34 input  -57.11 | X-H torsion

> <Gold.Protein.ActiveResidues>
 VAL166  LYS551  ARG553  GLY616  TRP617  ASP618  TYR619  PRO620  LYS621  CYS622 
 ASP623  PHE694  ASN695  SER759  ASP760  ASP761  ALA762  ILE779  LEU786  VAL792 
 PHE793  MET794  SER795  GLU796  ALA797  LYS798  CYS799  TRP800  GLU811  SER814 

> <Gold.Protein.RotatedAtoms>
  152.4718  133.8047  159.6971 H   0  0  0  0  0  0  0  0  0  0  0  0  # atno 6907 bound_to 6896
  150.8711  133.7494  159.2967 H   0  0  0  0  0  0  0  0  0  0  0  0  # atno 6908 bound_to 6896
  151.5029  135.1066  159.9885 H   0  0  0  0  0  0  0  0  0  0  0  0  # atno 6909 bound_to 6896
  146.1255  139.6093  142.9261 H   0  0  0  0  0  0  0  0  0  0  0  0  # atno 7974 bound_to 7965
  155.6428  140.3497  155.4721 H   0  0  0  0  0  0  0  0  0  0  0  0  # atno 8008 bound_to 7997
  155.9912  140.1194  157.0659 H   0  0  0  0  0  0  0  0  0  0  0  0  # atno 8009 bound_to 7997
  154.4220  140.1119  156.5554 H   0  0  0  0  0  0  0  0  0  0  0  0  # atno 8010 bound_to 7997
  140.6899  143.6511  150.8349 H   0  0  0  0  0  0  0  0  0  0  0  0  # atno 10167 bound_to 10162
  157.3372  131.0930  151.1113 H   0  0  0  0  0  0  0  0  0  0  0  0  # atno 10718 bound_to 10713
  153.0140  135.6346  154.1751 H   0  0  0  0  0  0  0  0  0  0  0  0  # atno 10763 bound_to 10752
  154.1492  135.2830  155.3142 H   0  0  0  0  0  0  0  0  0  0  0  0  # atno 10764 bound_to 10752
  154.6066  135.5570  153.7491 H   0  0  0  0  0  0  0  0  0  0  0  0  # atno 10765 bound_to 10752
  139.9217  134.7755  156.1637 H   0  0  0  0  0  0  0  0  0  0  0  0  # atno 11005 bound_to 11000
  145.5375  141.0423  143.2349 LP  0  0  0  0  0  0  0  0  0  0  0  0  # atno 17320 bound_to 7965
  144.7638  139.6893  143.7223 LP  0  0  0  0  0  0  0  0  0  0  0  0  # atno 17321 bound_to 7965
  140.0222  143.5530  152.2795 LP  0  0  0  0  0  0  0  0  0  0  0  0  # atno 17342 bound_to 10162
  139.6293  144.7642  151.2571 LP  0  0  0  0  0  0  0  0  0  0  0  0  # atno 17343 bound_to 10162
  157.2338  130.6537  149.5861 LP  0  0  0  0  0  0  0  0  0  0  0  0  # atno 17370 bound_to 10713
  155.9703  130.4590  150.6020 LP  0  0  0  0  0  0  0  0  0  0  0  0  # atno 17371 bound_to 10713
  141.0743  133.6783  156.2203 LP  0  0  0  0  0  0  0  0  0  0  0  0  # atno 17394 bound_to 11000
  140.6455  134.5121  157.5573 LP  0  0  0  0  0  0  0  0  0  0  0  0  # atno 17395 bound_to 11000

$$$$
