AV-unprocessed.smi:1187|AV-procd|sdf|4976|dock3
  -GOLD-   22720 3573D 1   1.00000     0.00000
 Structure written by MMmdl.
 38 39  0  0  0  0  0  0  0  0  1 V2000
  153.2418  139.1104  158.9450 C   0  0  0  0  0  0  0  0  0  0  0  0
  153.1375  139.4036  157.5559 O   0  0  0  0  0  0  0  0  0  0  0  0
  152.3572  138.5808  156.7697 C   0  0  0  0  0  0  0  0  0  0  0  0
  152.1813  138.9128  155.4116 C   0  0  0  0  0  0  0  0  0  0  0  0
  151.3839  138.0799  154.6033 C   0  0  0  0  0  0  0  0  0  0  0  0
  150.7786  136.9402  155.1847 C   0  0  0  0  0  0  0  0  0  0  0  0
  149.9659  136.0143  154.4766 N   0  0  0  0  0  0  0  0  0  0  0  0
  149.6150  134.7655  154.8285 C   0  0  0  0  0  0  0  0  0  0  0  0
  149.9509  134.1946  155.8659 O   0  0  0  0  0  0  0  0  0  0  0  0
  148.8516  134.1943  153.8852 N   0  0  0  0  0  0  0  0  0  0  0  0
  148.2988  132.8428  153.9525 C   0  0  0  0  0  0  0  0  0  0  0  0
  147.2303  132.5638  152.8792 C   0  0  0  0  0  0  0  0  0  0  0  0
  146.7815  133.4905  152.2018 O   0  0  0  0  0  0  0  0  0  0  0  0
  146.8251  131.2889  152.7035 N   0  0  0  0  0  0  0  0  0  0  0  0
  147.3169  130.1269  153.4429 C   0  0  0  0  0  0  0  0  0  0  0  0
  146.7578  128.9055  152.7124 C   0  0  0  0  0  0  0  0  0  0  0  0
  145.5028  129.4241  152.0246 C   0  0  0  0  0  0  0  0  0  0  0  0
  145.8223  130.8877  151.7186 C   0  0  0  0  0  0  0  0  0  0  0  0
  151.0302  136.6877  156.5490 C   0  0  0  0  0  0  0  0  0  0  0  0
  151.7924  137.4824  157.3292 N   0  0  0  0  0  0  0  0  0  0  0  0
  153.8890  139.8461  159.4220 H   0  0  0  0  0  0  0  0  0  0  0  0
  153.6800  138.1258  159.1142 H   0  0  0  0  0  0  0  0  0  0  0  0
  152.2686  139.1586  159.4359 H   0  0  0  0  0  0  0  0  0  0  0  0
  152.6527  139.7910  154.9958 H   0  0  0  0  0  0  0  0  0  0  0  0
  151.2656  138.3247  153.5592 H   0  0  0  0  0  0  0  0  0  0  0  0
  149.6681  136.3155  153.5603 H   0  0  0  0  0  0  0  0  0  0  0  0
  148.6232  134.7363  153.0652 H   0  0  0  0  0  0  0  0  0  0  0  0
  149.1202  132.1386  153.8193 H   0  0  0  0  0  0  0  0  0  0  0  0
  147.8875  132.6640  154.9473 H   0  0  0  0  0  0  0  0  0  0  0  0
  148.4062  130.0912  153.4852 H   0  0  0  0  0  0  0  0  0  0  0  0
  146.9354  130.1668  154.4643 H   0  0  0  0  0  0  0  0  0  0  0  0
  147.4734  128.5718  151.9597 H   0  0  0  0  0  0  0  0  0  0  0  0
  146.5595  128.0665  153.3801 H   0  0  0  0  0  0  0  0  0  0  0  0
  145.2421  128.8528  151.1332 H   0  0  0  0  0  0  0  0  0  0  0  0
  144.6599  129.3706  152.7149 H   0  0  0  0  0  0  0  0  0  0  0  0
  144.9259  131.5081  151.7674 H   0  0  0  0  0  0  0  0  0  0  0  0
  146.2490  130.9849  150.7191 H   0  0  0  0  0  0  0  0  0  0  0  0
  150.6020  135.8228  157.0348 H   0  0  0  0  0  0  0  0  0  0  0  0
  1  2  1  0  0  0  0
  1 21  1  0  0  0  0
  1 22  1  0  0  0  0
  1 23  1  0  0  0  0
  2  3  1  0  0  0  0
  3 20  1  0  0  0  0
  3  4  2  0  0  0  0
  4  5  1  0  0  0  0
  4 24  1  0  0  0  0
  5  6  2  0  0  0  0
  5 25  1  0  0  0  0
  6  7  1  0  0  0  0
  6 19  1  0  0  0  0
  7  8  1  0  0  0  0
  7 26  1  0  0  0  0
  8  9  2  0  0  0  0
  8 10  1  0  0  0  0
 10 11  1  0  0  0  0
 10 27  1  0  0  0  0
 11 12  1  0  0  0  0
 11 28  1  0  0  0  0
 11 29  1  0  0  0  0
 12 13  2  0  0  0  0
 12 14  1  0  0  0  0
 14 18  1  0  0  0  0
 14 15  1  0  0  0  0
 15 16  1  0  0  0  0
 15 30  1  0  0  0  0
 15 31  1  0  0  0  0
 16 17  1  0  0  0  0
 16 32  1  0  0  0  0
 16 33  1  0  0  0  0
 17 18  1  0  0  0  0
 17 34  1  0  0  0  0
 17 35  1  0  0  0  0
 18 36  1  0  0  0  0
 18 37  1  0  0  0  0
 19 20  2  0  0  0  0
 19 38  1  0  0  0  0
M  END
> <s_m_source_file>
AV-unprocessed.smi

> <i_m_source_file_index>
1187

> <i_lp_mmshare_version>
43012

> <i_f3d_flags>
0

> <s_epik_input>
W0NIM11PYzFbY0hdW2NIXWMoW2NIXW4xKVtOSF1DKD1PKVtOSF1bQ0gyXUMoPU8pTjJbQ0gyXVtDSDJdW0NIMl1bQ0gyXTI=

> <s_epik_cmdline>
J2VwaWtfcHl0aG9uJywgJy1waCcsICc3LjAnLCAnLXRuJywgJzgnLCAnLW1hJywgJzIwMCcsICctbWV0YWxfYmluZGluZycsICctaW1hZScsICc8aW5maWxlLm1hZT4nLCAnLW9tYWUnLCAnPG91dGZpbGUubWFlPic=

> <r_lp_tautomer_probability>
1

> <r_epik_Ionization_Penalty>
0.000141675

> <r_epik_Ionization_Penalty_Charging>
0

> <r_epik_Ionization_Penalty_Neutral>
0.000141675

> <r_epik_State_Penalty>
-0

> <r_epik_Charging_Adjusted_Penalty>
0

> <i_epik_Tot_Q>
0

> <i_epik_Tot_abs_Q>
0

> <r_epik_Metal_State_Penalty>
-0

> <b_epik_Metal_Only>
0

> <s_lp_Force_Field>
OPLS_2005

> <r_lp_Energy>
27.0256

> <b_lp_Chiralities_Consistent>
1

> <s_lp_Variant>
AV-unprocessed.smi:1187-1

> <Gold.Version>
5.8.1

> <Gold.Id.Protein>
6NUR|6NUR_protein|mol2

> <Gold.PLP.Fitness>
41.9863

> <Gold.PLP.PLP>
-33.5116

> <Gold.PLP.part.hbond>
-3.7672

> <Gold.PLP.part.metal>
0.0000

> <Gold.PLP.part.buried>
-2.6929

> <Gold.PLP.part.nonpolar>
-26.7542

> <Gold.PLP.part.repulsive>
0.2410

> <Gold.PLP.ligand.clash>
0.0000

> <Gold.PLP.ligand.torsion>
0.2543

> <Gold.PLP.Chemscore.Hbond>
2.9920

> <Gold.PLP.Chemscore.CHOScore>
0.0000

> <Gold.PLP.Chemscore.Metal>
0.0000

> <Gold.Chemscore.Hbonds>
donor molecule, donor type, donor heavy atom, donor atom, acceptor molecule, acceptor atom, score
      L1  H     7    26       P1  7948  1.00
      L1  H    10    27       P1  7948  1.00
      P1  H  7997  8010       L1     2  1.00

> <Gold.PLP.Chemscore.Internal.Correction>
0.0074

> <Gold.Rescore>
     Score         DG    S(hbond)    S(metal)    S(lipo)     H(rot)  DE(clash)    DE(int)     intcor
     15.41     -17.07       2.44        0.00      64.11       1.58       0.07       1.59       ----

> <Gold.Chemscore.Fitness>
15.4138

> <Gold.Chemscore.DG>
-17.0710

> <Gold.Chemscore.ZeroCoef>
-5.4800

> <Gold.Chemscore.Hbond>
2.4359

> <Gold.Chemscore.Metal>
0.0000

> <Gold.Chemscore.Lipo>
64.1119

> <Gold.Chemscore.Internal_Hbond>
0.0000

> <Gold.Chemscore.DEClash>
0.0665

> <Gold.Chemscore.DEInternal>
1.5907

> <Gold.Chemscore.Rot>
1.5804

> <Gold.Chemscore.Internal.Correction>
   9.000000E+99

> <Gold.Chemscore.Hbonds>
donor molecule, donor type, donor heavy atom, donor atom, acceptor molecule, acceptor atom, score
      L1  H     7    26       P1  7948  0.39
      L1  H    10    27       P1  7948  0.33
      P1  H  7997  8010       L1     2  0.84

> <Gold.Chemscore.Hbond.Weighted>
-8.1358

> <Gold.Chemscore.Metal.Weighted>
-0.0000

> <Gold.Chemscore.Lipo.Weighted>
-7.5011

> <Gold.Chemscore.Internal_Hbond.Weighted>
0.0000

> <Gold.Chemscore.DEClash.Weighted>
0.0665

> <Gold.Chemscore.DEInternal.Weighted>
1.5907

> <Gold.Chemscore.Rot.Weighted>
4.0459

> <Gold.Chemscore.Internal.Correction.Weighted>
   9.000000E+99

> <Gold.Protein.RotatedTorsions>
[ 6907 6896 6895 6894 ] final -157.41 input  -60.11 | X-H torsion
[ 7974 7965 7964 7962 ] final  -65.78 input  175.53 | X-H torsion
[ 8008 7997 7996 7995 ] final   54.97 input   59.86 | X-H torsion
[ 10167 10162 10161 10158 ] final -172.27 input  -65.29 | X-H torsion
[ 10718 10713 10712 10709 ] final  -26.30 input   66.30 | X-H torsion
[ 10763 10752 10751 10750 ] final   27.63 input  -60.55 | X-H torsion
[ 11005 11000 10999 10996 ] final  159.93 input  -57.11 | X-H torsion

> <Gold.Protein.ActiveResidues>
 VAL166  LYS551  ARG553  GLY616  TRP617  ASP618  TYR619  PRO620  LYS621  CYS622 
 ASP623  PHE694  ASN695  SER759  ASP760  ASP761  ALA762  ILE779  LEU786  VAL792 
 PHE793  MET794  SER795  GLU796  ALA797  LYS798  CYS799  TRP800  GLU811  SER814 

> <Gold.Protein.RotatedAtoms>
  151.3025  133.4116  159.2640 H   0  0  0  0  0  0  0  0  0  0  0  0  # atno 6907 bound_to 6896
  151.0183  134.9450  159.8056 H   0  0  0  0  0  0  0  0  0  0  0  0  # atno 6908 bound_to 6896
  152.5318  134.2988  159.9123 H   0  0  0  0  0  0  0  0  0  0  0  0  # atno 6909 bound_to 6896
  145.7500  140.8913  143.0485 H   0  0  0  0  0  0  0  0  0  0  0  0  # atno 7974 bound_to 7965
  155.4935  140.3472  155.4359 H   0  0  0  0  0  0  0  0  0  0  0  0  # atno 8008 bound_to 7997
  156.0961  140.1423  156.9557 H   0  0  0  0  0  0  0  0  0  0  0  0  # atno 8009 bound_to 7997
  154.4664  140.0916  156.7010 H   0  0  0  0  0  0  0  0  0  0  0  0  # atno 8010 bound_to 7997
  139.5754  144.1545  152.1443 H   0  0  0  0  0  0  0  0  0  0  0  0  # atno 10167 bound_to 10162
  156.4530  130.4488  149.6977 H   0  0  0  0  0  0  0  0  0  0  0  0  # atno 10718 bound_to 10713
  153.0543  135.6532  154.0616 H   0  0  0  0  0  0  0  0  0  0  0  0  # atno 10763 bound_to 10752
  154.0297  135.2912  155.3371 H   0  0  0  0  0  0  0  0  0  0  0  0  # atno 10764 bound_to 10752
  154.6849  135.5305  153.8380 H   0  0  0  0  0  0  0  0  0  0  0  0  # atno 10765 bound_to 10752
  140.2010  134.8338  157.3018 H   0  0  0  0  0  0  0  0  0  0  0  0  # atno 11005 bound_to 11000
  144.6852  139.9578  143.7479 LP  0  0  0  0  0  0  0  0  0  0  0  0  # atno 17320 bound_to 7965
  146.0366  139.3383  143.0723 LP  0  0  0  0  0  0  0  0  0  0  0  0  # atno 17321 bound_to 7965
  140.1086  144.5476  150.6940 LP  0  0  0  0  0  0  0  0  0  0  0  0  # atno 17342 bound_to 10162
  140.7037  143.2452  151.4790 LP  0  0  0  0  0  0  0  0  0  0  0  0  # atno 17343 bound_to 10162
  156.3796  130.7572  151.2564 LP  0  0  0  0  0  0  0  0  0  0  0  0  # atno 17370 bound_to 10713
  157.7502  131.0299  150.4115 LP  0  0  0  0  0  0  0  0  0  0  0  0  # atno 17371 bound_to 10713
  140.2054  134.4203  155.7640 LP  0  0  0  0  0  0  0  0  0  0  0  0  # atno 17394 bound_to 11000
  141.2227  133.7092  156.8252 LP  0  0  0  0  0  0  0  0  0  0  0  0  # atno 17395 bound_to 11000

$$$$
