AV-unprocessed.smi:2003|AV-procd|sdf|8119|dock3
  -GOLD-   2272010353D 1   1.00000     0.00000
 Structure written by MMmdl.
 44 45  0  0  0  0  0  0  0  0  2 V2000
  151.6433  140.8343  156.8284 C   0  0  0  0  0  0  0  0  0  0  0  0
  150.5669  140.4929  155.8408 C   0  0  0  0  0  0  0  0  0  0  0  0
  150.2839  139.2254  155.2533 C   0  0  0  0  0  0  0  0  0  0  0  0
  149.2158  139.5006  154.4437 C   0  0  0  0  0  0  0  0  0  0  0  0
  148.5232  138.6631  153.6270 N   0  0  0  0  0  0  0  0  0  0  0  0
  147.1929  138.5579  153.4651 C   0  0  0  0  0  0  0  0  0  0  0  0
  146.3470  139.2501  154.0308 O   0  0  0  0  0  0  0  0  0  0  0  0
  146.8881  137.5843  152.5953 N   0  0  0  0  0  0  0  0  0  0  0  0
  145.5367  137.2021  152.1873 C   0  0  0  0  0  0  0  0  0  0  0  0
  145.5007  135.9742  151.2375 C   0  0  2  0  0  0  0  0  0  0  0  0
  144.0388  135.5410  150.9919 C   0  0  0  0  0  0  0  0  0  0  0  0
  146.3651  134.8484  151.7206 N   0  3  0  0  0  0  0  0  0  0  0  0
  146.1513  134.4761  153.1461 C   0  0  0  0  0  0  0  0  0  0  0  0
  147.0909  133.3337  153.5686 C   0  0  0  0  0  0  0  0  0  0  0  0
  146.9019  132.2133  152.7176 O   0  0  0  0  0  0  0  0  0  0  0  0
  147.2127  132.5273  151.3686 C   0  0  0  0  0  0  0  0  0  0  0  0
  146.2696  133.6327  150.8670 C   0  0  0  0  0  0  0  0  0  0  0  0
  148.9048  140.8373  154.5561 N   0  0  0  0  0  0  0  0  0  0  0  0
  147.8625  141.5996  153.8970 C   0  0  0  0  0  0  0  0  0  0  0  0
  149.7442  141.4473  155.4202 N   0  0  0  0  0  0  0  0  0  0  0  0
  152.2026  139.9464  157.1247 H   0  0  0  0  0  0  0  0  0  0  0  0
  151.2227  141.2771  157.7317 H   0  0  0  0  0  0  0  0  0  0  0  0
  152.3519  141.5466  156.4053 H   0  0  0  0  0  0  0  0  0  0  0  0
  150.7930  138.2871  155.4131 H   0  0  0  0  0  0  0  0  0  0  0  0
  149.0911  138.0365  153.0760 H   0  0  0  0  0  0  0  0  0  0  0  0
  147.6502  137.0790  152.1675 H   0  0  0  0  0  0  0  0  0  0  0  0
  144.9057  137.0328  153.0616 H   0  0  0  0  0  0  0  0  0  0  0  0
  145.0928  138.0657  151.6923 H   0  0  0  0  0  0  0  0  0  0  0  0
  145.8931  136.2997  150.2725 H   0  0  0  0  0  0  0  0  0  0  0  0
  143.4045  136.4011  150.7751 H   0  0  0  0  0  0  0  0  0  0  0  0
  143.6175  135.0316  151.8588 H   0  0  0  0  0  0  0  0  0  0  0  0
  143.9500  134.8754  150.1334 H   0  0  0  0  0  0  0  0  0  0  0  0
  146.3475  135.3210  153.8045 H   0  0  0  0  0  0  0  0  0  0  0  0
  145.1113  134.1815  153.2953 H   0  0  0  0  0  0  0  0  0  0  0  0
  148.1332  133.6561  153.5411 H   0  0  0  0  0  0  0  0  0  0  0  0
  146.8790  133.0352  154.5955 H   0  0  0  0  0  0  0  0  0  0  0  0
  148.2565  132.8343  151.2814 H   0  0  0  0  0  0  0  0  0  0  0  0
  147.0938  131.6292  150.7623 H   0  0  0  0  0  0  0  0  0  0  0  0
  145.2407  133.2692  150.8630 H   0  0  0  0  0  0  0  0  0  0  0  0
  146.5319  133.8584  149.8345 H   0  0  0  0  0  0  0  0  0  0  0  0
  146.9051  141.0905  154.0124 H   0  0  0  0  0  0  0  0  0  0  0  0
  148.0929  141.6906  152.8354 H   0  0  0  0  0  0  0  0  0  0  0  0
  147.7837  142.5976  154.3305 H   0  0  0  0  0  0  0  0  0  0  0  0
  147.3183  135.1757  151.6554 H   0  0  0  0  0  0  0  0  0  0  0  0
  1  2  1  0  0  0  0
  1 21  1  0  0  0  0
  1 22  1  0  0  0  0
  1 23  1  0  0  0  0
  2 20  2  0  0  0  0
  2  3  1  0  0  0  0
  3  4  2  0  0  0  0
  3 24  1  0  0  0  0
  4  5  1  0  0  0  0
  4 18  1  0  0  0  0
  5  6  1  0  0  0  0
  5 25  1  0  0  0  0
  6  7  2  0  0  0  0
  6  8  1  0  0  0  0
  8  9  1  0  0  0  0
  8 26  1  0  0  0  0
  9 10  1  0  0  0  0
  9 27  1  0  0  0  0
  9 28  1  0  0  0  0
 10 11  1  0  0  0  0
 10 12  1  0  0  0  0
 10 29  1  0  0  0  0
 11 30  1  0  0  0  0
 11 31  1  0  0  0  0
 11 32  1  0  0  0  0
 12 17  1  0  0  0  0
 12 13  1  0  0  0  0
 12 44  1  0  0  0  0
 13 14  1  0  0  0  0
 13 33  1  0  0  0  0
 13 34  1  0  0  0  0
 14 15  1  0  0  0  0
 14 35  1  0  0  0  0
 14 36  1  0  0  0  0
 15 16  1  0  0  0  0
 16 17  1  0  0  0  0
 16 37  1  0  0  0  0
 16 38  1  0  0  0  0
 17 39  1  0  0  0  0
 17 40  1  0  0  0  0
 18 19  1  0  0  0  0
 18 20  1  0  0  0  0
 19 41  1  0  0  0  0
 19 42  1  0  0  0  0
 19 43  1  0  0  0  0
M  CHG  1  12   1
M  END
> <s_m_source_file>
AV-unprocessed.smi

> <i_m_source_file_index>
2003

> <i_lp_mmshare_version>
43012

> <i_f3d_flags>
0

> <s_epik_input>
W0NIM11jMVtjSF1jKG4objEpW0NIM10pW05IXUMoPU8pW05IXVtDSDJdW0NASF0oW0NIM10pTjJbQ0gyXVtDSDJdT1tDSDJdW0NIMl0y

> <s_epik_cmdline>
J2VwaWtfcHl0aG9uJywgJy1waCcsICc3LjAnLCAnLXRuJywgJzgnLCAnLW1hJywgJzIwMCcsICctbWV0YWxfYmluZGluZycsICctaW1hZScsICc8aW5maWxlLm1hZT4nLCAnLW9tYWUnLCAnPG91dGZpbGUubWFlPic=

> <r_lp_tautomer_probability>
1

> <r_epik_Ionization_Penalty>
0.663903

> <r_epik_Ionization_Penalty_Charging>
0.663826

> <r_epik_Ionization_Penalty_Neutral>
7.78239e-05

> <r_epik_State_Penalty>
0.683414

> <r_epik_Charging_Adjusted_Penalty>
1.34724

> <i_epik_Tot_Q>
1

> <i_epik_Tot_abs_Q>
1

> <r_epik_Metal_State_Penalty>
0.683419

> <b_epik_Metal_Only>
0

> <s_lp_Force_Field>
OPLS_2005

> <r_lp_Energy>
28.7948

> <b_lp_Chiralities_Consistent>
1

> <s_lp_Variant>
AV-unprocessed.smi:2003-3

> <Gold.Version>
5.8.1

> <Gold.Id.Protein>
6NUR|6NUR_protein|mol2

> <Gold.PLP.Fitness>
42.3820

> <Gold.PLP.PLP>
-32.0037

> <Gold.PLP.part.hbond>
-4.3184

> <Gold.PLP.part.metal>
0.0000

> <Gold.PLP.part.buried>
-0.3459

> <Gold.PLP.part.nonpolar>
-28.5978

> <Gold.PLP.part.repulsive>
0.5383

> <Gold.PLP.ligand.clash>
0.0000

> <Gold.PLP.ligand.torsion>
0.5358

> <Gold.PLP.Chemscore.Hbond>
3.7977

> <Gold.PLP.Chemscore.CHOScore>
0.0000

> <Gold.PLP.Chemscore.Metal>
0.0000

> <Gold.Chemscore.Hbonds>
donor molecule, donor type, donor heavy atom, donor atom, acceptor molecule, acceptor atom, score
      L1  H     5    25       P1  7948  0.60
      L1  H     8    26       P1  7948  1.00
      L1  H    12    44       P1  7948  2.00

> <Gold.PLP.Chemscore.Internal.Correction>
0.0569

> <Gold.Rescore>
     Score         DG    S(hbond)    S(metal)    S(lipo)     H(rot)  DE(clash)    DE(int)     intcor
     15.83     -17.06       2.49        0.00      61.51       1.54       0.60       0.63       ----

> <Gold.Chemscore.Fitness>
15.8291

> <Gold.Chemscore.DG>
-17.0648

> <Gold.Chemscore.ZeroCoef>
-5.4800

> <Gold.Chemscore.Hbond>
2.4940

> <Gold.Chemscore.Metal>
0.0000

> <Gold.Chemscore.Lipo>
61.5126

> <Gold.Chemscore.Internal_Hbond>
0.0000

> <Gold.Chemscore.DEClash>
0.6031

> <Gold.Chemscore.DEInternal>
0.6327

> <Gold.Chemscore.Rot>
1.5398

> <Gold.Chemscore.Internal.Correction>
   9.000000E+99

> <Gold.Chemscore.Hbonds>
donor molecule, donor type, donor heavy atom, donor atom, acceptor molecule, acceptor atom, score
      L1  H     5    25       P1  7948  0.58
      L1  H     8    26       P1  7948  0.97
      L1  H    12    44       P1  7948  0.90

> <Gold.Chemscore.Hbond.Weighted>
-8.3298

> <Gold.Chemscore.Metal.Weighted>
-0.0000

> <Gold.Chemscore.Lipo.Weighted>
-7.1970

> <Gold.Chemscore.Internal_Hbond.Weighted>
0.0000

> <Gold.Chemscore.DEClash.Weighted>
0.6031

> <Gold.Chemscore.DEInternal.Weighted>
0.6327

> <Gold.Chemscore.Rot.Weighted>
3.9420

> <Gold.Chemscore.Internal.Correction.Weighted>
   9.000000E+99

> <Gold.Protein.RotatedTorsions>
[ 6907 6896 6895 6894 ] final  176.06 input  -60.11 | X-H torsion
[ 7974 7965 7964 7962 ] final   28.69 input  175.53 | X-H torsion
[ 8008 7997 7996 7995 ] final  157.61 input   59.86 | X-H torsion
[ 10167 10162 10161 10158 ] final  -43.13 input  -65.29 | X-H torsion
[ 10718 10713 10712 10709 ] final    1.20 input   66.30 | X-H torsion
[ 10763 10752 10751 10750 ] final   38.78 input  -60.55 | X-H torsion
[ 11005 11000 10999 10996 ] final  -70.75 input  -57.11 | X-H torsion

> <Gold.Protein.ActiveResidues>
 VAL166  LYS551  ARG553  GLY616  TRP617  ASP618  TYR619  PRO620  LYS621  CYS622 
 ASP623  PHE694  ASN695  SER759  ASP760  ASP761  ALA762  ILE779  LEU786  VAL792 
 PHE793  MET794  SER795  GLU796  ALA797  LYS798  CYS799  TRP800  GLU811  SER814 

> <Gold.Protein.RotatedAtoms>
  151.7261  133.3316  159.3327 H   0  0  0  0  0  0  0  0  0  0  0  0  # atno 6907 bound_to 6896
  150.7632  134.6404  159.6243 H   0  0  0  0  0  0  0  0  0  0  0  0  # atno 6908 bound_to 6896
  152.3621  134.6859  160.0255 H   0  0  0  0  0  0  0  0  0  0  0  0  # atno 6909 bound_to 6896
  146.1714  139.7021  142.8965 H   0  0  0  0  0  0  0  0  0  0  0  0  # atno 7974 bound_to 7965
  156.2353  140.1880  156.7135 H   0  0  0  0  0  0  0  0  0  0  0  0  # atno 8008 bound_to 7997
  154.6096  140.0624  156.9503 H   0  0  0  0  0  0  0  0  0  0  0  0  # atno 8009 bound_to 7997
  155.2039  140.3294  155.4341 H   0  0  0  0  0  0  0  0  0  0  0  0  # atno 8010 bound_to 7997
  140.6945  143.3000  151.3308 H   0  0  0  0  0  0  0  0  0  0  0  0  # atno 10167 bound_to 10162
  156.8446  130.5533  149.5674 H   0  0  0  0  0  0  0  0  0  0  0  0  # atno 10718 bound_to 10713
  152.9989  135.6239  154.2359 H   0  0  0  0  0  0  0  0  0  0  0  0  # atno 10763 bound_to 10752
  154.2100  135.2800  155.2963 H   0  0  0  0  0  0  0  0  0  0  0  0  # atno 10764 bound_to 10752
  154.5614  135.5704  153.7069 H   0  0  0  0  0  0  0  0  0  0  0  0  # atno 10765 bound_to 10752
  141.1580  133.6798  156.6800 H   0  0  0  0  0  0  0  0  0  0  0  0  # atno 11005 bound_to 11000
  145.4329  141.0416  143.2900 LP  0  0  0  0  0  0  0  0  0  0  0  0  # atno 17320 bound_to 7965
  144.8169  139.5860  143.7004 LP  0  0  0  0  0  0  0  0  0  0  0  0  # atno 17321 bound_to 7965
  139.6384  144.0587  152.2534 LP  0  0  0  0  0  0  0  0  0  0  0  0  # atno 17342 bound_to 10162
  140.0084  144.6242  150.7669 LP  0  0  0  0  0  0  0  0  0  0  0  0  # atno 17343 bound_to 10162
  156.0861  130.5859  150.9651 LP  0  0  0  0  0  0  0  0  0  0  0  0  # atno 17370 bound_to 10713
  157.6337  131.0918  150.8392 LP  0  0  0  0  0  0  0  0  0  0  0  0  # atno 17371 bound_to 10713
  140.3109  134.8086  157.4176 LP  0  0  0  0  0  0  0  0  0  0  0  0  # atno 17394 bound_to 11000
  140.1179  134.5258  155.8209 LP  0  0  0  0  0  0  0  0  0  0  0  0  # atno 17395 bound_to 11000

$$$$
