AV-unprocessed.smi:1481|AV-procd|sdf|5987|dock3
  -GOLD-   22720 6 83D 1   1.00000     0.00000
 Structure written by MMmdl.
 39 40  0  0  0  0  0  0  0  0  1 V2000
  148.8841  137.8862  156.1942 O   0  0  0  0  0  0  0  0  0  0  0  0
  148.8593  137.5065  155.0232 C   0  0  0  0  0  0  0  0  0  0  0  0
  148.9874  138.3220  153.9670 N   0  0  0  0  0  0  0  0  0  0  0  0
  149.1925  139.7649  154.0510 C   0  0  0  0  0  0  0  0  0  0  0  0
  150.0609  140.2092  155.2200 C   0  0  0  0  0  0  0  0  0  0  0  0
  151.3084  139.6115  155.4971 C   0  0  0  0  0  0  0  0  0  0  0  0
  152.0587  140.0721  156.5954 C   0  0  0  0  0  0  0  0  0  0  0  0
  151.5450  141.1233  157.3916 C   0  0  0  0  0  0  0  0  0  0  0  0
  152.2763  141.5949  158.5038 N   0  0  0  0  0  0  0  0  0  0  0  0
  151.8161  142.8198  159.1560 C   0  0  0  0  0  0  0  0  0  0  0  0
  152.8753  143.3311  160.1469 C   0  0  0  0  0  0  0  0  0  0  0  0
  153.1976  142.3026  161.0768 O   0  0  0  0  0  0  0  0  0  0  0  0
  153.7486  141.1600  160.4308 C   0  0  0  0  0  0  0  0  0  0  0  0
  152.7234  140.5714  159.4460 C   0  0  0  0  0  0  0  0  0  0  0  0
  150.3533  141.7065  157.1108 N   0  0  0  0  0  0  0  0  0  0  0  0
  149.6371  141.2598  156.0580 C   0  0  0  0  0  0  0  0  0  0  0  0
  148.7132  136.2281  154.6505 N   0  0  0  0  0  0  0  0  0  0  0  0
  148.6010  135.0979  155.5669 C   0  0  0  0  0  0  0  0  0  0  0  0
  149.6386  134.0044  155.2607 C   0  0  0  0  0  0  0  0  0  0  0  0
  150.8580  134.4747  155.5188 F   0  0  0  0  0  0  0  0  0  0  0  0
  149.4219  132.9365  156.0288 F   0  0  0  0  0  0  0  0  0  0  0  0
  149.5859  133.6407  153.9794 F   0  0  0  0  0  0  0  0  0  0  0  0
  148.9536  137.9182  153.0424 H   0  0  0  0  0  0  0  0  0  0  0  0
  149.6689  140.0946  153.1275 H   0  0  0  0  0  0  0  0  0  0  0  0
  148.2257  140.2693  154.0965 H   0  0  0  0  0  0  0  0  0  0  0  0
  151.6931  138.8124  154.8810 H   0  0  0  0  0  0  0  0  0  0  0  0
  153.0190  139.6251  156.8041 H   0  0  0  0  0  0  0  0  0  0  0  0
  151.6162  143.5920  158.4121 H   0  0  0  0  0  0  0  0  0  0  0  0
  150.8803  142.6203  159.6805 H   0  0  0  0  0  0  0  0  0  0  0  0
  153.7744  143.6571  159.6215 H   0  0  0  0  0  0  0  0  0  0  0  0
  152.4940  144.1952  160.6911 H   0  0  0  0  0  0  0  0  0  0  0  0
  154.6719  141.4300  159.9153 H   0  0  0  0  0  0  0  0  0  0  0  0
  154.0115  140.4185  161.1852 H   0  0  0  0  0  0  0  0  0  0  0  0
  151.8575  140.1936  159.9912 H   0  0  0  0  0  0  0  0  0  0  0  0
  153.1724  139.7201  158.9364 H   0  0  0  0  0  0  0  0  0  0  0  0
  148.6941  141.7562  155.8824 H   0  0  0  0  0  0  0  0  0  0  0  0
  148.7077  136.0157  153.6636 H   0  0  0  0  0  0  0  0  0  0  0  0
  148.6936  135.4318  156.6018 H   0  0  0  0  0  0  0  0  0  0  0  0
  147.5961  134.6870  155.4675 H   0  0  0  0  0  0  0  0  0  0  0  0
  1  2  2  0  0  0  0
  2  3  1  0  0  0  0
  2 17  1  0  0  0  0
  3  4  1  0  0  0  0
  3 23  1  0  0  0  0
  4  5  1  0  0  0  0
  4 24  1  0  0  0  0
  4 25  1  0  0  0  0
  5 16  1  0  0  0  0
  5  6  2  0  0  0  0
  6  7  1  0  0  0  0
  6 26  1  0  0  0  0
  7  8  2  0  0  0  0
  7 27  1  0  0  0  0
  8  9  1  0  0  0  0
  8 15  1  0  0  0  0
  9 14  1  0  0  0  0
  9 10  1  0  0  0  0
 10 11  1  0  0  0  0
 10 28  1  0  0  0  0
 10 29  1  0  0  0  0
 11 12  1  0  0  0  0
 11 30  1  0  0  0  0
 11 31  1  0  0  0  0
 12 13  1  0  0  0  0
 13 14  1  0  0  0  0
 13 32  1  0  0  0  0
 13 33  1  0  0  0  0
 14 34  1  0  0  0  0
 14 35  1  0  0  0  0
 15 16  2  0  0  0  0
 16 36  1  0  0  0  0
 17 18  1  0  0  0  0
 17 37  1  0  0  0  0
 18 19  1  0  0  0  0
 18 38  1  0  0  0  0
 18 39  1  0  0  0  0
 19 20  1  0  0  0  0
 19 21  1  0  0  0  0
 19 22  1  0  0  0  0
M  END
> <s_m_source_file>
AV-unprocessed.smi

> <i_m_source_file_index>
1481

> <i_lp_mmshare_version>
43012

> <i_f3d_flags>
0

> <s_epik_input>
RkMoRikoRilbQ0gyXVtOSF1DKD1PKVtOSF1bQ0gyXWMxW2NIXVtjSF1jKG5bY0hdMSlOMltDSDJdW0NIMl1PW0NIMl1bQ0gyXTI=

> <s_epik_cmdline>
J2VwaWtfcHl0aG9uJywgJy1waCcsICc3LjAnLCAnLXRuJywgJzgnLCAnLW1hJywgJzIwMCcsICctbWV0YWxfYmluZGluZycsICctaW1hZScsICc8aW5maWxlLm1hZT4nLCAnLW9tYWUnLCAnPG91dGZpbGUubWFlPic=

> <r_lp_tautomer_probability>
1

> <r_epik_Ionization_Penalty>
0.00288034

> <r_epik_Ionization_Penalty_Charging>
0

> <r_epik_Ionization_Penalty_Neutral>
0.00288034

> <r_epik_State_Penalty>
0.00199456

> <r_epik_Charging_Adjusted_Penalty>
0.00199456

> <i_epik_Tot_Q>
0

> <i_epik_Tot_abs_Q>
0

> <r_epik_Metal_State_Penalty>
-0

> <b_epik_Metal_Only>
0

> <s_lp_Force_Field>
OPLS_2005

> <r_lp_Energy>
12.6538

> <b_lp_Chiralities_Consistent>
1

> <s_lp_Variant>
AV-unprocessed.smi:1481-1

> <Gold.Version>
5.8.1

> <Gold.Id.Protein>
6NUR|6NUR_protein|mol2

> <Gold.PLP.Fitness>
41.9133

> <Gold.PLP.PLP>
-36.2256

> <Gold.PLP.part.hbond>
-2.1972

> <Gold.PLP.part.metal>
0.0000

> <Gold.PLP.part.buried>
-2.8409

> <Gold.PLP.part.nonpolar>
-31.8912

> <Gold.PLP.part.repulsive>
0.1405

> <Gold.PLP.ligand.clash>
0.0000

> <Gold.PLP.ligand.torsion>
0.4988

> <Gold.PLP.Chemscore.Hbond>
1.9920

> <Gold.PLP.Chemscore.CHOScore>
0.1147

> <Gold.PLP.Chemscore.Metal>
0.0000

> <Gold.Chemscore.Hbonds>
donor molecule, donor type, donor heavy atom, donor atom, acceptor molecule, acceptor atom, score
      L1  H     3    23       P1  7948  0.98
      L1  H    17    37       P1  7948  1.00

> <Gold.PLP.Chemscore.Internal.Correction>
0.3654

> <Gold.Rescore>
     Score         DG    S(hbond)    S(metal)    S(lipo)     H(rot)  DE(clash)    DE(int)     intcor
     14.09     -15.92       1.95        0.00      79.38       2.09       0.08       1.75       ----

> <Gold.Chemscore.Fitness>
14.0860

> <Gold.Chemscore.DG>
-15.9166

> <Gold.Chemscore.ZeroCoef>
-5.4800

> <Gold.Chemscore.Hbond>
1.9460

> <Gold.Chemscore.Metal>
0.0000

> <Gold.Chemscore.Lipo>
79.3777

> <Gold.Chemscore.Internal_Hbond>
0.0000

> <Gold.Chemscore.DEClash>
0.0780

> <Gold.Chemscore.DEInternal>
1.7526

> <Gold.Chemscore.Rot>
2.0899

> <Gold.Chemscore.Internal.Correction>
   9.000000E+99

> <Gold.Chemscore.Hbonds>
donor molecule, donor type, donor heavy atom, donor atom, acceptor molecule, acceptor atom, score
      L1  H     3    23       P1  7948  0.86
      L1  H    17    37       P1  7948  0.99

> <Gold.Chemscore.Hbond.Weighted>
-6.4996

> <Gold.Chemscore.Metal.Weighted>
-0.0000

> <Gold.Chemscore.Lipo.Weighted>
-9.2872

> <Gold.Chemscore.Internal_Hbond.Weighted>
0.0000

> <Gold.Chemscore.DEClash.Weighted>
0.0780

> <Gold.Chemscore.DEInternal.Weighted>
1.7526

> <Gold.Chemscore.Rot.Weighted>
5.3502

> <Gold.Chemscore.Internal.Correction.Weighted>
   9.000000E+99

> <Gold.Protein.RotatedTorsions>
[ 6907 6896 6895 6894 ] final  137.64 input  -60.11 | X-H torsion
[ 7974 7965 7964 7962 ] final  126.90 input  175.53 | X-H torsion
[ 8008 7997 7996 7995 ] final    8.28 input   59.86 | X-H torsion
[ 10167 10162 10161 10158 ] final  116.95 input  -65.29 | X-H torsion
[ 10718 10713 10712 10709 ] final   44.54 input   66.30 | X-H torsion
[ 10763 10752 10751 10750 ] final  104.96 input  -60.55 | X-H torsion
[ 11005 11000 10999 10996 ] final  -48.92 input  -57.11 | X-H torsion

> <Gold.Protein.ActiveResidues>
 VAL166  LYS551  ARG553  GLY616  TRP617  ASP618  TYR619  PRO620  LYS621  CYS622 
 ASP623  PHE694  ASN695  SER759  ASP760  ASP761  ALA762  ILE779  LEU786  VAL792 
 PHE793  MET794  SER795  GLU796  ALA797  LYS798  CYS799  TRP800  GLU811  SER814 

> <Gold.Protein.RotatedAtoms>
  152.2758  133.5424  159.5466 H   0  0  0  0  0  0  0  0  0  0  0  0  # atno 6907 bound_to 6896
  150.7176  134.0634  159.3848 H   0  0  0  0  0  0  0  0  0  0  0  0  # atno 6908 bound_to 6896
  151.8546  135.0546  160.0513 H   0  0  0  0  0  0  0  0  0  0  0  0  # atno 6909 bound_to 6896
  145.0566  139.3839  143.5027 H   0  0  0  0  0  0  0  0  0  0  0  0  # atno 7974 bound_to 7965
  154.7648  140.2791  155.6185 H   0  0  0  0  0  0  0  0  0  0  0  0  # atno 8008 bound_to 7997
  156.2922  140.2653  156.2363 H   0  0  0  0  0  0  0  0  0  0  0  0  # atno 8009 bound_to 7997
  154.9973  140.0373  157.2335 H   0  0  0  0  0  0  0  0  0  0  0  0  # atno 8010 bound_to 7997
  139.6212  144.7101  151.2631 H   0  0  0  0  0  0  0  0  0  0  0  0  # atno 10167 bound_to 10162
  157.4280  130.8008  149.7576 H   0  0  0  0  0  0  0  0  0  0  0  0  # atno 10718 bound_to 10713
  153.3730  135.3925  155.1802 H   0  0  0  0  0  0  0  0  0  0  0  0  # atno 10763 bound_to 10752
  154.8697  135.3707  154.4954 H   0  0  0  0  0  0  0  0  0  0  0  0  # atno 10764 bound_to 10752
  153.5423  135.7084  153.5691 H   0  0  0  0  0  0  0  0  0  0  0  0  # atno 10765 bound_to 10752
  141.0729  133.6674  156.3510 H   0  0  0  0  0  0  0  0  0  0  0  0  # atno 11005 bound_to 11000
  146.3522  140.0243  142.8656 LP  0  0  0  0  0  0  0  0  0  0  0  0  # atno 17320 bound_to 7965
  145.1461  140.9598  143.4460 LP  0  0  0  0  0  0  0  0  0  0  0  0  # atno 17321 bound_to 7965
  140.7383  143.6653  150.8128 LP  0  0  0  0  0  0  0  0  0  0  0  0  # atno 17342 bound_to 10162
  140.0264  143.5489  152.2779 LP  0  0  0  0  0  0  0  0  0  0  0  0  # atno 17343 bound_to 10162
  155.9903  130.3945  150.3034 LP  0  0  0  0  0  0  0  0  0  0  0  0  # atno 17370 bound_to 10713
  157.1188  131.0241  151.3018 LP  0  0  0  0  0  0  0  0  0  0  0  0  # atno 17371 bound_to 10713
  140.5636  134.5910  157.5440 LP  0  0  0  0  0  0  0  0  0  0  0  0  # atno 17394 bound_to 11000
  139.9541  134.7565  156.0380 LP  0  0  0  0  0  0  0  0  0  0  0  0  # atno 17395 bound_to 11000

$$$$
