AV-unprocessed.smi:1643|AV-procd|sdf|6576|dock3
  -GOLD-   22720 7263D 1   1.00000     0.00000
 Structure written by MMmdl.
 53 55  0  0  0  0  0  0  0  0  1 V2000
  146.9127  135.7518  154.1340 C   0  0  0  0  0  0  0  0  0  0  0  0
  146.3426  136.8946  154.9778 C   0  0  0  0  0  0  0  0  0  0  0  0
  146.4701  136.8350  156.2010 O   0  0  0  0  0  0  0  0  0  0  0  0
  145.7187  137.9241  154.3564 N   0  0  0  0  0  0  0  0  0  0  0  0
  145.6195  138.0129  152.8952 C   0  0  0  0  0  0  0  0  0  0  0  0
  146.8061  138.8060  152.3235 C   0  0  0  0  0  0  0  0  0  0  0  0
  146.9838  140.2186  152.9194 C   0  0  0  0  0  0  0  0  0  0  0  0
  147.3986  140.2199  154.3294 N   0  0  0  0  0  0  0  0  0  0  0  0
  148.2724  141.3494  154.6559 C   0  0  0  0  0  0  0  0  0  0  0  0
  149.1320  141.1702  155.9245 C   0  0  2  0  0  0  0  0  0  0  0  0
  148.7026  142.1047  156.8957 O   0  0  0  0  0  0  0  0  0  0  0  0
  150.6254  141.4054  155.6313 C   0  0  0  0  0  0  0  0  0  0  0  0
  151.4813  140.9095  156.6938 N   0  0  0  0  0  0  0  0  0  0  0  0
  152.1934  139.7662  156.7031 C   0  0  0  0  0  0  0  0  0  0  0  0
  152.9181  139.5101  157.7888 N   0  0  0  0  0  0  0  0  0  0  0  0
  152.6401  140.6141  158.5771 C   0  0  0  0  0  0  0  0  0  0  0  0
  153.0952  140.9580  159.8688 C   0  0  0  0  0  0  0  0  0  0  0  0
  152.6710  142.1532  160.4925 C   0  0  0  0  0  0  0  0  0  0  0  0
  153.1811  142.4813  161.8848 C   0  0  0  0  0  0  0  0  0  0  0  0
  151.7800  143.0282  159.8204 C   0  0  0  0  0  0  0  0  0  0  0  0
  151.3076  144.3160  160.4717 C   0  0  0  0  0  0  0  0  0  0  0  0
  151.3183  142.7014  158.5284 C   0  0  0  0  0  0  0  0  0  0  0  0
  151.7446  141.5076  157.9204 C   0  0  0  0  0  0  0  0  0  0  0  0
  146.2477  140.2094  155.2452 C   0  0  0  0  0  0  0  0  0  0  0  0
  145.1849  139.1056  155.0432 C   0  0  0  0  0  0  0  0  0  0  0  0
  146.1383  135.2989  153.5152 H   0  0  0  0  0  0  0  0  0  0  0  0
  147.3233  134.9706  154.7744 H   0  0  0  0  0  0  0  0  0  0  0  0
  147.7159  136.1105  153.4904 H   0  0  0  0  0  0  0  0  0  0  0  0
  145.5861  137.0209  152.4420 H   0  0  0  0  0  0  0  0  0  0  0  0
  144.6827  138.4857  152.5985 H   0  0  0  0  0  0  0  0  0  0  0  0
  147.7273  138.2394  152.4675 H   0  0  0  0  0  0  0  0  0  0  0  0
  146.6770  138.8925  151.2445 H   0  0  0  0  0  0  0  0  0  0  0  0
  147.7293  140.7212  152.3059 H   0  0  0  0  0  0  0  0  0  0  0  0
  146.0737  140.8064  152.7909 H   0  0  0  0  0  0  0  0  0  0  0  0
  148.9212  141.5503  153.8019 H   0  0  0  0  0  0  0  0  0  0  0  0
  147.6740  142.2524  154.7880 H   0  0  0  0  0  0  0  0  0  0  0  0
  149.0131  140.1718  156.3434 H   0  0  0  0  0  0  0  0  0  0  0  0
  148.5670  142.9376  156.4704 H   0  0  0  0  0  0  0  0  0  0  0  0
  150.9111  140.9035  154.7059 H   0  0  0  0  0  0  0  0  0  0  0  0
  150.8262  142.4678  155.4841 H   0  0  0  0  0  0  0  0  0  0  0  0
  152.1829  139.0862  155.8635 H   0  0  0  0  0  0  0  0  0  0  0  0
  153.7746  140.2916  160.3799 H   0  0  0  0  0  0  0  0  0  0  0  0
  152.3495  142.5872  162.5817 H   0  0  0  0  0  0  0  0  0  0  0  0
  153.7463  143.4136  161.8743 H   0  0  0  0  0  0  0  0  0  0  0  0
  153.8365  141.6970  162.2640 H   0  0  0  0  0  0  0  0  0  0  0  0
  150.6622  144.8865  159.8027 H   0  0  0  0  0  0  0  0  0  0  0  0
  152.1568  144.9473  160.7350 H   0  0  0  0  0  0  0  0  0  0  0  0
  150.7420  144.0986  161.3781 H   0  0  0  0  0  0  0  0  0  0  0  0
  150.6397  143.3582  158.0043 H   0  0  0  0  0  0  0  0  0  0  0  0
  146.6276  140.1134  156.2630 H   0  0  0  0  0  0  0  0  0  0  0  0
  145.7462  141.1779  155.2158 H   0  0  0  0  0  0  0  0  0  0  0  0
  144.3619  139.5253  154.4642 H   0  0  0  0  0  0  0  0  0  0  0  0
  144.7265  138.8445  155.9974 H   0  0  0  0  0  0  0  0  0  0  0  0
  1  2  1  0  0  0  0
  1 26  1  0  0  0  0
  1 27  1  0  0  0  0
  1 28  1  0  0  0  0
  2  3  2  0  0  0  0
  2  4  1  0  0  0  0
  4 25  1  0  0  0  0
  4  5  1  0  0  0  0
  5  6  1  0  0  0  0
  5 29  1  0  0  0  0
  5 30  1  0  0  0  0
  6  7  1  0  0  0  0
  6 31  1  0  0  0  0
  6 32  1  0  0  0  0
  7  8  1  0  0  0  0
  7 33  1  0  0  0  0
  7 34  1  0  0  0  0
  8  9  1  0  0  0  0
  8 24  1  0  0  0  0
  9 10  1  0  0  0  0
  9 35  1  0  0  0  0
  9 36  1  0  0  0  0
 10 11  1  0  0  0  0
 10 12  1  0  0  0  0
 10 37  1  0  0  0  0
 11 38  1  0  0  0  0
 12 13  1  0  0  0  0
 12 39  1  0  0  0  0
 12 40  1  0  0  0  0
 13 23  1  0  0  0  0
 13 14  1  0  0  0  0
 14 15  2  0  0  0  0
 14 41  1  0  0  0  0
 15 16  1  0  0  0  0
 16 23  2  0  0  0  0
 16 17  1  0  0  0  0
 17 18  2  0  0  0  0
 17 42  1  0  0  0  0
 18 19  1  0  0  0  0
 18 20  1  0  0  0  0
 19 43  1  0  0  0  0
 19 44  1  0  0  0  0
 19 45  1  0  0  0  0
 20 21  1  0  0  0  0
 20 22  2  0  0  0  0
 21 46  1  0  0  0  0
 21 47  1  0  0  0  0
 21 48  1  0  0  0  0
 22 23  1  0  0  0  0
 22 49  1  0  0  0  0
 24 25  1  0  0  0  0
 24 50  1  0  0  0  0
 24 51  1  0  0  0  0
 25 52  1  0  0  0  0
 25 53  1  0  0  0  0
M  END
> <s_m_source_file>
AV-unprocessed.smi

> <i_m_source_file_index>
1643

> <i_lp_mmshare_version>
43012

> <i_f3d_flags>
0

> <s_epik_input>
W0NIM11DKD1PKU4xW0NIMl1bQ0gyXVtDSDJdTihbQ0gyXVtDSDJdMSlbQ0gyXVtDQEhdKFtPSF0pW0NIMl1uKFtjSF1uMiljKGMyMylbY0hdYyhbQ0gzXSljKFtjSF0zKVtDSDNd

> <s_epik_cmdline>
J2VwaWtfcHl0aG9uJywgJy1waCcsICc3LjAnLCAnLXRuJywgJzgnLCAnLW1hJywgJzIwMCcsICctbWV0YWxfYmluZGluZycsICctaW1hZScsICc8aW5maWxlLm1hZT4nLCAnLW9tYWUnLCAnPG91dGZpbGUubWFlPic=

> <r_epik_Ionization_Penalty>
1.17666

> <r_epik_Ionization_Penalty_Charging>
0

> <r_epik_Ionization_Penalty_Neutral>
1.17666

> <r_epik_State_Penalty>
1.20405

> <r_epik_Charging_Adjusted_Penalty>
1.20405

> <i_epik_Tot_Q>
0

> <i_epik_Tot_abs_Q>
0

> <r_epik_Metal_State_Penalty>
1.13307

> <b_epik_Metal_Only>
0

> <s_lp_Force_Field>
OPLS_2005

> <r_lp_Energy>
48.9616

> <b_lp_Chiralities_Consistent>
1

> <s_lp_Variant>
AV-unprocessed.smi:1643-5

> <Gold.Version>
5.8.1

> <Gold.Id.Protein>
6NUR|6NUR_protein|mol2

> <Gold.PLP.Fitness>
44.6982

> <Gold.PLP.PLP>
-41.3195

> <Gold.PLP.part.hbond>
-2.0000

> <Gold.PLP.part.metal>
0.0000

> <Gold.PLP.part.buried>
-2.1529

> <Gold.PLP.part.nonpolar>
-36.3364

> <Gold.PLP.part.repulsive>
0.1012

> <Gold.PLP.ligand.clash>
0.0000

> <Gold.PLP.ligand.torsion>
1.2481

> <Gold.PLP.Chemscore.Hbond>
1.9500

> <Gold.PLP.Chemscore.CHOScore>
0.0000

> <Gold.PLP.Chemscore.Metal>
0.0000

> <Gold.Chemscore.Hbonds>
donor molecule, donor type, donor heavy atom, donor atom, acceptor molecule, acceptor atom, score
      L1  H    11    38       P1  8028  1.00
      P1  H  7997  8009       L1    15  0.90

> <Gold.PLP.Chemscore.Internal.Correction>
0.0250

> <Gold.Rescore>
     Score         DG    S(hbond)    S(metal)    S(lipo)     H(rot)  DE(clash)    DE(int)     intcor
     16.53     -18.14       1.05        0.00     123.33       2.07       0.37       1.24       ----

> <Gold.Chemscore.Fitness>
16.5312

> <Gold.Chemscore.DG>
-18.1410

> <Gold.Chemscore.ZeroCoef>
-5.4800

> <Gold.Chemscore.Hbond>
1.0531

> <Gold.Chemscore.Metal>
0.0000

> <Gold.Chemscore.Lipo>
123.3345

> <Gold.Chemscore.Internal_Hbond>
0.0000

> <Gold.Chemscore.DEClash>
0.3742

> <Gold.Chemscore.DEInternal>
1.2356

> <Gold.Chemscore.Rot>
2.0650

> <Gold.Chemscore.Internal.Correction>
   9.000000E+99

> <Gold.Chemscore.Hbonds>
donor molecule, donor type, donor heavy atom, donor atom, acceptor molecule, acceptor atom, score
      L1  H    11    38       P1  8028  0.86
      P1  H  7997  8009       L1    15  0.04

> <Gold.Chemscore.Hbond.Weighted>
-3.5173

> <Gold.Chemscore.Metal.Weighted>
-0.0000

> <Gold.Chemscore.Lipo.Weighted>
-14.4301

> <Gold.Chemscore.Internal_Hbond.Weighted>
0.0000

> <Gold.Chemscore.DEClash.Weighted>
0.3742

> <Gold.Chemscore.DEInternal.Weighted>
1.2356

> <Gold.Chemscore.Rot.Weighted>
5.2865

> <Gold.Chemscore.Internal.Correction.Weighted>
   9.000000E+99

> <Gold.Protein.RotatedTorsions>
[ 6907 6896 6895 6894 ] final  -55.68 input  -60.11 | X-H torsion
[ 7974 7965 7964 7962 ] final -117.58 input  175.53 | X-H torsion
[ 8008 7997 7996 7995 ] final  144.89 input   59.86 | X-H torsion
[ 10167 10162 10161 10158 ] final  105.74 input  -65.29 | X-H torsion
[ 10718 10713 10712 10709 ] final  -26.89 input   66.30 | X-H torsion
[ 10763 10752 10751 10750 ] final  156.80 input  -60.55 | X-H torsion
[ 11005 11000 10999 10996 ] final -148.08 input  -57.11 | X-H torsion

> <Gold.Protein.ActiveResidues>
 VAL166  LYS551  ARG553  GLY616  TRP617  ASP618  TYR619  PRO620  LYS621  CYS622 
 ASP623  PHE694  ASN695  SER759  ASP760  ASP761  ALA762  ILE779  LEU786  VAL792 
 PHE793  MET794  SER795  GLU796  ALA797  LYS798  CYS799  TRP800  GLU811  SER814 

> <Gold.Protein.RotatedAtoms>
  150.8231  134.7448  159.6788 H   0  0  0  0  0  0  0  0  0  0  0  0  # atno 6907 bound_to 6896
  152.4344  134.5711  159.9931 H   0  0  0  0  0  0  0  0  0  0  0  0  # atno 6908 bound_to 6896
  151.5890  133.3331  159.3060 H   0  0  0  0  0  0  0  0  0  0  0  0  # atno 6909 bound_to 6896
  145.0836  140.8442  143.4024 H   0  0  0  0  0  0  0  0  0  0  0  0  # atno 7974 bound_to 7965
  156.2897  140.2224  156.5126 H   0  0  0  0  0  0  0  0  0  0  0  0  # atno 8008 bound_to 7997
  154.7596  140.0474  157.0984 H   0  0  0  0  0  0  0  0  0  0  0  0  # atno 8009 bound_to 7997
  155.0008  140.3101  155.4871 H   0  0  0  0  0  0  0  0  0  0  0  0  # atno 8010 bound_to 7997
  139.7067  144.7085  151.1094 H   0  0  0  0  0  0  0  0  0  0  0  0  # atno 10167 bound_to 10162
  156.4453  130.4472  149.7025 H   0  0  0  0  0  0  0  0  0  0  0  0  # atno 10718 bound_to 10713
  154.1901  135.2795  155.3024 H   0  0  0  0  0  0  0  0  0  0  0  0  # atno 10763 bound_to 10752
  154.5935  135.5552  153.7306 H   0  0  0  0  0  0  0  0  0  0  0  0  # atno 10764 bound_to 10752
  153.0114  135.6374  154.2040 H   0  0  0  0  0  0  0  0  0  0  0  0  # atno 10765 bound_to 10752
  140.7650  134.3255  157.5091 H   0  0  0  0  0  0  0  0  0  0  0  0  # atno 11005 bound_to 11000
  145.1149  139.2732  143.5618 LP  0  0  0  0  0  0  0  0  0  0  0  0  # atno 17320 bound_to 7965
  146.3531  140.0756  142.8620 LP  0  0  0  0  0  0  0  0  0  0  0  0  # atno 17321 bound_to 7965
  140.7723  143.5348  150.9380 LP  0  0  0  0  0  0  0  0  0  0  0  0  # atno 17342 bound_to 10162
  139.9032  143.6810  152.3128 LP  0  0  0  0  0  0  0  0  0  0  0  0  # atno 17343 bound_to 10162
  156.3874  130.7610  151.2608 LP  0  0  0  0  0  0  0  0  0  0  0  0  # atno 17370 bound_to 10713
  157.7505  131.0278  150.4021 LP  0  0  0  0  0  0  0  0  0  0  0  0  # atno 17371 bound_to 10713
  139.8764  134.9225  156.3303 LP  0  0  0  0  0  0  0  0  0  0  0  0  # atno 17394 bound_to 11000
  140.9628  133.7378  156.0424 LP  0  0  0  0  0  0  0  0  0  0  0  0  # atno 17395 bound_to 11000

$$$$
