AV-unprocessed.smi:2453|AV-procd|sdf|9688|dock1
  -GOLD-   2272013323D 1   1.00000     0.00000
 Structure written by MMmdl.
 40 41  0  0  0  0  0  0  0  0  1 V2000
  150.2788  138.6581  154.2346 C   0  0  0  0  0  0  0  0  0  0  0  0
  149.1418  139.6620  154.1556 C   0  0  0  0  0  0  0  0  0  0  0  0
  149.3755  141.0164  154.4769 C   0  0  0  0  0  0  0  0  0  0  0  0
  148.4214  141.9690  154.4346 N   0  0  0  0  0  0  0  0  0  0  0  0
  147.1781  141.5967  154.0685 C   0  0  0  0  0  0  0  0  0  0  0  0
  146.8328  140.2746  153.7275 C   0  0  0  0  0  0  0  0  0  0  0  0
  147.8381  139.2777  153.7575 C   0  0  0  0  0  0  0  0  0  0  0  0
  147.5907  137.9090  153.4535 N   0  0  0  0  0  0  0  0  0  0  0  0
  146.4614  137.1985  153.6164 C   0  0  0  0  0  0  0  0  0  0  0  0
  145.3927  137.6445  154.0334 O   0  0  0  0  0  0  0  0  0  0  0  0
  146.6431  135.9224  153.2465 N   0  0  0  0  0  0  0  0  0  0  0  0
  145.6436  134.8531  153.3007 C   0  0  1  0  0  0  0  0  0  0  0  0
  144.2775  135.3834  152.8210 C   0  0  0  0  0  0  0  0  0  0  0  0
  144.2662  135.6829  151.3122 C   0  0  0  0  0  0  0  0  0  0  0  0
  144.7034  134.4556  150.4992 C   0  0  0  0  0  0  0  0  0  0  0  0
  146.0759  133.9385  150.9603 C   0  0  0  0  0  0  0  0  0  0  0  0
  146.0878  133.6183  152.4707 C   0  0  1  0  0  0  0  0  0  0  0  0
  147.4507  133.0387  152.9056 C   0  0  0  0  0  0  0  0  0  0  0  0
  147.5942  131.7067  152.4587 O   0  0  0  0  0  0  0  0  0  0  0  0
  151.2070  139.1342  154.5524 H   0  0  0  0  0  0  0  0  0  0  0  0
  150.4511  138.2016  153.2596 H   0  0  0  0  0  0  0  0  0  0  0  0
  150.0426  137.8697  154.9497 H   0  0  0  0  0  0  0  0  0  0  0  0
  150.3575  141.3488  154.7799 H   0  0  0  0  0  0  0  0  0  0  0  0
  146.4309  142.3764  154.0536 H   0  0  0  0  0  0  0  0  0  0  0  0
  145.8098  140.0536  153.4658 H   0  0  0  0  0  0  0  0  0  0  0  0
  148.3581  137.4223  153.0143 H   0  0  0  0  0  0  0  0  0  0  0  0
  147.5570  135.6590  152.9090 H   0  0  0  0  0  0  0  0  0  0  0  0
  145.5134  134.5306  154.3350 H   0  0  0  0  0  0  0  0  0  0  0  0
  143.5102  134.6401  153.0410 H   0  0  0  0  0  0  0  0  0  0  0  0
  144.0010  136.2768  153.3822 H   0  0  0  0  0  0  0  0  0  0  0  0
  143.2677  135.9948  151.0044 H   0  0  0  0  0  0  0  0  0  0  0  0
  144.9292  136.5212  151.0954 H   0  0  0  0  0  0  0  0  0  0  0  0
  143.9608  133.6639  150.6055 H   0  0  0  0  0  0  0  0  0  0  0  0
  144.7377  134.7061  149.4384 H   0  0  0  0  0  0  0  0  0  0  0  0
  146.3336  133.0462  150.3890 H   0  0  0  0  0  0  0  0  0  0  0  0
  146.8419  134.6797  150.7293 H   0  0  0  0  0  0  0  0  0  0  0  0
  145.3442  132.8356  152.6314 H   0  0  0  0  0  0  0  0  0  0  0  0
  148.2642  133.6256  152.4782 H   0  0  0  0  0  0  0  0  0  0  0  0
  147.5725  133.0723  153.9884 H   0  0  0  0  0  0  0  0  0  0  0  0
  148.0470  131.7137  151.6291 H   0  0  0  0  0  0  0  0  0  0  0  0
  1  2  1  0  0  0  0
  1 20  1  0  0  0  0
  1 21  1  0  0  0  0
  1 22  1  0  0  0  0
  2  7  1  0  0  0  0
  2  3  2  0  0  0  0
  3  4  1  0  0  0  0
  3 23  1  0  0  0  0
  4  5  2  0  0  0  0
  5  6  1  0  0  0  0
  5 24  1  0  0  0  0
  6  7  2  0  0  0  0
  6 25  1  0  0  0  0
  7  8  1  0  0  0  0
  8  9  1  0  0  0  0
  8 26  1  0  0  0  0
  9 10  2  0  0  0  0
  9 11  1  0  0  0  0
 11 12  1  0  0  0  0
 11 27  1  0  0  0  0
 12 17  1  0  0  0  0
 12 13  1  0  0  0  0
 12 28  1  0  0  0  0
 13 14  1  0  0  0  0
 13 29  1  0  0  0  0
 13 30  1  0  0  0  0
 14 15  1  0  0  0  0
 14 31  1  0  0  0  0
 14 32  1  0  0  0  0
 15 16  1  0  0  0  0
 15 33  1  0  0  0  0
 15 34  1  0  0  0  0
 16 17  1  0  0  0  0
 16 35  1  0  0  0  0
 16 36  1  0  0  0  0
 17 18  1  0  0  0  0
 17 37  1  0  0  0  0
 18 19  1  0  0  0  0
 18 38  1  0  0  0  0
 18 39  1  0  0  0  0
 19 40  1  0  0  0  0
M  END
> <s_m_source_file>
AV-unprocessed.smi

> <i_m_source_file_index>
2453

> <i_lp_mmshare_version>
43012

> <i_f3d_flags>
0

> <s_epik_input>
W0NIM11jMVtjSF1uW2NIXVtjSF1jMVtOSF1DKD1PKVtOSF1bQ0BASF0yW0NIMl1bQ0gyXVtDSDJdW0NIMl1bQ0BIXTJbQ0gyXVtPSF0=

> <s_epik_cmdline>
J2VwaWtfcHl0aG9uJywgJy1waCcsICc3LjAnLCAnLXRuJywgJzgnLCAnLW1hJywgJzIwMCcsICctbWV0YWxfYmluZGluZycsICctaW1hZScsICc8aW5maWxlLm1hZT4nLCAnLW9tYWUnLCAnPG91dGZpbGUubWFlPic=

> <r_epik_Ionization_Penalty>
0.210691

> <r_epik_Ionization_Penalty_Charging>
0

> <r_epik_Ionization_Penalty_Neutral>
0.210691

> <r_epik_State_Penalty>
0.200732

> <r_epik_Charging_Adjusted_Penalty>
0.200732

> <i_epik_Tot_Q>
0

> <i_epik_Tot_abs_Q>
0

> <r_epik_Metal_State_Penalty>
0.147519

> <b_epik_Metal_Only>
0

> <s_lp_Force_Field>
OPLS_2005

> <r_lp_Energy>
17.3761

> <b_lp_Chiralities_Consistent>
1

> <s_lp_Variant>
AV-unprocessed.smi:2453-2

> <Gold.Version>
5.8.1

> <Gold.Id.Protein>
6NUR|6NUR_protein|mol2

> <Gold.PLP.Fitness>
38.5213

> <Gold.PLP.PLP>
-30.8919

> <Gold.PLP.part.hbond>
-3.6363

> <Gold.PLP.part.metal>
0.0000

> <Gold.PLP.part.buried>
-2.0824

> <Gold.PLP.part.nonpolar>
-26.3824

> <Gold.PLP.part.repulsive>
1.0637

> <Gold.PLP.ligand.clash>
0.0000

> <Gold.PLP.ligand.torsion>
0.5432

> <Gold.PLP.Chemscore.Hbond>
2.8960

> <Gold.PLP.Chemscore.CHOScore>
0.0000

> <Gold.PLP.Chemscore.Metal>
0.0000

> <Gold.Chemscore.Hbonds>
donor molecule, donor type, donor heavy atom, donor atom, acceptor molecule, acceptor atom, score
      L1  H     8    26       P1  7948  1.00
      L1  H    11    27       P1  7948  0.88
      L1  H    19    40       P1 10747  1.00

> <Gold.PLP.Chemscore.Internal.Correction>
0.0277

> <Gold.Rescore>
     Score         DG    S(hbond)    S(metal)    S(lipo)     H(rot)  DE(clash)    DE(int)     intcor
     16.40     -19.36       2.84        0.00      75.89       1.75       0.20       2.76       ----

> <Gold.Chemscore.Fitness>
16.3989

> <Gold.Chemscore.DG>
-19.3618

> <Gold.Chemscore.ZeroCoef>
-5.4800

> <Gold.Chemscore.Hbond>
2.8385

> <Gold.Chemscore.Metal>
0.0000

> <Gold.Chemscore.Lipo>
75.8921

> <Gold.Chemscore.Internal_Hbond>
0.0000

> <Gold.Chemscore.DEClash>
0.1982

> <Gold.Chemscore.DEInternal>
2.7647

> <Gold.Chemscore.Rot>
1.7493

> <Gold.Chemscore.Internal.Correction>
   9.000000E+99

> <Gold.Chemscore.Hbonds>
donor molecule, donor type, donor heavy atom, donor atom, acceptor molecule, acceptor atom, score
      L1  H     8    26       P1  7948  0.95
      L1  H    11    27       P1  7948  0.87
      L1  H    19    40       P1 10747  0.95

> <Gold.Chemscore.Hbond.Weighted>
-9.4806

> <Gold.Chemscore.Metal.Weighted>
-0.0000

> <Gold.Chemscore.Lipo.Weighted>
-8.8794

> <Gold.Chemscore.Internal_Hbond.Weighted>
0.0000

> <Gold.Chemscore.DEClash.Weighted>
0.1982

> <Gold.Chemscore.DEInternal.Weighted>
2.7647

> <Gold.Chemscore.Rot.Weighted>
4.4782

> <Gold.Chemscore.Internal.Correction.Weighted>
   9.000000E+99

> <Gold.Protein.RotatedTorsions>
[ 6907 6896 6895 6894 ] final -176.78 input  -60.11 | X-H torsion
[ 7974 7965 7964 7962 ] final -175.15 input  175.53 | X-H torsion
[ 8008 7997 7996 7995 ] final   51.71 input   59.86 | X-H torsion
[ 10167 10162 10161 10158 ] final   23.39 input  -65.29 | X-H torsion
[ 10718 10713 10712 10709 ] final   40.04 input   66.30 | X-H torsion
[ 10763 10752 10751 10750 ] final  132.43 input  -60.55 | X-H torsion
[ 11005 11000 10999 10996 ] final  -14.80 input  -57.11 | X-H torsion

> <Gold.Protein.ActiveResidues>
 VAL166  LYS551  ARG553  GLY616  TRP617  ASP618  TYR619  PRO620  LYS621  CYS622 
 ASP623  PHE694  ASN695  SER759  ASP760  ASP761  ALA762  ILE779  LEU786  VAL792 
 PHE793  MET794  SER795  GLU796  ALA797  LYS798  CYS799  TRP800  GLU811  SER814 

> <Gold.Protein.RotatedAtoms>
  151.6103  133.3348  159.3065 H   0  0  0  0  0  0  0  0  0  0  0  0  # atno 6907 bound_to 6896
  150.8160  134.7345  159.6742 H   0  0  0  0  0  0  0  0  0  0  0  0  # atno 6908 bound_to 6896
  152.4256  134.5880  160.0018 H   0  0  0  0  0  0  0  0  0  0  0  0  # atno 6909 bound_to 6896
  144.7129  140.1364  143.6395 H   0  0  0  0  0  0  0  0  0  0  0  0  # atno 7974 bound_to 7965
  155.4398  140.3454  155.4288 H   0  0  0  0  0  0  0  0  0  0  0  0  # atno 8008 bound_to 7997
  156.1286  140.1507  156.9130 H   0  0  0  0  0  0  0  0  0  0  0  0  # atno 8009 bound_to 7997
  154.4877  140.0850  156.7504 H   0  0  0  0  0  0  0  0  0  0  0  0  # atno 8010 bound_to 7997
  140.5273  143.9902  150.6447 H   0  0  0  0  0  0  0  0  0  0  0  0  # atno 10167 bound_to 10162
  157.3775  130.7735  149.7167 H   0  0  0  0  0  0  0  0  0  0  0  0  # atno 10718 bound_to 10713
  153.7906  135.3155  155.3378 H   0  0  0  0  0  0  0  0  0  0  0  0  # atno 10763 bound_to 10752
  154.8127  135.4656  154.0563 H   0  0  0  0  0  0  0  0  0  0  0  0  # atno 10764 bound_to 10752
  153.1879  135.6904  153.8477 H   0  0  0  0  0  0  0  0  0  0  0  0  # atno 10765 bound_to 10752
  140.7901  133.8294  155.9372 H   0  0  0  0  0  0  0  0  0  0  0  0  # atno 11005 bound_to 11000
  145.9241  139.2564  143.1364 LP  0  0  0  0  0  0  0  0  0  0  0  0  # atno 17320 bound_to 7965
  145.9590  140.8850  143.0220 LP  0  0  0  0  0  0  0  0  0  0  0  0  # atno 17321 bound_to 7965
  140.3267  143.3103  152.0729 LP  0  0  0  0  0  0  0  0  0  0  0  0  # atno 17342 bound_to 10162
  139.4942  144.6537  151.6620 LP  0  0  0  0  0  0  0  0  0  0  0  0  # atno 17343 bound_to 10162
  155.9768  130.4070  150.3751 LP  0  0  0  0  0  0  0  0  0  0  0  0  # atno 17370 bound_to 10713
  157.1851  131.0401  151.2729 LP  0  0  0  0  0  0  0  0  0  0  0  0  # atno 17371 bound_to 10713
  140.9398  134.1916  157.4806 LP  0  0  0  0  0  0  0  0  0  0  0  0  # atno 17394 bound_to 11000
  139.8732  134.9867  156.5335 LP  0  0  0  0  0  0  0  0  0  0  0  0  # atno 17395 bound_to 11000

$$$$
