AV-unprocessed.smi:2145|AV-procd|sdf|8734|dock6
  -GOLD-   2272011503D 1   1.00000     0.00000
 Structure written by MMmdl.
 44 46  0  0  0  0  0  0  0  0  1 V2000
  142.0490  145.7672  154.9175 C   0  0  0  0  0  0  0  0  0  0  0  0
  143.3357  145.6171  154.1078 C   0  0  0  0  0  0  0  0  0  0  0  0
  143.5997  146.4644  153.2554 O   0  0  0  0  0  0  0  0  0  0  0  0
  144.2084  144.4442  154.3992 C   0  0  0  0  0  0  0  0  0  0  0  0
  145.3977  144.2623  153.6588 C   0  0  0  0  0  0  0  0  0  0  0  0
  146.2371  143.1606  153.9109 C   0  0  0  0  0  0  0  0  0  0  0  0
  145.9095  142.2139  154.9011 C   0  0  0  0  0  0  0  0  0  0  0  0
  146.7843  141.1635  155.0772 O   0  0  0  0  0  0  0  0  0  0  0  0
  148.1605  141.3779  154.7923 C   0  0  0  0  0  0  0  0  0  0  0  0
  148.9482  141.3346  156.1106 C   0  0  2  0  0  0  0  0  0  0  0  0
  148.3696  142.2649  157.0048 O   0  0  0  0  0  0  0  0  0  0  0  0
  150.4345  141.6913  155.9046 C   0  0  0  0  0  0  0  0  0  0  0  0
  151.2025  141.6436  157.1417 N   0  0  0  0  0  0  0  0  0  0  0  0
  151.7616  140.5593  157.7327 C   0  0  0  0  0  0  0  0  0  0  0  0
  151.6527  139.1917  157.1366 C   0  0  0  0  0  0  0  0  0  0  0  0
  152.4159  140.7887  158.8711 N   0  0  0  0  0  0  0  0  0  0  0  0
  152.2700  142.1530  159.0339 C   0  0  0  0  0  0  0  0  0  0  0  0
  152.7392  143.0111  160.0542 C   0  0  0  0  0  0  0  0  0  0  0  0
  152.4637  144.3935  160.0073 C   0  0  0  0  0  0  0  0  0  0  0  0
  151.7161  144.9364  158.9424 C   0  0  0  0  0  0  0  0  0  0  0  0
  151.2387  144.0991  157.9157 C   0  0  0  0  0  0  0  0  0  0  0  0
  151.5167  142.7199  157.9666 C   0  0  0  0  0  0  0  0  0  0  0  0
  144.7186  142.3950  155.6466 C   0  0  0  0  0  0  0  0  0  0  0  0
  143.8790  143.4983  155.3977 C   0  0  0  0  0  0  0  0  0  0  0  0
  142.2753  145.8564  155.9800 H   0  0  0  0  0  0  0  0  0  0  0  0
  141.3990  144.9052  154.7674 H   0  0  0  0  0  0  0  0  0  0  0  0
  141.5066  146.6610  154.6083 H   0  0  0  0  0  0  0  0  0  0  0  0
  145.6801  144.9655  152.8883 H   0  0  0  0  0  0  0  0  0  0  0  0
  147.1420  143.0393  153.3337 H   0  0  0  0  0  0  0  0  0  0  0  0
  148.5053  140.5744  154.1395 H   0  0  0  0  0  0  0  0  0  0  0  0
  148.3246  142.3243  154.2737 H   0  0  0  0  0  0  0  0  0  0  0  0
  148.8749  140.3372  156.5448 H   0  0  0  0  0  0  0  0  0  0  0  0
  148.4072  143.1226  156.6094 H   0  0  0  0  0  0  0  0  0  0  0  0
  150.8913  141.0111  155.1855 H   0  0  0  0  0  0  0  0  0  0  0  0
  150.5283  142.6894  155.4745 H   0  0  0  0  0  0  0  0  0  0  0  0
  152.1000  138.4495  157.7986 H   0  0  0  0  0  0  0  0  0  0  0  0
  152.1737  139.1563  156.1796 H   0  0  0  0  0  0  0  0  0  0  0  0
  150.6075  138.9249  156.9810 H   0  0  0  0  0  0  0  0  0  0  0  0
  153.3123  142.6047  160.8744 H   0  0  0  0  0  0  0  0  0  0  0  0
  152.8272  145.0399  160.7926 H   0  0  0  0  0  0  0  0  0  0  0  0
  151.5079  145.9959  158.9147 H   0  0  0  0  0  0  0  0  0  0  0  0
  150.6622  144.5109  157.1009 H   0  0  0  0  0  0  0  0  0  0  0  0
  144.4250  141.7000  156.4185 H   0  0  0  0  0  0  0  0  0  0  0  0
  142.9810  143.5973  155.9886 H   0  0  0  0  0  0  0  0  0  0  0  0
  1  2  1  0  0  0  0
  1 25  1  0  0  0  0
  1 26  1  0  0  0  0
  1 27  1  0  0  0  0
  2  3  2  0  0  0  0
  2  4  1  0  0  0  0
  4 24  1  0  0  0  0
  4  5  2  0  0  0  0
  5  6  1  0  0  0  0
  5 28  1  0  0  0  0
  6  7  2  0  0  0  0
  6 29  1  0  0  0  0
  7  8  1  0  0  0  0
  7 23  1  0  0  0  0
  8  9  1  0  0  0  0
  9 10  1  0  0  0  0
  9 30  1  0  0  0  0
  9 31  1  0  0  0  0
 10 11  1  0  0  0  0
 10 12  1  0  0  0  0
 10 32  1  0  0  0  0
 11 33  1  0  0  0  0
 12 13  1  0  0  0  0
 12 34  1  0  0  0  0
 12 35  1  0  0  0  0
 13 22  1  0  0  0  0
 13 14  1  0  0  0  0
 14 15  1  0  0  0  0
 14 16  2  0  0  0  0
 15 36  1  0  0  0  0
 15 37  1  0  0  0  0
 15 38  1  0  0  0  0
 16 17  1  0  0  0  0
 17 22  2  0  0  0  0
 17 18  1  0  0  0  0
 18 19  2  0  0  0  0
 18 39  1  0  0  0  0
 19 20  1  0  0  0  0
 19 40  1  0  0  0  0
 20 21  2  0  0  0  0
 20 41  1  0  0  0  0
 21 22  1  0  0  0  0
 21 42  1  0  0  0  0
 23 24  2  0  0  0  0
 23 43  1  0  0  0  0
 24 44  1  0  0  0  0
M  END
> <s_m_source_file>
AV-unprocessed.smi

> <i_m_source_file_index>
2145

> <i_lp_mmshare_version>
43012

> <i_f3d_flags>
0

> <s_epik_input>
W0NIM11DKD1PKWMxW2NIXVtjSF1jKFtjSF1bY0hdMSlPW0NIMl1bQ0BIXShbT0hdKVtDSDJdbihjKG4yKVtDSDNdKWMoYzIzKVtjSF1bY0hdW2NIXVtjSF0z

> <s_epik_cmdline>
J2VwaWtfcHl0aG9uJywgJy1waCcsICc3LjAnLCAnLXRuJywgJzgnLCAnLW1hJywgJzIwMCcsICctbWV0YWxfYmluZGluZycsICctaW1hZScsICc8aW5maWxlLm1hZT4nLCAnLW9tYWUnLCAnPG91dGZpbGUubWFlPic=

> <r_lp_tautomer_probability>
0.99995

> <r_epik_Ionization_Penalty>
0.109398

> <r_epik_Ionization_Penalty_Charging>
0

> <r_epik_Ionization_Penalty_Neutral>
0.109398

> <r_epik_State_Penalty>
0.0991698

> <r_epik_Charging_Adjusted_Penalty>
0.0991698

> <i_epik_Tot_Q>
0

> <i_epik_Tot_abs_Q>
0

> <r_epik_Metal_State_Penalty>
0.000107943

> <b_epik_Metal_Only>
0

> <s_lp_Force_Field>
OPLS_2005

> <r_lp_Energy>
22.0083

> <b_lp_Chiralities_Consistent>
1

> <s_lp_Variant>
AV-unprocessed.smi:2145-1

> <Gold.Version>
5.8.1

> <Gold.Id.Protein>
6NUR|6NUR_protein|mol2

> <Gold.PLP.Fitness>
53.8147

> <Gold.PLP.PLP>
-52.8930

> <Gold.PLP.part.hbond>
-3.0000

> <Gold.PLP.part.metal>
0.0000

> <Gold.PLP.part.buried>
-8.7269

> <Gold.PLP.part.nonpolar>
-42.4221

> <Gold.PLP.part.repulsive>
0.1791

> <Gold.PLP.ligand.clash>
0.0000

> <Gold.PLP.ligand.torsion>
1.0787

> <Gold.PLP.Chemscore.Hbond>
1.0000

> <Gold.PLP.Chemscore.CHOScore>
0.0000

> <Gold.PLP.Chemscore.Metal>
0.0000

> <Gold.Chemscore.Hbonds>
donor molecule, donor type, donor heavy atom, donor atom, acceptor molecule, acceptor atom, score
      L1  H    11    33       P1  8028  1.00

> <Gold.PLP.Chemscore.Internal.Correction>
0.0791

> <Gold.Rescore>
     Score         DG    S(hbond)    S(metal)    S(lipo)     H(rot)  DE(clash)    DE(int)     intcor
     15.34     -18.03       0.82        0.00     132.31       2.22       1.64       1.05       ----

> <Gold.Chemscore.Fitness>
15.3378

> <Gold.Chemscore.DG>
-18.0258

> <Gold.Chemscore.ZeroCoef>
-5.4800

> <Gold.Chemscore.Hbond>
0.8211

> <Gold.Chemscore.Metal>
0.0000

> <Gold.Chemscore.Lipo>
132.3085

> <Gold.Chemscore.Internal_Hbond>
0.0000

> <Gold.Chemscore.DEClash>
1.6391

> <Gold.Chemscore.DEInternal>
1.0489

> <Gold.Chemscore.Rot>
2.2176

> <Gold.Chemscore.Internal.Correction>
   9.000000E+99

> <Gold.Chemscore.Hbonds>
donor molecule, donor type, donor heavy atom, donor atom, acceptor molecule, acceptor atom, score
      L1  H    11    33       P1  8028  0.60

> <Gold.Chemscore.Hbond.Weighted>
-2.7426

> <Gold.Chemscore.Metal.Weighted>
-0.0000

> <Gold.Chemscore.Lipo.Weighted>
-15.4801

> <Gold.Chemscore.Internal_Hbond.Weighted>
0.0000

> <Gold.Chemscore.DEClash.Weighted>
1.6391

> <Gold.Chemscore.DEInternal.Weighted>
1.0489

> <Gold.Chemscore.Rot.Weighted>
5.6769

> <Gold.Chemscore.Internal.Correction.Weighted>
   9.000000E+99

> <Gold.Protein.RotatedTorsions>
[ 6907 6896 6895 6894 ] final  -83.15 input  -60.11 | X-H torsion
[ 7974 7965 7964 7962 ] final -132.35 input  175.53 | X-H torsion
[ 8008 7997 7996 7995 ] final  -59.02 input   59.86 | X-H torsion
[ 10167 10162 10161 10158 ] final  -81.68 input  -65.29 | X-H torsion
[ 10718 10713 10712 10709 ] final  -74.19 input   66.30 | X-H torsion
[ 10763 10752 10751 10750 ] final  -73.80 input  -60.55 | X-H torsion
[ 11005 11000 10999 10996 ] final  -87.70 input  -57.11 | X-H torsion

> <Gold.Protein.ActiveResidues>
 VAL166  LYS551  ARG553  GLY616  TRP617  ASP618  TYR619  PRO620  LYS621  CYS622 
 ASP623  PHE694  ASN695  SER759  ASP760  ASP761  ALA762  ILE779  LEU786  VAL792 
 PHE793  MET794  SER795  GLU796  ALA797  LYS798  CYS799  TRP800  GLU811  SER814 

> <Gold.Protein.RotatedAtoms>
  150.6889  134.3556  159.4927 H   0  0  0  0  0  0  0  0  0  0  0  0  # atno 6907 bound_to 6896
  152.1392  134.9073  160.0564 H   0  0  0  0  0  0  0  0  0  0  0  0  # atno 6908 bound_to 6896
  152.0213  133.3865  159.4296 H   0  0  0  0  0  0  0  0  0  0  0  0  # atno 6909 bound_to 6896
  144.9293  140.7110  143.4916 H   0  0  0  0  0  0  0  0  0  0  0  0  # atno 7974 bound_to 7965
  154.4334  140.1071  156.6050 H   0  0  0  0  0  0  0  0  0  0  0  0  # atno 8008 bound_to 7997
  155.5871  140.3491  155.4537 H   0  0  0  0  0  0  0  0  0  0  0  0  # atno 8009 bound_to 7997
  156.0275  140.1253  157.0283 H   0  0  0  0  0  0  0  0  0  0  0  0  # atno 8010 bound_to 7997
  140.4389  143.2521  151.8653 H   0  0  0  0  0  0  0  0  0  0  0  0  # atno 10167 bound_to 10162
  156.0252  130.4411  150.2855 H   0  0  0  0  0  0  0  0  0  0  0  0  # atno 10718 bound_to 10713
  154.4645  135.5885  153.6278 H   0  0  0  0  0  0  0  0  0  0  0  0  # atno 10763 bound_to 10752
  152.9827  135.6052  154.3445 H   0  0  0  0  0  0  0  0  0  0  0  0  # atno 10764 bound_to 10752
  154.3320  135.2842  155.2446 H   0  0  0  0  0  0  0  0  0  0  0  0  # atno 10765 bound_to 10752
  141.1613  133.7526  156.9344 H   0  0  0  0  0  0  0  0  0  0  0  0  # atno 11005 bound_to 11000
  145.3167  139.1801  143.4609 LP  0  0  0  0  0  0  0  0  0  0  0  0  # atno 17320 bound_to 7965
  146.3240  140.3179  142.8631 LP  0  0  0  0  0  0  0  0  0  0  0  0  # atno 17321 bound_to 7965
  139.4788  144.5251  151.8747 LP  0  0  0  0  0  0  0  0  0  0  0  0  # atno 17342 bound_to 10162
  140.4341  144.2076  150.5889 LP  0  0  0  0  0  0  0  0  0  0  0  0  # atno 17343 bound_to 10162
  157.0958  131.0182  151.3104 LP  0  0  0  0  0  0  0  0  0  0  0  0  # atno 17370 bound_to 10713
  157.4818  130.7770  149.7422 LP  0  0  0  0  0  0  0  0  0  0  0  0  # atno 17371 bound_to 10713
  140.1364  134.9322  157.2407 LP  0  0  0  0  0  0  0  0  0  0  0  0  # atno 17394 bound_to 11000
  140.2890  134.3262  155.7320 LP  0  0  0  0  0  0  0  0  0  0  0  0  # atno 17395 bound_to 11000

$$$$
