AV-unprocessed.smi:2124|AV-procd|sdf|8662|dock7
  -GOLD-   2272011413D 1   1.00000     0.00000
 Structure written by MMmdl.
 47 49  0  0  0  0  0  0  0  0  1 V2000
  146.3854  138.1056  152.2314 C   0  0  0  0  0  0  0  0  0  0  0  0
  147.2822  139.0950  152.9432 C   0  0  0  0  0  0  0  0  0  0  0  0
  148.4668  138.5425  153.4017 N   0  0  0  0  0  0  0  0  0  0  0  0
  149.3469  139.3677  154.0795 C   0  0  0  0  0  0  0  0  0  0  0  0
  150.6145  138.6805  154.5568 C   0  0  0  0  0  0  0  0  0  0  0  0
  149.0644  140.6798  154.2813 C   0  0  0  0  0  0  0  0  0  0  0  0
  150.0036  141.6324  155.0188 C   0  0  0  0  0  0  0  0  0  0  0  0
  150.2178  141.3425  156.5066 C   0  0  0  0  0  0  0  0  0  0  0  0
  149.2988  141.4933  157.3117 O   0  0  0  0  0  0  0  0  0  0  0  0
  151.4432  140.9217  156.8544 N   0  0  0  0  0  0  0  0  0  0  0  0
  151.8686  140.5590  158.2052 C   0  0  2  0  0  0  0  0  0  0  0  0
  151.0398  139.3520  158.6811 C   0  0  0  0  0  0  0  0  0  0  0  0
  151.7290  141.7893  159.1359 C   0  0  2  0  0  0  0  0  0  0  0  0
  151.8958  143.1458  158.4044 C   0  0  0  0  0  0  0  0  0  0  0  0
  152.9789  143.8639  159.2277 C   0  0  1  0  0  0  0  0  0  0  0  0
  152.4120  144.2445  160.6074 C   0  0  0  0  0  0  0  0  0  0  0  0
  152.3227  142.8836  161.3223 C   0  0  0  0  0  0  0  0  0  0  0  0
  152.8098  141.8985  160.2420 C   0  0  2  0  0  0  0  0  0  0  0  0
  153.9125  142.7113  159.5706 C   0  0  0  0  0  0  0  0  0  0  0  0
  147.7900  141.2180  153.7504 C   0  0  0  0  0  0  0  0  0  0  0  0
  147.4901  142.4043  153.8797 O   0  0  0  0  0  0  0  0  0  0  0  0
  146.9250  140.3353  153.0835 N   0  0  0  0  0  0  0  0  0  0  0  0
  148.7164  137.5725  153.2727 H   0  0  0  0  0  0  0  0  0  0  0  0
  145.4611  138.5828  151.9028 H   0  0  0  0  0  0  0  0  0  0  0  0
  146.1251  137.2814  152.8963 H   0  0  0  0  0  0  0  0  0  0  0  0
  146.8891  137.6991  151.3539 H   0  0  0  0  0  0  0  0  0  0  0  0
  150.6706  138.6993  155.6452 H   0  0  0  0  0  0  0  0  0  0  0  0
  151.4957  139.1824  154.1567 H   0  0  0  0  0  0  0  0  0  0  0  0
  150.6516  137.6378  154.2385 H   0  0  0  0  0  0  0  0  0  0  0  0
  149.6181  142.6486  154.9396 H   0  0  0  0  0  0  0  0  0  0  0  0
  150.9685  141.6630  154.5099 H   0  0  0  0  0  0  0  0  0  0  0  0
  152.1329  140.8266  156.1232 H   0  0  0  0  0  0  0  0  0  0  0  0
  152.9193  140.2655  158.1787 H   0  0  0  0  0  0  0  0  0  0  0  0
  151.3689  138.9908  159.6543 H   0  0  0  0  0  0  0  0  0  0  0  0
  151.1299  138.5162  157.9864 H   0  0  0  0  0  0  0  0  0  0  0  0
  149.9817  139.6038  158.7593 H   0  0  0  0  0  0  0  0  0  0  0  0
  150.7411  141.7477  159.5978 H   0  0  0  0  0  0  0  0  0  0  0  0
  152.2459  143.0103  157.3801 H   0  0  0  0  0  0  0  0  0  0  0  0
  150.9637  143.7107  158.3609 H   0  0  0  0  0  0  0  0  0  0  0  0
  153.4475  144.6960  158.7014 H   0  0  0  0  0  0  0  0  0  0  0  0
  153.0909  144.9133  161.1382 H   0  0  0  0  0  0  0  0  0  0  0  0
  151.4432  144.7397  160.5322 H   0  0  0  0  0  0  0  0  0  0  0  0
  152.9854  142.8638  162.1884 H   0  0  0  0  0  0  0  0  0  0  0  0
  151.3141  142.6593  161.6712 H   0  0  0  0  0  0  0  0  0  0  0  0
  153.1374  140.9471  160.6586 H   0  0  0  0  0  0  0  0  0  0  0  0
  154.3425  142.2255  158.6932 H   0  0  0  0  0  0  0  0  0  0  0  0
  154.7173  142.9947  160.2516 H   0  0  0  0  0  0  0  0  0  0  0  0
  1 24  1  0  0  0  0
  1 25  1  0  0  0  0
  1 26  1  0  0  0  0
  1  2  1  0  0  0  0
  2  3  1  0  0  0  0
  2 22  2  0  0  0  0
  3  4  1  0  0  0  0
  3 23  1  0  0  0  0
  4  6  2  0  0  0  0
  4  5  1  0  0  0  0
  5 27  1  0  0  0  0
  5 28  1  0  0  0  0
  5 29  1  0  0  0  0
  6 20  1  0  0  0  0
  6  7  1  0  0  0  0
  7  8  1  0  0  0  0
  7 30  1  0  0  0  0
  7 31  1  0  0  0  0
  8  9  2  0  0  0  0
  8 10  1  0  0  0  0
 10 11  1  0  0  0  0
 10 32  1  0  0  0  0
 11 12  1  0  0  0  0
 11 13  1  0  0  0  0
 11 33  1  0  0  0  0
 12 34  1  0  0  0  0
 12 35  1  0  0  0  0
 12 36  1  0  0  0  0
 13 18  1  0  0  0  0
 13 14  1  0  0  0  0
 13 37  1  0  0  0  0
 14 15  1  0  0  0  0
 14 38  1  0  0  0  0
 14 39  1  0  0  0  0
 15 19  1  0  0  0  0
 15 16  1  0  0  0  0
 15 40  1  0  0  0  0
 16 17  1  0  0  0  0
 16 41  1  0  0  0  0
 16 42  1  0  0  0  0
 17 18  1  0  0  0  0
 17 43  1  0  0  0  0
 17 44  1  0  0  0  0
 18 19  1  0  0  0  0
 18 45  1  0  0  0  0
 19 46  1  0  0  0  0
 19 47  1  0  0  0  0
 20 21  2  0  0  0  0
 20 22  1  0  0  0  0
M  END
> <s_m_source_file>
AV-unprocessed.smi

> <i_m_source_file_index>
2124

> <i_lp_mmshare_version>
43012

> <i_f3d_flags>
0

> <s_epik_input>
W0NIM11jMW5jKFtDSDNdKWMoYyg9TylbbkhdMSlbQ0gyXUMoPU8pW05IXVtDQEhdKFtDSDNdKVtDQEhdKFtDSDJdW0NASF0yMylbQ0BIXShbQ0gyXTMpW0NIMl1bQ0gyXTI=

> <s_epik_cmdline>
J2VwaWtfcHl0aG9uJywgJy1waCcsICc3LjAnLCAnLXRuJywgJzgnLCAnLW1hJywgJzIwMCcsICctbWV0YWxfYmluZGluZycsICctaW1hZScsICc8aW5maWxlLm1hZT4nLCAnLW9tYWUnLCAnPG91dGZpbGUubWFlPic=

> <r_lp_tautomer_probability>
0.156392

> <r_epik_Ionization_Penalty>
0.0139374

> <r_epik_Ionization_Penalty_Charging>
0.0138122

> <r_epik_Ionization_Penalty_Neutral>
0.000125146

> <r_epik_State_Penalty>
1.15342

> <r_epik_Charging_Adjusted_Penalty>
1.16723

> <i_epik_Tot_Q>
0

> <i_epik_Tot_abs_Q>
0

> <r_epik_Metal_State_Penalty>
1.3173

> <b_epik_Metal_Only>
0

> <s_lp_Force_Field>
OPLS_2005

> <r_lp_Energy>
56.0301

> <b_lp_Chiralities_Consistent>
1

> <s_lp_Variant>
AV-unprocessed.smi:2124-13

> <Gold.Version>
5.8.1

> <Gold.Id.Protein>
6NUR|6NUR_protein|mol2

> <Gold.PLP.Fitness>
47.8712

> <Gold.PLP.PLP>
-46.7648

> <Gold.PLP.part.hbond>
-2.0000

> <Gold.PLP.part.metal>
0.0000

> <Gold.PLP.part.buried>
-3.5498

> <Gold.PLP.part.nonpolar>
-43.2276

> <Gold.PLP.part.repulsive>
1.1333

> <Gold.PLP.ligand.clash>
0.0570

> <Gold.PLP.ligand.torsion>
0.9286

> <Gold.PLP.Chemscore.Hbond>
1.0000

> <Gold.PLP.Chemscore.CHOScore>
0.0000

> <Gold.PLP.Chemscore.Metal>
0.0000

> <Gold.Chemscore.Hbonds>
donor molecule, donor type, donor heavy atom, donor atom, acceptor molecule, acceptor atom, score
      L1  H     3    23       P1  7948  0.82

> <Gold.PLP.Chemscore.Internal.Correction>
0.0205

> <Gold.Rescore>
     Score         DG    S(hbond)    S(metal)    S(lipo)     H(rot)  DE(clash)    DE(int)     intcor
     16.89     -18.90       0.79        0.00     128.35       1.65       0.39       1.63       ----

> <Gold.Chemscore.Fitness>
16.8905

> <Gold.Chemscore.DG>
-18.9045

> <Gold.Chemscore.ZeroCoef>
-5.4800

> <Gold.Chemscore.Hbond>
0.7905

> <Gold.Chemscore.Metal>
0.0000

> <Gold.Chemscore.Lipo>
128.3486

> <Gold.Chemscore.Internal_Hbond>
0.0000

> <Gold.Chemscore.DEClash>
0.3878

> <Gold.Chemscore.DEInternal>
1.6262

> <Gold.Chemscore.Rot>
1.6534

> <Gold.Chemscore.Internal.Correction>
   9.000000E+99

> <Gold.Chemscore.Hbonds>
donor molecule, donor type, donor heavy atom, donor atom, acceptor molecule, acceptor atom, score
      L1  H     3    23       P1  7948  0.81

> <Gold.Chemscore.Hbond.Weighted>
-2.6403

> <Gold.Chemscore.Metal.Weighted>
-0.0000

> <Gold.Chemscore.Lipo.Weighted>
-15.0168

> <Gold.Chemscore.Internal_Hbond.Weighted>
0.0000

> <Gold.Chemscore.DEClash.Weighted>
0.3878

> <Gold.Chemscore.DEInternal.Weighted>
1.6262

> <Gold.Chemscore.Rot.Weighted>
4.2326

> <Gold.Chemscore.Internal.Correction.Weighted>
   9.000000E+99

> <Gold.Protein.RotatedTorsions>
[ 6907 6896 6895 6894 ] final  -58.65 input  -60.11 | X-H torsion
[ 7974 7965 7964 7962 ] final -129.62 input  175.53 | X-H torsion
[ 8008 7997 7996 7995 ] final  -97.18 input   59.86 | X-H torsion
[ 10167 10162 10161 10158 ] final  115.20 input  -65.29 | X-H torsion
[ 10718 10713 10712 10709 ] final -152.78 input   66.30 | X-H torsion
[ 10763 10752 10751 10750 ] final   86.16 input  -60.55 | X-H torsion
[ 11005 11000 10999 10996 ] final  129.70 input  -57.11 | X-H torsion

> <Gold.Protein.ActiveResidues>
 VAL166  LYS551  ARG553  GLY616  TRP617  ASP618  TYR619  PRO620  LYS621  CYS622 
 ASP623  PHE694  ASN695  SER759  ASP760  ASP761  ALA762  ILE779  LEU786  VAL792 
 PHE793  MET794  SER795  GLU796  ALA797  LYS798  CYS799  TRP800  GLU811  SER814 

> <Gold.Protein.RotatedAtoms>
  150.7990  134.7071  159.6582 H   0  0  0  0  0  0  0  0  0  0  0  0  # atno 6907 bound_to 6896
  152.4105  134.6129  160.0040 H   0  0  0  0  0  0  0  0  0  0  0  0  # atno 6908 bound_to 6896
  151.6373  133.3291  159.3158 H   0  0  0  0  0  0  0  0  0  0  0  0  # atno 6909 bound_to 6896
  144.9554  140.7390  143.4762 H   0  0  0  0  0  0  0  0  0  0  0  0  # atno 7974 bound_to 7965
  154.7843  140.0465  157.1151 H   0  0  0  0  0  0  0  0  0  0  0  0  # atno 8008 bound_to 7997
  154.9667  140.3084  155.4986 H   0  0  0  0  0  0  0  0  0  0  0  0  # atno 8009 bound_to 7997
  156.2941  140.2261  156.4757 H   0  0  0  0  0  0  0  0  0  0  0  0  # atno 8010 bound_to 7997
  139.6334  144.7117  151.2385 H   0  0  0  0  0  0  0  0  0  0  0  0  # atno 10167 bound_to 10162
  156.4770  130.8285  151.2513 H   0  0  0  0  0  0  0  0  0  0  0  0  # atno 10718 bound_to 10713
  153.1543  135.4590  154.9682 H   0  0  0  0  0  0  0  0  0  0  0  0  # atno 10763 bound_to 10752
  154.7849  135.3201  154.7910 H   0  0  0  0  0  0  0  0  0  0  0  0  # atno 10764 bound_to 10752
  153.8410  135.6930  153.4857 H   0  0  0  0  0  0  0  0  0  0  0  0  # atno 10765 bound_to 10752
  139.9630  134.9597  156.9186 H   0  0  0  0  0  0  0  0  0  0  0  0  # atno 11005 bound_to 11000
  145.2781  139.1929  143.4806 LP  0  0  0  0  0  0  0  0  0  0  0  0  # atno 17320 bound_to 7965
  146.3335  140.2738  142.8607 LP  0  0  0  0  0  0  0  0  0  0  0  0  # atno 17321 bound_to 7965
  140.7452  143.6440  150.8309 LP  0  0  0  0  0  0  0  0  0  0  0  0  # atno 17342 bound_to 10162
  140.0068  143.5685  152.2854 LP  0  0  0  0  0  0  0  0  0  0  0  0  # atno 17343 bound_to 10162
  157.7486  131.0057  150.3125 LP  0  0  0  0  0  0  0  0  0  0  0  0  # atno 17370 bound_to 10713
  156.3560  130.3839  149.7290 LP  0  0  0  0  0  0  0  0  0  0  0  0  # atno 17371 bound_to 10713
  140.5458  134.0675  155.7354 LP  0  0  0  0  0  0  0  0  0  0  0  0  # atno 17394 bound_to 11000
  141.1308  133.9305  157.2539 LP  0  0  0  0  0  0  0  0  0  0  0  0  # atno 17395 bound_to 11000

$$$$
