AV-unprocessed.smi:3009|AV-procd|sdf|11451|dock7
  -GOLD-   2272016383D 1   1.00000     0.00000
 Structure written by MMmdl.
 44 45  0  0  0  0  0  0  0  0  2 V2000
  139.5431  141.3776  156.1536 C   0  0  0  0  0  0  0  0  0  0  0  0
  140.0287  140.9797  154.7497 C   0  0  0  0  0  0  0  0  0  0  0  0
  138.8386  140.5764  153.8665 C   0  0  0  0  0  0  0  0  0  0  0  0
  141.0730  139.8437  154.8017 C   0  0  0  0  0  0  0  0  0  0  0  0
  140.7158  138.7629  155.7612 N   0  3  1  0  0  0  0  0  0  0  0  0
  139.5142  137.9906  155.3624 C   0  0  0  0  0  0  0  0  0  0  0  0
  139.8500  136.9731  154.2575 C   0  0  0  0  0  0  0  0  0  0  0  0
  140.8895  136.1134  154.7081 O   0  0  0  0  0  0  0  0  0  0  0  0
  142.0965  136.8164  154.9878 C   0  0  2  0  0  0  0  0  0  0  0  0
  143.1705  135.7914  155.3935 C   0  0  0  0  0  0  0  0  0  0  0  0
  143.2383  134.6780  154.4528 N   0  0  0  0  0  0  0  0  0  0  0  0
  143.5959  134.7854  153.1655 C   0  0  0  0  0  0  0  0  0  0  0  0
  143.9193  135.8502  152.6384 O   0  0  0  0  0  0  0  0  0  0  0  0
  143.5424  133.5979  152.5409 N   0  0  0  0  0  0  0  0  0  0  0  0
  143.8410  133.3277  151.1814 C   0  0  0  0  0  0  0  0  0  0  0  0
  143.2999  132.2473  150.4332 C   0  0  0  0  0  0  0  0  0  0  0  0
  143.7588  132.2424  149.1899 N   0  0  0  0  0  0  0  0  0  0  0  0
  144.5910  133.3068  149.1385 N   0  0  0  0  0  0  0  0  0  0  0  0
  144.6735  133.9962  150.3281 C   0  0  0  0  0  0  0  0  0  0  0  0
  141.8278  137.8414  156.1114 C   0  0  0  0  0  0  0  0  0  0  0  0
  145.0917  133.5459  148.2944 H   0  0  0  0  0  0  0  0  0  0  0  0
  139.0771  140.5351  156.6657 H   0  0  0  0  0  0  0  0  0  0  0  0
  138.8075  142.1807  156.1000 H   0  0  0  0  0  0  0  0  0  0  0  0
  140.3646  141.7333  156.7760 H   0  0  0  0  0  0  0  0  0  0  0  0
  140.4753  141.8598  154.2881 H   0  0  0  0  0  0  0  0  0  0  0  0
  138.3260  139.7006  154.2655 H   0  0  0  0  0  0  0  0  0  0  0  0
  139.1627  140.3389  152.8528 H   0  0  0  0  0  0  0  0  0  0  0  0
  138.1095  141.3842  153.7958 H   0  0  0  0  0  0  0  0  0  0  0  0
  141.1594  139.4203  153.7997 H   0  0  0  0  0  0  0  0  0  0  0  0
  142.0579  140.2450  155.0392 H   0  0  0  0  0  0  0  0  0  0  0  0
  139.1409  137.4596  156.2391 H   0  0  0  0  0  0  0  0  0  0  0  0
  138.7119  138.6584  155.0464 H   0  0  0  0  0  0  0  0  0  0  0  0
  138.9719  136.3703  154.0255 H   0  0  0  0  0  0  0  0  0  0  0  0
  140.1446  137.4722  153.3332 H   0  0  0  0  0  0  0  0  0  0  0  0
  142.4281  137.3358  154.0881 H   0  0  0  0  0  0  0  0  0  0  0  0
  144.1484  136.2718  155.4580 H   0  0  0  0  0  0  0  0  0  0  0  0
  142.9558  135.3941  156.3860 H   0  0  0  0  0  0  0  0  0  0  0  0
  142.9875  133.7658  154.8056 H   0  0  0  0  0  0  0  0  0  0  0  0
  143.2470  132.8051  153.0916 H   0  0  0  0  0  0  0  0  0  0  0  0
  142.6027  131.4831  150.7439 H   0  0  0  0  0  0  0  0  0  0  0  0
  145.2991  134.8680  150.4486 H   0  0  0  0  0  0  0  0  0  0  0  0
  142.7353  138.3940  156.3513 H   0  0  0  0  0  0  0  0  0  0  0  0
  141.5491  137.3114  157.0232 H   0  0  0  0  0  0  0  0  0  0  0  0
  140.4618  139.2449  156.6119 H   0  0  0  0  0  0  0  0  0  0  0  0
  1  2  1  0  0  0  0
  1 22  1  0  0  0  0
  1 23  1  0  0  0  0
  1 24  1  0  0  0  0
  2  3  1  0  0  0  0
  2  4  1  0  0  0  0
  2 25  1  0  0  0  0
  3 26  1  0  0  0  0
  3 27  1  0  0  0  0
  3 28  1  0  0  0  0
  4  5  1  0  0  0  0
  4 29  1  0  0  0  0
  4 30  1  0  0  0  0
  5 20  1  0  0  0  0
  5  6  1  0  0  0  0
  5 44  1  0  0  0  0
  6  7  1  0  0  0  0
  6 31  1  0  0  0  0
  6 32  1  0  0  0  0
  7  8  1  0  0  0  0
  7 33  1  0  0  0  0
  7 34  1  0  0  0  0
  8  9  1  0  0  0  0
  9 10  1  0  0  0  0
  9 20  1  0  0  0  0
  9 35  1  0  0  0  0
 10 11  1  0  0  0  0
 10 36  1  0  0  0  0
 10 37  1  0  0  0  0
 11 12  1  0  0  0  0
 11 38  1  0  0  0  0
 12 13  2  0  0  0  0
 12 14  1  0  0  0  0
 14 15  1  0  0  0  0
 14 39  1  0  0  0  0
 15 19  2  0  0  0  0
 15 16  1  0  0  0  0
 16 17  2  0  0  0  0
 16 40  1  0  0  0  0
 17 18  1  0  0  0  0
 18 21  1  0  0  0  0
 18 19  1  0  0  0  0
 19 41  1  0  0  0  0
 20 42  1  0  0  0  0
 20 43  1  0  0  0  0
M  CHG  1   5   1
M  END
> <s_m_source_file>
AV-unprocessed.smi

> <i_m_source_file_index>
3009

> <i_lp_mmshare_version>
43012

> <i_f3d_flags>
0

> <s_epik_input>
W0NIM11bQ0hdKFtDSDNdKVtDSDJdTjFbQ0gyXVtDSDJdT1tDQEhdKFtDSDJdMSlbQ0gyXVtOSF1DKD1PKVtOSF1jMltjSF1uW25IXVtjSF0y

> <s_epik_cmdline>
J2VwaWtfcHl0aG9uJywgJy1waCcsICc3LjAnLCAnLXRuJywgJzgnLCAnLW1hJywgJzIwMCcsICctbWV0YWxfYmluZGluZycsICctaW1hZScsICc8aW5maWxlLm1hZT4nLCAnLW9tYWUnLCAnPG91dGZpbGUubWFlPic=

> <r_lp_tautomer_probability>
0.5

> <r_epik_Ionization_Penalty>
0.0974064

> <r_epik_Ionization_Penalty_Charging>
0.0973651

> <r_epik_Ionization_Penalty_Neutral>
4.13573e-05

> <r_epik_State_Penalty>
0.0874853

> <r_epik_Charging_Adjusted_Penalty>
0.18485

> <i_epik_Tot_Q>
1

> <i_epik_Tot_abs_Q>
1

> <r_epik_Metal_State_Penalty>
0.0874855

> <b_epik_Metal_Only>
0

> <s_lp_Force_Field>
OPLS_2005

> <r_lp_Energy>
21.5437

> <b_lp_Chiralities_Consistent>
1

> <s_lp_Variant>
AV-unprocessed.smi:3009-3

> <Gold.Version>
5.8.1

> <Gold.Id.Protein>
6NUR|6NUR_protein|mol2

> <Gold.PLP.Fitness>
44.0198

> <Gold.PLP.PLP>
-29.2008

> <Gold.PLP.part.hbond>
-5.0000

> <Gold.PLP.part.metal>
0.0000

> <Gold.PLP.part.buried>
-5.9571

> <Gold.PLP.part.nonpolar>
-20.5697

> <Gold.PLP.part.repulsive>
0.6275

> <Gold.PLP.ligand.clash>
0.0000

> <Gold.PLP.ligand.torsion>
0.4529

> <Gold.PLP.Chemscore.Hbond>
4.2668

> <Gold.PLP.Chemscore.CHOScore>
0.9586

> <Gold.PLP.Chemscore.Metal>
0.0000

> <Gold.Chemscore.Hbonds>
donor molecule, donor type, donor heavy atom, donor atom, acceptor molecule, acceptor atom, score
      L1  H    11    38       P1 10957  1.00
      L1  H    14    39       P1 10957  0.94
      L1  H    18    21       P1  7921  0.85
      P1  H 10785 10796       L1    17  0.38
      P1  H 11000 11005       L1     8  0.66
      L1  C    16    40       P1 10952  0.99

> <Gold.PLP.Chemscore.Internal.Correction>
0.0485

> <Gold.Rescore>
     Score         DG    S(hbond)    S(metal)    S(lipo)     H(rot)  DE(clash)    DE(int)     intcor
     17.81     -19.18       3.26        0.00      63.35       1.80       0.09       1.28       ----

> <Gold.Chemscore.Fitness>
17.8143

> <Gold.Chemscore.DG>
-19.1818

> <Gold.Chemscore.ZeroCoef>
-5.4800

> <Gold.Chemscore.Hbond>
3.2599

> <Gold.Chemscore.Metal>
0.0000

> <Gold.Chemscore.Lipo>
63.3528

> <Gold.Chemscore.Internal_Hbond>
0.0000

> <Gold.Chemscore.DEClash>
0.0880

> <Gold.Chemscore.DEInternal>
1.2795

> <Gold.Chemscore.Rot>
1.7963

> <Gold.Chemscore.Internal.Correction>
   9.000000E+99

> <Gold.Chemscore.Hbonds>
donor molecule, donor type, donor heavy atom, donor atom, acceptor molecule, acceptor atom, score
      L1  H    11    38       P1 10957  0.94
      L1  H    14    39       P1 10957  0.35
      L1  H    18    21       P1  7921  0.58
      P1  H 10785 10796       L1    17  0.07
      P1  H 11000 11005       L1     8  0.47

> <Gold.Chemscore.Hbond.Weighted>
-10.8880

> <Gold.Chemscore.Metal.Weighted>
-0.0000

> <Gold.Chemscore.Lipo.Weighted>
-7.4123

> <Gold.Chemscore.Internal_Hbond.Weighted>
0.0000

> <Gold.Chemscore.DEClash.Weighted>
0.0880

> <Gold.Chemscore.DEInternal.Weighted>
1.2795

> <Gold.Chemscore.Rot.Weighted>
4.5985

> <Gold.Chemscore.Internal.Correction.Weighted>
   9.000000E+99

> <Gold.Protein.RotatedTorsions>
[ 6907 6896 6895 6894 ] final  -47.32 input  -60.11 | X-H torsion
[ 7974 7965 7964 7962 ] final   15.22 input  175.53 | X-H torsion
[ 8008 7997 7996 7995 ] final -128.53 input   59.86 | X-H torsion
[ 10167 10162 10161 10158 ] final  -73.42 input  -65.29 | X-H torsion
[ 10718 10713 10712 10709 ] final  150.43 input   66.30 | X-H torsion
[ 10763 10752 10751 10750 ] final   56.75 input  -60.55 | X-H torsion
[ 11005 11000 10999 10996 ] final   55.04 input  -57.11 | X-H torsion

> <Gold.Protein.ActiveResidues>
 VAL166  LYS551  ARG553  GLY616  TRP617  ASP618  TYR619  PRO620  LYS621  CYS622 
 ASP623  PHE694  ASN695  SER759  ASP760  ASP761  ALA762  ILE779  LEU786  VAL792 
 PHE793  MET794  SER795  GLU796  ALA797  LYS798  CYS799  TRP800  GLU811  SER814 

> <Gold.Protein.RotatedAtoms>
  150.9020  134.8433  159.7366 H   0  0  0  0  0  0  0  0  0  0  0  0  # atno 6907 bound_to 6896
  152.4898  134.4488  159.9577 H   0  0  0  0  0  0  0  0  0  0  0  0  # atno 6908 bound_to 6896
  151.4539  133.3571  159.2834 H   0  0  0  0  0  0  0  0  0  0  0  0  # atno 6909 bound_to 6896
  146.2284  139.8927  142.8552 H   0  0  0  0  0  0  0  0  0  0  0  0  # atno 7974 bound_to 7965
  155.2643  140.0437  157.3000 H   0  0  0  0  0  0  0  0  0  0  0  0  # atno 8008 bound_to 7997
  154.5692  140.2369  155.8187 H   0  0  0  0  0  0  0  0  0  0  0  0  # atno 8009 bound_to 7997
  156.2109  140.2999  155.9738 H   0  0  0  0  0  0  0  0  0  0  0  0  # atno 8010 bound_to 7997
  140.5111  143.2345  151.7591 H   0  0  0  0  0  0  0  0  0  0  0  0  # atno 10167 bound_to 10162
  157.2836  131.0840  151.1514 H   0  0  0  0  0  0  0  0  0  0  0  0  # atno 10718 bound_to 10713
  152.9837  135.5665  154.5279 H   0  0  0  0  0  0  0  0  0  0  0  0  # atno 10763 bound_to 10752
  154.4756  135.2786  155.1612 H   0  0  0  0  0  0  0  0  0  0  0  0  # atno 10764 bound_to 10752
  154.3142  135.6282  153.5532 H   0  0  0  0  0  0  0  0  0  0  0  0  # atno 10765 bound_to 10752
  140.0638  134.5565  155.9122 H   0  0  0  0  0  0  0  0  0  0  0  0  # atno 11005 bound_to 11000
  145.2402  141.0006  143.3940 LP  0  0  0  0  0  0  0  0  0  0  0  0  # atno 17320 bound_to 7965
  144.9458  139.4137  143.6426 LP  0  0  0  0  0  0  0  0  0  0  0  0  # atno 17321 bound_to 7965
  139.4896  144.4389  151.9787 LP  0  0  0  0  0  0  0  0  0  0  0  0  # atno 17342 bound_to 10162
  140.3481  144.3122  150.5954 LP  0  0  0  0  0  0  0  0  0  0  0  0  # atno 17343 bound_to 10162
  157.2938  130.6809  149.6128 LP  0  0  0  0  0  0  0  0  0  0  0  0  # atno 17370 bound_to 10713
  155.9665  130.4413  150.5334 LP  0  0  0  0  0  0  0  0  0  0  0  0  # atno 17371 bound_to 10713
  141.1984  133.6601  156.5792 LP  0  0  0  0  0  0  0  0  0  0  0  0  # atno 17394 bound_to 11000
  140.3729  134.7590  157.4611 LP  0  0  0  0  0  0  0  0  0  0  0  0  # atno 17395 bound_to 11000

$$$$
