AV-unprocessed.smi:788|AV-procd|sdf|3732|dock7
  -GOLD-   22720 1163D 1   1.00000     0.00000
 Structure written by MMmdl.
 35 36  0  0  0  0  0  0  0  0  1 V2000
  152.5568  143.7787  162.5218 C   0  0  0  0  0  0  0  0  0  0  0  0
  151.9743  143.8914  161.1023 C   0  0  1  0  0  0  0  0  0  0  0  0
  152.4884  145.1532  160.3796 C   0  0  0  0  0  0  0  0  0  0  0  0
  151.8659  145.2949  158.9823 C   0  0  0  0  0  0  0  0  0  0  0  0
  152.1047  144.0386  158.1308 C   0  0  0  0  0  0  0  0  0  0  0  0
  151.5870  142.7701  158.8393 C   0  0  1  0  0  0  0  0  0  0  0  0
  151.7750  141.5191  157.9639 C   0  0  0  0  0  0  0  0  0  0  0  0
  152.2135  142.6201  160.2489 C   0  0  1  0  0  0  0  0  0  0  0  0
  153.6438  142.3207  160.1522 N   0  0  0  0  0  0  0  0  0  0  0  0
  154.2063  141.1133  159.9809 C   0  0  0  0  0  0  0  0  0  0  0  0
  153.5506  140.0770  159.8899 O   0  0  0  0  0  0  0  0  0  0  0  0
  155.5549  141.0888  159.9158 N   0  0  0  0  0  0  0  0  0  0  0  0
  156.4786  140.0156  159.7440 C   0  0  0  0  0  0  0  0  0  0  0  0
  156.3917  139.0773  158.7864 N   0  0  0  0  0  0  0  0  0  0  0  0
  157.4243  138.1529  158.8628 N   0  0  0  0  0  0  0  0  0  0  0  0
  158.2505  138.4251  159.8765 C   0  0  0  0  0  0  0  0  0  0  0  0
  157.8462  139.8379  160.8355 S   0  0  0  0  0  0  0  0  0  0  0  0
  153.6455  143.7205  162.5092 H   0  0  0  0  0  0  0  0  0  0  0  0
  152.1813  142.8904  163.0301 H   0  0  0  0  0  0  0  0  0  0  0  0
  152.2824  144.6441  163.1254 H   0  0  0  0  0  0  0  0  0  0  0  0
  150.8947  144.0019  161.2167 H   0  0  0  0  0  0  0  0  0  0  0  0
  152.2579  146.0404  160.9702 H   0  0  0  0  0  0  0  0  0  0  0  0
  153.5753  145.1182  160.2930 H   0  0  0  0  0  0  0  0  0  0  0  0
  150.7940  145.4722  159.0771 H   0  0  0  0  0  0  0  0  0  0  0  0
  152.2797  146.1689  158.4787 H   0  0  0  0  0  0  0  0  0  0  0  0
  151.6099  144.1552  157.1660 H   0  0  0  0  0  0  0  0  0  0  0  0
  153.1701  143.9397  157.9173 H   0  0  0  0  0  0  0  0  0  0  0  0
  150.5119  142.8936  158.9784 H   0  0  0  0  0  0  0  0  0  0  0  0
  152.8220  141.3606  157.7047 H   0  0  0  0  0  0  0  0  0  0  0  0
  151.2162  141.6075  157.0320 H   0  0  0  0  0  0  0  0  0  0  0  0
  151.4198  140.6249  158.4770 H   0  0  0  0  0  0  0  0  0  0  0  0
  151.7036  141.7932  160.7464 H   0  0  0  0  0  0  0  0  0  0  0  0
  154.2671  143.1129  160.2179 H   0  0  0  0  0  0  0  0  0  0  0  0
  155.9889  141.9952  160.0120 H   0  0  0  0  0  0  0  0  0  0  0  0
  159.1037  137.7893  160.0609 H   0  0  0  0  0  0  0  0  0  0  0  0
  1  2  1  0  0  0  0
  1 18  1  0  0  0  0
  1 19  1  0  0  0  0
  1 20  1  0  0  0  0
  2  8  1  0  0  0  0
  2  3  1  0  0  0  0
  2 21  1  0  0  0  0
  3  4  1  0  0  0  0
  3 22  1  0  0  0  0
  3 23  1  0  0  0  0
  4  5  1  0  0  0  0
  4 24  1  0  0  0  0
  4 25  1  0  0  0  0
  5  6  1  0  0  0  0
  5 26  1  0  0  0  0
  5 27  1  0  0  0  0
  6  7  1  0  0  0  0
  6  8  1  0  0  0  0
  6 28  1  0  0  0  0
  7 29  1  0  0  0  0
  7 30  1  0  0  0  0
  7 31  1  0  0  0  0
  8  9  1  0  0  0  0
  8 32  1  0  0  0  0
  9 10  1  0  0  0  0
  9 33  1  0  0  0  0
 10 11  2  0  0  0  0
 10 12  1  0  0  0  0
 12 13  1  0  0  0  0
 12 34  1  0  0  0  0
 13 17  1  0  0  0  0
 13 14  2  0  0  0  0
 14 15  1  0  0  0  0
 15 16  2  0  0  0  0
 16 17  1  0  0  0  0
 16 35  1  0  0  0  0
M  END
> <s_m_source_file>
AV-unprocessed.smi

> <i_m_source_file_index>
788

> <i_lp_mmshare_version>
43012

> <i_f3d_flags>
0

> <s_epik_input>
W0NIM11bQ0BASF0xW0NIMl1bQ0gyXVtDSDJdW0NAQEhdKFtDSDNdKVtDQEhdMVtOSF1DKD1PKVtOSF1jMm5uW2NIXXMy

> <s_epik_cmdline>
J2VwaWtfcHl0aG9uJywgJy1waCcsICc3LjAnLCAnLXRuJywgJzgnLCAnLW1hJywgJzIwMCcsICctbWV0YWxfYmluZGluZycsICctaW1hZScsICc8aW5maWxlLm1hZT4nLCAnLW9tYWUnLCAnPG91dGZpbGUubWFlPic=

> <r_lp_tautomer_probability>
1

> <r_epik_Ionization_Penalty>
0.000304078

> <r_epik_Ionization_Penalty_Charging>
0

> <r_epik_Ionization_Penalty_Neutral>
0.000304078

> <r_epik_State_Penalty>
-0

> <r_epik_Charging_Adjusted_Penalty>
0

> <i_epik_Tot_Q>
0

> <i_epik_Tot_abs_Q>
0

> <r_epik_Metal_State_Penalty>
0.164801

> <b_epik_Metal_Only>
0

> <s_lp_Force_Field>
OPLS_2005

> <r_lp_Energy>
12.7564

> <b_lp_Chiralities_Consistent>
1

> <s_lp_Variant>
AV-unprocessed.smi:788-2

> <Gold.Version>
5.8.1

> <Gold.Id.Protein>
6NUR|6NUR_protein|mol2

> <Gold.PLP.Fitness>
34.4831

> <Gold.PLP.PLP>
-33.0669

> <Gold.PLP.part.hbond>
-1.6740

> <Gold.PLP.part.metal>
0.0000

> <Gold.PLP.part.buried>
-3.0647

> <Gold.PLP.part.nonpolar>
-27.4623

> <Gold.PLP.part.repulsive>
0.2606

> <Gold.PLP.ligand.clash>
0.0000

> <Gold.PLP.ligand.torsion>
0.7957

> <Gold.PLP.Chemscore.Hbond>
1.0000

> <Gold.PLP.Chemscore.CHOScore>
0.0000

> <Gold.PLP.Chemscore.Metal>
0.0000

> <Gold.Chemscore.Hbonds>
donor molecule, donor type, donor heavy atom, donor atom, acceptor molecule, acceptor atom, score
      P1  H  7997  8008       L1    14  1.00

> <Gold.PLP.Chemscore.Internal.Correction>
0.0076

> <Gold.Rescore>
     Score         DG    S(hbond)    S(metal)    S(lipo)     H(rot)  DE(clash)    DE(int)     intcor
     12.35     -15.51       0.39        0.00      96.48       1.00       1.19       1.97       ----

> <Gold.Chemscore.Fitness>
12.3501

> <Gold.Chemscore.DG>
-15.5114

> <Gold.Chemscore.ZeroCoef>
-5.4800

> <Gold.Chemscore.Hbond>
0.3901

> <Gold.Chemscore.Metal>
0.0000

> <Gold.Chemscore.Lipo>
96.4814

> <Gold.Chemscore.Internal_Hbond>
0.0000

> <Gold.Chemscore.DEClash>
1.1926

> <Gold.Chemscore.DEInternal>
1.9686

> <Gold.Chemscore.Rot>
1.0000

> <Gold.Chemscore.Internal.Correction>
   9.000000E+99

> <Gold.Chemscore.Hbonds>
donor molecule, donor type, donor heavy atom, donor atom, acceptor molecule, acceptor atom, score
      P1  H  7997  8008       L1    14  0.40

> <Gold.Chemscore.Hbond.Weighted>
-1.3031

> <Gold.Chemscore.Metal.Weighted>
-0.0000

> <Gold.Chemscore.Lipo.Weighted>
-11.2883

> <Gold.Chemscore.Internal_Hbond.Weighted>
0.0000

> <Gold.Chemscore.DEClash.Weighted>
1.1926

> <Gold.Chemscore.DEInternal.Weighted>
1.9686

> <Gold.Chemscore.Rot.Weighted>
2.5600

> <Gold.Chemscore.Internal.Correction.Weighted>
   9.000000E+99

> <Gold.Protein.RotatedTorsions>
[ 6907 6896 6895 6894 ] final -115.27 input  -60.11 | X-H torsion
[ 7974 7965 7964 7962 ] final  -49.40 input  175.53 | X-H torsion
[ 8008 7997 7996 7995 ] final -156.93 input   59.86 | X-H torsion
[ 10167 10162 10161 10158 ] final  163.54 input  -65.29 | X-H torsion
[ 10718 10713 10712 10709 ] final -105.09 input   66.30 | X-H torsion
[ 10763 10752 10751 10750 ] final -150.04 input  -60.55 | X-H torsion
[ 11005 11000 10999 10996 ] final  178.71 input  -57.11 | X-H torsion

> <Gold.Protein.ActiveResidues>
 VAL166  LYS551  ARG553  GLY616  TRP617  ASP618  TYR619  PRO620  LYS621  CYS622 
 ASP623  PHE694  ASN695  SER759  ASP760  ASP761  ALA762  ILE779  LEU786  VAL792 
 PHE793  MET794  SER795  GLU796  ALA797  LYS798  CYS799  TRP800  GLU811  SER814 

> <Gold.Protein.RotatedAtoms>
  150.7965  133.8682  159.3250 H   0  0  0  0  0  0  0  0  0  0  0  0  # atno 6907 bound_to 6896
  151.6505  135.1000  160.0169 H   0  0  0  0  0  0  0  0  0  0  0  0  # atno 6908 bound_to 6896
  152.4048  133.6832  159.6382 H   0  0  0  0  0  0  0  0  0  0  0  0  # atno 6909 bound_to 6896
  145.9409  140.7663  142.9552 H   0  0  0  0  0  0  0  0  0  0  0  0  # atno 7974 bound_to 7965
  155.7248  140.0794  157.2315 H   0  0  0  0  0  0  0  0  0  0  0  0  # atno 8008 bound_to 7997
  154.4040  140.1606  156.2496 H   0  0  0  0  0  0  0  0  0  0  0  0  # atno 8009 bound_to 7997
  155.9163  140.3400  155.6141 H   0  0  0  0  0  0  0  0  0  0  0  0  # atno 8010 bound_to 7997
  139.4875  144.4326  151.9051 H   0  0  0  0  0  0  0  0  0  0  0  0  # atno 10167 bound_to 10162
  156.0331  130.5547  150.7490 H   0  0  0  0  0  0  0  0  0  0  0  0  # atno 10718 bound_to 10713
  154.8142  135.3294  154.7221 H   0  0  0  0  0  0  0  0  0  0  0  0  # atno 10763 bound_to 10752
  153.7865  135.6914  153.4883 H   0  0  0  0  0  0  0  0  0  0  0  0  # atno 10764 bound_to 10752
  153.1945  135.4538  155.0138 H   0  0  0  0  0  0  0  0  0  0  0  0  # atno 10765 bound_to 10752
  140.3981  134.6801  157.4546 H   0  0  0  0  0  0  0  0  0  0  0  0  # atno 11005 bound_to 11000
  144.6779  140.2279  143.7359 LP  0  0  0  0  0  0  0  0  0  0  0  0  # atno 17320 bound_to 7965
  145.8301  139.2082  143.1888 LP  0  0  0  0  0  0  0  0  0  0  0  0  # atno 17321 bound_to 7965
  140.3774  144.2779  150.5912 LP  0  0  0  0  0  0  0  0  0  0  0  0  # atno 17342 bound_to 10162
  140.5264  143.2253  151.8308 LP  0  0  0  0  0  0  0  0  0  0  0  0  # atno 17343 bound_to 10162
  157.5039  131.0920  151.0281 LP  0  0  0  0  0  0  0  0  0  0  0  0  # atno 17370 bound_to 10713
  157.0654  130.5842  149.5393 LP  0  0  0  0  0  0  0  0  0  0  0  0  # atno 17371 bound_to 10713
  140.0356  134.6342  155.9048 LP  0  0  0  0  0  0  0  0  0  0  0  0  # atno 17394 bound_to 11000
  141.1866  133.6558  156.5248 LP  0  0  0  0  0  0  0  0  0  0  0  0  # atno 17395 bound_to 11000

$$$$
