AV-unprocessed.smi:1754|AV-procd|sdf|7067|dock6
  -GOLD-   22720 8283D 1   1.00000     0.00000
 Structure written by MMmdl.
 44 45  0  0  0  0  0  0  0  0  1 V2000
  152.2718  144.6489  156.9497 C   0  0  0  0  0  0  0  0  0  0  0  0
  151.6092  143.7776  158.0266 C   0  0  0  0  0  0  0  0  0  0  0  0
  151.9250  144.2258  159.3840 N   0  0  0  0  0  0  0  0  0  0  0  0
  151.0548  145.2473  159.9689 C   0  0  0  0  0  0  0  0  0  0  0  0
  149.5664  144.8668  159.9240 C   0  0  0  0  0  0  0  0  0  0  0  0
  152.5740  143.2871  160.2220 C   0  0  0  0  0  0  0  0  0  0  0  0
  152.5403  143.3826  161.6360 C   0  0  0  0  0  0  0  0  0  0  0  0
  153.2068  142.4141  162.4111 C   0  0  0  0  0  0  0  0  0  0  0  0
  153.8880  141.3626  161.7566 C   0  0  0  0  0  0  0  0  0  0  0  0
  154.6177  140.3385  162.4167 N   0  0  0  0  0  0  0  0  0  0  0  0
  154.6855  139.0236  162.1309 C   0  0  0  0  0  0  0  0  0  0  0  0
  154.1685  138.4914  161.1514 O   0  0  0  0  0  0  0  0  0  0  0  0
  155.4163  138.3088  163.0060 N   0  0  0  0  0  0  0  0  0  0  0  0
  155.6907  136.8705  162.9906 C   0  0  1  0  0  0  0  0  0  0  0  0
  154.4541  136.0334  163.3820 C   0  0  0  0  0  0  0  0  0  0  0  0
  154.6998  134.5719  162.9873 C   0  0  0  0  0  0  0  0  0  0  0  0
  155.8217  134.6146  161.5381 S   0  0  0  0  0  0  0  0  0  0  0  0
  157.0599  133.8968  161.8768 O   0  0  0  0  0  0  0  0  0  0  0  0
  155.0679  134.2914  160.3176 O   0  0  0  0  0  0  0  0  0  0  0  0
  156.1322  136.4189  161.5928 C   0  0  0  0  0  0  0  0  0  0  0  0
  153.8739  141.3547  160.3487 C   0  0  0  0  0  0  0  0  0  0  0  0
  153.2366  142.2802  159.6033 N   0  0  0  0  0  0  0  0  0  0  0  0
  152.0321  144.2774  155.9535 H   0  0  0  0  0  0  0  0  0  0  0  0
  153.3575  144.6495  157.0506 H   0  0  0  0  0  0  0  0  0  0  0  0
  151.9282  145.6821  157.0085 H   0  0  0  0  0  0  0  0  0  0  0  0
  150.5317  143.7411  157.8663 H   0  0  0  0  0  0  0  0  0  0  0  0
  151.9498  142.7480  157.9141 H   0  0  0  0  0  0  0  0  0  0  0  0
  151.3380  145.3969  161.0113 H   0  0  0  0  0  0  0  0  0  0  0  0
  151.2229  146.2070  159.4804 H   0  0  0  0  0  0  0  0  0  0  0  0
  148.9614  145.6311  160.4119 H   0  0  0  0  0  0  0  0  0  0  0  0
  149.3887  143.9248  160.4437 H   0  0  0  0  0  0  0  0  0  0  0  0
  149.1954  144.7589  158.9053 H   0  0  0  0  0  0  0  0  0  0  0  0
  152.0160  144.1765  162.1444 H   0  0  0  0  0  0  0  0  0  0  0  0
  153.1903  142.5082  163.4856 H   0  0  0  0  0  0  0  0  0  0  0  0
  155.1765  140.6471  163.1987 H   0  0  0  0  0  0  0  0  0  0  0  0
  155.8597  138.8316  163.7477 H   0  0  0  0  0  0  0  0  0  0  0  0
  156.5045  136.6394  163.6806 H   0  0  0  0  0  0  0  0  0  0  0  0
  154.2167  136.1209  164.4426 H   0  0  0  0  0  0  0  0  0  0  0  0
  153.5860  136.4011  162.8330 H   0  0  0  0  0  0  0  0  0  0  0  0
  155.2063  134.0336  163.7888 H   0  0  0  0  0  0  0  0  0  0  0  0
  153.7809  134.0409  162.7377 H   0  0  0  0  0  0  0  0  0  0  0  0
  155.5236  136.8827  160.8157 H   0  0  0  0  0  0  0  0  0  0  0  0
  157.1819  136.6272  161.3848 H   0  0  0  0  0  0  0  0  0  0  0  0
  154.3887  140.5799  159.7995 H   0  0  0  0  0  0  0  0  0  0  0  0
  1  2  1  0  0  0  0
  1 23  1  0  0  0  0
  1 24  1  0  0  0  0
  1 25  1  0  0  0  0
  2  3  1  0  0  0  0
  2 26  1  0  0  0  0
  2 27  1  0  0  0  0
  3  4  1  0  0  0  0
  3  6  1  0  0  0  0
  4  5  1  0  0  0  0
  4 28  1  0  0  0  0
  4 29  1  0  0  0  0
  5 30  1  0  0  0  0
  5 31  1  0  0  0  0
  5 32  1  0  0  0  0
  6 22  1  0  0  0  0
  6  7  2  0  0  0  0
  7  8  1  0  0  0  0
  7 33  1  0  0  0  0
  8  9  2  0  0  0  0
  8 34  1  0  0  0  0
  9 10  1  0  0  0  0
  9 21  1  0  0  0  0
 10 11  1  0  0  0  0
 10 35  1  0  0  0  0
 11 12  2  0  0  0  0
 11 13  1  0  0  0  0
 13 14  1  0  0  0  0
 13 36  1  0  0  0  0
 14 20  1  0  0  0  0
 14 15  1  0  0  0  0
 14 37  1  0  0  0  0
 15 16  1  0  0  0  0
 15 38  1  0  0  0  0
 15 39  1  0  0  0  0
 16 17  1  0  0  0  0
 16 40  1  0  0  0  0
 16 41  1  0  0  0  0
 17 18  2  0  0  0  0
 17 19  2  0  0  0  0
 17 20  1  0  0  0  0
 20 42  1  0  0  0  0
 20 43  1  0  0  0  0
 21 22  2  0  0  0  0
 21 44  1  0  0  0  0
M  END
> <s_m_source_file>
AV-unprocessed.smi

> <i_m_source_file_index>
1754

> <i_lp_mmshare_version>
43012

> <i_f3d_flags>
0

> <s_epik_input>
W0NIM11bQ0gyXU4oW0NIMl1bQ0gzXSljMVtjSF1bY0hdYyhbY0hdbjEpW05IXUMoPU8pW05IXVtDQEBIXShbQ0gyXTIpW0NIMl1bQ0gyXVMyKD1PKT1P

> <s_epik_cmdline>
J2VwaWtfcHl0aG9uJywgJy1waCcsICc3LjAnLCAnLXRuJywgJzgnLCAnLW1hJywgJzIwMCcsICctbWV0YWxfYmluZGluZycsICctaW1hZScsICc8aW5maWxlLm1hZT4nLCAnLW9tYWUnLCAnPG91dGZpbGUubWFlPic=

> <r_lp_tautomer_probability>
1

> <r_epik_Ionization_Penalty>
0.615754

> <r_epik_Ionization_Penalty_Charging>
0

> <r_epik_Ionization_Penalty_Neutral>
0.615754

> <r_epik_State_Penalty>
2.08676

> <r_epik_Charging_Adjusted_Penalty>
2.08676

> <i_epik_Tot_Q>
0

> <i_epik_Tot_abs_Q>
0

> <r_epik_Metal_State_Penalty>
1.53042

> <b_epik_Metal_Only>
0

> <s_lp_Force_Field>
OPLS_2005

> <r_lp_Energy>
21.6605

> <b_lp_Chiralities_Consistent>
1

> <s_lp_Variant>
AV-unprocessed.smi:1754-4

> <Gold.Version>
5.8.1

> <Gold.Id.Protein>
6NUR|6NUR_protein|mol2

> <Gold.PLP.Fitness>
47.0900

> <Gold.PLP.PLP>
-45.1089

> <Gold.PLP.part.hbond>
-1.0000

> <Gold.PLP.part.metal>
0.0000

> <Gold.PLP.part.buried>
-7.3363

> <Gold.PLP.part.nonpolar>
-36.8799

> <Gold.PLP.part.repulsive>
0.0000

> <Gold.PLP.ligand.clash>
0.0000

> <Gold.PLP.ligand.torsion>
0.9480

> <Gold.PLP.Chemscore.Hbond>
0.9913

> <Gold.PLP.Chemscore.CHOScore>
0.0000

> <Gold.PLP.Chemscore.Metal>
0.0000

> <Gold.PLP.Chemscore.Internal.Correction>
0.9033

> <Gold.Rescore>
     Score         DG    S(hbond)    S(metal)    S(lipo)     H(rot)  DE(clash)    DE(int)     intcor
     14.45     -17.75       0.99        0.00     106.88       1.39       0.28       3.02       ----

> <Gold.Chemscore.Fitness>
14.4509

> <Gold.Chemscore.DG>
-17.7514

> <Gold.Chemscore.ZeroCoef>
-5.4800

> <Gold.Chemscore.Hbond>
0.9938

> <Gold.Chemscore.Metal>
0.0000

> <Gold.Chemscore.Lipo>
106.8759

> <Gold.Chemscore.Internal_Hbond>
0.0000

> <Gold.Chemscore.DEClash>
0.2826

> <Gold.Chemscore.DEInternal>
3.0180

> <Gold.Chemscore.Rot>
1.3876

> <Gold.Chemscore.Internal.Correction>
   9.000000E+99

> <Gold.Chemscore.Hbonds>
donor molecule, donor type, donor heavy atom, donor atom, acceptor molecule, acceptor atom, score
      P1  H  6896  6908       L1    19  0.02

> <Gold.Chemscore.Hbond.Weighted>
-3.3193

> <Gold.Chemscore.Metal.Weighted>
-0.0000

> <Gold.Chemscore.Lipo.Weighted>
-12.5045

> <Gold.Chemscore.Internal_Hbond.Weighted>
0.0000

> <Gold.Chemscore.DEClash.Weighted>
0.2826

> <Gold.Chemscore.DEInternal.Weighted>
3.0180

> <Gold.Chemscore.Rot.Weighted>
3.5524

> <Gold.Chemscore.Internal.Correction.Weighted>
   9.000000E+99

> <Gold.Protein.RotatedTorsions>
[ 6907 6896 6895 6894 ] final  -34.95 input  -60.11 | X-H torsion
[ 7974 7965 7964 7962 ] final  -45.54 input  175.53 | X-H torsion
[ 8008 7997 7996 7995 ] final -119.64 input   59.86 | X-H torsion
[ 10167 10162 10161 10158 ] final -170.44 input  -65.29 | X-H torsion
[ 10718 10713 10712 10709 ] final  162.35 input   66.30 | X-H torsion
[ 10763 10752 10751 10750 ] final  -25.84 input  -60.55 | X-H torsion
[ 11005 11000 10999 10996 ] final    1.57 input  -57.11 | X-H torsion

> <Gold.Protein.ActiveResidues>
 VAL166  LYS551  ARG553  GLY616  TRP617  ASP618  TYR619  PRO620  LYS621  CYS622 
 ASP623  PHE694  ASN695  SER759  ASP760  ASP761  ALA762  ILE779  LEU786  VAL792 
 PHE793  MET794  SER795  GLU796  ALA797  LYS798  CYS799  TRP800  GLU811  SER814 

> <Gold.Protein.RotatedAtoms>
  151.0460  134.9640  159.8186 H   0  0  0  0  0  0  0  0  0  0  0  0  # atno 6907 bound_to 6896
  152.5372  134.2597  159.8941 H   0  0  0  0  0  0  0  0  0  0  0  0  # atno 6908 bound_to 6896
  151.2611  133.4259  159.2650 H   0  0  0  0  0  0  0  0  0  0  0  0  # atno 6909 bound_to 6896
  145.9810  140.7284  142.9363 H   0  0  0  0  0  0  0  0  0  0  0  0  # atno 7974 bound_to 7965
  155.1190  140.0398  157.2745 H   0  0  0  0  0  0  0  0  0  0  0  0  # atno 8008 bound_to 7997
  154.6627  140.2594  155.7065 H   0  0  0  0  0  0  0  0  0  0  0  0  # atno 8009 bound_to 7997
  156.2626  140.2813  156.1106 H   0  0  0  0  0  0  0  0  0  0  0  0  # atno 8010 bound_to 7997
  139.5861  144.1314  152.1577 H   0  0  0  0  0  0  0  0  0  0  0  0  # atno 10167 bound_to 10162
  157.1238  131.0499  151.2403 H   0  0  0  0  0  0  0  0  0  0  0  0  # atno 10718 bound_to 10713
  153.7063  135.6953  153.5049 H   0  0  0  0  0  0  0  0  0  0  0  0  # atno 10763 bound_to 10752
  153.2305  135.4339  155.0589 H   0  0  0  0  0  0  0  0  0  0  0  0  # atno 10764 bound_to 10752
  154.8329  135.3483  154.6601 H   0  0  0  0  0  0  0  0  0  0  0  0  # atno 10765 bound_to 10752
  140.6140  133.9722  155.8191 H   0  0  0  0  0  0  0  0  0  0  0  0  # atno 11005 bound_to 11000
  144.6861  140.2908  143.7278 LP  0  0  0  0  0  0  0  0  0  0  0  0  # atno 17320 bound_to 7965
  145.7770  139.1877  143.2180 LP  0  0  0  0  0  0  0  0  0  0  0  0  # atno 17321 bound_to 7965
  140.0878  144.5646  150.7076 LP  0  0  0  0  0  0  0  0  0  0  0  0  # atno 17342 bound_to 10162
  140.7133  143.2523  151.4514 LP  0  0  0  0  0  0  0  0  0  0  0  0  # atno 17343 bound_to 10162
  157.4453  130.7567  149.7104 LP  0  0  0  0  0  0  0  0  0  0  0  0  # atno 17370 bound_to 10713
  155.9822  130.4011  150.3426 LP  0  0  0  0  0  0  0  0  0  0  0  0  # atno 17371 bound_to 10713
  141.0789  134.0093  157.3416 LP  0  0  0  0  0  0  0  0  0  0  0  0  # atno 17394 bound_to 11000
  139.9180  135.0198  156.7958 LP  0  0  0  0  0  0  0  0  0  0  0  0  # atno 17395 bound_to 11000

$$$$
