AV-unprocessed.smi:1409|AV-procd|sdf|5727|dock8
  -GOLD-   22720 5363D 1   1.00000     0.00000
 Structure written by MMmdl.
 37 38  0  0  0  0  0  0  0  0  1 V2000
  151.5904  138.2225  154.6319 C   0  0  0  0  0  0  0  0  0  0  0  0
  150.2305  138.1699  154.2150 O   0  0  0  0  0  0  0  0  0  0  0  0
  149.4655  139.3166  154.3130 C   0  0  0  0  0  0  0  0  0  0  0  0
  150.0502  140.4442  154.7899 N   0  0  0  0  0  0  0  0  0  0  0  0
  149.3045  141.5642  154.8843 C   0  0  0  0  0  0  0  0  0  0  0  0
  147.9508  141.6227  154.5057 C   0  0  0  0  0  0  0  0  0  0  0  0
  147.3420  140.4547  154.0105 C   0  0  0  0  0  0  0  0  0  0  0  0
  148.1076  139.2670  153.9202 C   0  0  0  0  0  0  0  0  0  0  0  0
  147.5964  138.0407  153.4134 N   0  0  0  0  0  0  0  0  0  0  0  0
  146.3714  137.5149  153.5811 C   0  0  0  0  0  0  0  0  0  0  0  0
  145.4648  138.0192  154.2436 O   0  0  0  0  0  0  0  0  0  0  0  0
  146.2593  136.3384  152.9490 N   0  0  0  0  0  0  0  0  0  0  0  0
  145.0718  135.4904  152.9592 C   0  0  0  0  0  0  0  0  0  0  0  0
  145.0123  134.5527  151.7368 C   0  0  2  0  0  0  0  0  0  0  0  0
  143.6749  133.7931  151.6087 C   0  0  0  0  0  0  0  0  0  0  0  0
  143.8363  132.6961  150.5529 C   0  0  0  0  0  0  0  0  0  0  0  0
  145.5610  132.1057  150.7200 S   0  0  0  0  0  0  0  0  0  0  0  0
  145.5825  130.8837  151.5381 O   0  0  0  0  0  0  0  0  0  0  0  0
  146.2125  132.1464  149.4022 O   0  0  0  0  0  0  0  0  0  0  0  0
  146.1452  133.5130  151.7411 C   0  0  0  0  0  0  0  0  0  0  0  0
  152.0462  137.2415  154.4984 H   0  0  0  0  0  0  0  0  0  0  0  0
  151.6755  138.4844  155.6876 H   0  0  0  0  0  0  0  0  0  0  0  0
  152.1623  138.9368  154.0378 H   0  0  0  0  0  0  0  0  0  0  0  0
  149.8038  142.4421  155.2672 H   0  0  0  0  0  0  0  0  0  0  0  0
  147.3935  142.5442  154.5878 H   0  0  0  0  0  0  0  0  0  0  0  0
  146.3103  140.4952  153.6969 H   0  0  0  0  0  0  0  0  0  0  0  0
  148.2661  137.4642  152.9250 H   0  0  0  0  0  0  0  0  0  0  0  0
  147.0561  135.9996  152.4296 H   0  0  0  0  0  0  0  0  0  0  0  0
  145.0389  134.9100  153.8830 H   0  0  0  0  0  0  0  0  0  0  0  0
  144.1963  136.1400  152.9745 H   0  0  0  0  0  0  0  0  0  0  0  0
  145.1311  135.1509  150.8320 H   0  0  0  0  0  0  0  0  0  0  0  0
  143.4331  133.3289  152.5658 H   0  0  0  0  0  0  0  0  0  0  0  0
  142.8487  134.4598  151.3597 H   0  0  0  0  0  0  0  0  0  0  0  0
  143.1379  131.8690  150.6811 H   0  0  0  0  0  0  0  0  0  0  0  0
  143.7153  133.1060  149.5499 H   0  0  0  0  0  0  0  0  0  0  0  0
  147.0802  133.9046  151.3403 H   0  0  0  0  0  0  0  0  0  0  0  0
  146.3320  133.1354  152.7468 H   0  0  0  0  0  0  0  0  0  0  0  0
  1  2  1  0  0  0  0
  1 21  1  0  0  0  0
  1 22  1  0  0  0  0
  1 23  1  0  0  0  0
  2  3  1  0  0  0  0
  3  8  1  0  0  0  0
  3  4  2  0  0  0  0
  4  5  1  0  0  0  0
  5  6  2  0  0  0  0
  5 24  1  0  0  0  0
  6  7  1  0  0  0  0
  6 25  1  0  0  0  0
  7  8  2  0  0  0  0
  7 26  1  0  0  0  0
  8  9  1  0  0  0  0
  9 10  1  0  0  0  0
  9 27  1  0  0  0  0
 10 11  2  0  0  0  0
 10 12  1  0  0  0  0
 12 13  1  0  0  0  0
 12 28  1  0  0  0  0
 13 14  1  0  0  0  0
 13 29  1  0  0  0  0
 13 30  1  0  0  0  0
 14 20  1  0  0  0  0
 14 15  1  0  0  0  0
 14 31  1  0  0  0  0
 15 16  1  0  0  0  0
 15 32  1  0  0  0  0
 15 33  1  0  0  0  0
 16 17  1  0  0  0  0
 16 34  1  0  0  0  0
 16 35  1  0  0  0  0
 17 18  2  0  0  0  0
 17 19  2  0  0  0  0
 17 20  1  0  0  0  0
 20 36  1  0  0  0  0
 20 37  1  0  0  0  0
M  END
> <s_m_source_file>
AV-unprocessed.smi

> <i_m_source_file_index>
1409

> <i_lp_mmshare_version>
43012

> <i_f3d_flags>
0

> <s_epik_input>
W0NIM11PYzFuW2NIXVtjSF1bY0hdYzFbTkhdQyg9TylbTkhdW0NIMl1bQ0BASF0oW0NIMl0yKVtDSDJdW0NIMl1TMig9Tyk9Tw==

> <s_epik_cmdline>
J2VwaWtfcHl0aG9uJywgJy1waCcsICc3LjAnLCAnLXRuJywgJzgnLCAnLW1hJywgJzIwMCcsICctbWV0YWxfYmluZGluZycsICctaW1hZScsICc8aW5maWxlLm1hZT4nLCAnLW9tYWUnLCAnPG91dGZpbGUubWFlPic=

> <r_lp_tautomer_probability>
1

> <r_epik_Ionization_Penalty>
9.0549e-05

> <r_epik_Ionization_Penalty_Charging>
0

> <r_epik_Ionization_Penalty_Neutral>
9.0549e-05

> <r_epik_State_Penalty>
-0

> <r_epik_Charging_Adjusted_Penalty>
0

> <i_epik_Tot_Q>
0

> <i_epik_Tot_abs_Q>
0

> <r_epik_Metal_State_Penalty>
-0

> <b_epik_Metal_Only>
0

> <s_lp_Force_Field>
OPLS_2005

> <r_lp_Energy>
8.54576

> <b_lp_Chiralities_Consistent>
1

> <s_lp_Variant>
AV-unprocessed.smi:1409-1

> <Gold.Version>
5.8.1

> <Gold.Id.Protein>
6NUR|6NUR_protein|mol2

> <Gold.PLP.Fitness>
43.8895

> <Gold.PLP.PLP>
-33.1821

> <Gold.PLP.part.hbond>
-3.0000

> <Gold.PLP.part.metal>
0.0000

> <Gold.PLP.part.buried>
-4.2727

> <Gold.PLP.part.nonpolar>
-26.3043

> <Gold.PLP.part.repulsive>
0.8740

> <Gold.PLP.ligand.clash>
0.0000

> <Gold.PLP.ligand.torsion>
0.4647

> <Gold.PLP.Chemscore.Hbond>
2.9040

> <Gold.PLP.Chemscore.CHOScore>
0.9726

> <Gold.PLP.Chemscore.Metal>
0.0000

> <Gold.Chemscore.Hbonds>
donor molecule, donor type, donor heavy atom, donor atom, acceptor molecule, acceptor atom, score
      L1  H     9    27       P1  7948  1.00
      L1  H    12    28       P1  7948  1.00
      P1  H  7989  7998       L1     4  0.83
      L1  C     5    24       P1  8028  0.98

> <Gold.PLP.Chemscore.Internal.Correction>
0.0068

> <Gold.Rescore>
     Score         DG    S(hbond)    S(metal)    S(lipo)     H(rot)  DE(clash)    DE(int)     intcor
     14.98     -16.56       2.41        0.00      60.65       1.59       0.15       1.42       ----

> <Gold.Chemscore.Fitness>
14.9819

> <Gold.Chemscore.DG>
-16.5565

> <Gold.Chemscore.ZeroCoef>
-5.4800

> <Gold.Chemscore.Hbond>
2.4119

> <Gold.Chemscore.Metal>
0.0000

> <Gold.Chemscore.Lipo>
60.6494

> <Gold.Chemscore.Internal_Hbond>
0.0000

> <Gold.Chemscore.DEClash>
0.1509

> <Gold.Chemscore.DEInternal>
1.4236

> <Gold.Chemscore.Rot>
1.5919

> <Gold.Chemscore.Internal.Correction>
   9.000000E+99

> <Gold.Chemscore.Hbonds>
donor molecule, donor type, donor heavy atom, donor atom, acceptor molecule, acceptor atom, score
      L1  H     9    27       P1  7948  1.00
      L1  H    12    28       P1  7948  0.92
      P1  H  7989  7998       L1     4  0.24

> <Gold.Chemscore.Hbond.Weighted>
-8.0559

> <Gold.Chemscore.Metal.Weighted>
-0.0000

> <Gold.Chemscore.Lipo.Weighted>
-7.0960

> <Gold.Chemscore.Internal_Hbond.Weighted>
0.0000

> <Gold.Chemscore.DEClash.Weighted>
0.1509

> <Gold.Chemscore.DEInternal.Weighted>
1.4236

> <Gold.Chemscore.Rot.Weighted>
4.0754

> <Gold.Chemscore.Internal.Correction.Weighted>
   9.000000E+99

> <Gold.Protein.RotatedTorsions>
[ 6907 6896 6895 6894 ] final   50.36 input  -60.11 | X-H torsion
[ 7974 7965 7964 7962 ] final -170.90 input  175.53 | X-H torsion
[ 8008 7997 7996 7995 ] final   39.59 input   59.86 | X-H torsion
[ 10167 10162 10161 10158 ] final  -15.66 input  -65.29 | X-H torsion
[ 10718 10713 10712 10709 ] final  -29.15 input   66.30 | X-H torsion
[ 10763 10752 10751 10750 ] final   26.02 input  -60.55 | X-H torsion
[ 11005 11000 10999 10996 ] final -140.15 input  -57.11 | X-H torsion

> <Gold.Protein.ActiveResidues>
 VAL166  LYS551  ARG553  GLY616  TRP617  ASP618  TYR619  PRO620  LYS621  CYS622 
 ASP623  PHE694  ASN695  SER759  ASP760  ASP761  ALA762  ILE779  LEU786  VAL792 
 PHE793  MET794  SER795  GLU796  ALA797  LYS798  CYS799  TRP800  GLU811  SER814 

> <Gold.Protein.RotatedAtoms>
  152.3010  134.7611  160.0357 H   0  0  0  0  0  0  0  0  0  0  0  0  # atno 6907 bound_to 6896
  151.8124  133.3378  159.3567 H   0  0  0  0  0  0  0  0  0  0  0  0  # atno 6908 bound_to 6896
  150.7274  134.5581  159.5872 H   0  0  0  0  0  0  0  0  0  0  0  0  # atno 6909 bound_to 6896
  144.7164  140.2002  143.6339 H   0  0  0  0  0  0  0  0  0  0  0  0  # atno 7974 bound_to 7965
  155.2391  140.3344  155.4294 H   0  0  0  0  0  0  0  0  0  0  0  0  # atno 8008 bound_to 7997
  156.2263  140.1831  156.7400 H   0  0  0  0  0  0  0  0  0  0  0  0  # atno 8009 bound_to 7997
  154.5904  140.0639  156.9216 H   0  0  0  0  0  0  0  0  0  0  0  0  # atno 8010 bound_to 7997
  140.7222  143.5195  150.9651 H   0  0  0  0  0  0  0  0  0  0  0  0  # atno 10167 bound_to 10162
  156.4161  130.4417  149.7217 H   0  0  0  0  0  0  0  0  0  0  0  0  # atno 10718 bound_to 10713
  153.0651  135.6570  154.0373 H   0  0  0  0  0  0  0  0  0  0  0  0  # atno 10763 bound_to 10752
  154.0032  135.2935  155.3402 H   0  0  0  0  0  0  0  0  0  0  0  0  # atno 10764 bound_to 10752
  154.7006  135.5246  153.8589 H   0  0  0  0  0  0  0  0  0  0  0  0  # atno 10765 bound_to 10752
  140.8451  134.2354  157.4790 H   0  0  0  0  0  0  0  0  0  0  0  0  # atno 11005 bound_to 11000
  145.8686  139.2260  143.1674 LP  0  0  0  0  0  0  0  0  0  0  0  0  # atno 17320 bound_to 7965
  146.0106  140.8439  142.9973 LP  0  0  0  0  0  0  0  0  0  0  0  0  # atno 17321 bound_to 7965
  139.8912  143.6951  152.3145 LP  0  0  0  0  0  0  0  0  0  0  0  0  # atno 17342 bound_to 10162
  139.7267  144.7591  151.0867 LP  0  0  0  0  0  0  0  0  0  0  0  0  # atno 17343 bound_to 10162
  156.4176  130.7753  151.2769 LP  0  0  0  0  0  0  0  0  0  0  0  0  # atno 17370 bound_to 10713
  157.7508  131.0192  150.3659 LP  0  0  0  0  0  0  0  0  0  0  0  0  # atno 17371 bound_to 10713
  139.8703  134.9655  156.4531 LP  0  0  0  0  0  0  0  0  0  0  0  0  # atno 17394 bound_to 11000
  140.8852  133.7888  155.9511 LP  0  0  0  0  0  0  0  0  0  0  0  0  # atno 17395 bound_to 11000

$$$$
