AV-unprocessed.smi:1820|AV-procd|sdf|7385|dock7
  -GOLD-   22720 9 53D 1   1.00000     0.00000
 Structure written by MMmdl.
 35 36  0  0  0  0  0  0  0  0  2 V2000
  150.4178  141.0922  157.9820 O   0  0  0  0  0  0  0  0  0  0  0  0
  150.0617  142.0584  157.3079 C   0  0  0  0  0  0  0  0  0  0  0  0
  149.9909  143.3089  157.7843 N   0  0  0  0  0  0  0  0  0  0  0  0
  150.3618  143.7156  159.1372 C   0  0  0  0  0  0  0  0  0  0  0  0
  151.8776  144.0054  159.2886 C   0  0  0  0  0  0  0  0  0  0  0  0
  152.2547  144.9384  158.2946 O   0  0  0  0  0  0  0  0  0  0  0  0
  152.3057  144.4764  160.6878 C   0  0  0  0  0  0  0  0  0  0  0  0
  152.4472  143.1904  161.5080 C   0  0  0  0  0  0  0  0  0  0  0  0
  152.7733  142.0785  160.4984 C   0  0  0  0  0  0  0  0  0  0  0  0
  152.7064  142.7256  159.1075 C   0  0  0  0  0  0  0  0  0  0  0  0
  149.6805  142.0077  156.0199 N   0  0  0  0  0  0  0  0  0  0  0  0
  149.6286  140.8817  155.1537 C   0  0  0  0  0  0  0  0  0  0  0  0
  150.6364  139.9019  155.2968 C   0  0  0  0  0  0  0  0  0  0  0  0
  150.6211  138.7613  154.4685 C   0  0  0  0  0  0  0  0  0  0  0  0
  149.6398  138.6074  153.5540 N   0  3  0  0  0  0  0  0  0  0  0  0
  148.6467  139.5074  153.3910 C   0  0  0  0  0  0  0  0  0  0  0  0
  148.6098  140.6685  154.1900 C   0  0  0  0  0  0  0  0  0  0  0  0
  149.6830  144.0410  157.1613 H   0  0  0  0  0  0  0  0  0  0  0  0
  149.7926  144.6211  159.3484 H   0  0  0  0  0  0  0  0  0  0  0  0
  150.0308  142.9833  159.8760 H   0  0  0  0  0  0  0  0  0  0  0  0
  152.1908  144.5203  157.4497 H   0  0  0  0  0  0  0  0  0  0  0  0
  153.2832  144.9578  160.6279 H   0  0  0  0  0  0  0  0  0  0  0  0
  151.6285  145.1970  161.1460 H   0  0  0  0  0  0  0  0  0  0  0  0
  153.2126  143.2855  162.2789 H   0  0  0  0  0  0  0  0  0  0  0  0
  151.5051  142.9651  162.0095 H   0  0  0  0  0  0  0  0  0  0  0  0
  153.7560  141.6421  160.6805 H   0  0  0  0  0  0  0  0  0  0  0  0
  152.0406  141.2748  160.5811 H   0  0  0  0  0  0  0  0  0  0  0  0
  152.2971  142.0547  158.3511 H   0  0  0  0  0  0  0  0  0  0  0  0
  153.7213  142.9788  158.7954 H   0  0  0  0  0  0  0  0  0  0  0  0
  149.3370  142.8721  155.6278 H   0  0  0  0  0  0  0  0  0  0  0  0
  151.4204  140.0230  156.0304 H   0  0  0  0  0  0  0  0  0  0  0  0
  151.3577  137.9723  154.5119 H   0  0  0  0  0  0  0  0  0  0  0  0
  147.9123  139.2716  152.6348 H   0  0  0  0  0  0  0  0  0  0  0  0
  147.7956  141.3637  154.0544 H   0  0  0  0  0  0  0  0  0  0  0  0
  149.6460  137.7743  152.9649 H   0  0  0  0  0  0  0  0  0  0  0  0
  1  2  2  0  0  0  0
  2  3  1  0  0  0  0
  2 11  1  0  0  0  0
  3  4  1  0  0  0  0
  3 18  1  0  0  0  0
  4  5  1  0  0  0  0
  4 19  1  0  0  0  0
  4 20  1  0  0  0  0
  5 10  1  0  0  0  0
  5  6  1  0  0  0  0
  5  7  1  0  0  0  0
  6 21  1  0  0  0  0
  7  8  1  0  0  0  0
  7 22  1  0  0  0  0
  7 23  1  0  0  0  0
  8  9  1  0  0  0  0
  8 24  1  0  0  0  0
  8 25  1  0  0  0  0
  9 10  1  0  0  0  0
  9 26  1  0  0  0  0
  9 27  1  0  0  0  0
 10 28  1  0  0  0  0
 10 29  1  0  0  0  0
 11 12  1  0  0  0  0
 11 30  1  0  0  0  0
 12 17  1  0  0  0  0
 12 13  2  0  0  0  0
 13 14  1  0  0  0  0
 13 31  1  0  0  0  0
 14 15  2  0  0  0  0
 14 32  1  0  0  0  0
 15 16  1  0  0  0  0
 15 35  1  0  0  0  0
 16 17  2  0  0  0  0
 16 33  1  0  0  0  0
 17 34  1  0  0  0  0
M  CHG  1  15   1
M  END
> <s_m_source_file>
AV-unprocessed.smi

> <i_m_source_file_index>
1820

> <i_lp_mmshare_version>
43012

> <i_f3d_flags>
0

> <s_epik_input>
W2NIXTFbY0hdbltjSF1bY0hdYzFbTkhdQyg9TylbTkhdW0NIMl1DMihbT0hdKVtDSDJdW0NIMl1bQ0gyXVtDSDJdMg==

> <s_epik_cmdline>
J2VwaWtfcHl0aG9uJywgJy1waCcsICc3LjAnLCAnLXRuJywgJzgnLCAnLW1hJywgJzIwMCcsICctbWV0YWxfYmluZGluZycsICctaW1hZScsICc8aW5maWxlLm1hZT4nLCAnLW9tYWUnLCAnPG91dGZpbGUubWFlPic=

> <r_epik_Ionization_Penalty>
0.972463

> <r_epik_Ionization_Penalty_Charging>
0.972441

> <r_epik_Ionization_Penalty_Neutral>
2.25054e-05

> <r_epik_State_Penalty>
1.01855

> <r_epik_Charging_Adjusted_Penalty>
1.99099

> <i_epik_Tot_Q>
1

> <i_epik_Tot_abs_Q>
1

> <r_epik_Metal_State_Penalty>
1.12508

> <b_epik_Metal_Only>
0

> <s_lp_Force_Field>
OPLS_2005

> <r_lp_Energy>
34.043

> <b_lp_Chiralities_Consistent>
1

> <s_lp_Variant>
AV-unprocessed.smi:1820-2

> <Gold.Version>
5.8.1

> <Gold.Id.Protein>
6NUR|6NUR_protein|mol2

> <Gold.PLP.Fitness>
49.8617

> <Gold.PLP.PLP>
-38.7897

> <Gold.PLP.part.hbond>
-4.0000

> <Gold.PLP.part.metal>
0.0000

> <Gold.PLP.part.buried>
-0.6312

> <Gold.PLP.part.nonpolar>
-34.5316

> <Gold.PLP.part.repulsive>
0.2372

> <Gold.PLP.ligand.clash>
0.0000

> <Gold.PLP.ligand.torsion>
0.4687

> <Gold.PLP.Chemscore.Hbond>
4.0000

> <Gold.PLP.Chemscore.CHOScore>
0.0000

> <Gold.PLP.Chemscore.Metal>
0.0000

> <Gold.Chemscore.Hbonds>
donor molecule, donor type, donor heavy atom, donor atom, acceptor molecule, acceptor atom, score
      L1  H     3    18       P1  8028  1.00
      L1  H    11    30       P1  8028  1.00
      L1  H    15    35       P1  7948  2.00

> <Gold.PLP.Chemscore.Internal.Correction>
0.0094

> <Gold.Rescore>
     Score         DG    S(hbond)    S(metal)    S(lipo)     H(rot)  DE(clash)    DE(int)     intcor
     18.68     -20.37       2.60        0.00      92.15       1.79       0.05       1.64       ----

> <Gold.Chemscore.Fitness>
18.6816

> <Gold.Chemscore.DG>
-20.3749

> <Gold.Chemscore.ZeroCoef>
-5.4800

> <Gold.Chemscore.Hbond>
2.6003

> <Gold.Chemscore.Metal>
0.0000

> <Gold.Chemscore.Lipo>
92.1500

> <Gold.Chemscore.Internal_Hbond>
0.0000

> <Gold.Chemscore.DEClash>
0.0509

> <Gold.Chemscore.DEInternal>
1.6424

> <Gold.Chemscore.Rot>
1.7858

> <Gold.Chemscore.Internal.Correction>
   9.000000E+99

> <Gold.Chemscore.Hbonds>
donor molecule, donor type, donor heavy atom, donor atom, acceptor molecule, acceptor atom, score
      L1  H     3    18       P1  8028  0.65
      L1  H    11    30       P1  8028  0.98
      L1  H    15    35       P1  7948  0.68

> <Gold.Chemscore.Hbond.Weighted>
-8.6851

> <Gold.Chemscore.Metal.Weighted>
-0.0000

> <Gold.Chemscore.Lipo.Weighted>
-10.7816

> <Gold.Chemscore.Internal_Hbond.Weighted>
0.0000

> <Gold.Chemscore.DEClash.Weighted>
0.0509

> <Gold.Chemscore.DEInternal.Weighted>
1.6424

> <Gold.Chemscore.Rot.Weighted>
4.5717

> <Gold.Chemscore.Internal.Correction.Weighted>
   9.000000E+99

> <Gold.Protein.RotatedTorsions>
[ 6907 6896 6895 6894 ] final   -2.70 input  -60.11 | X-H torsion
[ 7974 7965 7964 7962 ] final   28.74 input  175.53 | X-H torsion
[ 8008 7997 7996 7995 ] final  -80.32 input   59.86 | X-H torsion
[ 10167 10162 10161 10158 ] final -106.32 input  -65.29 | X-H torsion
[ 10718 10713 10712 10709 ] final  167.94 input   66.30 | X-H torsion
[ 10763 10752 10751 10750 ] final   46.91 input  -60.55 | X-H torsion
[ 11005 11000 10999 10996 ] final  -71.87 input  -57.11 | X-H torsion

> <Gold.Protein.ActiveResidues>
 VAL166  LYS551  ARG553  GLY616  TRP617  ASP618  TYR619  PRO620  LYS621  CYS622 
 ASP623  PHE694  ASN695  SER759  ASP760  ASP761  ALA762  ILE779  LEU786  VAL792 
 PHE793  MET794  SER795  GLU796  ALA797  LYS798  CYS799  TRP800  GLU811  SER814 

> <Gold.Protein.RotatedAtoms>
  151.5257  135.1068  159.9889 H   0  0  0  0  0  0  0  0  0  0  0  0  # atno 6907 bound_to 6896
  152.4601  133.7800  159.6856 H   0  0  0  0  0  0  0  0  0  0  0  0  # atno 6908 bound_to 6896
  150.8559  133.7651  159.3034 H   0  0  0  0  0  0  0  0  0  0  0  0  # atno 6909 bound_to 6896
  146.1711  139.7015  142.8966 H   0  0  0  0  0  0  0  0  0  0  0  0  # atno 7974 bound_to 7965
  154.5872  140.0664  156.9187 H   0  0  0  0  0  0  0  0  0  0  0  0  # atno 8008 bound_to 7997
  155.2359  140.3341  155.4279 H   0  0  0  0  0  0  0  0  0  0  0  0  # atno 8009 bound_to 7997
  156.2231  140.1807  156.7414 H   0  0  0  0  0  0  0  0  0  0  0  0  # atno 8010 bound_to 7997
  140.1890  143.3907  152.1221 H   0  0  0  0  0  0  0  0  0  0  0  0  # atno 10167 bound_to 10162
  157.0443  131.0295  151.2703 H   0  0  0  0  0  0  0  0  0  0  0  0  # atno 10718 bound_to 10713
  152.9805  135.5993  154.3677 H   0  0  0  0  0  0  0  0  0  0  0  0  # atno 10763 bound_to 10752
  154.3353  135.2768  155.2452 H   0  0  0  0  0  0  0  0  0  0  0  0  # atno 10764 bound_to 10752
  154.4558  135.5978  153.6278 H   0  0  0  0  0  0  0  0  0  0  0  0  # atno 10765 bound_to 10752
  141.1599  133.6830  156.6972 H   0  0  0  0  0  0  0  0  0  0  0  0  # atno 11005 bound_to 11000
  145.4336  141.0417  143.2896 LP  0  0  0  0  0  0  0  0  0  0  0  0  # atno 17320 bound_to 7965
  144.8165  139.5867  143.7006 LP  0  0  0  0  0  0  0  0  0  0  0  0  # atno 17321 bound_to 7965
  139.5264  144.7107  151.5215 LP  0  0  0  0  0  0  0  0  0  0  0  0  # atno 17342 bound_to 10162
  140.6469  143.8777  150.6746 LP  0  0  0  0  0  0  0  0  0  0  0  0  # atno 17343 bound_to 10162
  157.5080  130.7921  149.7675 LP  0  0  0  0  0  0  0  0  0  0  0  0  # atno 17370 bound_to 10713
  156.0028  130.3871  150.2542 LP  0  0  0  0  0  0  0  0  0  0  0  0  # atno 17371 bound_to 10713
  140.2986  134.8182  157.4078 LP  0  0  0  0  0  0  0  0  0  0  0  0  # atno 17394 bound_to 11000
  140.1282  134.5130  155.8127 LP  0  0  0  0  0  0  0  0  0  0  0  0  # atno 17395 bound_to 11000

$$$$
