AV-unprocessed.smi:1185|AV-procd|sdf|4973|dock2
  -GOLD-   22720 3563D 1   1.00000     0.00000
 Structure written by MMmdl.
 38 40  0  0  0  0  0  0  0  0  1 V2000
  152.2251  138.6752  158.4340 O   0  0  0  0  0  0  0  0  0  0  0  0
  152.3719  139.8625  158.7271 C   0  0  0  0  0  0  0  0  0  0  0  0
  153.4259  140.3521  159.6285 C   0  0  0  0  0  0  0  0  0  0  0  0
  154.3761  139.3270  160.2419 C   0  0  0  0  0  0  0  0  0  0  0  0
  155.1564  139.8737  161.1755 F   0  0  0  0  0  0  0  0  0  0  0  0
  153.6910  138.3354  160.8124 F   0  0  0  0  0  0  0  0  0  0  0  0
  155.1672  138.8024  159.3053 F   0  0  0  0  0  0  0  0  0  0  0  0
  153.5311  141.6771  159.8938 C   0  0  0  0  0  0  0  0  0  0  0  0
  152.6100  142.6193  159.2908 C   0  0  0  0  0  0  0  0  0  0  0  0
  152.6827  144.1008  159.5270 C   0  0  0  0  0  0  0  0  0  0  0  0
  151.5747  144.8474  160.2328 C   0  0  0  0  0  0  0  0  0  0  0  0
  151.8215  145.0785  158.7601 C   0  0  0  0  0  0  0  0  0  0  0  0
  151.6792  142.1862  158.5090 N   0  0  0  0  0  0  0  0  0  0  0  0
  151.5586  140.8399  158.2280 N   0  0  0  0  0  0  0  0  0  0  0  0
  150.4621  140.5227  157.3042 C   0  0  0  0  0  0  0  0  0  0  0  0
  150.6089  141.2521  155.9509 C   0  0  2  0  0  0  0  0  0  0  0  0
  150.6991  142.6435  156.1949 O   0  0  0  0  0  0  0  0  0  0  0  0
  149.4454  140.9190  155.0252 C   0  0  0  0  0  0  0  0  0  0  0  0
  148.5113  141.9157  154.6620 C   0  0  0  0  0  0  0  0  0  0  0  0
  147.4312  141.6051  153.8133 C   0  0  0  0  0  0  0  0  0  0  0  0
  147.2738  140.2946  153.3246 C   0  0  0  0  0  0  0  0  0  0  0  0
  148.1951  139.2946  153.6886 C   0  0  0  0  0  0  0  0  0  0  0  0
  149.2763  139.6028  154.5373 C   0  0  0  0  0  0  0  0  0  0  0  0
  150.1478  138.6247  154.8823 F   0  0  0  0  0  0  0  0  0  0  0  0
  154.2967  142.0556  160.5543 H   0  0  0  0  0  0  0  0  0  0  0  0
  153.7042  144.4074  159.7436 H   0  0  0  0  0  0  0  0  0  0  0  0
  150.6810  144.2911  160.5100 H   0  0  0  0  0  0  0  0  0  0  0  0
  151.8629  145.6391  160.9213 H   0  0  0  0  0  0  0  0  0  0  0  0
  152.2739  146.0242  158.4685 H   0  0  0  0  0  0  0  0  0  0  0  0
  151.0827  144.6825  158.0656 H   0  0  0  0  0  0  0  0  0  0  0  0
  150.4576  139.4436  157.1378 H   0  0  0  0  0  0  0  0  0  0  0  0
  149.4904  140.7395  157.7529 H   0  0  0  0  0  0  0  0  0  0  0  0
  151.5369  140.9549  155.4622 H   0  0  0  0  0  0  0  0  0  0  0  0
  149.9019  143.0518  155.8938 H   0  0  0  0  0  0  0  0  0  0  0  0
  148.6176  142.9236  155.0357 H   0  0  0  0  0  0  0  0  0  0  0  0
  146.7225  142.3728  153.5391 H   0  0  0  0  0  0  0  0  0  0  0  0
  146.4457  140.0555  152.6737 H   0  0  0  0  0  0  0  0  0  0  0  0
  148.0717  138.2877  153.3176 H   0  0  0  0  0  0  0  0  0  0  0  0
  1  2  2  0  0  0  0
  2 14  1  0  0  0  0
  2  3  1  0  0  0  0
  3  4  1  0  0  0  0
  3  8  2  0  0  0  0
  4  5  1  0  0  0  0
  4  6  1  0  0  0  0
  4  7  1  0  0  0  0
  8  9  1  0  0  0  0
  8 25  1  0  0  0  0
  9 10  1  0  0  0  0
  9 13  2  0  0  0  0
 10 12  1  0  0  0  0
 10 11  1  0  0  0  0
 10 26  1  0  0  0  0
 11 12  1  0  0  0  0
 11 27  1  0  0  0  0
 11 28  1  0  0  0  0
 12 29  1  0  0  0  0
 12 30  1  0  0  0  0
 13 14  1  0  0  0  0
 14 15  1  0  0  0  0
 15 16  1  0  0  0  0
 15 31  1  0  0  0  0
 15 32  1  0  0  0  0
 16 17  1  0  0  0  0
 16 18  1  0  0  0  0
 16 33  1  0  0  0  0
 17 34  1  0  0  0  0
 18 23  1  0  0  0  0
 18 19  2  0  0  0  0
 19 20  1  0  0  0  0
 19 35  1  0  0  0  0
 20 21  2  0  0  0  0
 20 36  1  0  0  0  0
 21 22  1  0  0  0  0
 21 37  1  0  0  0  0
 22 23  2  0  0  0  0
 22 38  1  0  0  0  0
 23 24  1  0  0  0  0
M  END
> <s_m_source_file>
AV-unprocessed.smi

> <i_m_source_file_index>
1185

> <i_lp_mmshare_version>
43012

> <i_f3d_flags>
0

> <s_epik_input>
Tz1jMWMoQyhGKShGKUYpW2NIXWMoW0NIXTJbQ0gyXVtDSDJdMilubjFbQ0gyXVtDQEhdKFtPSF0pYzNbY0hdW2NIXVtjSF1bY0hdYzNG

> <s_epik_cmdline>
J2VwaWtfcHl0aG9uJywgJy1waCcsICc3LjAnLCAnLXRuJywgJzgnLCAnLW1hJywgJzIwMCcsICctbWV0YWxfYmluZGluZycsICctaW1hZScsICc8aW5maWxlLm1hZT4nLCAnLW9tYWUnLCAnPG91dGZpbGUubWFlPic=

> <r_lp_tautomer_probability>
1

> <r_epik_Ionization_Penalty>
7.26807e-08

> <r_epik_Ionization_Penalty_Charging>
9.677e-10

> <r_epik_Ionization_Penalty_Neutral>
7.1713e-08

> <r_epik_State_Penalty>
-0

> <r_epik_Charging_Adjusted_Penalty>
9.677e-10

> <i_epik_Tot_Q>
0

> <i_epik_Tot_abs_Q>
0

> <r_epik_Metal_State_Penalty>
-0

> <b_epik_Metal_Only>
0

> <s_lp_Force_Field>
OPLS_2005

> <r_lp_Energy>
34.1774

> <b_lp_Chiralities_Consistent>
1

> <s_lp_Variant>
AV-unprocessed.smi:1185-1

> <Gold.Version>
5.8.1

> <Gold.Id.Protein>
6NUR|6NUR_protein|mol2

> <Gold.PLP.Fitness>
54.6818

> <Gold.PLP.PLP>
-52.2445

> <Gold.PLP.part.hbond>
-1.0000

> <Gold.PLP.part.metal>
0.0000

> <Gold.PLP.part.buried>
-2.7217

> <Gold.PLP.part.nonpolar>
-48.4515

> <Gold.PLP.part.repulsive>
0.0120

> <Gold.PLP.ligand.clash>
0.1719

> <Gold.PLP.ligand.torsion>
0.3997

> <Gold.PLP.Chemscore.Hbond>
0.9440

> <Gold.PLP.Chemscore.CHOScore>
0.0000

> <Gold.PLP.Chemscore.Metal>
0.0000

> <Gold.Chemscore.Hbonds>
donor molecule, donor type, donor heavy atom, donor atom, acceptor molecule, acceptor atom, score
      L1  H    17    34       P1  8028  0.94

> <Gold.PLP.Chemscore.Internal.Correction>
0.5766

> <Gold.Rescore>
     Score         DG    S(hbond)    S(metal)    S(lipo)     H(rot)  DE(clash)    DE(int)     intcor
     14.97     -17.21       0.88        0.00     123.26       2.20       0.30       1.93       ----

> <Gold.Chemscore.Fitness>
14.9743

> <Gold.Chemscore.DG>
-17.2070

> <Gold.Chemscore.ZeroCoef>
-5.4800

> <Gold.Chemscore.Hbond>
0.8797

> <Gold.Chemscore.Metal>
0.0000

> <Gold.Chemscore.Lipo>
123.2609

> <Gold.Chemscore.Internal_Hbond>
0.0000

> <Gold.Chemscore.DEClash>
0.3006

> <Gold.Chemscore.DEInternal>
1.9321

> <Gold.Chemscore.Rot>
2.2003

> <Gold.Chemscore.Internal.Correction>
   9.000000E+99

> <Gold.Chemscore.Hbonds>
donor molecule, donor type, donor heavy atom, donor atom, acceptor molecule, acceptor atom, score
      L1  H    17    34       P1  8028  0.89

> <Gold.Chemscore.Hbond.Weighted>
-2.9383

> <Gold.Chemscore.Metal.Weighted>
-0.0000

> <Gold.Chemscore.Lipo.Weighted>
-14.4215

> <Gold.Chemscore.Internal_Hbond.Weighted>
0.0000

> <Gold.Chemscore.DEClash.Weighted>
0.3006

> <Gold.Chemscore.DEInternal.Weighted>
1.9321

> <Gold.Chemscore.Rot.Weighted>
5.6328

> <Gold.Chemscore.Internal.Correction.Weighted>
   9.000000E+99

> <Gold.Protein.RotatedTorsions>
[ 6907 6896 6895 6894 ] final -174.03 input  -60.11 | X-H torsion
[ 7974 7965 7964 7962 ] final   18.33 input  175.53 | X-H torsion
[ 8008 7997 7996 7995 ] final   79.88 input   59.86 | X-H torsion
[ 10167 10162 10161 10158 ] final -136.18 input  -65.29 | X-H torsion
[ 10718 10713 10712 10709 ] final  -90.65 input   66.30 | X-H torsion
[ 10763 10752 10751 10750 ] final   14.47 input  -60.55 | X-H torsion
[ 11005 11000 10999 10996 ] final  123.11 input  -57.11 | X-H torsion

> <Gold.Protein.ActiveResidues>
 VAL166  LYS551  ARG553  GLY616  TRP617  ASP618  TYR619  PRO620  LYS621  CYS622 
 ASP623  PHE694  ASN695  SER759  ASP760  ASP761  ALA762  ILE779  LEU786  VAL792 
 PHE793  MET794  SER795  GLU796  ALA797  LYS798  CYS799  TRP800  GLU811  SER814 

> <Gold.Protein.RotatedAtoms>
  151.5657  133.3397  159.2979 H   0  0  0  0  0  0  0  0  0  0  0  0  # atno 6907 bound_to 6896
  150.8397  134.7686  159.6933 H   0  0  0  0  0  0  0  0  0  0  0  0  # atno 6908 bound_to 6896
  152.4467  134.5488  159.9912 H   0  0  0  0  0  0  0  0  0  0  0  0  # atno 6909 bound_to 6896
  146.2188  139.8473  142.8629 H   0  0  0  0  0  0  0  0  0  0  0  0  # atno 7974 bound_to 7965
  155.8758  140.3446  155.5853 H   0  0  0  0  0  0  0  0  0  0  0  0  # atno 8008 bound_to 7997
  155.7776  140.0854  157.2095 H   0  0  0  0  0  0  0  0  0  0  0  0  # atno 8009 bound_to 7997
  154.4020  140.1507  156.3002 H   0  0  0  0  0  0  0  0  0  0  0  0  # atno 8010 bound_to 7997
  139.8703  143.6965  152.2640 H   0  0  0  0  0  0  0  0  0  0  0  0  # atno 10167 bound_to 10162
  155.9989  130.4918  150.5355 H   0  0  0  0  0  0  0  0  0  0  0  0  # atno 10718 bound_to 10713
  153.1619  135.6797  153.8730 H   0  0  0  0  0  0  0  0  0  0  0  0  # atno 10763 bound_to 10752
  153.8123  135.3141  155.3403 H   0  0  0  0  0  0  0  0  0  0  0  0  # atno 10764 bound_to 10752
  154.7938  135.4819  154.0203 H   0  0  0  0  0  0  0  0  0  0  0  0  # atno 10765 bound_to 10752
  139.9298  134.9641  156.8211 H   0  0  0  0  0  0  0  0  0  0  0  0  # atno 11005 bound_to 11000
  145.2837  141.0146  143.3702 LP  0  0  0  0  0  0  0  0  0  0  0  0  # atno 17320 bound_to 7965
  144.9130  139.4505  143.6578 LP  0  0  0  0  0  0  0  0  0  0  0  0  # atno 17321 bound_to 7965
  139.7290  144.7586  151.0833 LP  0  0  0  0  0  0  0  0  0  0  0  0  # atno 17342 bound_to 10162
  140.7761  143.5112  150.9650 LP  0  0  0  0  0  0  0  0  0  0  0  0  # atno 17343 bound_to 10162
  157.3299  131.0697  151.1869 LP  0  0  0  0  0  0  0  0  0  0  0  0  # atno 17370 bound_to 10713
  157.2753  130.6724  149.6039 LP  0  0  0  0  0  0  0  0  0  0  0  0  # atno 17371 bound_to 10713
  140.6234  133.9973  155.7628 LP  0  0  0  0  0  0  0  0  0  0  0  0  # atno 17394 bound_to 11000
  141.0879  133.9961  157.3283 LP  0  0  0  0  0  0  0  0  0  0  0  0  # atno 17395 bound_to 11000

$$$$
