AV-unprocessed.smi:1699|AV-procd|sdf|6816|dock6
  -GOLD-   22720 7593D 1   1.00000     0.00000
 Structure written by MMmdl.
 37 38  0  0  0  0  0  0  0  0  1 V2000
  145.5953  135.4645  150.9426 C   0  0  0  0  0  0  0  0  0  0  0  0
  145.5608  133.9495  151.0623 C   0  0  0  0  0  0  0  0  0  0  0  0
  144.5761  133.2240  150.3582 C   0  0  0  0  0  0  0  0  0  0  0  0
  144.5465  131.8232  150.4679 C   0  0  0  0  0  0  0  0  0  0  0  0
  145.5097  131.2032  151.2822 C   0  0  0  0  0  0  0  0  0  0  0  0
  146.4540  131.8886  151.9583 N   0  0  0  0  0  0  0  0  0  0  0  0
  146.4969  133.2414  151.8630 C   0  0  0  0  0  0  0  0  0  0  0  0
  147.4609  134.0293  152.5534 N   0  0  0  0  0  0  0  0  0  0  0  0
  147.9299  133.8715  153.8039 C   0  0  0  0  0  0  0  0  0  0  0  0
  147.6112  132.9667  154.5761 O   0  0  0  0  0  0  0  0  0  0  0  0
  148.8148  134.8306  154.1120 N   0  0  0  0  0  0  0  0  0  0  0  0
  149.5250  134.9523  155.3828 C   0  0  1  0  0  0  0  0  0  0  0  0
  150.5349  133.7996  155.5125 C   0  0  0  0  0  0  0  0  0  0  0  0
  150.2002  136.3351  155.4538 C   0  0  2  0  0  0  0  0  0  0  0  0
  149.3083  137.5064  155.0384 C   0  0  0  0  0  0  0  0  0  0  0  0
  150.2948  138.5614  154.5615 C   0  0  0  0  0  0  0  0  0  0  0  0
  151.6075  137.7936  154.3846 C   0  0  0  0  0  0  0  0  0  0  0  0
  151.2555  136.4233  154.5082 O   0  0  0  0  0  0  0  0  0  0  0  0
  144.8161  135.8281  150.2720 H   0  0  0  0  0  0  0  0  0  0  0  0
  146.5567  135.7945  150.5481 H   0  0  0  0  0  0  0  0  0  0  0  0
  145.4423  135.9279  151.9176 H   0  0  0  0  0  0  0  0  0  0  0  0
  143.8501  133.7319  149.7403 H   0  0  0  0  0  0  0  0  0  0  0  0
  143.8056  131.2395  149.9420 H   0  0  0  0  0  0  0  0  0  0  0  0
  145.5228  130.1291  151.3947 H   0  0  0  0  0  0  0  0  0  0  0  0
  147.8391  134.8045  152.0300 H   0  0  0  0  0  0  0  0  0  0  0  0
  149.0117  135.5356  153.4169 H   0  0  0  0  0  0  0  0  0  0  0  0
  148.8120  134.8816  156.2064 H   0  0  0  0  0  0  0  0  0  0  0  0
  151.0531  133.8305  156.4710 H   0  0  0  0  0  0  0  0  0  0  0  0
  151.2884  133.8417  154.7251 H   0  0  0  0  0  0  0  0  0  0  0  0
  150.0375  132.8312  155.4455 H   0  0  0  0  0  0  0  0  0  0  0  0
  150.6058  136.5137  156.4519 H   0  0  0  0  0  0  0  0  0  0  0  0
  148.6617  137.2132  154.2100 H   0  0  0  0  0  0  0  0  0  0  0  0
  148.6729  137.8599  155.8509 H   0  0  0  0  0  0  0  0  0  0  0  0
  149.9607  139.0104  153.6256 H   0  0  0  0  0  0  0  0  0  0  0  0
  150.4123  139.3604  155.2944 H   0  0  0  0  0  0  0  0  0  0  0  0
  152.0827  137.9911  153.4235 H   0  0  0  0  0  0  0  0  0  0  0  0
  152.3137  138.0548  155.1741 H   0  0  0  0  0  0  0  0  0  0  0  0
  1  2  1  0  0  0  0
  1 19  1  0  0  0  0
  1 20  1  0  0  0  0
  1 21  1  0  0  0  0
  2  7  1  0  0  0  0
  2  3  2  0  0  0  0
  3  4  1  0  0  0  0
  3 22  1  0  0  0  0
  4  5  2  0  0  0  0
  4 23  1  0  0  0  0
  5  6  1  0  0  0  0
  5 24  1  0  0  0  0
  6  7  2  0  0  0  0
  7  8  1  0  0  0  0
  8  9  1  0  0  0  0
  8 25  1  0  0  0  0
  9 10  2  0  0  0  0
  9 11  1  0  0  0  0
 11 12  1  0  0  0  0
 11 26  1  0  0  0  0
 12 13  1  0  0  0  0
 12 14  1  0  0  0  0
 12 27  1  0  0  0  0
 13 28  1  0  0  0  0
 13 29  1  0  0  0  0
 13 30  1  0  0  0  0
 14 18  1  0  0  0  0
 14 15  1  0  0  0  0
 14 31  1  0  0  0  0
 15 16  1  0  0  0  0
 15 32  1  0  0  0  0
 15 33  1  0  0  0  0
 16 17  1  0  0  0  0
 16 34  1  0  0  0  0
 16 35  1  0  0  0  0
 17 18  1  0  0  0  0
 17 36  1  0  0  0  0
 17 37  1  0  0  0  0
M  END
> <s_m_source_file>
AV-unprocessed.smi

> <i_m_source_file_index>
1699

> <i_lp_mmshare_version>
43012

> <i_f3d_flags>
0

> <s_epik_input>
W0NIM11jMVtjSF1bY0hdW2NIXW5jMVtOSF1DKD1PKVtOSF1bQ0BIXShbQ0gzXSlbQ0BASF0yW0NIMl1bQ0gyXVtDSDJdTzI=

> <s_epik_cmdline>
J2VwaWtfcHl0aG9uJywgJy1waCcsICc3LjAnLCAnLXRuJywgJzgnLCAnLW1hJywgJzIwMCcsICctbWV0YWxfYmluZGluZycsICctaW1hZScsICc8aW5maWxlLm1hZT4nLCAnLW9tYWUnLCAnPG91dGZpbGUubWFlPic=

> <r_lp_tautomer_probability>
1

> <r_epik_Ionization_Penalty>
5.52788e-05

> <r_epik_Ionization_Penalty_Charging>
0

> <r_epik_Ionization_Penalty_Neutral>
5.52788e-05

> <r_epik_State_Penalty>
-0

> <r_epik_Charging_Adjusted_Penalty>
0

> <i_epik_Tot_Q>
0

> <i_epik_Tot_abs_Q>
0

> <r_epik_Metal_State_Penalty>
-0

> <b_epik_Metal_Only>
0

> <s_lp_Force_Field>
OPLS_2005

> <r_lp_Energy>
21.1958

> <b_lp_Chiralities_Consistent>
1

> <s_lp_Variant>
AV-unprocessed.smi:1699-2

> <Gold.Version>
5.8.1

> <Gold.Id.Protein>
6NUR|6NUR_protein|mol2

> <Gold.PLP.Fitness>
40.6365

> <Gold.PLP.PLP>
-32.6738

> <Gold.PLP.part.hbond>
-3.0000

> <Gold.PLP.part.metal>
0.0000

> <Gold.PLP.part.buried>
-5.6244

> <Gold.PLP.part.nonpolar>
-24.5951

> <Gold.PLP.part.repulsive>
0.8138

> <Gold.PLP.ligand.clash>
0.0000

> <Gold.PLP.ligand.torsion>
0.5301

> <Gold.PLP.Chemscore.Hbond>
3.0000

> <Gold.PLP.Chemscore.CHOScore>
0.0000

> <Gold.PLP.Chemscore.Metal>
0.0000

> <Gold.Chemscore.Hbonds>
donor molecule, donor type, donor heavy atom, donor atom, acceptor molecule, acceptor atom, score
      L1  H     8    25       P1  7948  1.00
      L1  H    11    26       P1  7948  1.00
      P1  H 10752 10764       L1    18  1.00

> <Gold.PLP.Chemscore.Internal.Correction>
0.0230

> <Gold.Rescore>
     Score         DG    S(hbond)    S(metal)    S(lipo)     H(rot)  DE(clash)    DE(int)     intcor
     17.87     -18.64       2.54        0.00      66.64       1.22       0.03       0.74       ----

> <Gold.Chemscore.Fitness>
17.8719

> <Gold.Chemscore.DG>
-18.6377

> <Gold.Chemscore.ZeroCoef>
-5.4800

> <Gold.Chemscore.Hbond>
2.5400

> <Gold.Chemscore.Metal>
0.0000

> <Gold.Chemscore.Lipo>
66.6447

> <Gold.Chemscore.Internal_Hbond>
0.0000

> <Gold.Chemscore.DEClash>
0.0274

> <Gold.Chemscore.DEInternal>
0.7384

> <Gold.Chemscore.Rot>
1.2200

> <Gold.Chemscore.Internal.Correction>
   9.000000E+99

> <Gold.Chemscore.Hbonds>
donor molecule, donor type, donor heavy atom, donor atom, acceptor molecule, acceptor atom, score
      L1  H     8    25       P1  7948  0.54
      L1  H    11    26       P1  7948  0.69
      P1  H 10752 10764       L1    18  0.30

> <Gold.Chemscore.Hbond.Weighted>
-8.4835

> <Gold.Chemscore.Metal.Weighted>
-0.0000

> <Gold.Chemscore.Lipo.Weighted>
-7.7974

> <Gold.Chemscore.Internal_Hbond.Weighted>
0.0000

> <Gold.Chemscore.DEClash.Weighted>
0.0274

> <Gold.Chemscore.DEInternal.Weighted>
0.7384

> <Gold.Chemscore.Rot.Weighted>
3.1232

> <Gold.Chemscore.Internal.Correction.Weighted>
   9.000000E+99

> <Gold.Protein.RotatedTorsions>
[ 6907 6896 6895 6894 ] final    7.54 input  -60.11 | X-H torsion
[ 7974 7965 7964 7962 ] final   -3.91 input  175.53 | X-H torsion
[ 8008 7997 7996 7995 ] final  -61.61 input   59.86 | X-H torsion
[ 10167 10162 10161 10158 ] final   67.83 input  -65.29 | X-H torsion
[ 10718 10713 10712 10709 ] final -158.00 input   66.30 | X-H torsion
[ 10763 10752 10751 10750 ] final  -70.71 input  -60.55 | X-H torsion
[ 11005 11000 10999 10996 ] final  -47.64 input  -57.11 | X-H torsion

> <Gold.Protein.ActiveResidues>
 VAL166  LYS551  ARG553  GLY616  TRP617  ASP618  TYR619  PRO620  LYS621  CYS622 
 ASP623  PHE694  ASN695  SER759  ASP760  ASP761  ALA762  ILE779  LEU786  VAL792 
 PHE793  MET794  SER795  GLU796  ALA797  LYS798  CYS799  TRP800  GLU811  SER814 

> <Gold.Protein.RotatedAtoms>
  151.6915  135.0945  160.0234 H   0  0  0  0  0  0  0  0  0  0  0  0  # atno 6907 bound_to 6896
  152.3775  133.6497  159.6144 H   0  0  0  0  0  0  0  0  0  0  0  0  # atno 6908 bound_to 6896
  150.7721  133.9085  159.3403 H   0  0  0  0  0  0  0  0  0  0  0  0  # atno 6909 bound_to 6896
  146.2381  140.1793  142.8332 H   0  0  0  0  0  0  0  0  0  0  0  0  # atno 7974 bound_to 7965
  154.4457  140.1014  156.6458 H   0  0  0  0  0  0  0  0  0  0  0  0  # atno 8008 bound_to 7997
  155.5451  140.3484  155.4437 H   0  0  0  0  0  0  0  0  0  0  0  0  # atno 8009 bound_to 7997
  156.0569  140.1317  156.9975 H   0  0  0  0  0  0  0  0  0  0  0  0  # atno 8010 bound_to 7997
  140.0853  144.5035  150.7135 H   0  0  0  0  0  0  0  0  0  0  0  0  # atno 10167 bound_to 10162
  156.5481  130.8593  151.2771 H   0  0  0  0  0  0  0  0  0  0  0  0  # atno 10718 bound_to 10713
  154.4214  135.5985  153.6012 H   0  0  0  0  0  0  0  0  0  0  0  0  # atno 10763 bound_to 10752
  152.9794  135.5953  154.3950 H   0  0  0  0  0  0  0  0  0  0  0  0  # atno 10764 bound_to 10752
  154.3776  135.2841  155.2209 H   0  0  0  0  0  0  0  0  0  0  0  0  # atno 10765 bound_to 10752
  141.0653  133.6696  156.3327 H   0  0  0  0  0  0  0  0  0  0  0  0  # atno 11005 bound_to 11000
  144.9948  140.8579  143.5317 LP  0  0  0  0  0  0  0  0  0  0  0  0  # atno 17320 bound_to 7965
  145.1804  139.2355  143.5295 LP  0  0  0  0  0  0  0  0  0  0  0  0  # atno 17321 bound_to 7965
  140.7057  143.2466  151.4734 LP  0  0  0  0  0  0  0  0  0  0  0  0  # atno 17342 bound_to 10162
  139.5756  144.1827  152.1898 LP  0  0  0  0  0  0  0  0  0  0  0  0  # atno 17343 bound_to 10162
  157.7393  130.9828  150.2303 LP  0  0  0  0  0  0  0  0  0  0  0  0  # atno 17370 bound_to 10713
  156.2910  130.3745  149.7842 LP  0  0  0  0  0  0  0  0  0  0  0  0  # atno 17371 bound_to 10713
  140.5786  134.5768  157.5474 LP  0  0  0  0  0  0  0  0  0  0  0  0  # atno 17394 bound_to 11000
  139.9470  134.7684  156.0537 LP  0  0  0  0  0  0  0  0  0  0  0  0  # atno 17395 bound_to 11000

$$$$
