AV-unprocessed.smi:303|AV-procd|sdf|2274|dock2
  -GOLD-   2262022163D 1   1.00000     0.00000
 Structure written by MMmdl.
 45 46  0  0  0  0  0  0  0  0  1 V2000
  153.2278  134.0468  166.5884 C   0  0  0  0  0  0  0  0  0  0  0  0
  154.7586  134.0576  166.4998 C   0  0  0  0  0  0  0  0  0  0  0  0
  155.3539  134.7688  164.9002 S   0  0  0  0  0  0  0  0  0  0  0  0
  156.8128  134.5921  164.8335 O   0  0  0  0  0  0  0  0  0  0  0  0
  154.5067  134.2612  163.8095 O   0  0  0  0  0  0  0  0  0  0  0  0
  155.0446  136.4761  165.0517 N   0  0  0  0  0  0  0  0  0  0  0  0
  156.1505  137.4396  164.8928 C   0  0  0  0  0  0  0  0  0  0  0  0
  156.1113  138.1159  163.5111 C   0  0  0  0  0  0  0  0  0  0  0  0
  154.7465  138.7795  163.2535 C   0  0  0  0  0  0  0  0  0  0  0  0
  154.6928  139.4277  161.8649 C   0  0  0  0  0  0  0  0  0  0  0  0
  154.8253  138.7377  160.8534 O   0  0  0  0  0  0  0  0  0  0  0  0
  154.4728  140.7518  161.8322 N   0  0  0  0  0  0  0  0  0  0  0  0
  154.2906  141.5531  160.6241 C   0  0  0  0  0  0  0  0  0  0  0  0
  152.8864  141.3737  160.0136 C   0  0  0  0  0  0  0  0  0  0  0  0
  152.3652  142.6149  159.3092 C   0  0  0  0  0  0  0  0  0  0  0  0
  152.1471  143.8130  160.0235 C   0  0  0  0  0  0  0  0  0  0  0  0
  151.6234  144.9213  159.3306 C   0  0  0  0  0  0  0  0  0  0  0  0
  151.3447  144.7919  157.9565 C   0  0  0  0  0  0  0  0  0  0  0  0
  151.6049  143.5549  157.3335 C   0  0  0  0  0  0  0  0  0  0  0  0
  152.1045  142.4853  157.9890 N   0  0  0  0  0  0  0  0  0  0  0  0
  153.6363  137.7234  163.4030 C   0  0  0  0  0  0  0  0  0  0  0  0
  153.7010  137.0248  164.7723 C   0  0  0  0  0  0  0  0  0  0  0  0
  152.8987  133.6481  167.5479 H   0  0  0  0  0  0  0  0  0  0  0  0
  152.7924  133.4255  165.8055 H   0  0  0  0  0  0  0  0  0  0  0  0
  152.8160  135.0503  166.4861 H   0  0  0  0  0  0  0  0  0  0  0  0
  155.2033  134.6035  167.3278 H   0  0  0  0  0  0  0  0  0  0  0  0
  155.1268  133.0335  166.5593 H   0  0  0  0  0  0  0  0  0  0  0  0
  156.0652  138.1957  165.6740 H   0  0  0  0  0  0  0  0  0  0  0  0
  157.1087  136.9440  165.0467 H   0  0  0  0  0  0  0  0  0  0  0  0
  156.9057  138.8609  163.4521 H   0  0  0  0  0  0  0  0  0  0  0  0
  156.3269  137.3806  162.7361 H   0  0  0  0  0  0  0  0  0  0  0  0
  154.5924  139.5536  164.0075 H   0  0  0  0  0  0  0  0  0  0  0  0
  154.3823  141.2356  162.7138 H   0  0  0  0  0  0  0  0  0  0  0  0
  154.4408  142.6000  160.8882 H   0  0  0  0  0  0  0  0  0  0  0  0
  155.0552  141.3157  159.8825 H   0  0  0  0  0  0  0  0  0  0  0  0
  152.8972  140.5420  159.3079 H   0  0  0  0  0  0  0  0  0  0  0  0
  152.1811  141.0927  160.7969 H   0  0  0  0  0  0  0  0  0  0  0  0
  152.3606  143.8783  161.0802 H   0  0  0  0  0  0  0  0  0  0  0  0
  151.4355  145.8522  159.8447 H   0  0  0  0  0  0  0  0  0  0  0  0
  150.9419  145.6203  157.3927 H   0  0  0  0  0  0  0  0  0  0  0  0
  151.4044  143.4201  156.2810 H   0  0  0  0  0  0  0  0  0  0  0  0
  152.6597  138.1961  163.2913 H   0  0  0  0  0  0  0  0  0  0  0  0
  153.6991  136.9840  162.6054 H   0  0  0  0  0  0  0  0  0  0  0  0
  152.9462  136.2417  164.8327 H   0  0  0  0  0  0  0  0  0  0  0  0
  153.4575  137.7433  165.5556 H   0  0  0  0  0  0  0  0  0  0  0  0
  1  2  1  0  0  0  0
  1 23  1  0  0  0  0
  1 24  1  0  0  0  0
  1 25  1  0  0  0  0
  2  3  1  0  0  0  0
  2 26  1  0  0  0  0
  2 27  1  0  0  0  0
  3  4  2  0  0  0  0
  3  5  2  0  0  0  0
  3  6  1  0  0  0  0
  6 22  1  0  0  0  0
  6  7  1  0  0  0  0
  7  8  1  0  0  0  0
  7 28  1  0  0  0  0
  7 29  1  0  0  0  0
  8  9  1  0  0  0  0
  8 30  1  0  0  0  0
  8 31  1  0  0  0  0
  9 10  1  0  0  0  0
  9 21  1  0  0  0  0
  9 32  1  0  0  0  0
 10 11  2  0  0  0  0
 10 12  1  0  0  0  0
 12 13  1  0  0  0  0
 12 33  1  0  0  0  0
 13 14  1  0  0  0  0
 13 34  1  0  0  0  0
 13 35  1  0  0  0  0
 14 15  1  0  0  0  0
 14 36  1  0  0  0  0
 14 37  1  0  0  0  0
 15 20  1  0  0  0  0
 15 16  2  0  0  0  0
 16 17  1  0  0  0  0
 16 38  1  0  0  0  0
 17 18  2  0  0  0  0
 17 39  1  0  0  0  0
 18 19  1  0  0  0  0
 18 40  1  0  0  0  0
 19 20  2  0  0  0  0
 19 41  1  0  0  0  0
 21 22  1  0  0  0  0
 21 42  1  0  0  0  0
 21 43  1  0  0  0  0
 22 44  1  0  0  0  0
 22 45  1  0  0  0  0
M  END
> <s_m_source_file>
AV-unprocessed.smi

> <i_m_source_file_index>
303

> <i_lp_mmshare_version>
43012

> <i_f3d_flags>
0

> <s_epik_input>
W0NIM11bQ0gyXVMoPU8pKD1PKU4xW0NIMl1bQ0gyXVtDSF0oW0NIMl1bQ0gyXTEpQyg9TylbTkhdW0NIMl1bQ0gyXWMyW2NIXVtjSF1bY0hdW2NIXW4y

> <s_epik_cmdline>
J2VwaWtfcHl0aG9uJywgJy1waCcsICc3LjAnLCAnLXRuJywgJzgnLCAnLW1hJywgJzIwMCcsICctbWV0YWxfYmluZGluZycsICctaW1hZScsICc8aW5maWxlLm1hZT4nLCAnLW9tYWUnLCAnPG91dGZpbGUubWFlPic=

> <r_epik_Ionization_Penalty>
0.0277532

> <r_epik_Ionization_Penalty_Charging>
0

> <r_epik_Ionization_Penalty_Neutral>
0.0277532

> <r_epik_State_Penalty>
0.022734

> <r_epik_Charging_Adjusted_Penalty>
0.022734

> <i_epik_Tot_Q>
0

> <i_epik_Tot_abs_Q>
0

> <r_epik_Metal_State_Penalty>
0.021713

> <b_epik_Metal_Only>
0

> <s_lp_Force_Field>
OPLS_2005

> <r_lp_Energy>
1.72058

> <b_lp_Chiralities_Consistent>
1

> <s_lp_Variant>
AV-unprocessed.smi:303-1

> <Gold.Version>
5.8.1

> <Gold.Id.Protein>
6NUR|6NUR_protein|mol2

> <Gold.PLP.Fitness>
48.5117

> <Gold.PLP.PLP>
-46.4796

> <Gold.PLP.part.hbond>
0.0000

> <Gold.PLP.part.metal>
0.0000

> <Gold.PLP.part.buried>
-5.2245

> <Gold.PLP.part.nonpolar>
-41.5892

> <Gold.PLP.part.repulsive>
0.0289

> <Gold.PLP.ligand.clash>
0.0000

> <Gold.PLP.ligand.torsion>
1.5954

> <Gold.PLP.Chemscore.Hbond>
0.0000

> <Gold.PLP.Chemscore.CHOScore>
1.0000

> <Gold.PLP.Chemscore.Metal>
0.0000

> <Gold.Chemscore.Hbonds>
donor molecule, donor type, donor heavy atom, donor atom, acceptor molecule, acceptor atom, score
      L1  C    19    41       P1  8028  0.06

> <Gold.PLP.Chemscore.Internal.Correction>
2.2229

> <Gold.Rescore>
     Score         DG    S(hbond)    S(metal)    S(lipo)     H(rot)  DE(clash)    DE(int)     intcor
     14.99     -16.36       0.00        0.00     129.20       1.66       0.10       1.26       ----

> <Gold.Chemscore.Fitness>
14.9930

> <Gold.Chemscore.DG>
-16.3564

> <Gold.Chemscore.ZeroCoef>
-5.4800

> <Gold.Chemscore.Hbond>
0.0000

> <Gold.Chemscore.Metal>
0.0000

> <Gold.Chemscore.Lipo>
129.2008

> <Gold.Chemscore.Internal_Hbond>
0.0000

> <Gold.Chemscore.DEClash>
0.1019

> <Gold.Chemscore.DEInternal>
1.2615

> <Gold.Chemscore.Rot>
1.6563

> <Gold.Chemscore.Internal.Correction>
   9.000000E+99

> <Gold.Chemscore.Hbond.Weighted>
-0.0000

> <Gold.Chemscore.Metal.Weighted>
-0.0000

> <Gold.Chemscore.Lipo.Weighted>
-15.1165

> <Gold.Chemscore.Internal_Hbond.Weighted>
0.0000

> <Gold.Chemscore.DEClash.Weighted>
0.1019

> <Gold.Chemscore.DEInternal.Weighted>
1.2615

> <Gold.Chemscore.Rot.Weighted>
4.2401

> <Gold.Chemscore.Internal.Correction.Weighted>
   9.000000E+99

> <Gold.Protein.RotatedTorsions>
[ 6907 6896 6895 6894 ] final  151.05 input  -60.11 | X-H torsion
[ 7974 7965 7964 7962 ] final  -35.99 input  175.53 | X-H torsion
[ 8008 7997 7996 7995 ] final -126.76 input   59.86 | X-H torsion
[ 10167 10162 10161 10158 ] final  140.61 input  -65.29 | X-H torsion
[ 10718 10713 10712 10709 ] final  156.28 input   66.30 | X-H torsion
[ 10763 10752 10751 10750 ] final   46.43 input  -60.55 | X-H torsion
[ 11005 11000 10999 10996 ] final -142.17 input  -57.11 | X-H torsion

> <Gold.Protein.ActiveResidues>
 VAL166  LYS551  ARG553  GLY616  TRP617  ASP618  TYR619  PRO620  LYS621  CYS622 
 ASP623  PHE694  ASN695  SER759  ASP760  ASP761  ALA762  ILE779  LEU786  VAL792 
 PHE793  MET794  SER795  GLU796  ALA797  LYS798  CYS799  TRP800  GLU811  SER814 

> <Gold.Protein.RotatedAtoms>
  152.1060  133.4275  159.4608 H   0  0  0  0  0  0  0  0  0  0  0  0  # atno 6907 bound_to 6896
  150.6865  134.2704  159.4595 H   0  0  0  0  0  0  0  0  0  0  0  0  # atno 6908 bound_to 6896
  152.0569  134.9618  160.0625 H   0  0  0  0  0  0  0  0  0  0  0  0  # atno 6909 bound_to 6896
  146.0700  140.6225  142.8957 H   0  0  0  0  0  0  0  0  0  0  0  0  # atno 7974 bound_to 7965
  155.2350  140.0426  157.2967 H   0  0  0  0  0  0  0  0  0  0  0  0  # atno 8008 bound_to 7997
  154.5864  140.2415  155.7951 H   0  0  0  0  0  0  0  0  0  0  0  0  # atno 8009 bound_to 7997
  156.2229  140.2964  156.0005 H   0  0  0  0  0  0  0  0  0  0  0  0  # atno 8010 bound_to 7997
  139.5044  144.6223  151.6020 H   0  0  0  0  0  0  0  0  0  0  0  0  # atno 10167 bound_to 10162
  157.2070  131.0689  151.1992 H   0  0  0  0  0  0  0  0  0  0  0  0  # atno 10718 bound_to 10713
  152.9811  135.6008  154.3597 H   0  0  0  0  0  0  0  0  0  0  0  0  # atno 10763 bound_to 10752
  154.3280  135.2769  155.2488 H   0  0  0  0  0  0  0  0  0  0  0  0  # atno 10764 bound_to 10752
  154.4625  135.5962  153.6321 H   0  0  0  0  0  0  0  0  0  0  0  0  # atno 10765 bound_to 10752
  140.8251  134.2584  157.4882 H   0  0  0  0  0  0  0  0  0  0  0  0  # atno 11005 bound_to 11000
  144.7226  140.4421  143.6997 LP  0  0  0  0  0  0  0  0  0  0  0  0  # atno 17320 bound_to 7965
  145.6409  139.1550  143.2916 LP  0  0  0  0  0  0  0  0  0  0  0  0  # atno 17321 bound_to 7965
  140.5929  143.9747  150.6336 LP  0  0  0  0  0  0  0  0  0  0  0  0  # atno 17342 bound_to 10162
  140.2933  143.3309  152.1041 LP  0  0  0  0  0  0  0  0  0  0  0  0  # atno 17343 bound_to 10162
  157.3710  130.7181  149.6565 LP  0  0  0  0  0  0  0  0  0  0  0  0  # atno 17370 bound_to 10713
  155.9694  130.4199  150.4396 LP  0  0  0  0  0  0  0  0  0  0  0  0  # atno 17371 bound_to 10713
  139.8707  134.9556  156.4213 LP  0  0  0  0  0  0  0  0  0  0  0  0  # atno 17394 bound_to 11000
  140.9057  133.7747  155.9732 LP  0  0  0  0  0  0  0  0  0  0  0  0  # atno 17395 bound_to 11000

$$$$
