AV-unprocessed.smi:53|AV-procd|sdf|513|dock4
  -GOLD-   2262016383D 1   1.00000     0.00000
 Structure written by MMmdl.
 30 31  0  0  0  0  0  0  0  0  1 V2000
  150.8273  131.6907  156.2387 N   0  0  0  0  0  0  0  0  0  0  0  0
  150.5712  132.9996  156.1033 C   0  0  0  0  0  0  0  0  0  0  0  0
  150.0060  133.5105  154.8745 C   0  0  0  0  0  0  0  0  0  0  0  0
  149.7743  134.8405  154.8168 C   0  0  0  0  0  0  0  0  0  0  0  0
  150.0526  135.6857  155.8815 N   0  0  0  0  0  0  0  0  0  0  0  0
  149.7839  137.1723  155.7801 C   0  0  2  0  0  0  0  0  0  0  0  0
  148.4942  137.3547  155.2889 O   0  0  0  0  0  0  0  0  0  0  0  0
  148.4568  138.5719  154.5604 C   0  0  2  0  0  0  0  0  0  0  0  0
  147.2454  138.5809  153.6153 C   0  0  0  0  0  0  0  0  0  0  0  0
  147.4012  139.5851  152.6356 O   0  0  0  0  0  0  0  0  0  0  0  0
  149.8039  138.5658  153.8288 C   0  0  1  0  0  0  0  0  0  0  0  0
  150.2108  139.8893  153.5414 O   0  0  0  0  0  0  0  0  0  0  0  0
  150.7537  137.9104  154.8286 C   0  0  2  0  0  0  0  0  0  0  0  0
  151.6757  137.0669  154.1610 O   0  0  0  0  0  0  0  0  0  0  0  0
  150.6237  135.1599  157.0648 C   0  0  0  0  0  0  0  0  0  0  0  0
  150.9229  135.8783  158.0179 O   0  0  0  0  0  0  0  0  0  0  0  0
  150.8480  133.8099  157.1069 N   0  0  0  0  0  0  0  0  0  0  0  0
  149.8012  137.5761  156.7941 H   0  0  0  0  0  0  0  0  0  0  0  0
  148.4182  139.4068  155.2638 H   0  0  0  0  0  0  0  0  0  0  0  0
  149.7330  137.9764  152.9129 H   0  0  0  0  0  0  0  0  0  0  0  0
  151.2985  138.6502  155.4172 H   0  0  0  0  0  0  0  0  0  0  0  0
  151.2252  131.3372  157.0966 H   0  0  0  0  0  0  0  0  0  0  0  0
  150.6217  131.0586  155.4782 H   0  0  0  0  0  0  0  0  0  0  0  0
  149.7697  132.8877  154.0236 H   0  0  0  0  0  0  0  0  0  0  0  0
  149.3638  135.2458  153.9032 H   0  0  0  0  0  0  0  0  0  0  0  0
  147.1701  137.6265  153.0935 H   0  0  0  0  0  0  0  0  0  0  0  0
  146.3143  138.7242  154.1644 H   0  0  0  0  0  0  0  0  0  0  0  0
  148.2487  139.4810  152.2306 H   0  0  0  0  0  0  0  0  0  0  0  0
  149.8530  140.1392  152.7033 H   0  0  0  0  0  0  0  0  0  0  0  0
  151.2836  136.7809  153.3499 H   0  0  0  0  0  0  0  0  0  0  0  0
  1  2  1  0  0  0  0
  1 22  1  0  0  0  0
  1 23  1  0  0  0  0
  2 17  2  0  0  0  0
  2  3  1  0  0  0  0
  3  4  2  0  0  0  0
  3 24  1  0  0  0  0
  4  5  1  0  0  0  0
  4 25  1  0  0  0  0
  5  6  1  0  0  0  0
  5 15  1  0  0  0  0
  6 18  1  0  0  0  0
  6 13  1  0  0  0  0
  6  7  1  0  0  0  0
  7  8  1  0  0  0  0
  8 19  1  0  0  0  0
  8  9  1  0  0  0  0
  8 11  1  0  0  0  0
  9 10  1  0  0  0  0
  9 26  1  0  0  0  0
  9 27  1  0  0  0  0
 10 28  1  0  0  0  0
 11 20  1  0  0  0  0
 11 12  1  0  0  0  0
 11 13  1  0  0  0  0
 12 29  1  0  0  0  0
 13 21  1  0  0  0  0
 13 14  1  0  0  0  0
 14 30  1  0  0  0  0
 15 16  2  0  0  0  0
 15 17  1  0  0  0  0
M  END
> <s_m_source_file>
AV-unprocessed.smi

> <i_m_source_file_index>
53

> <i_lp_mmshare_version>
43012

> <i_f3d_flags>
0

> <s_epik_input>
W05IMl1jMVtjSF1bY0hdbihjKD1PKW4xKVtDQEBIXTJPW0NASF0oW0NIMl1bT0hdKVtDQEBIXShbT0hdKVtDQEBIXTJbT0hd

> <s_epik_cmdline>
J2VwaWtfcHl0aG9uJywgJy1waCcsICc3LjAnLCAnLXRuJywgJzgnLCAnLW1hJywgJzIwMCcsICctbWV0YWxfYmluZGluZycsICctaW1hZScsICc8aW5maWxlLm1hZT4nLCAnLW9tYWUnLCAnPG91dGZpbGUubWFlPic=

> <r_lp_tautomer_probability>
0.99996

> <r_epik_Ionization_Penalty>
0.00069087

> <r_epik_Ionization_Penalty_Charging>
2.61959e-08

> <r_epik_Ionization_Penalty_Neutral>
0.000690844

> <r_epik_State_Penalty>
1.15523e-05

> <r_epik_Charging_Adjusted_Penalty>
1.15785e-05

> <i_epik_Tot_Q>
0

> <i_epik_Tot_abs_Q>
0

> <r_epik_Metal_State_Penalty>
-0

> <b_epik_Metal_Only>
0

> <s_epik_Chemistry_Notes>
This compound contains an acetal/aminal-like group ( X-CH(R)-Y where X, Y are N, S, or O) that may be acid/base labile, releasing an aldehyde.

> <s_lp_Force_Field>
OPLS_2005

> <r_lp_Energy>
35.6127

> <b_lp_Chiralities_Consistent>
1

> <s_lp_Variant>
AV-unprocessed.smi:53-1

> <Gold.Version>
5.8.1

> <Gold.Id.Protein>
6NUR|6NUR_protein|mol2

> <Gold.PLP.Fitness>
40.0305

> <Gold.PLP.PLP>
-21.3086

> <Gold.PLP.part.hbond>
-6.8073

> <Gold.PLP.part.metal>
0.0000

> <Gold.PLP.part.buried>
-0.7379

> <Gold.PLP.part.nonpolar>
-13.8767

> <Gold.PLP.part.repulsive>
0.1035

> <Gold.PLP.ligand.clash>
0.0000

> <Gold.PLP.ligand.torsion>
0.3453

> <Gold.PLP.Chemscore.Hbond>
5.3822

> <Gold.PLP.Chemscore.CHOScore>
1.0000

> <Gold.PLP.Chemscore.Metal>
0.0000

> <Gold.Chemscore.Hbonds>
donor molecule, donor type, donor heavy atom, donor atom, acceptor molecule, acceptor atom, score
      L1  H    10    28       P1  7957  1.00
      L1  H    12    29       P1  7957  1.00
      L1  H    14    30       P1  7949  1.00
      P1  H  6896  6908       L1    17  0.33
      P1  H  6896  6909       L1    16  0.46
      P1  H  7989  7998       L1    12  0.61
      P1  H 10752 10764       L1    14  1.00
      L1  C     4    25       P1  7948  1.00

> <Gold.PLP.Chemscore.Internal.Correction>
0.2659

> <Gold.Rescore>
     Score         DG    S(hbond)    S(metal)    S(lipo)     H(rot)  DE(clash)    DE(int)     intcor
     11.17     -11.88       3.58        0.00      33.65       3.71       0.13       0.58       ----

> <Gold.Chemscore.Fitness>
11.1722

> <Gold.Chemscore.DG>
-11.8805

> <Gold.Chemscore.ZeroCoef>
-5.4800

> <Gold.Chemscore.Hbond>
3.5808

> <Gold.Chemscore.Metal>
0.0000

> <Gold.Chemscore.Lipo>
33.6512

> <Gold.Chemscore.Internal_Hbond>
0.0000

> <Gold.Chemscore.DEClash>
0.1273

> <Gold.Chemscore.DEInternal>
0.5811

> <Gold.Chemscore.Rot>
3.7095

> <Gold.Chemscore.Internal.Correction>
   9.000000E+99

> <Gold.Chemscore.Hbonds>
donor molecule, donor type, donor heavy atom, donor atom, acceptor molecule, acceptor atom, score
      L1  H    10    28       P1  7957  0.96
      L1  H    12    29       P1  7957  0.95
      L1  H    14    30       P1  7949  0.61
      P1  H  6896  6908       L1    17  0.15
      P1  H  6896  6909       L1    16  0.41
      P1  H  7989  7998       L1    12  0.09
      P1  H 10752 10764       L1    14  0.24

> <Gold.Chemscore.Hbond.Weighted>
-11.9597

> <Gold.Chemscore.Metal.Weighted>
-0.0000

> <Gold.Chemscore.Lipo.Weighted>
-3.9372

> <Gold.Chemscore.Internal_Hbond.Weighted>
0.0000

> <Gold.Chemscore.DEClash.Weighted>
0.1273

> <Gold.Chemscore.DEInternal.Weighted>
0.5811

> <Gold.Chemscore.Rot.Weighted>
9.4964

> <Gold.Chemscore.Internal.Correction.Weighted>
   9.000000E+99

> <Gold.Protein.RotatedTorsions>
[ 6907 6896 6895 6894 ] final   81.71 input  -60.11 | X-H torsion
[ 7974 7965 7964 7962 ] final  129.96 input  175.53 | X-H torsion
[ 8008 7997 7996 7995 ] final  167.47 input   59.86 | X-H torsion
[ 10167 10162 10161 10158 ] final -139.62 input  -65.29 | X-H torsion
[ 10718 10713 10712 10709 ] final -156.47 input   66.30 | X-H torsion
[ 10763 10752 10751 10750 ] final  -65.60 input  -60.55 | X-H torsion
[ 11005 11000 10999 10996 ] final   20.61 input  -57.11 | X-H torsion

> <Gold.Protein.ActiveResidues>
 VAL166  LYS551  ARG553  GLY616  TRP617  ASP618  TYR619  PRO620  LYS621  CYS622 
 ASP623  PHE694  ASN695  SER759  ASP760  ASP761  ALA762  ILE779  LEU786  VAL792 
 PHE793  MET794  SER795  GLU796  ALA797  LYS798  CYS799  TRP800  GLU811  SER814 

> <Gold.Protein.RotatedAtoms>
  152.5277  134.3162  159.9131 H   0  0  0  0  0  0  0  0  0  0  0  0  # atno 6907 bound_to 6896
  151.3112  133.4073  159.2654 H   0  0  0  0  0  0  0  0  0  0  0  0  # atno 6908 bound_to 6896
  151.0037  134.9359  159.8025 H   0  0  0  0  0  0  0  0  0  0  0  0  # atno 6909 bound_to 6896
  145.0230  139.4114  143.5187 H   0  0  0  0  0  0  0  0  0  0  0  0  # atno 7974 bound_to 7965
  156.1631  140.1616  156.8578 H   0  0  0  0  0  0  0  0  0  0  0  0  # atno 8008 bound_to 7997
  154.5180  140.0785  156.8154 H   0  0  0  0  0  0  0  0  0  0  0  0  # atno 8009 bound_to 7997
  155.3667  140.3398  155.4244 H   0  0  0  0  0  0  0  0  0  0  0  0  # atno 8010 bound_to 7997
  139.8361  143.7383  152.2665 H   0  0  0  0  0  0  0  0  0  0  0  0  # atno 10167 bound_to 10162
  156.5270  130.8504  151.2702 H   0  0  0  0  0  0  0  0  0  0  0  0  # atno 10718 bound_to 10713
  154.3475  135.6143  153.5626 H   0  0  0  0  0  0  0  0  0  0  0  0  # atno 10763 bound_to 10752
  152.9800  135.5784  154.4782 H   0  0  0  0  0  0  0  0  0  0  0  0  # atno 10764 bound_to 10752
  154.4497  135.2852  155.1767 H   0  0  0  0  0  0  0  0  0  0  0  0  # atno 10765 bound_to 10752
  140.4008  134.1721  155.7664 H   0  0  0  0  0  0  0  0  0  0  0  0  # atno 11005 bound_to 11000
  146.3488  139.9739  142.8703 LP  0  0  0  0  0  0  0  0  0  0  0  0  # atno 17320 bound_to 7965
  145.1870  140.9794  143.4233 LP  0  0  0  0  0  0  0  0  0  0  0  0  # atno 17321 bound_to 7965
  139.7605  144.7508  151.0370 LP  0  0  0  0  0  0  0  0  0  0  0  0  # atno 17342 bound_to 10162
  140.7802  143.4756  151.0087 LP  0  0  0  0  0  0  0  0  0  0  0  0  # atno 17343 bound_to 10162
  157.7428  130.9898  150.2542 LP  0  0  0  0  0  0  0  0  0  0  0  0  # atno 17370 bound_to 10713
  156.3095  130.3770  149.7674 LP  0  0  0  0  0  0  0  0  0  0  0  0  # atno 17371 bound_to 10713
  141.1857  133.8317  157.1093 LP  0  0  0  0  0  0  0  0  0  0  0  0  # atno 17394 bound_to 11000
  140.0338  134.9888  157.0831 LP  0  0  0  0  0  0  0  0  0  0  0  0  # atno 17395 bound_to 11000

$$$$
