AV-unprocessed.smi:1005|AV-procd|sdf|4388|dock3
  -GOLD-   22720 2313D 1   1.00000     0.00000
 Structure written by MMmdl.
 55 57  0  0  0  0  0  0  0  0  1 V2000
  153.0401  142.3762  161.6100 C   0  0  0  0  0  0  0  0  0  0  0  0
  152.4278  142.1381  160.2409 C   0  0  0  0  0  0  0  0  0  0  0  0
  152.8244  141.0028  159.4990 C   0  0  0  0  0  0  0  0  0  0  0  0
  152.2807  140.7464  158.2211 C   0  0  0  0  0  0  0  0  0  0  0  0
  152.5231  139.7128  157.3326 N   0  0  0  0  0  0  0  0  0  0  0  0
  151.7187  140.0335  156.3233 C   0  0  0  0  0  0  0  0  0  0  0  0
  150.9808  141.1524  156.4537 N   0  0  0  0  0  0  0  0  0  0  0  0
  150.0411  141.6946  155.4877 C   0  0  0  0  0  0  0  0  0  0  0  0
  149.2289  140.5972  154.7736 C   0  0  2  0  0  0  0  0  0  0  0  0
  150.0345  139.9913  153.7808 O   0  0  0  0  0  0  0  0  0  0  0  0
  147.9666  141.1779  154.1035 C   0  0  0  0  0  0  0  0  0  0  0  0
  147.0890  141.9657  154.9714 N   0  0  0  0  0  0  0  0  0  0  0  0
  146.3978  141.1080  155.9270 C   0  0  0  0  0  0  0  0  0  0  0  0
  145.4666  141.9097  156.8503 C   0  0  0  0  0  0  0  0  0  0  0  0
  144.5437  142.6501  156.0588 O   0  0  0  0  0  0  0  0  0  0  0  0
  145.1792  143.5591  155.1624 C   0  0  2  0  0  0  0  0  0  0  0  0
  144.0741  144.3233  154.4035 C   0  0  0  0  0  0  0  0  0  0  0  0
  143.0808  144.9988  155.2403 N   0  0  0  0  0  0  0  0  0  0  0  0
  143.6668  146.0302  156.0871 C   0  0  0  0  0  0  0  0  0  0  0  0
  142.0154  145.5618  154.4228 C   0  0  0  0  0  0  0  0  0  0  0  0
  146.0958  142.7387  154.2274 C   0  0  0  0  0  0  0  0  0  0  0  0
  151.3205  141.6635  157.7020 C   0  0  0  0  0  0  0  0  0  0  0  0
  150.9178  142.7964  158.4310 C   0  0  0  0  0  0  0  0  0  0  0  0
  151.4714  143.0381  159.7058 C   0  0  0  0  0  0  0  0  0  0  0  0
  151.0315  144.2654  160.4840 C   0  0  0  0  0  0  0  0  0  0  0  0
  153.7780  141.6116  161.8544 H   0  0  0  0  0  0  0  0  0  0  0  0
  152.2698  142.3570  162.3812 H   0  0  0  0  0  0  0  0  0  0  0  0
  153.5397  143.3444  161.6428 H   0  0  0  0  0  0  0  0  0  0  0  0
  153.5532  140.3175  159.9061 H   0  0  0  0  0  0  0  0  0  0  0  0
  151.6619  139.4196  155.4364 H   0  0  0  0  0  0  0  0  0  0  0  0
  149.3698  142.3747  156.0139 H   0  0  0  0  0  0  0  0  0  0  0  0
  150.5907  142.2993  154.7651 H   0  0  0  0  0  0  0  0  0  0  0  0
  148.9626  139.8395  155.5095 H   0  0  0  0  0  0  0  0  0  0  0  0
  149.6023  140.0823  152.9454 H   0  0  0  0  0  0  0  0  0  0  0  0
  148.2662  141.7911  153.2521 H   0  0  0  0  0  0  0  0  0  0  0  0
  147.3989  140.3470  153.6816 H   0  0  0  0  0  0  0  0  0  0  0  0
  145.8137  140.3561  155.3939 H   0  0  0  0  0  0  0  0  0  0  0  0
  147.1250  140.5659  156.5325 H   0  0  0  0  0  0  0  0  0  0  0  0
  144.9142  141.2388  157.5082 H   0  0  0  0  0  0  0  0  0  0  0  0
  146.0385  142.5858  157.4879 H   0  0  0  0  0  0  0  0  0  0  0  0
  145.7702  144.2607  155.7547 H   0  0  0  0  0  0  0  0  0  0  0  0
  144.5186  145.0266  153.6972 H   0  0  0  0  0  0  0  0  0  0  0  0
  143.5434  143.5954  153.7877 H   0  0  0  0  0  0  0  0  0  0  0  0
  142.8948  146.5408  156.6639 H   0  0  0  0  0  0  0  0  0  0  0  0
  144.1950  146.7768  155.4924 H   0  0  0  0  0  0  0  0  0  0  0  0
  144.3656  145.6001  156.8040 H   0  0  0  0  0  0  0  0  0  0  0  0
  141.2478  146.0193  155.0479 H   0  0  0  0  0  0  0  0  0  0  0  0
  141.5330  144.7869  153.8260 H   0  0  0  0  0  0  0  0  0  0  0  0
  142.4003  146.3244  153.7442 H   0  0  0  0  0  0  0  0  0  0  0  0
  146.5904  143.4159  153.5353 H   0  0  0  0  0  0  0  0  0  0  0  0
  145.4875  142.0667  153.6199 H   0  0  0  0  0  0  0  0  0  0  0  0
  150.1908  143.4751  158.0105 H   0  0  0  0  0  0  0  0  0  0  0  0
  150.2776  144.8336  159.9384 H   0  0  0  0  0  0  0  0  0  0  0  0
  151.8805  144.9247  160.6664 H   0  0  0  0  0  0  0  0  0  0  0  0
  150.6032  143.9771  161.4442 H   0  0  0  0  0  0  0  0  0  0  0  0
  1  2  1  0  0  0  0
  1 26  1  0  0  0  0
  1 27  1  0  0  0  0
  1 28  1  0  0  0  0
  2 24  1  0  0  0  0
  2  3  2  0  0  0  0
  3  4  1  0  0  0  0
  3 29  1  0  0  0  0
  4 22  2  0  0  0  0
  4  5  1  0  0  0  0
  5  6  2  0  0  0  0
  6  7  1  0  0  0  0
  6 30  1  0  0  0  0
  7  8  1  0  0  0  0
  7 22  1  0  0  0  0
  8  9  1  0  0  0  0
  8 31  1  0  0  0  0
  8 32  1  0  0  0  0
  9 10  1  0  0  0  0
  9 11  1  0  0  0  0
  9 33  1  0  0  0  0
 10 34  1  0  0  0  0
 11 12  1  0  0  0  0
 11 35  1  0  0  0  0
 11 36  1  0  0  0  0
 12 21  1  0  0  0  0
 12 13  1  0  0  0  0
 13 14  1  0  0  0  0
 13 37  1  0  0  0  0
 13 38  1  0  0  0  0
 14 15  1  0  0  0  0
 14 39  1  0  0  0  0
 14 40  1  0  0  0  0
 15 16  1  0  0  0  0
 16 17  1  0  0  0  0
 16 21  1  0  0  0  0
 16 41  1  0  0  0  0
 17 18  1  0  0  0  0
 17 42  1  0  0  0  0
 17 43  1  0  0  0  0
 18 19  1  0  0  0  0
 18 20  1  0  0  0  0
 19 44  1  0  0  0  0
 19 45  1  0  0  0  0
 19 46  1  0  0  0  0
 20 47  1  0  0  0  0
 20 48  1  0  0  0  0
 20 49  1  0  0  0  0
 21 50  1  0  0  0  0
 21 51  1  0  0  0  0
 22 23  1  0  0  0  0
 23 24  2  0  0  0  0
 23 52  1  0  0  0  0
 24 25  1  0  0  0  0
 25 53  1  0  0  0  0
 25 54  1  0  0  0  0
 25 55  1  0  0  0  0
M  END
> <s_m_source_file>
AV-unprocessed.smi

> <i_m_source_file_index>
1005

> <i_lp_mmshare_version>
43012

> <i_f3d_flags>
0

> <s_epik_input>
W0NIM11jKFtjSF0xKWMoW0NIM10pW2NIXWMoYzEyKW4oW2NIXW4yKVtDSDJdW0NASF0oW09IXSlbQ0gyXU4zW0NIMl1bQ0gyXU9bQ0BIXShbQ0gyXTMpW0NIMl1OKFtDSDNdKVtDSDNd

> <s_epik_cmdline>
J2VwaWtfcHl0aG9uJywgJy1waCcsICc3LjAnLCAnLXRuJywgJzgnLCAnLW1hJywgJzIwMCcsICctbWV0YWxfYmluZGluZycsICctaW1hZScsICc8aW5maWxlLm1hZT4nLCAnLW9tYWUnLCAnPG91dGZpbGUubWFlPic=

> <r_epik_Ionization_Penalty>
2.78613

> <r_epik_Ionization_Penalty_Charging>
0

> <r_epik_Ionization_Penalty_Neutral>
2.78613

> <r_epik_State_Penalty>
2.57336

> <r_epik_Charging_Adjusted_Penalty>
2.57336

> <i_epik_Tot_Q>
0

> <i_epik_Tot_abs_Q>
0

> <r_epik_Metal_State_Penalty>
2.49087

> <b_epik_Metal_Only>
0

> <s_lp_Force_Field>
OPLS_2005

> <r_lp_Energy>
40.4742

> <b_lp_Chiralities_Consistent>
1

> <s_lp_Variant>
AV-unprocessed.smi:1005-27

> <Gold.Version>
5.8.1

> <Gold.Id.Protein>
6NUR|6NUR_protein|mol2

> <Gold.PLP.Fitness>
59.0087

> <Gold.PLP.PLP>
-51.2575

> <Gold.PLP.part.hbond>
-3.0000

> <Gold.PLP.part.metal>
0.0000

> <Gold.PLP.part.buried>
-8.5326

> <Gold.PLP.part.nonpolar>
-41.1703

> <Gold.PLP.part.repulsive>
0.2919

> <Gold.PLP.ligand.clash>
0.0000

> <Gold.PLP.ligand.torsion>
0.5818

> <Gold.PLP.Chemscore.Hbond>
2.8480

> <Gold.PLP.Chemscore.CHOScore>
0.0000

> <Gold.PLP.Chemscore.Metal>
0.0000

> <Gold.Chemscore.Hbonds>
donor molecule, donor type, donor heavy atom, donor atom, acceptor molecule, acceptor atom, score
      L1  H    10    34       P1  7957  1.00
      P1  H  7989  7998       L1    10  0.82
      P1  H  7997  8010       L1     5  1.00

> <Gold.PLP.Chemscore.Internal.Correction>
0.3709

> <Gold.Rescore>
     Score         DG    S(hbond)    S(metal)    S(lipo)     H(rot)  DE(clash)    DE(int)     intcor
     21.03     -21.73       2.18        0.00     126.75       2.29       0.17       0.53       ----

> <Gold.Chemscore.Fitness>
21.0280

> <Gold.Chemscore.DG>
-21.7263

> <Gold.Chemscore.ZeroCoef>
-5.4800

> <Gold.Chemscore.Hbond>
2.1791

> <Gold.Chemscore.Metal>
0.0000

> <Gold.Chemscore.Lipo>
126.7460

> <Gold.Chemscore.Internal_Hbond>
0.0000

> <Gold.Chemscore.DEClash>
0.1669

> <Gold.Chemscore.DEInternal>
0.5314

> <Gold.Chemscore.Rot>
2.2895

> <Gold.Chemscore.Internal.Correction>
   9.000000E+99

> <Gold.Chemscore.Hbonds>
donor molecule, donor type, donor heavy atom, donor atom, acceptor molecule, acceptor atom, score
      L1  H    10    34       P1  7957  0.95
      P1  H  7989  7998       L1    10  0.22
      P1  H  7997  8010       L1     5  0.25

> <Gold.Chemscore.Hbond.Weighted>
-7.2782

> <Gold.Chemscore.Metal.Weighted>
-0.0000

> <Gold.Chemscore.Lipo.Weighted>
-14.8293

> <Gold.Chemscore.Internal_Hbond.Weighted>
0.0000

> <Gold.Chemscore.DEClash.Weighted>
0.1669

> <Gold.Chemscore.DEInternal.Weighted>
0.5314

> <Gold.Chemscore.Rot.Weighted>
5.8612

> <Gold.Chemscore.Internal.Correction.Weighted>
   9.000000E+99

> <Gold.Protein.RotatedTorsions>
[ 6907 6896 6895 6894 ] final  -33.16 input  -60.11 | X-H torsion
[ 7974 7965 7964 7962 ] final  148.94 input  175.53 | X-H torsion
[ 8008 7997 7996 7995 ] final   53.33 input   59.86 | X-H torsion
[ 10167 10162 10161 10158 ] final  -32.77 input  -65.29 | X-H torsion
[ 10718 10713 10712 10709 ] final -124.31 input   66.30 | X-H torsion
[ 10763 10752 10751 10750 ] final  -55.76 input  -60.55 | X-H torsion
[ 11005 11000 10999 10996 ] final  -32.59 input  -57.11 | X-H torsion

> <Gold.Protein.ActiveResidues>
 VAL166  LYS551  ARG553  GLY616  TRP617  ASP618  TYR619  PRO620  LYS621  CYS622 
 ASP623  PHE694  ASN695  SER759  ASP760  ASP761  ALA762  ILE779  LEU786  VAL792 
 PHE793  MET794  SER795  GLU796  ALA797  LYS798  CYS799  TRP800  GLU811  SER814 

> <Gold.Protein.RotatedAtoms>
  151.0692  134.9787  159.8299 H   0  0  0  0  0  0  0  0  0  0  0  0  # atno 6907 bound_to 6896
  152.5406  134.2320  159.8839 H   0  0  0  0  0  0  0  0  0  0  0  0  # atno 6908 bound_to 6896
  151.2344  133.4389  159.2638 H   0  0  0  0  0  0  0  0  0  0  0  0  # atno 6909 bound_to 6896
  144.8476  139.6217  143.5988 H   0  0  0  0  0  0  0  0  0  0  0  0  # atno 7974 bound_to 7965
  155.4664  140.3463  155.4319 H   0  0  0  0  0  0  0  0  0  0  0  0  # atno 8008 bound_to 7997
  156.1128  140.1465  156.9344 H   0  0  0  0  0  0  0  0  0  0  0  0  # atno 8009 bound_to 7997
  154.4768  140.0882  156.7260 H   0  0  0  0  0  0  0  0  0  0  0  0  # atno 8010 bound_to 7997
  140.7216  143.3670  151.1852 H   0  0  0  0  0  0  0  0  0  0  0  0  # atno 10167 bound_to 10162
  156.1577  130.6580  151.0005 H   0  0  0  0  0  0  0  0  0  0  0  0  # atno 10718 bound_to 10713
  154.1959  135.6419  153.5073 H   0  0  0  0  0  0  0  0  0  0  0  0  # atno 10763 bound_to 10752
  153.0023  135.5440  154.6366 H   0  0  0  0  0  0  0  0  0  0  0  0  # atno 10764 bound_to 10752
  154.5767  135.2921  155.0747 H   0  0  0  0  0  0  0  0  0  0  0  0  # atno 10765 bound_to 10752
  140.9565  133.7189  156.1302 H   0  0  0  0  0  0  0  0  0  0  0  0  # atno 11005 bound_to 11000
  146.2757  139.6747  142.9264 LP  0  0  0  0  0  0  0  0  0  0  0  0  # atno 17320 bound_to 7965
  145.4566  141.0431  143.2775 LP  0  0  0  0  0  0  0  0  0  0  0  0  # atno 17321 bound_to 7965
  139.7234  143.9188  152.2993 LP  0  0  0  0  0  0  0  0  0  0  0  0  # atno 17342 bound_to 10162
  139.8952  144.6943  150.8726 LP  0  0  0  0  0  0  0  0  0  0  0  0  # atno 17343 bound_to 10162
  157.6708  131.0862  150.7617 LP  0  0  0  0  0  0  0  0  0  0  0  0  # atno 17370 bound_to 10713
  156.7681  130.4820  149.5423 LP  0  0  0  0  0  0  0  0  0  0  0  0  # atno 17371 bound_to 10713
  140.7528  134.4025  157.5538 LP  0  0  0  0  0  0  0  0  0  0  0  0  # atno 17394 bound_to 11000
  139.8864  134.8911  156.2588 LP  0  0  0  0  0  0  0  0  0  0  0  0  # atno 17395 bound_to 11000

$$$$
