AV-unprocessed.smi:1882|AV-procd|sdf|7641|dock8
  -GOLD-   22720 9373D 1   1.00000     0.00000
 Structure written by MMmdl.
 25 26  0  0  0  0  0  0  0  0  1 V2000
  153.1610  142.6683  160.8669 C   0  0  0  0  0  0  0  0  0  0  0  0
  152.4845  143.0049  159.5824 C   0  0  0  0  0  0  0  0  0  0  0  0
  151.9266  142.0943  158.7808 N   0  0  0  0  0  0  0  0  0  0  0  0
  151.3570  142.6593  157.6349 C   0  0  0  0  0  0  0  0  0  0  0  0
  150.6826  141.7789  156.6228 C   0  0  0  0  0  0  0  0  0  0  0  0
  151.5201  140.5239  156.3714 C   0  0  0  0  0  0  0  0  0  0  0  0
  152.4162  140.2148  157.1570 O   0  0  0  0  0  0  0  0  0  0  0  0
  151.2166  139.8140  155.2740 N   0  0  0  0  0  0  0  0  0  0  0  0
  151.8740  138.6206  154.8499 C   0  0  0  0  0  0  0  0  0  0  0  0
  151.0147  137.4034  154.5829 C   0  0  0  0  0  0  0  0  0  0  0  0
  151.8879  137.4478  155.8064 C   0  0  0  0  0  0  0  0  0  0  0  0
  151.4868  144.0260  157.5867 C   0  0  0  0  0  0  0  0  0  0  0  0
  152.3398  144.6483  158.9724 S   0  0  0  0  0  0  0  0  0  0  0  0
  153.1477  141.5913  161.0378 H   0  0  0  0  0  0  0  0  0  0  0  0
  152.6521  143.1602  161.6958 H   0  0  0  0  0  0  0  0  0  0  0  0
  154.1974  143.0051  160.8414 H   0  0  0  0  0  0  0  0  0  0  0  0
  149.6913  141.4790  156.9659 H   0  0  0  0  0  0  0  0  0  0  0  0
  150.5313  142.3174  155.6863 H   0  0  0  0  0  0  0  0  0  0  0  0
  150.4629  140.1474  154.6909 H   0  0  0  0  0  0  0  0  0  0  0  0
  152.7532  138.7316  154.2164 H   0  0  0  0  0  0  0  0  0  0  0  0
  149.9401  137.4952  154.7296 H   0  0  0  0  0  0  0  0  0  0  0  0
  151.3183  136.7429  153.7734 H   0  0  0  0  0  0  0  0  0  0  0  0
  152.7756  136.8181  155.8138 H   0  0  0  0  0  0  0  0  0  0  0  0
  151.3958  137.5689  156.7696 H   0  0  0  0  0  0  0  0  0  0  0  0
  151.1375  144.7017  156.8202 H   0  0  0  0  0  0  0  0  0  0  0  0
  1  2  1  0  0  0  0
  1 14  1  0  0  0  0
  1 15  1  0  0  0  0
  1 16  1  0  0  0  0
  2 13  1  0  0  0  0
  2  3  2  0  0  0  0
  3  4  1  0  0  0  0
  4  5  1  0  0  0  0
  4 12  2  0  0  0  0
  5  6  1  0  0  0  0
  5 17  1  0  0  0  0
  5 18  1  0  0  0  0
  6  7  2  0  0  0  0
  6  8  1  0  0  0  0
  8  9  1  0  0  0  0
  8 19  1  0  0  0  0
  9 11  1  0  0  0  0
  9 10  1  0  0  0  0
  9 20  1  0  0  0  0
 10 11  1  0  0  0  0
 10 21  1  0  0  0  0
 10 22  1  0  0  0  0
 11 23  1  0  0  0  0
 11 24  1  0  0  0  0
 12 13  1  0  0  0  0
 12 25  1  0  0  0  0
M  END
> <s_m_source_file>
AV-unprocessed.smi

> <i_m_source_file_index>
1882

> <i_lp_mmshare_version>
43012

> <i_f3d_flags>
0

> <s_epik_input>
W0NIM11jMW5jKFtjSF1zMSlbQ0gyXUMoPU8pW05IXVtDSF0yW0NIMl1bQ0gyXTI=

> <s_epik_cmdline>
J2VwaWtfcHl0aG9uJywgJy1waCcsICc3LjAnLCAnLXRuJywgJzgnLCAnLW1hJywgJzIwMCcsICctbWV0YWxfYmluZGluZycsICctaW1hZScsICc8aW5maWxlLm1hZT4nLCAnLW9tYWUnLCAnPG91dGZpbGUubWFlPic=

> <r_lp_tautomer_probability>
1

> <r_epik_Ionization_Penalty>
5.52242e-05

> <r_epik_Ionization_Penalty_Charging>
0

> <r_epik_Ionization_Penalty_Neutral>
5.52242e-05

> <r_epik_State_Penalty>
-0

> <r_epik_Charging_Adjusted_Penalty>
0

> <i_epik_Tot_Q>
0

> <i_epik_Tot_abs_Q>
0

> <r_epik_Metal_State_Penalty>
-0

> <b_epik_Metal_Only>
0

> <s_lp_Force_Field>
OPLS_2005

> <r_lp_Energy>
14.0294

> <b_lp_Chiralities_Consistent>
1

> <s_lp_Variant>
AV-unprocessed.smi:1882-1

> <Gold.Version>
5.8.1

> <Gold.Id.Protein>
6NUR|6NUR_protein|mol2

> <Gold.PLP.Fitness>
38.3281

> <Gold.PLP.PLP>
-33.3251

> <Gold.PLP.part.hbond>
-1.0000

> <Gold.PLP.part.metal>
0.0000

> <Gold.PLP.part.buried>
-3.0700

> <Gold.PLP.part.nonpolar>
-30.4311

> <Gold.PLP.part.repulsive>
1.3121

> <Gold.PLP.ligand.clash>
0.0000

> <Gold.PLP.ligand.torsion>
0.4486

> <Gold.PLP.Chemscore.Hbond>
1.0000

> <Gold.PLP.Chemscore.CHOScore>
0.9552

> <Gold.PLP.Chemscore.Metal>
0.0000

> <Gold.Chemscore.Hbonds>
donor molecule, donor type, donor heavy atom, donor atom, acceptor molecule, acceptor atom, score
      P1  H  7997  8008       L1     7  0.99
      L1  C    12    25       P1  8028  0.99

> <Gold.PLP.Chemscore.Internal.Correction>
0.0349

> <Gold.Rescore>
     Score         DG    S(hbond)    S(metal)    S(lipo)     H(rot)  DE(clash)    DE(int)     intcor
     13.85     -15.38       0.96        0.00      86.85       1.36       0.06       1.46       ----

> <Gold.Chemscore.Fitness>
13.8528

> <Gold.Chemscore.DG>
-15.3771

> <Gold.Chemscore.ZeroCoef>
-5.4800

> <Gold.Chemscore.Hbond>
0.9609

> <Gold.Chemscore.Metal>
0.0000

> <Gold.Chemscore.Lipo>
86.8511

> <Gold.Chemscore.Internal_Hbond>
0.0000

> <Gold.Chemscore.DEClash>
0.0647

> <Gold.Chemscore.DEInternal>
1.4596

> <Gold.Chemscore.Rot>
1.3570

> <Gold.Chemscore.Internal.Correction>
   9.000000E+99

> <Gold.Chemscore.Hbonds>
donor molecule, donor type, donor heavy atom, donor atom, acceptor molecule, acceptor atom, score
      P1  H  7997  8008       L1     7  0.87

> <Gold.Chemscore.Hbond.Weighted>
-3.2095

> <Gold.Chemscore.Metal.Weighted>
-0.0000

> <Gold.Chemscore.Lipo.Weighted>
-10.1616

> <Gold.Chemscore.Internal_Hbond.Weighted>
0.0000

> <Gold.Chemscore.DEClash.Weighted>
0.0647

> <Gold.Chemscore.DEInternal.Weighted>
1.4596

> <Gold.Chemscore.Rot.Weighted>
3.4740

> <Gold.Chemscore.Internal.Correction.Weighted>
   9.000000E+99

> <Gold.Protein.RotatedTorsions>
[ 6907 6896 6895 6894 ] final  -58.09 input  -60.11 | X-H torsion
[ 7974 7965 7964 7962 ] final  -81.32 input  175.53 | X-H torsion
[ 8008 7997 7996 7995 ] final  -53.04 input   59.86 | X-H torsion
[ 10167 10162 10161 10158 ] final -159.30 input  -65.29 | X-H torsion
[ 10718 10713 10712 10709 ] final   -2.16 input   66.30 | X-H torsion
[ 10763 10752 10751 10750 ] final  178.57 input  -60.55 | X-H torsion
[ 11005 11000 10999 10996 ] final   78.53 input  -57.11 | X-H torsion

> <Gold.Protein.ActiveResidues>
 VAL166  LYS551  ARG553  GLY616  TRP617  ASP618  TYR619  PRO620  LYS621  CYS622 
 ASP623  PHE694  ASN695  SER759  ASP760  ASP761  ALA762  ILE779  LEU786  VAL792 
 PHE793  MET794  SER795  GLU796  ALA797  LYS798  CYS799  TRP800  GLU811  SER814 

> <Gold.Protein.RotatedAtoms>
  150.8034  134.7143  159.6621 H   0  0  0  0  0  0  0  0  0  0  0  0  # atno 6907 bound_to 6896
  152.4152  134.6051  160.0020 H   0  0  0  0  0  0  0  0  0  0  0  0  # atno 6908 bound_to 6896
  151.6282  133.3297  159.3139 H   0  0  0  0  0  0  0  0  0  0  0  0  # atno 6909 bound_to 6896
  145.5482  140.9500  143.1514 H   0  0  0  0  0  0  0  0  0  0  0  0  # atno 7974 bound_to 7965
  154.4122  140.1209  156.5090 H   0  0  0  0  0  0  0  0  0  0  0  0  # atno 8008 bound_to 7997
  155.6819  140.3496  155.4839 H   0  0  0  0  0  0  0  0  0  0  0  0  # atno 8009 bound_to 7997
  155.9544  140.1111  157.0939 H   0  0  0  0  0  0  0  0  0  0  0  0  # atno 8010 bound_to 7997
  139.6626  143.9886  152.2234 H   0  0  0  0  0  0  0  0  0  0  0  0  # atno 10167 bound_to 10162
  156.7950  130.5374  149.5730 H   0  0  0  0  0  0  0  0  0  0  0  0  # atno 10718 bound_to 10713
  154.5094  135.2787  155.1355 H   0  0  0  0  0  0  0  0  0  0  0  0  # atno 10763 bound_to 10752
  154.2957  135.6258  153.5407 H   0  0  0  0  0  0  0  0  0  0  0  0  # atno 10764 bound_to 10752
  152.9916  135.5684  154.5555 H   0  0  0  0  0  0  0  0  0  0  0  0  # atno 10765 bound_to 10752
  139.9209  134.7770  156.1661 H   0  0  0  0  0  0  0  0  0  0  0  0  # atno 11005 bound_to 11000
  144.7543  139.7115  143.7260 LP  0  0  0  0  0  0  0  0  0  0  0  0  # atno 17320 bound_to 7965
  146.1935  139.5188  142.9790 LP  0  0  0  0  0  0  0  0  0  0  0  0  # atno 17321 bound_to 7965
  139.9629  144.6545  150.8062 LP  0  0  0  0  0  0  0  0  0  0  0  0  # atno 17342 bound_to 10162
  140.7586  143.3111  151.2844 LP  0  0  0  0  0  0  0  0  0  0  0  0  # atno 17343 bound_to 10162
  156.1136  130.6058  151.0085 LP  0  0  0  0  0  0  0  0  0  0  0  0  # atno 17370 bound_to 10713
  157.6582  131.0885  150.7899 LP  0  0  0  0  0  0  0  0  0  0  0  0  # atno 17371 bound_to 10713
  141.0728  133.6789  156.2176 LP  0  0  0  0  0  0  0  0  0  0  0  0  # atno 17394 bound_to 11000
  140.6478  134.5099  157.5575 LP  0  0  0  0  0  0  0  0  0  0  0  0  # atno 17395 bound_to 11000

$$$$
