AV-unprocessed.smi:1642|AV-procd|sdf|6570|dock9
  -GOLD-   22720 7253D 1   1.00000     0.00000
 Structure written by MMmdl.
 35 36  0  0  0  0  0  0  0  0  2 V2000
  153.7070  137.5150  157.2237 C   0  0  0  0  0  0  0  0  0  0  0  0
  152.8095  138.1819  156.2379 C   0  0  0  0  0  0  0  0  0  0  0  0
  153.0302  139.4195  155.7782 N   0  0  0  0  0  0  0  0  0  0  0  0
  152.0620  139.8240  154.8701 N   0  0  0  0  0  0  0  0  0  0  0  0
  151.1368  138.8753  154.6701 C   0  0  0  0  0  0  0  0  0  0  0  0
  150.0319  139.0240  153.7899 N   0  0  0  0  0  0  0  0  0  0  0  0
  148.7404  138.7259  154.0181 C   0  0  0  0  0  0  0  0  0  0  0  0
  148.2896  138.2584  155.0641 O   0  0  0  0  0  0  0  0  0  0  0  0
  147.9787  139.0013  152.9506 N   0  0  0  0  0  0  0  0  0  0  0  0
  146.5397  138.7812  152.9003 C   0  0  0  0  0  0  0  0  0  0  0  0
  146.1517  137.9839  151.6459 C   0  0  0  0  0  0  0  0  0  0  0  0
  146.0348  136.5344  151.9291 N   0  3  0  0  0  0  0  0  0  0  0  0
  145.1669  136.1809  153.0791 C   0  0  0  0  0  0  0  0  0  0  0  0
  144.3432  134.9562  152.6571 C   0  0  0  0  0  0  0  0  0  0  0  0
  145.0253  134.4491  151.3905 C   0  0  0  0  0  0  0  0  0  0  0  0
  145.5919  135.7246  150.7767 C   0  0  0  0  0  0  0  0  0  0  0  0
  151.3776  137.3958  155.5838 S   0  0  0  0  0  0  0  0  0  0  0  0
  154.3343  138.2496  157.7299 H   0  0  0  0  0  0  0  0  0  0  0  0
  154.3494  136.7966  156.7146 H   0  0  0  0  0  0  0  0  0  0  0  0
  153.1153  136.9881  157.9723 H   0  0  0  0  0  0  0  0  0  0  0  0
  150.2530  139.4006  152.8800 H   0  0  0  0  0  0  0  0  0  0  0  0
  148.4205  139.3844  152.1275 H   0  0  0  0  0  0  0  0  0  0  0  0
  146.2258  138.2431  153.7964 H   0  0  0  0  0  0  0  0  0  0  0  0
  146.0347  139.7483  152.9118 H   0  0  0  0  0  0  0  0  0  0  0  0
  145.2155  138.3548  151.2253 H   0  0  0  0  0  0  0  0  0  0  0  0
  146.9181  138.1281  150.8828 H   0  0  0  0  0  0  0  0  0  0  0  0
  145.7978  135.9549  153.9396 H   0  0  0  0  0  0  0  0  0  0  0  0
  144.5055  137.0018  153.3611 H   0  0  0  0  0  0  0  0  0  0  0  0
  144.2892  134.1957  153.4368 H   0  0  0  0  0  0  0  0  0  0  0  0
  143.3230  135.2639  152.4238 H   0  0  0  0  0  0  0  0  0  0  0  0
  145.8377  133.7694  151.6519 H   0  0  0  0  0  0  0  0  0  0  0  0
  144.3442  133.9213  150.7222 H   0  0  0  0  0  0  0  0  0  0  0  0
  144.8043  136.2519  150.2350 H   0  0  0  0  0  0  0  0  0  0  0  0
  146.4097  135.5296  150.0823 H   0  0  0  0  0  0  0  0  0  0  0  0
  146.9594  136.1991  152.1601 H   0  0  0  0  0  0  0  0  0  0  0  0
  1  2  1  0  0  0  0
  1 18  1  0  0  0  0
  1 19  1  0  0  0  0
  1 20  1  0  0  0  0
  2 17  1  0  0  0  0
  2  3  2  0  0  0  0
  3  4  1  0  0  0  0
  4  5  2  0  0  0  0
  5  6  1  0  0  0  0
  5 17  1  0  0  0  0
  6  7  1  0  0  0  0
  6 21  1  0  0  0  0
  7  8  2  0  0  0  0
  7  9  1  0  0  0  0
  9 10  1  0  0  0  0
  9 22  1  0  0  0  0
 10 11  1  0  0  0  0
 10 23  1  0  0  0  0
 10 24  1  0  0  0  0
 11 12  1  0  0  0  0
 11 25  1  0  0  0  0
 11 26  1  0  0  0  0
 12 16  1  0  0  0  0
 12 13  1  0  0  0  0
 12 35  1  0  0  0  0
 13 14  1  0  0  0  0
 13 27  1  0  0  0  0
 13 28  1  0  0  0  0
 14 15  1  0  0  0  0
 14 29  1  0  0  0  0
 14 30  1  0  0  0  0
 15 16  1  0  0  0  0
 15 31  1  0  0  0  0
 15 32  1  0  0  0  0
 16 33  1  0  0  0  0
 16 34  1  0  0  0  0
M  CHG  1  12   1
M  END
> <s_m_source_file>
AV-unprocessed.smi

> <i_m_source_file_index>
1642

> <i_lp_mmshare_version>
43012

> <i_f3d_flags>
0

> <s_epik_input>
W0NIM11jMW5uYyhzMSlbTkhdQyg9TylbTkhdW0NIMl1bQ0gyXU4yW0NIMl1bQ0gyXVtDSDJdW0NIMl0y

> <s_epik_cmdline>
J2VwaWtfcHl0aG9uJywgJy1waCcsICc3LjAnLCAnLXRuJywgJzgnLCAnLW1hJywgJzIwMCcsICctbWV0YWxfYmluZGluZycsICctaW1hZScsICc8aW5maWxlLm1hZT4nLCAnLW9tYWUnLCAnPG91dGZpbGUubWFlPic=

> <r_lp_tautomer_probability>
1

> <r_epik_Ionization_Penalty>
0.00661496

> <r_epik_Ionization_Penalty_Charging>
0.0023443

> <r_epik_Ionization_Penalty_Neutral>
0.00427066

> <r_epik_State_Penalty>
0.00184107

> <r_epik_Charging_Adjusted_Penalty>
0.00418537

> <i_epik_Tot_Q>
1

> <i_epik_Tot_abs_Q>
1

> <r_epik_Metal_State_Penalty>
0.375387

> <b_epik_Metal_Only>
0

> <s_lp_Force_Field>
OPLS_2005

> <r_lp_Energy>
26.1101

> <b_lp_Chiralities_Consistent>
1

> <s_lp_Variant>
AV-unprocessed.smi:1642-1

> <Gold.Version>
5.8.1

> <Gold.Id.Protein>
6NUR|6NUR_protein|mol2

> <Gold.PLP.Fitness>
43.5296

> <Gold.PLP.PLP>
-27.5161

> <Gold.PLP.part.hbond>
-5.7296

> <Gold.PLP.part.metal>
0.0000

> <Gold.PLP.part.buried>
-4.0227

> <Gold.PLP.part.nonpolar>
-19.7576

> <Gold.PLP.part.repulsive>
0.3339

> <Gold.PLP.ligand.clash>
0.0000

> <Gold.PLP.ligand.torsion>
0.6955

> <Gold.PLP.Chemscore.Hbond>
5.7968

> <Gold.PLP.Chemscore.CHOScore>
0.0000

> <Gold.PLP.Chemscore.Metal>
0.0000

> <Gold.Chemscore.Hbonds>
donor molecule, donor type, donor heavy atom, donor atom, acceptor molecule, acceptor atom, score
      L1  H     6    21       P1  7957  0.98
      L1  H     9    22       P1  7957  1.00
      L1  H    12    35       P1  7948  1.98
      P1  H  7989  7998       L1     4  0.81
      P1  H  7997  8009       L1     3  1.00

> <Gold.PLP.Chemscore.Internal.Correction>
0.0140

> <Gold.Rescore>
     Score         DG    S(hbond)    S(metal)    S(lipo)     H(rot)  DE(clash)    DE(int)     intcor
     20.84     -21.65       4.46        0.00      46.52       1.63       0.26       0.55       ----

> <Gold.Chemscore.Fitness>
20.8382

> <Gold.Chemscore.DG>
-21.6496

> <Gold.Chemscore.ZeroCoef>
-5.4800

> <Gold.Chemscore.Hbond>
4.4606

> <Gold.Chemscore.Metal>
0.0000

> <Gold.Chemscore.Lipo>
46.5237

> <Gold.Chemscore.Internal_Hbond>
0.0000

> <Gold.Chemscore.DEClash>
0.2639

> <Gold.Chemscore.DEInternal>
0.5474

> <Gold.Chemscore.Rot>
1.6297

> <Gold.Chemscore.Internal.Correction>
   9.000000E+99

> <Gold.Chemscore.Hbonds>
donor molecule, donor type, donor heavy atom, donor atom, acceptor molecule, acceptor atom, score
      L1  H     6    21       P1  7957  0.82
      L1  H     9    22       P1  7957  0.99
      L1  H    12    35       P1  7948  0.90
      P1  H  7989  7998       L1     4  0.18
      P1  H  7997  8009       L1     3  0.96

> <Gold.Chemscore.Hbond.Weighted>
-14.8984

> <Gold.Chemscore.Metal.Weighted>
-0.0000

> <Gold.Chemscore.Lipo.Weighted>
-5.4433

> <Gold.Chemscore.Internal_Hbond.Weighted>
0.0000

> <Gold.Chemscore.DEClash.Weighted>
0.2639

> <Gold.Chemscore.DEInternal.Weighted>
0.5474

> <Gold.Chemscore.Rot.Weighted>
4.1720

> <Gold.Chemscore.Internal.Correction.Weighted>
   9.000000E+99

> <Gold.Protein.RotatedTorsions>
[ 6907 6896 6895 6894 ] final  144.55 input  -60.11 | X-H torsion
[ 7974 7965 7964 7962 ] final -112.15 input  175.53 | X-H torsion
[ 8008 7997 7996 7995 ] final -142.42 input   59.86 | X-H torsion
[ 10167 10162 10161 10158 ] final -135.53 input  -65.29 | X-H torsion
[ 10718 10713 10712 10709 ] final -158.27 input   66.30 | X-H torsion
[ 10763 10752 10751 10750 ] final  -83.66 input  -60.55 | X-H torsion
[ 11005 11000 10999 10996 ] final  106.26 input  -57.11 | X-H torsion

> <Gold.Protein.ActiveResidues>
 VAL166  LYS551  ARG553  GLY616  TRP617  ASP618  TYR619  PRO620  LYS621  CYS622 
 ASP623  PHE694  ASN695  SER759  ASP760  ASP761  ALA762  ILE779  LEU786  VAL792 
 PHE793  MET794  SER795  GLU796  ALA797  LYS798  CYS799  TRP800  GLU811  SER814 

> <Gold.Protein.RotatedAtoms>
  152.1922  133.4781  159.5013 H   0  0  0  0  0  0  0  0  0  0  0  0  # atno 6907 bound_to 6896
  150.6953  134.1698  159.4217 H   0  0  0  0  0  0  0  0  0  0  0  0  # atno 6908 bound_to 6896
  151.9613  135.0122  160.0598 H   0  0  0  0  0  0  0  0  0  0  0  0  # atno 6909 bound_to 6896
  145.1475  140.8811  143.3666 H   0  0  0  0  0  0  0  0  0  0  0  0  # atno 7974 bound_to 7965
  155.4939  140.0570  157.2949 H   0  0  0  0  0  0  0  0  0  0  0  0  # atno 8008 bound_to 7997
  154.4613  140.1997  156.0189 H   0  0  0  0  0  0  0  0  0  0  0  0  # atno 8009 bound_to 7997
  156.0894  140.3235  155.7800 H   0  0  0  0  0  0  0  0  0  0  0  0  # atno 8010 bound_to 7997
  139.8770  143.6887  152.2632 H   0  0  0  0  0  0  0  0  0  0  0  0  # atno 10167 bound_to 10162
  156.5518  130.8609  151.2782 H   0  0  0  0  0  0  0  0  0  0  0  0  # atno 10718 bound_to 10713
  154.5903  135.5548  153.7272 H   0  0  0  0  0  0  0  0  0  0  0  0  # atno 10763 bound_to 10752
  153.0114  135.6341  154.1858 H   0  0  0  0  0  0  0  0  0  0  0  0  # atno 10764 bound_to 10752
  154.1799  135.2887  155.3035 H   0  0  0  0  0  0  0  0  0  0  0  0  # atno 10765 bound_to 10752
  139.8812  134.9363  156.5640 H   0  0  0  0  0  0  0  0  0  0  0  0  # atno 11005 bound_to 11000
  145.0466  139.3216  143.5950 LP  0  0  0  0  0  0  0  0  0  0  0  0  # atno 17320 bound_to 7965
  146.3498  139.9859  142.8691 LP  0  0  0  0  0  0  0  0  0  0  0  0  # atno 17321 bound_to 7965
  139.7231  144.7598  151.0922 LP  0  0  0  0  0  0  0  0  0  0  0  0  # atno 17342 bound_to 10162
  140.7751  143.5182  150.9569 LP  0  0  0  0  0  0  0  0  0  0  0  0  # atno 17343 bound_to 10162
  157.7386  130.9816  150.2261 LP  0  0  0  0  0  0  0  0  0  0  0  0  # atno 17370 bound_to 10713
  156.2877  130.3741  149.7872 LP  0  0  0  0  0  0  0  0  0  0  0  0  # atno 17371 bound_to 10713
  140.8148  133.8400  155.8842 LP  0  0  0  0  0  0  0  0  0  0  0  0  # atno 17394 bound_to 11000
  140.9473  134.1824  157.4754 LP  0  0  0  0  0  0  0  0  0  0  0  0  # atno 17395 bound_to 11000

$$$$
