AV-unprocessed.smi:2803|AV-procd|sdf|10807|dock10
  -GOLD-   2272015243D 1   1.00000     0.00000
 Structure written by MMmdl.
 42 43  0  0  0  0  0  0  0  0  1 V2000
  150.3428  140.4756  157.7507 C   0  0  0  0  0  0  0  0  0  0  0  0
  150.2110  139.6289  156.4696 C   0  0  1  0  0  0  0  0  0  0  0  0
  151.4198  139.7879  155.6396 C   0  0  0  0  0  0  0  0  0  0  0  0
  152.3688  139.9113  154.9889 N   0  0  0  0  0  0  0  0  0  0  0  0
  150.0258  138.2221  156.8318 N   0  0  0  0  0  0  0  0  0  0  0  0
  149.1460  137.6888  157.6978 C   0  0  0  0  0  0  0  0  0  0  0  0
  148.3213  138.3598  158.3154 O   0  0  0  0  0  0  0  0  0  0  0  0
  149.1967  136.1678  157.9265 C   0  0  0  0  0  0  0  0  0  0  0  0
  148.3137  135.6768  158.9909 N   0  0  0  0  0  0  0  0  0  0  0  0
  147.5343  134.5532  158.8596 C   0  0  0  0  0  0  0  0  0  0  0  0
  146.8052  134.3535  159.9014 N   0  0  0  0  0  0  0  0  0  0  0  0
  147.1348  135.3886  160.7300 N   0  0  0  0  0  0  0  0  0  0  0  0
  146.4731  135.5236  162.0531 C   0  0  0  0  0  0  0  0  0  0  0  0
  147.5438  135.6312  163.1603 C   0  0  0  0  0  0  0  0  0  0  0  0
  145.5748  134.3044  162.3786 C   0  0  0  0  0  0  0  0  0  0  0  0
  145.5806  136.7838  162.0623 C   0  0  0  0  0  0  0  0  0  0  0  0
  148.0597  136.2031  160.1859 C   0  0  0  0  0  0  0  0  0  0  0  0
  148.5515  137.2261  160.6609 O   0  0  0  0  0  0  0  0  0  0  0  0
  149.0439  140.1658  155.6452 C   0  0  0  0  0  0  0  0  0  0  0  0
  148.9005  139.8867  154.1652 C   0  0  0  0  0  0  0  0  0  0  0  0
  149.2145  141.2872  154.6431 C   0  0  0  0  0  0  0  0  0  0  0  0
  150.4498  141.5343  157.5122 H   0  0  0  0  0  0  0  0  0  0  0  0
  151.2148  140.1922  158.3404 H   0  0  0  0  0  0  0  0  0  0  0  0
  149.4638  140.3690  158.3873 H   0  0  0  0  0  0  0  0  0  0  0  0
  150.6542  137.5758  156.3775 H   0  0  0  0  0  0  0  0  0  0  0  0
  148.9629  135.6664  156.9858 H   0  0  0  0  0  0  0  0  0  0  0  0
  150.2248  135.8929  158.1664 H   0  0  0  0  0  0  0  0  0  0  0  0
  147.5850  133.9621  157.9436 H   0  0  0  0  0  0  0  0  0  0  0  0
  147.0858  135.6782  164.1489 H   0  0  0  0  0  0  0  0  0  0  0  0
  148.1598  136.5241  163.0545 H   0  0  0  0  0  0  0  0  0  0  0  0
  148.2100  134.7678  163.1493 H   0  0  0  0  0  0  0  0  0  0  0  0
  146.1477  133.3766  162.4089 H   0  0  0  0  0  0  0  0  0  0  0  0
  144.7764  134.1826  161.6454 H   0  0  0  0  0  0  0  0  0  0  0  0
  145.0975  134.4156  163.3528 H   0  0  0  0  0  0  0  0  0  0  0  0
  145.0488  136.8826  163.0093 H   0  0  0  0  0  0  0  0  0  0  0  0
  144.8320  136.7423  161.2703 H   0  0  0  0  0  0  0  0  0  0  0  0
  146.1554  137.6996  161.9258 H   0  0  0  0  0  0  0  0  0  0  0  0
  148.1089  140.1899  156.2027 H   0  0  0  0  0  0  0  0  0  0  0  0
  149.6943  139.3350  153.6659 H   0  0  0  0  0  0  0  0  0  0  0  0
  147.8981  139.6992  153.7861 H   0  0  0  0  0  0  0  0  0  0  0  0
  148.4200  142.0280  154.5814 H   0  0  0  0  0  0  0  0  0  0  0  0
  150.2167  141.6670  154.4544 H   0  0  0  0  0  0  0  0  0  0  0  0
  1  2  1  0  0  0  0
  1 22  1  0  0  0  0
  1 23  1  0  0  0  0
  1 24  1  0  0  0  0
  2  3  1  0  0  0  0
  2  5  1  0  0  0  0
  2 19  1  0  0  0  0
  3  4  3  0  0  0  0
  5  6  1  0  0  0  0
  5 25  1  0  0  0  0
  6  7  2  0  0  0  0
  6  8  1  0  0  0  0
  8  9  1  0  0  0  0
  8 26  1  0  0  0  0
  8 27  1  0  0  0  0
  9 17  1  0  0  0  0
  9 10  1  0  0  0  0
 10 11  2  0  0  0  0
 10 28  1  0  0  0  0
 11 12  1  0  0  0  0
 12 13  1  0  0  0  0
 12 17  1  0  0  0  0
 13 14  1  0  0  0  0
 13 15  1  0  0  0  0
 13 16  1  0  0  0  0
 14 29  1  0  0  0  0
 14 30  1  0  0  0  0
 14 31  1  0  0  0  0
 15 32  1  0  0  0  0
 15 33  1  0  0  0  0
 15 34  1  0  0  0  0
 16 35  1  0  0  0  0
 16 36  1  0  0  0  0
 16 37  1  0  0  0  0
 17 18  2  0  0  0  0
 19 21  1  0  0  0  0
 19 20  1  0  0  0  0
 19 38  1  0  0  0  0
 20 21  1  0  0  0  0
 20 39  1  0  0  0  0
 20 40  1  0  0  0  0
 21 41  1  0  0  0  0
 21 42  1  0  0  0  0
M  END
> <s_m_source_file>
AV-unprocessed.smi

> <i_m_source_file_index>
2803

> <i_lp_mmshare_version>
43012

> <i_f3d_flags>
0

> <s_epik_input>
W0NIMl0xW0NIMl1bQ0hdMVtDQF0oW0NIM10pKEMjTilbTkhdQyg9TylbQ0gyXW4yW2NIXW5uKGMyPU8pQyhbQ0gzXSkoW0NIM10pW0NIM10=

> <s_epik_cmdline>
J2VwaWtfcHl0aG9uJywgJy1waCcsICc3LjAnLCAnLXRuJywgJzgnLCAnLW1hJywgJzIwMCcsICctbWV0YWxfYmluZGluZycsICctaW1hZScsICc8aW5maWxlLm1hZT4nLCAnLW9tYWUnLCAnPG91dGZpbGUubWFlPic=

> <r_lp_tautomer_probability>
1

> <r_epik_Ionization_Penalty>
4.88615e-06

> <r_epik_Ionization_Penalty_Charging>
4.80261e-08

> <r_epik_Ionization_Penalty_Neutral>
4.83813e-06

> <r_epik_State_Penalty>
-0

> <r_epik_Charging_Adjusted_Penalty>
4.80261e-08

> <i_epik_Tot_Q>
0

> <i_epik_Tot_abs_Q>
0

> <r_epik_Metal_State_Penalty>
-0

> <b_epik_Metal_Only>
0

> <s_lp_Force_Field>
OPLS_2005

> <r_lp_Energy>
32.3619

> <b_lp_Chiralities_Consistent>
1

> <s_lp_Variant>
AV-unprocessed.smi:2803-1

> <Gold.Version>
5.8.1

> <Gold.Id.Protein>
6NUR|6NUR_protein|mol2

> <Gold.PLP.Fitness>
39.3100

> <Gold.PLP.PLP>
-32.8426

> <Gold.PLP.part.hbond>
-4.3571

> <Gold.PLP.part.metal>
0.0000

> <Gold.PLP.part.buried>
-3.3889

> <Gold.PLP.part.nonpolar>
-26.4586

> <Gold.PLP.part.repulsive>
0.0045

> <Gold.PLP.ligand.clash>
0.0000

> <Gold.PLP.ligand.torsion>
1.2912

> <Gold.PLP.Chemscore.Hbond>
2.5016

> <Gold.PLP.Chemscore.CHOScore>
0.0000

> <Gold.PLP.Chemscore.Metal>
0.0000

> <Gold.Chemscore.Hbonds>
donor molecule, donor type, donor heavy atom, donor atom, acceptor molecule, acceptor atom, score
      P1  H  6931  6943       L1    18  0.77
      P1  H  6934  6947       L1    18  0.21
      P1  H  7989  7998       L1     4  0.66
      P1  H  7997  8009       L1     4  0.34

> <Gold.PLP.Chemscore.Internal.Correction>
1.5450

> <Gold.Rescore>
     Score         DG    S(hbond)    S(metal)    S(lipo)     H(rot)  DE(clash)    DE(int)     intcor
      9.86     -14.74       2.33        0.00      57.30       2.05       0.06       4.82       ----

> <Gold.Chemscore.Fitness>
9.8613

> <Gold.Chemscore.DG>
-14.7407

> <Gold.Chemscore.ZeroCoef>
-5.4800

> <Gold.Chemscore.Hbond>
2.3333

> <Gold.Chemscore.Metal>
0.0000

> <Gold.Chemscore.Lipo>
57.3040

> <Gold.Chemscore.Internal_Hbond>
0.0000

> <Gold.Chemscore.DEClash>
0.0640

> <Gold.Chemscore.DEInternal>
4.8154

> <Gold.Chemscore.Rot>
2.0457

> <Gold.Chemscore.Internal.Correction>
   9.000000E+99

> <Gold.Chemscore.Hbonds>
donor molecule, donor type, donor heavy atom, donor atom, acceptor molecule, acceptor atom, score
      P1  H  6931  6943       L1    18  0.78
      P1  H  6934  6947       L1    18  0.20
      P1  H  7989  7998       L1     4  0.23
      P1  H  7997  8009       L1     4  0.31

> <Gold.Chemscore.Hbond.Weighted>
-7.7931

> <Gold.Chemscore.Metal.Weighted>
-0.0000

> <Gold.Chemscore.Lipo.Weighted>
-6.7046

> <Gold.Chemscore.Internal_Hbond.Weighted>
0.0000

> <Gold.Chemscore.DEClash.Weighted>
0.0640

> <Gold.Chemscore.DEInternal.Weighted>
4.8154

> <Gold.Chemscore.Rot.Weighted>
5.2370

> <Gold.Chemscore.Internal.Correction.Weighted>
   9.000000E+99

> <Gold.Protein.RotatedTorsions>
[ 6907 6896 6895 6894 ] final -112.64 input  -60.11 | X-H torsion
[ 7974 7965 7964 7962 ] final  -79.93 input  175.53 | X-H torsion
[ 8008 7997 7996 7995 ] final -148.80 input   59.86 | X-H torsion
[ 10167 10162 10161 10158 ] final  -55.26 input  -65.29 | X-H torsion
[ 10718 10713 10712 10709 ] final  102.84 input   66.30 | X-H torsion
[ 10763 10752 10751 10750 ] final -115.22 input  -60.55 | X-H torsion
[ 11005 11000 10999 10996 ] final   35.45 input  -57.11 | X-H torsion

> <Gold.Protein.ActiveResidues>
 VAL166  LYS551  ARG553  GLY616  TRP617  ASP618  TYR619  PRO620  LYS621  CYS622 
 ASP623  PHE694  ASN695  SER759  ASP760  ASP761  ALA762  ILE779  LEU786  VAL792 
 PHE793  MET794  SER795  GLU796  ALA797  LYS798  CYS799  TRP800  GLU811  SER814 

> <Gold.Protein.RotatedAtoms>
  150.7772  133.9061  159.3355 H   0  0  0  0  0  0  0  0  0  0  0  0  # atno 6907 bound_to 6896
  151.6932  135.0941  160.0247 H   0  0  0  0  0  0  0  0  0  0  0  0  # atno 6908 bound_to 6896
  152.3812  133.6511  159.6198 H   0  0  0  0  0  0  0  0  0  0  0  0  # atno 6909 bound_to 6896
  145.5667  140.9473  143.1418 H   0  0  0  0  0  0  0  0  0  0  0  0  # atno 7974 bound_to 7965
  155.5974  140.0658  157.2742 H   0  0  0  0  0  0  0  0  0  0  0  0  # atno 8008 bound_to 7997
  154.4288  140.1824  156.1184 H   0  0  0  0  0  0  0  0  0  0  0  0  # atno 8009 bound_to 7997
  156.0186  140.3319  155.7018 H   0  0  0  0  0  0  0  0  0  0  0  0  # atno 8010 bound_to 7997
  140.6385  143.2495  151.5054 H   0  0  0  0  0  0  0  0  0  0  0  0  # atno 10167 bound_to 10162
  157.6790  131.0763  150.5464 H   0  0  0  0  0  0  0  0  0  0  0  0  # atno 10718 bound_to 10713
  154.8472  135.4389  154.1628 H   0  0  0  0  0  0  0  0  0  0  0  0  # atno 10763 bound_to 10752
  153.2761  135.6949  153.7438 H   0  0  0  0  0  0  0  0  0  0  0  0  # atno 10764 bound_to 10752
  153.6660  135.3427  155.3115 H   0  0  0  0  0  0  0  0  0  0  0  0  # atno 10765 bound_to 10752
  140.2426  134.3397  155.7920 H   0  0  0  0  0  0  0  0  0  0  0  0  # atno 11005 bound_to 11000
  144.7457  139.7327  143.7293 LP  0  0  0  0  0  0  0  0  0  0  0  0  # atno 17320 bound_to 7965
  146.1813  139.5007  142.9864 LP  0  0  0  0  0  0  0  0  0  0  0  0  # atno 17321 bound_to 7965
  139.5594  144.2194  152.1667 LP  0  0  0  0  0  0  0  0  0  0  0  0  # atno 17342 bound_to 10162
  140.1457  144.5161  150.6717 LP  0  0  0  0  0  0  0  0  0  0  0  0  # atno 17343 bound_to 10162
  156.5770  130.4294  149.5994 LP  0  0  0  0  0  0  0  0  0  0  0  0  # atno 17370 bound_to 10713
  156.2693  130.7008  151.1800 LP  0  0  0  0  0  0  0  0  0  0  0  0  # atno 17371 bound_to 10713
  141.2209  133.7307  156.8909 LP  0  0  0  0  0  0  0  0  0  0  0  0  # atno 17394 bound_to 11000
  140.1638  134.9147  157.2748 LP  0  0  0  0  0  0  0  0  0  0  0  0  # atno 17395 bound_to 11000

$$$$
