AV-unprocessed.smi:507|AV-procd|sdf|2757|dock2
  -GOLD-   2262023223D 1   1.00000     0.00000
 Structure written by MMmdl.
 33 34  0  0  0  0  0  0  0  0  1 V2000
  152.8058  143.2095  161.2873 C   0  0  0  0  0  0  0  0  0  0  0  0
  152.2700  142.7643  159.9378 C   0  0  0  0  0  0  0  0  0  0  0  0
  152.7087  141.5353  159.3953 C   0  0  0  0  0  0  0  0  0  0  0  0
  152.2355  141.0863  158.1430 C   0  0  0  0  0  0  0  0  0  0  0  0
  152.5261  139.9344  157.4317 N   0  0  0  0  0  0  0  0  0  0  0  0
  151.7727  140.0917  156.3469 C   0  0  0  0  0  0  0  0  0  0  0  0
  151.0311  141.2135  156.2692 N   0  0  0  0  0  0  0  0  0  0  0  0
  150.1376  141.6038  155.1927 C   0  0  0  0  0  0  0  0  0  0  0  0
  148.6599  141.3063  155.5134 C   0  0  1  0  0  0  0  0  0  0  0  0
  148.1911  142.2741  156.4321 O   0  0  0  0  0  0  0  0  0  0  0  0
  147.7801  141.3665  154.2533 C   0  0  0  0  0  0  0  0  0  0  0  0
  147.9980  140.2207  153.3583 N   0  0  0  0  0  0  0  0  0  0  0  0
  151.3030  141.9067  157.4433 C   0  0  0  0  0  0  0  0  0  0  0  0
  150.8584  143.1309  157.9725 C   0  0  0  0  0  0  0  0  0  0  0  0
  151.3425  143.5653  159.2241 C   0  0  0  0  0  0  0  0  0  0  0  0
  150.8597  144.8910  159.7852 C   0  0  0  0  0  0  0  0  0  0  0  0
  153.5078  142.4826  161.6969 H   0  0  0  0  0  0  0  0  0  0  0  0
  151.9911  143.3266  162.0022 H   0  0  0  0  0  0  0  0  0  0  0  0
  153.3269  144.1627  161.1961 H   0  0  0  0  0  0  0  0  0  0  0  0
  153.4153  140.9251  159.9383 H   0  0  0  0  0  0  0  0  0  0  0  0
  151.7617  139.3503  155.5613 H   0  0  0  0  0  0  0  0  0  0  0  0
  150.2784  142.6662  154.9874 H   0  0  0  0  0  0  0  0  0  0  0  0
  150.4424  141.0692  154.2922 H   0  0  0  0  0  0  0  0  0  0  0  0
  148.5884  140.3189  155.9719 H   0  0  0  0  0  0  0  0  0  0  0  0
  148.4456  143.1295  156.1206 H   0  0  0  0  0  0  0  0  0  0  0  0
  146.7271  141.4474  154.5260 H   0  0  0  0  0  0  0  0  0  0  0  0
  148.0153  142.2764  153.7004 H   0  0  0  0  0  0  0  0  0  0  0  0
  147.1287  139.9715  152.8881 H   0  0  0  0  0  0  0  0  0  0  0  0
  148.6706  140.4605  152.6314 H   0  0  0  0  0  0  0  0  0  0  0  0
  150.1524  143.7307  157.4173 H   0  0  0  0  0  0  0  0  0  0  0  0
  150.1376  145.3652  159.1198 H   0  0  0  0  0  0  0  0  0  0  0  0
  151.6966  145.5773  159.9150 H   0  0  0  0  0  0  0  0  0  0  0  0
  150.3773  144.7448  160.7517 H   0  0  0  0  0  0  0  0  0  0  0  0
  1  2  1  0  0  0  0
  1 17  1  0  0  0  0
  1 18  1  0  0  0  0
  1 19  1  0  0  0  0
  2 15  1  0  0  0  0
  2  3  2  0  0  0  0
  3  4  1  0  0  0  0
  3 20  1  0  0  0  0
  4 13  2  0  0  0  0
  4  5  1  0  0  0  0
  5  6  2  0  0  0  0
  6  7  1  0  0  0  0
  6 21  1  0  0  0  0
  7  8  1  0  0  0  0
  7 13  1  0  0  0  0
  8  9  1  0  0  0  0
  8 22  1  0  0  0  0
  8 23  1  0  0  0  0
  9 10  1  0  0  0  0
  9 11  1  0  0  0  0
  9 24  1  0  0  0  0
 10 25  1  0  0  0  0
 11 12  1  0  0  0  0
 11 26  1  0  0  0  0
 11 27  1  0  0  0  0
 12 28  1  0  0  0  0
 12 29  1  0  0  0  0
 13 14  1  0  0  0  0
 14 15  2  0  0  0  0
 14 30  1  0  0  0  0
 15 16  1  0  0  0  0
 16 31  1  0  0  0  0
 16 32  1  0  0  0  0
 16 33  1  0  0  0  0
M  END
> <s_m_source_file>
AV-unprocessed.smi

> <i_m_source_file_index>
507

> <i_lp_mmshare_version>
43012

> <i_f3d_flags>
0

> <s_epik_input>
W0NIM11jKFtjSF0xKWMoW0NIM10pW2NIXWMoYzEyKW4oW2NIXW4yKVtDSDJdW0NASF0oW09IXSlbQ0gyXVtOSDJd

> <s_epik_cmdline>
J2VwaWtfcHl0aG9uJywgJy1waCcsICc3LjAnLCAnLXRuJywgJzgnLCAnLW1hJywgJzIwMCcsICctbWV0YWxfYmluZGluZycsICctaW1hZScsICc8aW5maWxlLm1hZT4nLCAnLW9tYWUnLCAnPG91dGZpbGUubWFlPic=

> <r_epik_Ionization_Penalty>
2.36719

> <r_epik_Ionization_Penalty_Charging>
0

> <r_epik_Ionization_Penalty_Neutral>
2.36719

> <r_epik_State_Penalty>
2.51088

> <r_epik_Charging_Adjusted_Penalty>
2.51088

> <i_epik_Tot_Q>
0

> <i_epik_Tot_abs_Q>
0

> <r_epik_Metal_State_Penalty>
2.40105

> <b_epik_Metal_Only>
0

> <s_lp_Force_Field>
OPLS_2005

> <r_lp_Energy>
13.0346

> <b_lp_Chiralities_Consistent>
1

> <s_lp_Variant>
AV-unprocessed.smi:507-6

> <Gold.Version>
5.8.1

> <Gold.Id.Protein>
6NUR|6NUR_protein|mol2

> <Gold.PLP.Fitness>
44.6310

> <Gold.PLP.PLP>
-36.5715

> <Gold.PLP.part.hbond>
-3.0000

> <Gold.PLP.part.metal>
0.0000

> <Gold.PLP.part.buried>
-4.2797

> <Gold.PLP.part.nonpolar>
-29.0136

> <Gold.PLP.part.repulsive>
0.0000

> <Gold.PLP.ligand.clash>
0.0000

> <Gold.PLP.ligand.torsion>
0.4757

> <Gold.PLP.Chemscore.Hbond>
3.0000

> <Gold.PLP.Chemscore.CHOScore>
0.0000

> <Gold.PLP.Chemscore.Metal>
0.0000

> <Gold.Chemscore.Hbonds>
donor molecule, donor type, donor heavy atom, donor atom, acceptor molecule, acceptor atom, score
      L1  H    10    25       P1  8028  1.00
      L1  H    12    29       P1  7957  1.00
      P1  H  7997  8010       L1     5  1.00

> <Gold.PLP.Chemscore.Internal.Correction>
0.0109

> <Gold.Rescore>
     Score         DG    S(hbond)    S(metal)    S(lipo)     H(rot)  DE(clash)    DE(int)     intcor
     19.32     -19.90       2.63        0.00      96.34       2.20       0.20       0.37       ----

> <Gold.Chemscore.Fitness>
19.3194

> <Gold.Chemscore.DG>
-19.8958

> <Gold.Chemscore.ZeroCoef>
-5.4800

> <Gold.Chemscore.Hbond>
2.6295

> <Gold.Chemscore.Metal>
0.0000

> <Gold.Chemscore.Lipo>
96.3376

> <Gold.Chemscore.Internal_Hbond>
0.0000

> <Gold.Chemscore.DEClash>
0.2037

> <Gold.Chemscore.DEInternal>
0.3727

> <Gold.Chemscore.Rot>
2.2025

> <Gold.Chemscore.Internal.Correction>
   9.000000E+99

> <Gold.Chemscore.Hbonds>
donor molecule, donor type, donor heavy atom, donor atom, acceptor molecule, acceptor atom, score
      L1  H    10    25       P1  8028  0.91
      L1  H    12    29       P1  7957  0.95
      P1  H  7997  8010       L1     5  0.31

> <Gold.Chemscore.Hbond.Weighted>
-8.7826

> <Gold.Chemscore.Metal.Weighted>
-0.0000

> <Gold.Chemscore.Lipo.Weighted>
-11.2715

> <Gold.Chemscore.Internal_Hbond.Weighted>
0.0000

> <Gold.Chemscore.DEClash.Weighted>
0.2037

> <Gold.Chemscore.DEInternal.Weighted>
0.3727

> <Gold.Chemscore.Rot.Weighted>
5.6383

> <Gold.Chemscore.Internal.Correction.Weighted>
   9.000000E+99

> <Gold.Protein.RotatedTorsions>
[ 6907 6896 6895 6894 ] final  -43.46 input  -60.11 | X-H torsion
[ 7974 7965 7964 7962 ] final -174.16 input  175.53 | X-H torsion
[ 8008 7997 7996 7995 ] final   51.63 input   59.86 | X-H torsion
[ 10167 10162 10161 10158 ] final   99.81 input  -65.29 | X-H torsion
[ 10718 10713 10712 10709 ] final  130.36 input   66.30 | X-H torsion
[ 10763 10752 10751 10750 ] final   17.14 input  -60.55 | X-H torsion
[ 11005 11000 10999 10996 ] final   45.78 input  -57.11 | X-H torsion

> <Gold.Protein.ActiveResidues>
 VAL166  LYS551  ARG553  GLY616  TRP617  ASP618  TYR619  PRO620  LYS621  CYS622 
 ASP623  PHE694  ASN695  SER759  ASP760  ASP761  ALA762  ILE779  LEU786  VAL792 
 PHE793  MET794  SER795  GLU796  ALA797  LYS798  CYS799  TRP800  GLU811  SER814 

> <Gold.Protein.RotatedAtoms>
  150.9437  134.8843  159.7627 H   0  0  0  0  0  0  0  0  0  0  0  0  # atno 6907 bound_to 6896
  152.5091  134.3906  159.9392 H   0  0  0  0  0  0  0  0  0  0  0  0  # atno 6908 bound_to 6896
  151.3925  133.3744  159.2757 H   0  0  0  0  0  0  0  0  0  0  0  0  # atno 6909 bound_to 6896
  144.7133  140.1513  143.6384 H   0  0  0  0  0  0  0  0  0  0  0  0  # atno 7974 bound_to 7965
  155.4384  140.3453  155.4287 H   0  0  0  0  0  0  0  0  0  0  0  0  # atno 8008 bound_to 7997
  156.1294  140.1509  156.9119 H   0  0  0  0  0  0  0  0  0  0  0  0  # atno 8009 bound_to 7997
  154.4883  140.0849  156.7516 H   0  0  0  0  0  0  0  0  0  0  0  0  # atno 8010 bound_to 7997
  139.7583  144.6962  151.0329 H   0  0  0  0  0  0  0  0  0  0  0  0  # atno 10167 bound_to 10162
  157.5069  131.1096  150.9348 H   0  0  0  0  0  0  0  0  0  0  0  0  # atno 10718 bound_to 10713
  153.1366  135.6751  153.9093 H   0  0  0  0  0  0  0  0  0  0  0  0  # atno 10763 bound_to 10752
  153.8563  135.3087  155.3436 H   0  0  0  0  0  0  0  0  0  0  0  0  # atno 10764 bound_to 10752
  154.7753  135.4918  153.9814 H   0  0  0  0  0  0  0  0  0  0  0  0  # atno 10765 bound_to 10752
  140.1428  134.4561  155.8437 H   0  0  0  0  0  0  0  0  0  0  0  0  # atno 11005 bound_to 11000
  145.9113  139.2489  143.1435 LP  0  0  0  0  0  0  0  0  0  0  0  0  # atno 17320 bound_to 7965
  145.9713  140.8758  143.0161 LP  0  0  0  0  0  0  0  0  0  0  0  0  # atno 17321 bound_to 7965
  140.7805  143.4726  151.0125 LP  0  0  0  0  0  0  0  0  0  0  0  0  # atno 17342 bound_to 10162
  139.8413  143.7560  152.3180 LP  0  0  0  0  0  0  0  0  0  0  0  0  # atno 17343 bound_to 10162
  157.0001  130.5596  149.5310 LP  0  0  0  0  0  0  0  0  0  0  0  0  # atno 17370 bound_to 10713
  156.0264  130.5357  150.8418 LP  0  0  0  0  0  0  0  0  0  0  0  0  # atno 17371 bound_to 10713
  141.2188  133.6840  156.7279 LP  0  0  0  0  0  0  0  0  0  0  0  0  # atno 17394 bound_to 11000
  140.2700  134.8399  157.3838 LP  0  0  0  0  0  0  0  0  0  0  0  0  # atno 17395 bound_to 11000

$$$$
