AV-unprocessed.smi:109|AV-procd|sdf|1053|dock8
  -GOLD-   2262018113D 1   1.00000     0.00000
 Structure written by MMmdl.
 58 61  0  0  0  0  0  0  0  0  1 V2000
  145.6342  130.2588  160.4606 O   0  0  0  0  0  0  0  0  0  0  0  0
  145.5928  131.6222  160.0985 C   0  0  0  0  0  0  0  0  0  0  0  0
  146.9110  132.0223  159.4138 C   0  0  0  0  0  0  0  0  0  0  0  0
  147.0128  133.5262  159.0563 C   0  0  2  0  0  0  0  0  0  0  0  0
  148.3820  133.8399  158.6420 N   0  0  0  0  0  0  0  0  0  0  0  0
  148.6692  134.3778  157.4353 C   0  0  0  0  0  0  0  0  0  0  0  0
  148.1642  133.8594  156.2854 N   0  0  0  0  0  0  0  0  0  0  0  0
  148.4767  134.4094  155.1079 C   0  0  0  0  0  0  0  0  0  0  0  0
  149.2600  135.4618  154.8601 N   0  0  0  0  0  0  0  0  0  0  0  0
  149.7658  135.9862  156.0133 C   0  0  0  0  0  0  0  0  0  0  0  0
  149.5210  135.5069  157.3292 C   0  0  0  0  0  0  0  0  0  0  0  0
  150.2073  136.2890  158.2495 N   0  0  0  0  0  0  0  0  0  0  0  0
  150.8210  137.1773  157.5141 C   0  0  0  0  0  0  0  0  0  0  0  0
  150.6117  137.0629  156.1555 N   0  0  0  0  0  0  0  0  0  0  0  0
  151.1604  137.8905  155.0396 C   0  0  1  0  0  0  0  0  0  0  0  0
  150.0768  138.4183  154.3328 O   0  0  0  0  0  0  0  0  0  0  0  0
  150.1344  139.8403  154.3104 C   0  0  1  0  0  0  0  0  0  0  0  0
  148.7246  140.4511  154.2226 C   0  0  0  0  0  0  0  0  0  0  0  0
  148.1146  140.1011  152.9986 O   0  0  0  0  0  0  0  0  0  0  0  0
  150.9930  140.2284  155.5222 C   0  0  1  0  0  0  0  0  0  0  0  0
  150.2223  140.3278  156.7058 O   0  0  0  0  0  0  0  0  0  0  0  0
  151.9671  139.0637  155.6206 C   0  0  2  0  0  0  0  0  0  0  0  0
  153.1315  139.3092  154.8580 O   0  0  0  0  0  0  0  0  0  0  0  0
  146.6019  134.4742  160.2196 C   0  0  0  0  0  0  0  0  0  0  0  0
  146.9882  135.9542  159.9725 C   0  0  0  0  0  0  0  0  0  0  0  0
  146.6128  136.8648  161.1531 C   0  0  0  0  0  0  0  0  0  0  0  0
  147.2393  136.3728  162.4631 C   0  0  0  0  0  0  0  0  0  0  0  0
  146.8391  134.9186  162.7375 C   0  0  0  0  0  0  0  0  0  0  0  0
  147.2228  134.0071  161.5615 C   0  0  0  0  0  0  0  0  0  0  0  0
  151.7421  137.1911  154.4373 H   0  0  0  0  0  0  0  0  0  0  0  0
  150.6876  140.1013  153.4062 H   0  0  0  0  0  0  0  0  0  0  0  0
  151.4970  141.1843  155.3723 H   0  0  0  0  0  0  0  0  0  0  0  0
  152.2802  138.8613  156.6466 H   0  0  0  0  0  0  0  0  0  0  0  0
  146.5231  129.9509  160.3716 H   0  0  0  0  0  0  0  0  0  0  0  0
  144.7401  131.7777  159.4376 H   0  0  0  0  0  0  0  0  0  0  0  0
  145.4278  132.2205  160.9950 H   0  0  0  0  0  0  0  0  0  0  0  0
  147.7120  131.7523  160.1001 H   0  0  0  0  0  0  0  0  0  0  0  0
  147.0572  131.4198  158.5162 H   0  0  0  0  0  0  0  0  0  0  0  0
  146.3136  133.7172  158.2424 H   0  0  0  0  0  0  0  0  0  0  0  0
  149.0980  133.6222  159.3202 H   0  0  0  0  0  0  0  0  0  0  0  0
  148.0379  133.9380  154.2408 H   0  0  0  0  0  0  0  0  0  0  0  0
  151.4499  137.9403  157.9491 H   0  0  0  0  0  0  0  0  0  0  0  0
  148.1041  140.0662  155.0321 H   0  0  0  0  0  0  0  0  0  0  0  0
  148.7465  141.5355  154.3304 H   0  0  0  0  0  0  0  0  0  0  0  0
  148.6884  140.3569  152.2926 H   0  0  0  0  0  0  0  0  0  0  0  0
  150.0387  141.2404  156.8680 H   0  0  0  0  0  0  0  0  0  0  0  0
  153.4171  138.4941  154.4743 H   0  0  0  0  0  0  0  0  0  0  0  0
  145.5161  134.4321  160.3200 H   0  0  0  0  0  0  0  0  0  0  0  0
  148.0591  136.0285  159.7789 H   0  0  0  0  0  0  0  0  0  0  0  0
  146.4833  136.3444  159.0903 H   0  0  0  0  0  0  0  0  0  0  0  0
  146.9338  137.8869  160.9496 H   0  0  0  0  0  0  0  0  0  0  0  0
  145.5275  136.8978  161.2577 H   0  0  0  0  0  0  0  0  0  0  0  0
  148.3256  136.4515  162.4040 H   0  0  0  0  0  0  0  0  0  0  0  0
  146.9253  137.0100  163.2902 H   0  0  0  0  0  0  0  0  0  0  0  0
  147.3197  134.5680  163.6512 H   0  0  0  0  0  0  0  0  0  0  0  0
  145.7640  134.8597  162.9111 H   0  0  0  0  0  0  0  0  0  0  0  0
  146.9091  132.9909  161.8009 H   0  0  0  0  0  0  0  0  0  0  0  0
  148.3094  133.9749  161.4696 H   0  0  0  0  0  0  0  0  0  0  0  0
  1  2  1  0  0  0  0
  1 34  1  0  0  0  0
  2  3  1  0  0  0  0
  2 35  1  0  0  0  0
  2 36  1  0  0  0  0
  3  4  1  0  0  0  0
  3 37  1  0  0  0  0
  3 38  1  0  0  0  0
  4  5  1  0  0  0  0
  4 24  1  0  0  0  0
  4 39  1  0  0  0  0
  5  6  1  0  0  0  0
  5 40  1  0  0  0  0
  6 11  1  0  0  0  0
  6  7  2  0  0  0  0
  7  8  1  0  0  0  0
  8  9  2  0  0  0  0
  8 41  1  0  0  0  0
  9 10  1  0  0  0  0
 10 14  1  0  0  0  0
 10 11  2  0  0  0  0
 11 12  1  0  0  0  0
 12 13  2  0  0  0  0
 13 14  1  0  0  0  0
 13 42  1  0  0  0  0
 14 15  1  0  0  0  0
 15 30  1  0  0  0  0
 15 22  1  0  0  0  0
 15 16  1  0  0  0  0
 16 17  1  0  0  0  0
 17 31  1  0  0  0  0
 17 18  1  0  0  0  0
 17 20  1  0  0  0  0
 18 19  1  0  0  0  0
 18 43  1  0  0  0  0
 18 44  1  0  0  0  0
 19 45  1  0  0  0  0
 20 32  1  0  0  0  0
 20 21  1  0  0  0  0
 20 22  1  0  0  0  0
 21 46  1  0  0  0  0
 22 33  1  0  0  0  0
 22 23  1  0  0  0  0
 23 47  1  0  0  0  0
 24 29  1  0  0  0  0
 24 25  1  0  0  0  0
 24 48  1  0  0  0  0
 25 26  1  0  0  0  0
 25 49  1  0  0  0  0
 25 50  1  0  0  0  0
 26 27  1  0  0  0  0
 26 51  1  0  0  0  0
 26 52  1  0  0  0  0
 27 28  1  0  0  0  0
 27 53  1  0  0  0  0
 27 54  1  0  0  0  0
 28 29  1  0  0  0  0
 28 55  1  0  0  0  0
 28 56  1  0  0  0  0
 29 57  1  0  0  0  0
 29 58  1  0  0  0  0
M  END
> <s_m_source_file>
AV-unprocessed.smi

> <i_m_source_file_index>
109

> <i_lp_mmshare_version>
43012

> <i_f3d_flags>
0

> <s_epik_input>
W0NIMl0xW0NIMl1bQ0gyXVtDSDJdW0NIMl1bQ0hdMVtDQEhdKFtDSDJdW0NIMl1bT0hdKVtOSF1jKG5bY0hdbjIpYyhjMjMpbltjSF1uM1tDQEBIXTRPW0NASF0oW0NIMl1bT0hdKVtDQEBIXShbT0hdKVtDQEhdNFtPSF0=

> <s_epik_cmdline>
J2VwaWtfcHl0aG9uJywgJy1waCcsICc3LjAnLCAnLXRuJywgJzgnLCAnLW1hJywgJzIwMCcsICctbWV0YWxfYmluZGluZycsICctaW1hZScsICc8aW5maWxlLm1hZT4nLCAnLW9tYWUnLCAnPG91dGZpbGUubWFlPic=

> <r_lp_tautomer_probability>
1

> <r_epik_Ionization_Penalty>
0.000793976

> <r_epik_Ionization_Penalty_Charging>
0

> <r_epik_Ionization_Penalty_Neutral>
0.000793976

> <r_epik_State_Penalty>
-0

> <r_epik_Charging_Adjusted_Penalty>
0

> <i_epik_Tot_Q>
0

> <i_epik_Tot_abs_Q>
0

> <r_epik_Metal_State_Penalty>
-0

> <b_epik_Metal_Only>
0

> <s_epik_Chemistry_Notes>
This compound contains an acetal/aminal-like group ( X-CH(R)-Y where X, Y are N, S, or O) that may be acid/base labile, releasing an aldehyde.

> <s_lp_Force_Field>
OPLS_2005

> <r_lp_Energy>
46.6527

> <b_lp_Chiralities_Consistent>
1

> <s_lp_Variant>
AV-unprocessed.smi:109-23

> <Gold.Version>
5.8.1

> <Gold.Id.Protein>
6NUR|6NUR_protein|mol2

> <Gold.PLP.Fitness>
46.9769

> <Gold.PLP.PLP>
-39.8107

> <Gold.PLP.part.hbond>
-3.8042

> <Gold.PLP.part.metal>
0.0000

> <Gold.PLP.part.buried>
-5.0363

> <Gold.PLP.part.nonpolar>
-32.5348

> <Gold.PLP.part.repulsive>
0.6459

> <Gold.PLP.ligand.clash>
0.0000

> <Gold.PLP.ligand.torsion>
0.7978

> <Gold.PLP.Chemscore.Hbond>
2.8640

> <Gold.PLP.Chemscore.CHOScore>
0.0000

> <Gold.PLP.Chemscore.Metal>
0.0000

> <Gold.Chemscore.Hbonds>
donor molecule, donor type, donor heavy atom, donor atom, acceptor molecule, acceptor atom, score
      L1  H    19    45       P1  7957  0.88
      P1  H  6896  6908       L1    12  0.75
      P1  H  7997  8010       L1    23  1.00

> <Gold.PLP.Chemscore.Internal.Correction>
0.1698

> <Gold.Rescore>
     Score         DG    S(hbond)    S(metal)    S(lipo)     H(rot)  DE(clash)    DE(int)     intcor
      8.19      -9.31       2.49        0.00      81.25       5.47       0.28       0.84       ----

> <Gold.Chemscore.Fitness>
8.1933

> <Gold.Chemscore.DG>
-9.3144

> <Gold.Chemscore.ZeroCoef>
-5.4800

> <Gold.Chemscore.Hbond>
2.4915

> <Gold.Chemscore.Metal>
0.0000

> <Gold.Chemscore.Lipo>
81.2501

> <Gold.Chemscore.Internal_Hbond>
0.0000

> <Gold.Chemscore.DEClash>
0.2774

> <Gold.Chemscore.DEInternal>
0.8437

> <Gold.Chemscore.Rot>
5.4662

> <Gold.Chemscore.Internal.Correction>
   9.000000E+99

> <Gold.Chemscore.Hbonds>
donor molecule, donor type, donor heavy atom, donor atom, acceptor molecule, acceptor atom, score
      L1  H    19    45       P1  7957  0.83
      P1  H  6896  6908       L1    12  0.28
      P1  H  7997  8010       L1    23  0.76

> <Gold.Chemscore.Hbond.Weighted>
-8.3216

> <Gold.Chemscore.Metal.Weighted>
-0.0000

> <Gold.Chemscore.Lipo.Weighted>
-9.5063

> <Gold.Chemscore.Internal_Hbond.Weighted>
0.0000

> <Gold.Chemscore.DEClash.Weighted>
0.2774

> <Gold.Chemscore.DEInternal.Weighted>
0.8437

> <Gold.Chemscore.Rot.Weighted>
13.9935

> <Gold.Chemscore.Internal.Correction.Weighted>
   9.000000E+99

> <Gold.Protein.RotatedTorsions>
[ 6907 6896 6895 6894 ] final -169.19 input  -60.11 | X-H torsion
[ 7974 7965 7964 7962 ] final    2.09 input  175.53 | X-H torsion
[ 8008 7997 7996 7995 ] final  113.73 input   59.86 | X-H torsion
[ 10167 10162 10161 10158 ] final  -50.99 input  -65.29 | X-H torsion
[ 10718 10713 10712 10709 ] final -115.79 input   66.30 | X-H torsion
[ 10763 10752 10751 10750 ] final   67.69 input  -60.55 | X-H torsion
[ 11005 11000 10999 10996 ] final   92.95 input  -57.11 | X-H torsion

> <Gold.Protein.ActiveResidues>
 VAL166  LYS551  ARG553  GLY616  TRP617  ASP618  TYR619  PRO620  LYS621  CYS622 
 ASP623  PHE694  ASN695  SER759  ASP760  ASP761  ALA762  ILE779  LEU786  VAL792 
 PHE793  MET794  SER795  GLU796  ALA797  LYS798  CYS799  TRP800  GLU811  SER814 

> <Gold.Protein.RotatedAtoms>
  151.4877  133.3532  159.2848 H   0  0  0  0  0  0  0  0  0  0  0  0  # atno 6907 bound_to 6896
  150.8855  134.8254  159.7267 H   0  0  0  0  0  0  0  0  0  0  0  0  # atno 6908 bound_to 6896
  152.4790  134.4780  159.9708 H   0  0  0  0  0  0  0  0  0  0  0  0  # atno 6909 bound_to 6896
  146.2443  140.0888  142.8353 H   0  0  0  0  0  0  0  0  0  0  0  0  # atno 7974 bound_to 7965
  156.2277  140.2973  156.0108 H   0  0  0  0  0  0  0  0  0  0  0  0  # atno 8008 bound_to 7997
  155.2312  140.0419  157.2979 H   0  0  0  0  0  0  0  0  0  0  0  0  # atno 8009 bound_to 7997
  154.5943  140.2410  155.7886 H   0  0  0  0  0  0  0  0  0  0  0  0  # atno 8010 bound_to 7997
  140.6610  143.2636  151.4439 H   0  0  0  0  0  0  0  0  0  0  0  0  # atno 10167 bound_to 10162
  156.0919  130.6100  150.8951 H   0  0  0  0  0  0  0  0  0  0  0  0  # atno 10718 bound_to 10713
  153.0198  135.5274  154.7019 H   0  0  0  0  0  0  0  0  0  0  0  0  # atno 10763 bound_to 10752
  154.6125  135.2880  155.0418 H   0  0  0  0  0  0  0  0  0  0  0  0  # atno 10764 bound_to 10752
  154.1434  135.6574  153.5000 H   0  0  0  0  0  0  0  0  0  0  0  0  # atno 10765 bound_to 10752
  139.8816  134.8762  156.3646 H   0  0  0  0  0  0  0  0  0  0  0  0  # atno 11005 bound_to 11000
  145.0668  140.9127  143.4906 LP  0  0  0  0  0  0  0  0  0  0  0  0  # atno 17320 bound_to 7965
  145.1015  139.2819  143.5684 LP  0  0  0  0  0  0  0  0  0  0  0  0  # atno 17321 bound_to 7965
  139.5845  144.1636  152.2011 LP  0  0  0  0  0  0  0  0  0  0  0  0  # atno 17342 bound_to 10162
  140.0971  144.5571  150.7014 LP  0  0  0  0  0  0  0  0  0  0  0  0  # atno 17343 bound_to 10162
  157.6070  131.0938  150.8861 LP  0  0  0  0  0  0  0  0  0  0  0  0  # atno 17370 bound_to 10713
  156.9008  130.5246  149.5283 LP  0  0  0  0  0  0  0  0  0  0  0  0  # atno 17371 bound_to 10713
  140.9506  133.7454  156.0266 LP  0  0  0  0  0  0  0  0  0  0  0  0  # atno 17394 bound_to 11000
  140.8110  134.3399  157.5411 LP  0  0  0  0  0  0  0  0  0  0  0  0  # atno 17395 bound_to 11000

$$$$
