AV-unprocessed.smi:2986|AV-procd|sdf|11381|dock4
  -GOLD-   2272016303D 1   1.00000     0.00000
 Structure written by MMmdl.
 42 44  0  0  0  0  0  0  0  0  1 V2000
  150.7128  138.5860  154.6050 C   0  0  0  0  0  0  0  0  0  0  0  0
  151.1639  139.9152  154.7956 O   0  0  0  0  0  0  0  0  0  0  0  0
  151.8420  140.0861  156.0280 C   0  0  0  0  0  0  0  0  0  0  0  0
  150.8656  140.6821  157.0482 C   0  0  0  0  0  0  0  0  0  0  0  0
  151.5618  141.2249  158.2033 N   0  0  0  0  0  0  0  0  0  0  0  0
  152.3132  140.5587  159.1133 C   0  0  0  0  0  0  0  0  0  0  0  0
  152.5689  138.8160  159.0142 S   0  0  0  0  0  0  0  0  0  0  0  0
  153.7411  138.6359  160.3957 C   0  0  0  0  0  0  0  0  0  0  0  0
  153.8901  137.1964  160.8943 C   0  0  0  0  0  0  0  0  0  0  0  0
  153.6184  136.2666  160.1363 O   0  0  0  0  0  0  0  0  0  0  0  0
  154.3254  137.0536  162.1594 N   0  0  0  0  0  0  0  0  0  0  0  0
  154.4831  135.8619  162.9113 C   0  0  0  0  0  0  0  0  0  0  0  0
  154.0379  135.6402  164.2469 C   0  0  0  0  0  0  0  0  0  0  0  0
  154.4358  134.3565  164.4927 C   0  0  0  0  0  0  0  0  0  0  0  0
  154.3065  133.4640  165.6789 C   0  0  0  0  0  0  0  0  0  0  0  0
  155.0681  133.8397  163.4049 O   0  0  0  0  0  0  0  0  0  0  0  0
  155.0930  134.8103  162.3967 N   0  0  0  0  0  0  0  0  0  0  0  0
  152.8499  141.3050  160.0786 N   0  0  0  0  0  0  0  0  0  0  0  0
  152.4020  142.5739  159.7670 C   0  0  0  0  0  0  0  0  0  0  0  0
  152.6257  143.8118  160.4113 C   0  0  0  0  0  0  0  0  0  0  0  0
  152.0510  144.9951  159.9028 C   0  0  0  0  0  0  0  0  0  0  0  0
  151.2458  144.9579  158.7458 C   0  0  0  0  0  0  0  0  0  0  0  0
  151.0115  143.7354  158.0874 C   0  0  0  0  0  0  0  0  0  0  0  0
  151.5886  142.5577  158.5986 C   0  0  0  0  0  0  0  0  0  0  0  0
  150.2072  138.5054  153.6428 H   0  0  0  0  0  0  0  0  0  0  0  0
  150.0056  138.2949  155.3829 H   0  0  0  0  0  0  0  0  0  0  0  0
  151.5460  137.8821  154.6072 H   0  0  0  0  0  0  0  0  0  0  0  0
  152.2191  139.1264  156.3855 H   0  0  0  0  0  0  0  0  0  0  0  0
  152.6984  140.7489  155.8928 H   0  0  0  0  0  0  0  0  0  0  0  0
  150.2626  141.4647  156.5885 H   0  0  0  0  0  0  0  0  0  0  0  0
  150.1650  139.9191  157.3887 H   0  0  0  0  0  0  0  0  0  0  0  0
  154.7139  139.0210  160.0869 H   0  0  0  0  0  0  0  0  0  0  0  0
  153.4033  139.2615  161.2221 H   0  0  0  0  0  0  0  0  0  0  0  0
  154.5198  137.9083  162.6608 H   0  0  0  0  0  0  0  0  0  0  0  0
  153.5142  136.2976  164.9242 H   0  0  0  0  0  0  0  0  0  0  0  0
  153.7334  133.9483  166.4697 H   0  0  0  0  0  0  0  0  0  0  0  0
  155.2877  133.2096  166.0799 H   0  0  0  0  0  0  0  0  0  0  0  0
  153.7988  132.5370  165.4119 H   0  0  0  0  0  0  0  0  0  0  0  0
  153.2405  143.8510  161.2984 H   0  0  0  0  0  0  0  0  0  0  0  0
  152.2287  145.9357  160.4030 H   0  0  0  0  0  0  0  0  0  0  0  0
  150.8089  145.8687  158.3634 H   0  0  0  0  0  0  0  0  0  0  0  0
  150.3953  143.7038  157.2010 H   0  0  0  0  0  0  0  0  0  0  0  0
  1  2  1  0  0  0  0
  1 25  1  0  0  0  0
  1 26  1  0  0  0  0
  1 27  1  0  0  0  0
  2  3  1  0  0  0  0
  3  4  1  0  0  0  0
  3 28  1  0  0  0  0
  3 29  1  0  0  0  0
  4  5  1  0  0  0  0
  4 30  1  0  0  0  0
  4 31  1  0  0  0  0
  5 24  1  0  0  0  0
  5  6  1  0  0  0  0
  6  7  1  0  0  0  0
  6 18  2  0  0  0  0
  7  8  1  0  0  0  0
  8  9  1  0  0  0  0
  8 32  1  0  0  0  0
  8 33  1  0  0  0  0
  9 10  2  0  0  0  0
  9 11  1  0  0  0  0
 11 12  1  0  0  0  0
 11 34  1  0  0  0  0
 12 17  2  0  0  0  0
 12 13  1  0  0  0  0
 13 14  2  0  0  0  0
 13 35  1  0  0  0  0
 14 15  1  0  0  0  0
 14 16  1  0  0  0  0
 15 36  1  0  0  0  0
 15 37  1  0  0  0  0
 15 38  1  0  0  0  0
 16 17  1  0  0  0  0
 18 19  1  0  0  0  0
 19 24  2  0  0  0  0
 19 20  1  0  0  0  0
 20 21  2  0  0  0  0
 20 39  1  0  0  0  0
 21 22  1  0  0  0  0
 21 40  1  0  0  0  0
 22 23  2  0  0  0  0
 22 41  1  0  0  0  0
 23 24  1  0  0  0  0
 23 42  1  0  0  0  0
M  END
> <s_m_source_file>
AV-unprocessed.smi

> <i_m_source_file_index>
2986

> <i_lp_mmshare_version>
43012

> <i_f3d_flags>
0

> <s_epik_input>
W2NIXTFbY0hdW2NIXVtjSF1jKGMxMiluKFtDSDJdW0NIMl1PW0NIM10pYyhuMilTW0NIMl1DKD1PKVtOSF1jM1tjSF1jKFtDSDNdKW9uMw==

> <s_epik_cmdline>
J2VwaWtfcHl0aG9uJywgJy1waCcsICc3LjAnLCAnLXRuJywgJzgnLCAnLW1hJywgJzIwMCcsICctbWV0YWxfYmluZGluZycsICctaW1hZScsICc8aW5maWxlLm1hZT4nLCAnLW9tYWUnLCAnPG91dGZpbGUubWFlPic=

> <r_epik_Ionization_Penalty>
0.0256487

> <r_epik_Ionization_Penalty_Charging>
0

> <r_epik_Ionization_Penalty_Neutral>
0.0256487

> <r_epik_State_Penalty>
0.0204505

> <r_epik_Charging_Adjusted_Penalty>
0.0204505

> <i_epik_Tot_Q>
0

> <i_epik_Tot_abs_Q>
0

> <r_epik_Metal_State_Penalty>
0.237509

> <b_epik_Metal_Only>
0

> <s_lp_Force_Field>
OPLS_2005

> <r_lp_Energy>
8.97746

> <b_lp_Chiralities_Consistent>
1

> <s_lp_Variant>
AV-unprocessed.smi:2986-1

> <Gold.Version>
5.8.1

> <Gold.Id.Protein>
6NUR|6NUR_protein|mol2

> <Gold.PLP.Fitness>
55.3535

> <Gold.PLP.PLP>
-51.5652

> <Gold.PLP.part.hbond>
-1.9954

> <Gold.PLP.part.metal>
0.0000

> <Gold.PLP.part.buried>
-7.7517

> <Gold.PLP.part.nonpolar>
-42.5753

> <Gold.PLP.part.repulsive>
0.1022

> <Gold.PLP.ligand.clash>
0.0000

> <Gold.PLP.ligand.torsion>
1.1727

> <Gold.PLP.Chemscore.Hbond>
2.0000

> <Gold.PLP.Chemscore.CHOScore>
0.0000

> <Gold.PLP.Chemscore.Metal>
0.0000

> <Gold.Chemscore.Hbonds>
donor molecule, donor type, donor heavy atom, donor atom, acceptor molecule, acceptor atom, score
      P1  H  6896  6909       L1    10  1.00
      P1  H  7989  7998       L1     2  1.00

> <Gold.PLP.Chemscore.Internal.Correction>
0.1337

> <Gold.Rescore>
     Score         DG    S(hbond)    S(metal)    S(lipo)     H(rot)  DE(clash)    DE(int)     intcor
     19.85     -21.22       1.95        0.00     128.80       2.28       0.19       1.18       ----

> <Gold.Chemscore.Fitness>
19.8515

> <Gold.Chemscore.DG>
-21.2216

> <Gold.Chemscore.ZeroCoef>
-5.4800

> <Gold.Chemscore.Hbond>
1.9491

> <Gold.Chemscore.Metal>
0.0000

> <Gold.Chemscore.Lipo>
128.8004

> <Gold.Chemscore.Internal_Hbond>
0.0000

> <Gold.Chemscore.DEClash>
0.1926

> <Gold.Chemscore.DEInternal>
1.1776

> <Gold.Chemscore.Rot>
2.2804

> <Gold.Chemscore.Internal.Correction>
   9.000000E+99

> <Gold.Chemscore.Hbonds>
donor molecule, donor type, donor heavy atom, donor atom, acceptor molecule, acceptor atom, score
      P1  H  6896  6909       L1    10  0.99
      P1  H  7989  7998       L1     2  0.94

> <Gold.Chemscore.Hbond.Weighted>
-6.5099

> <Gold.Chemscore.Metal.Weighted>
-0.0000

> <Gold.Chemscore.Lipo.Weighted>
-15.0696

> <Gold.Chemscore.Internal_Hbond.Weighted>
0.0000

> <Gold.Chemscore.DEClash.Weighted>
0.1926

> <Gold.Chemscore.DEInternal.Weighted>
1.1776

> <Gold.Chemscore.Rot.Weighted>
5.8379

> <Gold.Chemscore.Internal.Correction.Weighted>
   9.000000E+99

> <Gold.Protein.RotatedTorsions>
[ 6907 6896 6895 6894 ] final  175.35 input  -60.11 | X-H torsion
[ 7974 7965 7964 7962 ] final  108.17 input  175.53 | X-H torsion
[ 8008 7997 7996 7995 ] final  146.61 input   59.86 | X-H torsion
[ 10167 10162 10161 10158 ] final   94.16 input  -65.29 | X-H torsion
[ 10718 10713 10712 10709 ] final  104.26 input   66.30 | X-H torsion
[ 10763 10752 10751 10750 ] final   50.23 input  -60.55 | X-H torsion
[ 11005 11000 10999 10996 ] final   49.29 input  -57.11 | X-H torsion

> <Gold.Protein.ActiveResidues>
 VAL166  LYS551  ARG553  GLY616  TRP617  ASP618  TYR619  PRO620  LYS621  CYS622 
 ASP623  PHE694  ASN695  SER759  ASP760  ASP761  ALA762  ILE779  LEU786  VAL792 
 PHE793  MET794  SER795  GLU796  ALA797  LYS798  CYS799  TRP800  GLU811  SER814 

> <Gold.Protein.RotatedAtoms>
  151.7377  133.3320  159.3357 H   0  0  0  0  0  0  0  0  0  0  0  0  # atno 6907 bound_to 6896
  150.7586  134.6306  159.6194 H   0  0  0  0  0  0  0  0  0  0  0  0  # atno 6908 bound_to 6896
  152.3551  134.6954  160.0276 H   0  0  0  0  0  0  0  0  0  0  0  0  # atno 6909 bound_to 6896
  145.2842  139.2622  143.3899 H   0  0  0  0  0  0  0  0  0  0  0  0  # atno 7974 bound_to 7965
  156.2850  140.2178  156.5405 H   0  0  0  0  0  0  0  0  0  0  0  0  # atno 8008 bound_to 7997
  154.7374  140.0490  157.0803 H   0  0  0  0  0  0  0  0  0  0  0  0  # atno 8009 bound_to 7997
  155.0275  140.3131  155.4774 H   0  0  0  0  0  0  0  0  0  0  0  0  # atno 8010 bound_to 7997
  139.8111  144.6773  150.9640 H   0  0  0  0  0  0  0  0  0  0  0  0  # atno 10167 bound_to 10162
  157.6746  131.0799  150.5679 H   0  0  0  0  0  0  0  0  0  0  0  0  # atno 10718 bound_to 10713
  152.9785  135.5885  154.4219 H   0  0  0  0  0  0  0  0  0  0  0  0  # atno 10763 bound_to 10752
  154.3842  135.2767  155.2195 H   0  0  0  0  0  0  0  0  0  0  0  0  # atno 10764 bound_to 10752
  154.4096  135.6084  153.5999 H   0  0  0  0  0  0  0  0  0  0  0  0  # atno 10765 bound_to 10752
  140.1117  134.4946  155.8672 H   0  0  0  0  0  0  0  0  0  0  0  0  # atno 11005 bound_to 11000
  146.3206  140.3316  142.8641 LP  0  0  0  0  0  0  0  0  0  0  0  0  # atno 17320 bound_to 7965
  144.9228  140.7887  143.5738 LP  0  0  0  0  0  0  0  0  0  0  0  0  # atno 17321 bound_to 7965
  140.7818  143.4185  151.0879 LP  0  0  0  0  0  0  0  0  0  0  0  0  # atno 17342 bound_to 10162
  139.7851  143.8299  152.3143 LP  0  0  0  0  0  0  0  0  0  0  0  0  # atno 17343 bound_to 10162
  156.5981  130.4347  149.5908 LP  0  0  0  0  0  0  0  0  0  0  0  0  # atno 17370 bound_to 10713
  156.2528  130.6917  151.1661 LP  0  0  0  0  0  0  0  0  0  0  0  0  # atno 17371 bound_to 10713
  141.2131  133.6729  156.6717 LP  0  0  0  0  0  0  0  0  0  0  0  0  # atno 17394 bound_to 11000
  140.3083  134.8107  157.4155 LP  0  0  0  0  0  0  0  0  0  0  0  0  # atno 17395 bound_to 11000

$$$$
