AV-unprocessed.smi:2772|AV-procd|sdf|10669|dock2
  -GOLD-   2272015113D 1   1.00000     0.00000
 Structure written by MMmdl.
 54 56  0  0  0  0  0  0  0  0  2 V2000
  151.7452  145.4474  159.5756 C   0  0  0  0  0  0  0  0  0  0  0  0
  152.2066  144.0298  159.8423 C   0  0  0  0  0  0  0  0  0  0  0  0
  152.4248  143.1266  158.7819 C   0  0  0  0  0  0  0  0  0  0  0  0
  152.8500  141.8207  159.0917 C   0  0  0  0  0  0  0  0  0  0  0  0
  153.0325  141.4584  160.4420 C   0  0  0  0  0  0  0  0  0  0  0  0
  153.4734  140.1377  160.7258 N   0  0  0  0  0  0  0  0  0  0  0  0
  153.9334  139.2111  159.8677 C   0  0  0  0  0  0  0  0  0  0  0  0
  154.0438  139.3595  158.6509 O   0  0  0  0  0  0  0  0  0  0  0  0
  154.2884  138.0890  160.5097 N   0  0  0  0  0  0  0  0  0  0  0  0
  154.8566  136.9040  159.8734 C   0  0  0  0  0  0  0  0  0  0  0  0
  153.9679  136.4498  158.7132 C   0  0  0  0  0  0  0  0  0  0  0  0
  154.4910  135.1409  158.0963 C   0  0  0  0  0  0  0  0  0  0  0  0
  154.5382  134.0497  159.0845 N   0  0  0  0  0  0  0  0  0  0  0  0
  154.9669  132.7758  158.4612 C   0  0  2  0  0  0  0  0  0  0  0  0
  154.1608  132.4077  157.1885 C   0  0  0  0  0  0  0  0  0  0  0  0
  152.7054  132.0301  157.5186 C   0  0  0  0  0  0  0  0  0  0  0  0
  152.6508  130.8984  158.4760 N   0  3  2  0  0  0  0  0  0  0  0  0
  151.2662  130.4570  158.7481 C   0  0  0  0  0  0  0  0  0  0  0  0
  153.4103  131.1769  159.7195 C   0  0  0  0  0  0  0  0  0  0  0  0
  154.8708  131.5483  159.4045 C   0  0  0  0  0  0  0  0  0  0  0  0
  155.4466  134.4574  160.1697 C   0  0  0  0  0  0  0  0  0  0  0  0
  154.9697  135.7423  160.8679 C   0  0  0  0  0  0  0  0  0  0  0  0
  152.7990  142.4480  161.4285 C   0  0  0  0  0  0  0  0  0  0  0  0
  152.3928  143.7032  161.1392 N   0  0  0  0  0  0  0  0  0  0  0  0
  151.6702  145.6449  158.5061 H   0  0  0  0  0  0  0  0  0  0  0  0
  152.4476  146.1627  160.0048 H   0  0  0  0  0  0  0  0  0  0  0  0
  150.7654  145.6169  160.0230 H   0  0  0  0  0  0  0  0  0  0  0  0
  152.2707  143.4236  157.7548 H   0  0  0  0  0  0  0  0  0  0  0  0
  153.0264  141.1066  158.3004 H   0  0  0  0  0  0  0  0  0  0  0  0
  153.5146  139.8957  161.7048 H   0  0  0  0  0  0  0  0  0  0  0  0
  154.1659  138.0539  161.5112 H   0  0  0  0  0  0  0  0  0  0  0  0
  155.8469  137.1434  159.4808 H   0  0  0  0  0  0  0  0  0  0  0  0
  152.9434  136.3029  159.0583 H   0  0  0  0  0  0  0  0  0  0  0  0
  153.9286  137.2260  157.9480 H   0  0  0  0  0  0  0  0  0  0  0  0
  153.8165  134.9030  157.2784 H   0  0  0  0  0  0  0  0  0  0  0  0
  155.4797  135.2954  157.6613 H   0  0  0  0  0  0  0  0  0  0  0  0
  156.0134  132.8969  158.1766 H   0  0  0  0  0  0  0  0  0  0  0  0
  154.1946  133.1752  156.4189 H   0  0  0  0  0  0  0  0  0  0  0  0
  154.6368  131.5456  156.7191 H   0  0  0  0  0  0  0  0  0  0  0  0
  152.1763  132.8903  157.9323 H   0  0  0  0  0  0  0  0  0  0  0  0
  152.1863  131.7511  156.6008 H   0  0  0  0  0  0  0  0  0  0  0  0
  150.6922  131.2469  159.2344 H   0  0  0  0  0  0  0  0  0  0  0  0
  151.2613  129.5809  159.3975 H   0  0  0  0  0  0  0  0  0  0  0  0
  150.7591  130.1866  157.8212 H   0  0  0  0  0  0  0  0  0  0  0  0
  152.9269  131.9813  160.2763 H   0  0  0  0  0  0  0  0  0  0  0  0
  153.3908  130.2936  160.3592 H   0  0  0  0  0  0  0  0  0  0  0  0
  155.3362  130.6967  158.9060 H   0  0  0  0  0  0  0  0  0  0  0  0
  155.4494  131.6610  160.3187 H   0  0  0  0  0  0  0  0  0  0  0  0
  155.4952  133.6976  160.9455 H   0  0  0  0  0  0  0  0  0  0  0  0
  156.4583  134.5889  159.7826 H   0  0  0  0  0  0  0  0  0  0  0  0
  155.6641  135.9993  161.6685 H   0  0  0  0  0  0  0  0  0  0  0  0
  154.0045  135.5601  161.3432 H   0  0  0  0  0  0  0  0  0  0  0  0
  152.9548  142.2570  162.4786 H   0  0  0  0  0  0  0  0  0  0  0  0
  153.1154  130.1222  158.0265 H   0  0  0  0  0  0  0  0  0  0  0  0
  1  2  1  0  0  0  0
  1 25  1  0  0  0  0
  1 26  1  0  0  0  0
  1 27  1  0  0  0  0
  2 24  1  0  0  0  0
  2  3  2  0  0  0  0
  3  4  1  0  0  0  0
  3 28  1  0  0  0  0
  4  5  2  0  0  0  0
  4 29  1  0  0  0  0
  5  6  1  0  0  0  0
  5 23  1  0  0  0  0
  6  7  1  0  0  0  0
  6 30  1  0  0  0  0
  7  8  2  0  0  0  0
  7  9  1  0  0  0  0
  9 10  1  0  0  0  0
  9 31  1  0  0  0  0
 10 22  1  0  0  0  0
 10 11  1  0  0  0  0
 10 32  1  0  0  0  0
 11 12  1  0  0  0  0
 11 33  1  0  0  0  0
 11 34  1  0  0  0  0
 12 13  1  0  0  0  0
 12 35  1  0  0  0  0
 12 36  1  0  0  0  0
 13 14  1  0  0  0  0
 13 21  1  0  0  0  0
 14 20  1  0  0  0  0
 14 15  1  0  0  0  0
 14 37  1  0  0  0  0
 15 16  1  0  0  0  0
 15 38  1  0  0  0  0
 15 39  1  0  0  0  0
 16 17  1  0  0  0  0
 16 40  1  0  0  0  0
 16 41  1  0  0  0  0
 17 18  1  0  0  0  0
 17 19  1  0  0  0  0
 17 54  1  0  0  0  0
 18 42  1  0  0  0  0
 18 43  1  0  0  0  0
 18 44  1  0  0  0  0
 19 20  1  0  0  0  0
 19 45  1  0  0  0  0
 19 46  1  0  0  0  0
 20 47  1  0  0  0  0
 20 48  1  0  0  0  0
 21 22  1  0  0  0  0
 21 49  1  0  0  0  0
 21 50  1  0  0  0  0
 22 51  1  0  0  0  0
 22 52  1  0  0  0  0
 23 24  2  0  0  0  0
 23 53  1  0  0  0  0
M  CHG  1  17   1
M  END
> <s_m_source_file>
AV-unprocessed.smi

> <i_m_source_file_index>
2772

> <i_lp_mmshare_version>
43012

> <i_f3d_flags>
0

> <s_epik_input>
W0NIM11jMVtjSF1bY0hdYyhbY0hdbjEpW05IXUMoPU8pW05IXVtDSF0yW0NIMl1bQ0gyXU4oW0NIMl1bQ0gyXTIpW0NIXTNbQ0gyXVtDSDJdTihbQ0gzXSlbQ0gyXVtDSDJdMw==

> <s_epik_cmdline>
J2VwaWtfcHl0aG9uJywgJy1waCcsICc3LjAnLCAnLXRuJywgJzgnLCAnLW1hJywgJzIwMCcsICctbWV0YWxfYmluZGluZycsICctaW1hZScsICc8aW5maWxlLm1hZT4nLCAnLW9tYWUnLCAnPG91dGZpbGUubWFlPic=

> <r_epik_Ionization_Penalty>
1.02952

> <r_epik_Ionization_Penalty_Charging>
0.000974969

> <r_epik_Ionization_Penalty_Neutral>
1.02854

> <r_epik_State_Penalty>
1.11259

> <r_epik_Charging_Adjusted_Penalty>
1.11356

> <i_epik_Tot_Q>
1

> <i_epik_Tot_abs_Q>
1

> <r_epik_Metal_State_Penalty>
1.1091

> <b_epik_Metal_Only>
0

> <s_lp_Force_Field>
OPLS_2005

> <r_lp_Energy>
36.1162

> <b_lp_Chiralities_Consistent>
1

> <s_lp_Variant>
AV-unprocessed.smi:2772-6

> <Gold.Version>
5.8.1

> <Gold.Id.Protein>
6NUR|6NUR_protein|mol2

> <Gold.PLP.Fitness>
40.8822

> <Gold.PLP.PLP>
-35.1667

> <Gold.PLP.part.hbond>
-2.0000

> <Gold.PLP.part.metal>
0.0000

> <Gold.PLP.part.buried>
-5.3996

> <Gold.PLP.part.nonpolar>
-29.0698

> <Gold.PLP.part.repulsive>
0.2598

> <Gold.PLP.ligand.clash>
0.0000

> <Gold.PLP.ligand.torsion>
0.1443

> <Gold.PLP.Chemscore.Hbond>
2.0000

> <Gold.PLP.Chemscore.CHOScore>
0.0000

> <Gold.PLP.Chemscore.Metal>
0.0000

> <Gold.Chemscore.Hbonds>
donor molecule, donor type, donor heavy atom, donor atom, acceptor molecule, acceptor atom, score
      P1  H  6896  6907       L1    13  0.93
      P1  H  7997  8010       L1     8  1.00

> <Gold.PLP.Chemscore.Internal.Correction>
0.0042

> <Gold.Rescore>
     Score         DG    S(hbond)    S(metal)    S(lipo)     H(rot)  DE(clash)    DE(int)     intcor
     16.08     -18.93       1.29        0.00     104.40       1.20       0.02       2.83       ----

> <Gold.Chemscore.Fitness>
16.0784

> <Gold.Chemscore.DG>
-18.9289

> <Gold.Chemscore.ZeroCoef>
-5.4800

> <Gold.Chemscore.Hbond>
1.2873

> <Gold.Chemscore.Metal>
0.0000

> <Gold.Chemscore.Lipo>
104.3987

> <Gold.Chemscore.Internal_Hbond>
0.0000

> <Gold.Chemscore.DEClash>
0.0203

> <Gold.Chemscore.DEInternal>
2.8301

> <Gold.Chemscore.Rot>
1.1974

> <Gold.Chemscore.Internal.Correction>
   9.000000E+99

> <Gold.Chemscore.Hbonds>
donor molecule, donor type, donor heavy atom, donor atom, acceptor molecule, acceptor atom, score
      P1  H  6896  6907       L1    13  0.17
      P1  H  7997  8010       L1     8  1.00

> <Gold.Chemscore.Hbond.Weighted>
-4.2994

> <Gold.Chemscore.Metal.Weighted>
-0.0000

> <Gold.Chemscore.Lipo.Weighted>
-12.2147

> <Gold.Chemscore.Internal_Hbond.Weighted>
0.0000

> <Gold.Chemscore.DEClash.Weighted>
0.0203

> <Gold.Chemscore.DEInternal.Weighted>
2.8301

> <Gold.Chemscore.Rot.Weighted>
3.0652

> <Gold.Chemscore.Internal.Correction.Weighted>
   9.000000E+99

> <Gold.Protein.RotatedTorsions>
[ 6907 6896 6895 6894 ] final   97.42 input  -60.11 | X-H torsion
[ 7974 7965 7964 7962 ] final    7.51 input  175.53 | X-H torsion
[ 8008 7997 7996 7995 ] final   25.23 input   59.86 | X-H torsion
[ 10167 10162 10161 10158 ] final -141.81 input  -65.29 | X-H torsion
[ 10718 10713 10712 10709 ] final  118.71 input   66.30 | X-H torsion
[ 10763 10752 10751 10750 ] final   22.30 input  -60.55 | X-H torsion
[ 11005 11000 10999 10996 ] final   -6.55 input  -57.11 | X-H torsion

> <Gold.Protein.ActiveResidues>
 VAL166  LYS551  ARG553  GLY616  TRP617  ASP618  TYR619  PRO620  LYS621  CYS622 
 ASP623  PHE694  ASN695  SER759  ASP760  ASP761  ALA762  ILE779  LEU786  VAL792 
 PHE793  MET794  SER795  GLU796  ALA797  LYS798  CYS799  TRP800  GLU811  SER814 

> <Gold.Protein.RotatedAtoms>
  152.5423  134.0736  159.8204 H   0  0  0  0  0  0  0  0  0  0  0  0  # atno 6907 bound_to 6896
  151.0847  133.5355  159.2626 H   0  0  0  0  0  0  0  0  0  0  0  0  # atno 6908 bound_to 6896
  151.2169  135.0512  159.8988 H   0  0  0  0  0  0  0  0  0  0  0  0  # atno 6909 bound_to 6896
  146.2426  140.0073  142.8410 H   0  0  0  0  0  0  0  0  0  0  0  0  # atno 7974 bound_to 7965
  155.0086  140.3134  155.4839 H   0  0  0  0  0  0  0  0  0  0  0  0  # atno 8008 bound_to 7997
  156.2913  140.2219  156.5140 H   0  0  0  0  0  0  0  0  0  0  0  0  # atno 8009 bound_to 7997
  154.7555  140.0463  157.0917 H   0  0  0  0  0  0  0  0  0  0  0  0  # atno 8010 bound_to 7997
  139.8148  143.7653  152.2664 H   0  0  0  0  0  0  0  0  0  0  0  0  # atno 10167 bound_to 10162
  157.6011  131.1051  150.7795 H   0  0  0  0  0  0  0  0  0  0  0  0  # atno 10718 bound_to 10713
  153.0926  135.6651  153.9824 H   0  0  0  0  0  0  0  0  0  0  0  0  # atno 10763 bound_to 10752
  153.9416  135.2993  155.3444 H   0  0  0  0  0  0  0  0  0  0  0  0  # atno 10764 bound_to 10752
  154.7342  135.5109  153.9088 H   0  0  0  0  0  0  0  0  0  0  0  0  # atno 10765 bound_to 10752
  140.7032  133.8971  155.8698 H   0  0  0  0  0  0  0  0  0  0  0  0  # atno 11005 bound_to 11000
  145.1360  140.9545  143.4516 LP  0  0  0  0  0  0  0  0  0  0  0  0  # atno 17320 bound_to 7965
  145.0341  139.3315  143.6009 LP  0  0  0  0  0  0  0  0  0  0  0  0  # atno 17321 bound_to 7965
  139.7813  144.7443  151.0084 LP  0  0  0  0  0  0  0  0  0  0  0  0  # atno 17342 bound_to 10162
  140.7816  143.4539  151.0374 LP  0  0  0  0  0  0  0  0  0  0  0  0  # atno 17343 bound_to 10162
  156.8194  130.4979  149.5345 LP  0  0  0  0  0  0  0  0  0  0  0  0  # atno 17370 bound_to 10713
  156.1085  130.6022  151.0009 LP  0  0  0  0  0  0  0  0  0  0  0  0  # atno 17371 bound_to 10713
  141.0146  134.0973  157.4185 LP  0  0  0  0  0  0  0  0  0  0  0  0  # atno 17394 bound_to 11000
  139.8891  135.0102  156.6659 LP  0  0  0  0  0  0  0  0  0  0  0  0  # atno 17395 bound_to 11000

$$$$
