AV-unprocessed.smi:53|AV-procd|sdf|524|dock5
  -GOLD-   2262016393D 1   1.00000     0.00000
 Structure written by MMmdl.
 30 31  0  0  0  0  0  0  0  0  1 V2000
  151.8661  143.8231  159.0177 N   0  0  0  0  0  0  0  0  0  0  0  0
  151.6726  142.6228  158.4536 C   0  0  0  0  0  0  0  0  0  0  0  0
  150.5393  142.3982  157.5849 C   0  0  0  0  0  0  0  0  0  0  0  0
  150.4124  141.1612  157.0567 C   0  0  0  0  0  0  0  0  0  0  0  0
  151.3158  140.1437  157.3286 N   0  0  0  0  0  0  0  0  0  0  0  0
  151.1426  138.7697  156.7141 C   0  0  1  0  0  0  0  0  0  0  0  0
  149.7856  138.5685  156.4533 O   0  0  0  0  0  0  0  0  0  0  0  0
  149.6352  137.9419  155.1855 C   0  0  1  0  0  0  0  0  0  0  0  0
  148.2114  138.1440  154.6373 C   0  0  0  0  0  0  0  0  0  0  0  0
  147.6803  136.9160  154.1867 O   0  0  0  0  0  0  0  0  0  0  0  0
  150.7936  138.5074  154.3508 C   0  0  1  0  0  0  0  0  0  0  0  0
  150.4558  139.7666  153.7927 O   0  0  0  0  0  0  0  0  0  0  0  0
  151.9123  138.6018  155.3845 C   0  0  1  0  0  0  0  0  0  0  0  0
  152.8644  139.6093  155.0881 O   0  0  0  0  0  0  0  0  0  0  0  0
  152.4227  140.3971  158.1750 C   0  0  0  0  0  0  0  0  0  0  0  0
  153.2641  139.5348  158.4252 O   0  0  0  0  0  0  0  0  0  0  0  0
  152.5335  141.6553  158.7037 N   0  0  0  0  0  0  0  0  0  0  0  0
  151.4434  138.0402  157.4676 H   0  0  0  0  0  0  0  0  0  0  0  0
  149.8082  136.8751  155.3402 H   0  0  0  0  0  0  0  0  0  0  0  0
  151.0624  137.8388  153.5322 H   0  0  0  0  0  0  0  0  0  0  0  0
  152.4313  137.6436  155.4337 H   0  0  0  0  0  0  0  0  0  0  0  0
  152.6594  143.9781  159.6230 H   0  0  0  0  0  0  0  0  0  0  0  0
  151.2141  144.5724  158.8355 H   0  0  0  0  0  0  0  0  0  0  0  0
  149.8100  143.1597  157.3486 H   0  0  0  0  0  0  0  0  0  0  0  0
  149.5730  140.9757  156.4031 H   0  0  0  0  0  0  0  0  0  0  0  0
  147.5634  138.5289  155.4252 H   0  0  0  0  0  0  0  0  0  0  0  0
  148.1914  138.8740  153.8279 H   0  0  0  0  0  0  0  0  0  0  0  0
  148.0738  136.7057  153.3535 H   0  0  0  0  0  0  0  0  0  0  0  0
  150.1463  139.6273  152.9105 H   0  0  0  0  0  0  0  0  0  0  0  0
  152.6028  140.0336  154.2848 H   0  0  0  0  0  0  0  0  0  0  0  0
  1  2  1  0  0  0  0
  1 22  1  0  0  0  0
  1 23  1  0  0  0  0
  2 17  2  0  0  0  0
  2  3  1  0  0  0  0
  3  4  2  0  0  0  0
  3 24  1  0  0  0  0
  4  5  1  0  0  0  0
  4 25  1  0  0  0  0
  5  6  1  0  0  0  0
  5 15  1  0  0  0  0
  6 18  1  0  0  0  0
  6 13  1  0  0  0  0
  6  7  1  0  0  0  0
  7  8  1  0  0  0  0
  8 19  1  0  0  0  0
  8  9  1  0  0  0  0
  8 11  1  0  0  0  0
  9 10  1  0  0  0  0
  9 26  1  0  0  0  0
  9 27  1  0  0  0  0
 10 28  1  0  0  0  0
 11 20  1  0  0  0  0
 11 12  1  0  0  0  0
 11 13  1  0  0  0  0
 12 29  1  0  0  0  0
 13 21  1  0  0  0  0
 13 14  1  0  0  0  0
 14 30  1  0  0  0  0
 15 16  2  0  0  0  0
 15 17  1  0  0  0  0
M  END
> <s_m_source_file>
AV-unprocessed.smi

> <i_m_source_file_index>
53

> <i_lp_mmshare_version>
43012

> <i_f3d_flags>
0

> <s_epik_input>
W05IMl1jMVtjSF1bY0hdbihjKD1PKW4xKVtDQEBIXTJPW0NASF0oW0NIMl1bT0hdKVtDQEBIXShbT0hdKVtDQEBIXTJbT0hd

> <s_epik_cmdline>
J2VwaWtfcHl0aG9uJywgJy1waCcsICc3LjAnLCAnLXRuJywgJzgnLCAnLW1hJywgJzIwMCcsICctbWV0YWxfYmluZGluZycsICctaW1hZScsICc8aW5maWxlLm1hZT4nLCAnLW9tYWUnLCAnPG91dGZpbGUubWFlPic=

> <r_lp_tautomer_probability>
0.99996

> <r_epik_Ionization_Penalty>
0.00069087

> <r_epik_Ionization_Penalty_Charging>
2.61959e-08

> <r_epik_Ionization_Penalty_Neutral>
0.000690844

> <r_epik_State_Penalty>
1.15523e-05

> <r_epik_Charging_Adjusted_Penalty>
1.15785e-05

> <i_epik_Tot_Q>
0

> <i_epik_Tot_abs_Q>
0

> <r_epik_Metal_State_Penalty>
-0

> <b_epik_Metal_Only>
0

> <s_epik_Chemistry_Notes>
This compound contains an acetal/aminal-like group ( X-CH(R)-Y where X, Y are N, S, or O) that may be acid/base labile, releasing an aldehyde.

> <s_lp_Force_Field>
OPLS_2005

> <r_lp_Energy>
39.3068

> <b_lp_Chiralities_Consistent>
1

> <s_lp_Variant>
AV-unprocessed.smi:53-12

> <Gold.Version>
5.8.1

> <Gold.Id.Protein>
6NUR|6NUR_protein|mol2

> <Gold.PLP.Fitness>
35.4526

> <Gold.PLP.PLP>
-23.9196

> <Gold.PLP.part.hbond>
-6.0000

> <Gold.PLP.part.metal>
0.0000

> <Gold.PLP.part.buried>
-2.8355

> <Gold.PLP.part.nonpolar>
-14.3668

> <Gold.PLP.part.repulsive>
0.0312

> <Gold.PLP.ligand.clash>
0.0000

> <Gold.PLP.ligand.torsion>
1.4135

> <Gold.PLP.Chemscore.Hbond>
4.7840

> <Gold.PLP.Chemscore.CHOScore>
0.0000

> <Gold.PLP.Chemscore.Metal>
0.0000

> <Gold.Chemscore.Hbonds>
donor molecule, donor type, donor heavy atom, donor atom, acceptor molecule, acceptor atom, score
      L1  H    10    28       P1  7948  1.00
      L1  H    12    29       P1  7957  1.00
      P1  H  7989  7998       L1    12  0.89
      P1  H  7997  8008       L1    16  0.66
      P1  H  7997  8009       L1    14  0.93

> <Gold.PLP.Chemscore.Internal.Correction>
0.0081

> <Gold.Rescore>
     Score         DG    S(hbond)    S(metal)    S(lipo)     H(rot)  DE(clash)    DE(int)     intcor
     12.07     -14.22       4.20        0.00      36.13       3.71       0.72       1.44       ----

> <Gold.Chemscore.Fitness>
12.0676

> <Gold.Chemscore.DG>
-14.2245

> <Gold.Chemscore.ZeroCoef>
-5.4800

> <Gold.Chemscore.Hbond>
4.1958

> <Gold.Chemscore.Metal>
0.0000

> <Gold.Chemscore.Lipo>
36.1269

> <Gold.Chemscore.Internal_Hbond>
0.0000

> <Gold.Chemscore.DEClash>
0.7182

> <Gold.Chemscore.DEInternal>
1.4386

> <Gold.Chemscore.Rot>
3.7095

> <Gold.Chemscore.Internal.Correction>
   9.000000E+99

> <Gold.Chemscore.Hbonds>
donor molecule, donor type, donor heavy atom, donor atom, acceptor molecule, acceptor atom, score
      L1  H    10    28       P1  7948  1.00
      L1  H    12    29       P1  7957  0.98
      P1  H  7989  7998       L1    12  0.16
      P1  H  7997  8008       L1    16  0.35
      P1  H  7997  8009       L1    14  0.65

> <Gold.Chemscore.Hbond.Weighted>
-14.0140

> <Gold.Chemscore.Metal.Weighted>
-0.0000

> <Gold.Chemscore.Lipo.Weighted>
-4.2268

> <Gold.Chemscore.Internal_Hbond.Weighted>
0.0000

> <Gold.Chemscore.DEClash.Weighted>
0.7182

> <Gold.Chemscore.DEInternal.Weighted>
1.4386

> <Gold.Chemscore.Rot.Weighted>
9.4964

> <Gold.Chemscore.Internal.Correction.Weighted>
   9.000000E+99

> <Gold.Protein.RotatedTorsions>
[ 6907 6896 6895 6894 ] final   47.98 input  -60.11 | X-H torsion
[ 7974 7965 7964 7962 ] final   14.20 input  175.53 | X-H torsion
[ 8008 7997 7996 7995 ] final -114.47 input   59.86 | X-H torsion
[ 10167 10162 10161 10158 ] final  -30.09 input  -65.29 | X-H torsion
[ 10718 10713 10712 10709 ] final  169.19 input   66.30 | X-H torsion
[ 10763 10752 10751 10750 ] final  -84.41 input  -60.55 | X-H torsion
[ 11005 11000 10999 10996 ] final -147.26 input  -57.11 | X-H torsion

> <Gold.Protein.ActiveResidues>
 VAL166  LYS551  ARG553  GLY616  TRP617  ASP618  TYR619  PRO620  LYS621  CYS622 
 ASP623  PHE694  ASN695  SER759  ASP760  ASP761  ALA762  ILE779  LEU786  VAL792 
 PHE793  MET794  SER795  GLU796  ALA797  LYS798  CYS799  TRP800  GLU811  SER814 

> <Gold.Protein.RotatedAtoms>
  152.2743  134.7898  160.0408 H   0  0  0  0  0  0  0  0  0  0  0  0  # atno 6907 bound_to 6896
  151.8500  133.3433  159.3678 H   0  0  0  0  0  0  0  0  0  0  0  0  # atno 6908 bound_to 6896
  150.7164  134.5236  159.5710 H   0  0  0  0  0  0  0  0  0  0  0  0  # atno 6909 bound_to 6896
  146.2311  139.9076  142.8529 H   0  0  0  0  0  0  0  0  0  0  0  0  # atno 7974 bound_to 7965
  155.0368  140.0392  157.2494 H   0  0  0  0  0  0  0  0  0  0  0  0  # atno 8008 bound_to 7997
  154.7250  140.2719  155.6483 H   0  0  0  0  0  0  0  0  0  0  0  0  # atno 8009 bound_to 7997
  156.2827  140.2695  156.1933 H   0  0  0  0  0  0  0  0  0  0  0  0  # atno 8010 bound_to 7997
  140.7253  143.3876  151.1487 H   0  0  0  0  0  0  0  0  0  0  0  0  # atno 10167 bound_to 10162
  157.0263  131.0246  151.2759 H   0  0  0  0  0  0  0  0  0  0  0  0  # atno 10718 bound_to 10713
  154.5991  135.5522  153.7356 H   0  0  0  0  0  0  0  0  0  0  0  0  # atno 10763 bound_to 10752
  153.0147  135.6362  154.1740 H   0  0  0  0  0  0  0  0  0  0  0  0  # atno 10764 bound_to 10752
  154.1680  135.2893  155.3069 H   0  0  0  0  0  0  0  0  0  0  0  0  # atno 10765 bound_to 10752
  140.7735  134.3161  157.5067 H   0  0  0  0  0  0  0  0  0  0  0  0  # atno 11005 bound_to 11000
  145.2261  140.9954  143.4017 LP  0  0  0  0  0  0  0  0  0  0  0  0  # atno 17320 bound_to 7965
  144.9569  139.4022  143.6375 LP  0  0  0  0  0  0  0  0  0  0  0  0  # atno 17321 bound_to 7965
  139.7476  143.8828  152.3068 LP  0  0  0  0  0  0  0  0  0  0  0  0  # atno 17342 bound_to 10162
  139.8670  144.7088  150.9032 LP  0  0  0  0  0  0  0  0  0  0  0  0  # atno 17343 bound_to 10162
  157.5212  130.7999  149.7811 LP  0  0  0  0  0  0  0  0  0  0  0  0  # atno 17370 bound_to 10713
  156.0085  130.3844  150.2347 LP  0  0  0  0  0  0  0  0  0  0  0  0  # atno 17371 bound_to 10713
  139.8752  134.9275  156.3427 LP  0  0  0  0  0  0  0  0  0  0  0  0  # atno 17394 bound_to 11000
  140.9551  133.7425  156.0324 LP  0  0  0  0  0  0  0  0  0  0  0  0  # atno 17395 bound_to 11000

$$$$
