AV-unprocessed.smi:66|AV-procd|sdf|625|dock1
  -GOLD-   2262016513D 1   1.00000     0.00000
 Structure written by MMmdl.
 27 29  0  0  0  0  0  0  0  0  3 V2000
  152.6547  139.4521  155.3180 O   0  0  0  0  0  0  0  0  0  0  0  0
  152.3026  138.3860  155.8686 C   0  0  0  0  0  0  0  0  0  0  0  0
  152.1048  137.3001  155.2785 O   0  5  0  0  0  0  0  0  0  0  0  0
  152.1195  138.4219  157.3951 C   0  0  2  0  0  0  0  0  0  0  0  0
  151.6390  137.0729  157.9567 C   0  0  0  0  0  0  0  0  0  0  0  0
  150.1248  137.2455  158.0636 C   0  0  1  0  0  0  0  0  0  0  0  0
  149.5487  136.3811  159.0205 O   0  0  0  0  0  0  0  0  0  0  0  0
  149.9706  138.7218  158.4319 C   0  0  0  0  0  0  0  0  0  0  0  0
  151.0953  139.3926  157.7927 N   0  0  0  0  0  0  0  0  0  0  0  0
  151.4019  140.7585  158.0084 C   0  0  0  0  0  0  0  0  0  0  0  0
  150.8390  141.6615  157.1640 N   0  0  0  0  0  0  0  0  0  0  0  0
  151.1093  142.9574  157.3472 C   0  0  0  0  0  0  0  0  0  0  0  0
  151.8935  143.4885  158.2877 N   0  0  0  0  0  0  0  0  0  0  0  0
  152.4632  142.6115  159.1382 C   0  0  0  0  0  0  0  0  0  0  0  0
  153.2764  142.7840  160.1676 N   0  5  0  0  0  0  0  0  0  0  0  0
  153.5450  141.5570  160.6791 C   0  0  0  0  0  0  0  0  0  0  0  0
  152.9319  140.5544  160.0188 N   0  0  0  0  0  0  0  0  0  0  0  0
  152.2525  141.2340  159.0461 C   0  0  0  0  0  0  0  0  0  0  0  0
  153.0778  138.6675  157.8548 H   0  0  0  0  0  0  0  0  0  0  0  0
  151.9223  136.2145  157.3457 H   0  0  0  0  0  0  0  0  0  0  0  0
  152.0703  136.9263  158.9480 H   0  0  0  0  0  0  0  0  0  0  0  0
  149.6654  137.0601  157.0918 H   0  0  0  0  0  0  0  0  0  0  0  0
  148.6649  136.6703  159.1864 H   0  0  0  0  0  0  0  0  0  0  0  0
  149.0131  139.1057  158.0799 H   0  0  0  0  0  0  0  0  0  0  0  0
  150.0338  138.8671  159.5117 H   0  0  0  0  0  0  0  0  0  0  0  0
  150.6460  143.6484  156.6586 H   0  0  0  0  0  0  0  0  0  0  0  0
  154.1981  141.4625  161.5377 H   0  0  0  0  0  0  0  0  0  0  0  0
  1  2  2  0  0  0  0
  2  3  1  0  0  0  0
  2  4  1  0  0  0  0
  4  5  1  0  0  0  0
  4 19  1  0  0  0  0
  4  9  1  0  0  0  0
  5  6  1  0  0  0  0
  5 20  1  0  0  0  0
  5 21  1  0  0  0  0
  6  7  1  0  0  0  0
  6  8  1  0  0  0  0
  6 22  1  0  0  0  0
  7 23  1  0  0  0  0
  8 24  1  0  0  0  0
  8 25  1  0  0  0  0
  8  9  1  0  0  0  0
  9 10  1  0  0  0  0
 10 11  1  0  0  0  0
 10 18  2  0  0  0  0
 11 12  2  0  0  0  0
 12 26  1  0  0  0  0
 12 13  1  0  0  0  0
 13 14  2  0  0  0  0
 14 15  1  0  0  0  0
 14 18  1  0  0  0  0
 15 16  1  0  0  0  0
 16 17  2  0  0  0  0
 16 27  1  0  0  0  0
 17 18  1  0  0  0  0
M  CHG  1   3  -1
M  CHG  1  15  -1
M  END
> <s_m_source_file>
AV-unprocessed.smi

> <i_m_source_file_index>
66

> <i_lp_mmshare_version>
43012

> <i_f3d_flags>
0

> <s_epik_input>
Tz1DKFtPSF0pW0NAQEhdMVtDSDJdW0NAQEhdKFtPSF0pW0NIMl1OMWMobltjSF1uMiljKGMyMylbbkhdW2NIXW4z

> <s_epik_cmdline>
J2VwaWtfcHl0aG9uJywgJy1waCcsICc3LjAnLCAnLXRuJywgJzgnLCAnLW1hJywgJzIwMCcsICctbWV0YWxfYmluZGluZycsICctaW1hZScsICc8aW5maWxlLm1hZT4nLCAnLW9tYWUnLCAnPG91dGZpbGUubWFlPic=

> <r_lp_tautomer_probability>
0.955585

> <r_epik_Ionization_Penalty>
7.65809

> <r_epik_Ionization_Penalty_Charging>
3.4974

> <r_epik_Ionization_Penalty_Neutral>
4.16069

> <r_epik_State_Penalty>
3.51624

> <r_epik_Charging_Adjusted_Penalty>
7.01364

> <i_epik_Tot_Q>
-2

> <i_epik_Tot_abs_Q>
2

> <r_epik_Metal_State_Penalty>
0.522662

> <b_epik_Metal_Only>
1

> <s_lp_Force_Field>
OPLS_2005

> <r_lp_Energy>
43.8287

> <b_lp_Chiralities_Consistent>
1

> <s_lp_Variant>
AV-unprocessed.smi:66-9

> <Gold.Version>
5.8.1

> <Gold.Id.Protein>
6NUR|6NUR_protein|mol2

> <Gold.PLP.Fitness>
42.4241

> <Gold.PLP.PLP>
-28.4054

> <Gold.PLP.part.hbond>
-3.0000

> <Gold.PLP.part.metal>
0.0000

> <Gold.PLP.part.buried>
-6.9526

> <Gold.PLP.part.nonpolar>
-19.6039

> <Gold.PLP.part.repulsive>
0.1413

> <Gold.PLP.ligand.clash>
0.0000

> <Gold.PLP.ligand.torsion>
1.3728

> <Gold.PLP.Chemscore.Hbond>
4.5360

> <Gold.PLP.Chemscore.CHOScore>
1.0000

> <Gold.PLP.Chemscore.Metal>
0.0000

> <Gold.Chemscore.Hbonds>
donor molecule, donor type, donor heavy atom, donor atom, acceptor molecule, acceptor atom, score
      P1  H  6896  6909       L1     7  0.80
      P1  H  7997  8010       L1     1  2.00
      P1  H 10752 10765       L1     3  1.66
      L1  C    12    26       P1  8028  1.00

> <Gold.PLP.Chemscore.Internal.Correction>
0.1562

> <Gold.Rescore>
     Score         DG    S(hbond)    S(metal)    S(lipo)     H(rot)  DE(clash)    DE(int)     intcor
     11.88     -13.04       2.77        0.00      24.25       1.78       0.00       1.16       ----

> <Gold.Chemscore.Fitness>
11.8757

> <Gold.Chemscore.DG>
-13.0402

> <Gold.Chemscore.ZeroCoef>
-5.4800

> <Gold.Chemscore.Hbond>
2.7749

> <Gold.Chemscore.Metal>
0.0000

> <Gold.Chemscore.Lipo>
24.2477

> <Gold.Chemscore.Internal_Hbond>
0.0000

> <Gold.Chemscore.DEClash>
0.0004

> <Gold.Chemscore.DEInternal>
1.1641

> <Gold.Chemscore.Rot>
1.7754

> <Gold.Chemscore.Internal.Correction>
   9.000000E+99

> <Gold.Chemscore.Hbonds>
donor molecule, donor type, donor heavy atom, donor atom, acceptor molecule, acceptor atom, score
      P1  H  6896  6909       L1     7  0.73
      P1  H  7989  7998       L1     1  0.01
      P1  H  7997  8010       L1     1  0.87
      P1  H 10752 10765       L1     3  0.78

> <Gold.Chemscore.Hbond.Weighted>
-9.2683

> <Gold.Chemscore.Metal.Weighted>
-0.0000

> <Gold.Chemscore.Lipo.Weighted>
-2.8370

> <Gold.Chemscore.Internal_Hbond.Weighted>
0.0000

> <Gold.Chemscore.DEClash.Weighted>
0.0004

> <Gold.Chemscore.DEInternal.Weighted>
1.1641

> <Gold.Chemscore.Rot.Weighted>
4.5451

> <Gold.Chemscore.Internal.Correction.Weighted>
   9.000000E+99

> <Gold.Protein.RotatedTorsions>
[ 6907 6896 6895 6894 ] final   62.25 input  -60.11 | X-H torsion
[ 7974 7965 7964 7962 ] final  -67.56 input  175.53 | X-H torsion
[ 8008 7997 7996 7995 ] final  103.77 input   59.86 | X-H torsion
[ 10167 10162 10161 10158 ] final   17.88 input  -65.29 | X-H torsion
[ 10718 10713 10712 10709 ] final -140.59 input   66.30 | X-H torsion
[ 10763 10752 10751 10750 ] final -166.68 input  -60.55 | X-H torsion
[ 11005 11000 10999 10996 ] final -111.46 input  -57.11 | X-H torsion

> <Gold.Protein.ActiveResidues>
 VAL166  LYS551  ARG553  GLY616  TRP617  ASP618  TYR619  PRO620  LYS621  CYS622 
 ASP623  PHE694  ASN695  SER759  ASP760  ASP761  ALA762  ILE779  LEU786  VAL792 
 PHE793  MET794  SER795  GLU796  ALA797  LYS798  CYS799  TRP800  GLU811  SER814 

> <Gold.Protein.RotatedAtoms>
  152.4156  134.6047  160.0009 H   0  0  0  0  0  0  0  0  0  0  0  0  # atno 6907 bound_to 6896
  151.6211  133.3333  159.3096 H   0  0  0  0  0  0  0  0  0  0  0  0  # atno 6908 bound_to 6896
  150.8045  134.7200  159.6697 H   0  0  0  0  0  0  0  0  0  0  0  0  # atno 6909 bound_to 6896
  145.7276  140.9011  143.0597 H   0  0  0  0  0  0  0  0  0  0  0  0  # atno 7974 bound_to 7965
  156.1514  140.3159  155.8654 H   0  0  0  0  0  0  0  0  0  0  0  0  # atno 8008 bound_to 7997
  155.3964  140.0497  157.3055 H   0  0  0  0  0  0  0  0  0  0  0  0  # atno 8009 bound_to 7997
  154.5062  140.2147  155.9258 H   0  0  0  0  0  0  0  0  0  0  0  0  # atno 8010 bound_to 7997
  140.5694  143.9190  150.6701 H   0  0  0  0  0  0  0  0  0  0  0  0  # atno 10167 bound_to 10162
  156.3241  130.7550  151.1654 H   0  0  0  0  0  0  0  0  0  0  0  0  # atno 10718 bound_to 10713
  154.6809  135.2954  154.9615 H   0  0  0  0  0  0  0  0  0  0  0  0  # atno 10763 bound_to 10752
  154.0610  135.6631  153.4816 H   0  0  0  0  0  0  0  0  0  0  0  0  # atno 10764 bound_to 10752
  153.0546  135.5152  154.7851 H   0  0  0  0  0  0  0  0  0  0  0  0  # atno 10765 bound_to 10752
  141.0733  133.9344  157.2442 H   0  0  0  0  0  0  0  0  0  0  0  0  # atno 11005 bound_to 11000
  144.6901  139.9288  143.7471 LP  0  0  0  0  0  0  0  0  0  0  0  0  # atno 17320 bound_to 7965
  146.0567  139.3563  143.0606 LP  0  0  0  0  0  0  0  0  0  0  0  0  # atno 17321 bound_to 7965
  140.2661  143.3489  152.1279 LP  0  0  0  0  0  0  0  0  0  0  0  0  # atno 17342 bound_to 10162
  139.5109  144.6892  151.5804 LP  0  0  0  0  0  0  0  0  0  0  0  0  # atno 17343 bound_to 10162
  157.7417  131.0499  150.5074 LP  0  0  0  0  0  0  0  0  0  0  0  0  # atno 17370 bound_to 10713
  156.5230  130.4166  149.6240 LP  0  0  0  0  0  0  0  0  0  0  0  0  # atno 17371 bound_to 10713
  139.9545  135.0168  156.9089 LP  0  0  0  0  0  0  0  0  0  0  0  0  # atno 17394 bound_to 11000
  140.5628  134.0518  155.7404 LP  0  0  0  0  0  0  0  0  0  0  0  0  # atno 17395 bound_to 11000

$$$$
