AV-unprocessed.smi:49|AV-procd|sdf|478|dock1
  -GOLD-   2262016343D 1   1.00000     0.00000
 Structure written by MMmdl.
 27 28  0  0  0  0  0  0  0  0  1 V2000
  153.5674  141.9920  160.5540 C   0  0  0  0  0  0  0  0  0  0  0  0
  153.1107  143.2453  159.7988 C   0  0  0  0  0  0  0  0  0  0  0  0
  152.0552  142.9433  158.7872 C   0  0  0  0  0  0  0  0  0  0  0  0
  151.6149  141.6736  158.5370 N   0  0  0  0  0  0  0  0  0  0  0  0
  150.7357  141.9144  157.5679 C   0  0  0  0  0  0  0  0  0  0  0  0
  149.9069  140.8848  156.8626 C   0  0  1  0  0  0  0  0  0  0  0  0
  148.9382  141.5147  155.8437 C   0  0  0  0  0  0  0  0  0  0  0  0
  149.5047  141.1048  154.4881 C   0  0  2  0  0  0  0  0  0  0  0  0
  148.5170  141.0151  153.4833 O   0  0  0  0  0  0  0  0  0  0  0  0
  150.1410  139.7564  154.7986 C   0  0  0  0  0  0  0  0  0  0  0  0
  150.7325  139.9268  156.1182 N   0  0  0  0  0  0  0  0  0  0  0  0
  150.6702  143.2099  157.2533 N   0  0  0  0  0  0  0  0  0  0  0  0
  151.5284  143.9044  158.0300 N   0  0  0  0  0  0  0  0  0  0  0  0
  149.3223  140.3502  157.6126 H   0  0  0  0  0  0  0  0  0  0  0  0
  150.2735  141.8146  154.1786 H   0  0  0  0  0  0  0  0  0  0  0  0
  150.0897  143.6427  156.5493 H   0  0  0  0  0  0  0  0  0  0  0  0
  154.3326  142.2393  161.2899 H   0  0  0  0  0  0  0  0  0  0  0  0
  153.9878  141.2528  159.8716 H   0  0  0  0  0  0  0  0  0  0  0  0
  152.7349  141.5262  161.0821 H   0  0  0  0  0  0  0  0  0  0  0  0
  152.7255  143.9823  160.5045 H   0  0  0  0  0  0  0  0  0  0  0  0
  153.9632  143.7101  159.3017 H   0  0  0  0  0  0  0  0  0  0  0  0
  147.9491  141.0740  155.9782 H   0  0  0  0  0  0  0  0  0  0  0  0
  148.8298  142.5952  155.9482 H   0  0  0  0  0  0  0  0  0  0  0  0
  148.9188  140.6764  152.6978 H   0  0  0  0  0  0  0  0  0  0  0  0
  149.3734  138.9821  154.8393 H   0  0  0  0  0  0  0  0  0  0  0  0
  150.8805  139.4567  154.0557 H   0  0  0  0  0  0  0  0  0  0  0  0
  150.7399  139.0305  156.5942 H   0  0  0  0  0  0  0  0  0  0  0  0
  1  2  1  0  0  0  0
  1 17  1  0  0  0  0
  1 18  1  0  0  0  0
  1 19  1  0  0  0  0
  2 20  1  0  0  0  0
  2 21  1  0  0  0  0
  2  3  1  0  0  0  0
  3  4  1  0  0  0  0
  3 13  2  0  0  0  0
  4  5  2  0  0  0  0
  5  6  1  0  0  0  0
  5 12  1  0  0  0  0
  6 14  1  0  0  0  0
  6 11  1  0  0  0  0
  6  7  1  0  0  0  0
  7  8  1  0  0  0  0
  7 22  1  0  0  0  0
  7 23  1  0  0  0  0
  8 15  1  0  0  0  0
  8  9  1  0  0  0  0
  8 10  1  0  0  0  0
  9 24  1  0  0  0  0
 10 11  1  0  0  0  0
 10 25  1  0  0  0  0
 10 26  1  0  0  0  0
 11 27  1  0  0  0  0
 12 13  1  0  0  0  0
 12 16  1  0  0  0  0
M  END
> <s_m_source_file>
AV-unprocessed.smi

> <i_m_source_file_index>
49

> <i_lp_mmshare_version>
43012

> <i_f3d_flags>
0

> <s_epik_input>
W0NIM11bQ0gyXWMxbmMobltuSF0xKVtDQEBIXTJbQ0gyXVtDQEBIXShbT0hdKVtDSDJdW05IXTI=

> <s_epik_cmdline>
J2VwaWtfcHl0aG9uJywgJy1waCcsICc3LjAnLCAnLXRuJywgJzgnLCAnLW1hJywgJzIwMCcsICctbWV0YWxfYmluZGluZycsICctaW1hZScsICc8aW5maWxlLm1hZT4nLCAnLW9tYWUnLCAnPG91dGZpbGUubWFlPic=

> <r_epik_Ionization_Penalty>
1.31544

> <r_epik_Ionization_Penalty_Charging>
0

> <r_epik_Ionization_Penalty_Neutral>
1.31544

> <r_epik_State_Penalty>
2.06074

> <r_epik_Charging_Adjusted_Penalty>
2.06074

> <i_epik_Tot_Q>
0

> <i_epik_Tot_abs_Q>
0

> <r_epik_Metal_State_Penalty>
2.32913

> <b_epik_Metal_Only>
0

> <s_lp_Force_Field>
OPLS_2005

> <r_lp_Energy>
17.94

> <b_lp_Chiralities_Consistent>
1

> <s_lp_Variant>
AV-unprocessed.smi:49-16

> <Gold.Version>
5.8.1

> <Gold.Id.Protein>
6NUR|6NUR_protein|mol2

> <Gold.PLP.Fitness>
31.3388

> <Gold.PLP.PLP>
-25.3930

> <Gold.PLP.part.hbond>
-2.7116

> <Gold.PLP.part.metal>
0.0000

> <Gold.PLP.part.buried>
-3.1293

> <Gold.PLP.part.nonpolar>
-20.2036

> <Gold.PLP.part.repulsive>
0.1166

> <Gold.PLP.ligand.clash>
0.0000

> <Gold.PLP.ligand.torsion>
0.0305

> <Gold.PLP.Chemscore.Hbond>
2.0000

> <Gold.PLP.Chemscore.CHOScore>
0.0000

> <Gold.PLP.Chemscore.Metal>
0.0000

> <Gold.Chemscore.Hbonds>
donor molecule, donor type, donor heavy atom, donor atom, acceptor molecule, acceptor atom, score
      L1  H     9    24       P1  7957  1.00
      L1  H    12    16       P1  8028  1.00

> <Gold.PLP.Chemscore.Internal.Correction>
0.0068

> <Gold.Rescore>
     Score         DG    S(hbond)    S(metal)    S(lipo)     H(rot)  DE(clash)    DE(int)     intcor
     13.22     -13.30       1.98        0.00      50.77       1.86       0.07       0.01       ----

> <Gold.Chemscore.Fitness>
13.2178

> <Gold.Chemscore.DG>
-13.2985

> <Gold.Chemscore.ZeroCoef>
-5.4800

> <Gold.Chemscore.Hbond>
1.9849

> <Gold.Chemscore.Metal>
0.0000

> <Gold.Chemscore.Lipo>
50.7661

> <Gold.Chemscore.Internal_Hbond>
0.0000

> <Gold.Chemscore.DEClash>
0.0694

> <Gold.Chemscore.DEInternal>
0.0112

> <Gold.Chemscore.Rot>
1.8558

> <Gold.Chemscore.Internal.Correction>
   9.000000E+99

> <Gold.Chemscore.Hbonds>
donor molecule, donor type, donor heavy atom, donor atom, acceptor molecule, acceptor atom, score
      L1  H     9    24       P1  7957  1.00
      L1  H    12    16       P1  8028  1.00

> <Gold.Chemscore.Hbond.Weighted>
-6.6295

> <Gold.Chemscore.Metal.Weighted>
-0.0000

> <Gold.Chemscore.Lipo.Weighted>
-5.9396

> <Gold.Chemscore.Internal_Hbond.Weighted>
0.0000

> <Gold.Chemscore.DEClash.Weighted>
0.0694

> <Gold.Chemscore.DEInternal.Weighted>
0.0112

> <Gold.Chemscore.Rot.Weighted>
4.7507

> <Gold.Chemscore.Internal.Correction.Weighted>
   9.000000E+99

> <Gold.Protein.RotatedTorsions>
[ 6907 6896 6895 6894 ] final  -80.34 input  -60.11 | X-H torsion
[ 7974 7965 7964 7962 ] final  146.92 input  175.53 | X-H torsion
[ 8008 7997 7996 7995 ] final   -5.74 input   59.86 | X-H torsion
[ 10167 10162 10161 10158 ] final  -91.58 input  -65.29 | X-H torsion
[ 10718 10713 10712 10709 ] final   20.09 input   66.30 | X-H torsion
[ 10763 10752 10751 10750 ] final  -15.02 input  -60.55 | X-H torsion
[ 11005 11000 10999 10996 ] final  -53.39 input  -57.11 | X-H torsion

> <Gold.Protein.ActiveResidues>
 VAL166  LYS551  ARG553  GLY616  TRP617  ASP618  TYR619  PRO620  LYS621  CYS622 
 ASP623  PHE694  ASN695  SER759  ASP760  ASP761  ALA762  ILE779  LEU786  VAL792 
 PHE793  MET794  SER795  GLU796  ALA797  LYS798  CYS799  TRP800  GLU811  SER814 

> <Gold.Protein.RotatedAtoms>
  150.6931  134.3985  159.5107 H   0  0  0  0  0  0  0  0  0  0  0  0  # atno 6907 bound_to 6896
  152.1762  134.8790  160.0539 H   0  0  0  0  0  0  0  0  0  0  0  0  # atno 6908 bound_to 6896
  151.9798  133.3719  159.4140 H   0  0  0  0  0  0  0  0  0  0  0  0  # atno 6909 bound_to 6896
  144.8632  139.5965  143.5921 H   0  0  0  0  0  0  0  0  0  0  0  0  # atno 7974 bound_to 7965
  154.6008  140.2451  155.7795 H   0  0  0  0  0  0  0  0  0  0  0  0  # atno 8008 bound_to 7997
  156.2310  140.2966  156.0140 H   0  0  0  0  0  0  0  0  0  0  0  0  # atno 8009 bound_to 7997
  155.2214  140.0400  157.2939 H   0  0  0  0  0  0  0  0  0  0  0  0  # atno 8010 bound_to 7997
  140.3434  143.2929  151.9809 H   0  0  0  0  0  0  0  0  0  0  0  0  # atno 10167 bound_to 10162
  157.1196  130.6544  149.5920 H   0  0  0  0  0  0  0  0  0  0  0  0  # atno 10718 bound_to 10713
  153.5370  135.7014  153.5655 H   0  0  0  0  0  0  0  0  0  0  0  0  # atno 10763 bound_to 10752
  153.3637  135.3963  155.1737 H   0  0  0  0  0  0  0  0  0  0  0  0  # atno 10764 bound_to 10752
  154.8678  135.3795  154.4872 H   0  0  0  0  0  0  0  0  0  0  0  0  # atno 10765 bound_to 10752
  141.0973  133.6622  156.4165 H   0  0  0  0  0  0  0  0  0  0  0  0  # atno 11005 bound_to 11000
  146.2876  139.7048  142.9184 LP  0  0  0  0  0  0  0  0  0  0  0  0  # atno 17320 bound_to 7965
  145.4271  141.0412  143.2931 LP  0  0  0  0  0  0  0  0  0  0  0  0  # atno 17321 bound_to 7965
  139.4837  144.6137  151.7386 LP  0  0  0  0  0  0  0  0  0  0  0  0  # atno 17342 bound_to 10162
  140.5287  144.0765  150.6046 LP  0  0  0  0  0  0  0  0  0  0  0  0  # atno 17343 bound_to 10162
  155.9831  130.4849  150.6918 LP  0  0  0  0  0  0  0  0  0  0  0  0  # atno 17370 bound_to 10713
  157.4488  131.0870  151.0867 LP  0  0  0  0  0  0  0  0  0  0  0  0  # atno 17371 bound_to 10713
  140.5107  134.6397  157.5283 LP  0  0  0  0  0  0  0  0  0  0  0  0  # atno 17394 bound_to 11000
  139.9814  134.7131  155.9853 LP  0  0  0  0  0  0  0  0  0  0  0  0  # atno 17395 bound_to 11000

$$$$
