AV-unprocessed.smi:103|AV-procd|sdf|982|dock4
  -GOLD-   2262017543D 1   1.00000     0.00000
 Structure written by MMmdl.
 53 55  0  0  0  0  0  0  0  0  1 V2000
  151.0848  132.3659  155.6574 C   0  0  0  0  0  0  0  0  0  0  0  0
  150.3262  133.0459  156.7895 C   0  0  0  0  0  0  0  0  0  0  0  0
  150.4862  132.7069  157.9622 O   0  0  0  0  0  0  0  0  0  0  0  0
  149.5070  134.0140  156.3473 O   0  0  0  0  0  0  0  0  0  0  0  0
  148.6004  134.6429  157.2404 C   0  0  0  0  0  0  0  0  0  0  0  0
  149.1889  135.9876  157.7006 C   0  0  1  0  0  0  0  0  0  0  0  0
  149.3521  136.7948  156.5334 O   0  0  0  0  0  0  0  0  0  0  0  0
  148.6725  137.9979  156.6806 C   0  0  1  0  0  0  0  0  0  0  0  0
  148.1053  138.4059  155.3586 N   0  0  0  0  0  0  0  0  0  0  0  0
  148.3815  139.5141  154.5824 C   0  0  0  0  0  0  0  0  0  0  0  0
  149.5802  140.7933  154.9391 S   0  0  0  0  0  0  0  0  0  0  0  0
  149.2530  141.1291  156.7169 C   0  0  0  0  0  0  0  0  0  0  0  0
  150.9128  140.1864  154.7955 O   0  0  0  0  0  0  0  0  0  0  0  0
  149.2089  141.9744  154.1454 O   0  0  0  0  0  0  0  0  0  0  0  0
  147.7837  139.5807  153.4236 N   0  0  0  0  0  0  0  0  0  0  0  0
  146.9742  138.4539  153.4214 C   0  0  0  0  0  0  0  0  0  0  0  0
  146.0462  137.9083  152.4989 C   0  0  0  0  0  0  0  0  0  0  0  0
  145.7667  138.4787  151.3187 N   0  0  0  0  0  0  0  0  0  0  0  0
  145.4135  136.7563  152.8224 N   0  0  0  0  0  0  0  0  0  0  0  0
  145.6764  136.1668  153.9931 C   0  0  0  0  0  0  0  0  0  0  0  0
  146.5178  136.5574  154.9534 N   0  0  0  0  0  0  0  0  0  0  0  0
  147.1573  137.7182  154.6272 C   0  0  0  0  0  0  0  0  0  0  0  0
  147.5689  137.7582  157.6991 C   0  0  2  0  0  0  0  0  0  0  0  0
  147.2357  138.9787  158.3432 O   0  0  0  0  0  0  0  0  0  0  0  0
  146.5045  139.9040  157.7030 C   0  0  0  0  0  0  0  0  0  0  0  0
  145.6530  140.7298  158.6575 C   0  0  0  0  0  0  0  0  0  0  0  0
  146.4852  140.1010  156.4880 O   0  0  0  0  0  0  0  0  0  0  0  0
  148.2701  136.7971  158.6401 C   0  0  1  0  0  0  0  0  0  0  0  0
  147.3056  136.0054  159.3235 O   0  0  0  0  0  0  0  0  0  0  0  0
  147.0764  136.1977  160.6329 C   0  0  0  0  0  0  0  0  0  0  0  0
  146.2914  135.0523  161.2574 C   0  0  0  0  0  0  0  0  0  0  0  0
  147.4435  137.1656  161.2988 O   0  0  0  0  0  0  0  0  0  0  0  0
  150.4461  132.2539  154.7811 H   0  0  0  0  0  0  0  0  0  0  0  0
  151.4229  131.3763  155.9656 H   0  0  0  0  0  0  0  0  0  0  0  0
  151.9563  132.9583  155.3788 H   0  0  0  0  0  0  0  0  0  0  0  0
  147.6237  134.8037  156.7839 H   0  0  0  0  0  0  0  0  0  0  0  0
  148.4503  133.9788  158.0918 H   0  0  0  0  0  0  0  0  0  0  0  0
  150.1550  135.8248  158.1792 H   0  0  0  0  0  0  0  0  0  0  0  0
  149.3845  138.7685  156.9716 H   0  0  0  0  0  0  0  0  0  0  0  0
  149.9349  141.9018  157.0709 H   0  0  0  0  0  0  0  0  0  0  0  0
  149.4084  140.2164  157.2921 H   0  0  0  0  0  0  0  0  0  0  0  0
  148.2245  141.4655  156.8434 H   0  0  0  0  0  0  0  0  0  0  0  0
  146.2270  139.3377  151.0537 H   0  0  0  0  0  0  0  0  0  0  0  0
  145.0958  138.0499  150.6977 H   0  0  0  0  0  0  0  0  0  0  0  0
  145.1392  135.2500  154.1879 H   0  0  0  0  0  0  0  0  0  0  0  0
  146.7225  137.2821  157.2007 H   0  0  0  0  0  0  0  0  0  0  0  0
  146.2479  141.0588  159.5099 H   0  0  0  0  0  0  0  0  0  0  0  0
  144.8163  140.1366  159.0266 H   0  0  0  0  0  0  0  0  0  0  0  0
  145.2567  141.6110  158.1527 H   0  0  0  0  0  0  0  0  0  0  0  0
  148.8817  137.3759  159.3351 H   0  0  0  0  0  0  0  0  0  0  0  0
  145.4562  134.7690  160.6165 H   0  0  0  0  0  0  0  0  0  0  0  0
  145.8960  135.3448  162.2302 H   0  0  0  0  0  0  0  0  0  0  0  0
  146.9355  134.1834  161.3921 H   0  0  0  0  0  0  0  0  0  0  0  0
  1  2  1  0  0  0  0
  1 33  1  0  0  0  0
  1 34  1  0  0  0  0
  1 35  1  0  0  0  0
  2  3  2  0  0  0  0
  2  4  1  0  0  0  0
  4  5  1  0  0  0  0
  5  6  1  0  0  0  0
  5 36  1  0  0  0  0
  5 37  1  0  0  0  0
  6 28  1  0  0  0  0
  6  7  1  0  0  0  0
  6 38  1  0  0  0  0
  7  8  1  0  0  0  0
  8  9  1  0  0  0  0
  8 23  1  0  0  0  0
  8 39  1  0  0  0  0
  9 22  1  0  0  0  0
  9 10  1  0  0  0  0
 10 11  1  0  0  0  0
 10 15  2  0  0  0  0
 11 12  1  0  0  0  0
 11 13  2  0  0  0  0
 11 14  2  0  0  0  0
 12 40  1  0  0  0  0
 12 41  1  0  0  0  0
 12 42  1  0  0  0  0
 15 16  1  0  0  0  0
 16 22  2  0  0  0  0
 16 17  1  0  0  0  0
 17 18  1  0  0  0  0
 17 19  2  0  0  0  0
 18 43  1  0  0  0  0
 18 44  1  0  0  0  0
 19 20  1  0  0  0  0
 20 21  2  0  0  0  0
 20 45  1  0  0  0  0
 21 22  1  0  0  0  0
 23 24  1  0  0  0  0
 23 28  1  0  0  0  0
 23 46  1  0  0  0  0
 24 25  1  0  0  0  0
 25 26  1  0  0  0  0
 25 27  2  0  0  0  0
 26 47  1  0  0  0  0
 26 48  1  0  0  0  0
 26 49  1  0  0  0  0
 28 29  1  0  0  0  0
 28 50  1  0  0  0  0
 29 30  1  0  0  0  0
 30 31  1  0  0  0  0
 30 32  2  0  0  0  0
 31 51  1  0  0  0  0
 31 52  1  0  0  0  0
 31 53  1  0  0  0  0
M  END
> <s_m_source_file>
AV-unprocessed.smi

> <i_m_source_file_index>
103

> <i_lp_mmshare_version>
43012

> <i_f3d_flags>
0

> <s_epik_input>
W0NIM11DKD1PKU9bQ0gyXVtDQEBIXTFPW0NASF0oW0NAQEhdKE9DKD1PKVtDSDNdKVtDQEhdMU9DKD1PKVtDSDNdKW4oYyhuMilTKD1PKSg9TylbQ0gzXSljKGMyMyluW2NIXW5jM1tOSDJd

> <s_epik_cmdline>
J2VwaWtfcHl0aG9uJywgJy1waCcsICc3LjAnLCAnLXRuJywgJzgnLCAnLW1hJywgJzIwMCcsICctbWV0YWxfYmluZGluZycsICctaW1hZScsICc8aW5maWxlLm1hZT4nLCAnLW9tYWUnLCAnPG91dGZpbGUubWFlPic=

> <r_lp_tautomer_probability>
1

> <r_epik_Ionization_Penalty>
1.51338e-05

> <r_epik_Ionization_Penalty_Charging>
0

> <r_epik_Ionization_Penalty_Neutral>
1.51338e-05

> <r_epik_State_Penalty>
-0

> <r_epik_Charging_Adjusted_Penalty>
0

> <i_epik_Tot_Q>
0

> <i_epik_Tot_abs_Q>
0

> <r_epik_Metal_State_Penalty>
-0

> <b_epik_Metal_Only>
0

> <s_epik_Chemistry_Notes>
This compound has an ester and may undergo hydrolysis at high or low pH. This compound contains an acetal/aminal-like group ( X-CH(R)-Y where X, Y are N, S, or O) that may be acid/base labile, releasing an aldehyde.

> <s_lp_Force_Field>
OPLS_2005

> <r_lp_Energy>
15.9567

> <b_lp_Chiralities_Consistent>
1

> <s_lp_Variant>
AV-unprocessed.smi:103-6

> <Gold.Version>
5.8.1

> <Gold.Id.Protein>
6NUR|6NUR_protein|mol2

> <Gold.PLP.Fitness>
37.4322

> <Gold.PLP.PLP>
-25.9860

> <Gold.PLP.part.hbond>
-8.0513

> <Gold.PLP.part.metal>
0.0000

> <Gold.PLP.part.buried>
-4.5265

> <Gold.PLP.part.nonpolar>
-14.9344

> <Gold.PLP.part.repulsive>
2.1214

> <Gold.PLP.ligand.clash>
0.0000

> <Gold.PLP.ligand.torsion>
2.7840

> <Gold.PLP.Chemscore.Hbond>
4.9440

> <Gold.PLP.Chemscore.CHOScore>
0.0000

> <Gold.PLP.Chemscore.Metal>
0.0000

> <Gold.Chemscore.Hbonds>
donor molecule, donor type, donor heavy atom, donor atom, acceptor molecule, acceptor atom, score
      L1  H    18    44       P1 10171  0.69
      P1  H  6896  6907       L1     3  1.00
      P1  H  6931  6943       L1    32  0.91
      P1  H  6934  6947       L1    32  0.96
      P1  H  7989  7998       L1    13  1.00
      P1  H  8011  8017       L1    14  0.42

> <Gold.PLP.Chemscore.Internal.Correction>
2.1822

> <Gold.Rescore>
     Score         DG    S(hbond)    S(metal)    S(lipo)     H(rot)  DE(clash)    DE(int)     intcor
      8.55     -13.04       4.55        0.00      27.67       4.25       0.31       4.18       ----

> <Gold.Chemscore.Fitness>
8.5456

> <Gold.Chemscore.DG>
-13.0381

> <Gold.Chemscore.ZeroCoef>
-5.4800

> <Gold.Chemscore.Hbond>
4.5476

> <Gold.Chemscore.Metal>
0.0000

> <Gold.Chemscore.Lipo>
27.6742

> <Gold.Chemscore.Internal_Hbond>
0.0000

> <Gold.Chemscore.DEClash>
0.3090

> <Gold.Chemscore.DEInternal>
4.1835

> <Gold.Chemscore.Rot>
4.2456

> <Gold.Chemscore.Internal.Correction>
   9.000000E+99

> <Gold.Chemscore.Hbonds>
donor molecule, donor type, donor heavy atom, donor atom, acceptor molecule, acceptor atom, score
      L1  H    18    44       P1 10171  0.67
      P1  H  6896  6907       L1     3  0.99
      P1  H  6931  6943       L1    32  0.85
      P1  H  6934  6947       L1    32  0.92
      P1  H  7989  7998       L1    13  0.65
      P1  H  8011  8017       L1    14  0.40

> <Gold.Chemscore.Hbond.Weighted>
-15.1889

> <Gold.Chemscore.Metal.Weighted>
-0.0000

> <Gold.Chemscore.Lipo.Weighted>
-3.2379

> <Gold.Chemscore.Internal_Hbond.Weighted>
0.0000

> <Gold.Chemscore.DEClash.Weighted>
0.3090

> <Gold.Chemscore.DEInternal.Weighted>
4.1835

> <Gold.Chemscore.Rot.Weighted>
10.8687

> <Gold.Chemscore.Internal.Correction.Weighted>
   9.000000E+99

> <Gold.Protein.RotatedTorsions>
[ 6907 6896 6895 6894 ] final -155.89 input  -60.11 | X-H torsion
[ 7974 7965 7964 7962 ] final   47.65 input  175.53 | X-H torsion
[ 8008 7997 7996 7995 ] final -110.88 input   59.86 | X-H torsion
[ 10167 10162 10161 10158 ] final -144.47 input  -65.29 | X-H torsion
[ 10718 10713 10712 10709 ] final -124.03 input   66.30 | X-H torsion
[ 10763 10752 10751 10750 ] final  -42.47 input  -60.55 | X-H torsion
[ 11005 11000 10999 10996 ] final   28.64 input  -57.11 | X-H torsion

> <Gold.Protein.ActiveResidues>
 VAL166  LYS551  ARG553  GLY616  TRP617  ASP618  TYR619  PRO620  LYS621  CYS622 
 ASP623  PHE694  ASN695  SER759  ASP760  ASP761  ALA762  ILE779  LEU786  VAL792 
 PHE793  MET794  SER795  GLU796  ALA797  LYS798  CYS799  TRP800  GLU811  SER814 

> <Gold.Protein.RotatedAtoms>
  151.2794  133.4217  159.2625 H   0  0  0  0  0  0  0  0  0  0  0  0  # atno 6907 bound_to 6896
  151.0374  134.9583  159.8154 H   0  0  0  0  0  0  0  0  0  0  0  0  # atno 6908 bound_to 6896
  152.5358  134.2753  159.9039 H   0  0  0  0  0  0  0  0  0  0  0  0  # atno 6909 bound_to 6896
  146.0278  139.4727  142.9857 H   0  0  0  0  0  0  0  0  0  0  0  0  # atno 7974 bound_to 7965
  154.9812  140.0396  157.2278 H   0  0  0  0  0  0  0  0  0  0  0  0  # atno 8008 bound_to 7997
  154.7712  140.2802  155.6114 H   0  0  0  0  0  0  0  0  0  0  0  0  # atno 8009 bound_to 7997
  156.2921  140.2609  156.2515 H   0  0  0  0  0  0  0  0  0  0  0  0  # atno 8010 bound_to 7997
  139.7896  143.7985  152.2648 H   0  0  0  0  0  0  0  0  0  0  0  0  # atno 10167 bound_to 10162
  156.1553  130.6563  150.9972 H   0  0  0  0  0  0  0  0  0  0  0  0  # atno 10718 bound_to 10713
  153.9796  135.6718  153.4749 H   0  0  0  0  0  0  0  0  0  0  0  0  # atno 10763 bound_to 10752
  153.0754  135.4951  154.8391 H   0  0  0  0  0  0  0  0  0  0  0  0  # atno 10764 bound_to 10752
  154.7172  135.3109  154.9066 H   0  0  0  0  0  0  0  0  0  0  0  0  # atno 10765 bound_to 10752
  140.3135  134.2623  155.7730 H   0  0  0  0  0  0  0  0  0  0  0  0  # atno 11005 bound_to 11000
  145.7089  141.0112  143.1464 LP  0  0  0  0  0  0  0  0  0  0  0  0  # atno 17320 bound_to 7965
  144.7017  139.8734  143.7442 LP  0  0  0  0  0  0  0  0  0  0  0  0  # atno 17321 bound_to 7965
  139.8073  144.7350  150.9745 LP  0  0  0  0  0  0  0  0  0  0  0  0  # atno 17342 bound_to 10162
  140.7820  143.4286  151.0730 LP  0  0  0  0  0  0  0  0  0  0  0  0  # atno 17343 bound_to 10162
  157.6690  131.0865  150.7659 LP  0  0  0  0  0  0  0  0  0  0  0  0  # atno 17370 bound_to 10713
  156.7725  130.4833  149.5416 LP  0  0  0  0  0  0  0  0  0  0  0  0  # atno 17371 bound_to 10713
  141.2103  133.7724  156.9941 LP  0  0  0  0  0  0  0  0  0  0  0  0  # atno 17394 bound_to 11000
  140.1004  134.9539  157.1914 LP  0  0  0  0  0  0  0  0  0  0  0  0  # atno 17395 bound_to 11000

$$$$
