AV-unprocessed.smi:1207|AV-procd|sdf|5053|dock8
  -GOLD-   22720 4 83D 1   1.00000     0.00000
 Structure written by MMmdl.
 52 54  0  0  0  0  0  0  0  0  2 V2000
  152.5512  143.0594  160.4563 C   0  0  0  0  0  0  0  0  0  0  0  0
  152.0322  142.4269  159.1768 C   0  0  0  0  0  0  0  0  0  0  0  0
  152.6554  141.2571  158.6872 C   0  0  0  0  0  0  0  0  0  0  0  0
  152.2032  140.6373  157.5022 C   0  0  0  0  0  0  0  0  0  0  0  0
  152.6528  139.4992  156.8554 N   0  0  0  0  0  0  0  0  0  0  0  0
  151.8284  139.4383  155.8143 C   0  0  0  0  0  0  0  0  0  0  0  0
  150.8907  140.3999  155.7135 N   0  0  0  0  0  0  0  0  0  0  0  0
  149.8839  140.5267  154.6759 C   0  0  0  0  0  0  0  0  0  0  0  0
  149.1748  139.1908  154.3832 C   0  0  2  0  0  0  0  0  0  0  0  0
  149.9204  138.5112  153.3938 O   0  0  0  0  0  0  0  0  0  0  0  0
  147.7224  139.3571  153.8832 C   0  0  0  0  0  0  0  0  0  0  0  0
  147.2171  138.1259  153.2258 N   0  3  2  0  0  0  0  0  0  0  0  0
  146.5240  138.4184  151.9490 C   0  0  0  0  0  0  0  0  0  0  0  0
  146.4085  137.2747  154.1368 C   0  0  0  0  0  0  0  0  0  0  0  0
  145.7135  136.1722  153.3823 C   0  0  0  0  0  0  0  0  0  0  0  0
  144.4669  136.2214  152.6932 C   0  0  0  0  0  0  0  0  0  0  0  0
  143.5210  137.3782  152.5395 C   0  0  0  0  0  0  0  0  0  0  0  0
  144.1628  135.0584  152.1432 N   0  0  0  0  0  0  0  0  0  0  0  0
  145.2148  134.1948  152.4618 O   0  0  0  0  0  0  0  0  0  0  0  0
  146.1231  134.8795  153.2010 C   0  0  0  0  0  0  0  0  0  0  0  0
  147.3286  134.1206  153.6429 C   0  0  0  0  0  0  0  0  0  0  0  0
  151.1026  141.2255  156.8129 C   0  0  0  0  0  0  0  0  0  0  0  0
  150.4747  142.3903  157.2893 C   0  0  0  0  0  0  0  0  0  0  0  0
  150.9385  142.9958  158.4760 C   0  0  0  0  0  0  0  0  0  0  0  0
  150.2546  144.2531  158.9832 C   0  0  0  0  0  0  0  0  0  0  0  0
  153.3722  142.4813  160.8813 H   0  0  0  0  0  0  0  0  0  0  0  0
  151.7609  143.1156  161.2050 H   0  0  0  0  0  0  0  0  0  0  0  0
  152.9175  144.0674  160.2619 H   0  0  0  0  0  0  0  0  0  0  0  0
  153.4887  140.8238  159.2207 H   0  0  0  0  0  0  0  0  0  0  0  0
  151.9054  138.6449  155.0850 H   0  0  0  0  0  0  0  0  0  0  0  0
  149.1636  141.2886  154.9760 H   0  0  0  0  0  0  0  0  0  0  0  0
  150.3738  140.8990  153.7747 H   0  0  0  0  0  0  0  0  0  0  0  0
  149.1998  138.5839  155.2881 H   0  0  0  0  0  0  0  0  0  0  0  0
  149.3466  137.9138  152.9381 H   0  0  0  0  0  0  0  0  0  0  0  0
  147.0460  139.6137  154.6990 H   0  0  0  0  0  0  0  0  0  0  0  0
  147.6893  140.2001  153.1909 H   0  0  0  0  0  0  0  0  0  0  0  0
  145.6163  138.9985  152.1208 H   0  0  0  0  0  0  0  0  0  0  0  0
  146.2510  137.5005  151.4288 H   0  0  0  0  0  0  0  0  0  0  0  0
  147.1709  138.9857  151.2790 H   0  0  0  0  0  0  0  0  0  0  0  0
  147.0492  136.8390  154.9029 H   0  0  0  0  0  0  0  0  0  0  0  0
  145.6995  137.9010  154.6799 H   0  0  0  0  0  0  0  0  0  0  0  0
  144.0558  138.3271  152.5120 H   0  0  0  0  0  0  0  0  0  0  0  0
  142.8165  137.4180  153.3703 H   0  0  0  0  0  0  0  0  0  0  0  0
  142.9434  137.3025  151.6175 H   0  0  0  0  0  0  0  0  0  0  0  0
  148.0502  134.7758  154.1303 H   0  0  0  0  0  0  0  0  0  0  0  0
  147.8229  133.6511  152.7922 H   0  0  0  0  0  0  0  0  0  0  0  0
  147.0534  133.3373  154.3492 H   0  0  0  0  0  0  0  0  0  0  0  0
  149.6423  142.8141  156.7477 H   0  0  0  0  0  0  0  0  0  0  0  0
  149.4434  144.5602  158.3225 H   0  0  0  0  0  0  0  0  0  0  0  0
  150.9663  145.0767  159.0440 H   0  0  0  0  0  0  0  0  0  0  0  0
  149.8334  144.0853  159.9745 H   0  0  0  0  0  0  0  0  0  0  0  0
  148.0400  137.5926  152.9823 H   0  0  0  0  0  0  0  0  0  0  0  0
  1  2  1  0  0  0  0
  1 26  1  0  0  0  0
  1 27  1  0  0  0  0
  1 28  1  0  0  0  0
  2 24  1  0  0  0  0
  2  3  2  0  0  0  0
  3  4  1  0  0  0  0
  3 29  1  0  0  0  0
  4 22  2  0  0  0  0
  4  5  1  0  0  0  0
  5  6  2  0  0  0  0
  6  7  1  0  0  0  0
  6 30  1  0  0  0  0
  7  8  1  0  0  0  0
  7 22  1  0  0  0  0
  8  9  1  0  0  0  0
  8 31  1  0  0  0  0
  8 32  1  0  0  0  0
  9 10  1  0  0  0  0
  9 11  1  0  0  0  0
  9 33  1  0  0  0  0
 10 34  1  0  0  0  0
 11 12  1  0  0  0  0
 11 35  1  0  0  0  0
 11 36  1  0  0  0  0
 12 13  1  0  0  0  0
 12 14  1  0  0  0  0
 12 52  1  0  0  0  0
 13 37  1  0  0  0  0
 13 38  1  0  0  0  0
 13 39  1  0  0  0  0
 14 15  1  0  0  0  0
 14 40  1  0  0  0  0
 14 41  1  0  0  0  0
 15 20  2  0  0  0  0
 15 16  1  0  0  0  0
 16 17  1  0  0  0  0
 16 18  2  0  0  0  0
 17 42  1  0  0  0  0
 17 43  1  0  0  0  0
 17 44  1  0  0  0  0
 18 19  1  0  0  0  0
 19 20  1  0  0  0  0
 20 21  1  0  0  0  0
 21 45  1  0  0  0  0
 21 46  1  0  0  0  0
 21 47  1  0  0  0  0
 22 23  1  0  0  0  0
 23 24  2  0  0  0  0
 23 48  1  0  0  0  0
 24 25  1  0  0  0  0
 25 49  1  0  0  0  0
 25 50  1  0  0  0  0
 25 51  1  0  0  0  0
M  CHG  1  12   1
M  END
> <s_m_source_file>
AV-unprocessed.smi

> <i_m_source_file_index>
1207

> <i_lp_mmshare_version>
43012

> <i_f3d_flags>
0

> <s_epik_input>
W0NIM11jKFtjSF0xKWMoW0NIM10pW2NIXWMoYzEyKW4oW2NIXW4yKVtDSDJdW0NASF0oW09IXSlbQ0gyXU4oW0NIM10pW0NIMl1jM2MoW0NIM10pbm9jM1tDSDNd

> <s_epik_cmdline>
J2VwaWtfcHl0aG9uJywgJy1waCcsICc3LjAnLCAnLXRuJywgJzgnLCAnLW1hJywgJzIwMCcsICctbWV0YWxfYmluZGluZycsICctaW1hZScsICc8aW5maWxlLm1hZT4nLCAnLW9tYWUnLCAnPG91dGZpbGUubWFlPic=

> <r_epik_Ionization_Penalty>
0.646518

> <r_epik_Ionization_Penalty_Charging>
0.559419

> <r_epik_Ionization_Penalty_Neutral>
0.0870981

> <r_epik_State_Penalty>
0.661677

> <r_epik_Charging_Adjusted_Penalty>
1.2211

> <i_epik_Tot_Q>
1

> <i_epik_Tot_abs_Q>
1

> <r_epik_Metal_State_Penalty>
0.649158

> <b_epik_Metal_Only>
0

> <s_lp_Force_Field>
OPLS_2005

> <r_lp_Energy>
8.09653

> <b_lp_Chiralities_Consistent>
1

> <s_lp_Variant>
AV-unprocessed.smi:1207-5

> <Gold.Version>
5.8.1

> <Gold.Id.Protein>
6NUR|6NUR_protein|mol2

> <Gold.PLP.Fitness>
52.6725

> <Gold.PLP.PLP>
-43.4342

> <Gold.PLP.part.hbond>
-4.0000

> <Gold.PLP.part.metal>
0.0000

> <Gold.PLP.part.buried>
-1.1975

> <Gold.PLP.part.nonpolar>
-36.9501

> <Gold.PLP.part.repulsive>
0.2221

> <Gold.PLP.ligand.clash>
0.0000

> <Gold.PLP.ligand.torsion>
1.6917

> <Gold.PLP.Chemscore.Hbond>
4.0000

> <Gold.PLP.Chemscore.CHOScore>
0.0000

> <Gold.PLP.Chemscore.Metal>
0.0000

> <Gold.Chemscore.Hbonds>
donor molecule, donor type, donor heavy atom, donor atom, acceptor molecule, acceptor atom, score
      L1  H    10    34       P1  7948  1.00
      L1  H    12    52       P1  7948  2.00
      P1  H  7997  8010       L1     5  0.90

> <Gold.PLP.Chemscore.Internal.Correction>
0.6217

> <Gold.Rescore>
     Score         DG    S(hbond)    S(metal)    S(lipo)     H(rot)  DE(clash)    DE(int)     intcor
     18.07     -19.67       2.51        0.00     103.49       2.46       0.15       1.46       ----

> <Gold.Chemscore.Fitness>
18.0694

> <Gold.Chemscore.DG>
-19.6696

> <Gold.Chemscore.ZeroCoef>
-5.4800

> <Gold.Chemscore.Hbond>
2.5060

> <Gold.Chemscore.Metal>
0.0000

> <Gold.Chemscore.Lipo>
103.4879

> <Gold.Chemscore.Internal_Hbond>
0.0000

> <Gold.Chemscore.DEClash>
0.1451

> <Gold.Chemscore.DEInternal>
1.4550

> <Gold.Chemscore.Rot>
2.4565

> <Gold.Chemscore.Internal.Correction>
   9.000000E+99

> <Gold.Chemscore.Hbonds>
donor molecule, donor type, donor heavy atom, donor atom, acceptor molecule, acceptor atom, score
      L1  H    10    34       P1  7948  0.87
      L1  H    12    52       P1  7948  0.93
      P1  H  7997  8010       L1     5  0.15

> <Gold.Chemscore.Hbond.Weighted>
-8.3702

> <Gold.Chemscore.Metal.Weighted>
-0.0000

> <Gold.Chemscore.Lipo.Weighted>
-12.1081

> <Gold.Chemscore.Internal_Hbond.Weighted>
0.0000

> <Gold.Chemscore.DEClash.Weighted>
0.1451

> <Gold.Chemscore.DEInternal.Weighted>
1.4550

> <Gold.Chemscore.Rot.Weighted>
6.2887

> <Gold.Chemscore.Internal.Correction.Weighted>
   9.000000E+99

> <Gold.Protein.RotatedTorsions>
[ 6907 6896 6895 6894 ] final -118.49 input  -60.11 | X-H torsion
[ 7974 7965 7964 7962 ] final -168.68 input  175.53 | X-H torsion
[ 8008 7997 7996 7995 ] final   76.45 input   59.86 | X-H torsion
[ 10167 10162 10161 10158 ] final  168.20 input  -65.29 | X-H torsion
[ 10718 10713 10712 10709 ] final  -76.38 input   66.30 | X-H torsion
[ 10763 10752 10751 10750 ] final -134.34 input  -60.55 | X-H torsion
[ 11005 11000 10999 10996 ] final   19.40 input  -57.11 | X-H torsion

> <Gold.Protein.ActiveResidues>
 VAL166  LYS551  ARG553  GLY616  TRP617  ASP618  TYR619  PRO620  LYS621  CYS622 
 ASP623  PHE694  ASN695  SER759  ASP760  ASP761  ALA762  ILE779  LEU786  VAL792 
 PHE793  MET794  SER795  GLU796  ALA797  LYS798  CYS799  TRP800  GLU811  SER814 

> <Gold.Protein.RotatedAtoms>
  150.8224  133.8229  159.3132 H   0  0  0  0  0  0  0  0  0  0  0  0  # atno 6907 bound_to 6896
  151.5983  135.1047  160.0064 H   0  0  0  0  0  0  0  0  0  0  0  0  # atno 6908 bound_to 6896
  152.4312  133.7240  159.6606 H   0  0  0  0  0  0  0  0  0  0  0  0  # atno 6909 bound_to 6896
  144.7199  140.2334  143.6301 H   0  0  0  0  0  0  0  0  0  0  0  0  # atno 7974 bound_to 7965
  155.8275  140.3467  155.5552 H   0  0  0  0  0  0  0  0  0  0  0  0  # atno 8008 bound_to 7997
  155.8277  140.0922  157.1831 H   0  0  0  0  0  0  0  0  0  0  0  0  # atno 8009 bound_to 7997
  154.4004  140.1418  156.3564 H   0  0  0  0  0  0  0  0  0  0  0  0  # atno 8010 bound_to 7997
  139.4962  144.3840  151.9590 H   0  0  0  0  0  0  0  0  0  0  0  0  # atno 10167 bound_to 10162
  156.0177  130.4464  150.3184 H   0  0  0  0  0  0  0  0  0  0  0  0  # atno 10718 bound_to 10713
  154.8720  135.3737  154.4720 H   0  0  0  0  0  0  0  0  0  0  0  0  # atno 10763 bound_to 10752
  153.5379  135.7027  153.5656 H   0  0  0  0  0  0  0  0  0  0  0  0  # atno 10764 bound_to 10752
  153.3831  135.3991  155.1835 H   0  0  0  0  0  0  0  0  0  0  0  0  # atno 10765 bound_to 10752
  140.4141  134.1587  155.7669 H   0  0  0  0  0  0  0  0  0  0  0  0  # atno 11005 bound_to 11000
  145.8389  139.2120  143.1839 LP  0  0  0  0  0  0  0  0  0  0  0  0  # atno 17320 bound_to 7965
  146.0364  140.8208  142.9850 LP  0  0  0  0  0  0  0  0  0  0  0  0  # atno 17321 bound_to 7965
  140.3277  144.3353  150.5994 LP  0  0  0  0  0  0  0  0  0  0  0  0  # atno 17342 bound_to 10162
  140.5671  143.2185  151.7665 LP  0  0  0  0  0  0  0  0  0  0  0  0  # atno 17343 bound_to 10162
  157.1285  131.0265  151.2979 LP  0  0  0  0  0  0  0  0  0  0  0  0  # atno 17370 bound_to 10713
  157.4570  130.7631  149.7201 LP  0  0  0  0  0  0  0  0  0  0  0  0  # atno 17371 bound_to 10713
  141.1809  133.8415  157.1259 LP  0  0  0  0  0  0  0  0  0  0  0  0  # atno 17394 bound_to 11000
  140.0246  134.9930  157.0660 LP  0  0  0  0  0  0  0  0  0  0  0  0  # atno 17395 bound_to 11000

$$$$
