AV-unprocessed.smi:1243|AV-procd|sdf|5219|dock6
  -GOLD-   22720 4313D 1   1.00000     0.00000
 Structure written by MMmdl.
 51 52  0  0  0  0  0  0  0  0  2 V2000
  154.6599  140.0009  159.7457 C   0  0  0  0  0  0  0  0  0  0  0  0
  153.6083  140.2596  158.8219 O   0  0  0  0  0  0  0  0  0  0  0  0
  152.9007  141.4406  158.9415 C   0  0  0  0  0  0  0  0  0  0  0  0
  153.3047  142.3441  159.8695 N   0  0  0  0  0  0  0  0  0  0  0  0
  152.6164  143.4983  159.9855 C   0  0  0  0  0  0  0  0  0  0  0  0
  151.5026  143.8145  159.1864 C   0  0  0  0  0  0  0  0  0  0  0  0
  151.0818  142.8796  158.2228 C   0  0  0  0  0  0  0  0  0  0  0  0
  151.7853  141.6570  158.0989 C   0  0  0  0  0  0  0  0  0  0  0  0
  151.4571  140.6545  157.1454 N   0  0  0  0  0  0  0  0  0  0  0  0
  150.6674  140.7586  156.0638 C   0  0  0  0  0  0  0  0  0  0  0  0
  150.0635  141.7738  155.7178 O   0  0  0  0  0  0  0  0  0  0  0  0
  150.6019  139.5963  155.3987 N   0  0  0  0  0  0  0  0  0  0  0  0
  149.8081  139.3473  154.1958 C   0  0  0  0  0  0  0  0  0  0  0  0
  148.5284  138.4963  154.4579 C   0  0  0  0  0  0  0  0  0  0  0  0
  147.9092  138.8571  155.8322 C   0  0  0  0  0  0  0  0  0  0  0  0
  147.4493  138.8371  153.3998 C   0  0  0  0  0  0  0  0  0  0  0  0
  148.8344  137.0201  154.4158 N   0  3  0  0  0  0  0  0  0  0  0  0
  147.7185  136.1126  154.8100 C   0  0  0  0  0  0  0  0  0  0  0  0
  148.0779  134.6418  154.5124 C   0  0  0  0  0  0  0  0  0  0  0  0
  149.3056  134.2223  155.1869 N   0  0  0  0  0  0  0  0  0  0  0  0
  149.1477  134.0754  156.6299 C   0  0  0  0  0  0  0  0  0  0  0  0
  150.4012  135.1154  154.8124 C   0  0  0  0  0  0  0  0  0  0  0  0
  150.0808  136.5942  155.1152 C   0  0  0  0  0  0  0  0  0  0  0  0
  155.1087  139.0338  159.5188 H   0  0  0  0  0  0  0  0  0  0  0  0
  154.2885  139.9611  160.7708 H   0  0  0  0  0  0  0  0  0  0  0  0
  155.4462  140.7539  159.6783 H   0  0  0  0  0  0  0  0  0  0  0  0
  152.9683  144.1933  160.7333 H   0  0  0  0  0  0  0  0  0  0  0  0
  150.9856  144.7551  159.3063 H   0  0  0  0  0  0  0  0  0  0  0  0
  150.2420  143.1236  157.5906 H   0  0  0  0  0  0  0  0  0  0  0  0
  151.8097  139.7317  157.3539 H   0  0  0  0  0  0  0  0  0  0  0  0
  151.1311  138.8166  155.7611 H   0  0  0  0  0  0  0  0  0  0  0  0
  149.5401  140.3283  153.8052 H   0  0  0  0  0  0  0  0  0  0  0  0
  150.4358  138.8868  153.4327 H   0  0  0  0  0  0  0  0  0  0  0  0
  147.4718  139.8560  155.8308 H   0  0  0  0  0  0  0  0  0  0  0  0
  148.6484  138.8537  156.6332 H   0  0  0  0  0  0  0  0  0  0  0  0
  147.1130  138.1635  156.1052 H   0  0  0  0  0  0  0  0  0  0  0  0
  147.0582  139.8465  153.5329 H   0  0  0  0  0  0  0  0  0  0  0  0
  146.6001  138.1554  153.4634 H   0  0  0  0  0  0  0  0  0  0  0  0
  147.8373  138.7974  152.3823 H   0  0  0  0  0  0  0  0  0  0  0  0
  147.4703  136.2389  155.8633 H   0  0  0  0  0  0  0  0  0  0  0  0
  146.8132  136.3366  154.2499 H   0  0  0  0  0  0  0  0  0  0  0  0
  147.2583  133.9837  154.8036 H   0  0  0  0  0  0  0  0  0  0  0  0
  148.2105  134.5103  153.4377 H   0  0  0  0  0  0  0  0  0  0  0  0
  150.0718  133.7044  157.0743 H   0  0  0  0  0  0  0  0  0  0  0  0
  148.3624  133.3518  156.8508 H   0  0  0  0  0  0  0  0  0  0  0  0
  148.8898  135.0120  157.1227 H   0  0  0  0  0  0  0  0  0  0  0  0
  151.3127  134.8111  155.3283 H   0  0  0  0  0  0  0  0  0  0  0  0
  150.5972  134.9961  153.7459 H   0  0  0  0  0  0  0  0  0  0  0  0
  150.9356  137.1796  154.7837 H   0  0  0  0  0  0  0  0  0  0  0  0
  149.9946  136.7509  156.1899 H   0  0  0  0  0  0  0  0  0  0  0  0
  149.0000  136.8213  153.4396 H   0  0  0  0  0  0  0  0  0  0  0  0
  1  2  1  0  0  0  0
  1 24  1  0  0  0  0
  1 25  1  0  0  0  0
  1 26  1  0  0  0  0
  2  3  1  0  0  0  0
  3  8  1  0  0  0  0
  3  4  2  0  0  0  0
  4  5  1  0  0  0  0
  5  6  2  0  0  0  0
  5 27  1  0  0  0  0
  6  7  1  0  0  0  0
  6 28  1  0  0  0  0
  7  8  2  0  0  0  0
  7 29  1  0  0  0  0
  8  9  1  0  0  0  0
  9 10  1  0  0  0  0
  9 30  1  0  0  0  0
 10 11  2  0  0  0  0
 10 12  1  0  0  0  0
 12 13  1  0  0  0  0
 12 31  1  0  0  0  0
 13 14  1  0  0  0  0
 13 32  1  0  0  0  0
 13 33  1  0  0  0  0
 14 15  1  0  0  0  0
 14 16  1  0  0  0  0
 14 17  1  0  0  0  0
 15 34  1  0  0  0  0
 15 35  1  0  0  0  0
 15 36  1  0  0  0  0
 16 37  1  0  0  0  0
 16 38  1  0  0  0  0
 16 39  1  0  0  0  0
 17 23  1  0  0  0  0
 17 18  1  0  0  0  0
 17 51  1  0  0  0  0
 18 19  1  0  0  0  0
 18 40  1  0  0  0  0
 18 41  1  0  0  0  0
 19 20  1  0  0  0  0
 19 42  1  0  0  0  0
 19 43  1  0  0  0  0
 20 21  1  0  0  0  0
 20 22  1  0  0  0  0
 21 44  1  0  0  0  0
 21 45  1  0  0  0  0
 21 46  1  0  0  0  0
 22 23  1  0  0  0  0
 22 47  1  0  0  0  0
 22 48  1  0  0  0  0
 23 49  1  0  0  0  0
 23 50  1  0  0  0  0
M  CHG  1  17   1
M  END
> <s_m_source_file>
AV-unprocessed.smi

> <i_m_source_file_index>
1243

> <i_lp_mmshare_version>
43012

> <i_f3d_flags>
0

> <s_epik_input>
W0NIM11PYzFuW2NIXVtjSF1bY0hdYzFbTkhdQyg9TylbTkhdW0NIMl1DKFtDSDNdKShbQ0gzXSlOMltDSDJdW0NIMl1OKFtDSDNdKVtDSDJdW0NIMl0y

> <s_epik_cmdline>
J2VwaWtfcHl0aG9uJywgJy1waCcsICc3LjAnLCAnLXRuJywgJzgnLCAnLW1hJywgJzIwMCcsICctbWV0YWxfYmluZGluZycsICctaW1hZScsICc8aW5maWxlLm1hZT4nLCAnLW9tYWUnLCAnPG91dGZpbGUubWFlPic=

> <r_epik_Ionization_Penalty>
0.0907124

> <r_epik_Ionization_Penalty_Charging>
0.0886444

> <r_epik_Ionization_Penalty_Neutral>
0.00206798

> <r_epik_State_Penalty>
1.00524

> <r_epik_Charging_Adjusted_Penalty>
1.09388

> <i_epik_Tot_Q>
1

> <i_epik_Tot_abs_Q>
1

> <r_epik_Metal_State_Penalty>
1.00525

> <b_epik_Metal_Only>
0

> <s_lp_Force_Field>
OPLS_2005

> <r_lp_Energy>
29.8833

> <b_lp_Chiralities_Consistent>
1

> <s_lp_Variant>
AV-unprocessed.smi:1243-2

> <Gold.Version>
5.8.1

> <Gold.Id.Protein>
6NUR|6NUR_protein|mol2

> <Gold.PLP.Fitness>
38.7960

> <Gold.PLP.PLP>
-31.5552

> <Gold.PLP.part.hbond>
-2.0000

> <Gold.PLP.part.metal>
0.0000

> <Gold.PLP.part.buried>
-5.3390

> <Gold.PLP.part.nonpolar>
-24.8695

> <Gold.PLP.part.repulsive>
0.3332

> <Gold.PLP.ligand.clash>
0.0000

> <Gold.PLP.ligand.torsion>
0.8514

> <Gold.PLP.Chemscore.Hbond>
2.9440

> <Gold.PLP.Chemscore.CHOScore>
0.0000

> <Gold.PLP.Chemscore.Metal>
0.0000

> <Gold.Chemscore.Hbonds>
donor molecule, donor type, donor heavy atom, donor atom, acceptor molecule, acceptor atom, score
      L1  H    17    51       P1  7948  2.00
      P1  H  7997  8010       L1     2  0.73

> <Gold.PLP.Chemscore.Internal.Correction>
0.1117

> <Gold.Rescore>
     Score         DG    S(hbond)    S(metal)    S(lipo)     H(rot)  DE(clash)    DE(int)     intcor
     13.97     -16.36       1.67        0.00      83.04       1.72       0.08       2.31       ----

> <Gold.Chemscore.Fitness>
13.9683

> <Gold.Chemscore.DG>
-16.3600

> <Gold.Chemscore.ZeroCoef>
-5.4800

> <Gold.Chemscore.Hbond>
1.6679

> <Gold.Chemscore.Metal>
0.0000

> <Gold.Chemscore.Lipo>
83.0417

> <Gold.Chemscore.Internal_Hbond>
0.0000

> <Gold.Chemscore.DEClash>
0.0776

> <Gold.Chemscore.DEInternal>
2.3141

> <Gold.Chemscore.Rot>
1.7213

> <Gold.Chemscore.Internal.Correction>
   9.000000E+99

> <Gold.Chemscore.Hbonds>
donor molecule, donor type, donor heavy atom, donor atom, acceptor molecule, acceptor atom, score
      L1  H    17    51       P1  7948  1.00
      P1  H  7997  8010       L1     2  0.09

> <Gold.Chemscore.Hbond.Weighted>
-5.5707

> <Gold.Chemscore.Metal.Weighted>
-0.0000

> <Gold.Chemscore.Lipo.Weighted>
-9.7159

> <Gold.Chemscore.Internal_Hbond.Weighted>
0.0000

> <Gold.Chemscore.DEClash.Weighted>
0.0776

> <Gold.Chemscore.DEInternal.Weighted>
2.3141

> <Gold.Chemscore.Rot.Weighted>
4.4066

> <Gold.Chemscore.Internal.Correction.Weighted>
   9.000000E+99

> <Gold.Protein.RotatedTorsions>
[ 6907 6896 6895 6894 ] final   79.18 input  -60.11 | X-H torsion
[ 7974 7965 7964 7962 ] final  125.21 input  175.53 | X-H torsion
[ 8008 7997 7996 7995 ] final   23.09 input   59.86 | X-H torsion
[ 10167 10162 10161 10158 ] final -109.17 input  -65.29 | X-H torsion
[ 10718 10713 10712 10709 ] final  -58.00 input   66.30 | X-H torsion
[ 10763 10752 10751 10750 ] final  -96.15 input  -60.55 | X-H torsion
[ 11005 11000 10999 10996 ] final -175.92 input  -57.11 | X-H torsion

> <Gold.Protein.ActiveResidues>
 VAL166  LYS551  ARG553  GLY616  TRP617  ASP618  TYR619  PRO620  LYS621  CYS622 
 ASP623  PHE694  ASN695  SER759  ASP760  ASP761  ALA762  ILE779  LEU786  VAL792 
 PHE793  MET794  SER795  GLU796  ALA797  LYS798  CYS799  TRP800  GLU811  SER814 

> <Gold.Protein.RotatedAtoms>
  152.5188  134.3550  159.9264 H   0  0  0  0  0  0  0  0  0  0  0  0  # atno 6907 bound_to 6896
  151.3502  133.3922  159.2687 H   0  0  0  0  0  0  0  0  0  0  0  0  # atno 6908 bound_to 6896
  150.9733  134.9121  159.7859 H   0  0  0  0  0  0  0  0  0  0  0  0  # atno 6909 bound_to 6896
  145.0756  139.3696  143.4935 H   0  0  0  0  0  0  0  0  0  0  0  0  # atno 7974 bound_to 7965
  154.9757  140.3095  155.4968 H   0  0  0  0  0  0  0  0  0  0  0  0  # atno 8008 bound_to 7997
  156.2960  140.2276  156.4792 H   0  0  0  0  0  0  0  0  0  0  0  0  # atno 8009 bound_to 7997
  154.7836  140.0444  157.1134 H   0  0  0  0  0  0  0  0  0  0  0  0  # atno 8010 bound_to 7997
  140.1582  143.4142  152.1445 H   0  0  0  0  0  0  0  0  0  0  0  0  # atno 10167 bound_to 10162
  156.1168  130.4170  150.0518 H   0  0  0  0  0  0  0  0  0  0  0  0  # atno 10718 bound_to 10713
  154.7214  135.5094  153.8817 H   0  0  0  0  0  0  0  0  0  0  0  0  # atno 10763 bound_to 10752
  153.0865  135.6647  153.9947 H   0  0  0  0  0  0  0  0  0  0  0  0  # atno 10764 bound_to 10752
  153.9769  135.3033  155.3402 H   0  0  0  0  0  0  0  0  0  0  0  0  # atno 10765 bound_to 10752
  140.4578  134.6283  157.4830 H   0  0  0  0  0  0  0  0  0  0  0  0  # atno 11005 bound_to 11000
  146.3530  140.0521  142.8635 LP  0  0  0  0  0  0  0  0  0  0  0  0  # atno 17320 bound_to 7965
  145.1240  140.9479  143.4583 LP  0  0  0  0  0  0  0  0  0  0  0  0  # atno 17321 bound_to 7965
  139.5393  144.7241  151.4786 LP  0  0  0  0  0  0  0  0  0  0  0  0  # atno 17342 bound_to 10162
  140.6660  143.8398  150.6942 LP  0  0  0  0  0  0  0  0  0  0  0  0  # atno 17343 bound_to 10162
  156.8467  130.9444  151.3628 LP  0  0  0  0  0  0  0  0  0  0  0  0  # atno 17370 bound_to 10713
  157.6351  130.8760  149.9344 LP  0  0  0  0  0  0  0  0  0  0  0  0  # atno 17371 bound_to 10713
  139.9964  134.6904  155.9602 LP  0  0  0  0  0  0  0  0  0  0  0  0  # atno 17394 bound_to 11000
  141.1635  133.6538  156.4398 LP  0  0  0  0  0  0  0  0  0  0  0  0  # atno 17395 bound_to 11000

$$$$
