AV-unprocessed.smi:3112|AV-procd|sdf|11836|dock9
  -GOLD-   2272017213D 1   1.00000     0.00000
 Structure written by MMmdl.
 37 37  0  0  0  0  0  0  0  0  2 V2000
  147.3740  139.9192  153.4388 C   0  0  0  0  0  0  0  0  0  0  0  0
  148.4993  140.2804  154.4182 C   0  0  0  0  0  0  0  0  0  0  0  0
  148.2591  141.6037  155.1675 C   0  0  2  0  0  0  0  0  0  0  0  0
  148.6663  142.6774  154.3415 O   0  0  0  0  0  0  0  0  0  0  0  0
  149.0591  141.6748  156.4784 C   0  0  0  0  0  0  0  0  0  0  0  0
  150.3728  142.3190  156.2642 N   0  3  0  0  0  0  0  0  0  0  0  0
  151.3781  142.1052  157.3309 C   0  0  2  0  0  0  0  0  0  0  0  0
  151.7079  140.6028  157.3982 C   0  0  0  0  0  0  0  0  0  0  0  0
  150.9161  142.7175  158.6855 C   0  0  2  0  0  0  0  0  0  0  0  0
  150.5106  144.1998  158.5640 C   0  0  0  0  0  0  0  0  0  0  0  0
  151.8784  142.5008  159.7634 N   0  0  0  0  0  0  0  0  0  0  0  0
  153.1409  141.9497  159.6695 C   0  0  0  0  0  0  0  0  0  0  0  0
  153.6943  141.9720  160.9173 C   0  0  0  0  0  0  0  0  0  0  0  0
  152.6864  142.5703  161.7227 C   0  0  0  0  0  0  0  0  0  0  0  0
  151.6066  142.8923  161.0297 N   0  0  0  0  0  0  0  0  0  0  0  0
  147.5750  138.9630  152.9557 H   0  0  0  0  0  0  0  0  0  0  0  0
  147.2706  140.6689  152.6541 H   0  0  0  0  0  0  0  0  0  0  0  0
  146.4158  139.8355  153.9521 H   0  0  0  0  0  0  0  0  0  0  0  0
  148.5932  139.4707  155.1428 H   0  0  0  0  0  0  0  0  0  0  0  0
  149.4502  140.3196  153.8846 H   0  0  0  0  0  0  0  0  0  0  0  0
  147.1948  141.7087  155.3825 H   0  0  0  0  0  0  0  0  0  0  0  0
  149.0497  143.3479  154.8871 H   0  0  0  0  0  0  0  0  0  0  0  0
  148.5078  142.2590  157.2164 H   0  0  0  0  0  0  0  0  0  0  0  0
  149.1795  140.6734  156.8913 H   0  0  0  0  0  0  0  0  0  0  0  0
  150.7580  141.9949  155.3882 H   0  0  0  0  0  0  0  0  0  0  0  0
  152.2917  142.6152  157.0215 H   0  0  0  0  0  0  0  0  0  0  0  0
  152.4695  140.3883  158.1474 H   0  0  0  0  0  0  0  0  0  0  0  0
  152.0943  140.2495  156.4416 H   0  0  0  0  0  0  0  0  0  0  0  0
  150.8288  140.0025  157.6321 H   0  0  0  0  0  0  0  0  0  0  0  0
  150.0040  142.2060  158.9917 H   0  0  0  0  0  0  0  0  0  0  0  0
  149.7309  144.3303  157.8134 H   0  0  0  0  0  0  0  0  0  0  0  0
  151.3474  144.8393  158.2835 H   0  0  0  0  0  0  0  0  0  0  0  0
  150.1173  144.5733  159.5101 H   0  0  0  0  0  0  0  0  0  0  0  0
  153.5380  141.5901  158.7315 H   0  0  0  0  0  0  0  0  0  0  0  0
  154.6711  141.6162  161.2100 H   0  0  0  0  0  0  0  0  0  0  0  0
  152.7086  142.7828  162.7815 H   0  0  0  0  0  0  0  0  0  0  0  0
  150.2094  143.3127  156.1893 H   0  0  0  0  0  0  0  0  0  0  0  0
  1  2  1  0  0  0  0
  1 16  1  0  0  0  0
  1 17  1  0  0  0  0
  1 18  1  0  0  0  0
  2  3  1  0  0  0  0
  2 19  1  0  0  0  0
  2 20  1  0  0  0  0
  3  4  1  0  0  0  0
  3  5  1  0  0  0  0
  3 21  1  0  0  0  0
  4 22  1  0  0  0  0
  5  6  1  0  0  0  0
  5 23  1  0  0  0  0
  5 24  1  0  0  0  0
  6  7  1  0  0  0  0
  6 25  1  0  0  0  0
  6 37  1  0  0  0  0
  7  8  1  0  0  0  0
  7  9  1  0  0  0  0
  7 26  1  0  0  0  0
  8 27  1  0  0  0  0
  8 28  1  0  0  0  0
  8 29  1  0  0  0  0
  9 10  1  0  0  0  0
  9 11  1  0  0  0  0
  9 30  1  0  0  0  0
 10 31  1  0  0  0  0
 10 32  1  0  0  0  0
 10 33  1  0  0  0  0
 11 15  1  0  0  0  0
 11 12  1  0  0  0  0
 12 13  2  0  0  0  0
 12 34  1  0  0  0  0
 13 14  1  0  0  0  0
 13 35  1  0  0  0  0
 14 15  2  0  0  0  0
 14 36  1  0  0  0  0
M  CHG  1   6   1
M  END
> <s_m_source_file>
AV-unprocessed.smi

> <i_m_source_file_index>
3112

> <i_lp_mmshare_version>
43012

> <i_f3d_flags>
0

> <s_epik_input>
W0NIM11bQ0gyXVtDQEhdKFtPSF0pW0NIMl1bTkhdW0NASF0oW0NIM10pW0NASF0oW0NIM10pbjFbY0hdW2NIXVtjSF1uMQ==

> <s_epik_cmdline>
J2VwaWtfcHl0aG9uJywgJy1waCcsICc3LjAnLCAnLXRuJywgJzgnLCAnLW1hJywgJzIwMCcsICctbWV0YWxfYmluZGluZycsICctaW1hZScsICc8aW5maWxlLm1hZT4nLCAnLW9tYWUnLCAnPG91dGZpbGUubWFlPic=

> <r_lp_tautomer_probability>
1

> <r_epik_Ionization_Penalty>
0.0154842

> <r_epik_Ionization_Penalty_Charging>
0.0154724

> <r_epik_Ionization_Penalty_Neutral>
1.17979e-05

> <r_epik_State_Penalty>
0.0121607

> <r_epik_Charging_Adjusted_Penalty>
0.0276331

> <i_epik_Tot_Q>
1

> <i_epik_Tot_abs_Q>
1

> <r_epik_Metal_State_Penalty>
0.0121863

> <b_epik_Metal_Only>
0

> <s_lp_Force_Field>
OPLS_2005

> <r_lp_Energy>
12.3071

> <b_lp_Chiralities_Consistent>
1

> <s_lp_Variant>
AV-unprocessed.smi:3112-1

> <Gold.Version>
5.8.1

> <Gold.Id.Protein>
6NUR|6NUR_protein|mol2

> <Gold.PLP.Fitness>
42.3741

> <Gold.PLP.PLP>
-34.0830

> <Gold.PLP.part.hbond>
-4.0443

> <Gold.PLP.part.metal>
0.0000

> <Gold.PLP.part.buried>
-4.9298

> <Gold.PLP.part.nonpolar>
-26.2239

> <Gold.PLP.part.repulsive>
0.1896

> <Gold.PLP.ligand.clash>
0.0000

> <Gold.PLP.ligand.torsion>
0.7821

> <Gold.PLP.Chemscore.Hbond>
3.2218

> <Gold.PLP.Chemscore.CHOScore>
0.0000

> <Gold.PLP.Chemscore.Metal>
0.0000

> <Gold.Chemscore.Hbonds>
donor molecule, donor type, donor heavy atom, donor atom, acceptor molecule, acceptor atom, score
      L1  H     4    22       P1  8028  0.94
      L1  H     6    37       P1  8028  1.82
      P1  H  6933  6945       L1    15  0.14
      P1  H  8011  8017       L1     4  0.02

> <Gold.PLP.Chemscore.Internal.Correction>
0.1899

> <Gold.Rescore>
     Score         DG    S(hbond)    S(metal)    S(lipo)     H(rot)  DE(clash)    DE(int)     intcor
     15.62     -16.20       2.10        0.00      84.45       2.41       0.07       0.52       ----

> <Gold.Chemscore.Fitness>
15.6156

> <Gold.Chemscore.DG>
-16.2017

> <Gold.Chemscore.ZeroCoef>
-5.4800

> <Gold.Chemscore.Hbond>
2.0980

> <Gold.Chemscore.Metal>
0.0000

> <Gold.Chemscore.Lipo>
84.4537

> <Gold.Chemscore.Internal_Hbond>
0.0000

> <Gold.Chemscore.DEClash>
0.0672

> <Gold.Chemscore.DEInternal>
0.5189

> <Gold.Chemscore.Rot>
2.4089

> <Gold.Chemscore.Internal.Correction>
   9.000000E+99

> <Gold.Chemscore.Hbonds>
donor molecule, donor type, donor heavy atom, donor atom, acceptor molecule, acceptor atom, score
      L1  H     4    22       P1  8028  0.89
      L1  H     6    37       P1  8028  0.86
      P1  H  6933  6945       L1    15  0.04
      P1  H  8011  8017       L1     4  0.02

> <Gold.Chemscore.Hbond.Weighted>
-7.0073

> <Gold.Chemscore.Metal.Weighted>
-0.0000

> <Gold.Chemscore.Lipo.Weighted>
-9.8811

> <Gold.Chemscore.Internal_Hbond.Weighted>
0.0000

> <Gold.Chemscore.DEClash.Weighted>
0.0672

> <Gold.Chemscore.DEInternal.Weighted>
0.5189

> <Gold.Chemscore.Rot.Weighted>
6.1667

> <Gold.Chemscore.Internal.Correction.Weighted>
   9.000000E+99

> <Gold.Protein.RotatedTorsions>
[ 6907 6896 6895 6894 ] final   43.38 input  -60.11 | X-H torsion
[ 7974 7965 7964 7962 ] final   98.99 input  175.53 | X-H torsion
[ 8008 7997 7996 7995 ] final  113.08 input   59.86 | X-H torsion
[ 10167 10162 10161 10158 ] final  -24.32 input  -65.29 | X-H torsion
[ 10718 10713 10712 10709 ] final  175.72 input   66.30 | X-H torsion
[ 10763 10752 10751 10750 ] final  -57.02 input  -60.55 | X-H torsion
[ 11005 11000 10999 10996 ] final  -77.43 input  -57.11 | X-H torsion

> <Gold.Protein.ActiveResidues>
 VAL166  LYS551  ARG553  GLY616  TRP617  ASP618  TYR619  PRO620  LYS621  CYS622 
 ASP623  PHE694  ASN695  SER759  ASP760  ASP761  ALA762  ILE779  LEU786  VAL792 
 PHE793  MET794  SER795  GLU796  ALA797  LYS798  CYS799  TRP800  GLU811  SER814 

> <Gold.Protein.RotatedAtoms>
  152.2195  134.8426  160.0487 H   0  0  0  0  0  0  0  0  0  0  0  0  # atno 6907 bound_to 6896
  151.9215  133.3581  159.3907 H   0  0  0  0  0  0  0  0  0  0  0  0  # atno 6908 bound_to 6896
  150.6996  134.4555  159.5400 H   0  0  0  0  0  0  0  0  0  0  0  0  # atno 6909 bound_to 6896
  145.4049  139.2342  143.3280 H   0  0  0  0  0  0  0  0  0  0  0  0  # atno 7974 bound_to 7965
  156.2235  140.2986  156.0009 H   0  0  0  0  0  0  0  0  0  0  0  0  # atno 8008 bound_to 7997
  155.2419  140.0422  157.2993 H   0  0  0  0  0  0  0  0  0  0  0  0  # atno 8009 bound_to 7997
  154.5878  140.2393  155.7971 H   0  0  0  0  0  0  0  0  0  0  0  0  # atno 8010 bound_to 7997
  140.7288  143.4364  151.0724 H   0  0  0  0  0  0  0  0  0  0  0  0  # atno 10167 bound_to 10162
  156.9307  130.9970  151.2987 H   0  0  0  0  0  0  0  0  0  0  0  0  # atno 10718 bound_to 10713
  154.2159  135.6386  153.5129 H   0  0  0  0  0  0  0  0  0  0  0  0  # atno 10763 bound_to 10752
  152.9979  135.5485  154.6165 H   0  0  0  0  0  0  0  0  0  0  0  0  # atno 10764 bound_to 10752
  154.5614  135.2909  155.0889 H   0  0  0  0  0  0  0  0  0  0  0  0  # atno 10765 bound_to 10752
  141.1660  133.7022  156.7819 H   0  0  0  0  0  0  0  0  0  0  0  0  # atno 11005 bound_to 11000
  146.2734  140.4752  142.8805 LP  0  0  0  0  0  0  0  0  0  0  0  0  # atno 17320 bound_to 7965
  144.8349  140.6765  143.6267 LP  0  0  0  0  0  0  0  0  0  0  0  0  # atno 17321 bound_to 7965
  139.8026  143.8062  152.3164 LP  0  0  0  0  0  0  0  0  0  0  0  0  # atno 17342 bound_to 10162
  139.8084  144.7346  150.9730 LP  0  0  0  0  0  0  0  0  0  0  0  0  # atno 17343 bound_to 10162
  157.5849  130.8402  149.8575 LP  0  0  0  0  0  0  0  0  0  0  0  0  # atno 17370 bound_to 10713
  156.0448  130.3730  150.1344 LP  0  0  0  0  0  0  0  0  0  0  0  0  # atno 17371 bound_to 10713
  140.2388  134.8629  157.3552 LP  0  0  0  0  0  0  0  0  0  0  0  0  # atno 17394 bound_to 11000
  140.1816  134.4482  155.7768 LP  0  0  0  0  0  0  0  0  0  0  0  0  # atno 17395 bound_to 11000

$$$$
