AV-unprocessed.smi:260|AV-procd|sdf|1980|dock9
  -GOLD-   2262021153D 1   1.00000     0.00000
 Structure written by MMmdl.
 53 56  0  0  0  0  0  0  0  0  1 V2000
  146.3893  134.4746  152.7758 C   0  0  0  0  0  0  0  0  0  0  0  0
  147.6862  134.3442  153.4213 N   0  0  0  0  0  0  0  0  0  0  0  0
  147.9429  133.5242  154.4532 C   0  0  0  0  0  0  0  0  0  0  0  0
  147.0708  132.8123  154.9536 O   0  0  0  0  0  0  0  0  0  0  0  0
  149.3834  133.4863  155.0287 C   0  0  2  0  0  0  0  0  0  0  0  0
  150.0384  132.1441  154.6487 C   0  0  0  0  0  0  0  0  0  0  0  0
  149.4665  133.7649  156.5470 C   0  0  0  0  0  0  0  0  0  0  0  0
  149.4305  135.2941  156.6688 C   0  0  0  0  0  0  0  0  0  0  0  0
  149.8777  135.7953  155.3771 N   0  0  0  0  0  0  0  0  0  0  0  0
  150.5010  136.9966  155.2669 C   0  0  0  0  0  0  0  0  0  0  0  0
  151.5250  137.1250  154.3817 N   0  0  0  0  0  0  0  0  0  0  0  0
  152.1638  138.2907  154.2465 C   0  0  0  0  0  0  0  0  0  0  0  0
  151.9420  139.4418  154.8828 N   0  0  0  0  0  0  0  0  0  0  0  0
  150.9068  139.3265  155.7624 C   0  0  0  0  0  0  0  0  0  0  0  0
  150.1372  138.1548  156.0153 C   0  0  0  0  0  0  0  0  0  0  0  0
  149.1625  138.4339  156.9684 N   0  0  0  0  0  0  0  0  0  0  0  0
  149.3526  139.6896  157.2675 C   0  0  0  0  0  0  0  0  0  0  0  0
  150.3817  140.3019  156.5906 N   0  0  0  0  0  0  0  0  0  0  0  0
  150.8173  141.6809  156.7249 C   0  0  0  0  0  0  0  0  0  0  0  0
  150.1063  142.4090  157.8827 C   0  0  2  0  0  0  0  0  0  0  0  0
  148.7683  142.6787  157.5081 O   0  0  0  0  0  0  0  0  0  0  0  0
  150.7973  143.7342  158.2549 C   0  0  1  0  0  0  0  0  0  0  0  0
  150.2016  144.4340  159.4791 C   0  0  0  0  0  0  0  0  0  0  0  0
  151.3721  145.2565  159.9646 C   0  0  0  0  0  0  0  0  0  0  0  0
  152.5363  144.3018  159.7237 C   0  0  0  0  0  0  0  0  0  0  0  0
  152.1627  143.5062  158.6017 O   0  0  0  0  0  0  0  0  0  0  0  0
  150.1945  134.6815  154.4916 C   0  0  0  0  0  0  0  0  0  0  0  0
  146.4329  135.2465  152.0078 H   0  0  0  0  0  0  0  0  0  0  0  0
  145.6200  134.7544  153.4968 H   0  0  0  0  0  0  0  0  0  0  0  0
  146.0987  133.5365  152.3016 H   0  0  0  0  0  0  0  0  0  0  0  0
  148.4423  134.9053  153.0568 H   0  0  0  0  0  0  0  0  0  0  0  0
  151.0736  132.0971  154.9877 H   0  0  0  0  0  0  0  0  0  0  0  0
  150.0464  131.9901  153.5686 H   0  0  0  0  0  0  0  0  0  0  0  0
  149.5089  131.3044  155.1003 H   0  0  0  0  0  0  0  0  0  0  0  0
  148.6994  133.2747  157.1471 H   0  0  0  0  0  0  0  0  0  0  0  0
  150.4248  133.4084  156.9276 H   0  0  0  0  0  0  0  0  0  0  0  0
  148.4140  135.6440  156.8507 H   0  0  0  0  0  0  0  0  0  0  0  0
  150.0648  135.6369  157.4872 H   0  0  0  0  0  0  0  0  0  0  0  0
  152.9678  138.3018  153.5254 H   0  0  0  0  0  0  0  0  0  0  0  0
  148.7455  140.2053  157.9971 H   0  0  0  0  0  0  0  0  0  0  0  0
  151.8963  141.6794  156.8823 H   0  0  0  0  0  0  0  0  0  0  0  0
  150.6417  142.1977  155.7803 H   0  0  0  0  0  0  0  0  0  0  0  0
  150.0856  141.7577  158.7576 H   0  0  0  0  0  0  0  0  0  0  0  0
  148.7768  143.2548  156.7592 H   0  0  0  0  0  0  0  0  0  0  0  0
  150.7829  144.4215  157.4073 H   0  0  0  0  0  0  0  0  0  0  0  0
  149.3253  145.0372  159.2405 H   0  0  0  0  0  0  0  0  0  0  0  0
  149.9178  143.7057  160.2404 H   0  0  0  0  0  0  0  0  0  0  0  0
  151.4832  146.1505  159.3495 H   0  0  0  0  0  0  0  0  0  0  0  0
  151.2799  145.5650  161.0065 H   0  0  0  0  0  0  0  0  0  0  0  0
  153.4751  144.8272  159.5466 H   0  0  0  0  0  0  0  0  0  0  0  0
  152.6731  143.6437  160.5824 H   0  0  0  0  0  0  0  0  0  0  0  0
  151.2647  134.4743  154.5384 H   0  0  0  0  0  0  0  0  0  0  0  0
  149.9499  134.9249  153.4566 H   0  0  0  0  0  0  0  0  0  0  0  0
  1  2  1  0  0  0  0
  1 28  1  0  0  0  0
  1 29  1  0  0  0  0
  1 30  1  0  0  0  0
  2  3  1  0  0  0  0
  2 31  1  0  0  0  0
  3  4  2  0  0  0  0
  3  5  1  0  0  0  0
  5 27  1  0  0  0  0
  5  6  1  0  0  0  0
  5  7  1  0  0  0  0
  6 32  1  0  0  0  0
  6 33  1  0  0  0  0
  6 34  1  0  0  0  0
  7  8  1  0  0  0  0
  7 35  1  0  0  0  0
  7 36  1  0  0  0  0
  8  9  1  0  0  0  0
  8 37  1  0  0  0  0
  8 38  1  0  0  0  0
  9 10  1  0  0  0  0
  9 27  1  0  0  0  0
 10 15  1  0  0  0  0
 10 11  2  0  0  0  0
 11 12  1  0  0  0  0
 12 13  2  0  0  0  0
 12 39  1  0  0  0  0
 13 14  1  0  0  0  0
 14 18  1  0  0  0  0
 14 15  2  0  0  0  0
 15 16  1  0  0  0  0
 16 17  2  0  0  0  0
 17 18  1  0  0  0  0
 17 40  1  0  0  0  0
 18 19  1  0  0  0  0
 19 20  1  0  0  0  0
 19 41  1  0  0  0  0
 19 42  1  0  0  0  0
 20 21  1  0  0  0  0
 20 22  1  0  0  0  0
 20 43  1  0  0  0  0
 21 44  1  0  0  0  0
 22 26  1  0  0  0  0
 22 23  1  0  0  0  0
 22 45  1  0  0  0  0
 23 24  1  0  0  0  0
 23 46  1  0  0  0  0
 23 47  1  0  0  0  0
 24 25  1  0  0  0  0
 24 48  1  0  0  0  0
 24 49  1  0  0  0  0
 25 26  1  0  0  0  0
 25 50  1  0  0  0  0
 25 51  1  0  0  0  0
 27 52  1  0  0  0  0
 27 53  1  0  0  0  0
M  END
> <s_m_source_file>
AV-unprocessed.smi

> <i_m_source_file_index>
260

> <i_lp_mmshare_version>
43012

> <i_f3d_flags>
0

> <s_epik_input>
W0NIM11bTkhdQyg9TylbQ0BAXTEoW0NIM10pW0NIMl1bQ0gyXU4oW0NIMl0xKWMobltjSF1uMiljKGMyMyluW2NIXW4zW0NIMl1bQ0BIXShbT0hdKVtDQEBIXTRbQ0gyXVtDSDJdW0NIMl1PNA==

> <s_epik_cmdline>
J2VwaWtfcHl0aG9uJywgJy1waCcsICc3LjAnLCAnLXRuJywgJzgnLCAnLW1hJywgJzIwMCcsICctbWV0YWxfYmluZGluZycsICctaW1hZScsICc8aW5maWxlLm1hZT4nLCAnLW9tYWUnLCAnPG91dGZpbGUubWFlPic=

> <r_lp_tautomer_probability>
1

> <r_epik_Ionization_Penalty>
0.00115068

> <r_epik_Ionization_Penalty_Charging>
0

> <r_epik_Ionization_Penalty_Neutral>
0.00115068

> <r_epik_State_Penalty>
0.000668876

> <r_epik_Charging_Adjusted_Penalty>
0.000668876

> <i_epik_Tot_Q>
0

> <i_epik_Tot_abs_Q>
0

> <r_epik_Metal_State_Penalty>
-0

> <b_epik_Metal_Only>
0

> <s_lp_Force_Field>
OPLS_2005

> <r_lp_Energy>
49.109

> <b_lp_Chiralities_Consistent>
1

> <s_lp_Variant>
AV-unprocessed.smi:260-6

> <Gold.Version>
5.8.1

> <Gold.Id.Protein>
6NUR|6NUR_protein|mol2

> <Gold.PLP.Fitness>
51.3050

> <Gold.PLP.PLP>
-40.8684

> <Gold.PLP.part.hbond>
-4.0000

> <Gold.PLP.part.metal>
0.0000

> <Gold.PLP.part.buried>
-9.0130

> <Gold.PLP.part.nonpolar>
-29.2303

> <Gold.PLP.part.repulsive>
0.2564

> <Gold.PLP.ligand.clash>
0.0796

> <Gold.PLP.ligand.torsion>
0.7624

> <Gold.PLP.Chemscore.Hbond>
3.9040

> <Gold.PLP.Chemscore.CHOScore>
0.0000

> <Gold.PLP.Chemscore.Metal>
0.0000

> <Gold.Chemscore.Hbonds>
donor molecule, donor type, donor heavy atom, donor atom, acceptor molecule, acceptor atom, score
      L1  H     2    31       P1  7948  0.94
      L1  H    21    44       P1  8028  1.00
      P1  H  7989  7998       L1    13  0.96
      P1  H 10752 10764       L1    11  0.98

> <Gold.PLP.Chemscore.Internal.Correction>
0.3290

> <Gold.Rescore>
     Score         DG    S(hbond)    S(metal)    S(lipo)     H(rot)  DE(clash)    DE(int)     intcor
     17.44     -18.88       2.92        0.00      86.50       2.53       0.72       0.72       ----

> <Gold.Chemscore.Fitness>
17.4406

> <Gold.Chemscore.DG>
-18.8816

> <Gold.Chemscore.ZeroCoef>
-5.4800

> <Gold.Chemscore.Hbond>
2.9183

> <Gold.Chemscore.Metal>
0.0000

> <Gold.Chemscore.Lipo>
86.5011

> <Gold.Chemscore.Internal_Hbond>
0.0000

> <Gold.Chemscore.DEClash>
0.7200

> <Gold.Chemscore.DEInternal>
0.7209

> <Gold.Chemscore.Rot>
2.5259

> <Gold.Chemscore.Internal.Correction>
   9.000000E+99

> <Gold.Chemscore.Hbonds>
donor molecule, donor type, donor heavy atom, donor atom, acceptor molecule, acceptor atom, score
      L1  H     2    31       P1  7948  0.59
      L1  H    21    44       P1  8028  0.78
      P1  H  7989  7998       L1    13  0.51
      P1  H 10752 10764       L1    11  0.52

> <Gold.Chemscore.Hbond.Weighted>
-9.7473

> <Gold.Chemscore.Metal.Weighted>
-0.0000

> <Gold.Chemscore.Lipo.Weighted>
-10.1206

> <Gold.Chemscore.Internal_Hbond.Weighted>
0.0000

> <Gold.Chemscore.DEClash.Weighted>
0.7200

> <Gold.Chemscore.DEInternal.Weighted>
0.7209

> <Gold.Chemscore.Rot.Weighted>
6.4663

> <Gold.Chemscore.Internal.Correction.Weighted>
   9.000000E+99

> <Gold.Protein.RotatedTorsions>
[ 6907 6896 6895 6894 ] final   50.71 input  -60.11 | X-H torsion
[ 7974 7965 7964 7962 ] final  -32.16 input  175.53 | X-H torsion
[ 8008 7997 7996 7995 ] final -141.82 input   59.86 | X-H torsion
[ 10167 10162 10161 10158 ] final   37.96 input  -65.29 | X-H torsion
[ 10718 10713 10712 10709 ] final -134.57 input   66.30 | X-H torsion
[ 10763 10752 10751 10750 ] final  -72.51 input  -60.55 | X-H torsion
[ 11005 11000 10999 10996 ] final  -81.55 input  -57.11 | X-H torsion

> <Gold.Protein.ActiveResidues>
 VAL166  LYS551  ARG553  GLY616  TRP617  ASP618  TYR619  PRO620  LYS621  CYS622 
 ASP623  PHE694  ASN695  SER759  ASP760  ASP761  ALA762  ILE779  LEU786  VAL792 
 PHE793  MET794  SER795  GLU796  ALA797  LYS798  CYS799  TRP800  GLU811  SER814 

> <Gold.Protein.RotatedAtoms>
  152.3047  134.7569  160.0349 H   0  0  0  0  0  0  0  0  0  0  0  0  # atno 6907 bound_to 6896
  151.8070  133.3371  159.3552 H   0  0  0  0  0  0  0  0  0  0  0  0  # atno 6908 bound_to 6896
  150.7291  134.5630  159.5896 H   0  0  0  0  0  0  0  0  0  0  0  0  # atno 6909 bound_to 6896
  146.1011  140.5758  142.8820 H   0  0  0  0  0  0  0  0  0  0  0  0  # atno 7974 bound_to 7965
  155.4840  140.0562  157.2963 H   0  0  0  0  0  0  0  0  0  0  0  0  # atno 8008 bound_to 7997
  154.4649  140.2014  156.0097 H   0  0  0  0  0  0  0  0  0  0  0  0  # atno 8009 bound_to 7997
  156.0956  140.3227  155.7878 H   0  0  0  0  0  0  0  0  0  0  0  0  # atno 8010 bound_to 7997
  140.3982  144.1760  150.6132 H   0  0  0  0  0  0  0  0  0  0  0  0  # atno 10167 bound_to 10162
  156.2569  130.7186  151.1106 H   0  0  0  0  0  0  0  0  0  0  0  0  # atno 10718 bound_to 10713
  154.4466  135.5927  153.6164 H   0  0  0  0  0  0  0  0  0  0  0  0  # atno 10763 bound_to 10752
  152.9810  135.6011  154.3656 H   0  0  0  0  0  0  0  0  0  0  0  0  # atno 10764 bound_to 10752
  154.3512  135.2841  155.2349 H   0  0  0  0  0  0  0  0  0  0  0  0  # atno 10765 bound_to 10752
  141.1666  133.7202  156.8439 H   0  0  0  0  0  0  0  0  0  0  0  0  # atno 11005 bound_to 11000
  144.7433  140.5002  143.6853 LP  0  0  0  0  0  0  0  0  0  0  0  0  # atno 17320 bound_to 7965
  145.5852  139.1491  143.3213 LP  0  0  0  0  0  0  0  0  0  0  0  0  # atno 17321 bound_to 7965
  140.4768  143.2393  151.9012 LP  0  0  0  0  0  0  0  0  0  0  0  0  # atno 17342 bound_to 10162
  139.4786  144.5312  151.8664 LP  0  0  0  0  0  0  0  0  0  0  0  0  # atno 17343 bound_to 10162
  157.7236  131.0665  150.6031 LP  0  0  0  0  0  0  0  0  0  0  0  0  # atno 17370 bound_to 10713
  156.6115  130.4381  149.5857 LP  0  0  0  0  0  0  0  0  0  0  0  0  # atno 17371 bound_to 10713
  140.1964  134.8929  157.3119 LP  0  0  0  0  0  0  0  0  0  0  0  0  # atno 17394 bound_to 11000
  140.2235  134.3995  155.7555 LP  0  0  0  0  0  0  0  0  0  0  0  0  # atno 17395 bound_to 11000

$$$$
