AV-unprocessed.smi:2850|AV-procd|sdf|10970|dock10
  -GOLD-   2272015423D 1   1.00000     0.00000
 Structure written by MMmdl.
 44 45  0  0  0  0  0  0  0  0  1 V2000
  155.0852  134.8000  163.2402 C   0  0  0  0  0  0  0  0  0  0  0  0
  154.3848  136.2431  164.0893 S   0  0  0  0  0  0  0  0  0  0  0  0
  154.3391  137.5666  162.9187 C   0  0  0  0  0  0  0  0  0  0  0  0
  153.7009  137.4034  161.6759 C   0  0  0  0  0  0  0  0  0  0  0  0
  153.7103  138.5060  160.8037 C   0  0  0  0  0  0  0  0  0  0  0  0
  154.3552  139.6812  161.2400 C   0  0  0  0  0  0  0  0  0  0  0  0
  154.3775  140.7979  160.3938 N   0  0  0  0  0  0  0  0  0  0  0  0
  153.7361  142.0413  160.7984 C   0  0  0  0  0  0  0  0  0  0  0  0
  153.2281  142.8398  159.5907 C   0  0  1  0  0  0  0  0  0  0  0  0
  152.0979  142.0915  158.8571 C   0  0  0  0  0  0  0  0  0  0  0  0
  151.5484  142.8658  157.7493 N   0  0  0  0  0  0  0  0  0  0  0  0
  150.4862  142.1196  157.0723 C   0  0  0  0  0  0  0  0  0  0  0  0
  150.9503  141.0807  156.0290 C   0  0  0  0  0  0  0  0  0  0  0  0
  149.7540  140.5752  155.2092 C   0  0  0  0  0  0  0  0  0  0  0  0
  151.6875  139.9027  156.6864 C   0  0  0  0  0  0  0  0  0  0  0  0
  151.0962  144.1595  158.2557 C   0  0  0  0  0  0  0  0  0  0  0  0
  152.2149  144.9060  159.0019 C   0  0  0  0  0  0  0  0  0  0  0  0
  152.7162  144.0875  160.0533 O   0  0  0  0  0  0  0  0  0  0  0  0
  154.9505  139.7634  162.4574 N   0  0  0  0  0  0  0  0  0  0  0  0
  154.9442  138.7172  163.2907 N   0  0  0  0  0  0  0  0  0  0  0  0
  155.1316  133.9509  163.9217 H   0  0  0  0  0  0  0  0  0  0  0  0
  156.0947  135.0155  162.8897 H   0  0  0  0  0  0  0  0  0  0  0  0
  154.4688  134.5222  162.3851 H   0  0  0  0  0  0  0  0  0  0  0  0
  153.2240  136.4737  161.4022 H   0  0  0  0  0  0  0  0  0  0  0  0
  153.2377  138.4492  159.8339 H   0  0  0  0  0  0  0  0  0  0  0  0
  154.9816  140.8043  159.5848 H   0  0  0  0  0  0  0  0  0  0  0  0
  152.8959  141.7997  161.4507 H   0  0  0  0  0  0  0  0  0  0  0  0
  154.4343  142.6435  161.3813 H   0  0  0  0  0  0  0  0  0  0  0  0
  154.0533  143.0171  158.8981 H   0  0  0  0  0  0  0  0  0  0  0  0
  152.4815  141.1409  158.4846 H   0  0  0  0  0  0  0  0  0  0  0  0
  151.3043  141.8495  159.5661 H   0  0  0  0  0  0  0  0  0  0  0  0
  149.8920  141.5929  157.8207 H   0  0  0  0  0  0  0  0  0  0  0  0
  149.8017  142.8250  156.5981 H   0  0  0  0  0  0  0  0  0  0  0  0
  151.6321  141.5557  155.3243 H   0  0  0  0  0  0  0  0  0  0  0  0
  149.0213  140.0756  155.8438 H   0  0  0  0  0  0  0  0  0  0  0  0
  150.0717  139.8651  154.4451 H   0  0  0  0  0  0  0  0  0  0  0  0
  149.2489  141.3979  154.7024 H   0  0  0  0  0  0  0  0  0  0  0  0
  151.0486  139.3854  157.4027 H   0  0  0  0  0  0  0  0  0  0  0  0
  152.5783  140.2392  157.2175 H   0  0  0  0  0  0  0  0  0  0  0  0
  152.0093  139.1749  155.9410 H   0  0  0  0  0  0  0  0  0  0  0  0
  150.7482  144.7884  157.4371 H   0  0  0  0  0  0  0  0  0  0  0  0
  150.2474  144.0186  158.9269 H   0  0  0  0  0  0  0  0  0  0  0  0
  153.0245  145.1714  158.3201 H   0  0  0  0  0  0  0  0  0  0  0  0
  151.8339  145.8357  159.4242 H   0  0  0  0  0  0  0  0  0  0  0  0
  1  2  1  0  0  0  0
  1 21  1  0  0  0  0
  1 22  1  0  0  0  0
  1 23  1  0  0  0  0
  2  3  1  0  0  0  0
  3 20  1  0  0  0  0
  3  4  2  0  0  0  0
  4  5  1  0  0  0  0
  4 24  1  0  0  0  0
  5  6  2  0  0  0  0
  5 25  1  0  0  0  0
  6  7  1  0  0  0  0
  6 19  1  0  0  0  0
  7  8  1  0  0  0  0
  7 26  1  0  0  0  0
  8  9  1  0  0  0  0
  8 27  1  0  0  0  0
  8 28  1  0  0  0  0
  9 18  1  0  0  0  0
  9 10  1  0  0  0  0
  9 29  1  0  0  0  0
 10 11  1  0  0  0  0
 10 30  1  0  0  0  0
 10 31  1  0  0  0  0
 11 12  1  0  0  0  0
 11 16  1  0  0  0  0
 12 13  1  0  0  0  0
 12 32  1  0  0  0  0
 12 33  1  0  0  0  0
 13 14  1  0  0  0  0
 13 15  1  0  0  0  0
 13 34  1  0  0  0  0
 14 35  1  0  0  0  0
 14 36  1  0  0  0  0
 14 37  1  0  0  0  0
 15 38  1  0  0  0  0
 15 39  1  0  0  0  0
 15 40  1  0  0  0  0
 16 17  1  0  0  0  0
 16 41  1  0  0  0  0
 16 42  1  0  0  0  0
 17 18  1  0  0  0  0
 17 43  1  0  0  0  0
 17 44  1  0  0  0  0
 19 20  2  0  0  0  0
M  END
> <s_m_source_file>
AV-unprocessed.smi

> <i_m_source_file_index>
2850

> <i_lp_mmshare_version>
43012

> <i_f3d_flags>
0

> <s_epik_input>
W0NIM11TYzFbY0hdW2NIXWMobm4xKVtOSF1bQ0gyXVtDQEBIXTJbQ0gyXU4oW0NIMl1bQ0gyXU8yKVtDSDJdW0NIXShbQ0gzXSlbQ0gzXQ==

> <s_epik_cmdline>
J2VwaWtfcHl0aG9uJywgJy1waCcsICc3LjAnLCAnLXRuJywgJzgnLCAnLW1hJywgJzIwMCcsICctbWV0YWxfYmluZGluZycsICctaW1hZScsICc8aW5maWxlLm1hZT4nLCAnLW9tYWUnLCAnPG91dGZpbGUubWFlPic=

> <r_lp_tautomer_probability>
0.999978

> <r_epik_Ionization_Penalty>
1.20939

> <r_epik_Ionization_Penalty_Charging>
0

> <r_epik_Ionization_Penalty_Neutral>
1.20939

> <r_epik_State_Penalty>
1.27042

> <r_epik_Charging_Adjusted_Penalty>
1.27042

> <i_epik_Tot_Q>
0

> <i_epik_Tot_abs_Q>
0

> <r_epik_Metal_State_Penalty>
1.26998

> <b_epik_Metal_Only>
0

> <s_lp_Force_Field>
OPLS_2005

> <r_lp_Energy>
30.7386

> <b_lp_Chiralities_Consistent>
1

> <s_lp_Variant>
AV-unprocessed.smi:2850-6

> <Gold.Version>
5.8.1

> <Gold.Id.Protein>
6NUR|6NUR_protein|mol2

> <Gold.PLP.Fitness>
41.0485

> <Gold.PLP.PLP>
-43.2048

> <Gold.PLP.part.hbond>
0.0000

> <Gold.PLP.part.metal>
0.0000

> <Gold.PLP.part.buried>
-3.3669

> <Gold.PLP.part.nonpolar>
-38.0721

> <Gold.PLP.part.repulsive>
0.1527

> <Gold.PLP.ligand.clash>
0.0000

> <Gold.PLP.ligand.torsion>
1.1153

> <Gold.PLP.Chemscore.Hbond>
0.0000

> <Gold.PLP.Chemscore.CHOScore>
0.0000

> <Gold.PLP.Chemscore.Metal>
0.0000

> <Gold.PLP.Chemscore.Internal.Correction>
0.0742

> <Gold.Rescore>
     Score         DG    S(hbond)    S(metal)    S(lipo)     H(rot)  DE(clash)    DE(int)     intcor
     14.60     -16.29       0.00        0.00     126.29       1.55       0.21       1.49       ----

> <Gold.Chemscore.Fitness>
14.5956

> <Gold.Chemscore.DG>
-16.2946

> <Gold.Chemscore.ZeroCoef>
-5.4800

> <Gold.Chemscore.Hbond>
0.0000

> <Gold.Chemscore.Metal>
0.0000

> <Gold.Chemscore.Lipo>
126.2872

> <Gold.Chemscore.Internal_Hbond>
0.0000

> <Gold.Chemscore.DEClash>
0.2077

> <Gold.Chemscore.DEInternal>
1.4913

> <Gold.Chemscore.Rot>
1.5473

> <Gold.Chemscore.Internal.Correction>
   9.000000E+99

> <Gold.Chemscore.Hbond.Weighted>
-0.0000

> <Gold.Chemscore.Metal.Weighted>
-0.0000

> <Gold.Chemscore.Lipo.Weighted>
-14.7756

> <Gold.Chemscore.Internal_Hbond.Weighted>
0.0000

> <Gold.Chemscore.DEClash.Weighted>
0.2077

> <Gold.Chemscore.DEInternal.Weighted>
1.4913

> <Gold.Chemscore.Rot.Weighted>
3.9610

> <Gold.Chemscore.Internal.Correction.Weighted>
   9.000000E+99

> <Gold.Protein.RotatedTorsions>
[ 6907 6896 6895 6894 ] final   85.06 input  -60.11 | X-H torsion
[ 7974 7965 7964 7962 ] final   20.96 input  175.53 | X-H torsion
[ 8008 7997 7996 7995 ] final  -43.40 input   59.86 | X-H torsion
[ 10167 10162 10161 10158 ] final    0.57 input  -65.29 | X-H torsion
[ 10718 10713 10712 10709 ] final  152.59 input   66.30 | X-H torsion
[ 10763 10752 10751 10750 ] final   52.10 input  -60.55 | X-H torsion
[ 11005 11000 10999 10996 ] final  -76.51 input  -57.11 | X-H torsion

> <Gold.Protein.ActiveResidues>
 VAL166  LYS551  ARG553  GLY616  TRP617  ASP618  TYR619  PRO620  LYS621  CYS622 
 ASP623  PHE694  ASN695  SER759  ASP760  ASP761  ALA762  ILE779  LEU786  VAL792 
 PHE793  MET794  SER795  GLU796  ALA797  LYS798  CYS799  TRP800  GLU811  SER814 

> <Gold.Protein.RotatedAtoms>
  152.5366  134.2645  159.8947 H   0  0  0  0  0  0  0  0  0  0  0  0  # atno 6907 bound_to 6896
  151.2603  133.4298  159.2623 H   0  0  0  0  0  0  0  0  0  0  0  0  # atno 6908 bound_to 6896
  151.0458  134.9653  159.8242 H   0  0  0  0  0  0  0  0  0  0  0  0  # atno 6909 bound_to 6896
  146.2090  139.8095  142.8703 H   0  0  0  0  0  0  0  0  0  0  0  0  # atno 7974 bound_to 7965
  154.3997  140.1449  156.3512 H   0  0  0  0  0  0  0  0  0  0  0  0  # atno 8008 bound_to 7997
  155.8267  140.3467  155.5526 H   0  0  0  0  0  0  0  0  0  0  0  0  # atno 8009 bound_to 7997
  155.8231  140.0901  157.1827 H   0  0  0  0  0  0  0  0  0  0  0  0  # atno 8010 bound_to 7997
  140.6723  143.7015  150.7948 H   0  0  0  0  0  0  0  0  0  0  0  0  # atno 10167 bound_to 10162
  157.2558  131.0788  151.1699 H   0  0  0  0  0  0  0  0  0  0  0  0  # atno 10718 bound_to 10713
  152.9787  135.5823  154.4524 H   0  0  0  0  0  0  0  0  0  0  0  0  # atno 10763 bound_to 10752
  154.4111  135.2770  155.2038 H   0  0  0  0  0  0  0  0  0  0  0  0  # atno 10764 bound_to 10752
  154.3827  135.6143  153.5854 H   0  0  0  0  0  0  0  0  0  0  0  0  # atno 10765 bound_to 10752
  141.1654  133.6986  156.7680 H   0  0  0  0  0  0  0  0  0  0  0  0  # atno 11005 bound_to 11000
  145.3211  141.0244  143.3500 LP  0  0  0  0  0  0  0  0  0  0  0  0  # atno 17320 bound_to 7965
  144.8866  139.4831  143.6698 LP  0  0  0  0  0  0  0  0  0  0  0  0  # atno 17321 bound_to 7965
  140.0702  143.5068  152.2583 LP  0  0  0  0  0  0  0  0  0  0  0  0  # atno 17342 bound_to 10162
  139.5997  144.7578  151.3202 LP  0  0  0  0  0  0  0  0  0  0  0  0  # atno 17343 bound_to 10162
  157.3228  130.6946  149.6279 LP  0  0  0  0  0  0  0  0  0  0  0  0  # atno 17370 bound_to 10713
  155.9665  130.4330  150.4988 LP  0  0  0  0  0  0  0  0  0  0  0  0  # atno 17371 bound_to 10713
  140.2485  134.8559  157.3644 LP  0  0  0  0  0  0  0  0  0  0  0  0  # atno 17394 bound_to 11000
  140.1726  134.4589  155.7822 LP  0  0  0  0  0  0  0  0  0  0  0  0  # atno 17395 bound_to 11000

$$$$
