AV-unprocessed.smi:593|AV-procd|sdf|3013|dock9
  -GOLD-   2262023523D 1   1.00000     0.00000
 Structure written by MMmdl.
 40 41  0  0  0  0  0  0  0  0  3 V2000
  150.5059  139.2903  158.0452 O   0  0  0  0  0  0  0  0  0  0  0  0
  150.6000  140.1175  157.1396 C   0  0  0  0  0  0  0  0  0  0  0  0
  149.8210  139.8892  155.8320 C   0  0  0  0  0  0  0  0  0  0  0  0
  148.6622  140.7806  155.6358 N   0  0  0  0  0  0  0  0  0  0  0  0
  147.8146  140.9776  156.7438 C   0  0  0  0  0  0  0  0  0  0  0  0
  146.7326  141.7783  156.6848 C   0  0  0  0  0  0  0  0  0  0  0  0
  145.8779  141.9740  157.8351 N   0  3  0  0  0  0  0  0  0  0  0  0
  144.8083  142.5549  157.6812 O   0  0  0  0  0  0  0  0  0  0  0  0
  146.2462  141.5554  158.9286 O   0  5  0  0  0  0  0  0  0  0  0  0
  146.4552  142.4450  155.4275 C   0  0  0  0  0  0  0  0  0  0  0  0
  147.2643  142.2648  154.3651 C   0  0  0  0  0  0  0  0  0  0  0  0
  148.4441  141.3967  154.4331 C   0  0  0  0  0  0  0  0  0  0  0  0
  149.1956  141.2401  153.4709 O   0  0  0  0  0  0  0  0  0  0  0  0
  151.3599  141.2196  157.2391 N   0  0  0  0  0  0  0  0  0  0  0  0
  152.1945  141.5667  158.3804 C   0  0  0  0  0  0  0  0  0  0  0  0
  151.6744  142.8374  159.0798 C   0  0  0  0  0  0  0  0  0  0  0  0
  151.5898  144.0465  158.1197 C   0  0  0  0  0  0  0  0  0  0  0  0
  151.0869  145.3098  158.8372 C   0  0  0  0  0  0  0  0  0  0  0  0
  151.9574  145.6435  160.0579 C   0  0  0  0  0  0  0  0  0  0  0  0
  152.0384  144.4497  161.0207 C   0  0  0  0  0  0  0  0  0  0  0  0
  152.5456  143.1885  160.3027 C   0  0  0  0  0  0  0  0  0  0  0  0
  150.5163  139.9845  154.9963 H   0  0  0  0  0  0  0  0  0  0  0  0
  149.5003  138.8468  155.8093 H   0  0  0  0  0  0  0  0  0  0  0  0
  148.1113  140.4427  157.6346 H   0  0  0  0  0  0  0  0  0  0  0  0
  145.5977  143.0944  155.3290 H   0  0  0  0  0  0  0  0  0  0  0  0
  147.0398  142.7726  153.4386 H   0  0  0  0  0  0  0  0  0  0  0  0
  151.3808  141.8533  156.4533 H   0  0  0  0  0  0  0  0  0  0  0  0
  152.1970  140.7268  159.0763 H   0  0  0  0  0  0  0  0  0  0  0  0
  153.2258  141.7164  158.0559 H   0  0  0  0  0  0  0  0  0  0  0  0
  150.6667  142.6272  159.4422 H   0  0  0  0  0  0  0  0  0  0  0  0
  152.5722  144.2412  157.6877 H   0  0  0  0  0  0  0  0  0  0  0  0
  150.9249  143.8275  157.2836 H   0  0  0  0  0  0  0  0  0  0  0  0
  151.0812  146.1522  158.1448 H   0  0  0  0  0  0  0  0  0  0  0  0
  150.0536  145.1628  159.1538 H   0  0  0  0  0  0  0  0  0  0  0  0
  152.9607  145.9166  159.7287 H   0  0  0  0  0  0  0  0  0  0  0  0
  151.5541  146.5135  160.5767 H   0  0  0  0  0  0  0  0  0  0  0  0
  152.6960  144.6913  161.8561 H   0  0  0  0  0  0  0  0  0  0  0  0
  151.0537  144.2566  161.4479 H   0  0  0  0  0  0  0  0  0  0  0  0
  152.5587  142.3528  161.0032 H   0  0  0  0  0  0  0  0  0  0  0  0
  153.5787  143.3416  159.9876 H   0  0  0  0  0  0  0  0  0  0  0  0
  1  2  2  0  0  0  0
  2  3  1  0  0  0  0
  2 14  1  0  0  0  0
  3  4  1  0  0  0  0
  3 22  1  0  0  0  0
  3 23  1  0  0  0  0
  4 12  1  0  0  0  0
  4  5  1  0  0  0  0
  5  6  2  0  0  0  0
  5 24  1  0  0  0  0
  6  7  1  0  0  0  0
  6 10  1  0  0  0  0
  7  8  2  0  0  0  0
  7  9  1  0  0  0  0
 10 11  2  0  0  0  0
 10 25  1  0  0  0  0
 11 12  1  0  0  0  0
 11 26  1  0  0  0  0
 12 13  2  0  0  0  0
 14 15  1  0  0  0  0
 14 27  1  0  0  0  0
 15 16  1  0  0  0  0
 15 28  1  0  0  0  0
 15 29  1  0  0  0  0
 16 21  1  0  0  0  0
 16 17  1  0  0  0  0
 16 30  1  0  0  0  0
 17 18  1  0  0  0  0
 17 31  1  0  0  0  0
 17 32  1  0  0  0  0
 18 19  1  0  0  0  0
 18 33  1  0  0  0  0
 18 34  1  0  0  0  0
 19 20  1  0  0  0  0
 19 35  1  0  0  0  0
 19 36  1  0  0  0  0
 20 21  1  0  0  0  0
 20 37  1  0  0  0  0
 20 38  1  0  0  0  0
 21 39  1  0  0  0  0
 21 40  1  0  0  0  0
M  CHG  1   7   1
M  CHG  1   9  -1
M  END
> <s_m_source_file>
AV-unprocessed.smi

> <i_m_source_file_index>
593

> <i_lp_mmshare_version>
43012

> <i_f3d_flags>
0

> <s_epik_input>
W0NIMl0xW0NIMl1bQ0gyXVtDSDJdW0NIMl1bQ0hdMVtDSDJdW05IXUMoPU8pW0NIMl1uMltjSF1jKFtOK10oPU8pW08tXSlbY0hdW2NIXWMyPU8=

> <s_epik_cmdline>
J2VwaWtfcHl0aG9uJywgJy1waCcsICc3LjAnLCAnLXRuJywgJzgnLCAnLW1hJywgJzIwMCcsICctbWV0YWxfYmluZGluZycsICctaW1hZScsICc8aW5maWxlLm1hZT4nLCAnLW9tYWUnLCAnPG91dGZpbGUubWFlPic=

> <r_lp_tautomer_probability>
1

> <r_epik_Ionization_Penalty>
1.98738e-08

> <r_epik_Ionization_Penalty_Charging>
7.60687e-11

> <r_epik_Ionization_Penalty_Neutral>
1.97978e-08

> <r_epik_State_Penalty>
-0

> <r_epik_Charging_Adjusted_Penalty>
7.60687e-11

> <i_epik_Tot_Q>
0

> <i_epik_Tot_abs_Q>
2

> <r_epik_Metal_State_Penalty>
-0

> <b_epik_Metal_Only>
0

> <s_lp_Force_Field>
OPLS_2005

> <r_lp_Energy>
22.1176

> <b_lp_Chiralities_Consistent>
1

> <s_lp_Variant>
AV-unprocessed.smi:593-1

> <Gold.Version>
5.8.1

> <Gold.Id.Protein>
6NUR|6NUR_protein|mol2

> <Gold.PLP.Fitness>
43.2770

> <Gold.PLP.PLP>
-38.8148

> <Gold.PLP.part.hbond>
-3.0000

> <Gold.PLP.part.metal>
0.0000

> <Gold.PLP.part.buried>
-6.1226

> <Gold.PLP.part.nonpolar>
-33.1495

> <Gold.PLP.part.repulsive>
3.3974

> <Gold.PLP.ligand.clash>
0.0000

> <Gold.PLP.ligand.torsion>
0.3899

> <Gold.PLP.Chemscore.Hbond>
1.7400

> <Gold.PLP.Chemscore.CHOScore>
0.0000

> <Gold.PLP.Chemscore.Metal>
0.0000

> <Gold.Chemscore.Hbonds>
donor molecule, donor type, donor heavy atom, donor atom, acceptor molecule, acceptor atom, score
      P1  H  6934  6946       L1     9  0.75
      P1  H  8011  8017       L1    13  0.99

> <Gold.PLP.Chemscore.Internal.Correction>
0.0219

> <Gold.Rescore>
     Score         DG    S(hbond)    S(metal)    S(lipo)     H(rot)  DE(clash)    DE(int)     intcor
     16.33     -18.00       1.77        0.00      95.57       1.78       1.28       0.38       ----

> <Gold.Chemscore.Fitness>
16.3339

> <Gold.Chemscore.DG>
-17.9975

> <Gold.Chemscore.ZeroCoef>
-5.4800

> <Gold.Chemscore.Hbond>
1.7660

> <Gold.Chemscore.Metal>
0.0000

> <Gold.Chemscore.Lipo>
95.5698

> <Gold.Chemscore.Internal_Hbond>
0.0000

> <Gold.Chemscore.DEClash>
1.2811

> <Gold.Chemscore.DEInternal>
0.3825

> <Gold.Chemscore.Rot>
1.7823

> <Gold.Chemscore.Internal.Correction>
   9.000000E+99

> <Gold.Chemscore.Hbonds>
donor molecule, donor type, donor heavy atom, donor atom, acceptor molecule, acceptor atom, score
      P1  H  6934  6946       L1     9  0.72
      P1  H  7989  7998       L1    13  0.02
      P1  H  8011  8017       L1    13  0.94

> <Gold.Chemscore.Hbond.Weighted>
-5.8986

> <Gold.Chemscore.Metal.Weighted>
-0.0000

> <Gold.Chemscore.Lipo.Weighted>
-11.1817

> <Gold.Chemscore.Internal_Hbond.Weighted>
0.0000

> <Gold.Chemscore.DEClash.Weighted>
1.2811

> <Gold.Chemscore.DEInternal.Weighted>
0.3825

> <Gold.Chemscore.Rot.Weighted>
4.5627

> <Gold.Chemscore.Internal.Correction.Weighted>
   9.000000E+99

> <Gold.Protein.RotatedTorsions>
[ 6907 6896 6895 6894 ] final -133.19 input  -60.11 | X-H torsion
[ 7974 7965 7964 7962 ] final  -28.49 input  175.53 | X-H torsion
[ 8008 7997 7996 7995 ] final  103.05 input   59.86 | X-H torsion
[ 10167 10162 10161 10158 ] final -112.44 input  -65.29 | X-H torsion
[ 10718 10713 10712 10709 ] final  -10.57 input   66.30 | X-H torsion
[ 10763 10752 10751 10750 ] final  -38.33 input  -60.55 | X-H torsion
[ 11005 11000 10999 10996 ] final  -54.56 input  -57.11 | X-H torsion

> <Gold.Protein.ActiveResidues>
 VAL166  LYS551  ARG553  GLY616  TRP617  ASP618  TYR619  PRO620  LYS621  CYS622 
 ASP623  PHE694  ASN695  SER759  ASP760  ASP761  ALA762  ILE779  LEU786  VAL792 
 PHE793  MET794  SER795  GLU796  ALA797  LYS798  CYS799  TRP800  GLU811  SER814 

> <Gold.Protein.RotatedAtoms>
  150.9711  133.6342  159.2737 H   0  0  0  0  0  0  0  0  0  0  0  0  # atno 6907 bound_to 6896
  151.3631  135.0907  159.9450 H   0  0  0  0  0  0  0  0  0  0  0  0  # atno 6908 bound_to 6896
  152.5183  133.9281  159.7622 H   0  0  0  0  0  0  0  0  0  0  0  0  # atno 6909 bound_to 6896
  146.1285  140.5289  142.8704 H   0  0  0  0  0  0  0  0  0  0  0  0  # atno 7974 bound_to 7965
  156.1449  140.3171  155.8554 H   0  0  0  0  0  0  0  0  0  0  0  0  # atno 8008 bound_to 7997
  155.4083  140.0504  157.3050 H   0  0  0  0  0  0  0  0  0  0  0  0  # atno 8009 bound_to 7997
  154.5008  140.2128  155.9363 H   0  0  0  0  0  0  0  0  0  0  0  0  # atno 8010 bound_to 7997
  140.1227  143.4429  152.1680 H   0  0  0  0  0  0  0  0  0  0  0  0  # atno 10167 bound_to 10162
  156.6715  130.5011  149.5998 H   0  0  0  0  0  0  0  0  0  0  0  0  # atno 10718 bound_to 10713
  153.9110  135.6792  153.4751 H   0  0  0  0  0  0  0  0  0  0  0  0  # atno 10763 bound_to 10752
  153.1078  135.4797  154.8980 H   0  0  0  0  0  0  0  0  0  0  0  0  # atno 10764 bound_to 10752
  154.7527  135.3189  154.8483 H   0  0  0  0  0  0  0  0  0  0  0  0  # atno 10765 bound_to 10752
  141.1032  133.6616  156.4339 H   0  0  0  0  0  0  0  0  0  0  0  0  # atno 11005 bound_to 11000
  144.7666  140.5544  143.6699 LP  0  0  0  0  0  0  0  0  0  0  0  0  # atno 17320 bound_to 7965
  145.5314  139.1475  143.3498 LP  0  0  0  0  0  0  0  0  0  0  0  0  # atno 17321 bound_to 7965
  139.5560  144.7373  151.4293 LP  0  0  0  0  0  0  0  0  0  0  0  0  # atno 17342 bound_to 10162
  140.6863  143.7967  150.7190 LP  0  0  0  0  0  0  0  0  0  0  0  0  # atno 17343 bound_to 10162
  156.1935  130.6575  151.1088 LP  0  0  0  0  0  0  0  0  0  0  0  0  # atno 17370 bound_to 10713
  157.7075  131.0749  150.6616 LP  0  0  0  0  0  0  0  0  0  0  0  0  # atno 17371 bound_to 10713
  140.4970  134.6522  157.5233 LP  0  0  0  0  0  0  0  0  0  0  0  0  # atno 17394 bound_to 11000
  139.9891  134.7014  155.9721 LP  0  0  0  0  0  0  0  0  0  0  0  0  # atno 17395 bound_to 11000

$$$$
