AV-unprocessed.smi:1708|AV-procd|sdf|6889|dock1
  -GOLD-   22720 8 93D 1   1.00000     0.00000
 Structure written by MMmdl.
 36 38  0  0  0  0  0  0  0  0  1 V2000
  153.6350  140.6094  160.2774 C   0  0  0  0  0  0  0  0  0  0  0  0
  152.8241  141.3896  159.3506 N   0  0  0  0  0  0  0  0  0  0  0  0
  152.3827  141.0053  158.1306 C   0  0  0  0  0  0  0  0  0  0  0  0
  152.5928  139.9183  157.5926 O   0  0  0  0  0  0  0  0  0  0  0  0
  151.6514  142.0190  157.6097 N   0  0  0  0  0  0  0  0  0  0  0  0
  150.9552  142.0076  156.3221 C   0  0  0  0  0  0  0  0  0  0  0  0
  150.5384  140.5846  155.8912 C   0  0  2  0  0  0  0  0  0  0  0  0
  151.6258  139.9865  155.2161 O   0  0  0  0  0  0  0  0  0  0  0  0
  149.2625  140.5715  155.0594 C   0  0  0  0  0  0  0  0  0  0  0  0
  148.8322  139.3864  154.4230 C   0  0  0  0  0  0  0  0  0  0  0  0
  147.6688  139.3891  153.6296 C   0  0  0  0  0  0  0  0  0  0  0  0
  146.9293  140.5763  153.4670 C   0  0  0  0  0  0  0  0  0  0  0  0
  147.3536  141.7609  154.0988 C   0  0  0  0  0  0  0  0  0  0  0  0
  146.6458  142.9040  153.9393 F   0  0  0  0  0  0  0  0  0  0  0  0
  148.5160  141.7582  154.8936 C   0  0  0  0  0  0  0  0  0  0  0  0
  151.6174  143.0798  158.5291 C   0  0  0  0  0  0  0  0  0  0  0  0
  150.9869  144.3359  158.4777 C   0  0  0  0  0  0  0  0  0  0  0  0
  151.1386  145.1829  159.6003 C   0  0  0  0  0  0  0  0  0  0  0  0
  151.8980  144.7702  160.7258 C   0  0  0  0  0  0  0  0  0  0  0  0
  152.5211  143.5005  160.7526 C   0  0  0  0  0  0  0  0  0  0  0  0
  152.3536  142.6798  159.6244 C   0  0  0  0  0  0  0  0  0  0  0  0
  153.9674  139.6675  159.8391 H   0  0  0  0  0  0  0  0  0  0  0  0
  153.0620  140.3805  161.1761 H   0  0  0  0  0  0  0  0  0  0  0  0
  154.5209  141.1733  160.5707 H   0  0  0  0  0  0  0  0  0  0  0  0
  150.0780  142.6523  156.3787 H   0  0  0  0  0  0  0  0  0  0  0  0
  151.6009  142.4524  155.5632 H   0  0  0  0  0  0  0  0  0  0  0  0
  150.3674  139.9852  156.7863 H   0  0  0  0  0  0  0  0  0  0  0  0
  152.0708  139.4096  155.8180 H   0  0  0  0  0  0  0  0  0  0  0  0
  149.3996  138.4739  154.5332 H   0  0  0  0  0  0  0  0  0  0  0  0
  147.3459  138.4809  153.1425 H   0  0  0  0  0  0  0  0  0  0  0  0
  146.0383  140.5783  152.8567 H   0  0  0  0  0  0  0  0  0  0  0  0
  148.8395  142.6739  155.3668 H   0  0  0  0  0  0  0  0  0  0  0  0
  150.4050  144.6461  157.6228 H   0  0  0  0  0  0  0  0  0  0  0  0
  150.6686  146.1553  159.6012 H   0  0  0  0  0  0  0  0  0  0  0  0
  151.9998  145.4323  161.5728 H   0  0  0  0  0  0  0  0  0  0  0  0
  153.0981  143.1771  161.6063 H   0  0  0  0  0  0  0  0  0  0  0  0
  1  2  1  0  0  0  0
  1 22  1  0  0  0  0
  1 23  1  0  0  0  0
  1 24  1  0  0  0  0
  2 21  1  0  0  0  0
  2  3  1  0  0  0  0
  3  4  2  0  0  0  0
  3  5  1  0  0  0  0
  5  6  1  0  0  0  0
  5 16  1  0  0  0  0
  6  7  1  0  0  0  0
  6 25  1  0  0  0  0
  6 26  1  0  0  0  0
  7  8  1  0  0  0  0
  7  9  1  0  0  0  0
  7 27  1  0  0  0  0
  8 28  1  0  0  0  0
  9 15  1  0  0  0  0
  9 10  2  0  0  0  0
 10 11  1  0  0  0  0
 10 29  1  0  0  0  0
 11 12  2  0  0  0  0
 11 30  1  0  0  0  0
 12 13  1  0  0  0  0
 12 31  1  0  0  0  0
 13 14  1  0  0  0  0
 13 15  2  0  0  0  0
 15 32  1  0  0  0  0
 16 21  2  0  0  0  0
 16 17  1  0  0  0  0
 17 18  2  0  0  0  0
 17 33  1  0  0  0  0
 18 19  1  0  0  0  0
 18 34  1  0  0  0  0
 19 20  2  0  0  0  0
 19 35  1  0  0  0  0
 20 21  1  0  0  0  0
 20 36  1  0  0  0  0
M  END
> <s_m_source_file>
AV-unprocessed.smi

> <i_m_source_file_index>
1708

> <i_lp_mmshare_version>
43012

> <i_f3d_flags>
0

> <s_epik_input>
W2NIXTFbY0hdW2NIXVtjSF1jKGMxMiluKFtDSDNdKWMoPU8pbjJbQ0gyXVtDQEhdKFtPSF0pYzNbY0hdW2NIXVtjSF1jKEYpW2NIXTM=

> <s_epik_cmdline>
J2VwaWtfcHl0aG9uJywgJy1waCcsICc3LjAnLCAnLXRuJywgJzgnLCAnLW1hJywgJzIwMCcsICctbWV0YWxfYmluZGluZycsICctaW1hZScsICc8aW5maWxlLm1hZT4nLCAnLW9tYWUnLCAnPG91dGZpbGUubWFlPic=

> <r_lp_tautomer_probability>
1

> <r_epik_Ionization_Penalty>
3.53466e-06

> <r_epik_Ionization_Penalty_Charging>
2.57375e-09

> <r_epik_Ionization_Penalty_Neutral>
3.53208e-06

> <r_epik_State_Penalty>
-0

> <r_epik_Charging_Adjusted_Penalty>
2.57375e-09

> <i_epik_Tot_Q>
0

> <i_epik_Tot_abs_Q>
0

> <r_epik_Metal_State_Penalty>
-0

> <b_epik_Metal_Only>
0

> <s_lp_Force_Field>
OPLS_2005

> <r_lp_Energy>
39.7129

> <b_lp_Chiralities_Consistent>
1

> <s_lp_Variant>
AV-unprocessed.smi:1708-1

> <Gold.Version>
5.8.1

> <Gold.Id.Protein>
6NUR|6NUR_protein|mol2

> <Gold.PLP.Fitness>
56.4162

> <Gold.PLP.PLP>
-52.2054

> <Gold.PLP.part.hbond>
-2.0000

> <Gold.PLP.part.metal>
0.0000

> <Gold.PLP.part.buried>
-6.4213

> <Gold.PLP.part.nonpolar>
-43.3923

> <Gold.PLP.part.repulsive>
0.0000

> <Gold.PLP.ligand.clash>
0.0211

> <Gold.PLP.ligand.torsion>
0.8904

> <Gold.PLP.Chemscore.Hbond>
1.9920

> <Gold.PLP.Chemscore.CHOScore>
0.0000

> <Gold.PLP.Chemscore.Metal>
0.0000

> <Gold.Chemscore.Hbonds>
donor molecule, donor type, donor heavy atom, donor atom, acceptor molecule, acceptor atom, score
      P1  H  7989  7998       L1     8  1.00
      P1  H  7997  8008       L1     4  1.00

> <Gold.PLP.Chemscore.Internal.Correction>
0.0366

> <Gold.Rescore>
     Score         DG    S(hbond)    S(metal)    S(lipo)     H(rot)  DE(clash)    DE(int)     intcor
     18.24     -20.92       1.80        0.00     121.16       1.85       0.12       2.57       ----

> <Gold.Chemscore.Fitness>
18.2373

> <Gold.Chemscore.DG>
-20.9247

> <Gold.Chemscore.ZeroCoef>
-5.4800

> <Gold.Chemscore.Hbond>
1.7952

> <Gold.Chemscore.Metal>
0.0000

> <Gold.Chemscore.Lipo>
121.1588

> <Gold.Chemscore.Internal_Hbond>
0.0000

> <Gold.Chemscore.DEClash>
0.1215

> <Gold.Chemscore.DEInternal>
2.5658

> <Gold.Chemscore.Rot>
1.8465

> <Gold.Chemscore.Internal.Correction>
   9.000000E+99

> <Gold.Chemscore.Hbonds>
donor molecule, donor type, donor heavy atom, donor atom, acceptor molecule, acceptor atom, score
      P1  H  7989  7998       L1     8  0.43
      P1  H  7997  8008       L1     4  0.47

> <Gold.Chemscore.Hbond.Weighted>
-5.9961

> <Gold.Chemscore.Metal.Weighted>
-0.0000

> <Gold.Chemscore.Lipo.Weighted>
-14.1756

> <Gold.Chemscore.Internal_Hbond.Weighted>
0.0000

> <Gold.Chemscore.DEClash.Weighted>
0.1215

> <Gold.Chemscore.DEInternal.Weighted>
2.5658

> <Gold.Chemscore.Rot.Weighted>
4.7270

> <Gold.Chemscore.Internal.Correction.Weighted>
   9.000000E+99

> <Gold.Protein.RotatedTorsions>
[ 6907 6896 6895 6894 ] final  102.82 input  -60.11 | X-H torsion
[ 7974 7965 7964 7962 ] final -120.24 input  175.53 | X-H torsion
[ 8008 7997 7996 7995 ] final  -65.97 input   59.86 | X-H torsion
[ 10167 10162 10161 10158 ] final  115.46 input  -65.29 | X-H torsion
[ 10718 10713 10712 10709 ] final  -96.17 input   66.30 | X-H torsion
[ 10763 10752 10751 10750 ] final  123.79 input  -60.55 | X-H torsion
[ 11005 11000 10999 10996 ] final  120.71 input  -57.11 | X-H torsion

> <Gold.Protein.ActiveResidues>
 VAL166  LYS551  ARG553  GLY616  TRP617  ASP618  TYR619  PRO620  LYS621  CYS622 
 ASP623  PHE694  ASN695  SER759  ASP760  ASP761  ALA762  ILE779  LEU786  VAL792 
 PHE793  MET794  SER795  GLU796  ALA797  LYS798  CYS799  TRP800  GLU811  SER814 

> <Gold.Protein.RotatedAtoms>
  152.5313  133.9918  159.7853 H   0  0  0  0  0  0  0  0  0  0  0  0  # atno 6907 bound_to 6896
  151.0152  133.5919  159.2685 H   0  0  0  0  0  0  0  0  0  0  0  0  # atno 6908 bound_to 6896
  151.2979  135.0767  159.9281 H   0  0  0  0  0  0  0  0  0  0  0  0  # atno 6909 bound_to 6896
  145.0535  140.8237  143.4195 H   0  0  0  0  0  0  0  0  0  0  0  0  # atno 7974 bound_to 7965
  154.4705  140.0922  156.7132 H   0  0  0  0  0  0  0  0  0  0  0  0  # atno 8008 bound_to 7997
  155.4738  140.3465  155.4311 H   0  0  0  0  0  0  0  0  0  0  0  0  # atno 8009 bound_to 7997
  156.1031  140.1427  156.9430 H   0  0  0  0  0  0  0  0  0  0  0  0  # atno 8010 bound_to 7997
  139.6316  144.7115  151.2421 H   0  0  0  0  0  0  0  0  0  0  0  0  # atno 10167 bound_to 10162
  156.0057  130.5140  150.6186 H   0  0  0  0  0  0  0  0  0  0  0  0  # atno 10718 bound_to 10713
  153.6512  135.3362  155.3100 H   0  0  0  0  0  0  0  0  0  0  0  0  # atno 10763 bound_to 10752
  154.8537  135.4341  154.1902 H   0  0  0  0  0  0  0  0  0  0  0  0  # atno 10764 bound_to 10752
  153.2846  135.7012  153.7427 H   0  0  0  0  0  0  0  0  0  0  0  0  # atno 10765 bound_to 10752
  139.9196  134.9636  156.7848 H   0  0  0  0  0  0  0  0  0  0  0  0  # atno 11005 bound_to 11000
  145.1497  139.2522  143.5447 LP  0  0  0  0  0  0  0  0  0  0  0  0  # atno 17320 bound_to 7965
  146.3519  140.1196  142.8601 LP  0  0  0  0  0  0  0  0  0  0  0  0  # atno 17321 bound_to 7965
  140.7442  143.6471  150.8282 LP  0  0  0  0  0  0  0  0  0  0  0  0  # atno 17342 bound_to 10162
  140.0096  143.5656  152.2844 LP  0  0  0  0  0  0  0  0  0  0  0  0  # atno 17343 bound_to 10162
  157.4006  131.0809  151.1312 LP  0  0  0  0  0  0  0  0  0  0  0  0  # atno 17370 bound_to 10713
  157.1975  130.6379  149.5726 LP  0  0  0  0  0  0  0  0  0  0  0  0  # atno 17371 bound_to 10713
  140.6515  133.9727  155.7757 LP  0  0  0  0  0  0  0  0  0  0  0  0  # atno 17394 bound_to 11000
  141.0705  134.0213  157.3533 LP  0  0  0  0  0  0  0  0  0  0  0  0  # atno 17395 bound_to 11000

$$$$
