AV-unprocessed.smi:3277|AV-procd|sdf|12538|dock6
  -GOLD-   2272018453D 1   1.00000     0.00000
 Structure written by MMmdl.
 35 37  0  0  0  0  0  0  0  0  1 V2000
  145.8738  142.9161  154.7922 C   0  0  0  0  0  0  0  0  0  0  0  0
  147.2625  142.4882  154.7307 N   0  0  0  0  0  0  0  0  0  0  0  0
  147.6549  141.2427  154.4253 C   0  0  0  0  0  0  0  0  0  0  0  0
  146.8701  140.3337  154.1552 O   0  0  0  0  0  0  0  0  0  0  0  0
  149.1618  140.9797  154.4208 C   0  0  0  0  0  0  0  0  0  0  0  0
  149.6631  141.1523  155.8184 C   0  0  0  0  0  0  0  0  0  0  0  0
  150.5338  142.0985  156.1782 N   0  0  0  0  0  0  0  0  0  0  0  0
  150.8631  142.0529  157.5381 C   0  0  0  0  0  0  0  0  0  0  0  0
  151.8521  143.0183  158.1442 C   0  0  2  0  0  0  0  0  0  0  0  0
  152.2418  142.7296  159.6108 C   0  0  0  0  0  0  0  0  0  0  0  0
  152.0807  144.1113  160.2749 C   0  0  2  0  0  0  0  0  0  0  0  0
  150.5808  144.4361  160.4199 C   0  0  0  0  0  0  0  0  0  0  0  0
  150.1635  144.7756  158.9764 C   0  0  0  0  0  0  0  0  0  0  0  0
  151.4582  144.5165  158.1790 C   0  0  1  0  0  0  0  0  0  0  0  0
  152.4989  145.0594  159.1553 C   0  0  0  0  0  0  0  0  0  0  0  0
  150.2066  141.0501  158.2085 C   0  0  0  0  0  0  0  0  0  0  0  0
  149.1620  140.1311  157.1601 S   0  0  0  0  0  0  0  0  0  0  0  0
  145.8203  143.9637  155.0889 H   0  0  0  0  0  0  0  0  0  0  0  0
  145.3172  142.3262  155.5218 H   0  0  0  0  0  0  0  0  0  0  0  0
  145.3922  142.8117  153.8190 H   0  0  0  0  0  0  0  0  0  0  0  0
  147.9691  143.1780  154.9402 H   0  0  0  0  0  0  0  0  0  0  0  0
  149.3709  139.9669  154.0739 H   0  0  0  0  0  0  0  0  0  0  0  0
  149.6755  141.6730  153.7538 H   0  0  0  0  0  0  0  0  0  0  0  0
  152.7705  142.9548  157.5575 H   0  0  0  0  0  0  0  0  0  0  0  0
  151.6106  141.9816  160.0916 H   0  0  0  0  0  0  0  0  0  0  0  0
  153.2719  142.3765  159.6721 H   0  0  0  0  0  0  0  0  0  0  0  0
  152.6414  144.2165  161.2041 H   0  0  0  0  0  0  0  0  0  0  0  0
  150.0150  143.5980  160.8288 H   0  0  0  0  0  0  0  0  0  0  0  0
  150.4265  145.2946  161.0747 H   0  0  0  0  0  0  0  0  0  0  0  0
  149.3052  144.2037  158.6291 H   0  0  0  0  0  0  0  0  0  0  0  0
  149.8866  145.8284  158.9066 H   0  0  0  0  0  0  0  0  0  0  0  0
  151.4621  144.9897  157.1967 H   0  0  0  0  0  0  0  0  0  0  0  0
  152.3552  146.1126  159.4039 H   0  0  0  0  0  0  0  0  0  0  0  0
  153.5281  144.9099  158.8240 H   0  0  0  0  0  0  0  0  0  0  0  0
  150.2778  140.7943  159.2553 H   0  0  0  0  0  0  0  0  0  0  0  0
  1  2  1  0  0  0  0
  1 18  1  0  0  0  0
  1 19  1  0  0  0  0
  1 20  1  0  0  0  0
  2  3  1  0  0  0  0
  2 21  1  0  0  0  0
  3  4  2  0  0  0  0
  3  5  1  0  0  0  0
  5  6  1  0  0  0  0
  5 22  1  0  0  0  0
  5 23  1  0  0  0  0
  6 17  1  0  0  0  0
  6  7  2  0  0  0  0
  7  8  1  0  0  0  0
  8  9  1  0  0  0  0
  8 16  2  0  0  0  0
  9 14  1  0  0  0  0
  9 10  1  0  0  0  0
  9 24  1  0  0  0  0
 10 11  1  0  0  0  0
 10 25  1  0  0  0  0
 10 26  1  0  0  0  0
 11 15  1  0  0  0  0
 11 12  1  0  0  0  0
 11 27  1  0  0  0  0
 12 13  1  0  0  0  0
 12 28  1  0  0  0  0
 12 29  1  0  0  0  0
 13 14  1  0  0  0  0
 13 30  1  0  0  0  0
 13 31  1  0  0  0  0
 14 15  1  0  0  0  0
 14 32  1  0  0  0  0
 15 33  1  0  0  0  0
 15 34  1  0  0  0  0
 16 17  1  0  0  0  0
 16 35  1  0  0  0  0
M  END
> <s_m_source_file>
AV-unprocessed.smi

> <i_m_source_file_index>
3277

> <i_lp_mmshare_version>
43012

> <i_f3d_flags>
0

> <s_epik_input>
W0NIM11bTkhdQyg9TylbQ0gyXWMxbmMoW2NIXXMxKVtDQEhdKFtDSDJdW0NAQEhdMjMpW0NAQEhdKFtDSDJdMylbQ0gyXVtDSDJdMg==

> <s_epik_cmdline>
J2VwaWtfcHl0aG9uJywgJy1waCcsICc3LjAnLCAnLXRuJywgJzgnLCAnLW1hJywgJzIwMCcsICctbWV0YWxfYmluZGluZycsICctaW1hZScsICc8aW5maWxlLm1hZT4nLCAnLW9tYWUnLCAnPG91dGZpbGUubWFlPic=

> <r_lp_tautomer_probability>
1

> <r_epik_Ionization_Penalty>
8.50008e-05

> <r_epik_Ionization_Penalty_Charging>
0

> <r_epik_Ionization_Penalty_Neutral>
8.50008e-05

> <r_epik_State_Penalty>
-0

> <r_epik_Charging_Adjusted_Penalty>
0

> <i_epik_Tot_Q>
0

> <i_epik_Tot_abs_Q>
0

> <r_epik_Metal_State_Penalty>
-0

> <b_epik_Metal_Only>
0

> <s_lp_Force_Field>
OPLS_2005

> <r_lp_Energy>
46.0194

> <b_lp_Chiralities_Consistent>
1

> <s_lp_Variant>
AV-unprocessed.smi:3277-3

> <Gold.Version>
5.8.1

> <Gold.Id.Protein>
6NUR|6NUR_protein|mol2

> <Gold.PLP.Fitness>
39.1462

> <Gold.PLP.PLP>
-36.3709

> <Gold.PLP.part.hbond>
-1.0000

> <Gold.PLP.part.metal>
0.0000

> <Gold.PLP.part.buried>
-5.5654

> <Gold.PLP.part.nonpolar>
-31.5177

> <Gold.PLP.part.repulsive>
0.5153

> <Gold.PLP.ligand.clash>
0.0000

> <Gold.PLP.ligand.torsion>
0.1147

> <Gold.PLP.Chemscore.Hbond>
1.0000

> <Gold.PLP.Chemscore.CHOScore>
0.0000

> <Gold.PLP.Chemscore.Metal>
0.0000

> <Gold.Chemscore.Hbonds>
donor molecule, donor type, donor heavy atom, donor atom, acceptor molecule, acceptor atom, score
      L1  H     2    21       P1  8028  1.00

> <Gold.PLP.Chemscore.Internal.Correction>
0.0047

> <Gold.Rescore>
     Score         DG    S(hbond)    S(metal)    S(lipo)     H(rot)  DE(clash)    DE(int)     intcor
     17.58     -17.74       0.94        0.00     108.77       1.41       0.10       0.06       ----

> <Gold.Chemscore.Fitness>
17.5821

> <Gold.Chemscore.DG>
-17.7413

> <Gold.Chemscore.ZeroCoef>
-5.4800

> <Gold.Chemscore.Hbond>
0.9433

> <Gold.Chemscore.Metal>
0.0000

> <Gold.Chemscore.Lipo>
108.7665

> <Gold.Chemscore.Internal_Hbond>
0.0000

> <Gold.Chemscore.DEClash>
0.0998

> <Gold.Chemscore.DEInternal>
0.0593

> <Gold.Chemscore.Rot>
1.4122

> <Gold.Chemscore.Internal.Correction>
   9.000000E+99

> <Gold.Chemscore.Hbonds>
donor molecule, donor type, donor heavy atom, donor atom, acceptor molecule, acceptor atom, score
      L1  H     2    21       P1  8028  0.85

> <Gold.Chemscore.Hbond.Weighted>
-3.1507

> <Gold.Chemscore.Metal.Weighted>
-0.0000

> <Gold.Chemscore.Lipo.Weighted>
-12.7257

> <Gold.Chemscore.Internal_Hbond.Weighted>
0.0000

> <Gold.Chemscore.DEClash.Weighted>
0.0998

> <Gold.Chemscore.DEInternal.Weighted>
0.0593

> <Gold.Chemscore.Rot.Weighted>
3.6151

> <Gold.Chemscore.Internal.Correction.Weighted>
   9.000000E+99

> <Gold.Protein.RotatedTorsions>
[ 6907 6896 6895 6894 ] final   82.92 input  -60.11 | X-H torsion
[ 7974 7965 7964 7962 ] final  -61.41 input  175.53 | X-H torsion
[ 8008 7997 7996 7995 ] final  -17.05 input   59.86 | X-H torsion
[ 10167 10162 10161 10158 ] final  156.99 input  -65.29 | X-H torsion
[ 10718 10713 10712 10709 ] final   26.14 input   66.30 | X-H torsion
[ 10763 10752 10751 10750 ] final  -93.19 input  -60.55 | X-H torsion
[ 11005 11000 10999 10996 ] final  100.25 input  -57.11 | X-H torsion

> <Gold.Protein.ActiveResidues>
 VAL166  LYS551  ARG553  GLY616  TRP617  ASP618  TYR619  PRO620  LYS621  CYS622 
 ASP623  PHE694  ASN695  SER759  ASP760  ASP761  ALA762  ILE779  LEU786  VAL792 
 PHE793  MET794  SER795  GLU796  ALA797  LYS798  CYS799  TRP800  GLU811  SER814 

> <Gold.Protein.RotatedAtoms>
  152.5313  134.2976  159.9066 H   0  0  0  0  0  0  0  0  0  0  0  0  # atno 6907 bound_to 6896
  151.2927  133.4151  159.2642 H   0  0  0  0  0  0  0  0  0  0  0  0  # atno 6908 bound_to 6896
  151.0187  134.9468  159.8104 H   0  0  0  0  0  0  0  0  0  0  0  0  # atno 6909 bound_to 6896
  145.8038  140.8639  143.0217 H   0  0  0  0  0  0  0  0  0  0  0  0  # atno 7974 bound_to 7965
  154.5007  140.2153  155.9353 H   0  0  0  0  0  0  0  0  0  0  0  0  # atno 8008 bound_to 7997
  156.1429  140.3176  155.8492 H   0  0  0  0  0  0  0  0  0  0  0  0  # atno 8009 bound_to 7997
  155.4085  140.0489  157.3023 H   0  0  0  0  0  0  0  0  0  0  0  0  # atno 8010 bound_to 7997
  139.4822  144.4958  151.8241 H   0  0  0  0  0  0  0  0  0  0  0  0  # atno 10167 bound_to 10162
  157.2029  130.6898  149.6196 H   0  0  0  0  0  0  0  0  0  0  0  0  # atno 10718 bound_to 10713
  154.6935  135.5203  153.8426 H   0  0  0  0  0  0  0  0  0  0  0  0  # atno 10763 bound_to 10752
  153.0650  135.6581  154.0385 H   0  0  0  0  0  0  0  0  0  0  0  0  # atno 10764 bound_to 10752
  154.0255  135.2990  155.3355 H   0  0  0  0  0  0  0  0  0  0  0  0  # atno 10765 bound_to 10752
  139.8771  134.9132  156.4727 H   0  0  0  0  0  0  0  0  0  0  0  0  # atno 11005 bound_to 11000
  144.6765  140.0297  143.7483 LP  0  0  0  0  0  0  0  0  0  0  0  0  # atno 17320 bound_to 7965
  145.9850  139.2970  143.1019 LP  0  0  0  0  0  0  0  0  0  0  0  0  # atno 17321 bound_to 7965
  140.4447  144.1938  150.5893 LP  0  0  0  0  0  0  0  0  0  0  0  0  # atno 17342 bound_to 10162
  140.4647  143.2435  151.9172 LP  0  0  0  0  0  0  0  0  0  0  0  0  # atno 17343 bound_to 10162
  155.9698  130.4577  150.5971 LP  0  0  0  0  0  0  0  0  0  0  0  0  # atno 17370 bound_to 10713
  157.3749  131.0771  151.1526 LP  0  0  0  0  0  0  0  0  0  0  0  0  # atno 17371 bound_to 10713
  140.8784  133.7936  155.9440 LP  0  0  0  0  0  0  0  0  0  0  0  0  # atno 17394 bound_to 11000
  140.8880  134.2530  157.5109 LP  0  0  0  0  0  0  0  0  0  0  0  0  # atno 17395 bound_to 11000

$$$$
