AV-unprocessed.smi:1682|AV-procd|sdf|6746|dock7
  -GOLD-   22720 7503D 1   1.00000     0.00000
 Structure written by MMmdl.
 39 40  0  0  0  0  0  0  0  0  2 V2000
  148.7810  136.7867  156.6112 O   0  0  0  0  0  0  0  0  0  0  0  0
  148.8279  135.6039  156.9503 C   0  0  0  0  0  0  0  0  0  0  0  0
  148.6383  134.5865  156.0962 N   0  0  0  0  0  0  0  0  0  0  0  0
  148.3685  134.7265  154.6677 C   0  0  0  0  0  0  0  0  0  0  0  0
  148.7080  133.4582  153.8577 C   0  0  0  0  0  0  0  0  0  0  0  0
  147.5745  132.9807  152.9664 C   0  0  0  0  0  0  0  0  0  0  0  0
  146.9829  131.7075  153.1203 C   0  0  0  0  0  0  0  0  0  0  0  0
  145.9282  131.3290  152.2642 C   0  0  0  0  0  0  0  0  0  0  0  0
  145.4892  132.2292  151.2712 C   0  0  0  0  0  0  0  0  0  0  0  0
  146.1165  133.4870  151.1601 C   0  0  0  0  0  0  0  0  0  0  0  0
  147.1226  133.8137  152.0010 N   0  3  0  0  0  0  0  0  0  0  0  0
  149.1343  135.2261  158.4078 C   0  0  1  0  0  0  0  0  0  0  0  0
  149.2670  136.4816  159.2918 C   0  0  0  0  0  0  0  0  0  0  0  0
  148.0737  136.4016  160.2282 C   0  0  0  0  0  0  0  0  0  0  0  0
  147.7811  137.3052  161.0095 O   0  0  0  0  0  0  0  0  0  0  0  0
  147.4108  135.2519  160.0658 N   0  0  0  0  0  0  0  0  0  0  0  0
  146.1982  134.8425  160.7731 C   0  0  0  0  0  0  0  0  0  0  0  0
  146.4940  134.2874  162.1784 C   0  0  0  0  0  0  0  0  0  0  0  0
  145.3691  134.0590  162.8558 F   0  0  0  0  0  0  0  0  0  0  0  0
  147.1550  133.1369  162.0593 F   0  0  0  0  0  0  0  0  0  0  0  0
  147.2520  135.1430  162.8642 F   0  0  0  0  0  0  0  0  0  0  0  0
  148.0088  134.3913  159.0577 C   0  0  0  0  0  0  0  0  0  0  0  0
  148.6888  133.6462  156.4617 H   0  0  0  0  0  0  0  0  0  0  0  0
  147.3073  134.9516  154.5595 H   0  0  0  0  0  0  0  0  0  0  0  0
  148.9075  135.5871  154.2685 H   0  0  0  0  0  0  0  0  0  0  0  0
  149.5891  133.6428  153.2419 H   0  0  0  0  0  0  0  0  0  0  0  0
  148.9844  132.6494  154.5352 H   0  0  0  0  0  0  0  0  0  0  0  0
  147.3293  131.0300  153.8877 H   0  0  0  0  0  0  0  0  0  0  0  0
  145.4622  130.3599  152.3678 H   0  0  0  0  0  0  0  0  0  0  0  0
  144.6836  131.9582  150.6042 H   0  0  0  0  0  0  0  0  0  0  0  0
  145.8463  134.2358  150.4297 H   0  0  0  0  0  0  0  0  0  0  0  0
  150.0656  134.6577  158.4382 H   0  0  0  0  0  0  0  0  0  0  0  0
  150.1883  136.4574  159.8744 H   0  0  0  0  0  0  0  0  0  0  0  0
  149.2475  137.4181  158.7320 H   0  0  0  0  0  0  0  0  0  0  0  0
  145.5143  135.6897  160.8433 H   0  0  0  0  0  0  0  0  0  0  0  0
  145.6804  134.0848  160.1834 H   0  0  0  0  0  0  0  0  0  0  0  0
  147.2553  134.0587  158.3415 H   0  0  0  0  0  0  0  0  0  0  0  0
  148.4173  133.5018  159.5388 H   0  0  0  0  0  0  0  0  0  0  0  0
  147.5620  134.7292  151.9023 H   0  0  0  0  0  0  0  0  0  0  0  0
  1  2  2  0  0  0  0
  2  3  1  0  0  0  0
  2 12  1  0  0  0  0
  3  4  1  0  0  0  0
  3 23  1  0  0  0  0
  4  5  1  0  0  0  0
  4 24  1  0  0  0  0
  4 25  1  0  0  0  0
  5  6  1  0  0  0  0
  5 26  1  0  0  0  0
  5 27  1  0  0  0  0
  6 11  1  0  0  0  0
  6  7  2  0  0  0  0
  7  8  1  0  0  0  0
  7 28  1  0  0  0  0
  8  9  2  0  0  0  0
  8 29  1  0  0  0  0
  9 10  1  0  0  0  0
  9 30  1  0  0  0  0
 10 11  2  0  0  0  0
 10 31  1  0  0  0  0
 11 39  1  0  0  0  0
 12 22  1  0  0  0  0
 12 13  1  0  0  0  0
 12 32  1  0  0  0  0
 13 14  1  0  0  0  0
 13 33  1  0  0  0  0
 13 34  1  0  0  0  0
 14 15  2  0  0  0  0
 14 16  1  0  0  0  0
 16 17  1  0  0  0  0
 16 22  1  0  0  0  0
 17 18  1  0  0  0  0
 17 35  1  0  0  0  0
 17 36  1  0  0  0  0
 18 19  1  0  0  0  0
 18 20  1  0  0  0  0
 18 21  1  0  0  0  0
 22 37  1  0  0  0  0
 22 38  1  0  0  0  0
M  CHG  1  11   1
M  END
> <s_m_source_file>
AV-unprocessed.smi

> <i_m_source_file_index>
1682

> <i_lp_mmshare_version>
43012

> <i_f3d_flags>
0

> <s_epik_input>
RkMoRikoRilbQ0gyXU4oW0NIMl0xKUMoPU8pW0NIMl1bQ0BIXTFDKD1PKVtOSF1bQ0gyXVtDSDJdYzJbY0hdW2NIXVtjSF1bY0hdbjI=

> <s_epik_cmdline>
J2VwaWtfcHl0aG9uJywgJy1waCcsICc3LjAnLCAnLXRuJywgJzgnLCAnLW1hJywgJzIwMCcsICctbWV0YWxfYmluZGluZycsICctaW1hZScsICc8aW5maWxlLm1hZT4nLCAnLW9tYWUnLCAnPG91dGZpbGUubWFlPic=

> <r_epik_Ionization_Penalty>
1.88249

> <r_epik_Ionization_Penalty_Charging>
1.88249

> <r_epik_Ionization_Penalty_Neutral>
2.8664e-08

> <r_epik_State_Penalty>
2.00238

> <r_epik_Charging_Adjusted_Penalty>
3.88487

> <i_epik_Tot_Q>
1

> <i_epik_Tot_abs_Q>
1

> <r_epik_Metal_State_Penalty>
2.02677

> <b_epik_Metal_Only>
0

> <s_lp_Force_Field>
OPLS_2005

> <r_lp_Energy>
19.2524

> <b_lp_Chiralities_Consistent>
1

> <s_lp_Variant>
AV-unprocessed.smi:1682-4

> <Gold.Version>
5.8.1

> <Gold.Id.Protein>
6NUR|6NUR_protein|mol2

> <Gold.PLP.Fitness>
46.0780

> <Gold.PLP.PLP>
-36.1397

> <Gold.PLP.part.hbond>
-3.0000

> <Gold.PLP.part.metal>
0.0000

> <Gold.PLP.part.buried>
0.6708

> <Gold.PLP.part.nonpolar>
-33.3029

> <Gold.PLP.part.repulsive>
0.0559

> <Gold.PLP.ligand.clash>
0.0000

> <Gold.PLP.ligand.torsion>
0.8446

> <Gold.PLP.Chemscore.Hbond>
3.8400

> <Gold.PLP.Chemscore.CHOScore>
0.0000

> <Gold.PLP.Chemscore.Metal>
0.0000

> <Gold.Chemscore.Hbonds>
donor molecule, donor type, donor heavy atom, donor atom, acceptor molecule, acceptor atom, score
      L1  H    11    39       P1  7948  2.00
      P1  H  6931  6943       L1    15  0.85
      P1  H  6934  6947       L1    15  0.82

> <Gold.PLP.Chemscore.Internal.Correction>
0.1075

> <Gold.Rescore>
     Score         DG    S(hbond)    S(metal)    S(lipo)     H(rot)  DE(clash)    DE(int)     intcor
     14.92     -15.92       2.70        0.00      60.23       2.19       0.14       0.86       ----

> <Gold.Chemscore.Fitness>
14.9174

> <Gold.Chemscore.DG>
-15.9216

> <Gold.Chemscore.ZeroCoef>
-5.4800

> <Gold.Chemscore.Hbond>
2.6972

> <Gold.Chemscore.Metal>
0.0000

> <Gold.Chemscore.Lipo>
60.2348

> <Gold.Chemscore.Internal_Hbond>
0.0000

> <Gold.Chemscore.DEClash>
0.1421

> <Gold.Chemscore.DEInternal>
0.8620

> <Gold.Chemscore.Rot>
2.1932

> <Gold.Chemscore.Internal.Correction>
   9.000000E+99

> <Gold.Chemscore.Hbonds>
donor molecule, donor type, donor heavy atom, donor atom, acceptor molecule, acceptor atom, score
      L1  H    11    39       P1  7948  0.58
      P1  H  6931  6943       L1    15  0.84
      P1  H  6934  6947       L1    15  0.81

> <Gold.Chemscore.Hbond.Weighted>
-9.0086

> <Gold.Chemscore.Metal.Weighted>
-0.0000

> <Gold.Chemscore.Lipo.Weighted>
-7.0475

> <Gold.Chemscore.Internal_Hbond.Weighted>
0.0000

> <Gold.Chemscore.DEClash.Weighted>
0.1421

> <Gold.Chemscore.DEInternal.Weighted>
0.8620

> <Gold.Chemscore.Rot.Weighted>
5.6145

> <Gold.Chemscore.Internal.Correction.Weighted>
   9.000000E+99

> <Gold.Protein.RotatedTorsions>
[ 6907 6896 6895 6894 ] final   83.26 input  -60.11 | X-H torsion
[ 7974 7965 7964 7962 ] final -162.50 input  175.53 | X-H torsion
[ 8008 7997 7996 7995 ] final  134.45 input   59.86 | X-H torsion
[ 10167 10162 10161 10158 ] final -120.65 input  -65.29 | X-H torsion
[ 10718 10713 10712 10709 ] final   88.84 input   66.30 | X-H torsion
[ 10763 10752 10751 10750 ] final   92.27 input  -60.55 | X-H torsion
[ 11005 11000 10999 10996 ] final    9.12 input  -57.11 | X-H torsion

> <Gold.Protein.ActiveResidues>
 VAL166  LYS551  ARG553  GLY616  TRP617  ASP618  TYR619  PRO620  LYS621  CYS622 
 ASP623  PHE694  ASN695  SER759  ASP760  ASP761  ALA762  ILE779  LEU786  VAL792 
 PHE793  MET794  SER795  GLU796  ALA797  LYS798  CYS799  TRP800  GLU811  SER814 

> <Gold.Protein.RotatedAtoms>
  152.5322  134.2924  159.9047 H   0  0  0  0  0  0  0  0  0  0  0  0  # atno 6907 bound_to 6896
  151.2875  133.4174  159.2638 H   0  0  0  0  0  0  0  0  0  0  0  0  # atno 6908 bound_to 6896
  151.0229  134.9498  159.8126 H   0  0  0  0  0  0  0  0  0  0  0  0  # atno 6909 bound_to 6896
  144.7355  140.3243  143.6165 H   0  0  0  0  0  0  0  0  0  0  0  0  # atno 7974 bound_to 7965
  156.2999  140.2496  156.3418 H   0  0  0  0  0  0  0  0  0  0  0  0  # atno 8008 bound_to 7997
  154.9048  140.0405  157.1932 H   0  0  0  0  0  0  0  0  0  0  0  0  # atno 8009 bound_to 7997
  154.8465  140.2899  155.5630 H   0  0  0  0  0  0  0  0  0  0  0  0  # atno 8010 bound_to 7997
  140.0335  143.5224  152.2165 H   0  0  0  0  0  0  0  0  0  0  0  0  # atno 10167 bound_to 10162
  157.6952  131.0310  150.3336 H   0  0  0  0  0  0  0  0  0  0  0  0  # atno 10718 bound_to 10713
  153.2174  135.4367  155.0449 H   0  0  0  0  0  0  0  0  0  0  0  0  # atno 10763 bound_to 10752
  154.8232  135.3348  154.6978 H   0  0  0  0  0  0  0  0  0  0  0  0  # atno 10764 bound_to 10752
  153.7412  135.7004  153.5022 H   0  0  0  0  0  0  0  0  0  0  0  0  # atno 10765 bound_to 10752
  140.5293  134.0482  155.7868 H   0  0  0  0  0  0  0  0  0  0  0  0  # atno 11005 bound_to 11000
  145.7536  139.1802  143.2307 LP  0  0  0  0  0  0  0  0  0  0  0  0  # atno 17320 bound_to 7965
  146.1041  140.7508  142.9535 LP  0  0  0  0  0  0  0  0  0  0  0  0  # atno 17321 bound_to 7965
  139.6060  144.7596  151.3060 LP  0  0  0  0  0  0  0  0  0  0  0  0  # atno 17342 bound_to 10162
  140.7292  143.6915  150.7918 LP  0  0  0  0  0  0  0  0  0  0  0  0  # atno 17343 bound_to 10162
  156.3806  130.3880  149.7104 LP  0  0  0  0  0  0  0  0  0  0  0  0  # atno 17370 bound_to 10713
  156.4488  130.7896  151.2918 LP  0  0  0  0  0  0  0  0  0  0  0  0  # atno 17371 bound_to 10713
  141.1290  133.9334  157.2575 LP  0  0  0  0  0  0  0  0  0  0  0  0  # atno 17394 bound_to 11000
  139.9563  135.0165  156.9136 LP  0  0  0  0  0  0  0  0  0  0  0  0  # atno 17395 bound_to 11000

$$$$
