AV-unprocessed.smi:1933|AV-procd|sdf|7815|dock4
  -GOLD-   22720 9553D 1   1.00000     0.00000
 Structure written by MMmdl.
 47 49  0  0  0  0  0  0  0  0  1 V2000
  145.0884  136.1578  153.6921 O   0  0  0  0  0  0  0  0  0  0  0  0
  146.1829  136.1414  153.1285 C   0  0  0  0  0  0  0  0  0  0  0  0
  147.1987  136.9540  153.4556 N   0  0  0  0  0  0  0  0  0  0  0  0
  147.1804  137.9647  154.5101 C   0  0  0  0  0  0  0  0  0  0  0  0
  148.3511  138.9762  154.3833 C   0  0  2  0  0  0  0  0  0  0  0  0
  149.6805  138.4584  155.0068 C   0  0  2  0  0  0  0  0  0  0  0  0
  150.9832  139.1728  154.6989 C   0  0  0  0  0  0  0  0  0  0  0  0
  151.9939  138.1764  155.2563 C   0  0  0  0  0  0  0  0  0  0  0  0
  151.4350  136.8898  155.0000 O   0  0  0  0  0  0  0  0  0  0  0  0
  150.0519  137.0123  154.6723 C   0  0  0  0  0  0  0  0  0  0  0  0
  148.0001  140.3679  154.7313 N   0  0  0  0  0  0  0  0  0  0  0  0
  147.0454  140.9569  153.7950 C   0  0  0  0  0  0  0  0  0  0  0  0
  146.7882  142.4431  154.1008 C   0  0  0  0  0  0  0  0  0  0  0  0
  146.3407  142.5887  155.4447 O   0  0  0  0  0  0  0  0  0  0  0  0
  147.2631  142.0606  156.3921 C   0  0  0  0  0  0  0  0  0  0  0  0
  147.5040  140.5712  156.0952 C   0  0  0  0  0  0  0  0  0  0  0  0
  146.5248  135.3213  152.1193 N   0  0  0  0  0  0  0  0  0  0  0  0
  145.7486  134.2928  151.5213 C   0  0  0  0  0  0  0  0  0  0  0  0
  146.4938  133.2806  150.8747 C   0  0  0  0  0  0  0  0  0  0  0  0
  145.8182  132.2110  150.2555 C   0  0  0  0  0  0  0  0  0  0  0  0
  144.4131  132.1813  150.2984 C   0  0  0  0  0  0  0  0  0  0  0  0
  143.7475  133.2286  150.9618 C   0  0  0  0  0  0  0  0  0  0  0  0
  144.3930  134.2545  151.5563 N   0  0  0  0  0  0  0  0  0  0  0  0
  148.0587  136.8657  152.9342 H   0  0  0  0  0  0  0  0  0  0  0  0
  146.2251  138.4822  154.4250 H   0  0  0  0  0  0  0  0  0  0  0  0
  147.1823  137.4974  155.4961 H   0  0  0  0  0  0  0  0  0  0  0  0
  148.5853  138.9903  153.3176 H   0  0  0  0  0  0  0  0  0  0  0  0
  149.5610  138.4864  156.0905 H   0  0  0  0  0  0  0  0  0  0  0  0
  151.1575  139.2612  153.6300 H   0  0  0  0  0  0  0  0  0  0  0  0
  151.0617  140.1606  155.1523 H   0  0  0  0  0  0  0  0  0  0  0  0
  152.9804  138.2821  154.8044 H   0  0  0  0  0  0  0  0  0  0  0  0
  152.0990  138.3037  156.3346 H   0  0  0  0  0  0  0  0  0  0  0  0
  149.4489  136.2905  155.2236 H   0  0  0  0  0  0  0  0  0  0  0  0
  149.9356  136.8066  153.6078 H   0  0  0  0  0  0  0  0  0  0  0  0
  147.4203  140.8675  152.7748 H   0  0  0  0  0  0  0  0  0  0  0  0
  146.1005  140.4137  153.8298 H   0  0  0  0  0  0  0  0  0  0  0  0
  147.6951  143.0302  153.9481 H   0  0  0  0  0  0  0  0  0  0  0  0
  146.0308  142.8431  153.4268 H   0  0  0  0  0  0  0  0  0  0  0  0
  148.1992  142.6199  156.3534 H   0  0  0  0  0  0  0  0  0  0  0  0
  146.8549  142.1861  157.3950 H   0  0  0  0  0  0  0  0  0  0  0  0
  146.5623  140.0389  156.2335 H   0  0  0  0  0  0  0  0  0  0  0  0
  148.1873  140.1694  156.8357 H   0  0  0  0  0  0  0  0  0  0  0  0
  147.4547  135.4353  151.7444 H   0  0  0  0  0  0  0  0  0  0  0  0
  147.5732  133.3185  150.8514 H   0  0  0  0  0  0  0  0  0  0  0  0
  146.3696  131.4274  149.7574 H   0  0  0  0  0  0  0  0  0  0  0  0
  143.8600  131.3774  149.8356 H   0  0  0  0  0  0  0  0  0  0  0  0
  142.6691  133.2434  151.0178 H   0  0  0  0  0  0  0  0  0  0  0  0
  1  2  2  0  0  0  0
  2  3  1  0  0  0  0
  2 17  1  0  0  0  0
  3  4  1  0  0  0  0
  3 24  1  0  0  0  0
  4  5  1  0  0  0  0
  4 25  1  0  0  0  0
  4 26  1  0  0  0  0
  5  6  1  0  0  0  0
  5 11  1  0  0  0  0
  5 27  1  0  0  0  0
  6 10  1  0  0  0  0
  6  7  1  0  0  0  0
  6 28  1  0  0  0  0
  7  8  1  0  0  0  0
  7 29  1  0  0  0  0
  7 30  1  0  0  0  0
  8  9  1  0  0  0  0
  8 31  1  0  0  0  0
  8 32  1  0  0  0  0
  9 10  1  0  0  0  0
 10 33  1  0  0  0  0
 10 34  1  0  0  0  0
 11 16  1  0  0  0  0
 11 12  1  0  0  0  0
 12 13  1  0  0  0  0
 12 35  1  0  0  0  0
 12 36  1  0  0  0  0
 13 14  1  0  0  0  0
 13 37  1  0  0  0  0
 13 38  1  0  0  0  0
 14 15  1  0  0  0  0
 15 16  1  0  0  0  0
 15 39  1  0  0  0  0
 15 40  1  0  0  0  0
 16 41  1  0  0  0  0
 16 42  1  0  0  0  0
 17 18  1  0  0  0  0
 17 43  1  0  0  0  0
 18 23  1  0  0  0  0
 18 19  2  0  0  0  0
 19 20  1  0  0  0  0
 19 44  1  0  0  0  0
 20 21  2  0  0  0  0
 20 45  1  0  0  0  0
 21 22  1  0  0  0  0
 21 46  1  0  0  0  0
 22 23  2  0  0  0  0
 22 47  1  0  0  0  0
M  END
> <s_m_source_file>
AV-unprocessed.smi

> <i_m_source_file_index>
1933

> <i_lp_mmshare_version>
43012

> <i_f3d_flags>
0

> <s_epik_input>
bjFbY0hdW2NIXVtjSF1bY0hdYzFbTkhdQyg9TylbTkhdW0NIMl1bQ0BIXShbQ0BASF0yW0NIMl1bQ0gyXU9bQ0gyXTIpTjNbQ0gyXVtDSDJdT1tDSDJdW0NIMl0z

> <s_epik_cmdline>
J2VwaWtfcHl0aG9uJywgJy1waCcsICc3LjAnLCAnLXRuJywgJzgnLCAnLW1hJywgJzIwMCcsICctbWV0YWxfYmluZGluZycsICctaW1hZScsICc8aW5maWxlLm1hZT4nLCAnLW9tYWUnLCAnPG91dGZpbGUubWFlPic=

> <r_epik_Ionization_Penalty>
0.125062

> <r_epik_Ionization_Penalty_Charging>
0

> <r_epik_Ionization_Penalty_Neutral>
0.125062

> <r_epik_State_Penalty>
0.114484

> <r_epik_Charging_Adjusted_Penalty>
0.114484

> <i_epik_Tot_Q>
0

> <i_epik_Tot_abs_Q>
0

> <r_epik_Metal_State_Penalty>
0.114484

> <b_epik_Metal_Only>
0

> <s_lp_Force_Field>
OPLS_2005

> <r_lp_Energy>
57.3648

> <b_lp_Chiralities_Consistent>
1

> <s_lp_Variant>
AV-unprocessed.smi:1933-1

> <Gold.Version>
5.8.1

> <Gold.Id.Protein>
6NUR|6NUR_protein|mol2

> <Gold.PLP.Fitness>
44.0027

> <Gold.PLP.PLP>
-33.4044

> <Gold.PLP.part.hbond>
-2.8189

> <Gold.PLP.part.metal>
0.0000

> <Gold.PLP.part.buried>
-3.6110

> <Gold.PLP.part.nonpolar>
-28.4603

> <Gold.PLP.part.repulsive>
0.6021

> <Gold.PLP.ligand.clash>
0.0000

> <Gold.PLP.ligand.torsion>
0.8566

> <Gold.PLP.Chemscore.Hbond>
2.9920

> <Gold.PLP.Chemscore.CHOScore>
1.0000

> <Gold.PLP.Chemscore.Metal>
0.0000

> <Gold.Chemscore.Hbonds>
donor molecule, donor type, donor heavy atom, donor atom, acceptor molecule, acceptor atom, score
      L1  H     3    24       P1  7948  1.00
      L1  H    17    43       P1  7948  0.98
      P1  H 10752 10764       L1     9  1.00
      L1  C    22    47       P1 10186  1.00

> <Gold.PLP.Chemscore.Internal.Correction>
0.3356

> <Gold.Rescore>
     Score         DG    S(hbond)    S(metal)    S(lipo)     H(rot)  DE(clash)    DE(int)     intcor
     18.00     -20.21       2.84        0.00      82.30       1.72       0.32       1.90       ----

> <Gold.Chemscore.Fitness>
17.9972

> <Gold.Chemscore.DG>
-20.2124

> <Gold.Chemscore.ZeroCoef>
-5.4800

> <Gold.Chemscore.Hbond>
2.8434

> <Gold.Chemscore.Metal>
0.0000

> <Gold.Chemscore.Lipo>
82.2966

> <Gold.Chemscore.Internal_Hbond>
0.0000

> <Gold.Chemscore.DEClash>
0.3159

> <Gold.Chemscore.DEInternal>
1.8993

> <Gold.Chemscore.Rot>
1.7161

> <Gold.Chemscore.Internal.Correction>
   9.000000E+99

> <Gold.Chemscore.Hbonds>
donor molecule, donor type, donor heavy atom, donor atom, acceptor molecule, acceptor atom, score
      L1  H     3    24       P1  7948  0.91
      L1  H    17    43       P1  7948  0.91
      P1  H 10752 10764       L1     9  0.65

> <Gold.Chemscore.Hbond.Weighted>
-9.4969

> <Gold.Chemscore.Metal.Weighted>
-0.0000

> <Gold.Chemscore.Lipo.Weighted>
-9.6287

> <Gold.Chemscore.Internal_Hbond.Weighted>
0.0000

> <Gold.Chemscore.DEClash.Weighted>
0.3159

> <Gold.Chemscore.DEInternal.Weighted>
1.8993

> <Gold.Chemscore.Rot.Weighted>
4.3932

> <Gold.Chemscore.Internal.Correction.Weighted>
   9.000000E+99

> <Gold.Protein.RotatedTorsions>
[ 6907 6896 6895 6894 ] final -133.09 input  -60.11 | X-H torsion
[ 7974 7965 7964 7962 ] final   88.27 input  175.53 | X-H torsion
[ 8008 7997 7996 7995 ] final -111.69 input   59.86 | X-H torsion
[ 10167 10162 10161 10158 ] final   64.87 input  -65.29 | X-H torsion
[ 10718 10713 10712 10709 ] final  170.95 input   66.30 | X-H torsion
[ 10763 10752 10751 10750 ] final  -66.18 input  -60.55 | X-H torsion
[ 11005 11000 10999 10996 ] final    2.08 input  -57.11 | X-H torsion

> <Gold.Protein.ActiveResidues>
 VAL166  LYS551  ARG553  GLY616  TRP617  ASP618  TYR619  PRO620  LYS621  CYS622 
 ASP623  PHE694  ASN695  SER759  ASP760  ASP761  ALA762  ILE779  LEU786  VAL792 
 PHE793  MET794  SER795  GLU796  ALA797  LYS798  CYS799  TRP800  GLU811  SER814 

> <Gold.Protein.RotatedAtoms>
  150.9700  133.6354  159.2739 H   0  0  0  0  0  0  0  0  0  0  0  0  # atno 6907 bound_to 6896
  151.3647  135.0910  159.9455 H   0  0  0  0  0  0  0  0  0  0  0  0  # atno 6908 bound_to 6896
  152.5179  133.9266  159.7615 H   0  0  0  0  0  0  0  0  0  0  0  0  # atno 6909 bound_to 6896
  145.5479  139.2293  143.2529 H   0  0  0  0  0  0  0  0  0  0  0  0  # atno 7974 bound_to 7965
  154.9937  140.0395  157.2330 H   0  0  0  0  0  0  0  0  0  0  0  0  # atno 8008 bound_to 7997
  154.7606  140.2783  155.6195 H   0  0  0  0  0  0  0  0  0  0  0  0  # atno 8009 bound_to 7997
  156.2903  140.2629  156.2383 H   0  0  0  0  0  0  0  0  0  0  0  0  # atno 8010 bound_to 7997
  140.1175  144.4762  150.6940 H   0  0  0  0  0  0  0  0  0  0  0  0  # atno 10167 bound_to 10162
  157.0006  131.0175  151.2831 H   0  0  0  0  0  0  0  0  0  0  0  0  # atno 10718 bound_to 10713
  154.3561  135.6126  153.5667 H   0  0  0  0  0  0  0  0  0  0  0  0  # atno 10763 bound_to 10752
  152.9796  135.5804  154.4687 H   0  0  0  0  0  0  0  0  0  0  0  0  # atno 10764 bound_to 10752
  154.4417  135.2850  155.1820 H   0  0  0  0  0  0  0  0  0  0  0  0  # atno 10765 bound_to 10752
  140.6083  133.9772  155.8165 H   0  0  0  0  0  0  0  0  0  0  0  0  # atno 11005 bound_to 11000
  146.1936  140.6301  142.9134 LP  0  0  0  0  0  0  0  0  0  0  0  0  # atno 17320 bound_to 7965
  144.7544  140.5270  143.6779 LP  0  0  0  0  0  0  0  0  0  0  0  0  # atno 17321 bound_to 7965
  140.6891  143.2366  151.5180 LP  0  0  0  0  0  0  0  0  0  0  0  0  # atno 17342 bound_to 10162
  139.5586  144.2212  152.1654 LP  0  0  0  0  0  0  0  0  0  0  0  0  # atno 17343 bound_to 10162
  157.5393  130.8109  149.8009 LP  0  0  0  0  0  0  0  0  0  0  0  0  # atno 17370 bound_to 10713
  156.0172  130.3809  150.2073 LP  0  0  0  0  0  0  0  0  0  0  0  0  # atno 17371 bound_to 10713
  141.0825  134.0040  157.3363 LP  0  0  0  0  0  0  0  0  0  0  0  0  # atno 17394 bound_to 11000
  139.9203  135.0200  156.8038 LP  0  0  0  0  0  0  0  0  0  0  0  0  # atno 17395 bound_to 11000

$$$$
