AV-unprocessed.smi:2067|AV-procd|sdf|8424|dock10
  -GOLD-   2272011113D 1   1.00000     0.00000
 Structure written by MMmdl.
 47 48  0  0  0  0  0  0  0  0  1 V2000
  151.4349  139.6088  154.4933 C   0  0  0  0  0  0  0  0  0  0  0  0
  150.2672  140.4798  154.0047 C   0  0  1  0  0  0  0  0  0  0  0  0
  149.0509  139.6285  153.5880 C   0  0  0  0  0  0  0  0  0  0  0  0
  147.9029  140.5053  153.0633 C   0  0  0  0  0  0  0  0  0  0  0  0
  147.5008  141.5701  154.0942 C   0  0  0  0  0  0  0  0  0  0  0  0
  148.7091  142.4241  154.5135 C   0  0  0  0  0  0  0  0  0  0  0  0
  149.8696  141.5537  155.0424 C   0  0  1  0  0  0  0  0  0  0  0  0
  149.4819  140.9030  156.2476 O   0  0  0  0  0  0  0  0  0  0  0  0
  149.8213  141.6100  157.4308 C   0  0  0  0  0  0  0  0  0  0  0  0
  151.2763  141.2971  157.7897 C   0  0  0  0  0  0  0  0  0  0  0  0
  151.5607  141.6604  159.1690 N   0  0  0  0  0  0  0  0  0  0  0  0
  152.4676  141.0314  160.0149 C   0  0  0  0  0  0  0  0  0  0  0  0
  153.1873  139.9499  159.6040 C   0  0  0  0  0  0  0  0  0  0  0  0
  153.0496  139.3629  158.3081 C   0  0  0  0  0  0  0  0  0  0  0  0
  152.9242  138.8765  157.2646 N   0  0  0  0  0  0  0  0  0  0  0  0
  154.1380  139.2717  160.4824 C   0  0  0  0  0  0  0  0  0  0  0  0
  154.7993  138.2865  160.1467 O   0  0  0  0  0  0  0  0  0  0  0  0
  154.2442  139.8241  161.7755 N   0  0  0  0  0  0  0  0  0  0  0  0
  155.1654  139.1766  162.6888 C   0  0  0  0  0  0  0  0  0  0  0  0
  153.4897  140.9238  162.2352 C   0  0  0  0  0  0  0  0  0  0  0  0
  153.5929  141.3418  163.3925 O   0  0  0  0  0  0  0  0  0  0  0  0
  152.6008  141.5300  161.3137 N   0  0  0  0  0  0  0  0  0  0  0  0
  151.8822  142.6753  161.8343 C   0  0  0  0  0  0  0  0  0  0  0  0
  151.1599  139.0298  155.3757 H   0  0  0  0  0  0  0  0  0  0  0  0
  152.2990  140.2206  154.7528 H   0  0  0  0  0  0  0  0  0  0  0  0
  151.7489  138.9059  153.7212 H   0  0  0  0  0  0  0  0  0  0  0  0
  150.6169  141.0039  153.1139 H   0  0  0  0  0  0  0  0  0  0  0  0
  149.3428  138.9131  152.8184 H   0  0  0  0  0  0  0  0  0  0  0  0
  148.7012  139.0398  154.4373 H   0  0  0  0  0  0  0  0  0  0  0  0
  148.2090  140.9912  152.1358 H   0  0  0  0  0  0  0  0  0  0  0  0
  147.0423  139.8828  152.8168 H   0  0  0  0  0  0  0  0  0  0  0  0
  146.7187  142.2090  153.6832 H   0  0  0  0  0  0  0  0  0  0  0  0
  147.0724  141.0836  154.9711 H   0  0  0  0  0  0  0  0  0  0  0  0
  149.0561  142.9971  153.6530 H   0  0  0  0  0  0  0  0  0  0  0  0
  148.4023  143.1585  155.2576 H   0  0  0  0  0  0  0  0  0  0  0  0
  150.7399  142.1857  155.2290 H   0  0  0  0  0  0  0  0  0  0  0  0
  149.7099  142.6802  157.2523 H   0  0  0  0  0  0  0  0  0  0  0  0
  149.1650  141.3482  158.2612 H   0  0  0  0  0  0  0  0  0  0  0  0
  151.4937  140.2397  157.6363 H   0  0  0  0  0  0  0  0  0  0  0  0
  151.9273  141.8613  157.1219 H   0  0  0  0  0  0  0  0  0  0  0  0
  151.4605  142.6530  159.3273 H   0  0  0  0  0  0  0  0  0  0  0  0
  155.3960  139.8241  163.5342 H   0  0  0  0  0  0  0  0  0  0  0  0
  156.0946  138.9740  162.1533 H   0  0  0  0  0  0  0  0  0  0  0  0
  154.6870  138.2544  163.0216 H   0  0  0  0  0  0  0  0  0  0  0  0
  151.2482  142.3204  162.6487 H   0  0  0  0  0  0  0  0  0  0  0  0
  151.2726  143.1313  161.0582 H   0  0  0  0  0  0  0  0  0  0  0  0
  152.6211  143.4002  162.1813 H   0  0  0  0  0  0  0  0  0  0  0  0
  1  2  1  0  0  0  0
  1 24  1  0  0  0  0
  1 25  1  0  0  0  0
  1 26  1  0  0  0  0
  2  7  1  0  0  0  0
  2  3  1  0  0  0  0
  2 27  1  0  0  0  0
  3  4  1  0  0  0  0
  3 28  1  0  0  0  0
  3 29  1  0  0  0  0
  4  5  1  0  0  0  0
  4 30  1  0  0  0  0
  4 31  1  0  0  0  0
  5  6  1  0  0  0  0
  5 32  1  0  0  0  0
  5 33  1  0  0  0  0
  6  7  1  0  0  0  0
  6 34  1  0  0  0  0
  6 35  1  0  0  0  0
  7  8  1  0  0  0  0
  7 36  1  0  0  0  0
  8  9  1  0  0  0  0
  9 10  1  0  0  0  0
  9 37  1  0  0  0  0
  9 38  1  0  0  0  0
 10 11  1  0  0  0  0
 10 39  1  0  0  0  0
 10 40  1  0  0  0  0
 11 12  1  0  0  0  0
 11 41  1  0  0  0  0
 12 22  1  0  0  0  0
 12 13  2  0  0  0  0
 13 14  1  0  0  0  0
 13 16  1  0  0  0  0
 14 15  3  0  0  0  0
 16 17  2  0  0  0  0
 16 18  1  0  0  0  0
 18 19  1  0  0  0  0
 18 20  1  0  0  0  0
 19 42  1  0  0  0  0
 19 43  1  0  0  0  0
 19 44  1  0  0  0  0
 20 21  2  0  0  0  0
 20 22  1  0  0  0  0
 22 23  1  0  0  0  0
 23 45  1  0  0  0  0
 23 46  1  0  0  0  0
 23 47  1  0  0  0  0
M  END
> <s_m_source_file>
AV-unprocessed.smi

> <i_m_source_file_index>
2067

> <i_lp_mmshare_version>
43012

> <i_f3d_flags>
0

> <s_epik_input>
W0NIM11bQ0BASF0xW0NIMl1bQ0gyXVtDSDJdW0NIMl1bQ0BIXTFPW0NIMl1bQ0gyXVtOSF1jMmMoQyNOKWMoPU8pbihbQ0gzXSljKD1PKW4yW0NIM10=

> <s_epik_cmdline>
J2VwaWtfcHl0aG9uJywgJy1waCcsICc3LjAnLCAnLXRuJywgJzgnLCAnLW1hJywgJzIwMCcsICctbWV0YWxfYmluZGluZycsICctaW1hZScsICc8aW5maWxlLm1hZT4nLCAnLW9tYWUnLCAnPG91dGZpbGUubWFlPic=

> <r_epik_Ionization_Penalty>
0.00056529

> <r_epik_Ionization_Penalty_Charging>
3.94678e-10

> <r_epik_Ionization_Penalty_Neutral>
0.000565289

> <r_epik_State_Penalty>
0.000354611

> <r_epik_Charging_Adjusted_Penalty>
0.000354611

> <i_epik_Tot_Q>
0

> <i_epik_Tot_abs_Q>
0

> <r_epik_Metal_State_Penalty>
-0

> <b_epik_Metal_Only>
0

> <s_lp_Force_Field>
OPLS_2005

> <r_lp_Energy>
33.1423

> <b_lp_Chiralities_Consistent>
1

> <s_lp_Variant>
AV-unprocessed.smi:2067-2

> <Gold.Version>
5.8.1

> <Gold.Id.Protein>
6NUR|6NUR_protein|mol2

> <Gold.PLP.Fitness>
44.1961

> <Gold.PLP.PLP>
-45.6772

> <Gold.PLP.part.hbond>
-0.8458

> <Gold.PLP.part.metal>
0.0000

> <Gold.PLP.part.buried>
-0.3908

> <Gold.PLP.part.nonpolar>
-43.0045

> <Gold.PLP.part.repulsive>
0.1903

> <Gold.PLP.ligand.clash>
10.2522

> <Gold.PLP.ligand.torsion>
0.8241

> <Gold.PLP.Chemscore.Hbond>
0.0520

> <Gold.PLP.Chemscore.CHOScore>
0.0000

> <Gold.PLP.Chemscore.Metal>
0.0000

> <Gold.Chemscore.Hbonds>
donor molecule, donor type, donor heavy atom, donor atom, acceptor molecule, acceptor atom, score
      P1  H  7997  8010       L1    15  0.30

> <Gold.PLP.Chemscore.Internal.Correction>
10.2633

> <Gold.Rescore>
     Score         DG    S(hbond)    S(metal)    S(lipo)     H(rot)  DE(clash)    DE(int)     intcor
      6.95     -10.50       0.00        0.00      81.40       1.76       0.11       3.45       ----

> <Gold.Chemscore.Fitness>
6.9495

> <Gold.Chemscore.DG>
-10.5025

> <Gold.Chemscore.ZeroCoef>
-5.4800

> <Gold.Chemscore.Hbond>
0.0000

> <Gold.Chemscore.Metal>
0.0000

> <Gold.Chemscore.Lipo>
81.3992

> <Gold.Chemscore.Internal_Hbond>
0.0000

> <Gold.Chemscore.DEClash>
0.1066

> <Gold.Chemscore.DEInternal>
3.4463

> <Gold.Chemscore.Rot>
1.7583

> <Gold.Chemscore.Internal.Correction>
   9.000000E+99

> <Gold.Chemscore.Hbond.Weighted>
-0.0000

> <Gold.Chemscore.Metal.Weighted>
-0.0000

> <Gold.Chemscore.Lipo.Weighted>
-9.5237

> <Gold.Chemscore.Internal_Hbond.Weighted>
0.0000

> <Gold.Chemscore.DEClash.Weighted>
0.1066

> <Gold.Chemscore.DEInternal.Weighted>
3.4463

> <Gold.Chemscore.Rot.Weighted>
4.5012

> <Gold.Chemscore.Internal.Correction.Weighted>
   9.000000E+99

> <Gold.Protein.RotatedTorsions>
[ 6907 6896 6895 6894 ] final  -52.62 input  -60.11 | X-H torsion
[ 7974 7965 7964 7962 ] final  151.82 input  175.53 | X-H torsion
[ 8008 7997 7996 7995 ] final   55.79 input   59.86 | X-H torsion
[ 10167 10162 10161 10158 ] final  -37.09 input  -65.29 | X-H torsion
[ 10718 10713 10712 10709 ] final  162.57 input   66.30 | X-H torsion
[ 10763 10752 10751 10750 ] final   90.43 input  -60.55 | X-H torsion
[ 11005 11000 10999 10996 ] final  163.35 input  -57.11 | X-H torsion

> <Gold.Protein.ActiveResidues>
 VAL166  LYS551  ARG553  GLY616  TRP617  ASP618  TYR619  PRO620  LYS621  CYS622 
 ASP623  PHE694  ASN695  SER759  ASP760  ASP761  ALA762  ILE779  LEU786  VAL792 
 PHE793  MET794  SER795  GLU796  ALA797  LYS798  CYS799  TRP800  GLU811  SER814 

> <Gold.Protein.RotatedAtoms>
  150.8501  134.7823  159.7001 H   0  0  0  0  0  0  0  0  0  0  0  0  # atno 6907 bound_to 6896
  152.4568  134.5270  159.9809 H   0  0  0  0  0  0  0  0  0  0  0  0  # atno 6908 bound_to 6896
  151.5393  133.3397  159.2968 H   0  0  0  0  0  0  0  0  0  0  0  0  # atno 6909 bound_to 6896
  144.8265  139.6587  143.6077 H   0  0  0  0  0  0  0  0  0  0  0  0  # atno 7974 bound_to 7965
  155.5068  140.3476  155.4381 H   0  0  0  0  0  0  0  0  0  0  0  0  # atno 8008 bound_to 7997
  156.0876  140.1402  156.9660 H   0  0  0  0  0  0  0  0  0  0  0  0  # atno 8009 bound_to 7997
  154.4616  140.0933  156.6885 H   0  0  0  0  0  0  0  0  0  0  0  0  # atno 8010 bound_to 7997
  140.7127  143.3365  151.2451 H   0  0  0  0  0  0  0  0  0  0  0  0  # atno 10167 bound_to 10162
  157.1206  131.0491  151.2416 H   0  0  0  0  0  0  0  0  0  0  0  0  # atno 10718 bound_to 10713
  153.1975  135.4434  155.0226 H   0  0  0  0  0  0  0  0  0  0  0  0  # atno 10763 bound_to 10752
  154.8127  135.3301  154.7262 H   0  0  0  0  0  0  0  0  0  0  0  0  # atno 10764 bound_to 10752
  153.7711  135.6984  153.4962 H   0  0  0  0  0  0  0  0  0  0  0  0  # atno 10765 bound_to 10752
  140.2349  134.8096  157.3353 H   0  0  0  0  0  0  0  0  0  0  0  0  # atno 11005 bound_to 11000
  146.2570  139.6325  142.9388 LP  0  0  0  0  0  0  0  0  0  0  0  0  # atno 17320 bound_to 7965
  145.4988  141.0438  143.2552 LP  0  0  0  0  0  0  0  0  0  0  0  0  # atno 17321 bound_to 7965
  139.6861  143.9771  152.2835 LP  0  0  0  0  0  0  0  0  0  0  0  0  # atno 17342 bound_to 10162
  139.9417  144.6677  150.8260 LP  0  0  0  0  0  0  0  0  0  0  0  0  # atno 17343 bound_to 10162
  157.4479  130.7581  149.7126 LP  0  0  0  0  0  0  0  0  0  0  0  0  # atno 17370 bound_to 10713
  155.9829  130.4005  150.3390 LP  0  0  0  0  0  0  0  0  0  0  0  0  # atno 17371 bound_to 10713
  140.1713  134.4606  155.7830 LP  0  0  0  0  0  0  0  0  0  0  0  0  # atno 17394 bound_to 11000
  141.2215  133.6943  156.7711 LP  0  0  0  0  0  0  0  0  0  0  0  0  # atno 17395 bound_to 11000

$$$$
