AV-unprocessed.smi:1679|AV-procd|sdf|6734|dock5
  -GOLD-   22720 7483D 1   1.00000     0.00000
 Structure written by MMmdl.
 44 45  0  0  0  0  0  0  0  0  2 V2000
  151.0538  145.2349  159.1449 C   0  0  0  0  0  0  0  0  0  0  0  0
  152.0136  144.3059  159.9030 C   0  0  1  0  0  0  0  0  0  0  0  0
  151.4331  143.8650  161.2607 C   0  0  0  0  0  0  0  0  0  0  0  0
  152.4314  142.9974  162.0428 C   0  0  0  0  0  0  0  0  0  0  0  0
  152.8709  141.7778  161.2192 C   0  0  0  0  0  0  0  0  0  0  0  0
  153.4392  142.1998  159.8534 C   0  0  0  0  0  0  0  0  0  0  0  0
  152.4524  143.0812  159.0649 C   0  0  1  0  0  0  0  0  0  0  0  0
  151.3250  142.2765  158.7333 O   0  0  0  0  0  0  0  0  0  0  0  0
  151.4838  141.5022  157.5544 C   0  0  0  0  0  0  0  0  0  0  0  0
  151.9602  140.0909  157.9323 C   0  0  0  0  0  0  0  0  0  0  0  0
  151.6153  139.0983  156.9194 N   0  0  0  0  0  0  0  0  0  0  0  0
  151.9176  139.1829  155.6151 C   0  0  0  0  0  0  0  0  0  0  0  0
  152.5397  140.1262  155.1256 O   0  0  0  0  0  0  0  0  0  0  0  0
  151.4809  138.0072  154.7330 C   0  0  0  0  0  0  0  0  0  0  0  0
  150.8544  136.9339  155.5197 N   0  0  0  0  0  0  0  0  0  0  0  0
  149.4671  136.7474  155.3867 C   0  0  0  0  0  0  0  0  0  0  0  0
  148.8067  135.8051  156.0864 C   0  0  0  0  0  0  0  0  0  0  0  0
  149.5686  134.9650  157.0021 C   0  0  0  0  0  0  0  0  0  0  0  0
  148.9821  134.1013  157.6514 O   0  0  0  0  0  0  0  0  0  0  0  0
  150.9131  135.1822  157.0932 N   0  5  0  0  0  0  0  0  0  0  0  0
  151.5710  136.1438  156.3743 C   0  0  0  0  0  0  0  0  0  0  0  0
  152.7850  136.3227  156.4723 O   0  0  0  0  0  0  0  0  0  0  0  0
  150.1152  144.7336  158.9138 H   0  0  0  0  0  0  0  0  0  0  0  0
  151.4917  145.5726  158.2056 H   0  0  0  0  0  0  0  0  0  0  0  0
  150.8150  146.1197  159.7357 H   0  0  0  0  0  0  0  0  0  0  0  0
  152.9105  144.8914  160.1109 H   0  0  0  0  0  0  0  0  0  0  0  0
  151.1638  144.7390  161.8545 H   0  0  0  0  0  0  0  0  0  0  0  0
  150.5115  143.3036  161.1042 H   0  0  0  0  0  0  0  0  0  0  0  0
  153.3045  143.5947  162.3081 H   0  0  0  0  0  0  0  0  0  0  0  0
  151.9833  142.6704  162.9813 H   0  0  0  0  0  0  0  0  0  0  0  0
  153.6173  141.2064  161.7713 H   0  0  0  0  0  0  0  0  0  0  0  0
  152.0198  141.1116  161.0726 H   0  0  0  0  0  0  0  0  0  0  0  0
  154.3695  142.7482  160.0060 H   0  0  0  0  0  0  0  0  0  0  0  0
  153.6977  141.3161  159.2693 H   0  0  0  0  0  0  0  0  0  0  0  0
  152.9610  143.4269  158.1626 H   0  0  0  0  0  0  0  0  0  0  0  0
  150.5513  141.4546  156.9913 H   0  0  0  0  0  0  0  0  0  0  0  0
  152.2231  141.9768  156.9080 H   0  0  0  0  0  0  0  0  0  0  0  0
  153.0395  140.0900  158.0903 H   0  0  0  0  0  0  0  0  0  0  0  0
  151.5082  139.7883  158.8772 H   0  0  0  0  0  0  0  0  0  0  0  0
  151.0952  138.2908  157.2309 H   0  0  0  0  0  0  0  0  0  0  0  0
  150.7773  138.3835  153.9894 H   0  0  0  0  0  0  0  0  0  0  0  0
  152.3263  137.6288  154.1553 H   0  0  0  0  0  0  0  0  0  0  0  0
  148.9787  137.4168  154.6939 H   0  0  0  0  0  0  0  0  0  0  0  0
  147.7401  135.6768  155.9757 H   0  0  0  0  0  0  0  0  0  0  0  0
  1  2  1  0  0  0  0
  1 23  1  0  0  0  0
  1 24  1  0  0  0  0
  1 25  1  0  0  0  0
  2  7  1  0  0  0  0
  2  3  1  0  0  0  0
  2 26  1  0  0  0  0
  3  4  1  0  0  0  0
  3 27  1  0  0  0  0
  3 28  1  0  0  0  0
  4  5  1  0  0  0  0
  4 29  1  0  0  0  0
  4 30  1  0  0  0  0
  5  6  1  0  0  0  0
  5 31  1  0  0  0  0
  5 32  1  0  0  0  0
  6  7  1  0  0  0  0
  6 33  1  0  0  0  0
  6 34  1  0  0  0  0
  7  8  1  0  0  0  0
  7 35  1  0  0  0  0
  8  9  1  0  0  0  0
  9 10  1  0  0  0  0
  9 36  1  0  0  0  0
  9 37  1  0  0  0  0
 10 11  1  0  0  0  0
 10 38  1  0  0  0  0
 10 39  1  0  0  0  0
 11 12  1  0  0  0  0
 11 40  1  0  0  0  0
 12 13  2  0  0  0  0
 12 14  1  0  0  0  0
 14 15  1  0  0  0  0
 14 41  1  0  0  0  0
 14 42  1  0  0  0  0
 15 21  1  0  0  0  0
 15 16  1  0  0  0  0
 16 17  2  0  0  0  0
 16 43  1  0  0  0  0
 17 18  1  0  0  0  0
 17 44  1  0  0  0  0
 18 19  2  0  0  0  0
 18 20  1  0  0  0  0
 20 21  1  0  0  0  0
 21 22  2  0  0  0  0
M  CHG  1  20  -1
M  END
> <s_m_source_file>
AV-unprocessed.smi

> <i_m_source_file_index>
1679

> <i_lp_mmshare_version>
43012

> <i_f3d_flags>
0

> <s_epik_input>
W0NIM11bQ0BASF0xW0NIMl1bQ0gyXVtDSDJdW0NIMl1bQ0BIXTFPW0NIMl1bQ0gyXVtOSF1DKD1PKVtDSDJdbjJbY0hdW2NIXWMoPU8pW25IXWMyPU8=

> <s_epik_cmdline>
J2VwaWtfcHl0aG9uJywgJy1waCcsICc3LjAnLCAnLXRuJywgJzgnLCAnLW1hJywgJzIwMCcsICctbWV0YWxfYmluZGluZycsICctaW1hZScsICc8aW5maWxlLm1hZT4nLCAnLW9tYWUnLCAnPG91dGZpbGUubWFlPic=

> <r_lp_tautomer_probability>
0.999537

> <r_epik_Ionization_Penalty>
3.07454

> <r_epik_Ionization_Penalty_Charging>
2.80088e-08

> <r_epik_Ionization_Penalty_Neutral>
3.07454

> <r_epik_State_Penalty>
3.07357

> <r_epik_Charging_Adjusted_Penalty>
3.07357

> <i_epik_Tot_Q>
-1

> <i_epik_Tot_abs_Q>
1

> <r_epik_Metal_State_Penalty>
0.45948

> <b_epik_Metal_Only>
1

> <s_lp_Force_Field>
OPLS_2005

> <r_lp_Energy>
19.3996

> <b_lp_Chiralities_Consistent>
1

> <s_lp_Variant>
AV-unprocessed.smi:1679-6

> <Gold.Version>
5.8.1

> <Gold.Id.Protein>
6NUR|6NUR_protein|mol2

> <Gold.PLP.Fitness>
52.9733

> <Gold.PLP.PLP>
-44.3924

> <Gold.PLP.part.hbond>
-5.0000

> <Gold.PLP.part.metal>
0.0000

> <Gold.PLP.part.buried>
-2.9892

> <Gold.PLP.part.nonpolar>
-35.4144

> <Gold.PLP.part.repulsive>
0.1094

> <Gold.PLP.ligand.clash>
0.0000

> <Gold.PLP.ligand.torsion>
0.7974

> <Gold.PLP.Chemscore.Hbond>
3.3620

> <Gold.PLP.Chemscore.CHOScore>
0.0000

> <Gold.PLP.Chemscore.Metal>
0.0000

> <Gold.Chemscore.Hbonds>
donor molecule, donor type, donor heavy atom, donor atom, acceptor molecule, acceptor atom, score
      P1  H  6896  6908       L1    19  0.07
      P1  H  7989  7998       L1    13  0.53
      P1  H  7997  8009       L1    13  0.96
      P1  H 10752 10764       L1    22  1.00

> <Gold.PLP.Chemscore.Internal.Correction>
0.0898

> <Gold.Rescore>
     Score         DG    S(hbond)    S(metal)    S(lipo)     H(rot)  DE(clash)    DE(int)     intcor
     16.98     -19.74       2.43        0.00     106.12       2.45       0.00       2.75       ----

> <Gold.Chemscore.Fitness>
16.9817

> <Gold.Chemscore.DG>
-19.7380

> <Gold.Chemscore.ZeroCoef>
-5.4800

> <Gold.Chemscore.Hbond>
2.4287

> <Gold.Chemscore.Metal>
0.0000

> <Gold.Chemscore.Lipo>
106.1163

> <Gold.Chemscore.Internal_Hbond>
0.0000

> <Gold.Chemscore.DEClash>
0.0048

> <Gold.Chemscore.DEInternal>
2.7515

> <Gold.Chemscore.Rot>
2.4490

> <Gold.Chemscore.Internal.Correction>
   9.000000E+99

> <Gold.Chemscore.Hbonds>
donor molecule, donor type, donor heavy atom, donor atom, acceptor molecule, acceptor atom, score
      P1  H  6896  6908       L1    19  0.01
      P1  H  7989  7998       L1    13  0.45
      P1  H  7997  8009       L1    13  0.63
      P1  H 10752 10764       L1    22  0.44

> <Gold.Chemscore.Hbond.Weighted>
-8.1118

> <Gold.Chemscore.Metal.Weighted>
-0.0000

> <Gold.Chemscore.Lipo.Weighted>
-12.4156

> <Gold.Chemscore.Internal_Hbond.Weighted>
0.0000

> <Gold.Chemscore.DEClash.Weighted>
0.0048

> <Gold.Chemscore.DEInternal.Weighted>
2.7515

> <Gold.Chemscore.Rot.Weighted>
6.2694

> <Gold.Chemscore.Internal.Correction.Weighted>
   9.000000E+99

> <Gold.Protein.RotatedTorsions>
[ 6907 6896 6895 6894 ] final  129.40 input  -60.11 | X-H torsion
[ 7974 7965 7964 7962 ] final   30.24 input  175.53 | X-H torsion
[ 8008 7997 7996 7995 ] final -140.33 input   59.86 | X-H torsion
[ 10167 10162 10161 10158 ] final   18.05 input  -65.29 | X-H torsion
[ 10718 10713 10712 10709 ] final   89.32 input   66.30 | X-H torsion
[ 10763 10752 10751 10750 ] final   -8.52 input  -60.55 | X-H torsion
[ 11005 11000 10999 10996 ] final  173.75 input  -57.11 | X-H torsion

> <Gold.Protein.ActiveResidues>
 VAL166  LYS551  ARG553  GLY616  TRP617  ASP618  TYR619  PRO620  LYS621  CYS622 
 ASP623  PHE694  ASN695  SER759  ASP760  ASP761  ALA762  ILE779  LEU786  VAL792 
 PHE793  MET794  SER795  GLU796  ALA797  LYS798  CYS799  TRP800  GLU811  SER814 

> <Gold.Protein.RotatedAtoms>
  152.3627  133.6317  159.6026 H   0  0  0  0  0  0  0  0  0  0  0  0  # atno 6907 bound_to 6896
  150.7612  133.9397  159.3461 H   0  0  0  0  0  0  0  0  0  0  0  0  # atno 6908 bound_to 6896
  151.7233  135.0891  160.0339 H   0  0  0  0  0  0  0  0  0  0  0  0  # atno 6909 bound_to 6896
  146.1623  139.6814  142.9025 H   0  0  0  0  0  0  0  0  0  0  0  0  # atno 7974 bound_to 7965
  155.4596  140.0545  157.2992 H   0  0  0  0  0  0  0  0  0  0  0  0  # atno 8008 bound_to 7997
  154.4743  140.2054  155.9872 H   0  0  0  0  0  0  0  0  0  0  0  0  # atno 8009 bound_to 7997
  156.1106  140.3204  155.8072 H   0  0  0  0  0  0  0  0  0  0  0  0  # atno 8010 bound_to 7997
  140.5682  143.9212  150.6692 H   0  0  0  0  0  0  0  0  0  0  0  0  # atno 10167 bound_to 10162
  157.6954  131.0328  150.3408 H   0  0  0  0  0  0  0  0  0  0  0  0  # atno 10718 bound_to 10713
  153.4417  135.7014  153.6165 H   0  0  0  0  0  0  0  0  0  0  0  0  # atno 10763 bound_to 10752
  153.4537  135.3752  155.2298 H   0  0  0  0  0  0  0  0  0  0  0  0  # atno 10764 bound_to 10752
  154.8727  135.4003  154.3817 H   0  0  0  0  0  0  0  0  0  0  0  0  # atno 10765 bound_to 10752
  140.3438  134.7253  157.4221 H   0  0  0  0  0  0  0  0  0  0  0  0  # atno 11005 bound_to 11000
  145.4556  141.0430  143.2780 LP  0  0  0  0  0  0  0  0  0  0  0  0  # atno 17320 bound_to 7965
  144.8044  139.6078  143.7057 LP  0  0  0  0  0  0  0  0  0  0  0  0  # atno 17321 bound_to 7965
  140.2680  143.3476  152.1263 LP  0  0  0  0  0  0  0  0  0  0  0  0  # atno 17342 bound_to 10162
  139.5103  144.6882  151.5829 LP  0  0  0  0  0  0  0  0  0  0  0  0  # atno 17343 bound_to 10162
  156.3869  130.3891  149.7059 LP  0  0  0  0  0  0  0  0  0  0  0  0  # atno 17370 bound_to 10713
  156.4422  130.7866  151.2888 LP  0  0  0  0  0  0  0  0  0  0  0  0  # atno 17371 bound_to 10713
  140.0759  134.5798  155.8592 LP  0  0  0  0  0  0  0  0  0  0  0  0  # atno 17394 bound_to 11000
  141.2031  133.6629  156.6044 LP  0  0  0  0  0  0  0  0  0  0  0  0  # atno 17395 bound_to 11000

$$$$
