AV-unprocessed.smi:199|AV-procd|sdf|1566|dock4
  -GOLD-   2262019443D 1   1.00000     0.00000
 Structure written by MMmdl.
 51 55  0  0  0  0  0  0  0  0  1 V2000
  148.1576  139.9524  154.3266 C   0  0  0  0  0  0  0  0  0  0  0  0
  149.2490  139.3644  155.2361 C   0  0  2  0  0  0  0  0  0  0  0  0
  150.1823  140.3733  155.6215 O   0  0  0  0  0  0  0  0  0  0  0  0
  151.4961  139.9978  155.2335 C   0  0  0  0  0  0  0  0  0  0  0  0
  151.4606  138.4758  155.2104 C   0  0  0  0  0  0  0  0  0  0  0  0
  150.0705  138.1865  154.6605 C   0  0  2  0  0  0  0  0  0  0  0  0
  150.1301  138.2534  153.2443 O   0  0  0  0  0  0  0  0  0  0  0  0
  149.5095  136.8017  155.0626 C   0  0  0  0  0  0  0  0  0  0  0  0
  149.3079  136.6561  156.4960 N   0  0  0  0  0  0  0  0  0  0  0  0
  150.2426  136.8618  157.4836 C   0  0  0  0  0  0  0  0  0  0  0  0
  149.8186  136.6532  158.6990 N   0  0  0  0  0  0  0  0  0  0  0  0
  148.4845  136.2899  158.5469 C   0  0  0  0  0  0  0  0  0  0  0  0
  147.4310  135.9312  159.4412 C   0  0  0  0  0  0  0  0  0  0  0  0
  147.5411  135.8552  160.7972 N   0  0  0  0  0  0  0  0  0  0  0  0
  146.8210  136.7540  161.6872 C   0  0  2  0  0  0  0  0  0  0  0  0
  147.4144  136.3996  163.0621 C   0  0  0  0  0  0  0  0  0  0  0  0
  147.6605  134.8924  162.9055 C   0  0  0  0  0  0  0  0  0  0  0  0
  147.1166  134.6436  161.4866 C   0  0  1  0  0  0  0  0  0  0  0  0
  145.5677  134.7388  161.4381 C   0  0  1  0  0  0  0  0  0  0  0  0
  144.7721  133.8530  162.4152 C   0  0  0  0  0  0  0  0  0  0  0  0
  145.1915  132.5093  162.3116 O   0  0  0  0  0  0  0  0  0  0  0  0
  145.3630  136.2530  161.6312 C   0  0  0  0  0  0  0  0  0  0  0  0
  146.2298  135.6170  158.8881 N   0  0  0  0  0  0  0  0  0  0  0  0
  146.0551  135.6623  157.5650 C   0  0  0  0  0  0  0  0  0  0  0  0
  146.9378  135.9843  156.6194 N   0  0  0  0  0  0  0  0  0  0  0  0
  148.1506  136.2905  157.1607 C   0  0  0  0  0  0  0  0  0  0  0  0
  147.4467  139.1843  154.0209 H   0  0  0  0  0  0  0  0  0  0  0  0
  148.5808  140.3998  153.4267 H   0  0  0  0  0  0  0  0  0  0  0  0
  147.6006  140.7314  154.8471 H   0  0  0  0  0  0  0  0  0  0  0  0
  148.7753  139.0421  156.1641 H   0  0  0  0  0  0  0  0  0  0  0  0
  151.7015  140.3941  154.2382 H   0  0  0  0  0  0  0  0  0  0  0  0
  152.2457  140.3921  155.9200 H   0  0  0  0  0  0  0  0  0  0  0  0
  152.2682  138.0377  154.6220 H   0  0  0  0  0  0  0  0  0  0  0  0
  151.5479  138.1011  156.2314 H   0  0  0  0  0  0  0  0  0  0  0  0
  149.7689  137.4549  152.8902 H   0  0  0  0  0  0  0  0  0  0  0  0
  148.5512  136.6260  154.5718 H   0  0  0  0  0  0  0  0  0  0  0  0
  150.1766  136.0090  154.7209 H   0  0  0  0  0  0  0  0  0  0  0  0
  151.2579  137.1650  157.2731 H   0  0  0  0  0  0  0  0  0  0  0  0
  146.9274  137.8159  161.4732 H   0  0  0  0  0  0  0  0  0  0  0  0
  148.3550  136.9255  163.2305 H   0  0  0  0  0  0  0  0  0  0  0  0
  146.7408  136.6370  163.8862 H   0  0  0  0  0  0  0  0  0  0  0  0
  148.7302  134.6815  162.9407 H   0  0  0  0  0  0  0  0  0  0  0  0
  147.1855  134.2899  163.6781 H   0  0  0  0  0  0  0  0  0  0  0  0
  147.5007  133.7173  161.0579 H   0  0  0  0  0  0  0  0  0  0  0  0
  145.2443  134.4820  160.4275 H   0  0  0  0  0  0  0  0  0  0  0  0
  144.8678  134.1897  163.4468 H   0  0  0  0  0  0  0  0  0  0  0  0
  143.7101  133.8991  162.1727 H   0  0  0  0  0  0  0  0  0  0  0  0
  144.5621  131.9631  162.7574 H   0  0  0  0  0  0  0  0  0  0  0  0
  144.8044  136.5039  162.5337 H   0  0  0  0  0  0  0  0  0  0  0  0
  144.8306  136.6791  160.7799 H   0  0  0  0  0  0  0  0  0  0  0  0
  145.0675  135.4009  157.2146 H   0  0  0  0  0  0  0  0  0  0  0  0
  1  2  1  0  0  0  0
  1 27  1  0  0  0  0
  1 28  1  0  0  0  0
  1 29  1  0  0  0  0
  2  6  1  0  0  0  0
  2  3  1  0  0  0  0
  2 30  1  0  0  0  0
  3  4  1  0  0  0  0
  4  5  1  0  0  0  0
  4 31  1  0  0  0  0
  4 32  1  0  0  0  0
  5  6  1  0  0  0  0
  5 33  1  0  0  0  0
  5 34  1  0  0  0  0
  6  7  1  0  0  0  0
  6  8  1  0  0  0  0
  7 35  1  0  0  0  0
  8  9  1  0  0  0  0
  8 36  1  0  0  0  0
  8 37  1  0  0  0  0
  9 26  1  0  0  0  0
  9 10  1  0  0  0  0
 10 11  2  0  0  0  0
 10 38  1  0  0  0  0
 11 12  1  0  0  0  0
 12 26  2  0  0  0  0
 12 13  1  0  0  0  0
 13 14  1  0  0  0  0
 13 23  2  0  0  0  0
 14 18  1  0  0  0  0
 14 15  1  0  0  0  0
 15 22  1  0  0  0  0
 15 16  1  0  0  0  0
 15 39  1  0  0  0  0
 16 17  1  0  0  0  0
 16 40  1  0  0  0  0
 16 41  1  0  0  0  0
 17 18  1  0  0  0  0
 17 42  1  0  0  0  0
 17 43  1  0  0  0  0
 18 19  1  0  0  0  0
 18 44  1  0  0  0  0
 19 20  1  0  0  0  0
 19 22  1  0  0  0  0
 19 45  1  0  0  0  0
 20 21  1  0  0  0  0
 20 46  1  0  0  0  0
 20 47  1  0  0  0  0
 21 48  1  0  0  0  0
 22 49  1  0  0  0  0
 22 50  1  0  0  0  0
 23 24  1  0  0  0  0
 24 25  2  0  0  0  0
 24 51  1  0  0  0  0
 25 26  1  0  0  0  0
M  END
> <s_m_source_file>
AV-unprocessed.smi

> <i_m_source_file_index>
199

> <i_lp_mmshare_version>
43012

> <i_f3d_flags>
0

> <s_epik_input>
W0NIMl0xW0NIMl1PW0NAQEhdKFtDSDNdKVtDQEBdMShbT0hdKVtDSDJdbihbY0hdbjIpYyhjMjMpbltjSF1uYzNOKFtDQEBIXTQ1KVtDQEhdKFtDSDJdW0NIMl00KVtDQEhdKFtDSDJdNSlbQ0gyXVtPSF0=

> <s_epik_cmdline>
J2VwaWtfcHl0aG9uJywgJy1waCcsICc3LjAnLCAnLXRuJywgJzgnLCAnLW1hJywgJzIwMCcsICctbWV0YWxfYmluZGluZycsICctaW1hZScsICc8aW5maWxlLm1hZT4nLCAnLW9tYWUnLCAnPG91dGZpbGUubWFlPic=

> <r_lp_tautomer_probability>
1

> <r_epik_Ionization_Penalty>
0.00583903

> <r_epik_Ionization_Penalty_Charging>
0

> <r_epik_Ionization_Penalty_Neutral>
0.00583903

> <r_epik_State_Penalty>
-0

> <r_epik_Charging_Adjusted_Penalty>
0

> <i_epik_Tot_Q>
0

> <i_epik_Tot_abs_Q>
0

> <r_epik_Metal_State_Penalty>
-0

> <b_epik_Metal_Only>
0

> <s_lp_Force_Field>
OPLS_2005

> <r_lp_Energy>
84.6661

> <b_lp_Chiralities_Consistent>
1

> <s_lp_Variant>
AV-unprocessed.smi:199-7

> <Gold.Version>
5.8.1

> <Gold.Id.Protein>
6NUR|6NUR_protein|mol2

> <Gold.PLP.Fitness>
43.3744

> <Gold.PLP.PLP>
-37.7337

> <Gold.PLP.part.hbond>
-4.3983

> <Gold.PLP.part.metal>
0.0000

> <Gold.PLP.part.buried>
-3.9965

> <Gold.PLP.part.nonpolar>
-28.6349

> <Gold.PLP.part.repulsive>
0.0034

> <Gold.PLP.ligand.clash>
0.0000

> <Gold.PLP.ligand.torsion>
0.2060

> <Gold.PLP.Chemscore.Hbond>
2.0000

> <Gold.PLP.Chemscore.CHOScore>
0.0000

> <Gold.PLP.Chemscore.Metal>
0.0000

> <Gold.Chemscore.Hbonds>
donor molecule, donor type, donor heavy atom, donor atom, acceptor molecule, acceptor atom, score
      L1  H     7    35       P1  7948  1.00
      P1  H  6896  6907       L1    11  0.17

> <Gold.PLP.Chemscore.Internal.Correction>
0.0526

> <Gold.Rescore>
     Score         DG    S(hbond)    S(metal)    S(lipo)     H(rot)  DE(clash)    DE(int)     intcor
     11.05     -13.91       1.89        0.00      85.41       3.07       0.07       2.78       ----

> <Gold.Chemscore.Fitness>
11.0537

> <Gold.Chemscore.DG>
-13.9052

> <Gold.Chemscore.ZeroCoef>
-5.4800

> <Gold.Chemscore.Hbond>
1.8857

> <Gold.Chemscore.Metal>
0.0000

> <Gold.Chemscore.Lipo>
85.4149

> <Gold.Chemscore.Internal_Hbond>
0.0000

> <Gold.Chemscore.DEClash>
0.0740

> <Gold.Chemscore.DEInternal>
2.7775

> <Gold.Chemscore.Rot>
3.0729

> <Gold.Chemscore.Internal.Correction>
   9.000000E+99

> <Gold.Chemscore.Hbonds>
donor molecule, donor type, donor heavy atom, donor atom, acceptor molecule, acceptor atom, score
      L1  H     7    35       P1  7948  0.40
      P1  H  6896  6907       L1    11  0.04

> <Gold.Chemscore.Hbond.Weighted>
-6.2983

> <Gold.Chemscore.Metal.Weighted>
-0.0000

> <Gold.Chemscore.Lipo.Weighted>
-9.9935

> <Gold.Chemscore.Internal_Hbond.Weighted>
0.0000

> <Gold.Chemscore.DEClash.Weighted>
0.0740

> <Gold.Chemscore.DEInternal.Weighted>
2.7775

> <Gold.Chemscore.Rot.Weighted>
7.8667

> <Gold.Chemscore.Internal.Correction.Weighted>
   9.000000E+99

> <Gold.Protein.RotatedTorsions>
[ 6907 6896 6895 6894 ] final  -66.94 input  -60.11 | X-H torsion
[ 7974 7965 7964 7962 ] final   33.93 input  175.53 | X-H torsion
[ 8008 7997 7996 7995 ] final -153.87 input   59.86 | X-H torsion
[ 10167 10162 10161 10158 ] final   29.36 input  -65.29 | X-H torsion
[ 10718 10713 10712 10709 ] final -152.97 input   66.30 | X-H torsion
[ 10763 10752 10751 10750 ] final  -93.12 input  -60.55 | X-H torsion
[ 11005 11000 10999 10996 ] final -121.38 input  -57.11 | X-H torsion

> <Gold.Protein.ActiveResidues>
 VAL166  LYS551  ARG553  GLY616  TRP617  ASP618  TYR619  PRO620  LYS621  CYS622 
 ASP623  PHE694  ASN695  SER759  ASP760  ASP761  ALA762  ILE779  LEU786  VAL792 
 PHE793  MET794  SER795  GLU796  ALA797  LYS798  CYS799  TRP800  GLU811  SER814 

> <Gold.Protein.RotatedAtoms>
  150.7437  134.5951  159.6007 H   0  0  0  0  0  0  0  0  0  0  0  0  # atno 6907 bound_to 6896
  152.3328  134.7234  160.0294 H   0  0  0  0  0  0  0  0  0  0  0  0  # atno 6908 bound_to 6896
  151.7712  133.3305  159.3481 H   0  0  0  0  0  0  0  0  0  0  0  0  # atno 6909 bound_to 6896
  146.1387  139.6334  142.9177 H   0  0  0  0  0  0  0  0  0  0  0  0  # atno 7974 bound_to 7965
  155.6775  140.0740  157.2497 H   0  0  0  0  0  0  0  0  0  0  0  0  # atno 8008 bound_to 7997
  154.4111  140.1688  156.1998 H   0  0  0  0  0  0  0  0  0  0  0  0  # atno 8009 bound_to 7997
  155.9563  140.3373  155.6455 H   0  0  0  0  0  0  0  0  0  0  0  0  # atno 8010 bound_to 7997
  140.4773  144.0671  150.6254 H   0  0  0  0  0  0  0  0  0  0  0  0  # atno 10167 bound_to 10162
  156.4795  130.8296  151.2524 H   0  0  0  0  0  0  0  0  0  0  0  0  # atno 10718 bound_to 10713
  154.6928  135.5206  153.8415 H   0  0  0  0  0  0  0  0  0  0  0  0  # atno 10763 bound_to 10752
  153.0644  135.6580  154.0397 H   0  0  0  0  0  0  0  0  0  0  0  0  # atno 10764 bound_to 10752
  154.0268  135.2989  155.3353 H   0  0  0  0  0  0  0  0  0  0  0  0  # atno 10765 bound_to 10752
  141.0074  134.0314  157.3459 H   0  0  0  0  0  0  0  0  0  0  0  0  # atno 11005 bound_to 11000
  145.5096  141.0436  143.2495 LP  0  0  0  0  0  0  0  0  0  0  0  0  # atno 17320 bound_to 7965
  144.7769  139.6611  143.7171 LP  0  0  0  0  0  0  0  0  0  0  0  0  # atno 17321 bound_to 7965
  140.3903  143.2756  152.0068 LP  0  0  0  0  0  0  0  0  0  0  0  0  # atno 17342 bound_to 10162
  139.4827  144.6083  151.7481 LP  0  0  0  0  0  0  0  0  0  0  0  0  # atno 17343 bound_to 10162
  157.7484  131.0049  150.3095 LP  0  0  0  0  0  0  0  0  0  0  0  0  # atno 17370 bound_to 10713
  156.3536  130.3835  149.7309 LP  0  0  0  0  0  0  0  0  0  0  0  0  # atno 17371 bound_to 10713
  139.9071  135.0182  156.7533 LP  0  0  0  0  0  0  0  0  0  0  0  0  # atno 17394 bound_to 11000
  140.6790  133.9492  155.7899 LP  0  0  0  0  0  0  0  0  0  0  0  0  # atno 17395 bound_to 11000

$$$$
