AV-unprocessed.smi:2751|AV-procd|sdf|10603|dock10
  -GOLD-   2272015 53D 1   1.00000     0.00000
 Structure written by MMmdl.
 33 34  0  0  0  0  0  0  0  0  2 V2000
  151.3804  138.8517  158.3077 O   0  0  0  0  0  0  0  0  0  0  0  0
  152.0677  139.7294  157.7799 C   0  0  0  0  0  0  0  0  0  0  0  0
  152.9262  140.4432  158.5229 N   0  0  0  0  0  0  0  0  0  0  0  0
  153.1477  140.2904  159.9571 C   0  0  0  0  0  0  0  0  0  0  0  0
  153.2336  141.6534  160.6654 C   0  0  0  0  0  0  0  0  0  0  0  0
  152.2506  142.6870  160.0934 C   0  0  2  0  0  0  0  0  0  0  0  0
  152.9039  143.5641  159.0074 C   0  0  0  0  0  0  0  0  0  0  0  0
  151.9204  144.6301  158.5109 C   0  0  0  0  0  0  0  0  0  0  0  0
  151.3652  145.4165  159.7031 C   0  0  0  0  0  0  0  0  0  0  0  0
  150.7963  144.4552  160.7586 C   0  0  0  0  0  0  0  0  0  0  0  0
  151.7980  143.5241  161.1566 O   0  0  0  0  0  0  0  0  0  0  0  0
  152.0571  140.0777  156.4732 N   0  5  0  0  0  0  0  0  0  0  0  0
  150.9052  140.4443  155.8885 C   0  0  0  0  0  0  0  0  0  0  0  0
  149.9679  141.2350  156.4142 N   0  0  0  0  0  0  0  0  0  0  0  0
  148.9669  141.3233  155.4590 C   0  0  0  0  0  0  0  0  0  0  0  0
  149.3452  140.5669  154.3836 C   0  0  0  0  0  0  0  0  0  0  0  0
  150.5632  140.0030  154.6446 O   0  0  0  0  0  0  0  0  0  0  0  0
  153.4696  141.1510  158.0506 H   0  0  0  0  0  0  0  0  0  0  0  0
  152.3581  139.6781  160.3956 H   0  0  0  0  0  0  0  0  0  0  0  0
  154.0781  139.7392  160.0944 H   0  0  0  0  0  0  0  0  0  0  0  0
  153.0531  141.5263  161.7336 H   0  0  0  0  0  0  0  0  0  0  0  0
  154.2486  142.0414  160.5708 H   0  0  0  0  0  0  0  0  0  0  0  0
  151.3975  142.1584  159.6639 H   0  0  0  0  0  0  0  0  0  0  0  0
  153.7938  144.0489  159.4114 H   0  0  0  0  0  0  0  0  0  0  0  0
  153.2362  142.9473  158.1717 H   0  0  0  0  0  0  0  0  0  0  0  0
  152.4102  145.3019  157.8059 H   0  0  0  0  0  0  0  0  0  0  0  0
  151.1014  144.1513  157.9727 H   0  0  0  0  0  0  0  0  0  0  0  0
  152.1600  146.0160  160.1486 H   0  0  0  0  0  0  0  0  0  0  0  0
  150.5950  146.1132  159.3712 H   0  0  0  0  0  0  0  0  0  0  0  0
  150.4671  145.0135  161.6349 H   0  0  0  0  0  0  0  0  0  0  0  0
  149.9242  143.9250  160.3731 H   0  0  0  0  0  0  0  0  0  0  0  0
  148.0750  141.9106  155.6188 H   0  0  0  0  0  0  0  0  0  0  0  0
  148.8974  140.3394  153.4280 H   0  0  0  0  0  0  0  0  0  0  0  0
  1  2  2  0  0  0  0
  2 12  1  0  0  0  0
  2  3  1  0  0  0  0
  3  4  1  0  0  0  0
  3 18  1  0  0  0  0
  4  5  1  0  0  0  0
  4 19  1  0  0  0  0
  4 20  1  0  0  0  0
  5  6  1  0  0  0  0
  5 21  1  0  0  0  0
  5 22  1  0  0  0  0
  6 11  1  0  0  0  0
  6  7  1  0  0  0  0
  6 23  1  0  0  0  0
  7  8  1  0  0  0  0
  7 24  1  0  0  0  0
  7 25  1  0  0  0  0
  8  9  1  0  0  0  0
  8 26  1  0  0  0  0
  8 27  1  0  0  0  0
  9 10  1  0  0  0  0
  9 28  1  0  0  0  0
  9 29  1  0  0  0  0
 10 11  1  0  0  0  0
 10 30  1  0  0  0  0
 10 31  1  0  0  0  0
 12 13  1  0  0  0  0
 13 17  1  0  0  0  0
 13 14  2  0  0  0  0
 14 15  1  0  0  0  0
 15 32  1  0  0  0  0
 15 16  2  0  0  0  0
 16 33  1  0  0  0  0
 16 17  1  0  0  0  0
M  CHG  1  12  -1
M  END
> <s_m_source_file>
AV-unprocessed.smi

> <i_m_source_file_index>
2751

> <i_lp_mmshare_version>
43012

> <i_f3d_flags>
0

> <s_epik_input>
bzFbY0hdW2NIXW5jMVtOSF1DKD1PKVtOSF1bQ0gyXVtDSDJdW0NAQEhdMltDSDJdW0NIMl1bQ0gyXVtDSDJdTzI=

> <s_epik_cmdline>
J2VwaWtfcHl0aG9uJywgJy1waCcsICc3LjAnLCAnLXRuJywgJzgnLCAnLW1hJywgJzIwMCcsICctbWV0YWxfYmluZGluZycsICctaW1hZScsICc8aW5maWxlLm1hZT4nLCAnLW9tYWUnLCAnPG91dGZpbGUubWFlPic=

> <r_lp_tautomer_probability>
0.107061

> <r_epik_Ionization_Penalty>
11.077

> <r_epik_Ionization_Penalty_Charging>
7.79122

> <r_epik_Ionization_Penalty_Neutral>
3.28583

> <r_epik_State_Penalty>
5.8984

> <r_epik_Charging_Adjusted_Penalty>
13.6896

> <i_epik_Tot_Q>
-1

> <i_epik_Tot_abs_Q>
1

> <r_epik_Metal_State_Penalty>
1.82322

> <b_epik_Metal_Only>
1

> <s_lp_Force_Field>
OPLS_2005

> <r_lp_Energy>
3.95886

> <b_lp_Chiralities_Consistent>
1

> <s_lp_Variant>
AV-unprocessed.smi:2751-9

> <Gold.Version>
5.8.1

> <Gold.Id.Protein>
6NUR|6NUR_protein|mol2

> <Gold.PLP.Fitness>
43.9032

> <Gold.PLP.PLP>
-38.8157

> <Gold.PLP.part.hbond>
-1.2621

> <Gold.PLP.part.metal>
0.0000

> <Gold.PLP.part.buried>
-3.4069

> <Gold.PLP.part.nonpolar>
-34.6366

> <Gold.PLP.part.repulsive>
0.3813

> <Gold.PLP.ligand.clash>
0.0000

> <Gold.PLP.ligand.torsion>
1.5343

> <Gold.PLP.Chemscore.Hbond>
1.0000

> <Gold.PLP.Chemscore.CHOScore>
1.7142

> <Gold.PLP.Chemscore.Metal>
0.0000

> <Gold.Chemscore.Hbonds>
donor molecule, donor type, donor heavy atom, donor atom, acceptor molecule, acceptor atom, score
      P1  H  7989  7998       L1    17  1.00
      L1  C    15    32       P1  8028  0.03
      L1  C    16    33       P1  7957  1.00

> <Gold.PLP.Chemscore.Internal.Correction>
0.0136

> <Gold.Rescore>
     Score         DG    S(hbond)    S(metal)    S(lipo)     H(rot)  DE(clash)    DE(int)     intcor
     13.06     -15.28       0.85        0.00      94.54       1.60       0.03       2.19       ----

> <Gold.Chemscore.Fitness>
13.0623

> <Gold.Chemscore.DG>
-15.2825

> <Gold.Chemscore.ZeroCoef>
-5.4800

> <Gold.Chemscore.Hbond>
0.8533

> <Gold.Chemscore.Metal>
0.0000

> <Gold.Chemscore.Lipo>
94.5350

> <Gold.Chemscore.Internal_Hbond>
0.0000

> <Gold.Chemscore.DEClash>
0.0301

> <Gold.Chemscore.DEInternal>
2.1901

> <Gold.Chemscore.Rot>
1.6048

> <Gold.Chemscore.Internal.Correction>
   9.000000E+99

> <Gold.Chemscore.Hbonds>
donor molecule, donor type, donor heavy atom, donor atom, acceptor molecule, acceptor atom, score
      P1  H  7989  7998       L1    17  0.19

> <Gold.Chemscore.Hbond.Weighted>
-2.8501

> <Gold.Chemscore.Metal.Weighted>
-0.0000

> <Gold.Chemscore.Lipo.Weighted>
-11.0606

> <Gold.Chemscore.Internal_Hbond.Weighted>
0.0000

> <Gold.Chemscore.DEClash.Weighted>
0.0301

> <Gold.Chemscore.DEInternal.Weighted>
2.1901

> <Gold.Chemscore.Rot.Weighted>
4.1082

> <Gold.Chemscore.Internal.Correction.Weighted>
   9.000000E+99

> <Gold.Protein.RotatedTorsions>
[ 6907 6896 6895 6894 ] final  -78.52 input  -60.11 | X-H torsion
[ 7974 7965 7964 7962 ] final  165.76 input  175.53 | X-H torsion
[ 8008 7997 7996 7995 ] final -125.87 input   59.86 | X-H torsion
[ 10167 10162 10161 10158 ] final -101.11 input  -65.29 | X-H torsion
[ 10718 10713 10712 10709 ] final   16.88 input   66.30 | X-H torsion
[ 10763 10752 10751 10750 ] final  -83.06 input  -60.55 | X-H torsion
[ 11005 11000 10999 10996 ] final   83.78 input  -57.11 | X-H torsion

> <Gold.Protein.ActiveResidues>
 VAL166  LYS551  ARG553  GLY616  TRP617  ASP618  TYR619  PRO620  LYS621  CYS622 
 ASP623  PHE694  ASN695  SER759  ASP760  ASP761  ALA762  ILE779  LEU786  VAL792 
 PHE793  MET794  SER795  GLU796  ALA797  LYS798  CYS799  TRP800  GLU811  SER814 

> <Gold.Protein.RotatedAtoms>
  150.6971  134.4259  159.5225 H   0  0  0  0  0  0  0  0  0  0  0  0  # atno 6907 bound_to 6896
  152.1994  134.8599  160.0518 H   0  0  0  0  0  0  0  0  0  0  0  0  # atno 6908 bound_to 6896
  151.9524  133.3635  159.4042 H   0  0  0  0  0  0  0  0  0  0  0  0  # atno 6909 bound_to 6896
  144.7489  139.8518  143.6373 H   0  0  0  0  0  0  0  0  0  0  0  0  # atno 7974 bound_to 7965
  155.2204  140.0422  157.2947 H   0  0  0  0  0  0  0  0  0  0  0  0  # atno 8008 bound_to 7997
  154.5953  140.2437  155.7836 H   0  0  0  0  0  0  0  0  0  0  0  0  # atno 8009 bound_to 7997
  156.2286  140.2946  156.0139 H   0  0  0  0  0  0  0  0  0  0  0  0  # atno 8010 bound_to 7997
  140.2448  143.3513  152.0769 H   0  0  0  0  0  0  0  0  0  0  0  0  # atno 10167 bound_to 10162
  157.0741  130.6360  149.5812 H   0  0  0  0  0  0  0  0  0  0  0  0  # atno 10718 bound_to 10713
  154.5832  135.5569  153.7206 H   0  0  0  0  0  0  0  0  0  0  0  0  # atno 10763 bound_to 10752
  153.0089  135.6325  154.1953 H   0  0  0  0  0  0  0  0  0  0  0  0  # atno 10764 bound_to 10752
  154.1893  135.2883  155.3007 H   0  0  0  0  0  0  0  0  0  0  0  0  # atno 10765 bound_to 10752
  139.9020  134.8169  156.2356 H   0  0  0  0  0  0  0  0  0  0  0  0  # atno 11005 bound_to 11000
  146.1411  139.4468  143.0108 LP  0  0  0  0  0  0  0  0  0  0  0  0  # atno 17320 bound_to 7965
  145.7017  141.0134  143.1501 LP  0  0  0  0  0  0  0  0  0  0  0  0  # atno 17321 bound_to 7965
  139.5065  144.6815  151.5996 LP  0  0  0  0  0  0  0  0  0  0  0  0  # atno 17342 bound_to 10162
  140.6086  143.9479  150.6436 LP  0  0  0  0  0  0  0  0  0  0  0  0  # atno 17343 bound_to 10162
  155.9942  130.5005  150.7410 LP  0  0  0  0  0  0  0  0  0  0  0  0  # atno 17370 bound_to 10713
  157.4854  131.0906  151.0489 LP  0  0  0  0  0  0  0  0  0  0  0  0  # atno 17371 bound_to 10713
  141.0318  133.6985  156.1443 LP  0  0  0  0  0  0  0  0  0  0  0  0  # atno 17394 bound_to 11000
  140.7085  134.4487  157.5583 LP  0  0  0  0  0  0  0  0  0  0  0  0  # atno 17395 bound_to 11000

$$$$
