AV-unprocessed.smi:196|AV-procd|sdf|1537|dock4
  -GOLD-   2262019393D 1   1.00000     0.00000
 Structure written by MMmdl.
 47 50  0  0  0  0  0  0  0  0  1 V2000
  147.9879  136.1451  162.6902 C   0  0  0  0  0  0  0  0  0  0  0  0
  146.8398  135.3230  162.0835 C   0  0  1  0  0  0  0  0  0  0  0  0
  145.9506  134.8662  163.1022 O   0  0  0  0  0  0  0  0  0  0  0  0
  144.6208  135.2746  162.8121 C   0  0  0  0  0  0  0  0  0  0  0  0
  144.5969  135.4488  161.2994 C   0  0  0  0  0  0  0  0  0  0  0  0
  145.9753  136.0267  161.0124 C   0  0  1  0  0  0  0  0  0  0  0  0
  145.9287  137.4272  161.2380 O   0  0  0  0  0  0  0  0  0  0  0  0
  146.4786  135.7776  159.5709 C   0  0  0  0  0  0  0  0  0  0  0  0
  147.6994  136.5002  159.2507 N   0  0  0  0  0  0  0  0  0  0  0  0
  148.9395  136.3131  159.8192 C   0  0  0  0  0  0  0  0  0  0  0  0
  149.8846  137.0893  159.3630 N   0  0  0  0  0  0  0  0  0  0  0  0
  149.2487  137.8624  158.4000 C   0  0  0  0  0  0  0  0  0  0  0  0
  149.6802  138.8907  157.5207 C   0  0  0  0  0  0  0  0  0  0  0  0
  150.9693  139.3229  157.5247 N   0  0  0  0  0  0  0  0  0  0  0  0
  151.2101  140.2692  158.6089 C   0  0  0  0  0  0  0  0  0  0  0  0
  151.1893  141.6708  157.9768 C   0  0  2  0  0  0  0  0  0  0  0  0
  150.0832  142.3348  158.3142 F   0  0  0  0  0  0  0  0  0  0  0  0
  151.2279  141.4318  156.4620 C   0  0  0  0  0  0  0  0  0  0  0  0
  151.5811  139.9403  156.3390 C   0  0  2  0  0  0  0  0  0  0  0  0
  151.2887  139.2924  154.9686 C   0  0  0  0  0  0  0  0  0  0  0  0
  151.7555  138.0571  154.7683 N   0  0  0  0  0  0  0  0  0  0  0  0
  150.6152  139.8714  154.1176 O   0  0  0  0  0  0  0  0  0  0  0  0
  148.7486  139.4515  156.7037 N   0  0  0  0  0  0  0  0  0  0  0  0
  147.4858  139.0155  156.7253 C   0  0  0  0  0  0  0  0  0  0  0  0
  146.9475  138.0555  157.4801 N   0  0  0  0  0  0  0  0  0  0  0  0
  147.8745  137.5046  158.3150 C   0  0  0  0  0  0  0  0  0  0  0  0
  152.0378  142.2648  158.3174 H   0  0  0  0  0  0  0  0  0  0  0  0
  152.6591  139.8378  156.4775 H   0  0  0  0  0  0  0  0  0  0  0  0
  148.6618  136.5093  161.9146 H   0  0  0  0  0  0  0  0  0  0  0  0
  148.5734  135.5380  163.3805 H   0  0  0  0  0  0  0  0  0  0  0  0
  147.6158  137.0053  163.2472 H   0  0  0  0  0  0  0  0  0  0  0  0
  147.2661  134.4181  161.6479 H   0  0  0  0  0  0  0  0  0  0  0  0
  143.8922  134.5444  163.1640 H   0  0  0  0  0  0  0  0  0  0  0  0
  144.4219  136.2237  163.3116 H   0  0  0  0  0  0  0  0  0  0  0  0
  144.4949  134.4687  160.8319 H   0  0  0  0  0  0  0  0  0  0  0  0
  143.7738  136.0740  160.9504 H   0  0  0  0  0  0  0  0  0  0  0  0
  145.1688  137.6195  161.7655 H   0  0  0  0  0  0  0  0  0  0  0  0
  146.6584  134.7132  159.4139 H   0  0  0  0  0  0  0  0  0  0  0  0
  145.7149  136.0663  158.8476 H   0  0  0  0  0  0  0  0  0  0  0  0
  149.1206  135.5802  160.5919 H   0  0  0  0  0  0  0  0  0  0  0  0
  150.4960  140.1843  159.4313 H   0  0  0  0  0  0  0  0  0  0  0  0
  152.1956  140.0584  159.0260 H   0  0  0  0  0  0  0  0  0  0  0  0
  150.2549  141.6429  156.0160 H   0  0  0  0  0  0  0  0  0  0  0  0
  151.9606  142.0711  155.9686 H   0  0  0  0  0  0  0  0  0  0  0  0
  151.5858  137.5892  153.8901 H   0  0  0  0  0  0  0  0  0  0  0  0
  152.2735  137.5938  155.5008 H   0  0  0  0  0  0  0  0  0  0  0  0
  146.8101  139.5067  156.0409 H   0  0  0  0  0  0  0  0  0  0  0  0
  1  2  1  0  0  0  0
  1 29  1  0  0  0  0
  1 30  1  0  0  0  0
  1 31  1  0  0  0  0
  2  6  1  0  0  0  0
  2  3  1  0  0  0  0
  2 32  1  0  0  0  0
  3  4  1  0  0  0  0
  4  5  1  0  0  0  0
  4 33  1  0  0  0  0
  4 34  1  0  0  0  0
  5  6  1  0  0  0  0
  5 35  1  0  0  0  0
  5 36  1  0  0  0  0
  6  7  1  0  0  0  0
  6  8  1  0  0  0  0
  7 37  1  0  0  0  0
  8  9  1  0  0  0  0
  8 38  1  0  0  0  0
  8 39  1  0  0  0  0
  9 26  1  0  0  0  0
  9 10  1  0  0  0  0
 10 11  2  0  0  0  0
 10 40  1  0  0  0  0
 11 12  1  0  0  0  0
 12 26  2  0  0  0  0
 12 13  1  0  0  0  0
 13 14  1  0  0  0  0
 13 23  2  0  0  0  0
 14 19  1  0  0  0  0
 14 15  1  0  0  0  0
 15 16  1  0  0  0  0
 15 41  1  0  0  0  0
 15 42  1  0  0  0  0
 16 27  1  0  0  0  0
 16 17  1  0  0  0  0
 16 18  1  0  0  0  0
 18 19  1  0  0  0  0
 18 43  1  0  0  0  0
 18 44  1  0  0  0  0
 19 28  1  0  0  0  0
 19 20  1  0  0  0  0
 20 21  1  0  0  0  0
 20 22  2  0  0  0  0
 21 45  1  0  0  0  0
 21 46  1  0  0  0  0
 23 24  1  0  0  0  0
 24 25  2  0  0  0  0
 24 47  1  0  0  0  0
 25 26  1  0  0  0  0
M  END
> <s_m_source_file>
AV-unprocessed.smi

> <i_m_source_file_index>
196

> <i_lp_mmshare_version>
43012

> <i_f3d_flags>
0

> <s_epik_input>
W0NIMl0xW0NIMl1PW0NAQEhdKFtDSDNdKVtDQEBdMShbT0hdKVtDSDJdbihbY0hdbjIpYyhjMjMpbltjSF1uYzNONFtDSDJdW0NASF0oRilbQ0gyXVtDQEhdNEMoPU8pW05IMl0=

> <s_epik_cmdline>
J2VwaWtfcHl0aG9uJywgJy1waCcsICc3LjAnLCAnLXRuJywgJzgnLCAnLW1hJywgJzIwMCcsICctbWV0YWxfYmluZGluZycsICctaW1hZScsICc8aW5maWxlLm1hZT4nLCAnLW9tYWUnLCAnPG91dGZpbGUubWFlPic=

> <r_lp_tautomer_probability>
1

> <r_epik_Ionization_Penalty>
0.000857933

> <r_epik_Ionization_Penalty_Charging>
0

> <r_epik_Ionization_Penalty_Neutral>
0.000857933

> <r_epik_State_Penalty>
0.000462053

> <r_epik_Charging_Adjusted_Penalty>
0.000462053

> <i_epik_Tot_Q>
0

> <i_epik_Tot_abs_Q>
0

> <r_epik_Metal_State_Penalty>
-0

> <b_epik_Metal_Only>
0

> <s_lp_Force_Field>
OPLS_2005

> <r_lp_Energy>
51.2848

> <b_lp_Chiralities_Consistent>
1

> <s_lp_Variant>
AV-unprocessed.smi:196-10

> <Gold.Version>
5.8.1

> <Gold.Id.Protein>
6NUR|6NUR_protein|mol2

> <Gold.PLP.Fitness>
37.8524

> <Gold.PLP.PLP>
-33.6271

> <Gold.PLP.part.hbond>
-2.5133

> <Gold.PLP.part.metal>
0.0000

> <Gold.PLP.part.buried>
-5.5810

> <Gold.PLP.part.nonpolar>
-24.4460

> <Gold.PLP.part.repulsive>
0.3503

> <Gold.PLP.ligand.clash>
0.0000

> <Gold.PLP.ligand.torsion>
0.9206

> <Gold.PLP.Chemscore.Hbond>
2.0000

> <Gold.PLP.Chemscore.CHOScore>
0.0000

> <Gold.PLP.Chemscore.Metal>
0.0000

> <Gold.Chemscore.Hbonds>
donor molecule, donor type, donor heavy atom, donor atom, acceptor molecule, acceptor atom, score
      P1  H  6934  6947       L1     7  0.99
      P1  H  7989  7998       L1    22  1.00

> <Gold.PLP.Chemscore.Internal.Correction>
0.0666

> <Gold.Rescore>
     Score         DG    S(hbond)    S(metal)    S(lipo)     H(rot)  DE(clash)    DE(int)     intcor
      8.75     -10.65       1.78        0.00      59.97       3.04       0.11       1.79       ----

> <Gold.Chemscore.Fitness>
8.7483

> <Gold.Chemscore.DG>
-10.6494

> <Gold.Chemscore.ZeroCoef>
-5.4800

> <Gold.Chemscore.Hbond>
1.7782

> <Gold.Chemscore.Metal>
0.0000

> <Gold.Chemscore.Lipo>
59.9652

> <Gold.Chemscore.Internal_Hbond>
0.0000

> <Gold.Chemscore.DEClash>
0.1113

> <Gold.Chemscore.DEInternal>
1.7897

> <Gold.Chemscore.Rot>
3.0413

> <Gold.Chemscore.Internal.Correction>
   9.000000E+99

> <Gold.Chemscore.Hbonds>
donor molecule, donor type, donor heavy atom, donor atom, acceptor molecule, acceptor atom, score
      P1  H  6934  6947       L1     7  0.78
      P1  H  7989  7998       L1    22  0.38

> <Gold.Chemscore.Hbond.Weighted>
-5.9391

> <Gold.Chemscore.Metal.Weighted>
-0.0000

> <Gold.Chemscore.Lipo.Weighted>
-7.0159

> <Gold.Chemscore.Internal_Hbond.Weighted>
0.0000

> <Gold.Chemscore.DEClash.Weighted>
0.1113

> <Gold.Chemscore.DEInternal.Weighted>
1.7897

> <Gold.Chemscore.Rot.Weighted>
7.7856

> <Gold.Chemscore.Internal.Correction.Weighted>
   9.000000E+99

> <Gold.Protein.RotatedTorsions>
[ 6907 6896 6895 6894 ] final -139.91 input  -60.11 | X-H torsion
[ 7974 7965 7964 7962 ] final -138.11 input  175.53 | X-H torsion
[ 8008 7997 7996 7995 ] final  -56.79 input   59.86 | X-H torsion
[ 10167 10162 10161 10158 ] final   53.79 input  -65.29 | X-H torsion
[ 10718 10713 10712 10709 ] final  -47.15 input   66.30 | X-H torsion
[ 10763 10752 10751 10750 ] final  164.33 input  -60.55 | X-H torsion
[ 11005 11000 10999 10996 ] final -114.34 input  -57.11 | X-H torsion

> <Gold.Protein.ActiveResidues>
 VAL166  LYS551  ARG553  GLY616  TRP617  ASP618  TYR619  PRO620  LYS621  CYS622 
 ASP623  PHE694  ASN695  SER759  ASP760  ASP761  ALA762  ILE779  LEU786  VAL792 
 PHE793  MET794  SER795  GLU796  ALA797  LYS798  CYS799  TRP800  GLU811  SER814 

> <Gold.Protein.RotatedAtoms>
  151.0539  133.5601  159.2639 H   0  0  0  0  0  0  0  0  0  0  0  0  # atno 6907 bound_to 6896
  151.2601  135.0650  159.9105 H   0  0  0  0  0  0  0  0  0  0  0  0  # atno 6908 bound_to 6896
  152.5386  134.0286  159.8068 H   0  0  0  0  0  0  0  0  0  0  0  0  # atno 6909 bound_to 6896
  144.8785  140.6473  143.5221 H   0  0  0  0  0  0  0  0  0  0  0  0  # atno 7974 bound_to 7965
  154.4243  140.1121  156.5693 H   0  0  0  0  0  0  0  0  0  0  0  0  # atno 8008 bound_to 7997
  155.6228  140.3495  155.4638 H   0  0  0  0  0  0  0  0  0  0  0  0  # atno 8009 bound_to 7997
  156.0010  140.1199  157.0537 H   0  0  0  0  0  0  0  0  0  0  0  0  # atno 8010 bound_to 7997
  140.2370  144.3625  150.6393 H   0  0  0  0  0  0  0  0  0  0  0  0  # atno 10167 bound_to 10162
  156.2112  130.4161  149.9112 H   0  0  0  0  0  0  0  0  0  0  0  0  # atno 10718 bound_to 10713
  154.3073  135.2758  155.2583 H   0  0  0  0  0  0  0  0  0  0  0  0  # atno 10763 bound_to 10752
  154.4993  135.5812  153.6522 H   0  0  0  0  0  0  0  0  0  0  0  0  # atno 10764 bound_to 10752
  152.9892  135.6154  154.3248 H   0  0  0  0  0  0  0  0  0  0  0  0  # atno 10765 bound_to 10752
  141.0558  133.9615  157.2757 H   0  0  0  0  0  0  0  0  0  0  0  0  # atno 11005 bound_to 11000
  145.3997  139.1600  143.4184 LP  0  0  0  0  0  0  0  0  0  0  0  0  # atno 17320 bound_to 7965
  146.2979  140.4093  142.8715 LP  0  0  0  0  0  0  0  0  0  0  0  0  # atno 17321 bound_to 7965
  140.6142  143.2171  151.6825 LP  0  0  0  0  0  0  0  0  0  0  0  0  # atno 17342 bound_to 10162
  139.5090  144.3591  152.0579 LP  0  0  0  0  0  0  0  0  0  0  0  0  # atno 17343 bound_to 10162
  156.6789  130.8850  151.3573 LP  0  0  0  0  0  0  0  0  0  0  0  0  # atno 17370 bound_to 10713
  157.7039  130.9364  150.0871 LP  0  0  0  0  0  0  0  0  0  0  0  0  # atno 17371 bound_to 10713
  139.9389  135.0193  156.8644 LP  0  0  0  0  0  0  0  0  0  0  0  0  # atno 17394 bound_to 11000
  140.5967  134.0210  155.7521 LP  0  0  0  0  0  0  0  0  0  0  0  0  # atno 17395 bound_to 11000

$$$$
