AV-unprocessed.smi:1934|AV-procd|sdf|7826|dock7
  -GOLD-   22720 9573D 1   1.00000     0.00000
 Structure written by MMmdl.
 46 47  0  0  0  0  0  0  0  0  2 V2000
  146.3830  129.4646  152.3554 C   0  0  0  0  0  0  0  0  0  0  0  0
  146.1896  130.9202  152.0480 C   0  0  0  0  0  0  0  0  0  0  0  0
  146.9547  132.0249  152.5224 C   0  0  0  0  0  0  0  0  0  0  0  0
  146.3376  133.0941  151.9326 C   0  0  0  0  0  0  0  0  0  0  0  0
  146.6416  134.4158  152.0291 N   0  0  0  0  0  0  0  0  0  0  0  0
  145.8058  135.4607  152.1605 C   0  0  0  0  0  0  0  0  0  0  0  0
  144.5784  135.3918  152.2283 O   0  0  0  0  0  0  0  0  0  0  0  0
  146.4789  136.6196  152.2004 N   0  0  0  0  0  0  0  0  0  0  0  0
  145.8637  137.9363  152.3232 C   0  0  0  0  0  0  0  0  0  0  0  0
  146.9227  139.0375  152.5281 C   0  0  0  0  0  0  0  0  0  0  0  0
  146.4298  140.1536  153.3743 N   0  3  2  0  0  0  0  0  0  0  0  0
  147.3796  141.2964  153.3965 C   0  0  0  0  0  0  0  0  0  0  0  0
  146.7941  142.4913  154.1650 C   0  0  0  0  0  0  0  0  0  0  0  0
  146.3981  142.0860  155.5900 C   0  0  0  0  0  0  0  0  0  0  0  0
  145.4350  140.8878  155.5540 C   0  0  2  0  0  0  0  0  0  0  0  0
  145.0416  140.4431  156.9697 C   0  0  0  0  0  0  0  0  0  0  0  0
  146.0560  139.7273  154.7503 C   0  0  0  0  0  0  0  0  0  0  0  0
  145.2914  132.6351  151.1629 N   0  0  0  0  0  0  0  0  0  0  0  0
  144.3458  133.3785  150.3528 C   0  0  0  0  0  0  0  0  0  0  0  0
  145.2014  131.2897  151.2408 N   0  0  0  0  0  0  0  0  0  0  0  0
  147.2447  129.3108  153.0055 H   0  0  0  0  0  0  0  0  0  0  0  0
  146.5488  128.8889  151.4444 H   0  0  0  0  0  0  0  0  0  0  0  0
  145.5097  129.0502  152.8596 H   0  0  0  0  0  0  0  0  0  0  0  0
  147.8082  132.0111  153.1833 H   0  0  0  0  0  0  0  0  0  0  0  0
  147.6253  134.6350  151.9738 H   0  0  0  0  0  0  0  0  0  0  0  0
  147.4866  136.5887  152.1418 H   0  0  0  0  0  0  0  0  0  0  0  0
  145.2569  138.1471  151.4410 H   0  0  0  0  0  0  0  0  0  0  0  0
  145.1780  137.8918  153.1684 H   0  0  0  0  0  0  0  0  0  0  0  0
  147.8364  138.6225  152.9570 H   0  0  0  0  0  0  0  0  0  0  0  0
  147.1974  139.4347  151.5497 H   0  0  0  0  0  0  0  0  0  0  0  0
  148.3206  140.9805  153.8499 H   0  0  0  0  0  0  0  0  0  0  0  0
  147.6078  141.6083  152.3766 H   0  0  0  0  0  0  0  0  0  0  0  0
  147.5198  143.3046  154.1975 H   0  0  0  0  0  0  0  0  0  0  0  0
  145.9213  142.8766  153.6359 H   0  0  0  0  0  0  0  0  0  0  0  0
  147.2923  141.8289  156.1599 H   0  0  0  0  0  0  0  0  0  0  0  0
  145.9344  142.9309  156.1006 H   0  0  0  0  0  0  0  0  0  0  0  0
  144.5231  141.2023  155.0434 H   0  0  0  0  0  0  0  0  0  0  0  0
  145.9099  140.1021  157.5348 H   0  0  0  0  0  0  0  0  0  0  0  0
  144.3223  139.6242  156.9387 H   0  0  0  0  0  0  0  0  0  0  0  0
  144.5838  141.2619  157.5258 H   0  0  0  0  0  0  0  0  0  0  0  0
  145.3390  138.9084  154.7064 H   0  0  0  0  0  0  0  0  0  0  0  0
  146.9397  139.3436  155.2634 H   0  0  0  0  0  0  0  0  0  0  0  0
  144.8761  134.1108  149.7436 H   0  0  0  0  0  0  0  0  0  0  0  0
  143.6394  133.8974  151.0011 H   0  0  0  0  0  0  0  0  0  0  0  0
  143.7950  132.7065  149.6931 H   0  0  0  0  0  0  0  0  0  0  0  0
  145.5890  140.4976  152.9327 H   0  0  0  0  0  0  0  0  0  0  0  0
  1  2  1  0  0  0  0
  1 21  1  0  0  0  0
  1 22  1  0  0  0  0
  1 23  1  0  0  0  0
  2 20  2  0  0  0  0
  2  3  1  0  0  0  0
  3  4  2  0  0  0  0
  3 24  1  0  0  0  0
  4  5  1  0  0  0  0
  4 18  1  0  0  0  0
  5  6  1  0  0  0  0
  5 25  1  0  0  0  0
  6  7  2  0  0  0  0
  6  8  1  0  0  0  0
  8  9  1  0  0  0  0
  8 26  1  0  0  0  0
  9 10  1  0  0  0  0
  9 27  1  0  0  0  0
  9 28  1  0  0  0  0
 10 11  1  0  0  0  0
 10 29  1  0  0  0  0
 10 30  1  0  0  0  0
 11 17  1  0  0  0  0
 11 12  1  0  0  0  0
 11 46  1  0  0  0  0
 12 13  1  0  0  0  0
 12 31  1  0  0  0  0
 12 32  1  0  0  0  0
 13 14  1  0  0  0  0
 13 33  1  0  0  0  0
 13 34  1  0  0  0  0
 14 15  1  0  0  0  0
 14 35  1  0  0  0  0
 14 36  1  0  0  0  0
 15 16  1  0  0  0  0
 15 17  1  0  0  0  0
 15 37  1  0  0  0  0
 16 38  1  0  0  0  0
 16 39  1  0  0  0  0
 16 40  1  0  0  0  0
 17 41  1  0  0  0  0
 17 42  1  0  0  0  0
 18 19  1  0  0  0  0
 18 20  1  0  0  0  0
 19 43  1  0  0  0  0
 19 44  1  0  0  0  0
 19 45  1  0  0  0  0
M  CHG  1  11   1
M  END
> <s_m_source_file>
AV-unprocessed.smi

> <i_m_source_file_index>
1934

> <i_lp_mmshare_version>
43012

> <i_f3d_flags>
0

> <s_epik_input>
W0NIM11jMVtjSF1jKG4objEpW0NIM10pW05IXUMoPU8pW05IXVtDSDJdW0NIMl1OMltDSDJdW0NIMl1bQ0gyXVtDQEBIXShbQ0gzXSlbQ0gyXTI=

> <s_epik_cmdline>
J2VwaWtfcHl0aG9uJywgJy1waCcsICc3LjAnLCAnLXRuJywgJzgnLCAnLW1hJywgJzIwMCcsICctbWV0YWxfYmluZGluZycsICctaW1hZScsICc8aW5maWxlLm1hZT4nLCAnLW9tYWUnLCAnPG91dGZpbGUubWFlPic=

> <r_lp_tautomer_probability>
1

> <r_epik_Ionization_Penalty>
0.00202955

> <r_epik_Ionization_Penalty_Charging>
0.00195276

> <r_epik_Ionization_Penalty_Neutral>
7.67968e-05

> <r_epik_State_Penalty>
0.00133177

> <r_epik_Charging_Adjusted_Penalty>
0.00328452

> <i_epik_Tot_Q>
1

> <i_epik_Tot_abs_Q>
1

> <r_epik_Metal_State_Penalty>
-0

> <b_epik_Metal_Only>
0

> <s_lp_Force_Field>
OPLS_2005

> <r_lp_Energy>
17.6546

> <b_lp_Chiralities_Consistent>
1

> <s_lp_Variant>
AV-unprocessed.smi:1934-4

> <Gold.Version>
5.8.1

> <Gold.Id.Protein>
6NUR|6NUR_protein|mol2

> <Gold.PLP.Fitness>
43.5371

> <Gold.PLP.PLP>
-33.1304

> <Gold.PLP.part.hbond>
-2.9309

> <Gold.PLP.part.metal>
0.0000

> <Gold.PLP.part.buried>
-4.5817

> <Gold.PLP.part.nonpolar>
-26.2199

> <Gold.PLP.part.repulsive>
0.3098

> <Gold.PLP.ligand.clash>
0.0000

> <Gold.PLP.ligand.torsion>
0.5915

> <Gold.PLP.Chemscore.Hbond>
3.8553

> <Gold.PLP.Chemscore.CHOScore>
0.0000

> <Gold.PLP.Chemscore.Metal>
0.0000

> <Gold.Chemscore.Hbonds>
donor molecule, donor type, donor heavy atom, donor atom, acceptor molecule, acceptor atom, score
      L1  H     5    25       P1  7948  0.86
      L1  H     8    26       P1  7948  0.98
      L1  H    11    46       P1 10175  2.00

> <Gold.PLP.Chemscore.Internal.Correction>
0.0240

> <Gold.Rescore>
     Score         DG    S(hbond)    S(metal)    S(lipo)     H(rot)  DE(clash)    DE(int)     intcor
     16.86     -17.73       2.59        0.00      63.16       1.48       0.04       0.84       ----

> <Gold.Chemscore.Fitness>
16.8552

> <Gold.Chemscore.DG>
-17.7298

> <Gold.Chemscore.ZeroCoef>
-5.4800

> <Gold.Chemscore.Hbond>
2.5924

> <Gold.Chemscore.Metal>
0.0000

> <Gold.Chemscore.Lipo>
63.1591

> <Gold.Chemscore.Internal_Hbond>
0.0000

> <Gold.Chemscore.DEClash>
0.0375

> <Gold.Chemscore.DEInternal>
0.8371

> <Gold.Chemscore.Rot>
1.4838

> <Gold.Chemscore.Internal.Correction>
   9.000000E+99

> <Gold.Chemscore.Hbonds>
donor molecule, donor type, donor heavy atom, donor atom, acceptor molecule, acceptor atom, score
      L1  H     5    25       P1  7948  0.45
      L1  H     8    26       P1  7948  0.91
      L1  H    11    46       P1 10175  0.80

> <Gold.Chemscore.Hbond.Weighted>
-8.6587

> <Gold.Chemscore.Metal.Weighted>
-0.0000

> <Gold.Chemscore.Lipo.Weighted>
-7.3896

> <Gold.Chemscore.Internal_Hbond.Weighted>
0.0000

> <Gold.Chemscore.DEClash.Weighted>
0.0375

> <Gold.Chemscore.DEInternal.Weighted>
0.8371

> <Gold.Chemscore.Rot.Weighted>
3.7985

> <Gold.Chemscore.Internal.Correction.Weighted>
   9.000000E+99

> <Gold.Protein.RotatedTorsions>
[ 6907 6896 6895 6894 ] final  150.30 input  -60.11 | X-H torsion
[ 7974 7965 7964 7962 ] final -112.70 input  175.53 | X-H torsion
[ 8008 7997 7996 7995 ] final   83.58 input   59.86 | X-H torsion
[ 10167 10162 10161 10158 ] final -160.74 input  -65.29 | X-H torsion
[ 10718 10713 10712 10709 ] final   11.75 input   66.30 | X-H torsion
[ 10763 10752 10751 10750 ] final -115.80 input  -60.55 | X-H torsion
[ 11005 11000 10999 10996 ] final -109.60 input  -57.11 | X-H torsion

> <Gold.Protein.ActiveResidues>
 VAL166  LYS551  ARG553  GLY616  TRP617  ASP618  TYR619  PRO620  LYS621  CYS622 
 ASP623  PHE694  ASN695  SER759  ASP760  ASP761  ALA762  ILE779  LEU786  VAL792 
 PHE793  MET794  SER795  GLU796  ALA797  LYS798  CYS799  TRP800  GLU811  SER814 

> <Gold.Protein.RotatedAtoms>
  152.1163  133.4328  159.4654 H   0  0  0  0  0  0  0  0  0  0  0  0  # atno 6907 bound_to 6896
  150.6869  134.2588  159.4550 H   0  0  0  0  0  0  0  0  0  0  0  0  # atno 6908 bound_to 6896
  152.0461  134.9681  160.0625 H   0  0  0  0  0  0  0  0  0  0  0  0  # atno 6909 bound_to 6896
  145.1409  140.8777  143.3703 H   0  0  0  0  0  0  0  0  0  0  0  0  # atno 7974 bound_to 7965
  155.9258  140.3418  155.6209 H   0  0  0  0  0  0  0  0  0  0  0  0  # atno 8008 bound_to 7997
  155.7218  140.0784  157.2346 H   0  0  0  0  0  0  0  0  0  0  0  0  # atno 8009 bound_to 7997
  154.4077  140.1604  156.2398 H   0  0  0  0  0  0  0  0  0  0  0  0  # atno 8010 bound_to 7997
  139.6517  144.0072  152.2166 H   0  0  0  0  0  0  0  0  0  0  0  0  # atno 10167 bound_to 10162
  157.0001  130.6076  149.5695 H   0  0  0  0  0  0  0  0  0  0  0  0  # atno 10718 bound_to 10713
  154.8495  135.4368  154.1721 H   0  0  0  0  0  0  0  0  0  0  0  0  # atno 10763 bound_to 10752
  153.2832  135.6955  153.7371 H   0  0  0  0  0  0  0  0  0  0  0  0  # atno 10764 bound_to 10752
  153.6567  135.3442  155.3090 H   0  0  0  0  0  0  0  0  0  0  0  0  # atno 10765 bound_to 10752
  141.0838  133.9173  157.2229 H   0  0  0  0  0  0  0  0  0  0  0  0  # atno 11005 bound_to 11000
  145.0533  139.3163  143.5917 LP  0  0  0  0  0  0  0  0  0  0  0  0  # atno 17320 bound_to 7965
  146.3505  139.9949  142.8682 LP  0  0  0  0  0  0  0  0  0  0  0  0  # atno 17321 bound_to 7965
  139.9788  144.6443  150.7920 LP  0  0  0  0  0  0  0  0  0  0  0  0  # atno 17342 bound_to 10162
  140.7540  143.3020  151.3057 LP  0  0  0  0  0  0  0  0  0  0  0  0  # atno 17343 bound_to 10162
  156.0174  130.5268  150.8175 LP  0  0  0  0  0  0  0  0  0  0  0  0  # atno 17370 bound_to 10713
  157.5396  131.0940  150.9845 LP  0  0  0  0  0  0  0  0  0  0  0  0  # atno 17371 bound_to 10713
  139.9655  135.0143  156.9374 LP  0  0  0  0  0  0  0  0  0  0  0  0  # atno 17394 bound_to 11000
  140.5408  134.0722  155.7341 LP  0  0  0  0  0  0  0  0  0  0  0  0  # atno 17395 bound_to 11000

$$$$
