AV-unprocessed.smi:2539|AV-procd|sdf|9986|dock4
  -GOLD-   2272014 33D 1   1.00000     0.00000
 Structure written by MMmdl.
 41 42  0  0  0  0  0  0  0  0  2 V2000
  152.5076  138.4571  157.3134 O   0  0  0  0  0  0  0  0  0  0  0  0
  152.0607  139.5969  157.1750 C   0  0  0  0  0  0  0  0  0  0  0  0
  151.9080  140.4372  158.2139 N   0  0  0  0  0  0  0  0  0  0  0  0
  152.3074  140.1728  159.5940 C   0  0  0  0  0  0  0  0  0  0  0  0
  153.2806  141.2399  160.1333 C   0  0  0  0  0  0  0  0  0  0  0  0
  152.6751  142.6308  160.2163 C   0  0  0  0  0  0  0  0  0  0  0  0
  152.5794  143.4469  159.0669 C   0  0  0  0  0  0  0  0  0  0  0  0
  152.0453  144.7467  159.1843 C   0  0  0  0  0  0  0  0  0  0  0  0
  151.6176  145.2017  160.4480 C   0  0  0  0  0  0  0  0  0  0  0  0
  151.7202  144.3914  161.5242 N   0  3  0  0  0  0  0  0  0  0  0  0
  152.2243  143.1402  161.4534 C   0  0  0  0  0  0  0  0  0  0  0  0
  151.6957  140.1097  155.9731 N   0  0  0  0  0  0  0  0  0  0  0  0
  151.4715  139.3463  154.7358 C   0  0  0  0  0  0  0  0  0  0  0  0
  149.9537  139.1664  154.5402 C   0  0  0  0  0  0  0  0  0  0  0  0
  149.1964  140.5208  154.5302 C   0  0  0  0  0  0  0  0  0  0  0  0
  149.5252  141.1862  153.3235 O   0  0  0  0  0  0  0  0  0  0  0  0
  147.6628  140.3152  154.5349 C   0  0  0  0  0  0  0  0  0  0  0  0
  147.0433  141.4950  154.4817 F   0  0  0  0  0  0  0  0  0  0  0  0
  147.2790  139.5967  153.4791 F   0  0  0  0  0  0  0  0  0  0  0  0
  147.2765  139.6940  155.6501 F   0  0  0  0  0  0  0  0  0  0  0  0
  149.6553  141.4262  155.7039 C   0  0  0  0  0  0  0  0  0  0  0  0
  151.1900  141.4796  155.8380 C   0  0  0  0  0  0  0  0  0  0  0  0
  151.5177  141.3487  158.0230 H   0  0  0  0  0  0  0  0  0  0  0  0
  151.4078  140.1565  160.2096 H   0  0  0  0  0  0  0  0  0  0  0  0
  152.7505  139.1794  159.6819 H   0  0  0  0  0  0  0  0  0  0  0  0
  153.6343  140.9447  161.1222 H   0  0  0  0  0  0  0  0  0  0  0  0
  154.1654  141.2822  159.4973 H   0  0  0  0  0  0  0  0  0  0  0  0
  152.9213  143.0879  158.1072 H   0  0  0  0  0  0  0  0  0  0  0  0
  151.9677  145.3870  158.3179 H   0  0  0  0  0  0  0  0  0  0  0  0
  151.1999  146.1814  160.6293 H   0  0  0  0  0  0  0  0  0  0  0  0
  152.2652  142.5940  162.3845 H   0  0  0  0  0  0  0  0  0  0  0  0
  151.8971  139.8928  153.8930 H   0  0  0  0  0  0  0  0  0  0  0  0
  151.9668  138.3754  154.7209 H   0  0  0  0  0  0  0  0  0  0  0  0
  149.7616  138.6152  153.6193 H   0  0  0  0  0  0  0  0  0  0  0  0
  149.5732  138.5425  155.3496 H   0  0  0  0  0  0  0  0  0  0  0  0
  149.6729  140.5368  152.6528 H   0  0  0  0  0  0  0  0  0  0  0  0
  149.2589  142.4352  155.5832 H   0  0  0  0  0  0  0  0  0  0  0  0
  149.2395  141.0488  156.6389 H   0  0  0  0  0  0  0  0  0  0  0  0
  151.4711  142.1157  156.6783 H   0  0  0  0  0  0  0  0  0  0  0  0
  151.6322  141.9483  154.9578 H   0  0  0  0  0  0  0  0  0  0  0  0
  151.4070  144.7407  162.4303 H   0  0  0  0  0  0  0  0  0  0  0  0
  1  2  2  0  0  0  0
  2  3  1  0  0  0  0
  2 12  1  0  0  0  0
  3  4  1  0  0  0  0
  3 23  1  0  0  0  0
  4  5  1  0  0  0  0
  4 24  1  0  0  0  0
  4 25  1  0  0  0  0
  5  6  1  0  0  0  0
  5 26  1  0  0  0  0
  5 27  1  0  0  0  0
  6 11  1  0  0  0  0
  6  7  2  0  0  0  0
  7  8  1  0  0  0  0
  7 28  1  0  0  0  0
  8  9  2  0  0  0  0
  8 29  1  0  0  0  0
  9 10  1  0  0  0  0
  9 30  1  0  0  0  0
 10 11  2  0  0  0  0
 10 41  1  0  0  0  0
 11 31  1  0  0  0  0
 12 22  1  0  0  0  0
 12 13  1  0  0  0  0
 13 14  1  0  0  0  0
 13 32  1  0  0  0  0
 13 33  1  0  0  0  0
 14 15  1  0  0  0  0
 14 34  1  0  0  0  0
 14 35  1  0  0  0  0
 15 16  1  0  0  0  0
 15 17  1  0  0  0  0
 15 21  1  0  0  0  0
 16 36  1  0  0  0  0
 17 18  1  0  0  0  0
 17 19  1  0  0  0  0
 17 20  1  0  0  0  0
 21 22  1  0  0  0  0
 21 37  1  0  0  0  0
 21 38  1  0  0  0  0
 22 39  1  0  0  0  0
 22 40  1  0  0  0  0
M  CHG  1  10   1
M  END
> <s_m_source_file>
AV-unprocessed.smi

> <i_m_source_file_index>
2539

> <i_lp_mmshare_version>
43012

> <i_f3d_flags>
0

> <s_epik_input>
RkMoRikoRilDMShbT0hdKVtDSDJdW0NIMl1OKFtDSDJdW0NIMl0xKUMoPU8pW05IXVtDSDJdW0NIMl1jMltjSF1bY0hdW2NIXW5bY0hdMg==

> <s_epik_cmdline>
J2VwaWtfcHl0aG9uJywgJy1waCcsICc3LjAnLCAnLXRuJywgJzgnLCAnLW1hJywgJzIwMCcsICctbWV0YWxfYmluZGluZycsICctaW1hZScsICc8aW5maWxlLm1hZT4nLCAnLW9tYWUnLCAnPG91dGZpbGUubWFlPic=

> <r_epik_Ionization_Penalty>
2.21039

> <r_epik_Ionization_Penalty_Charging>
2.21033

> <r_epik_Ionization_Penalty_Neutral>
5.75735e-05

> <r_epik_State_Penalty>
2.3545

> <r_epik_Charging_Adjusted_Penalty>
4.56483

> <i_epik_Tot_Q>
1

> <i_epik_Tot_abs_Q>
1

> <r_epik_Metal_State_Penalty>
2.36861

> <b_epik_Metal_Only>
0

> <s_lp_Force_Field>
OPLS_2005

> <r_lp_Energy>
41.3462

> <b_lp_Chiralities_Consistent>
1

> <s_lp_Variant>
AV-unprocessed.smi:2539-2

> <Gold.Version>
5.8.1

> <Gold.Id.Protein>
6NUR|6NUR_protein|mol2

> <Gold.PLP.Fitness>
54.9390

> <Gold.PLP.PLP>
-51.9510

> <Gold.PLP.part.hbond>
-3.1195

> <Gold.PLP.part.metal>
0.0000

> <Gold.PLP.part.buried>
-4.7843

> <Gold.PLP.part.nonpolar>
-44.0973

> <Gold.PLP.part.repulsive>
0.1574

> <Gold.PLP.ligand.clash>
2.0869

> <Gold.PLP.ligand.torsion>
0.3415

> <Gold.PLP.Chemscore.Hbond>
1.8892

> <Gold.PLP.Chemscore.CHOScore>
0.0000

> <Gold.PLP.Chemscore.Metal>
0.0000

> <Gold.Chemscore.Hbonds>
donor molecule, donor type, donor heavy atom, donor atom, acceptor molecule, acceptor atom, score
      L1  H    16    36       P1  7957  1.00
      P1  H  8011  8017       L1    16  0.65

> <Gold.PLP.Chemscore.Internal.Correction>
0.0903

> <Gold.Rescore>
     Score         DG    S(hbond)    S(metal)    S(lipo)     H(rot)  DE(clash)    DE(int)     intcor
     17.85     -18.59       1.27        0.00     120.67       2.06       0.32       0.42       ----

> <Gold.Chemscore.Fitness>
17.8502

> <Gold.Chemscore.DG>
-18.5865

> <Gold.Chemscore.ZeroCoef>
-5.4800

> <Gold.Chemscore.Hbond>
1.2739

> <Gold.Chemscore.Metal>
0.0000

> <Gold.Chemscore.Lipo>
120.6675

> <Gold.Chemscore.Internal_Hbond>
0.0000

> <Gold.Chemscore.DEClash>
0.3209

> <Gold.Chemscore.DEInternal>
0.4155

> <Gold.Chemscore.Rot>
2.0572

> <Gold.Chemscore.Internal.Correction>
   9.000000E+99

> <Gold.Chemscore.Hbonds>
donor molecule, donor type, donor heavy atom, donor atom, acceptor molecule, acceptor atom, score
      L1  H    16    36       P1  7957  0.93
      P1  H  8011  8017       L1    16  0.05

> <Gold.Chemscore.Hbond.Weighted>
-4.2548

> <Gold.Chemscore.Metal.Weighted>
-0.0000

> <Gold.Chemscore.Lipo.Weighted>
-14.1181

> <Gold.Chemscore.Internal_Hbond.Weighted>
0.0000

> <Gold.Chemscore.DEClash.Weighted>
0.3209

> <Gold.Chemscore.DEInternal.Weighted>
0.4155

> <Gold.Chemscore.Rot.Weighted>
5.2663

> <Gold.Chemscore.Internal.Correction.Weighted>
   9.000000E+99

> <Gold.Protein.RotatedTorsions>
[ 6907 6896 6895 6894 ] final -100.85 input  -60.11 | X-H torsion
[ 7974 7965 7964 7962 ] final -125.64 input  175.53 | X-H torsion
[ 8008 7997 7996 7995 ] final   18.95 input   59.86 | X-H torsion
[ 10167 10162 10161 10158 ] final -134.99 input  -65.29 | X-H torsion
[ 10718 10713 10712 10709 ] final -127.78 input   66.30 | X-H torsion
[ 10763 10752 10751 10750 ] final  -16.68 input  -60.55 | X-H torsion
[ 11005 11000 10999 10996 ] final -139.72 input  -57.11 | X-H torsion

> <Gold.Protein.ActiveResidues>
 VAL166  LYS551  ARG553  GLY616  TRP617  ASP618  TYR619  PRO620  LYS621  CYS622 
 ASP623  PHE694  ASN695  SER759  ASP760  ASP761  ALA762  ILE779  LEU786  VAL792 
 PHE793  MET794  SER795  GLU796  ALA797  LYS798  CYS799  TRP800  GLU811  SER814 

> <Gold.Protein.RotatedAtoms>
  150.7132  134.0824  159.3902 H   0  0  0  0  0  0  0  0  0  0  0  0  # atno 6907 bound_to 6896
  151.8808  135.0452  160.0498 H   0  0  0  0  0  0  0  0  0  0  0  0  # atno 6908 bound_to 6896
  152.2569  133.5228  159.5395 H   0  0  0  0  0  0  0  0  0  0  0  0  # atno 6909 bound_to 6896
  144.9955  140.7772  143.4528 H   0  0  0  0  0  0  0  0  0  0  0  0  # atno 7974 bound_to 7965
  154.9136  140.3017  155.5253 H   0  0  0  0  0  0  0  0  0  0  0  0  # atno 8008 bound_to 7997
  156.3013  140.2384  156.4114 H   0  0  0  0  0  0  0  0  0  0  0  0  # atno 8009 bound_to 7997
  154.8401  140.0414  157.1524 H   0  0  0  0  0  0  0  0  0  0  0  0  # atno 8010 bound_to 7997
  139.8824  143.6822  152.2625 H   0  0  0  0  0  0  0  0  0  0  0  0  # atno 10167 bound_to 10162
  156.1889  130.6782  151.0399 H   0  0  0  0  0  0  0  0  0  0  0  0  # atno 10718 bound_to 10713
  153.5623  135.7009  153.5542 H   0  0  0  0  0  0  0  0  0  0  0  0  # atno 10763 bound_to 10752
  153.3418  135.4019  155.1577 H   0  0  0  0  0  0  0  0  0  0  0  0  # atno 10764 bound_to 10752
  154.8646  135.3744  154.5141 H   0  0  0  0  0  0  0  0  0  0  0  0  # atno 10765 bound_to 10752
  140.8493  134.2306  157.4769 H   0  0  0  0  0  0  0  0  0  0  0  0  # atno 11005 bound_to 11000
  145.2226  139.2152  143.5085 LP  0  0  0  0  0  0  0  0  0  0  0  0  # atno 17320 bound_to 7965
  146.3441  140.2087  142.8590 LP  0  0  0  0  0  0  0  0  0  0  0  0  # atno 17321 bound_to 7965
  139.7183  144.7607  151.0997 LP  0  0  0  0  0  0  0  0  0  0  0  0  # atno 17342 bound_to 10162
  140.7742  143.5240  150.9502 LP  0  0  0  0  0  0  0  0  0  0  0  0  # atno 17343 bound_to 10162
  157.6916  131.0808  150.7090 LP  0  0  0  0  0  0  0  0  0  0  0  0  # atno 17370 bound_to 10713
  156.7147  130.4662  149.5538 LP  0  0  0  0  0  0  0  0  0  0  0  0  # atno 17371 bound_to 10713
  139.8704  134.9675  156.4598 LP  0  0  0  0  0  0  0  0  0  0  0  0  # atno 17394 bound_to 11000
  140.8808  133.7919  155.9465 LP  0  0  0  0  0  0  0  0  0  0  0  0  # atno 17395 bound_to 11000

$$$$
