AV-unprocessed.smi:227|AV-procd|sdf|1741|dock9
  -GOLD-   2262020243D 1   1.00000     0.00000
 Structure written by MMmdl.
 54 58  0  0  0  0  0  0  0  0  1 V2000
  154.2606  140.0964  159.1696 O   0  0  0  0  0  0  0  0  0  0  0  0
  153.0563  140.1290  159.9067 C   0  0  0  0  0  0  0  0  0  0  0  0
  151.9114  140.7541  159.0745 C   0  0  2  0  0  0  0  0  0  0  0  0
  151.3471  139.7686  158.0142 C   0  0  0  0  0  0  0  0  0  0  0  0
  150.5990  138.6511  158.5725 N   0  0  0  0  0  0  0  0  0  0  0  0
  151.0691  137.6892  159.4367 C   0  0  0  0  0  0  0  0  0  0  0  0
  150.1956  136.7901  159.7955 N   0  0  0  0  0  0  0  0  0  0  0  0
  149.0323  137.1448  159.1220 C   0  0  0  0  0  0  0  0  0  0  0  0
  147.7091  136.6139  159.0546 C   0  0  0  0  0  0  0  0  0  0  0  0
  147.2739  135.5165  159.7352 N   0  0  0  0  0  0  0  0  0  0  0  0
  148.0646  134.9194  160.8022 C   0  0  1  0  0  0  0  0  0  0  0  0
  147.9240  135.9149  161.9705 C   0  0  0  0  0  0  0  0  0  0  0  0
  146.4848  136.4119  161.7651 C   0  0  0  0  0  0  0  0  0  0  0  0
  146.0524  135.5921  160.5271 C   0  0  2  0  0  0  0  0  0  0  0  0
  145.8247  134.1039  160.8768 C   0  0  2  0  0  0  0  0  0  0  0  0
  144.8313  133.7830  162.0098 C   0  0  0  0  0  0  0  0  0  0  0  0
  144.5286  132.4043  162.0230 O   0  0  0  0  0  0  0  0  0  0  0  0
  147.2695  133.6446  161.1387 C   0  0  0  0  0  0  0  0  0  0  0  0
  146.8312  137.2437  158.2293 N   0  0  0  0  0  0  0  0  0  0  0  0
  147.2009  138.3234  157.5367 C   0  0  0  0  0  0  0  0  0  0  0  0
  148.3856  138.9338  157.5170 N   0  0  0  0  0  0  0  0  0  0  0  0
  149.2796  138.3055  158.3320 C   0  0  0  0  0  0  0  0  0  0  0  0
  152.3476  142.1073  158.4529 C   0  0  1  0  0  0  0  0  0  0  0  0
  151.2725  142.8070  157.6379 C   0  0  0  0  0  0  0  0  0  0  0  0
  151.8017  144.2343  157.5636 C   0  0  0  0  0  0  0  0  0  0  0  0
  152.4905  144.4488  158.7896 O   0  0  0  0  0  0  0  0  0  0  0  0
  152.6740  143.2098  159.4677 C   0  0  0  0  0  0  0  0  0  0  0  0
  154.9292  140.5420  159.6682 H   0  0  0  0  0  0  0  0  0  0  0  0
  152.8243  139.0993  160.1764 H   0  0  0  0  0  0  0  0  0  0  0  0
  153.2135  140.6695  160.8405 H   0  0  0  0  0  0  0  0  0  0  0  0
  151.0959  140.9710  159.7662 H   0  0  0  0  0  0  0  0  0  0  0  0
  150.6949  140.3011  157.3215 H   0  0  0  0  0  0  0  0  0  0  0  0
  152.1505  139.3665  157.3970 H   0  0  0  0  0  0  0  0  0  0  0  0
  152.0851  137.6742  159.8016 H   0  0  0  0  0  0  0  0  0  0  0  0
  149.0979  134.6854  160.5538 H   0  0  0  0  0  0  0  0  0  0  0  0
  148.0775  135.4473  162.9436 H   0  0  0  0  0  0  0  0  0  0  0  0
  148.6334  136.7379  161.8744 H   0  0  0  0  0  0  0  0  0  0  0  0
  145.8491  136.2678  162.6370 H   0  0  0  0  0  0  0  0  0  0  0  0
  146.4840  137.4789  161.5389 H   0  0  0  0  0  0  0  0  0  0  0  0
  145.1976  136.0240  160.0054 H   0  0  0  0  0  0  0  0  0  0  0  0
  145.4718  133.6025  159.9734 H   0  0  0  0  0  0  0  0  0  0  0  0
  145.2719  134.0463  162.9718 H   0  0  0  0  0  0  0  0  0  0  0  0
  143.9113  134.3599  161.9246 H   0  0  0  0  0  0  0  0  0  0  0  0
  143.5890  132.3026  162.0275 H   0  0  0  0  0  0  0  0  0  0  0  0
  147.5373  132.8262  160.4693 H   0  0  0  0  0  0  0  0  0  0  0  0
  147.4392  133.3091  162.1625 H   0  0  0  0  0  0  0  0  0  0  0  0
  146.4379  138.7603  156.9095 H   0  0  0  0  0  0  0  0  0  0  0  0
  153.2262  141.9600  157.8235 H   0  0  0  0  0  0  0  0  0  0  0  0
  151.1163  142.3722  156.6512 H   0  0  0  0  0  0  0  0  0  0  0  0
  150.3203  142.7903  158.1700 H   0  0  0  0  0  0  0  0  0  0  0  0
  152.5134  144.3336  156.7430 H   0  0  0  0  0  0  0  0  0  0  0  0
  151.0085  144.9673  157.4159 H   0  0  0  0  0  0  0  0  0  0  0  0
  151.9833  143.1773  160.3115 H   0  0  0  0  0  0  0  0  0  0  0  0
  153.6885  143.1306  159.8590 H   0  0  0  0  0  0  0  0  0  0  0  0
  1  2  1  0  0  0  0
  1 28  1  0  0  0  0
  2  3  1  0  0  0  0
  2 29  1  0  0  0  0
  2 30  1  0  0  0  0
  3  4  1  0  0  0  0
  3 23  1  0  0  0  0
  3 31  1  0  0  0  0
  4  5  1  0  0  0  0
  4 32  1  0  0  0  0
  4 33  1  0  0  0  0
  5 22  1  0  0  0  0
  5  6  1  0  0  0  0
  6  7  2  0  0  0  0
  6 34  1  0  0  0  0
  7  8  1  0  0  0  0
  8 22  2  0  0  0  0
  8  9  1  0  0  0  0
  9 10  1  0  0  0  0
  9 19  2  0  0  0  0
 10 14  1  0  0  0  0
 10 11  1  0  0  0  0
 11 18  1  0  0  0  0
 11 12  1  0  0  0  0
 11 35  1  0  0  0  0
 12 13  1  0  0  0  0
 12 36  1  0  0  0  0
 12 37  1  0  0  0  0
 13 14  1  0  0  0  0
 13 38  1  0  0  0  0
 13 39  1  0  0  0  0
 14 15  1  0  0  0  0
 14 40  1  0  0  0  0
 15 16  1  0  0  0  0
 15 18  1  0  0  0  0
 15 41  1  0  0  0  0
 16 17  1  0  0  0  0
 16 42  1  0  0  0  0
 16 43  1  0  0  0  0
 17 44  1  0  0  0  0
 18 45  1  0  0  0  0
 18 46  1  0  0  0  0
 19 20  1  0  0  0  0
 20 21  2  0  0  0  0
 20 47  1  0  0  0  0
 21 22  1  0  0  0  0
 23 27  1  0  0  0  0
 23 24  1  0  0  0  0
 23 48  1  0  0  0  0
 24 25  1  0  0  0  0
 24 49  1  0  0  0  0
 24 50  1  0  0  0  0
 25 26  1  0  0  0  0
 25 51  1  0  0  0  0
 25 52  1  0  0  0  0
 26 27  1  0  0  0  0
 27 53  1  0  0  0  0
 27 54  1  0  0  0  0
M  END
> <s_m_source_file>
AV-unprocessed.smi

> <i_m_source_file_index>
227

> <i_lp_mmshare_version>
43012

> <i_f3d_flags>
0

> <s_epik_input>
W0NIMl0xT1tDSDJdW0NIMl1bQ0BIXTFbQ0BIXShbQ0gyXVtPSF0pW0NIMl1uKFtjSF1uMiljKGMyMyluW2NIXW5jM04oW0NASF00NSlbQ0BASF0oW0NIMl1bQ0gyXTQpW0NASF0oW0NIMl01KVtDSDJdW09IXQ==

> <s_epik_cmdline>
J2VwaWtfcHl0aG9uJywgJy1waCcsICc3LjAnLCAnLXRuJywgJzgnLCAnLW1hJywgJzIwMCcsICctbWV0YWxfYmluZGluZycsICctaW1hZScsICc8aW5maWxlLm1hZT4nLCAnLW9tYWUnLCAnPG91dGZpbGUubWFlPic=

> <r_lp_tautomer_probability>
1

> <r_epik_Ionization_Penalty>
0.0055791

> <r_epik_Ionization_Penalty_Charging>
0

> <r_epik_Ionization_Penalty_Neutral>
0.0055791

> <r_epik_State_Penalty>
0.00401299

> <r_epik_Charging_Adjusted_Penalty>
0.00401299

> <i_epik_Tot_Q>
0

> <i_epik_Tot_abs_Q>
0

> <r_epik_Metal_State_Penalty>
-0

> <b_epik_Metal_Only>
0

> <s_lp_Force_Field>
OPLS_2005

> <r_lp_Energy>
87.7083

> <b_lp_Chiralities_Consistent>
1

> <s_lp_Variant>
AV-unprocessed.smi:227-15

> <Gold.Version>
5.8.1

> <Gold.Id.Protein>
6NUR|6NUR_protein|mol2

> <Gold.PLP.Fitness>
47.3282

> <Gold.PLP.PLP>
-42.1751

> <Gold.PLP.part.hbond>
-3.0568

> <Gold.PLP.part.metal>
0.0000

> <Gold.PLP.part.buried>
-7.2684

> <Gold.PLP.part.nonpolar>
-31.9259

> <Gold.PLP.part.repulsive>
0.0000

> <Gold.PLP.ligand.clash>
0.0000

> <Gold.PLP.ligand.torsion>
0.4816

> <Gold.PLP.Chemscore.Hbond>
2.0000

> <Gold.PLP.Chemscore.CHOScore>
0.0000

> <Gold.PLP.Chemscore.Metal>
0.0000

> <Gold.Chemscore.Hbonds>
donor molecule, donor type, donor heavy atom, donor atom, acceptor molecule, acceptor atom, score
      P1  H  6896  6909       L1     7  1.00
      P1  H  7997  8009       L1     1  0.98

> <Gold.PLP.Chemscore.Internal.Correction>
0.1163

> <Gold.Rescore>
     Score         DG    S(hbond)    S(metal)    S(lipo)     H(rot)  DE(clash)    DE(int)     intcor
     13.01     -14.61       1.67        0.00     109.15       3.61       0.05       1.55       ----

> <Gold.Chemscore.Fitness>
13.0099

> <Gold.Chemscore.DG>
-14.6086

> <Gold.Chemscore.ZeroCoef>
-5.4800

> <Gold.Chemscore.Hbond>
1.6744

> <Gold.Chemscore.Metal>
0.0000

> <Gold.Chemscore.Lipo>
109.1479

> <Gold.Chemscore.Internal_Hbond>
0.0000

> <Gold.Chemscore.DEClash>
0.0465

> <Gold.Chemscore.DEInternal>
1.5522

> <Gold.Chemscore.Rot>
3.6071

> <Gold.Chemscore.Internal.Correction>
   9.000000E+99

> <Gold.Chemscore.Hbonds>
donor molecule, donor type, donor heavy atom, donor atom, acceptor molecule, acceptor atom, score
      P1  H  6896  6909       L1     7  0.83
      P1  H  7997  8009       L1     1  0.50

> <Gold.Chemscore.Hbond.Weighted>
-5.5925

> <Gold.Chemscore.Metal.Weighted>
-0.0000

> <Gold.Chemscore.Lipo.Weighted>
-12.7703

> <Gold.Chemscore.Internal_Hbond.Weighted>
0.0000

> <Gold.Chemscore.DEClash.Weighted>
0.0465

> <Gold.Chemscore.DEInternal.Weighted>
1.5522

> <Gold.Chemscore.Rot.Weighted>
9.2342

> <Gold.Chemscore.Internal.Correction.Weighted>
   9.000000E+99

> <Gold.Protein.RotatedTorsions>
[ 6907 6896 6895 6894 ] final   71.90 input  -60.11 | X-H torsion
[ 7974 7965 7964 7962 ] final  167.72 input  175.53 | X-H torsion
[ 8008 7997 7996 7995 ] final  131.31 input   59.86 | X-H torsion
[ 10167 10162 10161 10158 ] final   68.90 input  -65.29 | X-H torsion
[ 10718 10713 10712 10709 ] final  125.08 input   66.30 | X-H torsion
[ 10763 10752 10751 10750 ] final  160.09 input  -60.55 | X-H torsion
[ 11005 11000 10999 10996 ] final  -49.20 input  -57.11 | X-H torsion

> <Gold.Protein.ActiveResidues>
 VAL166  LYS551  ARG553  GLY616  TRP617  ASP618  TYR619  PRO620  LYS621  CYS622 
 ASP623  PHE694  ASN695  SER759  ASP760  ASP761  ALA762  ILE779  LEU786  VAL792 
 PHE793  MET794  SER795  GLU796  ALA797  LYS798  CYS799  TRP800  GLU811  SER814 

> <Gold.Protein.RotatedAtoms>
  152.4837  134.4652  159.9617 H   0  0  0  0  0  0  0  0  0  0  0  0  # atno 6907 bound_to 6896
  151.4653  133.3576  159.2823 H   0  0  0  0  0  0  0  0  0  0  0  0  # atno 6908 bound_to 6896
  150.8929  134.8360  159.7367 H   0  0  0  0  0  0  0  0  0  0  0  0  # atno 6909 bound_to 6896
  144.7414  139.8802  143.6395 H   0  0  0  0  0  0  0  0  0  0  0  0  # atno 7974 bound_to 7965
  156.2968  140.2574  156.2904 H   0  0  0  0  0  0  0  0  0  0  0  0  # atno 8008 bound_to 7997
  154.9515  140.0394  157.2165 H   0  0  0  0  0  0  0  0  0  0  0  0  # atno 8009 bound_to 7997
  154.8032  140.2831  155.5911 H   0  0  0  0  0  0  0  0  0  0  0  0  # atno 8010 bound_to 7997
  140.0736  144.5131  150.7210 H   0  0  0  0  0  0  0  0  0  0  0  0  # atno 10167 bound_to 10162
  157.5532  131.1093  150.8666 H   0  0  0  0  0  0  0  0  0  0  0  0  # atno 10718 bound_to 10713
  154.2420  135.2774  155.2850 H   0  0  0  0  0  0  0  0  0  0  0  0  # atno 10763 bound_to 10752
  154.5537  135.5667  153.6948 H   0  0  0  0  0  0  0  0  0  0  0  0  # atno 10764 bound_to 10752
  152.9998  135.6280  154.2565 H   0  0  0  0  0  0  0  0  0  0  0  0  # atno 10765 bound_to 10752
  141.0745  133.6669  156.3551 H   0  0  0  0  0  0  0  0  0  0  0  0  # atno 11005 bound_to 11000
  146.1217  139.4236  143.0224 LP  0  0  0  0  0  0  0  0  0  0  0  0  # atno 17320 bound_to 7965
  145.7295  141.0047  143.1359 LP  0  0  0  0  0  0  0  0  0  0  0  0  # atno 17321 bound_to 7965
  140.7113  143.2507  151.4572 LP  0  0  0  0  0  0  0  0  0  0  0  0  # atno 17342 bound_to 10162
  139.5821  144.1686  152.1982 LP  0  0  0  0  0  0  0  0  0  0  0  0  # atno 17343 bound_to 10162
  156.9185  130.5306  149.5279 LP  0  0  0  0  0  0  0  0  0  0  0  0  # atno 17370 bound_to 10713
  156.0595  130.5650  150.9163 LP  0  0  0  0  0  0  0  0  0  0  0  0  # atno 17371 bound_to 10713
  140.5603  134.5941  157.5432 LP  0  0  0  0  0  0  0  0  0  0  0  0  # atno 17394 bound_to 11000
  139.9557  134.7538  156.0346 LP  0  0  0  0  0  0  0  0  0  0  0  0  # atno 17395 bound_to 11000

$$$$
