AV-unprocessed.smi:2618|AV-procd|sdf|10219|dock4
  -GOLD-   2272014223D 1   1.00000     0.00000
 Structure written by MMmdl.
 39 40  0  0  0  0  0  0  0  0  1 V2000
  145.9681  143.4428  153.6969 C   0  0  0  0  0  0  0  0  0  0  0  0
  146.5056  142.5332  154.6405 O   0  0  0  0  0  0  0  0  0  0  0  0
  146.9685  141.3334  154.0397 C   0  0  0  0  0  0  0  0  0  0  0  0
  148.4940  141.4068  153.8379 C   0  0  0  0  0  0  0  0  0  0  0  0
  149.2971  140.9979  155.0492 C   0  0  0  0  0  0  0  0  0  0  0  0
  150.0252  141.7937  155.7424 N   0  0  0  0  0  0  0  0  0  0  0  0
  150.6107  141.1507  156.7522 N   0  0  0  0  0  0  0  0  0  0  0  0
  151.4021  141.7957  157.7100 C   0  0  0  0  0  0  0  0  0  0  0  0
  151.4557  143.1335  157.6863 N   0  0  0  0  0  0  0  0  0  0  0  0
  152.2246  143.7494  158.6096 C   0  0  0  0  0  0  0  0  0  0  0  0
  152.2625  145.2619  158.5616 C   0  0  0  0  0  0  0  0  0  0  0  0
  152.9589  143.0227  159.5679 C   0  0  0  0  0  0  0  0  0  0  0  0
  152.8385  141.6201  159.5034 C   0  0  0  0  0  0  0  0  0  0  0  0
  153.5737  140.7150  160.4685 C   0  0  0  0  0  0  0  0  0  0  0  0
  152.0629  141.0151  158.5783 N   0  0  0  0  0  0  0  0  0  0  0  0
  150.3336  139.7071  156.7080 C   0  0  2  0  0  0  0  0  0  0  0  0
  149.7297  139.1601  157.8691 O   0  0  0  0  0  0  0  0  0  0  0  0
  151.5949  138.8656  156.3617 C   0  0  0  0  0  0  0  0  0  0  0  0
  151.2470  137.6092  156.0779 F   0  0  0  0  0  0  0  0  0  0  0  0
  152.2572  139.3542  155.3143 F   0  0  0  0  0  0  0  0  0  0  0  0
  152.4258  138.8360  157.4051 F   0  0  0  0  0  0  0  0  0  0  0  0
  149.2889  139.6131  155.5878 C   0  0  0  0  0  0  0  0  0  0  0  0
  145.6382  144.3473  154.2077 H   0  0  0  0  0  0  0  0  0  0  0  0
  145.1066  143.0134  153.1835 H   0  0  0  0  0  0  0  0  0  0  0  0
  146.7138  143.7277  152.9537 H   0  0  0  0  0  0  0  0  0  0  0  0
  146.6984  140.4653  154.6437 H   0  0  0  0  0  0  0  0  0  0  0  0
  146.4813  141.2095  153.0713 H   0  0  0  0  0  0  0  0  0  0  0  0
  148.7758  140.7685  153.0003 H   0  0  0  0  0  0  0  0  0  0  0  0
  148.7664  142.4229  153.5510 H   0  0  0  0  0  0  0  0  0  0  0  0
  152.7159  145.6721  159.4644 H   0  0  0  0  0  0  0  0  0  0  0  0
  151.2540  145.6676  158.4737 H   0  0  0  0  0  0  0  0  0  0  0  0
  152.8444  145.5971  157.7029 H   0  0  0  0  0  0  0  0  0  0  0  0
  153.5777  143.5116  160.3062 H   0  0  0  0  0  0  0  0  0  0  0  0
  154.1936  141.2913  161.1558 H   0  0  0  0  0  0  0  0  0  0  0  0
  154.2193  140.0249  159.9248 H   0  0  0  0  0  0  0  0  0  0  0  0
  152.8638  140.1320  161.0560 H   0  0  0  0  0  0  0  0  0  0  0  0
  149.4599  139.8718  158.4289 H   0  0  0  0  0  0  0  0  0  0  0  0
  148.2909  139.3654  155.9532 H   0  0  0  0  0  0  0  0  0  0  0  0
  149.5562  138.8909  154.8159 H   0  0  0  0  0  0  0  0  0  0  0  0
  1  2  1  0  0  0  0
  1 23  1  0  0  0  0
  1 24  1  0  0  0  0
  1 25  1  0  0  0  0
  2  3  1  0  0  0  0
  3  4  1  0  0  0  0
  3 26  1  0  0  0  0
  3 27  1  0  0  0  0
  4  5  1  0  0  0  0
  4 28  1  0  0  0  0
  4 29  1  0  0  0  0
  5 22  1  0  0  0  0
  5  6  2  0  0  0  0
  6  7  1  0  0  0  0
  7  8  1  0  0  0  0
  7 16  1  0  0  0  0
  8 15  1  0  0  0  0
  8  9  2  0  0  0  0
  9 10  1  0  0  0  0
 10 11  1  0  0  0  0
 10 12  2  0  0  0  0
 11 30  1  0  0  0  0
 11 31  1  0  0  0  0
 11 32  1  0  0  0  0
 12 13  1  0  0  0  0
 12 33  1  0  0  0  0
 13 14  1  0  0  0  0
 13 15  2  0  0  0  0
 14 34  1  0  0  0  0
 14 35  1  0  0  0  0
 14 36  1  0  0  0  0
 16 17  1  0  0  0  0
 16 18  1  0  0  0  0
 16 22  1  0  0  0  0
 17 37  1  0  0  0  0
 18 19  1  0  0  0  0
 18 20  1  0  0  0  0
 18 21  1  0  0  0  0
 22 38  1  0  0  0  0
 22 39  1  0  0  0  0
M  END
> <s_m_source_file>
AV-unprocessed.smi

> <i_m_source_file_index>
2618

> <i_lp_mmshare_version>
43012

> <i_f3d_flags>
0

> <s_epik_input>
W0NIM11PW0NIMl1bQ0gyXUMoW0NIMl0xKT1OTihbQ0BAXTEoW09IXSlDKEYpKEYpRiljMm5jKFtDSDNdKVtjSF1jKG4yKVtDSDNd

> <s_epik_cmdline>
J2VwaWtfcHl0aG9uJywgJy1waCcsICc3LjAnLCAnLXRuJywgJzgnLCAnLW1hJywgJzIwMCcsICctbWV0YWxfYmluZGluZycsICctaW1hZScsICc8aW5maWxlLm1hZT4nLCAnLW9tYWUnLCAnPG91dGZpbGUubWFlPic=

> <r_lp_tautomer_probability>
1

> <r_epik_Ionization_Penalty>
0.0648608

> <r_epik_Ionization_Penalty_Charging>
0

> <r_epik_Ionization_Penalty_Neutral>
0.0648608

> <r_epik_State_Penalty>
0.0551477

> <r_epik_Charging_Adjusted_Penalty>
0.0551477

> <i_epik_Tot_Q>
0

> <i_epik_Tot_abs_Q>
0

> <r_epik_Metal_State_Penalty>
0.0550619

> <b_epik_Metal_Only>
0

> <s_epik_Chemistry_Notes>
This compound has an imine and may undergo hydrolysis.

> <s_lp_Force_Field>
OPLS_2005

> <r_lp_Energy>
16.3005

> <b_lp_Chiralities_Consistent>
1

> <s_lp_Variant>
AV-unprocessed.smi:2618-2

> <Gold.Version>
5.8.1

> <Gold.Id.Protein>
6NUR|6NUR_protein|mol2

> <Gold.PLP.Fitness>
41.5241

> <Gold.PLP.PLP>
-42.6803

> <Gold.PLP.part.hbond>
0.0000

> <Gold.PLP.part.metal>
0.0000

> <Gold.PLP.part.buried>
-4.7799

> <Gold.PLP.part.nonpolar>
-38.1992

> <Gold.PLP.part.repulsive>
0.4762

> <Gold.PLP.ligand.clash>
0.0000

> <Gold.PLP.ligand.torsion>
0.6273

> <Gold.PLP.Chemscore.Hbond>
0.0000

> <Gold.PLP.Chemscore.CHOScore>
0.0000

> <Gold.PLP.Chemscore.Metal>
0.0000

> <Gold.PLP.Chemscore.Internal.Correction>
0.0984

> <Gold.Rescore>
     Score         DG    S(hbond)    S(metal)    S(lipo)     H(rot)  DE(clash)    DE(int)     intcor
      9.02     -11.23       0.00        0.00      93.68       2.03       0.07       2.14       ----

> <Gold.Chemscore.Fitness>
9.0202

> <Gold.Chemscore.DG>
-11.2334

> <Gold.Chemscore.ZeroCoef>
-5.4800

> <Gold.Chemscore.Hbond>
0.0000

> <Gold.Chemscore.Metal>
0.0000

> <Gold.Chemscore.Lipo>
93.6800

> <Gold.Chemscore.Internal_Hbond>
0.0000

> <Gold.Chemscore.DEClash>
0.0737

> <Gold.Chemscore.DEInternal>
2.1395

> <Gold.Chemscore.Rot>
2.0340

> <Gold.Chemscore.Internal.Correction>
   9.000000E+99

> <Gold.Chemscore.Hbond.Weighted>
-0.0000

> <Gold.Chemscore.Metal.Weighted>
-0.0000

> <Gold.Chemscore.Lipo.Weighted>
-10.9606

> <Gold.Chemscore.Internal_Hbond.Weighted>
0.0000

> <Gold.Chemscore.DEClash.Weighted>
0.0737

> <Gold.Chemscore.DEInternal.Weighted>
2.1395

> <Gold.Chemscore.Rot.Weighted>
5.2071

> <Gold.Chemscore.Internal.Correction.Weighted>
   9.000000E+99

> <Gold.Protein.RotatedTorsions>
[ 6907 6896 6895 6894 ] final -162.06 input  -60.11 | X-H torsion
[ 7974 7965 7964 7962 ] final -135.90 input  175.53 | X-H torsion
[ 8008 7997 7996 7995 ] final   72.76 input   59.86 | X-H torsion
[ 10167 10162 10161 10158 ] final  -90.41 input  -65.29 | X-H torsion
[ 10718 10713 10712 10709 ] final  -92.32 input   66.30 | X-H torsion
[ 10763 10752 10751 10750 ] final  152.09 input  -60.55 | X-H torsion
[ 11005 11000 10999 10996 ] final   63.33 input  -57.11 | X-H torsion

> <Gold.Protein.ActiveResidues>
 VAL166  LYS551  ARG553  GLY616  TRP617  ASP618  TYR619  PRO620  LYS621  CYS622 
 ASP623  PHE694  ASN695  SER759  ASP760  ASP761  ALA762  ILE779  LEU786  VAL792 
 PHE793  MET794  SER795  GLU796  ALA797  LYS798  CYS799  TRP800  GLU811  SER814 

> <Gold.Protein.RotatedAtoms>
  151.3743  133.3843  159.2702 H   0  0  0  0  0  0  0  0  0  0  0  0  # atno 6907 bound_to 6896
  150.9626  134.9013  159.7750 H   0  0  0  0  0  0  0  0  0  0  0  0  # atno 6908 bound_to 6896
  152.5155  134.3703  159.9368 H   0  0  0  0  0  0  0  0  0  0  0  0  # atno 6909 bound_to 6896
  144.8974  140.6724  143.5107 H   0  0  0  0  0  0  0  0  0  0  0  0  # atno 7974 bound_to 7965
  155.7736  140.3483  155.5260 H   0  0  0  0  0  0  0  0  0  0  0  0  # atno 8008 bound_to 7997
  155.8797  140.1000  157.1514 H   0  0  0  0  0  0  0  0  0  0  0  0  # atno 8009 bound_to 7997
  154.4024  140.1325  156.4168 H   0  0  0  0  0  0  0  0  0  0  0  0  # atno 8010 bound_to 7997
  140.3552  143.2870  151.9680 H   0  0  0  0  0  0  0  0  0  0  0  0  # atno 10167 bound_to 10162
  156.0001  130.4982  150.5607 H   0  0  0  0  0  0  0  0  0  0  0  0  # atno 10718 bound_to 10713
  154.1144  135.2837  155.3223 H   0  0  0  0  0  0  0  0  0  0  0  0  # atno 10763 bound_to 10752
  154.6467  135.5383  153.7856 H   0  0  0  0  0  0  0  0  0  0  0  0  # atno 10764 bound_to 10752
  153.0334  135.6500  154.1301 H   0  0  0  0  0  0  0  0  0  0  0  0  # atno 10765 bound_to 10752
  140.0032  134.6410  155.9897 H   0  0  0  0  0  0  0  0  0  0  0  0  # atno 11005 bound_to 11000
  145.3677  139.1666  143.4349 LP  0  0  0  0  0  0  0  0  0  0  0  0  # atno 17320 bound_to 7965
  146.3089  140.3745  142.8677 LP  0  0  0  0  0  0  0  0  0  0  0  0  # atno 17321 bound_to 7965
  139.4821  144.6041  151.7552 LP  0  0  0  0  0  0  0  0  0  0  0  0  # atno 17342 bound_to 10162
  140.5181  144.0922  150.6014 LP  0  0  0  0  0  0  0  0  0  0  0  0  # atno 17343 bound_to 10162
  157.3517  131.0734  151.1708 LP  0  0  0  0  0  0  0  0  0  0  0  0  # atno 17370 bound_to 10713
  157.2522  130.6619  149.5937 LP  0  0  0  0  0  0  0  0  0  0  0  0  # atno 17371 bound_to 10713
  141.1657  133.6537  156.4472 LP  0  0  0  0  0  0  0  0  0  0  0  0  # atno 17394 bound_to 11000
  140.4690  134.6771  157.5120 LP  0  0  0  0  0  0  0  0  0  0  0  0  # atno 17395 bound_to 11000

$$$$
