AV-unprocessed.smi:159|AV-procd|sdf|1342|dock3
  -GOLD-   2262019 43D 1   1.00000     0.00000
 Structure written by MMmdl.
 28 29  0  0  0  0  0  0  0  0  1 V2000
  153.6237  137.7629  155.7249 N   0  0  0  0  0  0  0  0  0  0  0  0
  152.6233  138.6329  155.5261 C   0  0  0  0  0  0  0  0  0  0  0  0
  151.7132  138.4584  154.4166 C   0  0  0  0  0  0  0  0  0  0  0  0
  150.7340  139.3795  154.2803 C   0  0  0  0  0  0  0  0  0  0  0  0
  150.6018  140.4531  155.1500 N   0  0  0  0  0  0  0  0  0  0  0  0
  149.4924  141.4663  154.9757 C   0  0  2  0  0  0  0  0  0  0  0  0
  148.4023  141.2546  156.0325 C   0  0  0  0  0  0  0  0  0  0  0  0
  147.3108  140.5791  155.2295 C   0  0  0  0  0  0  0  0  0  0  0  0
  147.4936  141.2119  153.8516 C   0  0  2  0  0  0  0  0  0  0  0  0
  146.8899  140.3781  152.7120 C   0  0  0  0  0  0  0  0  0  0  0  0
  147.6691  139.2218  152.4929 O   0  0  0  0  0  0  0  0  0  0  0  0
  148.9094  141.2851  153.7181 O   0  0  0  0  0  0  0  0  0  0  0  0
  151.4954  140.5847  156.2405 C   0  0  0  0  0  0  0  0  0  0  0  0
  151.3934  141.4968  157.0601 O   0  0  0  0  0  0  0  0  0  0  0  0
  152.4835  139.6444  156.3607 N   0  0  0  0  0  0  0  0  0  0  0  0
  149.9477  142.4575  155.0112 H   0  0  0  0  0  0  0  0  0  0  0  0
  147.0772  142.2209  153.8649 H   0  0  0  0  0  0  0  0  0  0  0  0
  154.2560  137.8857  156.5024 H   0  0  0  0  0  0  0  0  0  0  0  0
  153.7394  136.9811  155.0961 H   0  0  0  0  0  0  0  0  0  0  0  0
  151.7840  137.6425  153.7115 H   0  0  0  0  0  0  0  0  0  0  0  0
  150.0406  139.2585  153.4611 H   0  0  0  0  0  0  0  0  0  0  0  0
  148.7541  140.6671  156.8817 H   0  0  0  0  0  0  0  0  0  0  0  0
  148.0694  142.2297  156.3903 H   0  0  0  0  0  0  0  0  0  0  0  0
  147.4896  139.5039  155.1857 H   0  0  0  0  0  0  0  0  0  0  0  0
  146.3154  140.7423  155.6431 H   0  0  0  0  0  0  0  0  0  0  0  0
  145.8552  140.1065  152.9229 H   0  0  0  0  0  0  0  0  0  0  0  0
  146.8920  140.9533  151.7856 H   0  0  0  0  0  0  0  0  0  0  0  0
  148.5503  139.4887  152.2800 H   0  0  0  0  0  0  0  0  0  0  0  0
  1  2  1  0  0  0  0
  1 18  1  0  0  0  0
  1 19  1  0  0  0  0
  2 15  2  0  0  0  0
  2  3  1  0  0  0  0
  3  4  2  0  0  0  0
  3 20  1  0  0  0  0
  4  5  1  0  0  0  0
  4 21  1  0  0  0  0
  5  6  1  0  0  0  0
  5 13  1  0  0  0  0
  6 16  1  0  0  0  0
  6 12  1  0  0  0  0
  6  7  1  0  0  0  0
  7  8  1  0  0  0  0
  7 22  1  0  0  0  0
  7 23  1  0  0  0  0
  8  9  1  0  0  0  0
  8 24  1  0  0  0  0
  8 25  1  0  0  0  0
  9 17  1  0  0  0  0
  9 10  1  0  0  0  0
  9 12  1  0  0  0  0
 10 11  1  0  0  0  0
 10 26  1  0  0  0  0
 10 27  1  0  0  0  0
 11 28  1  0  0  0  0
 13 14  2  0  0  0  0
 13 15  1  0  0  0  0
M  END
> <s_m_source_file>
AV-unprocessed.smi

> <i_m_source_file_index>
159

> <i_lp_mmshare_version>
43012

> <i_f3d_flags>
0

> <s_epik_input>
W05IMl1jMVtjSF1bY0hdbihjKD1PKW4xKVtDQEhdMltDSDJdW0NIMl1bQ0BIXShPMilbQ0gyXVtPSF0=

> <s_epik_cmdline>
J2VwaWtfcHl0aG9uJywgJy1waCcsICc3LjAnLCAnLXRuJywgJzgnLCAnLW1hJywgJzIwMCcsICctbWV0YWxfYmluZGluZycsICctaW1hZScsICc8aW5maWxlLm1hZT4nLCAnLW9tYWUnLCAnPG91dGZpbGUubWFlPic=

> <r_lp_tautomer_probability>
0.99996

> <r_epik_Ionization_Penalty>
0.00126102

> <r_epik_Ionization_Penalty_Charging>
4.46248e-08

> <r_epik_Ionization_Penalty_Neutral>
0.00126097

> <r_epik_State_Penalty>
1.15523e-05

> <r_epik_Charging_Adjusted_Penalty>
1.1597e-05

> <i_epik_Tot_Q>
0

> <i_epik_Tot_abs_Q>
0

> <r_epik_Metal_State_Penalty>
-0

> <b_epik_Metal_Only>
0

> <s_epik_Chemistry_Notes>
This compound contains an acetal/aminal-like group ( X-CH(R)-Y where X, Y are N, S, or O) that may be acid/base labile, releasing an aldehyde.

> <s_lp_Force_Field>
OPLS_2005

> <r_lp_Energy>
25.8801

> <b_lp_Chiralities_Consistent>
1

> <s_lp_Variant>
AV-unprocessed.smi:159-4

> <Gold.Version>
5.8.1

> <Gold.Id.Protein>
6NUR|6NUR_protein|mol2

> <Gold.PLP.Fitness>
34.9352

> <Gold.PLP.PLP>
-24.3121

> <Gold.PLP.part.hbond>
-3.5109

> <Gold.PLP.part.metal>
0.0000

> <Gold.PLP.part.buried>
-0.4584

> <Gold.PLP.part.nonpolar>
-23.3440

> <Gold.PLP.part.repulsive>
3.3872

> <Gold.PLP.ligand.clash>
0.0000

> <Gold.PLP.ligand.torsion>
0.3915

> <Gold.PLP.Chemscore.Hbond>
2.8080

> <Gold.PLP.Chemscore.CHOScore>
0.9897

> <Gold.PLP.Chemscore.Metal>
0.0000

> <Gold.Chemscore.Hbonds>
donor molecule, donor type, donor heavy atom, donor atom, acceptor molecule, acceptor atom, score
      L1  H    11    28       P1  7957  0.94
      P1  H  7997  8008       L1    15  0.95
      P1  H  8011  8017       L1    12  0.85
      L1  C     4    21       P1  7957  1.00

> <Gold.PLP.Chemscore.Internal.Correction>
0.0130

> <Gold.Rescore>
     Score         DG    S(hbond)    S(metal)    S(lipo)     H(rot)  DE(clash)    DE(int)     intcor
      7.95      -9.02       1.34        0.00      37.74       2.09       0.21       0.87       ----

> <Gold.Chemscore.Fitness>
7.9473

> <Gold.Chemscore.DG>
-9.0237

> <Gold.Chemscore.ZeroCoef>
-5.4800

> <Gold.Chemscore.Hbond>
1.3437

> <Gold.Chemscore.Metal>
0.0000

> <Gold.Chemscore.Lipo>
37.7365

> <Gold.Chemscore.Internal_Hbond>
0.0000

> <Gold.Chemscore.DEClash>
0.2100

> <Gold.Chemscore.DEInternal>
0.8665

> <Gold.Chemscore.Rot>
2.0935

> <Gold.Chemscore.Internal.Correction>
   9.000000E+99

> <Gold.Chemscore.Hbonds>
donor molecule, donor type, donor heavy atom, donor atom, acceptor molecule, acceptor atom, score
      L1  H    11    28       P1  7957  0.90
      P1  H  7997  8008       L1    15  0.21
      P1  H  8011  8017       L1    12  0.67

> <Gold.Chemscore.Hbond.Weighted>
-4.4879

> <Gold.Chemscore.Metal.Weighted>
-0.0000

> <Gold.Chemscore.Lipo.Weighted>
-4.4152

> <Gold.Chemscore.Internal_Hbond.Weighted>
0.0000

> <Gold.Chemscore.DEClash.Weighted>
0.2100

> <Gold.Chemscore.DEInternal.Weighted>
0.8665

> <Gold.Chemscore.Rot.Weighted>
5.3594

> <Gold.Chemscore.Internal.Correction.Weighted>
   9.000000E+99

> <Gold.Protein.RotatedTorsions>
[ 6907 6896 6895 6894 ] final   46.18 input  -60.11 | X-H torsion
[ 7974 7965 7964 7962 ] final   73.76 input  175.53 | X-H torsion
[ 8008 7997 7996 7995 ] final  -61.10 input   59.86 | X-H torsion
[ 10167 10162 10161 10158 ] final -136.41 input  -65.29 | X-H torsion
[ 10718 10713 10712 10709 ] final   33.98 input   66.30 | X-H torsion
[ 10763 10752 10751 10750 ] final   41.54 input  -60.55 | X-H torsion
[ 11005 11000 10999 10996 ] final   88.53 input  -57.11 | X-H torsion

> <Gold.Protein.ActiveResidues>
 VAL166  LYS551  ARG553  GLY616  TRP617  ASP618  TYR619  PRO620  LYS621  CYS622 
 ASP623  PHE694  ASN695  SER759  ASP760  ASP761  ALA762  ILE779  LEU786  VAL792 
 PHE793  MET794  SER795  GLU796  ALA797  LYS798  CYS799  TRP800  GLU811  SER814 

> <Gold.Protein.RotatedAtoms>
  152.2533  134.8110  160.0442 H   0  0  0  0  0  0  0  0  0  0  0  0  # atno 6907 bound_to 6896
  151.8782  133.3484  159.3766 H   0  0  0  0  0  0  0  0  0  0  0  0  # atno 6908 bound_to 6896
  150.7091  134.4971  159.5588 H   0  0  0  0  0  0  0  0  0  0  0  0  # atno 6909 bound_to 6896
  145.7368  139.2705  143.1509 H   0  0  0  0  0  0  0  0  0  0  0  0  # atno 7974 bound_to 7965
  154.4431  140.1025  156.6378 H   0  0  0  0  0  0  0  0  0  0  0  0  # atno 8008 bound_to 7997
  155.5535  140.3486  155.4455 H   0  0  0  0  0  0  0  0  0  0  0  0  # atno 8009 bound_to 7997
  156.0512  140.1304  157.0037 H   0  0  0  0  0  0  0  0  0  0  0  0  # atno 8010 bound_to 7997
  139.8680  143.6993  152.2643 H   0  0  0  0  0  0  0  0  0  0  0  0  # atno 10167 bound_to 10162
  157.3046  130.7368  149.6687 H   0  0  0  0  0  0  0  0  0  0  0  0  # atno 10718 bound_to 10713
  152.9905  135.6159  154.2804 H   0  0  0  0  0  0  0  0  0  0  0  0  # atno 10763 bound_to 10752
  154.2533  135.2784  155.2809 H   0  0  0  0  0  0  0  0  0  0  0  0  # atno 10764 bound_to 10752
  154.5269  135.5799  153.6784 H   0  0  0  0  0  0  0  0  0  0  0  0  # atno 10765 bound_to 10752
  139.8894  134.8494  156.3014 H   0  0  0  0  0  0  0  0  0  0  0  0  # atno 11005 bound_to 11000
  146.0486  140.8093  142.9793 LP  0  0  0  0  0  0  0  0  0  0  0  0  # atno 17320 bound_to 7965
  144.6880  140.3018  143.7262 LP  0  0  0  0  0  0  0  0  0  0  0  0  # atno 17321 bound_to 7965
  139.7310  144.7582  151.0801 LP  0  0  0  0  0  0  0  0  0  0  0  0  # atno 17342 bound_to 10162
  140.7765  143.5088  150.9679 LP  0  0  0  0  0  0  0  0  0  0  0  0  # atno 17343 bound_to 10162
  155.9673  130.4269  150.4722 LP  0  0  0  0  0  0  0  0  0  0  0  0  # atno 17370 bound_to 10713
  157.2709  131.0587  151.2260 LP  0  0  0  0  0  0  0  0  0  0  0  0  # atno 17371 bound_to 10713
  140.9911  133.7208  156.0815 LP  0  0  0  0  0  0  0  0  0  0  0  0  # atno 17394 bound_to 11000
  140.7624  134.3924  157.5523 LP  0  0  0  0  0  0  0  0  0  0  0  0  # atno 17395 bound_to 11000

$$$$
