AV-unprocessed.smi:764|AV-procd|sdf|3642|dock8
  -GOLD-   22720 1 43D 1   1.00000     0.00000
 Structure written by MMmdl.
 37 37  0  0  0  0  0  0  0  0  2 V2000
  145.2082  141.1212  156.0963 C   0  0  0  0  0  0  0  0  0  0  0  0
  146.1586  141.6857  155.0313 C   0  0  0  0  0  0  0  0  0  0  0  0
  145.7757  143.1144  154.6226 C   0  0  0  0  0  0  0  0  0  0  0  0
  146.1454  140.8217  153.8534 N   0  0  0  0  0  0  0  0  0  0  0  0
  147.1477  140.0280  153.4438 C   0  0  0  0  0  0  0  0  0  0  0  0
  148.2255  139.9336  154.0309 O   0  0  0  0  0  0  0  0  0  0  0  0
  146.8854  139.2095  152.1763 C   0  0  0  0  0  0  0  0  0  0  0  0
  146.0669  137.9357  152.4471 C   0  0  0  0  0  0  0  0  0  0  0  0
  146.1668  136.9961  151.3133 N   0  3  0  0  0  0  0  0  0  0  0  0
  145.5337  135.6858  151.5573 C   0  0  0  0  0  0  0  0  0  0  0  0
  146.2092  134.5877  150.7239 C   0  0  0  0  0  0  0  0  0  0  0  0
  145.3516  133.4299  150.5647 N   0  0  0  0  0  0  0  0  0  0  0  0
  145.6874  132.0947  150.6434 C   0  0  0  0  0  0  0  0  0  0  0  0
  144.5479  131.3764  150.4196 C   0  0  0  0  0  0  0  0  0  0  0  0
  143.5545  132.3737  150.2114 C   0  0  0  0  0  0  0  0  0  0  0  0
  144.0388  133.6022  150.3008 N   0  0  0  0  0  0  0  0  0  0  0  0
  145.2026  141.7483  156.9882 H   0  0  0  0  0  0  0  0  0  0  0  0
  145.5103  140.1186  156.4012 H   0  0  0  0  0  0  0  0  0  0  0  0
  144.1842  141.0626  155.7251 H   0  0  0  0  0  0  0  0  0  0  0  0
  147.1605  141.7237  155.4620 H   0  0  0  0  0  0  0  0  0  0  0  0
  145.7883  143.7841  155.4829 H   0  0  0  0  0  0  0  0  0  0  0  0
  144.7762  143.1507  154.1880 H   0  0  0  0  0  0  0  0  0  0  0  0
  146.4745  143.5127  153.8864 H   0  0  0  0  0  0  0  0  0  0  0  0
  145.2962  140.8255  153.3069 H   0  0  0  0  0  0  0  0  0  0  0  0
  146.3636  139.8437  151.4587 H   0  0  0  0  0  0  0  0  0  0  0  0
  147.8402  138.9402  151.7213 H   0  0  0  0  0  0  0  0  0  0  0  0
  146.4271  137.4411  153.3508 H   0  0  0  0  0  0  0  0  0  0  0  0
  145.0173  138.1853  152.6106 H   0  0  0  0  0  0  0  0  0  0  0  0
  145.7277  137.4182  150.5073 H   0  0  0  0  0  0  0  0  0  0  0  0
  145.6030  135.4443  152.6189 H   0  0  0  0  0  0  0  0  0  0  0  0
  144.4735  135.7499  151.3086 H   0  0  0  0  0  0  0  0  0  0  0  0
  146.4708  134.9645  149.7339 H   0  0  0  0  0  0  0  0  0  0  0  0
  147.1386  134.2677  151.1968 H   0  0  0  0  0  0  0  0  0  0  0  0
  146.6969  131.7697  150.8485 H   0  0  0  0  0  0  0  0  0  0  0  0
  144.4402  130.3018  150.4052 H   0  0  0  0  0  0  0  0  0  0  0  0
  142.5037  132.2427  149.9989 H   0  0  0  0  0  0  0  0  0  0  0  0
  147.1443  136.8458  151.1083 H   0  0  0  0  0  0  0  0  0  0  0  0
  1  2  1  0  0  0  0
  1 17  1  0  0  0  0
  1 18  1  0  0  0  0
  1 19  1  0  0  0  0
  2  3  1  0  0  0  0
  2  4  1  0  0  0  0
  2 20  1  0  0  0  0
  3 21  1  0  0  0  0
  3 22  1  0  0  0  0
  3 23  1  0  0  0  0
  4  5  1  0  0  0  0
  4 24  1  0  0  0  0
  5  6  2  0  0  0  0
  5  7  1  0  0  0  0
  7  8  1  0  0  0  0
  7 25  1  0  0  0  0
  7 26  1  0  0  0  0
  8  9  1  0  0  0  0
  8 27  1  0  0  0  0
  8 28  1  0  0  0  0
  9 10  1  0  0  0  0
  9 29  1  0  0  0  0
  9 37  1  0  0  0  0
 10 11  1  0  0  0  0
 10 30  1  0  0  0  0
 10 31  1  0  0  0  0
 11 12  1  0  0  0  0
 11 32  1  0  0  0  0
 11 33  1  0  0  0  0
 12 16  1  0  0  0  0
 12 13  1  0  0  0  0
 13 14  2  0  0  0  0
 13 34  1  0  0  0  0
 14 15  1  0  0  0  0
 14 35  1  0  0  0  0
 15 16  2  0  0  0  0
 15 36  1  0  0  0  0
M  CHG  1   9   1
M  END
> <s_m_source_file>
AV-unprocessed.smi

> <i_m_source_file_index>
764

> <i_lp_mmshare_version>
43012

> <i_f3d_flags>
0

> <s_epik_input>
W0NIM11bQ0hdKFtDSDNdKVtOSF1DKD1PKVtDSDJdW0NIMl1bTkhdW0NIMl1bQ0gyXW4xW2NIXVtjSF1bY0hdbjE=

> <s_epik_cmdline>
J2VwaWtfcHl0aG9uJywgJy1waCcsICc3LjAnLCAnLXRuJywgJzgnLCAnLW1hJywgJzIwMCcsICctbWV0YWxfYmluZGluZycsICctaW1hZScsICc8aW5maWxlLm1hZT4nLCAnLW9tYWUnLCAnPG91dGZpbGUubWFlPic=

> <r_lp_tautomer_probability>
1

> <r_epik_Ionization_Penalty>
0.00578048

> <r_epik_Ionization_Penalty_Charging>
0.00577767

> <r_epik_Ionization_Penalty_Neutral>
2.80872e-06

> <r_epik_State_Penalty>
-0

> <r_epik_Charging_Adjusted_Penalty>
0.00577767

> <i_epik_Tot_Q>
1

> <i_epik_Tot_abs_Q>
1

> <r_epik_Metal_State_Penalty>
-0

> <b_epik_Metal_Only>
0

> <s_lp_Force_Field>
OPLS_2005

> <r_lp_Energy>
3.7627

> <b_lp_Chiralities_Consistent>
1

> <s_lp_Variant>
AV-unprocessed.smi:764-1

> <Gold.Version>
5.8.1

> <Gold.Id.Protein>
6NUR|6NUR_protein|mol2

> <Gold.PLP.Fitness>
46.7680

> <Gold.PLP.PLP>
-33.2194

> <Gold.PLP.part.hbond>
-2.6317

> <Gold.PLP.part.metal>
0.0000

> <Gold.PLP.part.buried>
-3.5240

> <Gold.PLP.part.nonpolar>
-28.1312

> <Gold.PLP.part.repulsive>
1.4599

> <Gold.PLP.ligand.clash>
0.0000

> <Gold.PLP.ligand.torsion>
0.9465

> <Gold.PLP.Chemscore.Hbond>
3.1941

> <Gold.PLP.Chemscore.CHOScore>
1.8955

> <Gold.PLP.Chemscore.Metal>
0.0000

> <Gold.Chemscore.Hbonds>
donor molecule, donor type, donor heavy atom, donor atom, acceptor molecule, acceptor atom, score
      L1  H     4    24       P1 10175  1.00
      L1  H     9    29       P1 10171  0.30
      L1  H     9    37       P1  7948  1.89
      L1  C    13    34       P1 10747  1.00
      L1  C    15    36       P1 10186  0.51
      L1  C    15    36       P1 10952  0.92

> <Gold.PLP.Chemscore.Internal.Correction>
0.1729

> <Gold.Rescore>
     Score         DG    S(hbond)    S(metal)    S(lipo)     H(rot)  DE(clash)    DE(int)     intcor
     13.17     -13.83       1.97        0.00      66.98       2.37       0.12       0.55       ----

> <Gold.Chemscore.Fitness>
13.1663

> <Gold.Chemscore.DG>
-13.8339

> <Gold.Chemscore.ZeroCoef>
-5.4800

> <Gold.Chemscore.Hbond>
1.9744

> <Gold.Chemscore.Metal>
0.0000

> <Gold.Chemscore.Lipo>
66.9757

> <Gold.Chemscore.Internal_Hbond>
0.0000

> <Gold.Chemscore.DEClash>
0.1181

> <Gold.Chemscore.DEInternal>
0.5494

> <Gold.Chemscore.Rot>
2.3738

> <Gold.Chemscore.Internal.Correction>
   9.000000E+99

> <Gold.Chemscore.Hbonds>
donor molecule, donor type, donor heavy atom, donor atom, acceptor molecule, acceptor atom, score
      L1  H     4    24       P1 10175  0.74
      L1  H     9    29       P1 10171  0.30
      L1  H     9    37       P1  7948  0.87

> <Gold.Chemscore.Hbond.Weighted>
-6.5946

> <Gold.Chemscore.Metal.Weighted>
-0.0000

> <Gold.Chemscore.Lipo.Weighted>
-7.8362

> <Gold.Chemscore.Internal_Hbond.Weighted>
0.0000

> <Gold.Chemscore.DEClash.Weighted>
0.1181

> <Gold.Chemscore.DEInternal.Weighted>
0.5494

> <Gold.Chemscore.Rot.Weighted>
6.0769

> <Gold.Chemscore.Internal.Correction.Weighted>
   9.000000E+99

> <Gold.Protein.RotatedTorsions>
[ 6907 6896 6895 6894 ] final  142.12 input  -60.11 | X-H torsion
[ 7974 7965 7964 7962 ] final    9.90 input  175.53 | X-H torsion
[ 8008 7997 7996 7995 ] final   50.16 input   59.86 | X-H torsion
[ 10167 10162 10161 10158 ] final   17.74 input  -65.29 | X-H torsion
[ 10718 10713 10712 10709 ] final  159.31 input   66.30 | X-H torsion
[ 10763 10752 10751 10750 ] final   90.75 input  -60.55 | X-H torsion
[ 11005 11000 10999 10996 ] final   68.77 input  -57.11 | X-H torsion

> <Gold.Protein.ActiveResidues>
 VAL166  LYS551  ARG553  GLY616  TRP617  ASP618  TYR619  PRO620  LYS621  CYS622 
 ASP623  PHE694  ASN695  SER759  ASP760  ASP761  ALA762  ILE779  LEU786  VAL792 
 PHE793  MET794  SER795  GLU796  ALA797  LYS798  CYS799  TRP800  GLU811  SER814 

> <Gold.Protein.RotatedAtoms>
  152.2227  133.4996  159.5171 H   0  0  0  0  0  0  0  0  0  0  0  0  # atno 6907 bound_to 6896
  150.7017  134.1321  159.4083 H   0  0  0  0  0  0  0  0  0  0  0  0  # atno 6908 bound_to 6896
  151.9242  135.0285  160.0575 H   0  0  0  0  0  0  0  0  0  0  0  0  # atno 6909 bound_to 6896
  146.2397  139.9715  142.8446 H   0  0  0  0  0  0  0  0  0  0  0  0  # atno 7974 bound_to 7965
  155.4142  140.3443  155.4266 H   0  0  0  0  0  0  0  0  0  0  0  0  # atno 8008 bound_to 7997
  156.1431  140.1548  156.8921 H   0  0  0  0  0  0  0  0  0  0  0  0  # atno 8009 bound_to 7997
  154.4988  140.0820  156.7734 H   0  0  0  0  0  0  0  0  0  0  0  0  # atno 8010 bound_to 7997
  140.5704  143.9172  150.6708 H   0  0  0  0  0  0  0  0  0  0  0  0  # atno 10167 bound_to 10162
  157.1660  131.0598  151.2208 H   0  0  0  0  0  0  0  0  0  0  0  0  # atno 10718 bound_to 10713
  153.2009  135.4422  155.0265 H   0  0  0  0  0  0  0  0  0  0  0  0  # atno 10763 bound_to 10752
  154.8146  135.3309  154.7213 H   0  0  0  0  0  0  0  0  0  0  0  0  # atno 10764 bound_to 10752
  153.7659  135.6988  153.4971 H   0  0  0  0  0  0  0  0  0  0  0  0  # atno 10765 bound_to 10752
  139.9692  134.6929  156.0482 H   0  0  0  0  0  0  0  0  0  0  0  0  # atno 11005 bound_to 11000
  145.1677  140.9705  143.4340 LP  0  0  0  0  0  0  0  0  0  0  0  0  # atno 17320 bound_to 7965
  145.0058  139.3556  143.6145 LP  0  0  0  0  0  0  0  0  0  0  0  0  # atno 17321 bound_to 7965
  140.2646  143.3499  152.1293 LP  0  0  0  0  0  0  0  0  0  0  0  0  # atno 17342 bound_to 10162
  139.5114  144.6901  151.5783 LP  0  0  0  0  0  0  0  0  0  0  0  0  # atno 17343 bound_to 10162
  157.4088  130.7374  149.6823 LP  0  0  0  0  0  0  0  0  0  0  0  0  # atno 17370 bound_to 10713
  155.9746  130.4101  150.3912 LP  0  0  0  0  0  0  0  0  0  0  0  0  # atno 17371 bound_to 10713
  141.1372  133.6572  156.3626 LP  0  0  0  0  0  0  0  0  0  0  0  0  # atno 17394 bound_to 11000
  140.5330  134.6194  157.5356 LP  0  0  0  0  0  0  0  0  0  0  0  0  # atno 17395 bound_to 11000

$$$$
