AV-unprocessed.smi:21|AV-procd|sdf|123|dock6
  -GOLD-   2262015303D 1   1.00000     0.00000
 Structure written by MMmdl.
 62 65  0  0  0  0  0  0  0  0  2 V2000
  144.6541  132.9195  149.8085 C   0  0  0  0  0  0  0  0  0  0  0  0
  145.0741  133.1386  151.1463 O   0  0  0  0  0  0  0  0  0  0  0  0
  144.7009  134.4107  151.6581 C   0  0  1  0  0  0  0  0  0  0  0  0
  144.8753  134.4149  153.1809 C   0  0  0  0  0  0  0  0  0  0  0  0
  146.1693  135.1958  153.4196 C   0  0  2  0  0  0  0  0  0  0  0  0
  146.3343  135.7767  154.8438 C   0  0  0  0  0  0  0  0  0  0  0  0
  147.6720  136.3105  155.0879 N   0  0  0  0  0  0  0  0  0  0  0  0
  148.8238  135.4938  154.7073 C   0  0  0  0  0  0  0  0  0  0  0  0
  147.8743  137.5935  155.5143 C   0  0  0  0  0  0  0  0  0  0  0  0
  146.8243  138.2425  156.0876 N   0  0  0  0  0  0  0  0  0  0  0  0
  146.9418  139.4980  156.5246 C   0  0  0  0  0  0  0  0  0  0  0  0
  148.0103  140.2919  156.4920 N   0  0  0  0  0  0  0  0  0  0  0  0
  149.0754  139.6605  155.9243 C   0  0  0  0  0  0  0  0  0  0  0  0
  149.0998  138.3283  155.4123 C   0  0  0  0  0  0  0  0  0  0  0  0
  150.3747  138.0561  154.9206 N   0  0  0  0  0  0  0  0  0  0  0  0
  151.0530  139.1505  155.1271 C   0  0  0  0  0  0  0  0  0  0  0  0
  150.3502  140.1638  155.7317 N   0  0  0  0  0  0  0  0  0  0  0  0
  150.8587  141.4798  156.0799 C   0  0  0  0  0  0  0  0  0  0  0  0
  151.7166  141.4796  157.3697 C   0  0  2  0  0  0  0  0  0  0  0  0
  151.6899  140.1169  158.1047 C   0  0  0  0  0  0  0  0  0  0  0  0
  152.7031  139.2542  157.6304 O   0  0  0  0  0  0  0  0  0  0  0  0
  151.3426  142.6567  158.3059 C   0  0  2  0  0  0  0  0  0  0  0  0
  151.5376  144.0380  157.7054 C   0  0  0  0  0  0  0  0  0  0  0  0
  151.5524  144.9271  158.9440 C   0  0  0  0  0  0  0  0  0  0  0  0
  152.1336  144.1387  159.9758 O   0  0  0  0  0  0  0  0  0  0  0  0
  152.2097  142.7776  159.5637 C   0  0  0  0  0  0  0  0  0  0  0  0
  146.2031  136.2006  152.3300 N   0  3  2  0  0  0  0  0  0  0  0  0
  145.5130  137.4826  152.6160 C   0  0  0  0  0  0  0  0  0  0  0  0
  145.6478  135.5140  151.1429 C   0  0  0  0  0  0  0  0  0  0  0  0
  143.6595  134.6303  151.4156 H   0  0  0  0  0  0  0  0  0  0  0  0
  146.9997  134.5177  153.2178 H   0  0  0  0  0  0  0  0  0  0  0  0
  144.9714  131.9282  149.4850 H   0  0  0  0  0  0  0  0  0  0  0  0
  145.0890  133.6486  149.1243 H   0  0  0  0  0  0  0  0  0  0  0  0
  143.5676  132.9667  149.7241 H   0  0  0  0  0  0  0  0  0  0  0  0
  144.0361  134.9394  153.6397 H   0  0  0  0  0  0  0  0  0  0  0  0
  144.9058  133.4116  153.6072 H   0  0  0  0  0  0  0  0  0  0  0  0
  145.5896  136.5447  155.0458 H   0  0  0  0  0  0  0  0  0  0  0  0
  146.1383  134.9993  155.5830 H   0  0  0  0  0  0  0  0  0  0  0  0
  149.4749  135.3224  155.5653 H   0  0  0  0  0  0  0  0  0  0  0  0
  149.4031  135.9837  153.9235 H   0  0  0  0  0  0  0  0  0  0  0  0
  148.5134  134.5193  154.3300 H   0  0  0  0  0  0  0  0  0  0  0  0
  146.0530  139.9277  156.9628 H   0  0  0  0  0  0  0  0  0  0  0  0
  152.0918  139.2489  154.8469 H   0  0  0  0  0  0  0  0  0  0  0  0
  151.4415  141.8392  155.2318 H   0  0  0  0  0  0  0  0  0  0  0  0
  150.0169  142.1652  156.1842 H   0  0  0  0  0  0  0  0  0  0  0  0
  152.7503  141.6364  157.0582 H   0  0  0  0  0  0  0  0  0  0  0  0
  151.8153  140.2468  159.1794 H   0  0  0  0  0  0  0  0  0  0  0  0
  150.7262  139.6251  157.9749 H   0  0  0  0  0  0  0  0  0  0  0  0
  152.7617  138.5099  158.2097 H   0  0  0  0  0  0  0  0  0  0  0  0
  150.2992  142.5630  158.6123 H   0  0  0  0  0  0  0  0  0  0  0  0
  152.4970  144.0994  157.1896 H   0  0  0  0  0  0  0  0  0  0  0  0
  150.7526  144.3192  157.0027 H   0  0  0  0  0  0  0  0  0  0  0  0
  152.1070  145.8527  158.7880 H   0  0  0  0  0  0  0  0  0  0  0  0
  150.5345  145.1863  159.2375 H   0  0  0  0  0  0  0  0  0  0  0  0
  151.8824  142.1097  160.3610 H   0  0  0  0  0  0  0  0  0  0  0  0
  153.2524  142.5489  159.3391 H   0  0  0  0  0  0  0  0  0  0  0  0
  144.4665  137.3219  152.8781 H   0  0  0  0  0  0  0  0  0  0  0  0
  145.5465  138.1341  151.7420 H   0  0  0  0  0  0  0  0  0  0  0  0
  145.9957  138.0212  153.4314 H   0  0  0  0  0  0  0  0  0  0  0  0
  146.4859  135.0692  150.6050 H   0  0  0  0  0  0  0  0  0  0  0  0
  145.1513  136.1953  150.4505 H   0  0  0  0  0  0  0  0  0  0  0  0
  147.1686  136.4313  152.1421 H   0  0  0  0  0  0  0  0  0  0  0  0
  1  2  1  0  0  0  0
  1 32  1  0  0  0  0
  1 33  1  0  0  0  0
  1 34  1  0  0  0  0
  2  3  1  0  0  0  0
  3 30  1  0  0  0  0
  3 29  1  0  0  0  0
  3  4  1  0  0  0  0
  4  5  1  0  0  0  0
  4 35  1  0  0  0  0
  4 36  1  0  0  0  0
  5 31  1  0  0  0  0
  5  6  1  0  0  0  0
  5 27  1  0  0  0  0
  6  7  1  0  0  0  0
  6 37  1  0  0  0  0
  6 38  1  0  0  0  0
  7  8  1  0  0  0  0
  7  9  1  0  0  0  0
  8 39  1  0  0  0  0
  8 40  1  0  0  0  0
  8 41  1  0  0  0  0
  9 14  1  0  0  0  0
  9 10  2  0  0  0  0
 10 11  1  0  0  0  0
 11 12  2  0  0  0  0
 11 42  1  0  0  0  0
 12 13  1  0  0  0  0
 13 17  1  0  0  0  0
 13 14  2  0  0  0  0
 14 15  1  0  0  0  0
 15 16  2  0  0  0  0
 16 17  1  0  0  0  0
 16 43  1  0  0  0  0
 17 18  1  0  0  0  0
 18 19  1  0  0  0  0
 18 44  1  0  0  0  0
 18 45  1  0  0  0  0
 19 20  1  0  0  0  0
 19 22  1  0  0  0  0
 19 46  1  0  0  0  0
 20 21  1  0  0  0  0
 20 47  1  0  0  0  0
 20 48  1  0  0  0  0
 21 49  1  0  0  0  0
 22 26  1  0  0  0  0
 22 23  1  0  0  0  0
 22 50  1  0  0  0  0
 23 24  1  0  0  0  0
 23 51  1  0  0  0  0
 23 52  1  0  0  0  0
 24 25  1  0  0  0  0
 24 53  1  0  0  0  0
 24 54  1  0  0  0  0
 25 26  1  0  0  0  0
 26 55  1  0  0  0  0
 26 56  1  0  0  0  0
 27 28  1  0  0  0  0
 27 29  1  0  0  0  0
 27 62  1  0  0  0  0
 28 57  1  0  0  0  0
 28 58  1  0  0  0  0
 28 59  1  0  0  0  0
 29 60  1  0  0  0  0
 29 61  1  0  0  0  0
M  CHG  1  27   1
M  END
> <s_m_source_file>
AV-unprocessed.smi

> <i_m_source_file_index>
21

> <i_lp_mmshare_version>
43012

> <i_f3d_flags>
0

> <s_epik_input>
W0NIM11PW0NASF0xW0NIMl1bQ0BIXShOKFtDSDNdKVtDSDJdMSlbQ0gyXU4oW0NIM10pYyhuW2NIXW4yKWMoYzIzKW5bY0hdbjNbQ0gyXVtDQEhdKFtDSDJdW09IXSlbQ0BASF00W0NIMl1bQ0gyXU9bQ0gyXTQ=

> <s_epik_cmdline>
J2VwaWtfcHl0aG9uJywgJy1waCcsICc3LjAnLCAnLXRuJywgJzgnLCAnLW1hJywgJzIwMCcsICctbWV0YWxfYmluZGluZycsICctaW1hZScsICc8aW5maWxlLm1hZT4nLCAnLW9tYWUnLCAnPG91dGZpbGUubWFlPic=

> <r_lp_tautomer_probability>
1

> <r_epik_Ionization_Penalty>
0.0157465

> <r_epik_Ionization_Penalty_Charging>
0.015354

> <r_epik_Ionization_Penalty_Neutral>
0.000392529

> <r_epik_State_Penalty>
0.0120612

> <r_epik_Charging_Adjusted_Penalty>
0.0274152

> <i_epik_Tot_Q>
1

> <i_epik_Tot_abs_Q>
1

> <r_epik_Metal_State_Penalty>
0.0121253

> <b_epik_Metal_Only>
0

> <s_lp_Force_Field>
OPLS_2005

> <r_lp_Energy>
63.0646

> <b_lp_Chiralities_Consistent>
1

> <s_lp_Variant>
AV-unprocessed.smi:21-3

> <Gold.Version>
5.8.1

> <Gold.Id.Protein>
6NUR|6NUR_protein|mol2

> <Gold.PLP.Fitness>
45.5299

> <Gold.PLP.PLP>
-39.6302

> <Gold.PLP.part.hbond>
-1.9925

> <Gold.PLP.part.metal>
0.0000

> <Gold.PLP.part.buried>
-6.0840

> <Gold.PLP.part.nonpolar>
-31.8531

> <Gold.PLP.part.repulsive>
0.3287

> <Gold.PLP.ligand.clash>
0.0000

> <Gold.PLP.ligand.torsion>
1.7359

> <Gold.PLP.Chemscore.Hbond>
3.0000

> <Gold.PLP.Chemscore.CHOScore>
0.0000

> <Gold.PLP.Chemscore.Metal>
0.0000

> <Gold.Chemscore.Hbonds>
donor molecule, donor type, donor heavy atom, donor atom, acceptor molecule, acceptor atom, score
      L1  H    27    62       P1  7948  2.00
      P1  H  7997  8009       L1    21  0.86

> <Gold.PLP.Chemscore.Internal.Correction>
0.3716

> <Gold.Rescore>
     Score         DG    S(hbond)    S(metal)    S(lipo)     H(rot)  DE(clash)    DE(int)     intcor
     12.66     -16.30       1.99        0.00     102.99       3.08       0.63       3.01       ----

> <Gold.Chemscore.Fitness>
12.6637

> <Gold.Chemscore.DG>
-16.3036

> <Gold.Chemscore.ZeroCoef>
-5.4800

> <Gold.Chemscore.Hbond>
1.9904

> <Gold.Chemscore.Metal>
0.0000

> <Gold.Chemscore.Lipo>
102.9895

> <Gold.Chemscore.Internal_Hbond>
0.0000

> <Gold.Chemscore.DEClash>
0.6325

> <Gold.Chemscore.DEInternal>
3.0075

> <Gold.Chemscore.Rot>
3.0758

> <Gold.Chemscore.Internal.Correction>
   9.000000E+99

> <Gold.Chemscore.Hbonds>
donor molecule, donor type, donor heavy atom, donor atom, acceptor molecule, acceptor atom, score
      L1  H    27    62       P1  7948  1.00
      P1  H  7997  8009       L1    21  0.79

> <Gold.Chemscore.Hbond.Weighted>
-6.6480

> <Gold.Chemscore.Metal.Weighted>
-0.0000

> <Gold.Chemscore.Lipo.Weighted>
-12.0498

> <Gold.Chemscore.Internal_Hbond.Weighted>
0.0000

> <Gold.Chemscore.DEClash.Weighted>
0.6325

> <Gold.Chemscore.DEInternal.Weighted>
3.0075

> <Gold.Chemscore.Rot.Weighted>
7.8741

> <Gold.Chemscore.Internal.Correction.Weighted>
   9.000000E+99

> <Gold.Protein.RotatedTorsions>
[ 6907 6896 6895 6894 ] final   82.45 input  -60.11 | X-H torsion
[ 7974 7965 7964 7962 ] final  -13.47 input  175.53 | X-H torsion
[ 8008 7997 7996 7995 ] final  169.28 input   59.86 | X-H torsion
[ 10167 10162 10161 10158 ] final -111.74 input  -65.29 | X-H torsion
[ 10718 10713 10712 10709 ] final  146.24 input   66.30 | X-H torsion
[ 10763 10752 10751 10750 ] final  131.32 input  -60.55 | X-H torsion
[ 11005 11000 10999 10996 ] final    7.20 input  -57.11 | X-H torsion

> <Gold.Protein.ActiveResidues>
 VAL166  LYS551  ARG553  GLY616  TRP617  ASP618  TYR619  PRO620  LYS621  CYS622 
 ASP623  PHE694  ASN695  SER759  ASP760  ASP761  ALA762  ILE779  LEU786  VAL792 
 PHE793  MET794  SER795  GLU796  ALA797  LYS798  CYS799  TRP800  GLU811  SER814 

> <Gold.Protein.RotatedAtoms>
  152.5299  134.3048  159.9091 H   0  0  0  0  0  0  0  0  0  0  0  0  # atno 6907 bound_to 6896
  151.2998  133.4121  159.2646 H   0  0  0  0  0  0  0  0  0  0  0  0  # atno 6908 bound_to 6896
  151.0129  134.9427  159.8074 H   0  0  0  0  0  0  0  0  0  0  0  0  # atno 6909 bound_to 6896
  146.2113  140.3208  142.8390 H   0  0  0  0  0  0  0  0  0  0  0  0  # atno 7974 bound_to 7965
  156.1472  140.1568  156.8828 H   0  0  0  0  0  0  0  0  0  0  0  0  # atno 8008 bound_to 7997
  154.5038  140.0818  156.7891 H   0  0  0  0  0  0  0  0  0  0  0  0  # atno 8009 bound_to 7997
  155.3966  140.3412  155.4256 H   0  0  0  0  0  0  0  0  0  0  0  0  # atno 8010 bound_to 7997
  140.1303  143.4366  152.1632 H   0  0  0  0  0  0  0  0  0  0  0  0  # atno 10167 bound_to 10162
  157.3356  131.0927  151.1125 H   0  0  0  0  0  0  0  0  0  0  0  0  # atno 10718 bound_to 10713
  153.7724  135.3180  155.3354 H   0  0  0  0  0  0  0  0  0  0  0  0  # atno 10763 bound_to 10752
  154.8191  135.4615  154.0731 H   0  0  0  0  0  0  0  0  0  0  0  0  # atno 10764 bound_to 10752
  153.1994  135.6920  153.8334 H   0  0  0  0  0  0  0  0  0  0  0  0  # atno 10765 bound_to 10752
  140.5509  134.0284  155.7936 H   0  0  0  0  0  0  0  0  0  0  0  0  # atno 11005 bound_to 11000
  144.8921  140.7537  143.5920 LP  0  0  0  0  0  0  0  0  0  0  0  0  # atno 17320 bound_to 7965
  145.3131  139.1812  143.4628 LP  0  0  0  0  0  0  0  0  0  0  0  0  # atno 17321 bound_to 7965
  139.5523  144.7347  151.4398 LP  0  0  0  0  0  0  0  0  0  0  0  0  # atno 17342 bound_to 10162
  140.6821  143.8059  150.7135 LP  0  0  0  0  0  0  0  0  0  0  0  0  # atno 17343 bound_to 10162
  157.2357  130.6546  149.5868 LP  0  0  0  0  0  0  0  0  0  0  0  0  # atno 17370 bound_to 10713
  155.9701  130.4584  150.5999 LP  0  0  0  0  0  0  0  0  0  0  0  0  # atno 17371 bound_to 10713
  141.1172  133.9521  157.2800 LP  0  0  0  0  0  0  0  0  0  0  0  0  # atno 17394 bound_to 11000
  139.9456  135.0184  156.8840 LP  0  0  0  0  0  0  0  0  0  0  0  0  # atno 17395 bound_to 11000

$$$$
