AV-unprocessed.smi:157|AV-procd|sdf|1294|dock5
  -GOLD-   2262018573D 1   1.00000     0.00000
 Structure written by MMmdl.
 35 37  0  0  0  0  0  0  0  0  1 V2000
  156.6509  139.0566  160.6169 O   0  0  0  0  0  0  0  0  0  0  0  0
  155.4290  138.3512  160.6890 C   0  0  0  0  0  0  0  0  0  0  0  0
  154.7045  138.3681  159.3268 C   0  0  2  0  0  0  0  0  0  0  0  0
  154.4777  139.7375  158.9865 O   0  0  0  0  0  0  0  0  0  0  0  0
  153.1121  140.0334  159.0112 C   0  0  2  0  0  0  0  0  0  0  0  0
  152.9032  141.3049  159.7723 N   0  0  0  0  0  0  0  0  0  0  0  0
  153.2249  141.5308  161.0532 C   0  0  0  0  0  0  0  0  0  0  0  0
  152.9310  142.7451  161.4867 N   0  0  0  0  0  0  0  0  0  0  0  0
  152.3511  143.3658  160.3816 C   0  0  0  0  0  0  0  0  0  0  0  0
  152.3150  142.4853  159.3098 C   0  0  0  0  0  0  0  0  0  0  0  0
  151.8715  142.5258  158.0015 N   0  0  0  0  0  0  0  0  0  0  0  0
  151.0279  143.4533  157.6744 C   0  0  0  0  0  0  0  0  0  0  0  0
  150.5368  144.5189  158.4152 N   0  0  0  0  0  0  0  0  0  0  0  0
  151.3859  145.4149  159.1815 C   0  0  0  0  0  0  0  0  0  0  0  0
  151.9101  144.7977  160.4840 C   0  0  1  0  0  0  0  0  0  0  0  0
  150.8944  144.8492  161.4649 O   0  0  0  0  0  0  0  0  0  0  0  0
  152.4157  138.8751  159.7165 C   0  0  0  0  0  0  0  0  0  0  0  0
  153.3049  137.7264  159.2986 C   0  0  2  0  0  0  0  0  0  0  0  0
  153.1447  136.6092  160.1491 O   0  0  0  0  0  0  0  0  0  0  0  0
  155.3480  137.9231  158.5665 H   0  0  0  0  0  0  0  0  0  0  0  0
  152.7511  140.2188  157.9989 H   0  0  0  0  0  0  0  0  0  0  0  0
  152.7332  145.4122  160.8497 H   0  0  0  0  0  0  0  0  0  0  0  0
  153.0604  137.4332  158.2767 H   0  0  0  0  0  0  0  0  0  0  0  0
  157.3530  138.4645  160.8392 H   0  0  0  0  0  0  0  0  0  0  0  0
  155.6017  137.3338  161.0409 H   0  0  0  0  0  0  0  0  0  0  0  0
  154.8128  138.8459  161.4404 H   0  0  0  0  0  0  0  0  0  0  0  0
  153.6893  140.7881  161.6851 H   0  0  0  0  0  0  0  0  0  0  0  0
  150.6140  143.4442  156.6651 H   0  0  0  0  0  0  0  0  0  0  0  0
  149.7094  144.9936  158.0840 H   0  0  0  0  0  0  0  0  0  0  0  0
  152.2362  145.6741  158.5490 H   0  0  0  0  0  0  0  0  0  0  0  0
  150.8588  146.3486  159.3791 H   0  0  0  0  0  0  0  0  0  0  0  0
  151.2219  144.4371  162.2500 H   0  0  0  0  0  0  0  0  0  0  0  0
  152.4455  139.0261  160.7970 H   0  0  0  0  0  0  0  0  0  0  0  0
  151.3788  138.7783  159.3934 H   0  0  0  0  0  0  0  0  0  0  0  0
  153.0170  136.9215  161.0321 H   0  0  0  0  0  0  0  0  0  0  0  0
  1  2  1  0  0  0  0
  1 24  1  0  0  0  0
  2  3  1  0  0  0  0
  2 25  1  0  0  0  0
  2 26  1  0  0  0  0
  3 20  1  0  0  0  0
  3 18  1  0  0  0  0
  3  4  1  0  0  0  0
  4  5  1  0  0  0  0
  5 21  1  0  0  0  0
  5  6  1  0  0  0  0
  5 17  1  0  0  0  0
  6 10  1  0  0  0  0
  6  7  1  0  0  0  0
  7  8  2  0  0  0  0
  7 27  1  0  0  0  0
  8  9  1  0  0  0  0
  9 15  1  0  0  0  0
  9 10  2  0  0  0  0
 10 11  1  0  0  0  0
 11 12  2  0  0  0  0
 12 13  1  0  0  0  0
 12 28  1  0  0  0  0
 13 14  1  0  0  0  0
 13 29  1  0  0  0  0
 14 15  1  0  0  0  0
 14 30  1  0  0  0  0
 14 31  1  0  0  0  0
 15 22  1  0  0  0  0
 15 16  1  0  0  0  0
 16 32  1  0  0  0  0
 17 18  1  0  0  0  0
 17 33  1  0  0  0  0
 17 34  1  0  0  0  0
 18 23  1  0  0  0  0
 18 19  1  0  0  0  0
 19 35  1  0  0  0  0
M  END
> <s_m_source_file>
AV-unprocessed.smi

> <i_m_source_file_index>
157

> <i_lp_mmshare_version>
43012

> <i_f3d_flags>
0

> <s_epik_input>
W09IXVtDSDJdW0NASF0xT1tDQEhdKFtDSDJdW0NAQEhdMVtPSF0pbihbY0hdbjIpYyhjMjMpTj1bQ0hdW05IXVtDSDJdW0NASF0zW09IXQ==

> <s_epik_cmdline>
J2VwaWtfcHl0aG9uJywgJy1waCcsICc3LjAnLCAnLXRuJywgJzgnLCAnLW1hJywgJzIwMCcsICctbWV0YWxfYmluZGluZycsICctaW1hZScsICc8aW5maWxlLm1hZT4nLCAnLW9tYWUnLCAnPG91dGZpbGUubWFlPic=

> <r_lp_tautomer_probability>
1

> <r_epik_Ionization_Penalty>
0.0357149

> <r_epik_Ionization_Penalty_Charging>
0.0355056

> <r_epik_Ionization_Penalty_Neutral>
0.000209255

> <r_epik_State_Penalty>
0.0296046

> <r_epik_Charging_Adjusted_Penalty>
0.0651102

> <i_epik_Tot_Q>
0

> <i_epik_Tot_abs_Q>
0

> <r_epik_Metal_State_Penalty>
3.03559e-05

> <b_epik_Metal_Only>
0

> <s_epik_Chemistry_Notes>
This compound has an imine and may undergo hydrolysis. This compound contains an acetal/aminal-like group ( X-CH(R)-Y where X, Y are N, S, or O) that may be acid/base labile, releasing an aldehyde.

> <s_lp_Force_Field>
OPLS_2005

> <r_lp_Energy>
46.7001

> <b_lp_Chiralities_Consistent>
1

> <s_lp_Variant>
AV-unprocessed.smi:157-4

> <Gold.Version>
5.8.1

> <Gold.Id.Protein>
6NUR|6NUR_protein|mol2

> <Gold.PLP.Fitness>
45.1509

> <Gold.PLP.PLP>
-34.7744

> <Gold.PLP.part.hbond>
-4.0601

> <Gold.PLP.part.metal>
0.0000

> <Gold.PLP.part.buried>
-4.4241

> <Gold.PLP.part.nonpolar>
-26.0075

> <Gold.PLP.part.repulsive>
0.1833

> <Gold.PLP.ligand.clash>
0.0000

> <Gold.PLP.ligand.torsion>
0.0129

> <Gold.PLP.Chemscore.Hbond>
2.4631

> <Gold.PLP.Chemscore.CHOScore>
1.0000

> <Gold.PLP.Chemscore.Metal>
0.0000

> <Gold.Chemscore.Hbonds>
donor molecule, donor type, donor heavy atom, donor atom, acceptor molecule, acceptor atom, score
      L1  H    13    29       P1  8029  0.51
      P1  H  6896  6909       L1    19  1.00
      P1  H  7997  8008       L1     4  1.00
      L1  C    12    28       P1  8028  1.00

> <Gold.PLP.Chemscore.Internal.Correction>
0.0131

> <Gold.Rescore>
     Score         DG    S(hbond)    S(metal)    S(lipo)     H(rot)  DE(clash)    DE(int)     intcor
      8.11      -8.39       1.82        0.00      52.63       3.64       0.27       0.02       ----

> <Gold.Chemscore.Fitness>
8.1064

> <Gold.Chemscore.DG>
-8.3947

> <Gold.Chemscore.ZeroCoef>
-5.4800

> <Gold.Chemscore.Hbond>
1.8159

> <Gold.Chemscore.Metal>
0.0000

> <Gold.Chemscore.Lipo>
52.6338

> <Gold.Chemscore.Internal_Hbond>
0.0000

> <Gold.Chemscore.DEClash>
0.2687

> <Gold.Chemscore.DEInternal>
0.0195

> <Gold.Chemscore.Rot>
3.6362

> <Gold.Chemscore.Internal.Correction>
   9.000000E+99

> <Gold.Chemscore.Hbonds>
donor molecule, donor type, donor heavy atom, donor atom, acceptor molecule, acceptor atom, score
      L1  H    13    29       P1  8029  0.09
      P1  H  6896  6909       L1    19  0.45
      P1  H  7997  8008       L1     4  0.33

> <Gold.Chemscore.Hbond.Weighted>
-6.0652

> <Gold.Chemscore.Metal.Weighted>
-0.0000

> <Gold.Chemscore.Lipo.Weighted>
-6.1582

> <Gold.Chemscore.Internal_Hbond.Weighted>
0.0000

> <Gold.Chemscore.DEClash.Weighted>
0.2687

> <Gold.Chemscore.DEInternal.Weighted>
0.0195

> <Gold.Chemscore.Rot.Weighted>
9.3087

> <Gold.Chemscore.Internal.Correction.Weighted>
   9.000000E+99

> <Gold.Protein.RotatedTorsions>
[ 6907 6896 6895 6894 ] final  150.54 input  -60.11 | X-H torsion
[ 7974 7965 7964 7962 ] final  105.64 input  175.53 | X-H torsion
[ 8008 7997 7996 7995 ] final -110.30 input   59.86 | X-H torsion
[ 10167 10162 10161 10158 ] final   96.36 input  -65.29 | X-H torsion
[ 10718 10713 10712 10709 ] final  132.12 input   66.30 | X-H torsion
[ 10763 10752 10751 10750 ] final  176.64 input  -60.55 | X-H torsion
[ 11005 11000 10999 10996 ] final   73.26 input  -57.11 | X-H torsion

> <Gold.Protein.ActiveResidues>
 VAL166  LYS551  ARG553  GLY616  TRP617  ASP618  TYR619  PRO620  LYS621  CYS622 
 ASP623  PHE694  ASN695  SER759  ASP760  ASP761  ALA762  ILE779  LEU786  VAL792 
 PHE793  MET794  SER795  GLU796  ALA797  LYS798  CYS799  TRP800  GLU811  SER814 

> <Gold.Protein.RotatedAtoms>
  152.1129  133.4311  159.4639 H   0  0  0  0  0  0  0  0  0  0  0  0  # atno 6907 bound_to 6896
  150.6868  134.2626  159.4565 H   0  0  0  0  0  0  0  0  0  0  0  0  # atno 6908 bound_to 6896
  152.0496  134.9661  160.0625 H   0  0  0  0  0  0  0  0  0  0  0  0  # atno 6909 bound_to 6896
  145.3170  139.2523  143.3732 H   0  0  0  0  0  0  0  0  0  0  0  0  # atno 7974 bound_to 7965
  154.9725  140.0397  157.2241 H   0  0  0  0  0  0  0  0  0  0  0  0  # atno 8008 bound_to 7997
  154.7788  140.2815  155.6057 H   0  0  0  0  0  0  0  0  0  0  0  0  # atno 8009 bound_to 7997
  156.2933  140.2595  156.2609 H   0  0  0  0  0  0  0  0  0  0  0  0  # atno 8010 bound_to 7997
  139.7901  144.6855  150.9904 H   0  0  0  0  0  0  0  0  0  0  0  0  # atno 10167 bound_to 10162
  157.4902  131.1090  150.9567 H   0  0  0  0  0  0  0  0  0  0  0  0  # atno 10718 bound_to 10713
  154.4838  135.2776  155.1550 H   0  0  0  0  0  0  0  0  0  0  0  0  # atno 10763 bound_to 10752
  154.3249  135.6202  153.5528 H   0  0  0  0  0  0  0  0  0  0  0  0  # atno 10764 bound_to 10752
  152.9879  135.5751  154.5245 H   0  0  0  0  0  0  0  0  0  0  0  0  # atno 10765 bound_to 10752
  139.9449  134.7332  156.1005 H   0  0  0  0  0  0  0  0  0  0  0  0  # atno 11005 bound_to 11000
  146.3096  140.3719  142.8675 LP  0  0  0  0  0  0  0  0  0  0  0  0  # atno 17320 bound_to 7965
  144.8970  140.7595  143.5891 LP  0  0  0  0  0  0  0  0  0  0  0  0  # atno 17321 bound_to 7965
  140.7820  143.4390  151.0580 LP  0  0  0  0  0  0  0  0  0  0  0  0  # atno 17342 bound_to 10162
  139.8067  143.8008  152.3168 LP  0  0  0  0  0  0  0  0  0  0  0  0  # atno 17343 bound_to 10162
  157.0271  130.5697  149.5338 LP  0  0  0  0  0  0  0  0  0  0  0  0  # atno 17370 bound_to 10713
  156.0169  130.5263  150.8161 LP  0  0  0  0  0  0  0  0  0  0  0  0  # atno 17371 bound_to 10713
  141.1096  133.6648  156.2946 LP  0  0  0  0  0  0  0  0  0  0  0  0  # atno 17394 bound_to 11000
  140.5860  134.5698  157.5489 LP  0  0  0  0  0  0  0  0  0  0  0  0  # atno 17395 bound_to 11000

$$$$
