AV-unprocessed.smi:2564|AV-procd|sdf|10064|dock3
  -GOLD-   2272014103D 1   1.00000     0.00000
 Structure written by MMmdl.
 30 31  0  0  0  0  0  0  0  0  3 V2000
  152.5206  142.0579  158.9147 C   0  0  0  0  0  0  0  0  0  0  0  0
  152.7535  143.4432  158.9777 C   0  0  0  0  0  0  0  0  0  0  0  0
  152.0135  144.3496  158.3013 N   0  0  0  0  0  0  0  0  0  0  0  0
  151.0077  143.8915  157.5350 N   0  3  0  0  0  0  0  0  0  0  0  0
  150.6999  142.5765  157.4059 C   0  0  0  0  0  0  0  0  0  0  0  0
  149.6211  142.2689  156.5662 N   0  0  0  0  0  0  0  0  0  0  0  0
  149.2125  140.8872  156.3620 C   0  0  0  0  0  0  0  0  0  0  0  0
  150.0472  140.2051  155.2677 C   0  0  2  0  0  0  0  0  0  0  0  0
  149.2392  139.1216  154.5247 C   0  0  0  0  0  0  0  0  0  0  0  0
  150.0963  138.4276  153.5431 N   0  3  0  0  0  0  0  0  0  0  0  0
  151.3100  137.8756  154.1758 C   0  0  0  0  0  0  0  0  0  0  0  0
  152.0544  138.9819  154.9416 C   0  0  0  0  0  0  0  0  0  0  0  0
  151.1726  139.5835  155.8849 O   0  0  0  0  0  0  0  0  0  0  0  0
  151.4625  141.6119  158.1046 C   0  0  0  0  0  0  0  0  0  0  0  0
  153.1337  141.3632  159.4697 H   0  0  0  0  0  0  0  0  0  0  0  0
  153.5542  143.8366  159.5866 H   0  0  0  0  0  0  0  0  0  0  0  0
  149.2390  142.9825  155.9619 H   0  0  0  0  0  0  0  0  0  0  0  0
  149.2975  140.3348  157.2988 H   0  0  0  0  0  0  0  0  0  0  0  0
  148.1605  140.8775  156.0740 H   0  0  0  0  0  0  0  0  0  0  0  0
  150.3877  140.9579  154.5536 H   0  0  0  0  0  0  0  0  0  0  0  0
  148.8414  138.3904  155.2301 H   0  0  0  0  0  0  0  0  0  0  0  0
  148.3884  139.5626  154.0044 H   0  0  0  0  0  0  0  0  0  0  0  0
  149.5746  137.6794  153.1085 H   0  0  0  0  0  0  0  0  0  0  0  0
  151.0257  137.0719  154.8562 H   0  0  0  0  0  0  0  0  0  0  0  0
  151.9513  137.4381  153.4106 H   0  0  0  0  0  0  0  0  0  0  0  0
  152.9091  138.5621  155.4724 H   0  0  0  0  0  0  0  0  0  0  0  0
  152.4440  139.7374  154.2573 H   0  0  0  0  0  0  0  0  0  0  0  0
  151.2532  140.5550  158.0326 H   0  0  0  0  0  0  0  0  0  0  0  0
  150.3759  139.0889  152.8322 H   0  0  0  0  0  0  0  0  0  0  0  0
  150.4456  144.5708  157.0219 H   0  0  0  0  0  0  0  0  0  0  0  0
  1 14  1  0  0  0  0
  1  2  2  0  0  0  0
  1 15  1  0  0  0  0
  2  3  1  0  0  0  0
  2 16  1  0  0  0  0
  3  4  2  0  0  0  0
  4  5  1  0  0  0  0
  4 30  1  0  0  0  0
  5  6  1  0  0  0  0
  5 14  2  0  0  0  0
  6  7  1  0  0  0  0
  6 17  1  0  0  0  0
  7  8  1  0  0  0  0
  7 18  1  0  0  0  0
  7 19  1  0  0  0  0
  8 13  1  0  0  0  0
  8  9  1  0  0  0  0
  8 20  1  0  0  0  0
  9 10  1  0  0  0  0
  9 21  1  0  0  0  0
  9 22  1  0  0  0  0
 10 11  1  0  0  0  0
 10 23  1  0  0  0  0
 10 29  1  0  0  0  0
 11 12  1  0  0  0  0
 11 24  1  0  0  0  0
 11 25  1  0  0  0  0
 12 13  1  0  0  0  0
 12 26  1  0  0  0  0
 12 27  1  0  0  0  0
 14 28  1  0  0  0  0
M  CHG  1   4   1
M  CHG  1  10   1
M  END
> <s_m_source_file>
AV-unprocessed.smi

> <i_m_source_file_index>
2564

> <i_lp_mmshare_version>
43012

> <i_f3d_flags>
0

> <s_epik_input>
W2NIXTFbY0hdW2NIXW5uYzFbTkhdW0NIMl1bQ0BASF0yW0NIMl1bTkhdW0NIMl1bQ0gyXU8y

> <s_epik_cmdline>
J2VwaWtfcHl0aG9uJywgJy1waCcsICc3LjAnLCAnLXRuJywgJzgnLCAnLW1hJywgJzIwMCcsICctbWV0YWxfYmluZGluZycsICctaW1hZScsICc8aW5maWxlLm1hZT4nLCAnLW9tYWUnLCAnPG91dGZpbGUubWFlPic=

> <r_lp_tautomer_probability>
0.966961

> <r_epik_Ionization_Penalty>
2.43489

> <r_epik_Ionization_Penalty_Charging>
2.43489

> <r_epik_Ionization_Penalty_Neutral>
2.70443e-06

> <r_epik_State_Penalty>
1.93608

> <r_epik_Charging_Adjusted_Penalty>
4.37096

> <i_epik_Tot_Q>
2

> <i_epik_Tot_abs_Q>
2

> <r_epik_Metal_State_Penalty>
1.94389

> <b_epik_Metal_Only>
0

> <s_lp_Force_Field>
OPLS_2005

> <r_lp_Energy>
28.6288

> <b_lp_Chiralities_Consistent>
1

> <s_lp_Variant>
AV-unprocessed.smi:2564-3

> <Gold.Version>
5.8.1

> <Gold.Id.Protein>
6NUR|6NUR_protein|mol2

> <Gold.PLP.Fitness>
48.2558

> <Gold.PLP.PLP>
-29.5516

> <Gold.PLP.part.hbond>
-4.0000

> <Gold.PLP.part.metal>
0.0000

> <Gold.PLP.part.buried>
-4.9271

> <Gold.PLP.part.nonpolar>
-21.1253

> <Gold.PLP.part.repulsive>
0.2146

> <Gold.PLP.ligand.clash>
0.0000

> <Gold.PLP.ligand.torsion>
0.5601

> <Gold.PLP.Chemscore.Hbond>
6.6080

> <Gold.PLP.Chemscore.CHOScore>
0.0000

> <Gold.PLP.Chemscore.Metal>
0.0000

> <Gold.Chemscore.Hbonds>
donor molecule, donor type, donor heavy atom, donor atom, acceptor molecule, acceptor atom, score
      L1  H     4    30       P1  8028  1.72
      L1  H     6    17       P1  8028  1.98
      L1  H    10    23       P1  7948  2.00
      L1  H    10    29       P1  7957  0.77

> <Gold.PLP.Chemscore.Internal.Correction>
0.0003

> <Gold.Rescore>
     Score         DG    S(hbond)    S(metal)    S(lipo)     H(rot)  DE(clash)    DE(int)     intcor
     19.99     -20.58       3.35        0.00      62.97       1.35       0.01       0.58       ----

> <Gold.Chemscore.Fitness>
19.9879

> <Gold.Chemscore.DG>
-20.5787

> <Gold.Chemscore.ZeroCoef>
-5.4800

> <Gold.Chemscore.Hbond>
3.3474

> <Gold.Chemscore.Metal>
0.0000

> <Gold.Chemscore.Lipo>
62.9664

> <Gold.Chemscore.Internal_Hbond>
0.0000

> <Gold.Chemscore.DEClash>
0.0092

> <Gold.Chemscore.DEInternal>
0.5816

> <Gold.Chemscore.Rot>
1.3472

> <Gold.Chemscore.Internal.Correction>
   9.000000E+99

> <Gold.Chemscore.Hbonds>
donor molecule, donor type, donor heavy atom, donor atom, acceptor molecule, acceptor atom, score
      L1  H     4    30       P1  8028  0.59
      L1  H     6    17       P1  8028  0.93
      L1  H    10    23       P1  7948  0.81
      L1  H    10    29       P1  7957  0.40

> <Gold.Chemscore.Hbond.Weighted>
-11.1805

> <Gold.Chemscore.Metal.Weighted>
-0.0000

> <Gold.Chemscore.Lipo.Weighted>
-7.3671

> <Gold.Chemscore.Internal_Hbond.Weighted>
0.0000

> <Gold.Chemscore.DEClash.Weighted>
0.0092

> <Gold.Chemscore.DEInternal.Weighted>
0.5816

> <Gold.Chemscore.Rot.Weighted>
3.4489

> <Gold.Chemscore.Internal.Correction.Weighted>
   9.000000E+99

> <Gold.Protein.RotatedTorsions>
[ 6907 6896 6895 6894 ] final  -77.72 input  -60.11 | X-H torsion
[ 7974 7965 7964 7962 ] final    0.17 input  175.53 | X-H torsion
[ 8008 7997 7996 7995 ] final  158.64 input   59.86 | X-H torsion
[ 10167 10162 10161 10158 ] final  173.16 input  -65.29 | X-H torsion
[ 10718 10713 10712 10709 ] final  -96.79 input   66.30 | X-H torsion
[ 10763 10752 10751 10750 ] final -102.72 input  -60.55 | X-H torsion
[ 11005 11000 10999 10996 ] final  -24.29 input  -57.11 | X-H torsion

> <Gold.Protein.ActiveResidues>
 VAL166  LYS551  ARG553  GLY616  TRP617  ASP618  TYR619  PRO620  LYS621  CYS622 
 ASP623  PHE694  ASN695  SER759  ASP760  ASP761  ALA762  ILE779  LEU786  VAL792 
 PHE793  MET794  SER795  GLU796  ALA797  LYS798  CYS799  TRP800  GLU811  SER814 

> <Gold.Protein.RotatedAtoms>
  150.6991  134.4379  159.5278 H   0  0  0  0  0  0  0  0  0  0  0  0  # atno 6907 bound_to 6896
  152.2094  134.8512  160.0508 H   0  0  0  0  0  0  0  0  0  0  0  0  # atno 6908 bound_to 6896
  151.9403  133.3601  159.3999 H   0  0  0  0  0  0  0  0  0  0  0  0  # atno 6909 bound_to 6896
  146.2432  140.1179  142.8341 H   0  0  0  0  0  0  0  0  0  0  0  0  # atno 7974 bound_to 7965
  156.2290  140.1853  156.7290 H   0  0  0  0  0  0  0  0  0  0  0  0  # atno 8008 bound_to 7997
  154.5990  140.0639  156.9370 H   0  0  0  0  0  0  0  0  0  0  0  0  # atno 8009 bound_to 7997
  155.2207  140.3307  155.4318 H   0  0  0  0  0  0  0  0  0  0  0  0  # atno 8010 bound_to 7997
  139.5099  144.3292  152.0128 H   0  0  0  0  0  0  0  0  0  0  0  0  # atno 10167 bound_to 10162
  156.0069  130.5166  150.6279 H   0  0  0  0  0  0  0  0  0  0  0  0  # atno 10718 bound_to 10713
  154.7755  135.4850  153.9735 H   0  0  0  0  0  0  0  0  0  0  0  0  # atno 10763 bound_to 10752
  153.1423  135.6775  153.9016 H   0  0  0  0  0  0  0  0  0  0  0  0  # atno 10764 bound_to 10752
  153.8686  135.3146  155.3419 H   0  0  0  0  0  0  0  0  0  0  0  0  # atno 10765 bound_to 10752
  140.8831  133.7640  156.0327 H   0  0  0  0  0  0  0  0  0  0  0  0  # atno 11005 bound_to 11000
  145.0432  140.8961  143.5040 LP  0  0  0  0  0  0  0  0  0  0  0  0  # atno 17320 bound_to 7965
  145.1263  139.2661  143.5562 LP  0  0  0  0  0  0  0  0  0  0  0  0  # atno 17321 bound_to 7965
  140.2732  144.3941  150.6144 LP  0  0  0  0  0  0  0  0  0  0  0  0  # atno 17342 bound_to 10162
  140.6073  143.2168  151.6955 LP  0  0  0  0  0  0  0  0  0  0  0  0  # atno 17343 bound_to 10162
  157.4082  131.0820  151.1245 LP  0  0  0  0  0  0  0  0  0  0  0  0  # atno 17370 bound_to 10713
  157.1885  130.6341  149.5696 LP  0  0  0  0  0  0  0  0  0  0  0  0  # atno 17371 bound_to 10713
  140.8437  134.3036  157.5303 LP  0  0  0  0  0  0  0  0  0  0  0  0  # atno 17394 bound_to 11000
  139.8721  134.9430  156.3841 LP  0  0  0  0  0  0  0  0  0  0  0  0  # atno 17395 bound_to 11000

$$$$
