AV-unprocessed.smi:1962|AV-procd|sdf|7923|dock10
  -GOLD-   2272010 93D 1   1.00000     0.00000
 Structure written by MMmdl.
 36 37  0  0  0  0  0  0  0  0  1 V2000
  151.8689  141.0219  159.3477 C   0  0  0  0  0  0  0  0  0  0  0  0
  153.2282  141.3914  159.9564 C   0  0  1  0  0  0  0  0  0  0  0  0
  153.1160  142.6240  160.8778 C   0  0  0  0  0  0  0  0  0  0  0  0
  152.4494  143.7432  160.2350 N   0  0  0  0  0  0  0  0  0  0  0  0
  152.3312  144.0093  158.8873 C   0  0  0  0  0  0  0  0  0  0  0  0
  151.6351  145.1775  158.7634 C   0  0  0  0  0  0  0  0  0  0  0  0
  151.3652  145.5543  160.1087 C   0  0  0  0  0  0  0  0  0  0  0  0
  151.8511  144.6925  160.9874 N   0  0  0  0  0  0  0  0  0  0  0  0
  153.7482  140.2399  160.6923 N   0  0  0  0  0  0  0  0  0  0  0  0
  154.7697  139.4523  160.3064 C   0  0  0  0  0  0  0  0  0  0  0  0
  155.3735  139.6064  159.2444 O   0  0  0  0  0  0  0  0  0  0  0  0
  155.1505  138.3719  161.2547 C   0  0  0  0  0  0  0  0  0  0  0  0
  154.4873  138.2120  162.3570 N   0  0  0  0  0  0  0  0  0  0  0  0
  154.7985  137.2176  163.2618 N   0  0  0  0  0  0  0  0  0  0  0  0
  153.8016  137.0077  164.3097 C   0  0  0  0  0  0  0  0  0  0  0  0
  155.9428  136.4895  163.2444 C   0  0  0  0  0  0  0  0  0  0  0  0
  156.1984  135.5973  164.0530 O   0  0  0  0  0  0  0  0  0  0  0  0
  156.9643  136.8494  162.1620 C   0  0  0  0  0  0  0  0  0  0  0  0
  156.2992  137.4462  160.9059 C   0  0  0  0  0  0  0  0  0  0  0  0
  151.4633  141.8491  158.7645 H   0  0  0  0  0  0  0  0  0  0  0  0
  151.1416  140.7716  160.1207 H   0  0  0  0  0  0  0  0  0  0  0  0
  151.9570  140.1629  158.6817 H   0  0  0  0  0  0  0  0  0  0  0  0
  153.8953  141.6358  159.1278 H   0  0  0  0  0  0  0  0  0  0  0  0
  152.5467  142.3701  161.7729 H   0  0  0  0  0  0  0  0  0  0  0  0
  154.1036  142.9402  161.2181 H   0  0  0  0  0  0  0  0  0  0  0  0
  152.7532  143.3557  158.1381 H   0  0  0  0  0  0  0  0  0  0  0  0
  151.3619  145.6864  157.8510 H   0  0  0  0  0  0  0  0  0  0  0  0
  150.8338  146.4220  160.4708 H   0  0  0  0  0  0  0  0  0  0  0  0
  153.3147  140.0383  161.5820 H   0  0  0  0  0  0  0  0  0  0  0  0
  154.2281  137.2170  165.2920 H   0  0  0  0  0  0  0  0  0  0  0  0
  153.4485  135.9754  164.3037 H   0  0  0  0  0  0  0  0  0  0  0  0
  152.9314  137.6541  164.1834 H   0  0  0  0  0  0  0  0  0  0  0  0
  157.6541  137.5765  162.5922 H   0  0  0  0  0  0  0  0  0  0  0  0
  157.5562  135.9726  161.8976 H   0  0  0  0  0  0  0  0  0  0  0  0
  155.9328  136.6454  160.2627 H   0  0  0  0  0  0  0  0  0  0  0  0
  157.0611  137.9763  160.3327 H   0  0  0  0  0  0  0  0  0  0  0  0
  1  2  1  0  0  0  0
  1 20  1  0  0  0  0
  1 21  1  0  0  0  0
  1 22  1  0  0  0  0
  2  3  1  0  0  0  0
  2  9  1  0  0  0  0
  2 23  1  0  0  0  0
  3  4  1  0  0  0  0
  3 24  1  0  0  0  0
  3 25  1  0  0  0  0
  4  8  1  0  0  0  0
  4  5  1  0  0  0  0
  5  6  2  0  0  0  0
  5 26  1  0  0  0  0
  6  7  1  0  0  0  0
  6 27  1  0  0  0  0
  7  8  2  0  0  0  0
  7 28  1  0  0  0  0
  9 10  1  0  0  0  0
  9 29  1  0  0  0  0
 10 11  2  0  0  0  0
 10 12  1  0  0  0  0
 12 19  1  0  0  0  0
 12 13  2  0  0  0  0
 13 14  1  0  0  0  0
 14 15  1  0  0  0  0
 14 16  1  0  0  0  0
 15 30  1  0  0  0  0
 15 31  1  0  0  0  0
 15 32  1  0  0  0  0
 16 17  2  0  0  0  0
 16 18  1  0  0  0  0
 18 19  1  0  0  0  0
 18 33  1  0  0  0  0
 18 34  1  0  0  0  0
 19 35  1  0  0  0  0
 19 36  1  0  0  0  0
M  END
> <s_m_source_file>
AV-unprocessed.smi

> <i_m_source_file_index>
1962

> <i_lp_mmshare_version>
43012

> <i_f3d_flags>
0

> <s_epik_input>
bjFbY0hdW2NIXVtjSF1uMVtDSDJdW0NAQEhdKFtDSDNdKVtOSF1DKD1PKUMyPU5OKFtDSDNdKUMoPU8pW0NIMl1bQ0gyXTI=

> <s_epik_cmdline>
J2VwaWtfcHl0aG9uJywgJy1waCcsICc3LjAnLCAnLXRuJywgJzgnLCAnLW1hJywgJzIwMCcsICctbWV0YWxfYmluZGluZycsICctaW1hZScsICc8aW5maWxlLm1hZT4nLCAnLW9tYWUnLCAnPG91dGZpbGUubWFlPic=

> <r_lp_tautomer_probability>
1

> <r_epik_Ionization_Penalty>
9.43868e-05

> <r_epik_Ionization_Penalty_Charging>
0

> <r_epik_Ionization_Penalty_Neutral>
9.43868e-05

> <r_epik_State_Penalty>
-0

> <r_epik_Charging_Adjusted_Penalty>
0

> <i_epik_Tot_Q>
0

> <i_epik_Tot_abs_Q>
0

> <r_epik_Metal_State_Penalty>
0.0732556

> <b_epik_Metal_Only>
0

> <s_epik_Chemistry_Notes>
This compound has an imine and may undergo hydrolysis.

> <s_lp_Force_Field>
OPLS_2005

> <r_lp_Energy>
16.0721

> <b_lp_Chiralities_Consistent>
1

> <s_lp_Variant>
AV-unprocessed.smi:1962-2

> <Gold.Version>
5.8.1

> <Gold.Id.Protein>
6NUR|6NUR_protein|mol2

> <Gold.PLP.Fitness>
40.8277

> <Gold.PLP.PLP>
-38.7777

> <Gold.PLP.part.hbond>
-1.0000

> <Gold.PLP.part.metal>
0.0000

> <Gold.PLP.part.buried>
-5.7231

> <Gold.PLP.part.nonpolar>
-31.9224

> <Gold.PLP.part.repulsive>
0.2735

> <Gold.PLP.ligand.clash>
0.0000

> <Gold.PLP.ligand.torsion>
0.4854

> <Gold.PLP.Chemscore.Hbond>
1.0000

> <Gold.PLP.Chemscore.CHOScore>
0.0000

> <Gold.PLP.Chemscore.Metal>
0.0000

> <Gold.Chemscore.Hbonds>
donor molecule, donor type, donor heavy atom, donor atom, acceptor molecule, acceptor atom, score
      P1  H  7997  8010       L1    11  1.00

> <Gold.PLP.Chemscore.Internal.Correction>
0.0208

> <Gold.Rescore>
     Score         DG    S(hbond)    S(metal)    S(lipo)     H(rot)  DE(clash)    DE(int)     intcor
     14.50     -15.21       0.99        0.00      88.18       1.53       0.26       0.45       ----

> <Gold.Chemscore.Fitness>
14.5021

> <Gold.Chemscore.DG>
-15.2108

> <Gold.Chemscore.ZeroCoef>
-5.4800

> <Gold.Chemscore.Hbond>
0.9937

> <Gold.Chemscore.Metal>
0.0000

> <Gold.Chemscore.Lipo>
88.1780

> <Gold.Chemscore.Internal_Hbond>
0.0000

> <Gold.Chemscore.DEClash>
0.2596

> <Gold.Chemscore.DEInternal>
0.4491

> <Gold.Chemscore.Rot>
1.5254

> <Gold.Chemscore.Internal.Correction>
   9.000000E+99

> <Gold.Chemscore.Hbonds>
donor molecule, donor type, donor heavy atom, donor atom, acceptor molecule, acceptor atom, score
      P1  H  7997  8010       L1    11  0.94

> <Gold.Chemscore.Hbond.Weighted>
-3.3190

> <Gold.Chemscore.Metal.Weighted>
-0.0000

> <Gold.Chemscore.Lipo.Weighted>
-10.3168

> <Gold.Chemscore.Internal_Hbond.Weighted>
0.0000

> <Gold.Chemscore.DEClash.Weighted>
0.2596

> <Gold.Chemscore.DEInternal.Weighted>
0.4491

> <Gold.Chemscore.Rot.Weighted>
3.9051

> <Gold.Chemscore.Internal.Correction.Weighted>
   9.000000E+99

> <Gold.Protein.RotatedTorsions>
[ 6907 6896 6895 6894 ] final  -23.87 input  -60.11 | X-H torsion
[ 7974 7965 7964 7962 ] final -178.87 input  175.53 | X-H torsion
[ 8008 7997 7996 7995 ] final  -29.72 input   59.86 | X-H torsion
[ 10167 10162 10161 10158 ] final   14.49 input  -65.29 | X-H torsion
[ 10718 10713 10712 10709 ] final   53.83 input   66.30 | X-H torsion
[ 10763 10752 10751 10750 ] final  153.65 input  -60.55 | X-H torsion
[ 11005 11000 10999 10996 ] final   69.98 input  -57.11 | X-H torsion

> <Gold.Protein.ActiveResidues>
 VAL166  LYS551  ARG553  GLY616  TRP617  ASP618  TYR619  PRO620  LYS621  CYS622 
 ASP623  PHE694  ASN695  SER759  ASP760  ASP761  ALA762  ILE779  LEU786  VAL792 
 PHE793  MET794  SER795  GLU796  ALA797  LYS798  CYS799  TRP800  GLU811  SER814 

> <Gold.Protein.RotatedAtoms>
  151.1977  135.0429  159.8858 H   0  0  0  0  0  0  0  0  0  0  0  0  # atno 6907 bound_to 6896
  152.5435  134.0885  159.8276 H   0  0  0  0  0  0  0  0  0  0  0  0  # atno 6908 bound_to 6896
  151.1021  133.5188  159.2641 H   0  0  0  0  0  0  0  0  0  0  0  0  # atno 6909 bound_to 6896
  144.7133  140.0803  143.6426 H   0  0  0  0  0  0  0  0  0  0  0  0  # atno 7974 bound_to 7965
  154.4279  140.1811  156.1292 H   0  0  0  0  0  0  0  0  0  0  0  0  # atno 8008 bound_to 7997
  156.0081  140.3353  155.6888 H   0  0  0  0  0  0  0  0  0  0  0  0  # atno 8009 bound_to 7997
  155.6149  140.0654  157.2686 H   0  0  0  0  0  0  0  0  0  0  0  0  # atno 8010 bound_to 7997
  140.5932  143.8754  150.6893 H   0  0  0  0  0  0  0  0  0  0  0  0  # atno 10167 bound_to 10162
  157.5203  130.8560  149.8549 H   0  0  0  0  0  0  0  0  0  0  0  0  # atno 10718 bound_to 10713
  154.1396  135.2821  155.3164 H   0  0  0  0  0  0  0  0  0  0  0  0  # atno 10763 bound_to 10752
  154.6297  135.5439  153.7669 H   0  0  0  0  0  0  0  0  0  0  0  0  # atno 10764 bound_to 10752
  153.0255  135.6459  154.1543 H   0  0  0  0  0  0  0  0  0  0  0  0  # atno 10765 bound_to 10752
  139.9623  134.7039  156.0619 H   0  0  0  0  0  0  0  0  0  0  0  0  # atno 11005 bound_to 11000
  145.9708  139.2868  143.1100 LP  0  0  0  0  0  0  0  0  0  0  0  0  # atno 17320 bound_to 7965
  145.9119  140.9174  143.0449 LP  0  0  0  0  0  0  0  0  0  0  0  0  # atno 17321 bound_to 7965
  140.2282  143.3756  152.1587 LP  0  0  0  0  0  0  0  0  0  0  0  0  # atno 17342 bound_to 10162
  139.5241  144.7079  151.5296 LP  0  0  0  0  0  0  0  0  0  0  0  0  # atno 17343 bound_to 10162
  156.0348  130.3754  150.1589 LP  0  0  0  0  0  0  0  0  0  0  0  0  # atno 17370 bound_to 10713
  156.9777  130.9854  151.3444 LP  0  0  0  0  0  0  0  0  0  0  0  0  # atno 17371 bound_to 10713
  141.1301  133.6588  156.3442 LP  0  0  0  0  0  0  0  0  0  0  0  0  # atno 17394 bound_to 11000
  140.5472  134.6062  157.5397 LP  0  0  0  0  0  0  0  0  0  0  0  0  # atno 17395 bound_to 11000

$$$$
