AV-unprocessed.smi:1005|AV-procd|sdf|4366|dock7
  -GOLD-   22720 2273D 1   1.00000     0.00000
 Structure written by MMmdl.
 57 59  0  0  0  0  0  0  0  0  3 V2000
  151.8759  140.4640  156.7846 C   0  0  0  0  0  0  0  0  0  0  0  0
  150.7080  140.2419  155.8396 C   0  0  0  0  0  0  0  0  0  0  0  0
  149.6303  141.1559  155.8521 C   0  0  0  0  0  0  0  0  0  0  0  0
  148.5248  140.9838  154.9911 C   0  0  0  0  0  0  0  0  0  0  0  0
  147.3769  141.7426  154.8392 N   0  0  0  0  0  0  0  0  0  0  0  0
  146.7345  141.0704  153.8891 C   0  0  0  0  0  0  0  0  0  0  0  0
  147.3287  139.9607  153.4095 N   0  0  0  0  0  0  0  0  0  0  0  0
  146.8155  139.0697  152.3841 C   0  0  0  0  0  0  0  0  0  0  0  0
  145.8652  138.0016  152.9578 C   0  0  2  0  0  0  0  0  0  0  0  0
  144.8956  138.6259  153.7782 O   0  0  0  0  0  0  0  0  0  0  0  0
  146.6199  136.9571  153.8029 C   0  0  0  0  0  0  0  0  0  0  0  0
  146.7567  135.6553  153.1013 N   0  3  1  0  0  0  0  0  0  0  0  0
  147.0036  134.5115  154.0129 C   0  0  0  0  0  0  0  0  0  0  0  0
  147.1854  133.2167  153.2050 C   0  0  0  0  0  0  0  0  0  0  0  0
  146.0398  132.9991  152.3902 O   0  0  0  0  0  0  0  0  0  0  0  0
  145.8396  134.0431  151.4421 C   0  0  1  0  0  0  0  0  0  0  0  0
  144.6224  133.6735  150.5727 C   0  0  0  0  0  0  0  0  0  0  0  0
  145.0016  133.0719  149.2680 N   0  3  0  0  0  0  0  0  0  0  0  0
  143.8405  132.7442  148.4081 C   0  0  0  0  0  0  0  0  0  0  0  0
  145.8956  131.9042  149.4349 C   0  0  0  0  0  0  0  0  0  0  0  0
  145.6115  135.3632  152.2068 C   0  0  0  0  0  0  0  0  0  0  0  0
  148.5264  139.8630  154.1100 C   0  0  0  0  0  0  0  0  0  0  0  0
  149.5929  138.9473  154.0874 C   0  0  0  0  0  0  0  0  0  0  0  0
  150.6903  139.1347  154.9536 C   0  0  0  0  0  0  0  0  0  0  0  0
  151.8382  138.1415  154.9204 C   0  0  0  0  0  0  0  0  0  0  0  0
  151.7268  141.3512  157.4007 H   0  0  0  0  0  0  0  0  0  0  0  0
  152.8012  140.5978  156.2237 H   0  0  0  0  0  0  0  0  0  0  0  0
  151.9950  139.6102  157.4519 H   0  0  0  0  0  0  0  0  0  0  0  0
  149.6437  141.9995  156.5267 H   0  0  0  0  0  0  0  0  0  0  0  0
  145.7730  141.4005  153.5232 H   0  0  0  0  0  0  0  0  0  0  0  0
  146.2965  139.6738  151.6385 H   0  0  0  0  0  0  0  0  0  0  0  0
  147.6576  138.6016  151.8726 H   0  0  0  0  0  0  0  0  0  0  0  0
  145.3492  137.5187  152.1282 H   0  0  0  0  0  0  0  0  0  0  0  0
  144.3252  139.1430  153.2286 H   0  0  0  0  0  0  0  0  0  0  0  0
  147.6097  137.3258  154.0770 H   0  0  0  0  0  0  0  0  0  0  0  0
  146.0794  136.8161  154.7405 H   0  0  0  0  0  0  0  0  0  0  0  0
  147.8919  134.6878  154.6185 H   0  0  0  0  0  0  0  0  0  0  0  0
  146.1641  134.4033  154.7018 H   0  0  0  0  0  0  0  0  0  0  0  0
  148.0845  133.2639  152.5883 H   0  0  0  0  0  0  0  0  0  0  0  0
  147.3056  132.3682  153.8787 H   0  0  0  0  0  0  0  0  0  0  0  0
  146.7285  134.1470  150.8190 H   0  0  0  0  0  0  0  0  0  0  0  0
  144.0076  132.9660  151.1317 H   0  0  0  0  0  0  0  0  0  0  0  0
  143.9963  134.5498  150.3970 H   0  0  0  0  0  0  0  0  0  0  0  0
  143.1895  132.0135  148.8904 H   0  0  0  0  0  0  0  0  0  0  0  0
  144.1746  132.3233  147.4590 H   0  0  0  0  0  0  0  0  0  0  0  0
  143.2490  133.6287  148.1752 H   0  0  0  0  0  0  0  0  0  0  0  0
  145.3921  131.1001  149.9732 H   0  0  0  0  0  0  0  0  0  0  0  0
  146.7939  132.1782  149.9894 H   0  0  0  0  0  0  0  0  0  0  0  0
  146.2140  131.5197  148.4651 H   0  0  0  0  0  0  0  0  0  0  0  0
  144.6949  135.3084  152.7969 H   0  0  0  0  0  0  0  0  0  0  0  0
  145.4867  136.1800  151.4946 H   0  0  0  0  0  0  0  0  0  0  0  0
  149.5670  138.1071  153.4094 H   0  0  0  0  0  0  0  0  0  0  0  0
  151.6646  137.3572  154.1830 H   0  0  0  0  0  0  0  0  0  0  0  0
  151.9599  137.6649  155.8932 H   0  0  0  0  0  0  0  0  0  0  0  0
  152.7703  138.6438  154.6612 H   0  0  0  0  0  0  0  0  0  0  0  0
  145.5451  133.7672  148.7760 H   0  0  0  0  0  0  0  0  0  0  0  0
  147.5679  135.7435  152.5049 H   0  0  0  0  0  0  0  0  0  0  0  0
  1  2  1  0  0  0  0
  1 26  1  0  0  0  0
  1 27  1  0  0  0  0
  1 28  1  0  0  0  0
  2 24  1  0  0  0  0
  2  3  2  0  0  0  0
  3  4  1  0  0  0  0
  3 29  1  0  0  0  0
  4 22  2  0  0  0  0
  4  5  1  0  0  0  0
  5  6  2  0  0  0  0
  6  7  1  0  0  0  0
  6 30  1  0  0  0  0
  7  8  1  0  0  0  0
  7 22  1  0  0  0  0
  8  9  1  0  0  0  0
  8 31  1  0  0  0  0
  8 32  1  0  0  0  0
  9 10  1  0  0  0  0
  9 11  1  0  0  0  0
  9 33  1  0  0  0  0
 10 34  1  0  0  0  0
 11 12  1  0  0  0  0
 11 35  1  0  0  0  0
 11 36  1  0  0  0  0
 12 21  1  0  0  0  0
 12 13  1  0  0  0  0
 12 57  1  0  0  0  0
 13 14  1  0  0  0  0
 13 37  1  0  0  0  0
 13 38  1  0  0  0  0
 14 15  1  0  0  0  0
 14 39  1  0  0  0  0
 14 40  1  0  0  0  0
 15 16  1  0  0  0  0
 16 17  1  0  0  0  0
 16 21  1  0  0  0  0
 16 41  1  0  0  0  0
 17 18  1  0  0  0  0
 17 42  1  0  0  0  0
 17 43  1  0  0  0  0
 18 19  1  0  0  0  0
 18 20  1  0  0  0  0
 18 56  1  0  0  0  0
 19 44  1  0  0  0  0
 19 45  1  0  0  0  0
 19 46  1  0  0  0  0
 20 47  1  0  0  0  0
 20 48  1  0  0  0  0
 20 49  1  0  0  0  0
 21 50  1  0  0  0  0
 21 51  1  0  0  0  0
 22 23  1  0  0  0  0
 23 24  2  0  0  0  0
 23 52  1  0  0  0  0
 24 25  1  0  0  0  0
 25 53  1  0  0  0  0
 25 54  1  0  0  0  0
 25 55  1  0  0  0  0
M  CHG  1  12   1
M  CHG  1  18   1
M  END
> <s_m_source_file>
AV-unprocessed.smi

> <i_m_source_file_index>
1005

> <i_lp_mmshare_version>
43012

> <i_f3d_flags>
0

> <s_epik_input>
W0NIM11jKFtjSF0xKWMoW0NIM10pW2NIXWMoYzEyKW4oW2NIXW4yKVtDSDJdW0NASF0oW09IXSlbQ0gyXU4zW0NIMl1bQ0gyXU9bQ0BIXShbQ0gyXTMpW0NIMl1OKFtDSDNdKVtDSDNd

> <s_epik_cmdline>
J2VwaWtfcHl0aG9uJywgJy1waCcsICc3LjAnLCAnLXRuJywgJzgnLCAnLW1hJywgJzIwMCcsICctbWV0YWxfYmluZGluZycsICctaW1hZScsICc8aW5maWxlLm1hZT4nLCAnLW9tYWUnLCAnPG91dGZpbGUubWFlPic=

> <r_epik_Ionization_Penalty>
1.0968

> <r_epik_Ionization_Penalty_Charging>
1.0096

> <r_epik_Ionization_Penalty_Neutral>
0.0871956

> <r_epik_State_Penalty>
1.31185

> <r_epik_Charging_Adjusted_Penalty>
2.32145

> <i_epik_Tot_Q>
2

> <i_epik_Tot_abs_Q>
2

> <r_epik_Metal_State_Penalty>
1.22442

> <b_epik_Metal_Only>
0

> <s_lp_Force_Field>
OPLS_2005

> <r_lp_Energy>
32.7622

> <b_lp_Chiralities_Consistent>
1

> <s_lp_Variant>
AV-unprocessed.smi:1005-5

> <Gold.Version>
5.8.1

> <Gold.Id.Protein>
6NUR|6NUR_protein|mol2

> <Gold.PLP.Fitness>
57.8294

> <Gold.PLP.PLP>
-46.4286

> <Gold.PLP.part.hbond>
-3.0000

> <Gold.PLP.part.metal>
0.0000

> <Gold.PLP.part.buried>
-2.3154

> <Gold.PLP.part.nonpolar>
-41.5964

> <Gold.PLP.part.repulsive>
0.4130

> <Gold.PLP.ligand.clash>
0.0000

> <Gold.PLP.ligand.torsion>
1.8732

> <Gold.PLP.Chemscore.Hbond>
4.0000

> <Gold.PLP.Chemscore.CHOScore>
0.9807

> <Gold.PLP.Chemscore.Metal>
0.0000

> <Gold.Chemscore.Hbonds>
donor molecule, donor type, donor heavy atom, donor atom, acceptor molecule, acceptor atom, score
      L1  H    10    34       P1 10175  1.00
      L1  H    12    57       P1  7948  2.00
      L1  H    18    56       P1  7921  1.00
      L1  C     6    30       P1 10175  0.99

> <Gold.PLP.Chemscore.Internal.Correction>
0.2050

> <Gold.Rescore>
     Score         DG    S(hbond)    S(metal)    S(lipo)     H(rot)  DE(clash)    DE(int)     intcor
     19.17     -21.79       2.75        0.00     115.27       2.48       0.64       1.98       ----

> <Gold.Chemscore.Fitness>
19.1730

> <Gold.Chemscore.DG>
-21.7898

> <Gold.Chemscore.ZeroCoef>
-5.4800

> <Gold.Chemscore.Hbond>
2.7470

> <Gold.Chemscore.Metal>
0.0000

> <Gold.Chemscore.Lipo>
115.2739

> <Gold.Chemscore.Internal_Hbond>
0.0000

> <Gold.Chemscore.DEClash>
0.6377

> <Gold.Chemscore.DEInternal>
1.9791

> <Gold.Chemscore.Rot>
2.4814

> <Gold.Chemscore.Internal.Correction>
   9.000000E+99

> <Gold.Chemscore.Hbonds>
donor molecule, donor type, donor heavy atom, donor atom, acceptor molecule, acceptor atom, score
      L1  H    10    34       P1 10175  0.99
      L1  H    12    57       P1  7948  0.98
      L1  H    18    56       P1  7921  0.45

> <Gold.Chemscore.Hbond.Weighted>
-9.1751

> <Gold.Chemscore.Metal.Weighted>
-0.0000

> <Gold.Chemscore.Lipo.Weighted>
-13.4870

> <Gold.Chemscore.Internal_Hbond.Weighted>
0.0000

> <Gold.Chemscore.DEClash.Weighted>
0.6377

> <Gold.Chemscore.DEInternal.Weighted>
1.9791

> <Gold.Chemscore.Rot.Weighted>
6.3524

> <Gold.Chemscore.Internal.Correction.Weighted>
   9.000000E+99

> <Gold.Protein.RotatedTorsions>
[ 6907 6896 6895 6894 ] final -108.56 input  -60.11 | X-H torsion
[ 7974 7965 7964 7962 ] final -162.96 input  175.53 | X-H torsion
[ 8008 7997 7996 7995 ] final -131.59 input   59.86 | X-H torsion
[ 10167 10162 10161 10158 ] final -177.87 input  -65.29 | X-H torsion
[ 10718 10713 10712 10709 ] final -163.54 input   66.30 | X-H torsion
[ 10763 10752 10751 10750 ] final -123.70 input  -60.55 | X-H torsion
[ 11005 11000 10999 10996 ] final  103.39 input  -57.11 | X-H torsion

> <Gold.Protein.ActiveResidues>
 VAL166  LYS551  ARG553  GLY616  TRP617  ASP618  TYR619  PRO620  LYS621  CYS622 
 ASP623  PHE694  ASN695  SER759  ASP760  ASP761  ALA762  ILE779  LEU786  VAL792 
 PHE793  MET794  SER795  GLU796  ALA797  LYS798  CYS799  TRP800  GLU811  SER814 

> <Gold.Protein.RotatedAtoms>
  150.7509  133.9659  159.3530 H   0  0  0  0  0  0  0  0  0  0  0  0  # atno 6907 bound_to 6896
  151.7588  135.0813  160.0352 H   0  0  0  0  0  0  0  0  0  0  0  0  # atno 6908 bound_to 6896
  152.3417  133.6037  159.5917 H   0  0  0  0  0  0  0  0  0  0  0  0  # atno 6909 bound_to 6896
  144.7341  140.3176  143.6176 H   0  0  0  0  0  0  0  0  0  0  0  0  # atno 7974 bound_to 7965
  155.3149  140.0459  157.3036 H   0  0  0  0  0  0  0  0  0  0  0  0  # atno 8008 bound_to 7997
  154.5412  140.2288  155.8604 H   0  0  0  0  0  0  0  0  0  0  0  0  # atno 8009 bound_to 7997
  156.1882  140.3057  155.9287 H   0  0  0  0  0  0  0  0  0  0  0  0  # atno 8010 bound_to 7997
  139.5459  144.2237  152.0987 H   0  0  0  0  0  0  0  0  0  0  0  0  # atno 10167 bound_to 10162
  156.6261  130.8910  151.2968 H   0  0  0  0  0  0  0  0  0  0  0  0  # atno 10718 bound_to 10713
  154.8712  135.4089  154.2986 H   0  0  0  0  0  0  0  0  0  0  0  0  # atno 10763 bound_to 10752
  153.3849  135.7013  153.6543 H   0  0  0  0  0  0  0  0  0  0  0  0  # atno 10764 bound_to 10752
  153.5350  135.3660  155.2664 H   0  0  0  0  0  0  0  0  0  0  0  0  # atno 10765 bound_to 10752
  139.8783  134.9261  156.5202 H   0  0  0  0  0  0  0  0  0  0  0  0  # atno 11005 bound_to 11000
  145.7601  139.1822  143.2272 LP  0  0  0  0  0  0  0  0  0  0  0  0  # atno 17320 bound_to 7965
  146.0993  140.7563  142.9557 LP  0  0  0  0  0  0  0  0  0  0  0  0  # atno 17321 bound_to 7965
  140.1723  144.4924  150.6573 LP  0  0  0  0  0  0  0  0  0  0  0  0  # atno 17342 bound_to 10162
  140.6707  143.2285  151.5632 LP  0  0  0  0  0  0  0  0  0  0  0  0  # atno 17343 bound_to 10162
  157.7213  130.9563  150.1452 LP  0  0  0  0  0  0  0  0  0  0  0  0  # atno 17370 bound_to 10713
  156.2272  130.3679  149.8487 LP  0  0  0  0  0  0  0  0  0  0  0  0  # atno 17371 bound_to 10713
  140.8456  133.8171  155.9118 LP  0  0  0  0  0  0  0  0  0  0  0  0  # atno 17394 bound_to 11000
  140.9194  134.2160  157.4936 LP  0  0  0  0  0  0  0  0  0  0  0  0  # atno 17395 bound_to 11000

$$$$
