AV-unprocessed.smi:1385|AV-procd|sdf|5629|dock4
  -GOLD-   22720 5243D 1   1.00000     0.00000
 Structure written by MMmdl.
 39 40  0  0  0  0  0  0  0  0  2 V2000
  152.7445  142.7486  160.2667 C   0  0  0  0  0  0  0  0  0  0  0  0
  152.0092  142.4785  158.9987 C   0  0  0  0  0  0  0  0  0  0  0  0
  151.4959  143.4532  158.2385 N   0  0  0  0  0  0  0  0  0  0  0  0
  150.8585  142.9588  157.1089 N   0  0  0  0  0  0  0  0  0  0  0  0
  150.9132  141.6211  157.0494 C   0  0  0  0  0  0  0  0  0  0  0  0
  150.3425  140.8537  155.9995 N   0  0  0  0  0  0  0  0  0  0  0  0
  149.1178  140.3011  155.9430 C   0  0  0  0  0  0  0  0  0  0  0  0
  148.2633  140.3697  156.8270 O   0  0  0  0  0  0  0  0  0  0  0  0
  148.9297  139.6509  154.7850 N   0  0  0  0  0  0  0  0  0  0  0  0
  147.7029  138.9573  154.4034 C   0  0  2  0  0  0  0  0  0  0  0  0
  147.8079  137.4497  154.6967 C   0  0  0  0  0  0  0  0  0  0  0  0
  146.5541  136.7043  154.2115 C   0  0  0  0  0  0  0  0  0  0  0  0
  146.3205  136.9361  152.7608 N   0  3  1  0  0  0  0  0  0  0  0  0
  145.1979  136.1300  152.2151 C   0  0  0  0  0  0  0  0  0  0  0  0
  145.5116  135.5117  150.8485 C   0  0  0  0  0  0  0  0  0  0  0  0
  145.3659  136.3020  149.7827 N   0  0  0  0  0  0  0  0  0  0  0  0
  145.8931  134.3464  150.7536 O   0  0  0  0  0  0  0  0  0  0  0  0
  146.1802  138.3831  152.4558 C   0  0  0  0  0  0  0  0  0  0  0  0
  147.4222  139.1708  152.9072 C   0  0  0  0  0  0  0  0  0  0  0  0
  151.7564  140.8501  158.3821 S   0  0  0  0  0  0  0  0  0  0  0  0
  152.3848  143.6690  160.7278 H   0  0  0  0  0  0  0  0  0  0  0  0
  153.8107  142.8503  160.0635 H   0  0  0  0  0  0  0  0  0  0  0  0
  152.5976  141.9279  160.9688 H   0  0  0  0  0  0  0  0  0  0  0  0
  150.9377  140.7110  155.1970 H   0  0  0  0  0  0  0  0  0  0  0  0
  149.6866  139.6427  154.1168 H   0  0  0  0  0  0  0  0  0  0  0  0
  146.8673  139.3734  154.9701 H   0  0  0  0  0  0  0  0  0  0  0  0
  148.6895  137.0345  154.2056 H   0  0  0  0  0  0  0  0  0  0  0  0
  147.9417  137.2805  155.7658 H   0  0  0  0  0  0  0  0  0  0  0  0
  146.6745  135.6388  154.4091 H   0  0  0  0  0  0  0  0  0  0  0  0
  145.6815  137.0324  154.7787 H   0  0  0  0  0  0  0  0  0  0  0  0
  144.9100  135.3566  152.9294 H   0  0  0  0  0  0  0  0  0  0  0  0
  144.3235  136.7669  152.0737 H   0  0  0  0  0  0  0  0  0  0  0  0
  145.5559  135.9471  148.8565 H   0  0  0  0  0  0  0  0  0  0  0  0
  145.0617  137.2576  149.9057 H   0  0  0  0  0  0  0  0  0  0  0  0
  146.0410  138.5217  151.3829 H   0  0  0  0  0  0  0  0  0  0  0  0
  145.2868  138.7744  152.9455 H   0  0  0  0  0  0  0  0  0  0  0  0
  147.2789  140.2323  152.7012 H   0  0  0  0  0  0  0  0  0  0  0  0
  148.2847  138.8552  152.3178 H   0  0  0  0  0  0  0  0  0  0  0  0
  147.1493  136.6224  152.2753 H   0  0  0  0  0  0  0  0  0  0  0  0
  1  2  1  0  0  0  0
  1 21  1  0  0  0  0
  1 22  1  0  0  0  0
  1 23  1  0  0  0  0
  2 20  1  0  0  0  0
  2  3  2  0  0  0  0
  3  4  1  0  0  0  0
  4  5  2  0  0  0  0
  5  6  1  0  0  0  0
  5 20  1  0  0  0  0
  6  7  1  0  0  0  0
  6 24  1  0  0  0  0
  7  8  2  0  0  0  0
  7  9  1  0  0  0  0
  9 10  1  0  0  0  0
  9 25  1  0  0  0  0
 10 19  1  0  0  0  0
 10 11  1  0  0  0  0
 10 26  1  0  0  0  0
 11 12  1  0  0  0  0
 11 27  1  0  0  0  0
 11 28  1  0  0  0  0
 12 13  1  0  0  0  0
 12 29  1  0  0  0  0
 12 30  1  0  0  0  0
 13 14  1  0  0  0  0
 13 18  1  0  0  0  0
 13 39  1  0  0  0  0
 14 15  1  0  0  0  0
 14 31  1  0  0  0  0
 14 32  1  0  0  0  0
 15 16  1  0  0  0  0
 15 17  2  0  0  0  0
 16 33  1  0  0  0  0
 16 34  1  0  0  0  0
 18 19  1  0  0  0  0
 18 35  1  0  0  0  0
 18 36  1  0  0  0  0
 19 37  1  0  0  0  0
 19 38  1  0  0  0  0
M  CHG  1  13   1
M  END
> <s_m_source_file>
AV-unprocessed.smi

> <i_m_source_file_index>
1385

> <i_lp_mmshare_version>
43012

> <i_f3d_flags>
0

> <s_epik_input>
W0NIM11jMW5uYyhzMSlbTkhdQyg9TylbTkhdW0NIXTJbQ0gyXVtDSDJdTihbQ0gyXVtDSDJdMilbQ0gyXUMoPU8pW05IMl0=

> <s_epik_cmdline>
J2VwaWtfcHl0aG9uJywgJy1waCcsICc3LjAnLCAnLXRuJywgJzgnLCAnLW1hJywgJzIwMCcsICctbWV0YWxfYmluZGluZycsICctaW1hZScsICc8aW5maWxlLm1hZT4nLCAnLW9tYWUnLCAnPG91dGZpbGUubWFlPic=

> <r_lp_tautomer_probability>
1

> <r_epik_Ionization_Penalty>
0.866317

> <r_epik_Ionization_Penalty_Charging>
0.862349

> <r_epik_Ionization_Penalty_Neutral>
0.00396799

> <r_epik_State_Penalty>
0.898939

> <r_epik_Charging_Adjusted_Penalty>
1.76129

> <i_epik_Tot_Q>
1

> <i_epik_Tot_abs_Q>
1

> <r_epik_Metal_State_Penalty>
1.25402

> <b_epik_Metal_Only>
0

> <s_lp_Force_Field>
OPLS_2005

> <r_lp_Energy>
10.5623

> <b_lp_Chiralities_Consistent>
1

> <s_lp_Variant>
AV-unprocessed.smi:1385-2

> <Gold.Version>
5.8.1

> <Gold.Id.Protein>
6NUR|6NUR_protein|mol2

> <Gold.PLP.Fitness>
35.0163

> <Gold.PLP.PLP>
-26.8333

> <Gold.PLP.part.hbond>
-3.0000

> <Gold.PLP.part.metal>
0.0000

> <Gold.PLP.part.buried>
-4.6182

> <Gold.PLP.part.nonpolar>
-20.7763

> <Gold.PLP.part.repulsive>
0.7649

> <Gold.PLP.ligand.clash>
0.0000

> <Gold.PLP.ligand.torsion>
1.9177

> <Gold.PLP.Chemscore.Hbond>
4.0000

> <Gold.PLP.Chemscore.CHOScore>
0.0000

> <Gold.PLP.Chemscore.Metal>
0.0000

> <Gold.Chemscore.Hbonds>
donor molecule, donor type, donor heavy atom, donor atom, acceptor molecule, acceptor atom, score
      L1  H    13    39       P1  7948  2.00
      L1  H    16    33       P1  7921  1.00
      L1  H    16    34       P1 10171  1.00

> <Gold.PLP.Chemscore.Internal.Correction>
0.0184

> <Gold.Rescore>
     Score         DG    S(hbond)    S(metal)    S(lipo)     H(rot)  DE(clash)    DE(int)     intcor
     14.29     -16.25       2.99        0.00      51.96       2.07       0.16       1.80       ----

> <Gold.Chemscore.Fitness>
14.2911

> <Gold.Chemscore.DG>
-16.2536

> <Gold.Chemscore.ZeroCoef>
-5.4800

> <Gold.Chemscore.Hbond>
2.9882

> <Gold.Chemscore.Metal>
0.0000

> <Gold.Chemscore.Lipo>
51.9602

> <Gold.Chemscore.Internal_Hbond>
0.0000

> <Gold.Chemscore.DEClash>
0.1610

> <Gold.Chemscore.DEInternal>
1.8016

> <Gold.Chemscore.Rot>
2.0650

> <Gold.Chemscore.Internal.Correction>
   9.000000E+99

> <Gold.Chemscore.Hbonds>
donor molecule, donor type, donor heavy atom, donor atom, acceptor molecule, acceptor atom, score
      L1  H    13    39       P1  7948  1.00
      L1  H    16    33       P1  7921  0.99
      L1  H    16    34       P1 10171  0.97

> <Gold.Chemscore.Hbond.Weighted>
-9.9807

> <Gold.Chemscore.Metal.Weighted>
-0.0000

> <Gold.Chemscore.Lipo.Weighted>
-6.0793

> <Gold.Chemscore.Internal_Hbond.Weighted>
0.0000

> <Gold.Chemscore.DEClash.Weighted>
0.1610

> <Gold.Chemscore.DEInternal.Weighted>
1.8016

> <Gold.Chemscore.Rot.Weighted>
5.2864

> <Gold.Chemscore.Internal.Correction.Weighted>
   9.000000E+99

> <Gold.Protein.RotatedTorsions>
[ 6907 6896 6895 6894 ] final   -2.67 input  -60.11 | X-H torsion
[ 7974 7965 7964 7962 ] final   78.78 input  175.53 | X-H torsion
[ 8008 7997 7996 7995 ] final   90.17 input   59.86 | X-H torsion
[ 10167 10162 10161 10158 ] final  137.21 input  -65.29 | X-H torsion
[ 10718 10713 10712 10709 ] final  -30.33 input   66.30 | X-H torsion
[ 10763 10752 10751 10750 ] final -175.02 input  -60.55 | X-H torsion
[ 11005 11000 10999 10996 ] final -143.67 input  -57.11 | X-H torsion

> <Gold.Protein.ActiveResidues>
 VAL166  LYS551  ARG553  GLY616  TRP617  ASP618  TYR619  PRO620  LYS621  CYS622 
 ASP623  PHE694  ASN695  SER759  ASP760  ASP761  ALA762  ILE779  LEU786  VAL792 
 PHE793  MET794  SER795  GLU796  ALA797  LYS798  CYS799  TRP800  GLU811  SER814 

> <Gold.Protein.RotatedAtoms>
  151.5261  135.1068  159.9890 H   0  0  0  0  0  0  0  0  0  0  0  0  # atno 6907 bound_to 6896
  152.4599  133.7796  159.6854 H   0  0  0  0  0  0  0  0  0  0  0  0  # atno 6908 bound_to 6896
  150.8557  133.7654  159.3035 H   0  0  0  0  0  0  0  0  0  0  0  0  # atno 6909 bound_to 6896
  145.6727  139.2501  143.1859 H   0  0  0  0  0  0  0  0  0  0  0  0  # atno 7974 bound_to 7965
  156.0088  140.3352  155.6919 H   0  0  0  0  0  0  0  0  0  0  0  0  # atno 8008 bound_to 7997
  155.6187  140.0673  157.2702 H   0  0  0  0  0  0  0  0  0  0  0  0  # atno 8009 bound_to 7997
  154.4274  140.1780  156.1337 H   0  0  0  0  0  0  0  0  0  0  0  0  # atno 8010 bound_to 7997
  139.5152  144.6422  151.5538 H   0  0  0  0  0  0  0  0  0  0  0  0  # atno 10167 bound_to 10162
  156.4011  130.4390  149.7321 H   0  0  0  0  0  0  0  0  0  0  0  0  # atno 10718 bound_to 10713
  154.5893  135.2843  155.0652 H   0  0  0  0  0  0  0  0  0  0  0  0  # atno 10763 bound_to 10752
  154.1958  135.6433  153.5077 H   0  0  0  0  0  0  0  0  0  0  0  0  # atno 10764 bound_to 10752
  153.0115  135.5457  154.6574 H   0  0  0  0  0  0  0  0  0  0  0  0  # atno 10765 bound_to 10752
  140.8102  134.2754  157.4944 H   0  0  0  0  0  0  0  0  0  0  0  0  # atno 11005 bound_to 11000
  146.1032  140.7519  142.9539 LP  0  0  0  0  0  0  0  0  0  0  0  0  # atno 17320 bound_to 7965
  144.7052  140.3820  143.7124 LP  0  0  0  0  0  0  0  0  0  0  0  0  # atno 17321 bound_to 7965
  140.6193  143.9288  150.6513 LP  0  0  0  0  0  0  0  0  0  0  0  0  # atno 17342 bound_to 10162
  140.2557  143.3561  152.1367 LP  0  0  0  0  0  0  0  0  0  0  0  0  # atno 17343 bound_to 10162
  156.4337  130.7827  151.2848 LP  0  0  0  0  0  0  0  0  0  0  0  0  # atno 17370 bound_to 10713
  157.7504  131.0146  150.3471 LP  0  0  0  0  0  0  0  0  0  0  0  0  # atno 17371 bound_to 10713
  139.8715  134.9478  156.3979 LP  0  0  0  0  0  0  0  0  0  0  0  0  # atno 17394 bound_to 11000
  140.9206  133.7648  155.9901 LP  0  0  0  0  0  0  0  0  0  0  0  0  # atno 17395 bound_to 11000

$$$$
