AV-unprocessed.smi:2760|AV-procd|sdf|10630|dock10
  -GOLD-   2272015 83D 1   1.00000     0.00000
 Structure written by MMmdl.
 31 32  0  0  0  0  0  0  0  0  2 V2000
  152.7475  139.1494  155.6806 O   0  0  0  0  0  0  0  0  0  0  0  0
  151.8969  140.0188  155.8587 C   0  0  0  0  0  0  0  0  0  0  0  0
  151.9879  140.8869  157.0323 C   0  0  0  0  0  0  0  0  0  0  0  0
  151.0430  141.8417  157.2222 C   0  0  0  0  0  0  0  0  0  0  0  0
  151.0874  142.7593  158.3984 C   0  0  0  0  0  0  0  0  0  0  0  0
  152.1281  143.8519  158.4998 C   0  0  0  0  0  0  0  0  0  0  0  0
  152.1720  142.6830  159.4533 C   0  0  0  0  0  0  0  0  0  0  0  0
  149.9941  141.9955  156.2953 N   0  0  0  0  0  0  0  0  0  0  0  0
  149.9350  141.2266  155.2738 C   0  0  0  0  0  0  0  0  0  0  0  0
  148.5685  141.4864  154.1265 S   0  0  0  0  0  0  0  0  0  0  0  0
  147.2326  142.1584  155.1590 C   0  0  0  0  0  0  0  0  0  0  0  0
  145.9012  142.1720  154.4030 C   0  0  0  0  0  0  0  0  0  0  0  0
  145.0238  143.0969  155.0230 O   0  0  0  0  0  0  0  0  0  0  0  0
  144.7765  144.2396  154.2190 C   0  0  0  0  0  0  0  0  0  0  0  0
  143.7062  145.1151  154.8817 C   0  0  0  0  0  0  0  0  0  0  0  0
  143.5117  146.2057  154.1413 F   0  0  0  0  0  0  0  0  0  0  0  0
  142.5549  144.4497  154.9721 F   0  0  0  0  0  0  0  0  0  0  0  0
  144.1039  145.4896  156.0973 F   0  0  0  0  0  0  0  0  0  0  0  0
  150.8499  140.2275  155.0096 N   0  5  0  0  0  0  0  0  0  0  0  0
  152.7990  140.7625  157.7347 H   0  0  0  0  0  0  0  0  0  0  0  0
  150.0927  143.0101  158.7629 H   0  0  0  0  0  0  0  0  0  0  0  0
  152.8944  143.8991  157.7285 H   0  0  0  0  0  0  0  0  0  0  0  0
  151.8073  144.8129  158.8960 H   0  0  0  0  0  0  0  0  0  0  0  0
  151.8794  142.8675  160.4847 H   0  0  0  0  0  0  0  0  0  0  0  0
  152.9755  141.9609  159.3231 H   0  0  0  0  0  0  0  0  0  0  0  0
  147.4968  143.1699  155.4696 H   0  0  0  0  0  0  0  0  0  0  0  0
  147.1380  141.5533  156.0612 H   0  0  0  0  0  0  0  0  0  0  0  0
  146.0644  142.4538  153.3616 H   0  0  0  0  0  0  0  0  0  0  0  0
  145.4598  141.1742  154.4105 H   0  0  0  0  0  0  0  0  0  0  0  0
  145.6963  144.8125  154.0902 H   0  0  0  0  0  0  0  0  0  0  0  0
  144.4421  143.9312  153.2274 H   0  0  0  0  0  0  0  0  0  0  0  0
  1  2  2  0  0  0  0
  2 19  1  0  0  0  0
  2  3  1  0  0  0  0
  3 20  1  0  0  0  0
  3  4  2  0  0  0  0
  4  5  1  0  0  0  0
  4  8  1  0  0  0  0
  5  7  1  0  0  0  0
  5  6  1  0  0  0  0
  5 21  1  0  0  0  0
  6  7  1  0  0  0  0
  6 22  1  0  0  0  0
  6 23  1  0  0  0  0
  7 24  1  0  0  0  0
  7 25  1  0  0  0  0
  8  9  2  0  0  0  0
  9 10  1  0  0  0  0
  9 19  1  0  0  0  0
 10 11  1  0  0  0  0
 11 12  1  0  0  0  0
 11 26  1  0  0  0  0
 11 27  1  0  0  0  0
 12 13  1  0  0  0  0
 12 28  1  0  0  0  0
 12 29  1  0  0  0  0
 13 14  1  0  0  0  0
 14 15  1  0  0  0  0
 14 30  1  0  0  0  0
 14 31  1  0  0  0  0
 15 16  1  0  0  0  0
 15 17  1  0  0  0  0
 15 18  1  0  0  0  0
M  CHG  1  19  -1
M  END
> <s_m_source_file>
AV-unprocessed.smi

> <i_m_source_file_index>
2760

> <i_lp_mmshare_version>
43012

> <i_f3d_flags>
0

> <s_epik_input>
W09IXWMxW2NIXWMoW0NIXTJbQ0gyXVtDSDJdMiluYyhuMSlTW0NIMl1bQ0gyXU9bQ0gyXUMoRikoRilG

> <s_epik_cmdline>
J2VwaWtfcHl0aG9uJywgJy1waCcsICc3LjAnLCAnLXRuJywgJzgnLCAnLW1hJywgJzIwMCcsICctbWV0YWxfYmluZGluZycsICctaW1hZScsICc8aW5maWxlLm1hZT4nLCAnLW9tYWUnLCAnPG91dGZpbGUubWFlPic=

> <r_lp_tautomer_probability>
1

> <r_epik_Ionization_Penalty>
4.02042

> <r_epik_Ionization_Penalty_Charging>
0.00362968

> <r_epik_Ionization_Penalty_Neutral>
4.01679

> <r_epik_State_Penalty>
2.30798

> <r_epik_Charging_Adjusted_Penalty>
2.31161

> <i_epik_Tot_Q>
-1

> <i_epik_Tot_abs_Q>
1

> <r_epik_Metal_State_Penalty>
0.234281

> <b_epik_Metal_Only>
0

> <s_lp_Force_Field>
OPLS_2005

> <r_lp_Energy>
16.4735

> <b_lp_Chiralities_Consistent>
1

> <s_lp_Variant>
AV-unprocessed.smi:2760-3

> <Gold.Version>
5.8.1

> <Gold.Id.Protein>
6NUR|6NUR_protein|mol2

> <Gold.PLP.Fitness>
41.5602

> <Gold.PLP.PLP>
-37.3572

> <Gold.PLP.part.hbond>
-2.0000

> <Gold.PLP.part.metal>
0.0000

> <Gold.PLP.part.buried>
-3.8228

> <Gold.PLP.part.nonpolar>
-31.9758

> <Gold.PLP.part.repulsive>
0.9974

> <Gold.PLP.ligand.clash>
0.0000

> <Gold.PLP.ligand.torsion>
0.9931

> <Gold.PLP.Chemscore.Hbond>
2.0000

> <Gold.PLP.Chemscore.CHOScore>
0.0000

> <Gold.PLP.Chemscore.Metal>
0.0000

> <Gold.Chemscore.Hbonds>
donor molecule, donor type, donor heavy atom, donor atom, acceptor molecule, acceptor atom, score
      P1  H  7989  7998       L1    19  1.00
      P1  H  7997  8009       L1     1  1.00

> <Gold.PLP.Chemscore.Internal.Correction>
0.1892

> <Gold.Rescore>
     Score         DG    S(hbond)    S(metal)    S(lipo)     H(rot)  DE(clash)    DE(int)     intcor
     10.02     -11.41       1.08        0.00      74.28       2.48       0.30       1.09       ----

> <Gold.Chemscore.Fitness>
10.0163

> <Gold.Chemscore.DG>
-11.4052

> <Gold.Chemscore.ZeroCoef>
-5.4800

> <Gold.Chemscore.Hbond>
1.0754

> <Gold.Chemscore.Metal>
0.0000

> <Gold.Chemscore.Lipo>
74.2785

> <Gold.Chemscore.Internal_Hbond>
0.0000

> <Gold.Chemscore.DEClash>
0.2961

> <Gold.Chemscore.DEInternal>
1.0928

> <Gold.Chemscore.Rot>
2.4833

> <Gold.Chemscore.Internal.Correction>
   9.000000E+99

> <Gold.Chemscore.Hbonds>
donor molecule, donor type, donor heavy atom, donor atom, acceptor molecule, acceptor atom, score
      P1  H  7989  7998       L1    19  0.13
      P1  H  7997  8009       L1     1  0.25

> <Gold.Chemscore.Hbond.Weighted>
-3.5919

> <Gold.Chemscore.Metal.Weighted>
-0.0000

> <Gold.Chemscore.Lipo.Weighted>
-8.6906

> <Gold.Chemscore.Internal_Hbond.Weighted>
0.0000

> <Gold.Chemscore.DEClash.Weighted>
0.2961

> <Gold.Chemscore.DEInternal.Weighted>
1.0928

> <Gold.Chemscore.Rot.Weighted>
6.3572

> <Gold.Chemscore.Internal.Correction.Weighted>
   9.000000E+99

> <Gold.Protein.RotatedTorsions>
[ 6907 6896 6895 6894 ] final   12.58 input  -60.11 | X-H torsion
[ 7974 7965 7964 7962 ] final  127.66 input  175.53 | X-H torsion
[ 8008 7997 7996 7995 ] final -160.31 input   59.86 | X-H torsion
[ 10167 10162 10161 10158 ] final   23.64 input  -65.29 | X-H torsion
[ 10718 10713 10712 10709 ] final  -23.90 input   66.30 | X-H torsion
[ 10763 10752 10751 10750 ] final   57.25 input  -60.55 | X-H torsion
[ 11005 11000 10999 10996 ] final   19.03 input  -57.11 | X-H torsion

> <Gold.Protein.ActiveResidues>
 VAL166  LYS551  ARG553  GLY616  TRP617  ASP618  TYR619  PRO620  LYS621  CYS622 
 ASP623  PHE694  ASN695  SER759  ASP760  ASP761  ALA762  ILE779  LEU786  VAL792 
 PHE793  MET794  SER795  GLU796  ALA797  LYS798  CYS799  TRP800  GLU811  SER814 

> <Gold.Protein.RotatedAtoms>
  151.7727  135.0782  160.0361 H   0  0  0  0  0  0  0  0  0  0  0  0  # atno 6907 bound_to 6896
  152.3278  133.5920  159.5797 H   0  0  0  0  0  0  0  0  0  0  0  0  # atno 6908 bound_to 6896
  150.7405  133.9830  159.3624 H   0  0  0  0  0  0  0  0  0  0  0  0  # atno 6909 bound_to 6896
  145.0481  139.3906  143.5068 H   0  0  0  0  0  0  0  0  0  0  0  0  # atno 7974 bound_to 7965
  155.7755  140.0858  157.2086 H   0  0  0  0  0  0  0  0  0  0  0  0  # atno 8008 bound_to 7997
  154.3993  140.1517  156.3049 H   0  0  0  0  0  0  0  0  0  0  0  0  # atno 8009 bound_to 7997
  155.8705  140.3426  155.5820 H   0  0  0  0  0  0  0  0  0  0  0  0  # atno 8010 bound_to 7997
  140.5253  143.9934  150.6437 H   0  0  0  0  0  0  0  0  0  0  0  0  # atno 10167 bound_to 10162
  156.4849  130.4553  149.6790 H   0  0  0  0  0  0  0  0  0  0  0  0  # atno 10718 bound_to 10713
  152.9846  135.5648  154.5360 H   0  0  0  0  0  0  0  0  0  0  0  0  # atno 10763 bound_to 10752
  154.4823  135.2789  155.1563 H   0  0  0  0  0  0  0  0  0  0  0  0  # atno 10764 bound_to 10752
  154.3067  135.6296  153.5501 H   0  0  0  0  0  0  0  0  0  0  0  0  # atno 10765 bound_to 10752
  140.4182  134.1546  155.7671 H   0  0  0  0  0  0  0  0  0  0  0  0  # atno 11005 bound_to 11000
  146.3515  140.0116  142.8666 LP  0  0  0  0  0  0  0  0  0  0  0  0  # atno 17320 bound_to 7965
  145.1562  140.9649  143.4404 LP  0  0  0  0  0  0  0  0  0  0  0  0  # atno 17321 bound_to 7965
  140.3294  143.3087  152.0703 LP  0  0  0  0  0  0  0  0  0  0  0  0  # atno 17342 bound_to 10162
  139.4936  144.6519  151.6656 LP  0  0  0  0  0  0  0  0  0  0  0  0  # atno 17343 bound_to 10162
  156.3485  130.7419  151.2375 LP  0  0  0  0  0  0  0  0  0  0  0  0  # atno 17370 bound_to 10713
  157.7480  131.0384  150.4500 LP  0  0  0  0  0  0  0  0  0  0  0  0  # atno 17371 bound_to 10713
  141.1794  133.8445  157.1309 LP  0  0  0  0  0  0  0  0  0  0  0  0  # atno 17394 bound_to 11000
  140.0219  134.9942  157.0608 LP  0  0  0  0  0  0  0  0  0  0  0  0  # atno 17395 bound_to 11000

$$$$
