AV-unprocessed.smi:421|AV-procd|sdf|2535|dock6
  -GOLD-   2262022493D 1   1.00000     0.00000
 Structure written by MMmdl.
 43 45  0  0  0  0  0  0  0  0  1 V2000
  151.0860  142.2109  156.5843 C   0  0  0  0  0  0  0  0  0  0  0  0
  151.7503  142.1144  157.8785 N   0  0  0  0  0  0  0  0  0  0  0  0
  152.4986  141.0823  158.3328 C   0  0  0  0  0  0  0  0  0  0  0  0
  152.7497  140.0443  157.7206 O   0  0  0  0  0  0  0  0  0  0  0  0
  152.9287  141.3922  159.5788 N   0  0  0  0  0  0  0  0  0  0  0  0
  153.7837  140.5693  160.4327 C   0  0  0  0  0  0  0  0  0  0  0  0
  155.1931  140.3985  159.8305 C   0  0  1  0  0  0  0  0  0  0  0  0
  156.1783  140.7895  160.7650 O   0  0  0  0  0  0  0  0  0  0  0  0
  155.4993  138.9533  159.4050 C   0  0  0  0  0  0  0  0  0  0  0  0
  155.4505  138.0907  160.5310 O   0  0  0  0  0  0  0  0  0  0  0  0
  154.2791  137.2937  160.5610 C   0  0  0  0  0  0  0  0  0  0  0  0
  154.2654  136.3820  161.7709 C   0  0  0  0  0  0  0  0  0  0  0  0
  154.5783  135.0131  161.6344 C   0  0  0  0  0  0  0  0  0  0  0  0
  154.5656  134.1693  162.7621 C   0  0  0  0  0  0  0  0  0  0  0  0
  154.2410  134.6911  164.0294 C   0  0  0  0  0  0  0  0  0  0  0  0
  153.9305  136.0577  164.1691 C   0  0  0  0  0  0  0  0  0  0  0  0
  153.9431  136.9022  163.0417 C   0  0  0  0  0  0  0  0  0  0  0  0
  152.4436  142.6608  159.9297 C   0  0  0  0  0  0  0  0  0  0  0  0
  152.6117  143.4286  161.0956 C   0  0  0  0  0  0  0  0  0  0  0  0
  151.9801  144.6941  161.1329 C   0  0  0  0  0  0  0  0  0  0  0  0
  151.2124  145.1568  160.0327 C   0  0  0  0  0  0  0  0  0  0  0  0
  151.0609  144.3645  158.8707 C   0  0  0  0  0  0  0  0  0  0  0  0
  151.6999  143.1127  158.8598 C   0  0  0  0  0  0  0  0  0  0  0  0
  151.4717  141.4780  155.8744 H   0  0  0  0  0  0  0  0  0  0  0  0
  151.2329  143.2008  156.1515 H   0  0  0  0  0  0  0  0  0  0  0  0
  150.0151  142.0428  156.6995 H   0  0  0  0  0  0  0  0  0  0  0  0
  153.8324  140.9756  161.4435 H   0  0  0  0  0  0  0  0  0  0  0  0
  153.3119  139.5904  160.5333 H   0  0  0  0  0  0  0  0  0  0  0  0
  155.3045  141.0352  158.9518 H   0  0  0  0  0  0  0  0  0  0  0  0
  157.0131  140.4553  160.4742 H   0  0  0  0  0  0  0  0  0  0  0  0
  154.7504  138.6287  158.6808 H   0  0  0  0  0  0  0  0  0  0  0  0
  156.4700  138.8943  158.9094 H   0  0  0  0  0  0  0  0  0  0  0  0
  153.3936  137.9310  160.5888 H   0  0  0  0  0  0  0  0  0  0  0  0
  154.2126  136.6926  159.6526 H   0  0  0  0  0  0  0  0  0  0  0  0
  154.8299  134.6066  160.6657 H   0  0  0  0  0  0  0  0  0  0  0  0
  154.8050  133.1215  162.6549 H   0  0  0  0  0  0  0  0  0  0  0  0
  154.2311  134.0436  164.8938 H   0  0  0  0  0  0  0  0  0  0  0  0
  153.6823  136.4584  165.1408 H   0  0  0  0  0  0  0  0  0  0  0  0
  153.7056  137.9500  163.1539 H   0  0  0  0  0  0  0  0  0  0  0  0
  153.1985  143.0740  161.9297 H   0  0  0  0  0  0  0  0  0  0  0  0
  152.0841  145.3159  162.0099 H   0  0  0  0  0  0  0  0  0  0  0  0
  150.7389  146.1263  160.0824 H   0  0  0  0  0  0  0  0  0  0  0  0
  150.4796  144.7105  158.0289 H   0  0  0  0  0  0  0  0  0  0  0  0
  1  2  1  0  0  0  0
  1 24  1  0  0  0  0
  1 25  1  0  0  0  0
  1 26  1  0  0  0  0
  2 23  1  0  0  0  0
  2  3  1  0  0  0  0
  3  4  2  0  0  0  0
  3  5  1  0  0  0  0
  5  6  1  0  0  0  0
  5 18  1  0  0  0  0
  6  7  1  0  0  0  0
  6 27  1  0  0  0  0
  6 28  1  0  0  0  0
  7  8  1  0  0  0  0
  7  9  1  0  0  0  0
  7 29  1  0  0  0  0
  8 30  1  0  0  0  0
  9 10  1  0  0  0  0
  9 31  1  0  0  0  0
  9 32  1  0  0  0  0
 10 11  1  0  0  0  0
 11 12  1  0  0  0  0
 11 33  1  0  0  0  0
 11 34  1  0  0  0  0
 12 17  1  0  0  0  0
 12 13  2  0  0  0  0
 13 14  1  0  0  0  0
 13 35  1  0  0  0  0
 14 15  2  0  0  0  0
 14 36  1  0  0  0  0
 15 16  1  0  0  0  0
 15 37  1  0  0  0  0
 16 17  2  0  0  0  0
 16 38  1  0  0  0  0
 17 39  1  0  0  0  0
 18 23  2  0  0  0  0
 18 19  1  0  0  0  0
 19 20  2  0  0  0  0
 19 40  1  0  0  0  0
 20 21  1  0  0  0  0
 20 41  1  0  0  0  0
 21 22  2  0  0  0  0
 21 42  1  0  0  0  0
 22 23  1  0  0  0  0
 22 43  1  0  0  0  0
M  END
> <s_m_source_file>
AV-unprocessed.smi

> <i_m_source_file_index>
421

> <i_lp_mmshare_version>
43012

> <i_f3d_flags>
0

> <s_epik_input>
W2NIXTFbY0hdW2NIXVtjSF1jKGMxMiluKFtDSDNdKWMoPU8pbjJbQ0gyXVtDQEhdKFtPSF0pW0NIMl1PW0NIMl1jM1tjSF1bY0hdW2NIXVtjSF1bY0hdMw==

> <s_epik_cmdline>
J2VwaWtfcHl0aG9uJywgJy1waCcsICc3LjAnLCAnLXRuJywgJzgnLCAnLW1hJywgJzIwMCcsICctbWV0YWxfYmluZGluZycsICctaW1hZScsICc8aW5maWxlLm1hZT4nLCAnLW9tYWUnLCAnPG91dGZpbGUubWFlPic=

> <r_lp_tautomer_probability>
1

> <r_epik_Ionization_Penalty>
1.0795e-06

> <r_epik_Ionization_Penalty_Charging>
2.82452e-09

> <r_epik_Ionization_Penalty_Neutral>
1.07667e-06

> <r_epik_State_Penalty>
-0

> <r_epik_Charging_Adjusted_Penalty>
2.82452e-09

> <i_epik_Tot_Q>
0

> <i_epik_Tot_abs_Q>
0

> <r_epik_Metal_State_Penalty>
-0

> <b_epik_Metal_Only>
0

> <s_lp_Force_Field>
OPLS_2005

> <r_lp_Energy>
47.6123

> <b_lp_Chiralities_Consistent>
1

> <s_lp_Variant>
AV-unprocessed.smi:421-2

> <Gold.Version>
5.8.1

> <Gold.Id.Protein>
6NUR|6NUR_protein|mol2

> <Gold.PLP.Fitness>
54.4217

> <Gold.PLP.PLP>
-53.9335

> <Gold.PLP.part.hbond>
-2.0000

> <Gold.PLP.part.metal>
0.0000

> <Gold.PLP.part.buried>
-5.7915

> <Gold.PLP.part.nonpolar>
-45.8447

> <Gold.PLP.part.repulsive>
0.0000

> <Gold.PLP.ligand.clash>
0.0000

> <Gold.PLP.ligand.torsion>
1.3141

> <Gold.PLP.Chemscore.Hbond>
1.0000

> <Gold.PLP.Chemscore.CHOScore>
0.0000

> <Gold.PLP.Chemscore.Metal>
0.0000

> <Gold.Chemscore.Hbonds>
donor molecule, donor type, donor heavy atom, donor atom, acceptor molecule, acceptor atom, score
      P1  H  7997  8008       L1     4  1.00

> <Gold.PLP.Chemscore.Internal.Correction>
0.1163

> <Gold.Rescore>
     Score         DG    S(hbond)    S(metal)    S(lipo)     H(rot)  DE(clash)    DE(int)     intcor
     17.83     -20.50       0.90        0.00     151.22       2.21       1.44       1.22       ----

> <Gold.Chemscore.Fitness>
17.8319

> <Gold.Chemscore.DG>
-20.5007

> <Gold.Chemscore.ZeroCoef>
-5.4800

> <Gold.Chemscore.Hbond>
0.8952

> <Gold.Chemscore.Metal>
0.0000

> <Gold.Chemscore.Lipo>
151.2221

> <Gold.Chemscore.Internal_Hbond>
0.0000

> <Gold.Chemscore.DEClash>
1.4449

> <Gold.Chemscore.DEInternal>
1.2239

> <Gold.Chemscore.Rot>
2.2119

> <Gold.Chemscore.Internal.Correction>
   9.000000E+99

> <Gold.Chemscore.Hbonds>
donor molecule, donor type, donor heavy atom, donor atom, acceptor molecule, acceptor atom, score
      P1  H  7997  8008       L1     4  0.84

> <Gold.Chemscore.Hbond.Weighted>
-2.9901

> <Gold.Chemscore.Metal.Weighted>
-0.0000

> <Gold.Chemscore.Lipo.Weighted>
-17.6930

> <Gold.Chemscore.Internal_Hbond.Weighted>
0.0000

> <Gold.Chemscore.DEClash.Weighted>
1.4449

> <Gold.Chemscore.DEInternal.Weighted>
1.2239

> <Gold.Chemscore.Rot.Weighted>
5.6623

> <Gold.Chemscore.Internal.Correction.Weighted>
   9.000000E+99

> <Gold.Protein.RotatedTorsions>
[ 6907 6896 6895 6894 ] final   23.65 input  -60.11 | X-H torsion
[ 7974 7965 7964 7962 ] final -155.39 input  175.53 | X-H torsion
[ 8008 7997 7996 7995 ] final  -62.51 input   59.86 | X-H torsion
[ 10167 10162 10161 10158 ] final -101.40 input  -65.29 | X-H torsion
[ 10718 10713 10712 10709 ] final  -41.51 input   66.30 | X-H torsion
[ 10763 10752 10751 10750 ] final  129.39 input  -60.55 | X-H torsion
[ 11005 11000 10999 10996 ] final  -43.09 input  -57.11 | X-H torsion

> <Gold.Protein.ActiveResidues>
 VAL166  LYS551  ARG553  GLY616  TRP617  ASP618  TYR619  PRO620  LYS621  CYS622 
 ASP623  PHE694  ASN695  SER759  ASP760  ASP761  ALA762  ILE779  LEU786  VAL792 
 PHE793  MET794  SER795  GLU796  ALA797  LYS798  CYS799  TRP800  GLU811  SER814 

> <Gold.Protein.RotatedAtoms>
  151.9456  135.0193  160.0538 H   0  0  0  0  0  0  0  0  0  0  0  0  # atno 6907 bound_to 6896
  152.1998  133.4828  159.5060 H   0  0  0  0  0  0  0  0  0  0  0  0  # atno 6908 bound_to 6896
  150.6952  134.1522  159.4187 H   0  0  0  0  0  0  0  0  0  0  0  0  # atno 6909 bound_to 6896
  144.7643  140.4256  143.5954 H   0  0  0  0  0  0  0  0  0  0  0  0  # atno 7974 bound_to 7965
  154.4504  140.0994  156.6599 H   0  0  0  0  0  0  0  0  0  0  0  0  # atno 8008 bound_to 7997
  155.5305  140.3481  155.4407 H   0  0  0  0  0  0  0  0  0  0  0  0  # atno 8009 bound_to 7997
  156.0667  140.1339  156.9866 H   0  0  0  0  0  0  0  0  0  0  0  0  # atno 8010 bound_to 7997
  140.2417  143.3534  152.0795 H   0  0  0  0  0  0  0  0  0  0  0  0  # atno 10167 bound_to 10162
  156.2696  130.4205  149.8452 H   0  0  0  0  0  0  0  0  0  0  0  0  # atno 10718 bound_to 10713
  153.7411  135.3224  155.3304 H   0  0  0  0  0  0  0  0  0  0  0  0  # atno 10763 bound_to 10752
  154.8295  135.4545  154.1026 H   0  0  0  0  0  0  0  0  0  0  0  0  # atno 10764 bound_to 10752
  153.2201  135.6947  153.8092 H   0  0  0  0  0  0  0  0  0  0  0  0  # atno 10765 bound_to 10752
  141.0360  133.6799  156.2685 H   0  0  0  0  0  0  0  0  0  0  0  0  # atno 11005 bound_to 11000
  145.6521  139.1566  143.2856 LP  0  0  0  0  0  0  0  0  0  0  0  0  # atno 17320 bound_to 7965
  146.1735  140.6609  142.9222 LP  0  0  0  0  0  0  0  0  0  0  0  0  # atno 17321 bound_to 7965
  139.5075  144.6833  151.5952 LP  0  0  0  0  0  0  0  0  0  0  0  0  # atno 17342 bound_to 10162
  140.6108  143.9439  150.6452 LP  0  0  0  0  0  0  0  0  0  0  0  0  # atno 17343 bound_to 10162
  156.5938  130.8517  151.3415 LP  0  0  0  0  0  0  0  0  0  0  0  0  # atno 17370 bound_to 10713
  157.7279  130.9650  150.1720 LP  0  0  0  0  0  0  0  0  0  0  0  0  # atno 17371 bound_to 10713
  140.6321  134.5253  157.5560 LP  0  0  0  0  0  0  0  0  0  0  0  0  # atno 17394 bound_to 11000
  139.9241  134.8090  156.1121 LP  0  0  0  0  0  0  0  0  0  0  0  0  # atno 17395 bound_to 11000

$$$$
