AV-unprocessed.smi:3194|AV-procd|sdf|12212|dock8
  -GOLD-   2272018 53D 1   1.00000     0.00000
 Structure written by MMmdl.
 27 27  0  0  0  0  0  0  0  0  2 V2000
  148.5828  140.7410  154.9571 C   0  0  0  0  0  0  0  0  0  0  0  0
  150.0688  140.4446  154.7079 C   0  0  2  0  0  0  0  0  0  0  0  0
  150.3304  138.9273  154.6341 C   0  0  0  0  0  0  0  0  0  0  0  0
  149.6277  138.3349  153.5590 O   0  0  0  0  0  0  0  0  0  0  0  0
  150.8527  141.0255  155.7999 N   0  5  0  0  0  0  0  0  0  0  0  0
  151.6406  140.3068  156.6516 C   0  0  0  0  0  0  0  0  0  0  0  0
  152.5101  139.4630  156.4049 O   0  0  0  0  0  0  0  0  0  0  0  0
  151.3375  140.6398  158.1278 C   0  0  0  0  0  0  0  0  0  0  0  0
  150.0455  140.4049  158.3736 F   0  0  0  0  0  0  0  0  0  0  0  0
  152.0460  139.8308  158.9222 F   0  0  0  0  0  0  0  0  0  0  0  0
  151.6556  142.1045  158.4290 C   0  0  0  0  0  0  0  0  0  0  0  0
  152.6832  142.4554  159.3350 C   0  0  0  0  0  0  0  0  0  0  0  0
  152.9485  143.8190  159.5620 C   0  0  0  0  0  0  0  0  0  0  0  0
  152.1807  144.7826  158.8813 C   0  0  0  0  0  0  0  0  0  0  0  0
  151.1784  144.3359  157.9980 C   0  0  0  0  0  0  0  0  0  0  0  0
  150.9157  143.0314  157.7730 N   0  0  0  0  0  0  0  0  0  0  0  0
  150.3232  140.8744  153.7374 H   0  0  0  0  0  0  0  0  0  0  0  0
  147.9641  140.3324  154.1578 H   0  0  0  0  0  0  0  0  0  0  0  0
  148.3969  141.8150  154.9975 H   0  0  0  0  0  0  0  0  0  0  0  0
  148.2401  140.3066  155.8970 H   0  0  0  0  0  0  0  0  0  0  0  0
  151.3955  138.7195  154.5238 H   0  0  0  0  0  0  0  0  0  0  0  0
  150.0053  138.4435  155.5555 H   0  0  0  0  0  0  0  0  0  0  0  0
  149.6170  138.9436  152.8372 H   0  0  0  0  0  0  0  0  0  0  0  0
  153.2662  141.6964  159.8352 H   0  0  0  0  0  0  0  0  0  0  0  0
  153.7297  144.1202  160.2442 H   0  0  0  0  0  0  0  0  0  0  0  0
  152.3572  145.8374  159.0293 H   0  0  0  0  0  0  0  0  0  0  0  0
  150.5705  145.0464  157.4576 H   0  0  0  0  0  0  0  0  0  0  0  0
  1  2  1  0  0  0  0
  1 18  1  0  0  0  0
  1 19  1  0  0  0  0
  1 20  1  0  0  0  0
  2 17  1  0  0  0  0
  2  3  1  0  0  0  0
  2  5  1  0  0  0  0
  3  4  1  0  0  0  0
  3 21  1  0  0  0  0
  3 22  1  0  0  0  0
  4 23  1  0  0  0  0
  5  6  1  0  0  0  0
  6  7  2  0  0  0  0
  6  8  1  0  0  0  0
  8  9  1  0  0  0  0
  8 10  1  0  0  0  0
  8 11  1  0  0  0  0
 11 16  1  0  0  0  0
 11 12  2  0  0  0  0
 12 13  1  0  0  0  0
 12 24  1  0  0  0  0
 13 14  2  0  0  0  0
 13 25  1  0  0  0  0
 14 15  1  0  0  0  0
 14 26  1  0  0  0  0
 15 16  2  0  0  0  0
 15 27  1  0  0  0  0
M  CHG  1   5  -1
M  END
> <s_m_source_file>
AV-unprocessed.smi

> <i_m_source_file_index>
3194

> <i_lp_mmshare_version>
43012

> <i_f3d_flags>
0

> <s_epik_input>
W09IXVtDSDJdW0NASF0oW0NIM10pW05IXUMoPU8pQyhGKShGKWMxW2NIXVtjSF1bY0hdW2NIXW4x

> <s_epik_cmdline>
J2VwaWtfcHl0aG9uJywgJy1waCcsICc3LjAnLCAnLXRuJywgJzgnLCAnLW1hJywgJzIwMCcsICctbWV0YWxfYmluZGluZycsICctaW1hZScsICc8aW5maWxlLm1hZT4nLCAnLW9tYWUnLCAnPG91dGZpbGUubWFlPic=

> <r_lp_tautomer_probability>
1

> <r_epik_Ionization_Penalty>
5.78943

> <r_epik_Ionization_Penalty_Charging>
5.78942

> <r_epik_Ionization_Penalty_Neutral>
4.0054e-06

> <r_epik_State_Penalty>
5.78939

> <r_epik_Charging_Adjusted_Penalty>
11.5788

> <i_epik_Tot_Q>
-1

> <i_epik_Tot_abs_Q>
1

> <r_epik_Metal_State_Penalty>
1.76064

> <b_epik_Metal_Only>
1

> <s_lp_Force_Field>
OPLS_2005

> <r_lp_Energy>
16.8834

> <b_lp_Chiralities_Consistent>
1

> <s_lp_Variant>
AV-unprocessed.smi:3194-4

> <Gold.Version>
5.8.1

> <Gold.Id.Protein>
6NUR|6NUR_protein|mol2

> <Gold.PLP.Fitness>
43.2487

> <Gold.PLP.PLP>
-35.9875

> <Gold.PLP.part.hbond>
-4.0000

> <Gold.PLP.part.metal>
0.0000

> <Gold.PLP.part.buried>
-2.2371

> <Gold.PLP.part.nonpolar>
-30.5993

> <Gold.PLP.part.repulsive>
0.1605

> <Gold.PLP.ligand.clash>
0.6470

> <Gold.PLP.ligand.torsion>
0.5672

> <Gold.PLP.Chemscore.Hbond>
2.0000

> <Gold.PLP.Chemscore.CHOScore>
1.0000

> <Gold.PLP.Chemscore.Metal>
0.0000

> <Gold.Chemscore.Hbonds>
donor molecule, donor type, donor heavy atom, donor atom, acceptor molecule, acceptor atom, score
      L1  H     4    23       P1  7957  1.00
      P1  H  7997  8008       L1     7  1.00
      L1  C    15    27       P1  8028  0.90
      L1  C    15    27       P1  8029  0.03

> <Gold.PLP.Chemscore.Internal.Correction>
0.0426

> <Gold.Rescore>
     Score         DG    S(hbond)    S(metal)    S(lipo)     H(rot)  DE(clash)    DE(int)     intcor
     12.05     -15.19       1.91        0.00      81.70       2.43       0.03       3.10       ----

> <Gold.Chemscore.Fitness>
12.0545

> <Gold.Chemscore.DG>
-15.1878

> <Gold.Chemscore.ZeroCoef>
-5.4800

> <Gold.Chemscore.Hbond>
1.9053

> <Gold.Chemscore.Metal>
0.0000

> <Gold.Chemscore.Lipo>
81.7004

> <Gold.Chemscore.Internal_Hbond>
0.0000

> <Gold.Chemscore.DEClash>
0.0348

> <Gold.Chemscore.DEInternal>
3.0985

> <Gold.Chemscore.Rot>
2.4277

> <Gold.Chemscore.Internal.Correction>
   9.000000E+99

> <Gold.Chemscore.Hbonds>
donor molecule, donor type, donor heavy atom, donor atom, acceptor molecule, acceptor atom, score
      L1  H     4    23       P1  7957  0.91
      P1  H  7997  8008       L1     7  0.83

> <Gold.Chemscore.Hbond.Weighted>
-6.3638

> <Gold.Chemscore.Metal.Weighted>
-0.0000

> <Gold.Chemscore.Lipo.Weighted>
-9.5589

> <Gold.Chemscore.Internal_Hbond.Weighted>
0.0000

> <Gold.Chemscore.DEClash.Weighted>
0.0348

> <Gold.Chemscore.DEInternal.Weighted>
3.0985

> <Gold.Chemscore.Rot.Weighted>
6.2149

> <Gold.Chemscore.Internal.Correction.Weighted>
   9.000000E+99

> <Gold.Protein.RotatedTorsions>
[ 6907 6896 6895 6894 ] final -166.10 input  -60.11 | X-H torsion
[ 7974 7965 7964 7962 ] final  106.12 input  175.53 | X-H torsion
[ 8008 7997 7996 7995 ] final  -26.10 input   59.86 | X-H torsion
[ 10167 10162 10161 10158 ] final  -61.03 input  -65.29 | X-H torsion
[ 10718 10713 10712 10709 ] final -168.36 input   66.30 | X-H torsion
[ 10763 10752 10751 10750 ] final   19.23 input  -60.55 | X-H torsion
[ 11005 11000 10999 10996 ] final   42.63 input  -57.11 | X-H torsion

> <Gold.Protein.ActiveResidues>
 VAL166  LYS551  ARG553  GLY616  TRP617  ASP618  TYR619  PRO620  LYS621  CYS622 
 ASP623  PHE694  ASN695  SER759  ASP760  ASP761  ALA762  ILE779  LEU786  VAL792 
 PHE793  MET794  SER795  GLU796  ALA797  LYS798  CYS799  TRP800  GLU811  SER814 

> <Gold.Protein.RotatedAtoms>
  151.4382  133.3651  159.2777 H   0  0  0  0  0  0  0  0  0  0  0  0  # atno 6907 bound_to 6896
  150.9176  134.8595  159.7478 H   0  0  0  0  0  0  0  0  0  0  0  0  # atno 6908 bound_to 6896
  152.4965  134.4317  159.9566 H   0  0  0  0  0  0  0  0  0  0  0  0  # atno 6909 bound_to 6896
  145.3107  139.2541  143.3764 H   0  0  0  0  0  0  0  0  0  0  0  0  # atno 7974 bound_to 7965
  154.4442  140.1908  156.0722 H   0  0  0  0  0  0  0  0  0  0  0  0  # atno 8008 bound_to 7997
  156.0502  140.3309  155.7316 H   0  0  0  0  0  0  0  0  0  0  0  0  # atno 8009 bound_to 7997
  155.5568  140.0600  157.2828 H   0  0  0  0  0  0  0  0  0  0  0  0  # atno 8010 bound_to 7997
  140.6033  143.2367  151.5879 H   0  0  0  0  0  0  0  0  0  0  0  0  # atno 10167 bound_to 10162
  156.6958  130.9177  151.3074 H   0  0  0  0  0  0  0  0  0  0  0  0  # atno 10718 bound_to 10713
  153.1180  135.6712  153.9384 H   0  0  0  0  0  0  0  0  0  0  0  0  # atno 10763 bound_to 10752
  153.8908  135.3047  155.3448 H   0  0  0  0  0  0  0  0  0  0  0  0  # atno 10764 bound_to 10752
  154.7595  135.4995  153.9515 H   0  0  0  0  0  0  0  0  0  0  0  0  # atno 10765 bound_to 10752
  140.1720  134.4209  155.8251 H   0  0  0  0  0  0  0  0  0  0  0  0  # atno 11005 bound_to 11000
  146.3119  140.3643  142.8668 LP  0  0  0  0  0  0  0  0  0  0  0  0  # atno 17320 bound_to 7965
  144.9018  140.7651  143.5862 LP  0  0  0  0  0  0  0  0  0  0  0  0  # atno 17321 bound_to 7965
  139.5306  144.2927  152.1139 LP  0  0  0  0  0  0  0  0  0  0  0  0  # atno 17342 bound_to 10162
  140.2111  144.4561  150.6385 LP  0  0  0  0  0  0  0  0  0  0  0  0  # atno 17343 bound_to 10162
  157.6992  130.9314  150.0734 LP  0  0  0  0  0  0  0  0  0  0  0  0  # atno 17370 bound_to 10713
  156.1764  130.3648  149.9094 LP  0  0  0  0  0  0  0  0  0  0  0  0  # atno 17371 bound_to 10713
  141.2218  133.6960  156.7781 LP  0  0  0  0  0  0  0  0  0  0  0  0  # atno 17394 bound_to 11000
  140.2366  134.8645  157.3531 LP  0  0  0  0  0  0  0  0  0  0  0  0  # atno 17395 bound_to 11000

$$$$
