AV-unprocessed.smi:1757|AV-procd|sdf|7077|dock2
  -GOLD-   22720 8293D 1   1.00000     0.00000
 Structure written by MMmdl.
 39 40  0  0  0  0  0  0  0  0  3 V2000
  143.4246  133.6583  148.5745 C   0  0  0  0  0  0  0  0  0  0  0  0
  144.5740  133.7684  149.4979 N   0  3  2  0  0  0  0  0  0  0  0  0
  145.0207  132.4464  150.0038 C   0  0  0  0  0  0  0  0  0  0  0  0
  146.2930  132.5821  150.8570 C   0  0  0  0  0  0  0  0  0  0  0  0
  146.0825  133.5706  152.0160 C   0  0  1  0  0  0  0  0  0  0  0  0
  147.3362  133.7651  152.7398 N   0  0  0  0  0  0  0  0  0  0  0  0
  147.9771  132.8382  153.4668 C   0  0  0  0  0  0  0  0  0  0  0  0
  147.5674  131.6863  153.6086 O   0  0  0  0  0  0  0  0  0  0  0  0
  149.0922  133.3525  154.0163 N   0  0  0  0  0  0  0  0  0  0  0  0
  150.0614  132.7243  154.8166 C   0  0  0  0  0  0  0  0  0  0  0  0
  150.7994  131.6444  154.4373 C   0  0  0  0  0  0  0  0  0  0  0  0
  151.8038  131.0443  155.3067 C   0  0  0  0  0  0  0  0  0  0  0  0
  152.6372  129.8298  154.9409 C   0  0  0  0  0  0  0  0  0  0  0  0
  152.4714  128.8680  155.8481 F   0  0  0  0  0  0  0  0  0  0  0  0
  152.2573  129.3497  153.7572 F   0  0  0  0  0  0  0  0  0  0  0  0
  153.9347  130.1291  154.8772 F   0  0  0  0  0  0  0  0  0  0  0  0
  151.9123  131.7008  156.5165 C   0  0  0  0  0  0  0  0  0  0  0  0
  151.2326  132.7796  156.9632 N   0  5  0  0  0  0  0  0  0  0  0  0
  150.2917  133.3300  156.1449 C   0  0  0  0  0  0  0  0  0  0  0  0
  149.6352  134.3141  156.4879 O   0  0  0  0  0  0  0  0  0  0  0  0
  145.5786  134.9165  151.4682 C   0  0  0  0  0  0  0  0  0  0  0  0
  144.3227  134.7296  150.6004 C   0  0  0  0  0  0  0  0  0  0  0  0
  142.5485  133.2573  149.0861 H   0  0  0  0  0  0  0  0  0  0  0  0
  143.6639  133.0007  147.7382 H   0  0  0  0  0  0  0  0  0  0  0  0
  143.1646  134.6351  148.1649 H   0  0  0  0  0  0  0  0  0  0  0  0
  144.2215  131.9906  150.5907 H   0  0  0  0  0  0  0  0  0  0  0  0
  145.2167  131.7802  149.1628 H   0  0  0  0  0  0  0  0  0  0  0  0
  146.5816  131.6050  151.2470 H   0  0  0  0  0  0  0  0  0  0  0  0
  147.1168  132.9187  150.2258 H   0  0  0  0  0  0  0  0  0  0  0  0
  145.3166  133.1616  152.6776 H   0  0  0  0  0  0  0  0  0  0  0  0
  147.7511  134.6841  152.6877 H   0  0  0  0  0  0  0  0  0  0  0  0
  149.2523  134.3388  153.8725 H   0  0  0  0  0  0  0  0  0  0  0  0
  150.6741  131.2085  153.4600 H   0  0  0  0  0  0  0  0  0  0  0  0
  152.6590  131.2954  157.2326 H   0  0  0  0  0  0  0  0  0  0  0  0
  145.3599  135.5972  152.2920 H   0  0  0  0  0  0  0  0  0  0  0  0
  146.3604  135.3921  150.8739 H   0  0  0  0  0  0  0  0  0  0  0  0
  144.0223  135.6922  150.1845 H   0  0  0  0  0  0  0  0  0  0  0  0
  143.4918  134.3753  151.2127 H   0  0  0  0  0  0  0  0  0  0  0  0
  145.3401  134.1436  148.9572 H   0  0  0  0  0  0  0  0  0  0  0  0
  1  2  1  0  0  0  0
  1 23  1  0  0  0  0
  1 24  1  0  0  0  0
  1 25  1  0  0  0  0
  2 22  1  0  0  0  0
  2  3  1  0  0  0  0
  2 39  1  0  0  0  0
  3  4  1  0  0  0  0
  3 26  1  0  0  0  0
  3 27  1  0  0  0  0
  4  5  1  0  0  0  0
  4 28  1  0  0  0  0
  4 29  1  0  0  0  0
  5  6  1  0  0  0  0
  5 21  1  0  0  0  0
  5 30  1  0  0  0  0
  6  7  1  0  0  0  0
  6 31  1  0  0  0  0
  7  8  2  0  0  0  0
  7  9  1  0  0  0  0
  9 10  1  0  0  0  0
  9 32  1  0  0  0  0
 10 19  1  0  0  0  0
 10 11  2  0  0  0  0
 11 12  1  0  0  0  0
 11 33  1  0  0  0  0
 12 13  1  0  0  0  0
 12 17  2  0  0  0  0
 13 14  1  0  0  0  0
 13 15  1  0  0  0  0
 13 16  1  0  0  0  0
 17 18  1  0  0  0  0
 17 34  1  0  0  0  0
 18 19  1  0  0  0  0
 19 20  2  0  0  0  0
 21 22  1  0  0  0  0
 21 35  1  0  0  0  0
 21 36  1  0  0  0  0
 22 37  1  0  0  0  0
 22 38  1  0  0  0  0
M  CHG  1   2   1
M  CHG  1  18  -1
M  END
> <s_m_source_file>
AV-unprocessed.smi

> <i_m_source_file_index>
1757

> <i_lp_mmshare_version>
43012

> <i_f3d_flags>
0

> <s_epik_input>
W0NIM11OMVtDSDJdW0NIMl1bQ0hdKFtDSDJdW0NIMl0xKVtOSF1DKD1PKVtOSF1jMltjSF1jKEMoRikoRilGKVtjSF1bbkhdYzI9Tw==

> <s_epik_cmdline>
J2VwaWtfcHl0aG9uJywgJy1waCcsICc3LjAnLCAnLXRuJywgJzgnLCAnLW1hJywgJzIwMCcsICctbWV0YWxfYmluZGluZycsICctaW1hZScsICc8aW5maWxlLm1hZT4nLCAnLW9tYWUnLCAnPG91dGZpbGUubWFlPic=

> <r_lp_tautomer_probability>
1

> <r_epik_Ionization_Penalty>
3.04759

> <r_epik_Ionization_Penalty_Charging>
0.155898

> <r_epik_Ionization_Penalty_Neutral>
2.89169

> <r_epik_State_Penalty>
2.88714

> <r_epik_Charging_Adjusted_Penalty>
3.04304

> <i_epik_Tot_Q>
0

> <i_epik_Tot_abs_Q>
2

> <r_epik_Metal_State_Penalty>
0.445786

> <b_epik_Metal_Only>
1

> <s_lp_Force_Field>
OPLS_2005

> <r_lp_Energy>
29.3736

> <b_lp_Chiralities_Consistent>
1

> <s_lp_Variant>
AV-unprocessed.smi:1757-3

> <Gold.Version>
5.8.1

> <Gold.Id.Protein>
6NUR|6NUR_protein|mol2

> <Gold.PLP.Fitness>
44.2215

> <Gold.PLP.PLP>
-34.5429

> <Gold.PLP.part.hbond>
-2.9408

> <Gold.PLP.part.metal>
0.0000

> <Gold.PLP.part.buried>
-1.5784

> <Gold.PLP.part.nonpolar>
-30.5084

> <Gold.PLP.part.repulsive>
0.2038

> <Gold.PLP.ligand.clash>
0.0000

> <Gold.PLP.ligand.torsion>
0.6335

> <Gold.PLP.Chemscore.Hbond>
3.6468

> <Gold.PLP.Chemscore.CHOScore>
0.0000

> <Gold.PLP.Chemscore.Metal>
0.0000

> <Gold.Chemscore.Hbonds>
donor molecule, donor type, donor heavy atom, donor atom, acceptor molecule, acceptor atom, score
      L1  H     2    39       P1  7921  1.00
      L1  H     6    31       P1  7948  0.84
      P1  H  6896  6908       L1    18  0.46

> <Gold.PLP.Chemscore.Internal.Correction>
0.0053

> <Gold.Rescore>
     Score         DG    S(hbond)    S(metal)    S(lipo)     H(rot)  DE(clash)    DE(int)     intcor
     16.71     -19.27       2.43        0.00      70.40       1.00       1.75       0.81       ----

> <Gold.Chemscore.Fitness>
16.7090

> <Gold.Chemscore.DG>
-19.2721

> <Gold.Chemscore.ZeroCoef>
-5.4800

> <Gold.Chemscore.Hbond>
2.4296

> <Gold.Chemscore.Metal>
0.0000

> <Gold.Chemscore.Lipo>
70.4027

> <Gold.Chemscore.Internal_Hbond>
0.0000

> <Gold.Chemscore.DEClash>
1.7537

> <Gold.Chemscore.DEInternal>
0.8093

> <Gold.Chemscore.Rot>
1.0000

> <Gold.Chemscore.Internal.Correction>
   9.000000E+99

> <Gold.Chemscore.Hbonds>
donor molecule, donor type, donor heavy atom, donor atom, acceptor molecule, acceptor atom, score
      L1  H     2    39       P1  7921  0.93
      L1  H     6    31       P1  7948  0.69
      P1  H  6896  6908       L1    18  0.21

> <Gold.Chemscore.Hbond.Weighted>
-8.1149

> <Gold.Chemscore.Metal.Weighted>
-0.0000

> <Gold.Chemscore.Lipo.Weighted>
-8.2371

> <Gold.Chemscore.Internal_Hbond.Weighted>
0.0000

> <Gold.Chemscore.DEClash.Weighted>
1.7537

> <Gold.Chemscore.DEInternal.Weighted>
0.8093

> <Gold.Chemscore.Rot.Weighted>
2.5600

> <Gold.Chemscore.Internal.Correction.Weighted>
   9.000000E+99

> <Gold.Protein.RotatedTorsions>
[ 6907 6896 6895 6894 ] final   90.78 input  -60.11 | X-H torsion
[ 7974 7965 7964 7962 ] final -126.21 input  175.53 | X-H torsion
[ 8008 7997 7996 7995 ] final  147.49 input   59.86 | X-H torsion
[ 10167 10162 10161 10158 ] final  156.13 input  -65.29 | X-H torsion
[ 10718 10713 10712 10709 ] final   98.09 input   66.30 | X-H torsion
[ 10763 10752 10751 10750 ] final  -70.73 input  -60.55 | X-H torsion
[ 11005 11000 10999 10996 ] final  107.52 input  -57.11 | X-H torsion

> <Gold.Protein.ActiveResidues>
 VAL166  LYS551  ARG553  GLY616  TRP617  ASP618  TYR619  PRO620  LYS621  CYS622 
 ASP623  PHE694  ASN695  SER759  ASP760  ASP761  ALA762  ILE779  LEU786  VAL792 
 PHE793  MET794  SER795  GLU796  ALA797  LYS798  CYS799  TRP800  GLU811  SER814 

> <Gold.Protein.RotatedAtoms>
  152.5446  134.1758  159.8615 H   0  0  0  0  0  0  0  0  0  0  0  0  # atno 6907 bound_to 6896
  151.1765  133.4745  159.2601 H   0  0  0  0  0  0  0  0  0  0  0  0  # atno 6908 bound_to 6896
  151.1222  135.0097  159.8599 H   0  0  0  0  0  0  0  0  0  0  0  0  # atno 6909 bound_to 6896
  144.9896  140.7719  143.4562 H   0  0  0  0  0  0  0  0  0  0  0  0  # atno 7974 bound_to 7965
  156.2823  140.2154  156.5546 H   0  0  0  0  0  0  0  0  0  0  0  0  # atno 8008 bound_to 7997
  154.7263  140.0499  157.0708 H   0  0  0  0  0  0  0  0  0  0  0  0  # atno 8009 bound_to 7997
  155.0412  140.3146  155.4727 H   0  0  0  0  0  0  0  0  0  0  0  0  # atno 8010 bound_to 7997
  139.4821  144.5036  151.8131 H   0  0  0  0  0  0  0  0  0  0  0  0  # atno 10167 bound_to 10162
  157.6901  131.0629  150.4743 H   0  0  0  0  0  0  0  0  0  0  0  0  # atno 10718 bound_to 10713
  154.4218  135.5985  153.6014 H   0  0  0  0  0  0  0  0  0  0  0  0  # atno 10763 bound_to 10752
  152.9794  135.5954  154.3946 H   0  0  0  0  0  0  0  0  0  0  0  0  # atno 10764 bound_to 10752
  154.3772  135.2841  155.2211 H   0  0  0  0  0  0  0  0  0  0  0  0  # atno 10765 bound_to 10752
  139.8829  134.9403  156.5832 H   0  0  0  0  0  0  0  0  0  0  0  0  # atno 11005 bound_to 11000
  145.2304  139.2117  143.5045 LP  0  0  0  0  0  0  0  0  0  0  0  0  # atno 17320 bound_to 7965
  146.3428  140.2180  142.8591 LP  0  0  0  0  0  0  0  0  0  0  0  0  # atno 17321 bound_to 7965
  140.4532  144.1826  150.5899 LP  0  0  0  0  0  0  0  0  0  0  0  0  # atno 17342 bound_to 10162
  140.4563  143.2466  151.9280 LP  0  0  0  0  0  0  0  0  0  0  0  0  # atno 17343 bound_to 10162
  156.5079  130.4132  149.6317 LP  0  0  0  0  0  0  0  0  0  0  0  0  # atno 17370 bound_to 10713
  156.3267  130.7310  151.2232 LP  0  0  0  0  0  0  0  0  0  0  0  0  # atno 17371 bound_to 10713
  140.8011  133.8504  155.8728 LP  0  0  0  0  0  0  0  0  0  0  0  0  # atno 17394 bound_to 11000
  140.9591  134.1679  157.4668 LP  0  0  0  0  0  0  0  0  0  0  0  0  # atno 17395 bound_to 11000

$$$$
