AV-unprocessed.smi:1041|AV-procd|sdf|4530|dock1
  -GOLD-   22720 2553D 1   1.00000     0.00000
 Structure written by MMmdl.
 53 54  0  0  0  0  0  0  0  0  2 V2000
  148.5344  126.8918  150.9591 C   0  0  0  0  0  0  0  0  0  0  0  0
  148.2884  127.2326  152.3124 O   0  0  0  0  0  0  0  0  0  0  0  0
  148.1209  128.6281  152.4988 C   0  0  0  0  0  0  0  0  0  0  0  0
  146.7267  129.0354  151.9974 C   0  0  0  0  0  0  0  0  0  0  0  0
  146.6282  130.4878  151.7026 N   0  3  2  0  0  0  0  0  0  0  0  0
  147.0229  131.3233  152.8655 C   0  0  0  0  0  0  0  0  0  0  0  0
  147.0510  132.8157  152.4970 C   0  0  0  0  0  0  0  0  0  0  0  0
  145.6913  133.2842  151.9407 C   0  0  1  0  0  0  0  0  0  0  0  0
  145.7003  134.7671  151.5241 C   0  0  0  0  0  0  0  0  0  0  0  0
  146.4599  135.5704  152.4722 N   0  0  0  0  0  0  0  0  0  0  0  0
  145.9300  136.3508  153.4243 C   0  0  0  0  0  0  0  0  0  0  0  0
  144.7222  136.4305  153.6454 O   0  0  0  0  0  0  0  0  0  0  0  0
  146.9211  137.1769  154.2445 C   0  0  0  0  0  0  0  0  0  0  0  0
  146.7340  138.6903  154.1494 C   0  0  0  0  0  0  0  0  0  0  0  0
  146.6586  139.3499  152.9655 C   0  0  0  0  0  0  0  0  0  0  0  0
  146.7433  138.6804  151.6051 C   0  0  0  0  0  0  0  0  0  0  0  0
  146.4990  140.7233  152.9198 N   0  0  0  0  0  0  0  0  0  0  0  0
  146.4202  141.4076  154.1211 C   0  0  0  0  0  0  0  0  0  0  0  0
  146.2462  142.9018  153.9580 C   0  0  0  0  0  0  0  0  0  0  0  0
  146.4868  140.8693  155.3009 N   0  0  0  0  0  0  0  0  0  0  0  0
  146.6505  139.4783  155.4024 C   0  0  0  0  0  0  0  0  0  0  0  0
  146.7326  138.9420  156.5066 O   0  0  0  0  0  0  0  0  0  0  0  0
  145.2955  132.3766  150.7637 C   0  0  0  0  0  0  0  0  0  0  0  0
  145.3007  130.8931  151.1691 C   0  0  0  0  0  0  0  0  0  0  0  0
  146.4447  141.1735  152.0172 H   0  0  0  0  0  0  0  0  0  0  0  0
  148.6565  125.8125  150.8685 H   0  0  0  0  0  0  0  0  0  0  0  0
  149.4459  127.3654  150.5919 H   0  0  0  0  0  0  0  0  0  0  0  0
  147.7030  127.1906  150.3194 H   0  0  0  0  0  0  0  0  0  0  0  0
  148.2667  128.8974  153.5448 H   0  0  0  0  0  0  0  0  0  0  0  0
  148.8791  129.1632  151.9250 H   0  0  0  0  0  0  0  0  0  0  0  0
  146.4590  128.4625  151.1085 H   0  0  0  0  0  0  0  0  0  0  0  0
  146.0012  128.7642  152.7658 H   0  0  0  0  0  0  0  0  0  0  0  0
  146.3302  131.1521  153.6911 H   0  0  0  0  0  0  0  0  0  0  0  0
  148.0124  131.0261  153.2148 H   0  0  0  0  0  0  0  0  0  0  0  0
  147.3240  133.3952  153.3796 H   0  0  0  0  0  0  0  0  0  0  0  0
  147.8337  132.9942  151.7584 H   0  0  0  0  0  0  0  0  0  0  0  0
  144.9426  133.1611  152.7253 H   0  0  0  0  0  0  0  0  0  0  0  0
  146.1202  134.8661  150.5212 H   0  0  0  0  0  0  0  0  0  0  0  0
  144.6815  135.1544  151.4819 H   0  0  0  0  0  0  0  0  0  0  0  0
  147.4649  135.5631  152.3744 H   0  0  0  0  0  0  0  0  0  0  0  0
  146.8384  136.8751  155.2891 H   0  0  0  0  0  0  0  0  0  0  0  0
  147.9353  136.8958  153.9584 H   0  0  0  0  0  0  0  0  0  0  0  0
  145.9229  137.9747  151.4753 H   0  0  0  0  0  0  0  0  0  0  0  0
  147.6841  138.1389  151.5044 H   0  0  0  0  0  0  0  0  0  0  0  0
  146.6892  139.4083  150.7945 H   0  0  0  0  0  0  0  0  0  0  0  0
  146.1296  143.3893  154.9267 H   0  0  0  0  0  0  0  0  0  0  0  0
  145.3613  143.1194  153.3591 H   0  0  0  0  0  0  0  0  0  0  0  0
  147.1161  143.3326  153.4614 H   0  0  0  0  0  0  0  0  0  0  0  0
  144.3053  132.6514  150.3983 H   0  0  0  0  0  0  0  0  0  0  0  0
  145.9841  132.5283  149.9309 H   0  0  0  0  0  0  0  0  0  0  0  0
  145.0402  130.2920  150.2990 H   0  0  0  0  0  0  0  0  0  0  0  0
  144.5320  130.7077  151.9212 H   0  0  0  0  0  0  0  0  0  0  0  0
  147.3080  130.6758  150.9791 H   0  0  0  0  0  0  0  0  0  0  0  0
  1  2  1  0  0  0  0
  1 26  1  0  0  0  0
  1 27  1  0  0  0  0
  1 28  1  0  0  0  0
  2  3  1  0  0  0  0
  3  4  1  0  0  0  0
  3 29  1  0  0  0  0
  3 30  1  0  0  0  0
  4  5  1  0  0  0  0
  4 31  1  0  0  0  0
  4 32  1  0  0  0  0
  5 24  1  0  0  0  0
  5  6  1  0  0  0  0
  5 53  1  0  0  0  0
  6  7  1  0  0  0  0
  6 33  1  0  0  0  0
  6 34  1  0  0  0  0
  7  8  1  0  0  0  0
  7 35  1  0  0  0  0
  7 36  1  0  0  0  0
  8  9  1  0  0  0  0
  8 23  1  0  0  0  0
  8 37  1  0  0  0  0
  9 10  1  0  0  0  0
  9 38  1  0  0  0  0
  9 39  1  0  0  0  0
 10 11  1  0  0  0  0
 10 40  1  0  0  0  0
 11 12  2  0  0  0  0
 11 13  1  0  0  0  0
 13 41  1  0  0  0  0
 13 42  1  0  0  0  0
 13 14  1  0  0  0  0
 14 21  1  0  0  0  0
 14 15  2  0  0  0  0
 15 16  1  0  0  0  0
 15 17  1  0  0  0  0
 16 43  1  0  0  0  0
 16 44  1  0  0  0  0
 16 45  1  0  0  0  0
 17 25  1  0  0  0  0
 17 18  1  0  0  0  0
 18 19  1  0  0  0  0
 18 20  2  0  0  0  0
 19 46  1  0  0  0  0
 19 47  1  0  0  0  0
 19 48  1  0  0  0  0
 20 21  1  0  0  0  0
 21 22  2  0  0  0  0
 23 24  1  0  0  0  0
 23 49  1  0  0  0  0
 23 50  1  0  0  0  0
 24 51  1  0  0  0  0
 24 52  1  0  0  0  0
M  CHG  1   5   1
M  END
> <s_m_source_file>
AV-unprocessed.smi

> <i_m_source_file_index>
1041

> <i_lp_mmshare_version>
43012

> <i_f3d_flags>
0

> <s_epik_input>
W0NIM11PW0NIMl1bQ0gyXU4xW0NIMl1bQ0gyXVtDSF0oW0NIMl1bQ0gyXTEpW0NIMl1bTkhdQyg9TylbQ0gyXWMyYyhbQ0gzXSluYyhbQ0gzXSlbbkhdYzI9Tw==

> <s_epik_cmdline>
J2VwaWtfcHl0aG9uJywgJy1waCcsICc3LjAnLCAnLXRuJywgJzgnLCAnLW1hJywgJzIwMCcsICctbWV0YWxfYmluZGluZycsICctaW1hZScsICc8aW5maWxlLm1hZT4nLCAnLW9tYWUnLCAnPG91dGZpbGUubWFlPic=

> <r_lp_tautomer_probability>
0.156392

> <r_epik_Ionization_Penalty>
0.0240251

> <r_epik_Ionization_Penalty_Charging>
0.0239146

> <r_epik_Ionization_Penalty_Neutral>
0.000110474

> <r_epik_State_Penalty>
1.15942

> <r_epik_Charging_Adjusted_Penalty>
1.18333

> <i_epik_Tot_Q>
1

> <i_epik_Tot_abs_Q>
1

> <r_epik_Metal_State_Penalty>
1.33297

> <b_epik_Metal_Only>
0

> <s_lp_Force_Field>
OPLS_2005

> <r_lp_Energy>
24.2188

> <b_lp_Chiralities_Consistent>
1

> <s_lp_Variant>
AV-unprocessed.smi:1041-3

> <Gold.Version>
5.8.1

> <Gold.Id.Protein>
6NUR|6NUR_protein|mol2

> <Gold.PLP.Fitness>
45.6910

> <Gold.PLP.PLP>
-40.6334

> <Gold.PLP.part.hbond>
-3.0000

> <Gold.PLP.part.metal>
0.0000

> <Gold.PLP.part.buried>
-4.2403

> <Gold.PLP.part.nonpolar>
-33.6240

> <Gold.PLP.part.repulsive>
0.3027

> <Gold.PLP.ligand.clash>
0.0000

> <Gold.PLP.ligand.torsion>
0.5322

> <Gold.PLP.Chemscore.Hbond>
2.0000

> <Gold.PLP.Chemscore.CHOScore>
0.0000

> <Gold.PLP.Chemscore.Metal>
0.0000

> <Gold.Chemscore.Hbonds>
donor molecule, donor type, donor heavy atom, donor atom, acceptor molecule, acceptor atom, score
      L1  H     5    53       P1 10747  1.00
      L1  H    10    40       P1  7948  1.00

> <Gold.PLP.Chemscore.Internal.Correction>
0.1221

> <Gold.Rescore>
     Score         DG    S(hbond)    S(metal)    S(lipo)     H(rot)  DE(clash)    DE(int)     intcor
     16.69     -17.27       1.94        0.00      98.61       2.43       0.17       0.40       ----

> <Gold.Chemscore.Fitness>
16.6941

> <Gold.Chemscore.DG>
-17.2651

> <Gold.Chemscore.ZeroCoef>
-5.4800

> <Gold.Chemscore.Hbond>
1.9361

> <Gold.Chemscore.Metal>
0.0000

> <Gold.Chemscore.Lipo>
98.6071

> <Gold.Chemscore.Internal_Hbond>
0.0000

> <Gold.Chemscore.DEClash>
0.1694

> <Gold.Chemscore.DEInternal>
0.4017

> <Gold.Chemscore.Rot>
2.4291

> <Gold.Chemscore.Internal.Correction>
   9.000000E+99

> <Gold.Chemscore.Hbonds>
donor molecule, donor type, donor heavy atom, donor atom, acceptor molecule, acceptor atom, score
      L1  H     5    53       P1 10747  0.99
      L1  H    10    40       P1  7948  0.98

> <Gold.Chemscore.Hbond.Weighted>
-6.4667

> <Gold.Chemscore.Metal.Weighted>
-0.0000

> <Gold.Chemscore.Lipo.Weighted>
-11.5370

> <Gold.Chemscore.Internal_Hbond.Weighted>
0.0000

> <Gold.Chemscore.DEClash.Weighted>
0.1694

> <Gold.Chemscore.DEInternal.Weighted>
0.4017

> <Gold.Chemscore.Rot.Weighted>
6.2186

> <Gold.Chemscore.Internal.Correction.Weighted>
   9.000000E+99

> <Gold.Protein.RotatedTorsions>
[ 6907 6896 6895 6894 ] final   10.19 input  -60.11 | X-H torsion
[ 7974 7965 7964 7962 ] final -113.47 input  175.53 | X-H torsion
[ 8008 7997 7996 7995 ] final -154.20 input   59.86 | X-H torsion
[ 10167 10162 10161 10158 ] final  118.79 input  -65.29 | X-H torsion
[ 10718 10713 10712 10709 ] final    6.48 input   66.30 | X-H torsion
[ 10763 10752 10751 10750 ] final -123.79 input  -60.55 | X-H torsion
[ 11005 11000 10999 10996 ] final   86.77 input  -57.11 | X-H torsion

> <Gold.Protein.ActiveResidues>
 VAL166  LYS551  ARG553  GLY616  TRP617  ASP618  TYR619  PRO620  LYS621  CYS622 
 ASP623  PHE694  ASN695  SER759  ASP760  ASP761  ALA762  ILE779  LEU786  VAL792 
 PHE793  MET794  SER795  GLU796  ALA797  LYS798  CYS799  TRP800  GLU811  SER814 

> <Gold.Protein.RotatedAtoms>
  151.7343  135.0868  160.0304 H   0  0  0  0  0  0  0  0  0  0  0  0  # atno 6907 bound_to 6896
  152.3521  133.6188  159.5961 H   0  0  0  0  0  0  0  0  0  0  0  0  # atno 6908 bound_to 6896
  150.7546  133.9474  159.3516 H   0  0  0  0  0  0  0  0  0  0  0  0  # atno 6909 bound_to 6896
  145.1316  140.8728  143.3754 H   0  0  0  0  0  0  0  0  0  0  0  0  # atno 7974 bound_to 7965
  155.6827  140.0746  157.2478 H   0  0  0  0  0  0  0  0  0  0  0  0  # atno 8008 bound_to 7997
  154.4102  140.1679  156.2052 H   0  0  0  0  0  0  0  0  0  0  0  0  # atno 8009 bound_to 7997
  155.9521  140.3376  155.6420 H   0  0  0  0  0  0  0  0  0  0  0  0  # atno 8010 bound_to 7997
  139.6088  144.7077  151.2891 H   0  0  0  0  0  0  0  0  0  0  0  0  # atno 10167 bound_to 10162
  156.9228  130.5797  149.5648 H   0  0  0  0  0  0  0  0  0  0  0  0  # atno 10718 bound_to 10713
  154.8713  135.4086  154.3001 H   0  0  0  0  0  0  0  0  0  0  0  0  # atno 10763 bound_to 10752
  153.3862  135.7013  153.6534 H   0  0  0  0  0  0  0  0  0  0  0  0  # atno 10764 bound_to 10752
  153.5335  135.3662  155.2658 H   0  0  0  0  0  0  0  0  0  0  0  0  # atno 10765 bound_to 10752
  139.8936  134.8378  156.2767 H   0  0  0  0  0  0  0  0  0  0  0  0  # atno 11005 bound_to 11000
  145.0629  139.3091  143.5871 LP  0  0  0  0  0  0  0  0  0  0  0  0  # atno 17320 bound_to 7965
  146.3513  140.0077  142.8670 LP  0  0  0  0  0  0  0  0  0  0  0  0  # atno 17321 bound_to 7965
  140.7304  143.6880  150.7945 LP  0  0  0  0  0  0  0  0  0  0  0  0  # atno 17342 bound_to 10162
  140.0471  143.5287  152.2691 LP  0  0  0  0  0  0  0  0  0  0  0  0  # atno 17343 bound_to 10162
  156.0483  130.5556  150.8931 LP  0  0  0  0  0  0  0  0  0  0  0  0  # atno 17370 bound_to 10713
  157.5897  131.0945  150.9139 LP  0  0  0  0  0  0  0  0  0  0  0  0  # atno 17371 bound_to 10713
  141.0065  133.7120  156.1043 LP  0  0  0  0  0  0  0  0  0  0  0  0  # atno 17394 bound_to 11000
  140.7426  134.4133  157.5552 LP  0  0  0  0  0  0  0  0  0  0  0  0  # atno 17395 bound_to 11000

$$$$
