AV-unprocessed.smi:1802|AV-procd|sdf|7276|dock6
  -GOLD-   22720 8533D 1   1.00000     0.00000
 Structure written by MMmdl.
 40 41  0  0  0  0  0  0  0  0  3 V2000
  150.3051  144.6574  158.9959 C   0  0  0  0  0  0  0  0  0  0  0  0
  151.6334  144.2969  158.3073 C   0  0  1  0  0  0  0  0  0  0  0  0
  152.8328  144.3182  159.2728 C   0  0  0  0  0  0  0  0  0  0  0  0
  152.8168  143.1008  160.2078 C   0  0  0  0  0  0  0  0  0  0  0  0
  152.7134  141.7919  159.4087 C   0  0  0  0  0  0  0  0  0  0  0  0
  151.5234  141.7983  158.5194 N   0  3  2  0  0  0  0  0  0  0  0  0
  151.3150  140.4893  157.8508 C   0  0  0  0  0  0  0  0  0  0  0  0
  151.4577  139.3072  158.8230 C   0  0  0  0  0  0  0  0  0  0  0  0
  151.6195  137.9654  158.0903 C   0  0  0  0  0  0  0  0  0  0  0  0
  150.9315  136.8875  158.7919 N   0  0  0  0  0  0  0  0  0  0  0  0
  149.6868  136.9468  159.2873 C   0  0  0  0  0  0  0  0  0  0  0  0
  149.0212  137.9768  159.1553 O   0  0  0  0  0  0  0  0  0  0  0  0
  149.2937  135.8135  159.9106 N   0  5  0  0  0  0  0  0  0  0  0  0
  148.2856  135.8525  160.7977 C   0  0  0  0  0  0  0  0  0  0  0  0
  147.6595  136.9942  161.1252 N   0  0  0  0  0  0  0  0  0  0  0  0
  146.6487  136.8138  162.0597 N   0  0  0  0  0  0  0  0  0  0  0  0
  146.5314  135.5324  162.4074 C   0  0  0  0  0  0  0  0  0  0  0  0
  147.6424  134.4298  161.6227 S   0  0  0  0  0  0  0  0  0  0  0  0
  151.5575  142.9443  157.5697 C   0  0  0  0  0  0  0  0  0  0  0  0
  150.0279  143.9276  159.7565 H   0  0  0  0  0  0  0  0  0  0  0  0
  149.4901  144.7018  158.2728 H   0  0  0  0  0  0  0  0  0  0  0  0
  150.3663  145.6330  159.4784 H   0  0  0  0  0  0  0  0  0  0  0  0
  151.8082  145.0685  157.5565 H   0  0  0  0  0  0  0  0  0  0  0  0
  153.7582  144.3102  158.6951 H   0  0  0  0  0  0  0  0  0  0  0  0
  152.8435  145.2419  159.8526 H   0  0  0  0  0  0  0  0  0  0  0  0
  153.7204  143.0921  160.8185 H   0  0  0  0  0  0  0  0  0  0  0  0
  151.9804  143.1750  160.9036 H   0  0  0  0  0  0  0  0  0  0  0  0
  153.6143  141.6410  158.8118 H   0  0  0  0  0  0  0  0  0  0  0  0
  152.6510  140.9554  160.1060 H   0  0  0  0  0  0  0  0  0  0  0  0
  150.3409  140.4734  157.3596 H   0  0  0  0  0  0  0  0  0  0  0  0
  152.0597  140.3655  157.0632 H   0  0  0  0  0  0  0  0  0  0  0  0
  152.3188  139.4706  159.4723 H   0  0  0  0  0  0  0  0  0  0  0  0
  150.5872  139.2519  159.4758 H   0  0  0  0  0  0  0  0  0  0  0  0
  151.2494  138.0384  157.0663 H   0  0  0  0  0  0  0  0  0  0  0  0
  152.6754  137.7029  158.0205 H   0  0  0  0  0  0  0  0  0  0  0  0
  151.4389  136.0235  158.9166 H   0  0  0  0  0  0  0  0  0  0  0  0
  145.7845  135.2343  163.1278 H   0  0  0  0  0  0  0  0  0  0  0  0
  150.6793  142.9395  156.9251 H   0  0  0  0  0  0  0  0  0  0  0  0
  152.4213  142.8343  156.9120 H   0  0  0  0  0  0  0  0  0  0  0  0
  150.7242  141.9388  159.1207 H   0  0  0  0  0  0  0  0  0  0  0  0
  1  2  1  0  0  0  0
  1 20  1  0  0  0  0
  1 21  1  0  0  0  0
  1 22  1  0  0  0  0
  2 19  1  0  0  0  0
  2  3  1  0  0  0  0
  2 23  1  0  0  0  0
  3  4  1  0  0  0  0
  3 24  1  0  0  0  0
  3 25  1  0  0  0  0
  4  5  1  0  0  0  0
  4 26  1  0  0  0  0
  4 27  1  0  0  0  0
  5  6  1  0  0  0  0
  5 28  1  0  0  0  0
  5 29  1  0  0  0  0
  6  7  1  0  0  0  0
  6 19  1  0  0  0  0
  6 40  1  0  0  0  0
  7  8  1  0  0  0  0
  7 30  1  0  0  0  0
  7 31  1  0  0  0  0
  8  9  1  0  0  0  0
  8 32  1  0  0  0  0
  8 33  1  0  0  0  0
  9 10  1  0  0  0  0
  9 34  1  0  0  0  0
  9 35  1  0  0  0  0
 10 11  1  0  0  0  0
 10 36  1  0  0  0  0
 11 12  2  0  0  0  0
 11 13  1  0  0  0  0
 13 14  1  0  0  0  0
 14 18  1  0  0  0  0
 14 15  2  0  0  0  0
 15 16  1  0  0  0  0
 16 17  2  0  0  0  0
 17 18  1  0  0  0  0
 17 37  1  0  0  0  0
 19 38  1  0  0  0  0
 19 39  1  0  0  0  0
M  CHG  1   6   1
M  CHG  1  13  -1
M  END
> <s_m_source_file>
AV-unprocessed.smi

> <i_m_source_file_index>
1802

> <i_lp_mmshare_version>
43012

> <i_f3d_flags>
0

> <s_epik_input>
W0NIM11bQ0BASF0xW0NIMl1bQ0gyXVtDSDJdTihbQ0gyXTEpW0NIMl1bQ0gyXVtDSDJdW05IXUMoPU8pW05IXWMybm5bY0hdczI=

> <s_epik_cmdline>
J2VwaWtfcHl0aG9uJywgJy1waCcsICc3LjAnLCAnLXRuJywgJzgnLCAnLW1hJywgJzIwMCcsICctbWV0YWxfYmluZGluZycsICctaW1hZScsICc8aW5maWxlLm1hZT4nLCAnLW9tYWUnLCAnPG91dGZpbGUubWFlPic=

> <r_lp_tautomer_probability>
1

> <r_epik_Ionization_Penalty>
3.29702

> <r_epik_Ionization_Penalty_Charging>
3.26059

> <r_epik_Ionization_Penalty_Neutral>
0.0364294

> <r_epik_State_Penalty>
3.25788

> <r_epik_Charging_Adjusted_Penalty>
6.51847

> <i_epik_Tot_Q>
0

> <i_epik_Tot_abs_Q>
2

> <r_epik_Metal_State_Penalty>
0.477639

> <b_epik_Metal_Only>
1

> <s_lp_Force_Field>
OPLS_2005

> <r_lp_Energy>
11.8287

> <b_lp_Chiralities_Consistent>
1

> <s_lp_Variant>
AV-unprocessed.smi:1802-6

> <Gold.Version>
5.8.1

> <Gold.Id.Protein>
6NUR|6NUR_protein|mol2

> <Gold.PLP.Fitness>
48.6326

> <Gold.PLP.PLP>
-38.6180

> <Gold.PLP.part.hbond>
-4.9002

> <Gold.PLP.part.metal>
0.0000

> <Gold.PLP.part.buried>
-5.6809

> <Gold.PLP.part.nonpolar>
-29.1814

> <Gold.PLP.part.repulsive>
0.2013

> <Gold.PLP.ligand.clash>
0.0000

> <Gold.PLP.ligand.torsion>
0.5544

> <Gold.PLP.Chemscore.Hbond>
3.6960

> <Gold.PLP.Chemscore.CHOScore>
0.0000

> <Gold.PLP.Chemscore.Metal>
0.0000

> <Gold.Chemscore.Hbonds>
donor molecule, donor type, donor heavy atom, donor atom, acceptor molecule, acceptor atom, score
      P1  H  6896  6907       L1    13  2.00
      P1  H  6931  6943       L1    15  1.00
      P1  H  6934  6947       L1    15  0.42

> <Gold.PLP.Chemscore.Internal.Correction>
0.0352

> <Gold.Rescore>
     Score         DG    S(hbond)    S(metal)    S(lipo)     H(rot)  DE(clash)    DE(int)     intcor
     12.82     -16.67       1.42        0.00      97.37       1.94       0.08       3.77       ----

> <Gold.Chemscore.Fitness>
12.8157

> <Gold.Chemscore.DG>
-16.6669

> <Gold.Chemscore.ZeroCoef>
-5.4800

> <Gold.Chemscore.Hbond>
1.4241

> <Gold.Chemscore.Metal>
0.0000

> <Gold.Chemscore.Lipo>
97.3706

> <Gold.Chemscore.Internal_Hbond>
0.0000

> <Gold.Chemscore.DEClash>
0.0833

> <Gold.Chemscore.DEInternal>
3.7679

> <Gold.Chemscore.Rot>
1.9383

> <Gold.Chemscore.Internal.Correction>
   9.000000E+99

> <Gold.Chemscore.Hbonds>
donor molecule, donor type, donor heavy atom, donor atom, acceptor molecule, acceptor atom, score
      P1  H  6896  6907       L1    13  0.34
      P1  H  6931  6943       L1    15  0.38
      P1  H  6934  6947       L1    15  0.02

> <Gold.Chemscore.Hbond.Weighted>
-4.7566

> <Gold.Chemscore.Metal.Weighted>
-0.0000

> <Gold.Chemscore.Lipo.Weighted>
-11.3924

> <Gold.Chemscore.Internal_Hbond.Weighted>
0.0000

> <Gold.Chemscore.DEClash.Weighted>
0.0833

> <Gold.Chemscore.DEInternal.Weighted>
3.7679

> <Gold.Chemscore.Rot.Weighted>
4.9620

> <Gold.Chemscore.Internal.Correction.Weighted>
   9.000000E+99

> <Gold.Protein.RotatedTorsions>
[ 6907 6896 6895 6894 ] final  -59.29 input  -60.11 | X-H torsion
[ 7974 7965 7964 7962 ] final -135.98 input  175.53 | X-H torsion
[ 8008 7997 7996 7995 ] final  122.03 input   59.86 | X-H torsion
[ 10167 10162 10161 10158 ] final -177.00 input  -65.29 | X-H torsion
[ 10718 10713 10712 10709 ] final -116.70 input   66.30 | X-H torsion
[ 10763 10752 10751 10750 ] final  -70.23 input  -60.55 | X-H torsion
[ 11005 11000 10999 10996 ] final -150.07 input  -57.11 | X-H torsion

> <Gold.Protein.ActiveResidues>
 VAL166  LYS551  ARG553  GLY616  TRP617  ASP618  TYR619  PRO620  LYS621  CYS622 
 ASP623  PHE694  ASN695  SER759  ASP760  ASP761  ALA762  ILE779  LEU786  VAL792 
 PHE793  MET794  SER795  GLU796  ALA797  LYS798  CYS799  TRP800  GLU811  SER814 

> <Gold.Protein.RotatedAtoms>
  150.7942  134.6988  159.6538 H   0  0  0  0  0  0  0  0  0  0  0  0  # atno 6907 bound_to 6896
  152.4052  134.6216  160.0062 H   0  0  0  0  0  0  0  0  0  0  0  0  # atno 6908 bound_to 6896
  151.6476  133.3285  159.3180 H   0  0  0  0  0  0  0  0  0  0  0  0  # atno 6909 bound_to 6896
  144.8967  140.6716  143.5111 H   0  0  0  0  0  0  0  0  0  0  0  0  # atno 7974 bound_to 7965
  156.2711  140.2795  156.1403 H   0  0  0  0  0  0  0  0  0  0  0  0  # atno 8008 bound_to 7997
  155.0960  140.0389  157.2700 H   0  0  0  0  0  0  0  0  0  0  0  0  # atno 8009 bound_to 7997
  154.6852  140.2617  155.6874 H   0  0  0  0  0  0  0  0  0  0  0  0  # atno 8010 bound_to 7997
  139.5502  144.2130  152.1062 H   0  0  0  0  0  0  0  0  0  0  0  0  # atno 10167 bound_to 10162
  156.0982  130.6150  150.9069 H   0  0  0  0  0  0  0  0  0  0  0  0  # atno 10718 bound_to 10713
  154.4147  135.6000  153.5974 H   0  0  0  0  0  0  0  0  0  0  0  0  # atno 10763 bound_to 10752
  152.9791  135.5938  154.4027 H   0  0  0  0  0  0  0  0  0  0  0  0  # atno 10764 bound_to 10752
  154.3844  135.2841  155.2170 H   0  0  0  0  0  0  0  0  0  0  0  0  # atno 10765 bound_to 10752
  140.7441  134.3481  157.5141 H   0  0  0  0  0  0  0  0  0  0  0  0  # atno 11005 bound_to 11000
  145.3688  139.1663  143.4343 LP  0  0  0  0  0  0  0  0  0  0  0  0  # atno 17320 bound_to 7965
  146.3085  140.3758  142.8679 LP  0  0  0  0  0  0  0  0  0  0  0  0  # atno 17321 bound_to 7965
  140.1624  144.5013  150.6625 LP  0  0  0  0  0  0  0  0  0  0  0  0  # atno 17342 bound_to 10162
  140.6762  143.2306  151.5502 LP  0  0  0  0  0  0  0  0  0  0  0  0  # atno 17343 bound_to 10162
  157.6147  131.0934  150.8732 LP  0  0  0  0  0  0  0  0  0  0  0  0  # atno 17370 bound_to 10713
  156.8866  130.5198  149.5288 LP  0  0  0  0  0  0  0  0  0  0  0  0  # atno 17371 bound_to 10713
  139.8800  134.9100  156.3003 LP  0  0  0  0  0  0  0  0  0  0  0  0  # atno 17394 bound_to 11000
  140.9810  133.7267  156.0672 LP  0  0  0  0  0  0  0  0  0  0  0  0  # atno 17395 bound_to 11000

$$$$
