AV-unprocessed.smi:2923|AV-procd|sdf|11210|dock8
  -GOLD-   2272016103D 1   1.00000     0.00000
 Structure written by MMmdl.
 46 48  0  0  0  0  0  0  0  0  1 V2000
  152.2497  140.5500  158.0628 C   0  0  0  0  0  0  0  0  0  0  0  0
  151.4830  141.0778  156.9449 N   0  0  0  0  0  0  0  0  0  0  0  0
  150.7619  142.3183  157.1864 C   0  0  0  0  0  0  0  0  0  0  0  0
  150.6998  140.1033  156.3129 C   0  0  0  0  0  0  0  0  0  0  0  0
  149.7321  139.3608  157.0270 C   0  0  0  0  0  0  0  0  0  0  0  0
  148.9732  138.3957  156.3378 C   0  0  0  0  0  0  0  0  0  0  0  0
  149.2108  138.1981  154.9568 C   0  0  0  0  0  0  0  0  0  0  0  0
  148.4966  137.2760  154.1459 N   0  0  0  0  0  0  0  0  0  0  0  0
  147.3195  136.6780  154.3954 C   0  0  0  0  0  0  0  0  0  0  0  0
  146.6560  136.8078  155.4239 O   0  0  0  0  0  0  0  0  0  0  0  0
  146.9526  135.8928  153.3745 N   0  0  0  0  0  0  0  0  0  0  0  0
  145.7304  135.0824  153.3413 C   0  0  2  0  0  0  0  0  0  0  0  0
  146.0179  133.5847  153.4752 C   0  0  2  0  0  0  0  0  0  0  0  0
  147.1615  132.7578  153.9409 C   0  0  0  0  0  0  0  0  0  0  0  0
  147.0925  131.6833  152.8217 C   0  0  0  0  0  0  0  0  0  0  0  0
  146.1541  132.1905  151.8382 O   0  0  0  0  0  0  0  0  0  0  0  0
  146.2426  133.5948  151.9769 C   0  0  1  0  0  0  0  0  0  0  0  0
  145.1868  134.7203  151.9015 C   0  0  0  0  0  0  0  0  0  0  0  0
  143.7122  134.2920  151.7914 C   0  0  0  0  0  0  0  0  0  0  0  0
  145.4040  135.7529  150.7898 C   0  0  0  0  0  0  0  0  0  0  0  0
  150.1918  139.0003  154.3382 C   0  0  0  0  0  0  0  0  0  0  0  0
  150.9238  139.9261  154.9930 N   0  0  0  0  0  0  0  0  0  0  0  0
  152.7501  139.6209  157.7867 H   0  0  0  0  0  0  0  0  0  0  0  0
  151.6061  140.3534  158.9208 H   0  0  0  0  0  0  0  0  0  0  0  0
  153.0139  141.2662  158.3655 H   0  0  0  0  0  0  0  0  0  0  0  0
  150.2339  142.6414  156.2883 H   0  0  0  0  0  0  0  0  0  0  0  0
  151.4575  143.1084  157.4698 H   0  0  0  0  0  0  0  0  0  0  0  0
  150.0348  142.1996  157.9903 H   0  0  0  0  0  0  0  0  0  0  0  0
  149.5677  139.5280  158.0815 H   0  0  0  0  0  0  0  0  0  0  0  0
  148.2196  137.8423  156.8760 H   0  0  0  0  0  0  0  0  0  0  0  0
  148.9615  137.0015  153.2928 H   0  0  0  0  0  0  0  0  0  0  0  0
  147.5582  135.8407  152.5686 H   0  0  0  0  0  0  0  0  0  0  0  0
  144.9528  135.4268  154.0252 H   0  0  0  0  0  0  0  0  0  0  0  0
  145.0901  133.0831  153.7606 H   0  0  0  0  0  0  0  0  0  0  0  0
  148.1037  133.3071  153.9245 H   0  0  0  0  0  0  0  0  0  0  0  0
  147.0071  132.3390  154.9355 H   0  0  0  0  0  0  0  0  0  0  0  0
  148.0731  131.5315  152.3686 H   0  0  0  0  0  0  0  0  0  0  0  0
  146.7420  130.7225  153.1998 H   0  0  0  0  0  0  0  0  0  0  0  0
  147.2358  133.9439  151.6758 H   0  0  0  0  0  0  0  0  0  0  0  0
  143.5203  133.7818  150.8469 H   0  0  0  0  0  0  0  0  0  0  0  0
  143.0454  135.1537  151.8363 H   0  0  0  0  0  0  0  0  0  0  0  0
  143.3940  133.6154  152.5826 H   0  0  0  0  0  0  0  0  0  0  0  0
  145.0968  135.3665  149.8175 H   0  0  0  0  0  0  0  0  0  0  0  0
  146.4515  136.0393  150.6958 H   0  0  0  0  0  0  0  0  0  0  0  0
  144.8354  136.6642  150.9775 H   0  0  0  0  0  0  0  0  0  0  0  0
  150.4006  138.8951  153.2836 H   0  0  0  0  0  0  0  0  0  0  0  0
  1  2  1  0  0  0  0
  1 23  1  0  0  0  0
  1 24  1  0  0  0  0
  1 25  1  0  0  0  0
  2  3  1  0  0  0  0
  2  4  1  0  0  0  0
  3 26  1  0  0  0  0
  3 27  1  0  0  0  0
  3 28  1  0  0  0  0
  4 22  1  0  0  0  0
  4  5  2  0  0  0  0
  5  6  1  0  0  0  0
  5 29  1  0  0  0  0
  6  7  2  0  0  0  0
  6 30  1  0  0  0  0
  7  8  1  0  0  0  0
  7 21  1  0  0  0  0
  8  9  1  0  0  0  0
  8 31  1  0  0  0  0
  9 10  2  0  0  0  0
  9 11  1  0  0  0  0
 11 12  1  0  0  0  0
 11 32  1  0  0  0  0
 12 18  1  0  0  0  0
 12 13  1  0  0  0  0
 12 33  1  0  0  0  0
 13 17  1  0  0  0  0
 13 14  1  0  0  0  0
 13 34  1  0  0  0  0
 14 15  1  0  0  0  0
 14 35  1  0  0  0  0
 14 36  1  0  0  0  0
 15 16  1  0  0  0  0
 15 37  1  0  0  0  0
 15 38  1  0  0  0  0
 16 17  1  0  0  0  0
 17 18  1  0  0  0  0
 17 39  1  0  0  0  0
 18 19  1  0  0  0  0
 18 20  1  0  0  0  0
 19 40  1  0  0  0  0
 19 41  1  0  0  0  0
 19 42  1  0  0  0  0
 20 43  1  0  0  0  0
 20 44  1  0  0  0  0
 20 45  1  0  0  0  0
 21 22  2  0  0  0  0
 21 46  1  0  0  0  0
M  END
> <s_m_source_file>
AV-unprocessed.smi

> <i_m_source_file_index>
2923

> <i_lp_mmshare_version>
43012

> <i_f3d_flags>
0

> <s_epik_input>
W0NIM11OKFtDSDNdKWMxW2NIXVtjSF1jKFtjSF1uMSlbTkhdQyg9TylbTkhdW0NASF0yQyhbQ0gzXSkoW0NIM10pW0NAQEhdKFtDQEhdMjMpT1tDSDJdW0NIMl0z

> <s_epik_cmdline>
J2VwaWtfcHl0aG9uJywgJy1waCcsICc3LjAnLCAnLXRuJywgJzgnLCAnLW1hJywgJzIwMCcsICctbWV0YWxfYmluZGluZycsICctaW1hZScsICc8aW5maWxlLm1hZT4nLCAnLW9tYWUnLCAnPG91dGZpbGUubWFlPic=

> <r_lp_tautomer_probability>
1

> <r_epik_Ionization_Penalty>
0.628785

> <r_epik_Ionization_Penalty_Charging>
0

> <r_epik_Ionization_Penalty_Neutral>
0.628785

> <r_epik_State_Penalty>
0.644286

> <r_epik_Charging_Adjusted_Penalty>
0.644286

> <i_epik_Tot_Q>
0

> <i_epik_Tot_abs_Q>
0

> <r_epik_Metal_State_Penalty>
0.308404

> <b_epik_Metal_Only>
0

> <s_lp_Force_Field>
OPLS_2005

> <r_lp_Energy>
70.0189

> <b_lp_Chiralities_Consistent>
1

> <s_lp_Variant>
AV-unprocessed.smi:2923-9

> <Gold.Version>
5.8.1

> <Gold.Id.Protein>
6NUR|6NUR_protein|mol2

> <Gold.PLP.Fitness>
38.4096

> <Gold.PLP.PLP>
-27.0152

> <Gold.PLP.part.hbond>
-2.9601

> <Gold.PLP.part.metal>
0.0000

> <Gold.PLP.part.buried>
-4.3403

> <Gold.PLP.part.nonpolar>
-20.6697

> <Gold.PLP.part.repulsive>
0.2147

> <Gold.PLP.ligand.clash>
0.0000

> <Gold.PLP.ligand.torsion>
0.5379

> <Gold.PLP.Chemscore.Hbond>
3.0000

> <Gold.PLP.Chemscore.CHOScore>
1.0000

> <Gold.PLP.Chemscore.Metal>
0.0000

> <Gold.Chemscore.Hbonds>
donor molecule, donor type, donor heavy atom, donor atom, acceptor molecule, acceptor atom, score
      L1  H     8    31       P1  7948  1.00
      L1  H    11    32       P1  7948  1.00
      P1  H  7989  7998       L1    22  0.95
      L1  C    21    46       P1  7957  1.00

> <Gold.PLP.Chemscore.Internal.Correction>
0.4702

> <Gold.Rescore>
     Score         DG    S(hbond)    S(metal)    S(lipo)     H(rot)  DE(clash)    DE(int)     intcor
     16.70     -18.45       2.55        0.00      64.28       1.19       0.07       1.68       ----

> <Gold.Chemscore.Fitness>
16.6992

> <Gold.Chemscore.DG>
-18.4548

> <Gold.Chemscore.ZeroCoef>
-5.4800

> <Gold.Chemscore.Hbond>
2.5479

> <Gold.Chemscore.Metal>
0.0000

> <Gold.Chemscore.Lipo>
64.2801

> <Gold.Chemscore.Internal_Hbond>
0.0000

> <Gold.Chemscore.DEClash>
0.0707

> <Gold.Chemscore.DEInternal>
1.6849

> <Gold.Chemscore.Rot>
1.1937

> <Gold.Chemscore.Internal.Correction>
   9.000000E+99

> <Gold.Chemscore.Hbonds>
donor molecule, donor type, donor heavy atom, donor atom, acceptor molecule, acceptor atom, score
      L1  H     8    31       P1  7948  0.95
      L1  H    11    32       P1  7948  0.93
      P1  H  7989  7998       L1    22  0.21

> <Gold.Chemscore.Hbond.Weighted>
-8.5099

> <Gold.Chemscore.Metal.Weighted>
-0.0000

> <Gold.Chemscore.Lipo.Weighted>
-7.5208

> <Gold.Chemscore.Internal_Hbond.Weighted>
0.0000

> <Gold.Chemscore.DEClash.Weighted>
0.0707

> <Gold.Chemscore.DEInternal.Weighted>
1.6849

> <Gold.Chemscore.Rot.Weighted>
3.0559

> <Gold.Chemscore.Internal.Correction.Weighted>
   9.000000E+99

> <Gold.Protein.RotatedTorsions>
[ 6907 6896 6895 6894 ] final -152.02 input  -60.11 | X-H torsion
[ 7974 7965 7964 7962 ] final  136.44 input  175.53 | X-H torsion
[ 8008 7997 7996 7995 ] final   28.90 input   59.86 | X-H torsion
[ 10167 10162 10161 10158 ] final -133.97 input  -65.29 | X-H torsion
[ 10718 10713 10712 10709 ] final  133.66 input   66.30 | X-H torsion
[ 10763 10752 10751 10750 ] final  158.91 input  -60.55 | X-H torsion
[ 11005 11000 10999 10996 ] final  -81.27 input  -57.11 | X-H torsion

> <Gold.Protein.ActiveResidues>
 VAL166  LYS551  ARG553  GLY616  TRP617  ASP618  TYR619  PRO620  LYS621  CYS622 
 ASP623  PHE694  ASN695  SER759  ASP760  ASP761  ALA762  ILE779  LEU786  VAL792 
 PHE793  MET794  SER795  GLU796  ALA797  LYS798  CYS799  TRP800  GLU811  SER814 

> <Gold.Protein.RotatedAtoms>
  151.2216  133.4499  159.2600 H   0  0  0  0  0  0  0  0  0  0  0  0  # atno 6907 bound_to 6896
  151.0879  134.9899  159.8398 H   0  0  0  0  0  0  0  0  0  0  0  0  # atno 6908 bound_to 6896
  152.5431  134.2151  159.8818 H   0  0  0  0  0  0  0  0  0  0  0  0  # atno 6909 bound_to 6896
  144.9565  139.4759  143.5500 H   0  0  0  0  0  0  0  0  0  0  0  0  # atno 7974 bound_to 7965
  155.0659  140.3195  155.4645 H   0  0  0  0  0  0  0  0  0  0  0  0  # atno 8008 bound_to 7997
  156.2802  140.2120  156.5731 H   0  0  0  0  0  0  0  0  0  0  0  0  # atno 8009 bound_to 7997
  154.7094  140.0499  157.0523 H   0  0  0  0  0  0  0  0  0  0  0  0  # atno 8010 bound_to 7997
  139.8929  143.6701  152.2609 H   0  0  0  0  0  0  0  0  0  0  0  0  # atno 10167 bound_to 10162
  157.4751  131.1082  150.9753 H   0  0  0  0  0  0  0  0  0  0  0  0  # atno 10718 bound_to 10713
  154.2236  135.2781  155.2916 H   0  0  0  0  0  0  0  0  0  0  0  0  # atno 10763 bound_to 10752
  154.5682  135.5626  153.7073 H   0  0  0  0  0  0  0  0  0  0  0  0  # atno 10764 bound_to 10752
  153.0036  135.6314  154.2376 H   0  0  0  0  0  0  0  0  0  0  0  0  # atno 10765 bound_to 10752
  141.1667  133.7189  156.8398 H   0  0  0  0  0  0  0  0  0  0  0  0  # atno 11005 bound_to 11000
  146.3339  139.8686  142.8844 LP  0  0  0  0  0  0  0  0  0  0  0  0  # atno 17320 bound_to 7965
  145.2764  141.0125  143.3742 LP  0  0  0  0  0  0  0  0  0  0  0  0  # atno 17321 bound_to 7965
  139.7094  144.7623  151.1138 LP  0  0  0  0  0  0  0  0  0  0  0  0  # atno 17342 bound_to 10162
  140.7723  143.5351  150.9377 LP  0  0  0  0  0  0  0  0  0  0  0  0  # atno 17343 bound_to 10162
  157.0505  130.5785  149.5369 LP  0  0  0  0  0  0  0  0  0  0  0  0  # atno 17370 bound_to 10713
  156.0093  130.5183  150.7934 LP  0  0  0  0  0  0  0  0  0  0  0  0  # atno 17371 bound_to 10713
  140.1991  134.8910  157.3149 LP  0  0  0  0  0  0  0  0  0  0  0  0  # atno 17394 bound_to 11000
  140.2206  134.4027  155.7567 LP  0  0  0  0  0  0  0  0  0  0  0  0  # atno 17395 bound_to 11000

$$$$
