AV-unprocessed.smi:3076|AV-procd|sdf|11728|dock10
  -GOLD-   2272017123D 1   1.00000     0.00000
 Structure written by MMmdl.
 20 20  0  0  0  0  0  0  0  0  1 V2000
  147.5582  138.3797  151.4849 N   0  0  0  0  0  0  0  0  0  0  0  0
  146.7264  138.7184  152.6498 C   0  0  0  0  0  0  0  0  0  0  0  0
  146.9756  140.1458  153.1672 C   0  0  1  0  0  0  0  0  0  0  0  0
  145.8174  140.5804  153.8523 O   0  0  0  0  0  0  0  0  0  0  0  0
  148.1981  140.1899  154.0701 C   0  0  0  0  0  0  0  0  0  0  0  0
  148.6299  141.3958  154.6645 C   0  0  0  0  0  0  0  0  0  0  0  0
  149.7616  141.3752  155.5021 C   0  0  0  0  0  0  0  0  0  0  0  0
  150.4167  140.1460  155.7138 C   0  0  0  0  0  0  0  0  0  0  0  0
  150.0132  138.9854  155.1543 N   0  0  0  0  0  0  0  0  0  0  0  0
  148.9268  139.0140  154.3524 C   0  0  0  0  0  0  0  0  0  0  0  0
  148.2236  139.1270  151.2928 H   0  0  0  0  0  0  0  0  0  0  0  0
  148.0995  137.5360  151.6672 H   0  0  0  0  0  0  0  0  0  0  0  0
  145.6700  138.5761  152.4192 H   0  0  0  0  0  0  0  0  0  0  0  0
  146.9582  138.0138  153.4492 H   0  0  0  0  0  0  0  0  0  0  0  0
  147.1411  140.8188  152.3244 H   0  0  0  0  0  0  0  0  0  0  0  0
  145.0939  140.5866  153.2447 H   0  0  0  0  0  0  0  0  0  0  0  0
  148.1026  142.3214  154.4852 H   0  0  0  0  0  0  0  0  0  0  0  0
  150.1179  142.2795  155.9726 H   0  0  0  0  0  0  0  0  0  0  0  0
  151.2868  140.0936  156.3513 H   0  0  0  0  0  0  0  0  0  0  0  0
  148.6307  138.0667  153.9259 H   0  0  0  0  0  0  0  0  0  0  0  0
  1  2  1  0  0  0  0
  1 11  1  0  0  0  0
  1 12  1  0  0  0  0
  2  3  1  0  0  0  0
  2 13  1  0  0  0  0
  2 14  1  0  0  0  0
  3  4  1  0  0  0  0
  3  5  1  0  0  0  0
  3 15  1  0  0  0  0
  4 16  1  0  0  0  0
  5 10  1  0  0  0  0
  5  6  2  0  0  0  0
  6  7  1  0  0  0  0
  6 17  1  0  0  0  0
  7  8  2  0  0  0  0
  7 18  1  0  0  0  0
  8  9  1  0  0  0  0
  8 19  1  0  0  0  0
  9 10  2  0  0  0  0
 10 20  1  0  0  0  0
M  END
> <s_m_source_file>
AV-unprocessed.smi

> <i_m_source_file_index>
3076

> <i_lp_mmshare_version>
43012

> <i_f3d_flags>
0

> <s_epik_input>
W05IMl1bQ0gyXVtDQEhdKFtPSF0pYzFbY0hdW2NIXVtjSF1uW2NIXTE=

> <s_epik_cmdline>
J2VwaWtfcHl0aG9uJywgJy1waCcsICc3LjAnLCAnLXRuJywgJzgnLCAnLW1hJywgJzIwMCcsICctbWV0YWxfYmluZGluZycsICctaW1hZScsICc8aW5maWxlLm1hZT4nLCAnLW9tYWUnLCAnPG91dGZpbGUubWFlPic=

> <r_epik_Ionization_Penalty>
2.22627

> <r_epik_Ionization_Penalty_Charging>
0

> <r_epik_Ionization_Penalty_Neutral>
2.22627

> <r_epik_State_Penalty>
2.36938

> <r_epik_Charging_Adjusted_Penalty>
2.36938

> <i_epik_Tot_Q>
0

> <i_epik_Tot_abs_Q>
0

> <r_epik_Metal_State_Penalty>
2.36785

> <b_epik_Metal_Only>
0

> <s_lp_Force_Field>
OPLS_2005

> <r_lp_Energy>
11.5599

> <b_lp_Chiralities_Consistent>
1

> <s_lp_Variant>
AV-unprocessed.smi:3076-4

> <Gold.Version>
5.8.1

> <Gold.Id.Protein>
6NUR|6NUR_protein|mol2

> <Gold.PLP.Fitness>
34.0788

> <Gold.PLP.PLP>
-22.5737

> <Gold.PLP.part.hbond>
-4.0000

> <Gold.PLP.part.metal>
0.0000

> <Gold.PLP.part.buried>
0.3881

> <Gold.PLP.part.nonpolar>
-17.7281

> <Gold.PLP.part.repulsive>
0.1376

> <Gold.PLP.ligand.clash>
0.0000

> <Gold.PLP.ligand.torsion>
0.2488

> <Gold.PLP.Chemscore.Hbond>
3.0000

> <Gold.PLP.Chemscore.CHOScore>
1.0000

> <Gold.PLP.Chemscore.Metal>
0.0000

> <Gold.Chemscore.Hbonds>
donor molecule, donor type, donor heavy atom, donor atom, acceptor molecule, acceptor atom, score
      L1  H     1    11       P1  7957  1.00
      L1  H     1    12       P1  7948  1.00
      L1  H     4    16       P1 10175  1.00
      L1  C    10    20       P1  7948  0.41

> <Gold.PLP.Chemscore.Internal.Correction>
0.0027

> <Gold.Rescore>
     Score         DG    S(hbond)    S(metal)    S(lipo)     H(rot)  DE(clash)    DE(int)     intcor
     15.65     -15.86       2.83        0.00      48.22       1.85       0.06       0.15       ----

> <Gold.Chemscore.Fitness>
15.6492

> <Gold.Chemscore.DG>
-15.8589

> <Gold.Chemscore.ZeroCoef>
-5.4800

> <Gold.Chemscore.Hbond>
2.8330

> <Gold.Chemscore.Metal>
0.0000

> <Gold.Chemscore.Lipo>
48.2154

> <Gold.Chemscore.Internal_Hbond>
0.0000

> <Gold.Chemscore.DEClash>
0.0588

> <Gold.Chemscore.DEInternal>
0.1509

> <Gold.Chemscore.Rot>
1.8455

> <Gold.Chemscore.Internal.Correction>
   9.000000E+99

> <Gold.Chemscore.Hbonds>
donor molecule, donor type, donor heavy atom, donor atom, acceptor molecule, acceptor atom, score
      L1  H     1    11       P1  7957  0.60
      L1  H     1    12       P1  7948  0.93
      L1  H     4    16       P1 10175  0.93

> <Gold.Chemscore.Hbond.Weighted>
-9.4622

> <Gold.Chemscore.Metal.Weighted>
-0.0000

> <Gold.Chemscore.Lipo.Weighted>
-5.6412

> <Gold.Chemscore.Internal_Hbond.Weighted>
0.0000

> <Gold.Chemscore.DEClash.Weighted>
0.0588

> <Gold.Chemscore.DEInternal.Weighted>
0.1509

> <Gold.Chemscore.Rot.Weighted>
4.7245

> <Gold.Chemscore.Internal.Correction.Weighted>
   9.000000E+99

> <Gold.Protein.RotatedTorsions>
[ 6907 6896 6895 6894 ] final  -85.49 input  -60.11 | X-H torsion
[ 7974 7965 7964 7962 ] final  117.78 input  175.53 | X-H torsion
[ 8008 7997 7996 7995 ] final -122.76 input   59.86 | X-H torsion
[ 10167 10162 10161 10158 ] final  124.34 input  -65.29 | X-H torsion
[ 10718 10713 10712 10709 ] final   49.17 input   66.30 | X-H torsion
[ 10763 10752 10751 10750 ] final  -52.78 input  -60.55 | X-H torsion
[ 11005 11000 10999 10996 ] final -162.53 input  -57.11 | X-H torsion

> <Gold.Protein.ActiveResidues>
 VAL166  LYS551  ARG553  GLY616  TRP617  ASP618  TYR619  PRO620  LYS621  CYS622 
 ASP623  PHE694  ASN695  SER759  ASP760  ASP761  ALA762  ILE779  LEU786  VAL792 
 PHE793  MET794  SER795  GLU796  ALA797  LYS798  CYS799  TRP800  GLU811  SER814 

> <Gold.Protein.RotatedAtoms>
  150.6870  134.3196  159.4780 H   0  0  0  0  0  0  0  0  0  0  0  0  # atno 6907 bound_to 6896
  152.1073  134.9297  160.0577 H   0  0  0  0  0  0  0  0  0  0  0  0  # atno 6908 bound_to 6896
  152.0553  133.4002  159.4431 H   0  0  0  0  0  0  0  0  0  0  0  0  # atno 6909 bound_to 6896
  145.1632  139.3143  143.4506 H   0  0  0  0  0  0  0  0  0  0  0  0  # atno 7974 bound_to 7965
  155.1695  140.0408  157.2860 H   0  0  0  0  0  0  0  0  0  0  0  0  # atno 8008 bound_to 7997
  154.6279  140.2517  155.7442 H   0  0  0  0  0  0  0  0  0  0  0  0  # atno 8009 bound_to 7997
  156.2469  140.2881  156.0617 H   0  0  0  0  0  0  0  0  0  0  0  0  # atno 8010 bound_to 7997
  139.5747  144.6957  151.3685 H   0  0  0  0  0  0  0  0  0  0  0  0  # atno 10167 bound_to 10162
  157.4760  130.8285  149.8040 H   0  0  0  0  0  0  0  0  0  0  0  0  # atno 10718 bound_to 10713
  154.1482  135.6494  153.4957 H   0  0  0  0  0  0  0  0  0  0  0  0  # atno 10763 bound_to 10752
  153.0145  135.5332  154.6835 H   0  0  0  0  0  0  0  0  0  0  0  0  # atno 10764 bound_to 10752
  154.6115  135.2954  155.0398 H   0  0  0  0  0  0  0  0  0  0  0  0  # atno 10765 bound_to 10752
  140.6082  134.4877  157.5212 H   0  0  0  0  0  0  0  0  0  0  0  0  # atno 11005 bound_to 11000
  146.3479  140.1750  142.8589 LP  0  0  0  0  0  0  0  0  0  0  0  0  # atno 17320 bound_to 7965
  145.0309  140.8870  143.5110 LP  0  0  0  0  0  0  0  0  0  0  0  0  # atno 17321 bound_to 7965
  140.7030  143.7584  150.7435 LP  0  0  0  0  0  0  0  0  0  0  0  0  # atno 17342 bound_to 10162
  140.1100  143.4708  152.2375 LP  0  0  0  0  0  0  0  0  0  0  0  0  # atno 17343 bound_to 10162
  156.0097  130.3839  150.2307 LP  0  0  0  0  0  0  0  0  0  0  0  0  # atno 17370 bound_to 10713
  157.0492  131.0057  151.3259 LP  0  0  0  0  0  0  0  0  0  0  0  0  # atno 17371 bound_to 10713
  139.9203  134.8162  156.1232 LP  0  0  0  0  0  0  0  0  0  0  0  0  # atno 17394 bound_to 11000
  141.0826  133.6748  156.2369 LP  0  0  0  0  0  0  0  0  0  0  0  0  # atno 17395 bound_to 11000

$$$$
