AV-unprocessed.smi:3168|AV-procd|sdf|12099|dock9
  -GOLD-   2272017533D 1   1.00000     0.00000
 Structure written by MMmdl.
 33 34  0  0  0  0  0  0  0  0  1 V2000
  151.4180  145.2567  159.6397 C   0  0  0  0  0  0  0  0  0  0  0  0
  152.0425  143.8943  159.2733 C   0  0  2  0  0  0  0  0  0  0  0  0
  151.0780  142.9782  158.4999 C   0  0  0  0  0  0  0  0  0  0  0  0
  149.8977  143.2937  158.3447 O   0  0  0  0  0  0  0  0  0  0  0  0
  151.6034  141.8445  158.0074 N   0  0  0  0  0  0  0  0  0  0  0  0
  150.8787  140.8331  157.2449 C   0  0  0  0  0  0  0  0  0  0  0  0
  151.6399  140.4224  155.9733 C   0  0  2  0  0  0  0  0  0  0  0  0
  150.8642  139.5156  155.0156 C   0  0  0  0  0  0  0  0  0  0  0  0
  151.9845  138.7974  154.3004 C   0  0  0  0  0  0  0  0  0  0  0  0
  152.9792  138.5793  155.4356 C   0  0  0  0  0  0  0  0  0  0  0  0
  152.8111  139.6859  156.3182 O   0  0  0  0  0  0  0  0  0  0  0  0
  152.5776  143.2073  160.4440 N   0  0  0  0  0  0  0  0  0  0  0  0
  152.4724  143.5813  161.7684 C   0  0  0  0  0  0  0  0  0  0  0  0
  153.1535  142.6603  162.5113 C   0  0  0  0  0  0  0  0  0  0  0  0
  153.6591  141.7516  161.5410 C   0  0  0  0  0  0  0  0  0  0  0  0
  153.3198  142.0838  160.3064 N   0  0  0  0  0  0  0  0  0  0  0  0
  151.0865  145.7907  158.7484 H   0  0  0  0  0  0  0  0  0  0  0  0
  152.1433  145.8921  160.1483 H   0  0  0  0  0  0  0  0  0  0  0  0
  150.5559  145.1482  160.2990 H   0  0  0  0  0  0  0  0  0  0  0  0
  152.8839  144.0967  158.6084 H   0  0  0  0  0  0  0  0  0  0  0  0
  152.5815  141.6643  158.1805 H   0  0  0  0  0  0  0  0  0  0  0  0
  150.7544  139.9621  157.8888 H   0  0  0  0  0  0  0  0  0  0  0  0
  149.8716  141.1717  156.9961 H   0  0  0  0  0  0  0  0  0  0  0  0
  151.9676  141.3127  155.4339 H   0  0  0  0  0  0  0  0  0  0  0  0
  150.2583  138.7968  155.5697 H   0  0  0  0  0  0  0  0  0  0  0  0
  150.2089  140.0676  154.3412 H   0  0  0  0  0  0  0  0  0  0  0  0
  151.6674  137.8687  153.8255 H   0  0  0  0  0  0  0  0  0  0  0  0
  152.4183  139.4443  153.5368 H   0  0  0  0  0  0  0  0  0  0  0  0
  152.7389  137.6650  155.9796 H   0  0  0  0  0  0  0  0  0  0  0  0
  154.0070  138.5025  155.0805 H   0  0  0  0  0  0  0  0  0  0  0  0
  151.9271  144.4637  162.0691 H   0  0  0  0  0  0  0  0  0  0  0  0
  153.2755  142.6411  163.5839 H   0  0  0  0  0  0  0  0  0  0  0  0
  154.2617  140.8689  161.6959 H   0  0  0  0  0  0  0  0  0  0  0  0
  1  2  1  0  0  0  0
  1 17  1  0  0  0  0
  1 18  1  0  0  0  0
  1 19  1  0  0  0  0
  2  3  1  0  0  0  0
  2 12  1  0  0  0  0
  2 20  1  0  0  0  0
  3  4  2  0  0  0  0
  3  5  1  0  0  0  0
  5  6  1  0  0  0  0
  5 21  1  0  0  0  0
  6  7  1  0  0  0  0
  6 22  1  0  0  0  0
  6 23  1  0  0  0  0
  7 11  1  0  0  0  0
  7  8  1  0  0  0  0
  7 24  1  0  0  0  0
  8  9  1  0  0  0  0
  8 25  1  0  0  0  0
  8 26  1  0  0  0  0
  9 10  1  0  0  0  0
  9 27  1  0  0  0  0
  9 28  1  0  0  0  0
 10 11  1  0  0  0  0
 10 29  1  0  0  0  0
 10 30  1  0  0  0  0
 12 16  1  0  0  0  0
 12 13  1  0  0  0  0
 13 14  2  0  0  0  0
 13 31  1  0  0  0  0
 14 15  1  0  0  0  0
 14 32  1  0  0  0  0
 15 16  2  0  0  0  0
 15 33  1  0  0  0  0
M  END
> <s_m_source_file>
AV-unprocessed.smi

> <i_m_source_file_index>
3168

> <i_lp_mmshare_version>
43012

> <i_f3d_flags>
0

> <s_epik_input>
bjFbY0hdW2NIXVtjSF1uMVtDQEhdKFtDSDNdKUMoPU8pW05IXVtDSDJdW0NAQEhdMltDSDJdW0NIMl1bQ0gyXU8y

> <s_epik_cmdline>
J2VwaWtfcHl0aG9uJywgJy1waCcsICc3LjAnLCAnLXRuJywgJzgnLCAnLW1hJywgJzIwMCcsICctbWV0YWxfYmluZGluZycsICctaW1hZScsICc8aW5maWxlLm1hZT4nLCAnLW9tYWUnLCAnPG91dGZpbGUubWFlPic=

> <r_lp_tautomer_probability>
1

> <r_epik_Ionization_Penalty>
4.14877e-05

> <r_epik_Ionization_Penalty_Charging>
0

> <r_epik_Ionization_Penalty_Neutral>
4.14877e-05

> <r_epik_State_Penalty>
-0

> <r_epik_Charging_Adjusted_Penalty>
0

> <i_epik_Tot_Q>
0

> <i_epik_Tot_abs_Q>
0

> <r_epik_Metal_State_Penalty>
-0

> <b_epik_Metal_Only>
0

> <s_lp_Force_Field>
OPLS_2005

> <r_lp_Energy>
21.6016

> <b_lp_Chiralities_Consistent>
1

> <s_lp_Variant>
AV-unprocessed.smi:3168-1

> <Gold.Version>
5.8.1

> <Gold.Id.Protein>
6NUR|6NUR_protein|mol2

> <Gold.PLP.Fitness>
45.6120

> <Gold.PLP.PLP>
-42.9386

> <Gold.PLP.part.hbond>
-1.0000

> <Gold.PLP.part.metal>
0.0000

> <Gold.PLP.part.buried>
-6.7201

> <Gold.PLP.part.nonpolar>
-35.4669

> <Gold.PLP.part.repulsive>
0.2561

> <Gold.PLP.ligand.clash>
0.0000

> <Gold.PLP.ligand.torsion>
0.2164

> <Gold.PLP.Chemscore.Hbond>
1.0000

> <Gold.PLP.Chemscore.CHOScore>
0.0000

> <Gold.PLP.Chemscore.Metal>
0.0000

> <Gold.Chemscore.Hbonds>
donor molecule, donor type, donor heavy atom, donor atom, acceptor molecule, acceptor atom, score
      P1  H  7997  8010       L1    11  0.80

> <Gold.PLP.Chemscore.Internal.Correction>
0.1061

> <Gold.Rescore>
     Score         DG    S(hbond)    S(metal)    S(lipo)     H(rot)  DE(clash)    DE(int)     intcor
     11.54     -13.20       0.29        0.00      92.98       1.61       0.18       1.48       ----

> <Gold.Chemscore.Fitness>
11.5372

> <Gold.Chemscore.DG>
-13.2027

> <Gold.Chemscore.ZeroCoef>
-5.4800

> <Gold.Chemscore.Hbond>
0.2888

> <Gold.Chemscore.Metal>
0.0000

> <Gold.Chemscore.Lipo>
92.9769

> <Gold.Chemscore.Internal_Hbond>
0.0000

> <Gold.Chemscore.DEClash>
0.1815

> <Gold.Chemscore.DEInternal>
1.4841

> <Gold.Chemscore.Rot>
1.6094

> <Gold.Chemscore.Internal.Correction>
   9.000000E+99

> <Gold.Chemscore.Hbonds>
donor molecule, donor type, donor heavy atom, donor atom, acceptor molecule, acceptor atom, score
      P1  H  7997  8010       L1    11  0.12

> <Gold.Chemscore.Hbond.Weighted>
-0.9645

> <Gold.Chemscore.Metal.Weighted>
-0.0000

> <Gold.Chemscore.Lipo.Weighted>
-10.8783

> <Gold.Chemscore.Internal_Hbond.Weighted>
0.0000

> <Gold.Chemscore.DEClash.Weighted>
0.1815

> <Gold.Chemscore.DEInternal.Weighted>
1.4841

> <Gold.Chemscore.Rot.Weighted>
4.1201

> <Gold.Chemscore.Internal.Correction.Weighted>
   9.000000E+99

> <Gold.Protein.RotatedTorsions>
[ 6907 6896 6895 6894 ] final  -26.55 input  -60.11 | X-H torsion
[ 7974 7965 7964 7962 ] final   73.29 input  175.53 | X-H torsion
[ 8008 7997 7996 7995 ] final   79.59 input   59.86 | X-H torsion
[ 10167 10162 10161 10158 ] final  -47.50 input  -65.29 | X-H torsion
[ 10718 10713 10712 10709 ] final  -26.34 input   66.30 | X-H torsion
[ 10763 10752 10751 10750 ] final  110.16 input  -60.55 | X-H torsion
[ 11005 11000 10999 10996 ] final  168.35 input  -57.11 | X-H torsion

> <Gold.Protein.ActiveResidues>
 VAL166  LYS551  ARG553  GLY616  TRP617  ASP618  TYR619  PRO620  LYS621  CYS622 
 ASP623  PHE694  ASN695  SER759  ASP760  ASP761  ALA762  ILE779  LEU786  VAL792 
 PHE793  MET794  SER795  GLU796  ALA797  LYS798  CYS799  TRP800  GLU811  SER814 

> <Gold.Protein.RotatedAtoms>
  151.1594  135.0266  159.8703 H   0  0  0  0  0  0  0  0  0  0  0  0  # atno 6907 bound_to 6896
  152.5452  134.1296  159.8444 H   0  0  0  0  0  0  0  0  0  0  0  0  # atno 6908 bound_to 6896
  151.1390  133.4938  159.2630 H   0  0  0  0  0  0  0  0  0  0  0  0  # atno 6909 bound_to 6896
  145.7427  139.2727  143.1477 H   0  0  0  0  0  0  0  0  0  0  0  0  # atno 7974 bound_to 7965
  155.8717  140.3448  155.5826 H   0  0  0  0  0  0  0  0  0  0  0  0  # atno 8008 bound_to 7997
  155.7819  140.0859  157.2074 H   0  0  0  0  0  0  0  0  0  0  0  0  # atno 8009 bound_to 7997
  154.4018  140.1499  156.3050 H   0  0  0  0  0  0  0  0  0  0  0  0  # atno 8010 bound_to 7997
  140.6772  143.2782  151.3935 H   0  0  0  0  0  0  0  0  0  0  0  0  # atno 10167 bound_to 10162
  156.4525  130.4487  149.6981 H   0  0  0  0  0  0  0  0  0  0  0  0  # atno 10718 bound_to 10713
  153.4449  135.3757  155.2250 H   0  0  0  0  0  0  0  0  0  0  0  0  # atno 10763 bound_to 10752
  154.8755  135.3872  154.4108 H   0  0  0  0  0  0  0  0  0  0  0  0  # atno 10764 bound_to 10752
  153.4659  135.7087  153.6086 H   0  0  0  0  0  0  0  0  0  0  0  0  # atno 10765 bound_to 10752
  140.2864  134.7709  157.3801 H   0  0  0  0  0  0  0  0  0  0  0  0  # atno 11005 bound_to 11000
  146.0433  140.8143  142.9818 LP  0  0  0  0  0  0  0  0  0  0  0  0  # atno 17320 bound_to 7965
  144.6867  140.2942  143.7273 LP  0  0  0  0  0  0  0  0  0  0  0  0  # atno 17321 bound_to 7965
  139.6072  144.1173  152.2261 LP  0  0  0  0  0  0  0  0  0  0  0  0  # atno 17342 bound_to 10162
  140.0576  144.5883  150.7288 LP  0  0  0  0  0  0  0  0  0  0  0  0  # atno 17343 bound_to 10162
  156.3801  130.7575  151.2567 LP  0  0  0  0  0  0  0  0  0  0  0  0  # atno 17370 bound_to 10713
  157.7502  131.0298  150.4109 LP  0  0  0  0  0  0  0  0  0  0  0  0  # atno 17371 bound_to 10713
  140.1236  134.5187  155.8163 LP  0  0  0  0  0  0  0  0  0  0  0  0  # atno 17394 bound_to 11000
  141.2154  133.6765  156.6911 LP  0  0  0  0  0  0  0  0  0  0  0  0  # atno 17395 bound_to 11000

$$$$
