AV-unprocessed.smi:1867|AV-procd|sdf|7570|dock3
  -GOLD-   22720 9283D 1   1.00000     0.00000
 Structure written by MMmdl.
 53 56  0  0  0  0  0  0  0  0  3 V2000
  149.4411  135.1802  156.2226 O   0  0  0  0  0  0  0  0  0  0  0  0
  149.3276  135.5430  155.0544 C   0  0  0  0  0  0  0  0  0  0  0  0
  149.5858  136.7888  154.6100 N   0  0  0  0  0  0  0  0  0  0  0  0
  150.0966  137.9001  155.3333 C   0  0  0  0  0  0  0  0  0  0  0  0
  150.0663  139.1625  154.7041 C   0  0  0  0  0  0  0  0  0  0  0  0
  150.5610  140.2961  155.3810 C   0  0  0  0  0  0  0  0  0  0  0  0
  151.0737  140.1599  156.6926 C   0  0  0  0  0  0  0  0  0  0  0  0
  151.5992  141.2410  157.4241 N   0  0  0  0  0  0  0  0  0  0  0  0
  151.0775  142.5909  157.2964 C   0  0  0  0  0  0  0  0  0  0  0  0
  151.8766  143.4078  158.3114 C   0  0  0  0  0  0  0  0  0  0  0  0
  152.1673  142.3986  159.4234 C   0  0  0  0  0  0  0  0  0  0  0  0
  152.2963  141.0584  158.6898 C   0  0  0  0  0  0  0  0  0  0  0  0
  151.0682  138.9324  157.2642 N   0  3  0  0  0  0  0  0  0  0  0  0
  150.6059  137.8208  156.6518 C   0  0  0  0  0  0  0  0  0  0  0  0
  148.9263  134.6839  154.0999 N   0  0  0  0  0  0  0  0  0  0  0  0
  148.5662  133.2698  154.2258 C   0  0  2  0  0  0  0  0  0  0  0  0
  149.7834  132.3686  154.4042 C   0  0  0  0  0  0  0  0  0  0  0  0
  149.2379  130.9990  153.9991 C   0  0  0  0  0  0  0  0  0  0  0  0
  148.2507  131.2588  152.9272 N   0  3  1  0  0  0  0  0  0  0  0  0
  147.0983  130.3249  152.9090 C   0  0  0  0  0  0  0  0  0  0  0  0
  146.1386  130.6725  151.7570 C   0  0  0  0  0  0  0  0  0  0  0  0
  145.7259  132.1592  151.7437 C   0  0  0  0  0  0  0  0  0  0  0  0
  146.3828  132.9646  152.8764 C   0  0  0  0  0  0  0  0  0  0  0  0
  147.9061  132.7094  152.9513 C   0  0  1  0  0  0  0  0  0  0  0  0
  149.4864  136.9294  153.6156 H   0  0  0  0  0  0  0  0  0  0  0  0
  149.6758  139.2651  153.7021 H   0  0  0  0  0  0  0  0  0  0  0  0
  150.5432  141.2544  154.8835 H   0  0  0  0  0  0  0  0  0  0  0  0
  151.1991  142.9793  156.2848 H   0  0  0  0  0  0  0  0  0  0  0  0
  150.0157  142.5948  157.5463 H   0  0  0  0  0  0  0  0  0  0  0  0
  152.8141  143.7393  157.8623 H   0  0  0  0  0  0  0  0  0  0  0  0
  151.3412  144.2902  158.6628 H   0  0  0  0  0  0  0  0  0  0  0  0
  153.0553  142.6492  160.0046 H   0  0  0  0  0  0  0  0  0  0  0  0
  151.3198  142.3599  160.1089 H   0  0  0  0  0  0  0  0  0  0  0  0
  151.8739  140.2451  159.2814 H   0  0  0  0  0  0  0  0  0  0  0  0
  153.3425  140.8275  158.4862 H   0  0  0  0  0  0  0  0  0  0  0  0
  150.6587  136.9223  157.2477 H   0  0  0  0  0  0  0  0  0  0  0  0
  148.8399  135.0707  153.1706 H   0  0  0  0  0  0  0  0  0  0  0  0
  147.9152  133.1052  155.0865 H   0  0  0  0  0  0  0  0  0  0  0  0
  150.5837  132.6660  153.7243 H   0  0  0  0  0  0  0  0  0  0  0  0
  150.1790  132.3822  155.4203 H   0  0  0  0  0  0  0  0  0  0  0  0
  150.0209  130.3186  153.6636 H   0  0  0  0  0  0  0  0  0  0  0  0
  148.7436  130.5414  154.8577 H   0  0  0  0  0  0  0  0  0  0  0  0
  147.4623  129.3029  152.7966 H   0  0  0  0  0  0  0  0  0  0  0  0
  146.5714  130.3675  153.8638 H   0  0  0  0  0  0  0  0  0  0  0  0
  146.6170  130.4283  150.8073 H   0  0  0  0  0  0  0  0  0  0  0  0
  145.2521  130.0399  151.8159 H   0  0  0  0  0  0  0  0  0  0  0  0
  146.0044  132.5973  150.7843 H   0  0  0  0  0  0  0  0  0  0  0  0
  144.6411  132.2483  151.8111 H   0  0  0  0  0  0  0  0  0  0  0  0
  146.1853  134.0267  152.7303 H   0  0  0  0  0  0  0  0  0  0  0  0
  145.9129  132.6976  153.8241 H   0  0  0  0  0  0  0  0  0  0  0  0
  148.3833  133.1458  152.0720 H   0  0  0  0  0  0  0  0  0  0  0  0
  148.7381  131.1172  152.0537 H   0  0  0  0  0  0  0  0  0  0  0  0
  151.4354  138.8399  158.2114 H   0  0  0  0  0  0  0  0  0  0  0  0
  1  2  2  0  0  0  0
  2  3  1  0  0  0  0
  2 15  1  0  0  0  0
  3  4  1  0  0  0  0
  3 25  1  0  0  0  0
  4 14  1  0  0  0  0
  4  5  2  0  0  0  0
  5  6  1  0  0  0  0
  5 26  1  0  0  0  0
  6  7  2  0  0  0  0
  6 27  1  0  0  0  0
  7  8  1  0  0  0  0
  7 13  1  0  0  0  0
  8 12  1  0  0  0  0
  8  9  1  0  0  0  0
  9 10  1  0  0  0  0
  9 28  1  0  0  0  0
  9 29  1  0  0  0  0
 10 11  1  0  0  0  0
 10 30  1  0  0  0  0
 10 31  1  0  0  0  0
 11 12  1  0  0  0  0
 11 32  1  0  0  0  0
 11 33  1  0  0  0  0
 12 34  1  0  0  0  0
 12 35  1  0  0  0  0
 13 14  2  0  0  0  0
 13 53  1  0  0  0  0
 14 36  1  0  0  0  0
 15 16  1  0  0  0  0
 15 37  1  0  0  0  0
 16 24  1  0  0  0  0
 16 17  1  0  0  0  0
 16 38  1  0  0  0  0
 17 18  1  0  0  0  0
 17 39  1  0  0  0  0
 17 40  1  0  0  0  0
 18 19  1  0  0  0  0
 18 41  1  0  0  0  0
 18 42  1  0  0  0  0
 19 24  1  0  0  0  0
 19 20  1  0  0  0  0
 19 52  1  0  0  0  0
 20 21  1  0  0  0  0
 20 43  1  0  0  0  0
 20 44  1  0  0  0  0
 21 22  1  0  0  0  0
 21 45  1  0  0  0  0
 21 46  1  0  0  0  0
 22 23  1  0  0  0  0
 22 47  1  0  0  0  0
 22 48  1  0  0  0  0
 23 24  1  0  0  0  0
 23 49  1  0  0  0  0
 23 50  1  0  0  0  0
 24 51  1  0  0  0  0
M  CHG  1  13   1
M  CHG  1  19   1
M  END
> <s_m_source_file>
AV-unprocessed.smi

> <i_m_source_file_index>
1867

> <i_lp_mmshare_version>
43012

> <i_f3d_flags>
0

> <s_epik_input>
W0NIMl0xW0NIMl1bQ0gyXVtDSDJdW0NASF0oTjEyKVtDQEBIXShbQ0gyXVtDSDJdMilbTkhdQyg9TylbTkhdYzNbY0hdW2NIXWMobltjSF0zKU40W0NIMl1bQ0gyXVtDSDJdW0NIMl00

> <s_epik_cmdline>
J2VwaWtfcHl0aG9uJywgJy1waCcsICc3LjAnLCAnLXRuJywgJzgnLCAnLW1hJywgJzIwMCcsICctbWV0YWxfYmluZGluZycsICctaW1hZScsICc8aW5maWxlLm1hZT4nLCAnLW9tYWUnLCAnPG91dGZpbGUubWFlPic=

> <r_lp_tautomer_probability>
0.999994

> <r_epik_Ionization_Penalty>
1.27347

> <r_epik_Ionization_Penalty_Charging>
1.27345

> <r_epik_Ionization_Penalty_Neutral>
1.96458e-05

> <r_epik_State_Penalty>
1.34393

> <r_epik_Charging_Adjusted_Penalty>
2.61738

> <i_epik_Tot_Q>
2

> <i_epik_Tot_abs_Q>
2

> <r_epik_Metal_State_Penalty>
1.41094

> <b_epik_Metal_Only>
0

> <s_lp_Force_Field>
OPLS_2005

> <r_lp_Energy>
84.232

> <b_lp_Chiralities_Consistent>
1

> <s_lp_Variant>
AV-unprocessed.smi:1867-11

> <Gold.Version>
5.8.1

> <Gold.Id.Protein>
6NUR|6NUR_protein|mol2

> <Gold.PLP.Fitness>
50.8462

> <Gold.PLP.PLP>
-42.5527

> <Gold.PLP.part.hbond>
-3.0000

> <Gold.PLP.part.metal>
0.0000

> <Gold.PLP.part.buried>
-3.6524

> <Gold.PLP.part.nonpolar>
-35.1628

> <Gold.PLP.part.repulsive>
0.0763

> <Gold.PLP.ligand.clash>
0.0000

> <Gold.PLP.ligand.torsion>
0.4144

> <Gold.PLP.Chemscore.Hbond>
2.9920

> <Gold.PLP.Chemscore.CHOScore>
0.0000

> <Gold.PLP.Chemscore.Metal>
0.0000

> <Gold.Chemscore.Hbonds>
donor molecule, donor type, donor heavy atom, donor atom, acceptor molecule, acceptor atom, score
      L1  H     3    25       P1  7948  0.99
      L1  H    15    37       P1  7948  1.00
      L1  H    19    52       P1 10747  1.00

> <Gold.PLP.Chemscore.Internal.Correction>
0.1464

> <Gold.Rescore>
     Score         DG    S(hbond)    S(metal)    S(lipo)     H(rot)  DE(clash)    DE(int)     intcor
     23.08     -24.78       2.76        0.00     108.07       1.00       0.11       1.59       ----

> <Gold.Chemscore.Fitness>
23.0823

> <Gold.Chemscore.DG>
-24.7817

> <Gold.Chemscore.ZeroCoef>
-5.4800

> <Gold.Chemscore.Hbond>
2.7599

> <Gold.Chemscore.Metal>
0.0000

> <Gold.Chemscore.Lipo>
108.0668

> <Gold.Chemscore.Internal_Hbond>
0.0000

> <Gold.Chemscore.DEClash>
0.1088

> <Gold.Chemscore.DEInternal>
1.5906

> <Gold.Chemscore.Rot>
1.0000

> <Gold.Chemscore.Internal.Correction>
   9.000000E+99

> <Gold.Chemscore.Hbonds>
donor molecule, donor type, donor heavy atom, donor atom, acceptor molecule, acceptor atom, score
      L1  H     3    25       P1  7948  0.83
      L1  H    15    37       P1  7948  0.39
      L1  H    19    52       P1 10747  0.88

> <Gold.Chemscore.Hbond.Weighted>
-9.2179

> <Gold.Chemscore.Metal.Weighted>
-0.0000

> <Gold.Chemscore.Lipo.Weighted>
-12.6438

> <Gold.Chemscore.Internal_Hbond.Weighted>
0.0000

> <Gold.Chemscore.DEClash.Weighted>
0.1088

> <Gold.Chemscore.DEInternal.Weighted>
1.5906

> <Gold.Chemscore.Rot.Weighted>
2.5600

> <Gold.Chemscore.Internal.Correction.Weighted>
   9.000000E+99

> <Gold.Protein.RotatedTorsions>
[ 6907 6896 6895 6894 ] final -163.58 input  -60.11 | X-H torsion
[ 7974 7965 7964 7962 ] final  -81.32 input  175.53 | X-H torsion
[ 8008 7997 7996 7995 ] final -118.54 input   59.86 | X-H torsion
[ 10167 10162 10161 10158 ] final   74.08 input  -65.29 | X-H torsion
[ 10718 10713 10712 10709 ] final -111.41 input   66.30 | X-H torsion
[ 10763 10752 10751 10750 ] final   46.20 input  -60.55 | X-H torsion
[ 11005 11000 10999 10996 ] final  169.75 input  -57.11 | X-H torsion

> <Gold.Protein.ActiveResidues>
 VAL166  LYS551  ARG553  GLY616  TRP617  ASP618  TYR619  PRO620  LYS621  CYS622 
 ASP623  PHE694  ASN695  SER759  ASP760  ASP761  ALA762  ILE779  LEU786  VAL792 
 PHE793  MET794  SER795  GLU796  ALA797  LYS798  CYS799  TRP800  GLU811  SER814 

> <Gold.Protein.RotatedAtoms>
  151.3983  133.3766  159.2728 H   0  0  0  0  0  0  0  0  0  0  0  0  # atno 6907 bound_to 6896
  150.9452  134.8859  159.7648 H   0  0  0  0  0  0  0  0  0  0  0  0  # atno 6908 bound_to 6896
  152.5089  134.3936  159.9444 H   0  0  0  0  0  0  0  0  0  0  0  0  # atno 6909 bound_to 6896
  145.5483  140.9500  143.1513 H   0  0  0  0  0  0  0  0  0  0  0  0  # atno 7974 bound_to 7965
  155.1013  140.0396  157.2697 H   0  0  0  0  0  0  0  0  0  0  0  0  # atno 8008 bound_to 7997
  154.6756  140.2622  155.6936 H   0  0  0  0  0  0  0  0  0  0  0  0  # atno 8009 bound_to 7997
  156.2675  140.2789  156.1281 H   0  0  0  0  0  0  0  0  0  0  0  0  # atno 8010 bound_to 7997
  140.0176  144.5566  150.7608 H   0  0  0  0  0  0  0  0  0  0  0  0  # atno 10167 bound_to 10162
  156.0645  130.5866  150.8370 H   0  0  0  0  0  0  0  0  0  0  0  0  # atno 10718 bound_to 10713
  152.9814  135.6015  154.3561 H   0  0  0  0  0  0  0  0  0  0  0  0  # atno 10763 bound_to 10752
  154.3246  135.2769  155.2504 H   0  0  0  0  0  0  0  0  0  0  0  0  # atno 10764 bound_to 10752
  154.4655  135.5955  153.6341 H   0  0  0  0  0  0  0  0  0  0  0  0  # atno 10765 bound_to 10752
  140.3011  134.7594  157.3917 H   0  0  0  0  0  0  0  0  0  0  0  0  # atno 11005 bound_to 11000
  144.7542  139.7116  143.7261 LP  0  0  0  0  0  0  0  0  0  0  0  0  # atno 17320 bound_to 7965
  146.1934  139.5187  142.9790 LP  0  0  0  0  0  0  0  0  0  0  0  0  # atno 17321 bound_to 7965
  140.7356  143.2742  151.3792 LP  0  0  0  0  0  0  0  0  0  0  0  0  # atno 17342 bound_to 10162
  139.6162  144.0998  152.2347 LP  0  0  0  0  0  0  0  0  0  0  0  0  # atno 17343 bound_to 10162
  157.5678  131.0946  150.9463 LP  0  0  0  0  0  0  0  0  0  0  0  0  # atno 17370 bound_to 10713
  156.9686  130.5482  149.5289 LP  0  0  0  0  0  0  0  0  0  0  0  0  # atno 17371 bound_to 10713
  140.1108  134.5348  155.8267 LP  0  0  0  0  0  0  0  0  0  0  0  0  # atno 17394 bound_to 11000
  141.2128  133.6724  156.6686 LP  0  0  0  0  0  0  0  0  0  0  0  0  # atno 17395 bound_to 11000

$$$$
