AV-unprocessed.smi:2526|AV-procd|sdf|9935|dock10
  -GOLD-   2272013583D 1   1.00000     0.00000
 Structure written by MMmdl.
 29 30  0  0  0  0  0  0  0  0  2 V2000
  152.5123  143.5688  161.0031 C   0  0  0  0  0  0  0  0  0  0  0  0
  152.0106  143.5013  159.6472 N   0  0  0  0  0  0  0  0  0  0  0  0
  151.7546  142.3870  158.8787 C   0  0  0  0  0  0  0  0  0  0  0  0
  151.2848  142.8170  157.6669 C   0  0  0  0  0  0  0  0  0  0  0  0
  150.8432  142.0135  156.4599 C   0  0  1  0  0  0  0  0  0  0  0  0
  151.8553  141.0169  156.0994 N   0  0  0  0  0  0  0  0  0  0  0  0
  151.8517  139.7125  156.4330 C   0  0  0  0  0  0  0  0  0  0  0  0
  152.8088  138.9854  156.1803 O   0  0  0  0  0  0  0  0  0  0  0  0
  150.6025  139.1094  157.0976 C   0  0  0  0  0  0  0  0  0  0  0  0
  149.5999  140.1492  157.6305 C   0  0  0  0  0  0  0  0  0  0  0  0
  149.4668  141.3354  156.6659 C   0  0  1  0  0  0  0  0  0  0  0  0
  148.4269  142.2845  157.1052 N   0  3  0  0  0  0  0  0  0  0  0  0
  151.3082  144.2362  157.7987 C   0  0  0  0  0  0  0  0  0  0  0  0
  151.7339  144.6410  158.9829 N   0  0  0  0  0  0  0  0  0  0  0  0
  152.6595  142.5634  161.3983 H   0  0  0  0  0  0  0  0  0  0  0  0
  151.7980  144.0967  161.6359 H   0  0  0  0  0  0  0  0  0  0  0  0
  153.4654  144.0984  161.0183 H   0  0  0  0  0  0  0  0  0  0  0  0
  151.9202  141.3882  159.2562 H   0  0  0  0  0  0  0  0  0  0  0  0
  150.7588  142.6798  155.6005 H   0  0  0  0  0  0  0  0  0  0  0  0
  152.6745  141.3652  155.6218 H   0  0  0  0  0  0  0  0  0  0  0  0
  150.1098  138.4907  156.3470 H   0  0  0  0  0  0  0  0  0  0  0  0
  150.9049  138.4365  157.9005 H   0  0  0  0  0  0  0  0  0  0  0  0
  148.6297  139.6724  157.7737 H   0  0  0  0  0  0  0  0  0  0  0  0
  149.9162  140.4949  158.6157 H   0  0  0  0  0  0  0  0  0  0  0  0
  149.1319  140.9446  155.7036 H   0  0  0  0  0  0  0  0  0  0  0  0
  148.4384  142.3508  158.1132 H   0  0  0  0  0  0  0  0  0  0  0  0
  147.5210  141.9581  156.7999 H   0  0  0  0  0  0  0  0  0  0  0  0
  151.0219  144.9814  157.0711 H   0  0  0  0  0  0  0  0  0  0  0  0
  148.6087  143.1943  156.7062 H   0  0  0  0  0  0  0  0  0  0  0  0
  1  2  1  0  0  0  0
  1 15  1  0  0  0  0
  1 16  1  0  0  0  0
  1 17  1  0  0  0  0
  2 14  1  0  0  0  0
  2  3  1  0  0  0  0
  3  4  2  0  0  0  0
  3 18  1  0  0  0  0
  4  5  1  0  0  0  0
  4 13  1  0  0  0  0
  5 11  1  0  0  0  0
  5  6  1  0  0  0  0
  5 19  1  0  0  0  0
  6  7  1  0  0  0  0
  6 20  1  0  0  0  0
  7  8  2  0  0  0  0
  7  9  1  0  0  0  0
  9 10  1  0  0  0  0
  9 21  1  0  0  0  0
  9 22  1  0  0  0  0
 10 11  1  0  0  0  0
 10 23  1  0  0  0  0
 10 24  1  0  0  0  0
 11 12  1  0  0  0  0
 11 25  1  0  0  0  0
 12 26  1  0  0  0  0
 12 27  1  0  0  0  0
 12 29  1  0  0  0  0
 13 14  2  0  0  0  0
 13 28  1  0  0  0  0
M  CHG  1  12   1
M  END
> <s_m_source_file>
AV-unprocessed.smi

> <i_m_source_file_index>
2526

> <i_lp_mmshare_version>
43012

> <i_f3d_flags>
0

> <s_epik_input>
W0NIM11uMVtjSF1jKFtjSF1uMSlbQ0BASF0yW05IXUMoPU8pW0NIMl1bQ0gyXVtDQEhdMltOSDJd

> <s_epik_cmdline>
J2VwaWtfcHl0aG9uJywgJy1waCcsICc3LjAnLCAnLXRuJywgJzgnLCAnLW1hJywgJzIwMCcsICctbWV0YWxfYmluZGluZycsICctaW1hZScsICc8aW5maWxlLm1hZT4nLCAnLW9tYWUnLCAnPG91dGZpbGUubWFlPic=

> <r_lp_tautomer_probability>
1

> <r_epik_Ionization_Penalty>
0.00878543

> <r_epik_Ionization_Penalty_Charging>
0.00874185

> <r_epik_Ionization_Penalty_Neutral>
4.35793e-05

> <r_epik_State_Penalty>
0.00660351

> <r_epik_Charging_Adjusted_Penalty>
0.0153454

> <i_epik_Tot_Q>
1

> <i_epik_Tot_abs_Q>
1

> <r_epik_Metal_State_Penalty>
0.00660727

> <b_epik_Metal_Only>
0

> <s_lp_Force_Field>
OPLS_2005

> <r_lp_Energy>
11.1602

> <b_lp_Chiralities_Consistent>
1

> <s_lp_Variant>
AV-unprocessed.smi:2526-2

> <Gold.Version>
5.8.1

> <Gold.Id.Protein>
6NUR|6NUR_protein|mol2

> <Gold.PLP.Fitness>
35.2489

> <Gold.PLP.PLP>
-24.2041

> <Gold.PLP.part.hbond>
-2.0000

> <Gold.PLP.part.metal>
0.0000

> <Gold.PLP.part.buried>
-1.8601

> <Gold.PLP.part.nonpolar>
-20.9160

> <Gold.PLP.part.repulsive>
0.2735

> <Gold.PLP.ligand.clash>
0.0000

> <Gold.PLP.ligand.torsion>
0.2548

> <Gold.PLP.Chemscore.Hbond>
3.0000

> <Gold.PLP.Chemscore.CHOScore>
0.8453

> <Gold.PLP.Chemscore.Metal>
0.0000

> <Gold.Chemscore.Hbonds>
donor molecule, donor type, donor heavy atom, donor atom, acceptor molecule, acceptor atom, score
      L1  H    12    29       P1  8028  2.00
      P1  H  7997  8009       L1     8  1.00
      L1  C    13    28       P1  8028  0.85

> <Gold.PLP.Chemscore.Internal.Correction>
0.0187

> <Gold.Rescore>
     Score         DG    S(hbond)    S(metal)    S(lipo)     H(rot)  DE(clash)    DE(int)     intcor
     14.26     -15.97       1.71        0.00      62.77       1.00       1.58       0.13       ----

> <Gold.Chemscore.Fitness>
14.2633

> <Gold.Chemscore.DG>
-15.9682

> <Gold.Chemscore.ZeroCoef>
-5.4800

> <Gold.Chemscore.Hbond>
1.7077

> <Gold.Chemscore.Metal>
0.0000

> <Gold.Chemscore.Lipo>
62.7741

> <Gold.Chemscore.Internal_Hbond>
0.0000

> <Gold.Chemscore.DEClash>
1.5773

> <Gold.Chemscore.DEInternal>
0.1276

> <Gold.Chemscore.Rot>
1.0000

> <Gold.Chemscore.Internal.Correction>
   9.000000E+99

> <Gold.Chemscore.Hbonds>
donor molecule, donor type, donor heavy atom, donor atom, acceptor molecule, acceptor atom, score
      L1  H    12    29       P1  8028  0.70
      P1  H  7997  8009       L1     8  0.50

> <Gold.Chemscore.Hbond.Weighted>
-5.7036

> <Gold.Chemscore.Metal.Weighted>
-0.0000

> <Gold.Chemscore.Lipo.Weighted>
-7.3446

> <Gold.Chemscore.Internal_Hbond.Weighted>
0.0000

> <Gold.Chemscore.DEClash.Weighted>
1.5773

> <Gold.Chemscore.DEInternal.Weighted>
0.1276

> <Gold.Chemscore.Rot.Weighted>
2.5600

> <Gold.Chemscore.Internal.Correction.Weighted>
   9.000000E+99

> <Gold.Protein.RotatedTorsions>
[ 6907 6896 6895 6894 ] final   10.61 input  -60.11 | X-H torsion
[ 7974 7965 7964 7962 ] final   12.78 input  175.53 | X-H torsion
[ 8008 7997 7996 7995 ] final -165.18 input   59.86 | X-H torsion
[ 10167 10162 10161 10158 ] final  153.82 input  -65.29 | X-H torsion
[ 10718 10713 10712 10709 ] final  -22.22 input   66.30 | X-H torsion
[ 10763 10752 10751 10750 ] final   28.69 input  -60.55 | X-H torsion
[ 11005 11000 10999 10996 ] final   51.96 input  -57.11 | X-H torsion

> <Gold.Protein.ActiveResidues>
 VAL166  LYS551  ARG553  GLY616  TRP617  ASP618  TYR619  PRO620  LYS621  CYS622 
 ASP623  PHE694  ASN695  SER759  ASP760  ASP761  ALA762  ILE779  LEU786  VAL792 
 PHE793  MET794  SER795  GLU796  ALA797  LYS798  CYS799  TRP800  GLU811  SER814 

> <Gold.Protein.RotatedAtoms>
  151.7410  135.0854  160.0315 H   0  0  0  0  0  0  0  0  0  0  0  0  # atno 6907 bound_to 6896
  152.3479  133.6140  159.5932 H   0  0  0  0  0  0  0  0  0  0  0  0  # atno 6908 bound_to 6896
  150.7521  133.9536  159.3535 H   0  0  0  0  0  0  0  0  0  0  0  0  # atno 6909 bound_to 6896
  146.2344  139.9285  142.8499 H   0  0  0  0  0  0  0  0  0  0  0  0  # atno 7974 bound_to 7965
  155.8461  140.0956  157.1704 H   0  0  0  0  0  0  0  0  0  0  0  0  # atno 8008 bound_to 7997
  154.3983  140.1392  156.3849 H   0  0  0  0  0  0  0  0  0  0  0  0  # atno 8009 bound_to 7997
  155.8012  140.3453  155.5406 H   0  0  0  0  0  0  0  0  0  0  0  0  # atno 8010 bound_to 7997
  139.4825  144.5240  151.7830 H   0  0  0  0  0  0  0  0  0  0  0  0  # atno 10167 bound_to 10162
  156.5075  130.4602  149.6666 H   0  0  0  0  0  0  0  0  0  0  0  0  # atno 10718 bound_to 10713
  153.0476  135.6507  154.0777 H   0  0  0  0  0  0  0  0  0  0  0  0  # atno 10763 bound_to 10752
  154.0471  135.2898  155.3347 H   0  0  0  0  0  0  0  0  0  0  0  0  # atno 10764 bound_to 10752
  154.6744  135.5344  153.8246 H   0  0  0  0  0  0  0  0  0  0  0  0  # atno 10765 bound_to 10752
  140.0889  134.5236  155.8872 H   0  0  0  0  0  0  0  0  0  0  0  0  # atno 11005 bound_to 11000
  145.2067  140.9878  143.4124 LP  0  0  0  0  0  0  0  0  0  0  0  0  # atno 17320 bound_to 7965
  144.9726  139.3864  143.6301 LP  0  0  0  0  0  0  0  0  0  0  0  0  # atno 17321 bound_to 7965
  140.4758  144.1521  150.5924 LP  0  0  0  0  0  0  0  0  0  0  0  0  # atno 17342 bound_to 10162
  140.4332  143.2559  151.9568 LP  0  0  0  0  0  0  0  0  0  0  0  0  # atno 17343 bound_to 10162
  156.3272  130.7312  151.2235 LP  0  0  0  0  0  0  0  0  0  0  0  0  # atno 17370 bound_to 10713
  157.7455  131.0439  150.4769 LP  0  0  0  0  0  0  0  0  0  0  0  0  # atno 17371 bound_to 10713
  141.2071  133.6661  156.6287 LP  0  0  0  0  0  0  0  0  0  0  0  0  # atno 17394 bound_to 11000
  140.3381  134.7872  157.4377 LP  0  0  0  0  0  0  0  0  0  0  0  0  # atno 17395 bound_to 11000

$$$$
