AV-unprocessed.smi:1639|AV-procd|sdf|6551|dock10
  -GOLD-   22720 7233D 1   1.00000     0.00000
 Structure written by MMmdl.
 38 39  0  0  0  0  0  0  0  0  2 V2000
  150.8630  145.3461  159.9815 C   0  0  0  0  0  0  0  0  0  0  0  0
  151.1928  143.8565  159.8150 C   0  0  0  0  0  0  0  0  0  0  0  0
  152.5259  143.6623  159.3615 O   0  0  0  0  0  0  0  0  0  0  0  0
  152.8050  142.3675  158.8438 C   0  0  1  0  0  0  0  0  0  0  0  0
  152.7819  141.3512  159.9988 C   0  0  0  0  0  0  0  0  0  0  0  0
  152.9189  139.9222  159.4498 C   0  0  0  0  0  0  0  0  0  0  0  0
  151.8433  139.6384  158.3867 C   0  0  0  0  0  0  0  0  0  0  0  0
  151.8769  140.6483  157.3318 N   0  0  0  0  0  0  0  0  0  0  0  0
  151.0290  140.3451  156.2602 C   0  0  0  0  0  0  0  0  0  0  0  0
  150.0709  141.2494  155.7538 C   0  0  0  0  0  0  0  0  0  0  0  0
  149.2922  140.8060  154.6706 C   0  0  0  0  0  0  0  0  0  0  0  0
  148.2338  141.6857  154.0395 C   0  0  0  0  0  0  0  0  0  0  0  0
  149.4534  139.5752  154.1434 N   0  0  0  0  0  0  0  0  0  0  0  0
  150.3787  138.7652  154.6697 C   0  0  0  0  0  0  0  0  0  0  0  0
  150.5350  137.5135  154.1242 N   0  0  0  0  0  0  0  0  0  0  0  0
  151.1594  139.1167  155.7018 N   0  3  0  0  0  0  0  0  0  0  0  0
  151.7260  142.0227  157.8026 C   0  0  0  0  0  0  0  0  0  0  0  0
  149.8607  145.4756  160.3902 H   0  0  0  0  0  0  0  0  0  0  0  0
  150.9011  145.8778  159.0308 H   0  0  0  0  0  0  0  0  0  0  0  0
  151.5651  145.8271  160.6628 H   0  0  0  0  0  0  0  0  0  0  0  0
  151.0976  143.3624  160.7821 H   0  0  0  0  0  0  0  0  0  0  0  0
  150.4826  143.3663  159.1473 H   0  0  0  0  0  0  0  0  0  0  0  0
  153.7813  142.3292  158.3559 H   0  0  0  0  0  0  0  0  0  0  0  0
  153.5833  141.5611  160.7076 H   0  0  0  0  0  0  0  0  0  0  0  0
  151.8455  141.4417  160.5508 H   0  0  0  0  0  0  0  0  0  0  0  0
  153.9094  139.7927  159.0116 H   0  0  0  0  0  0  0  0  0  0  0  0
  152.8420  139.1993  160.2623 H   0  0  0  0  0  0  0  0  0  0  0  0
  152.0016  138.6492  157.9549 H   0  0  0  0  0  0  0  0  0  0  0  0
  150.8571  139.6298  158.8531 H   0  0  0  0  0  0  0  0  0  0  0  0
  149.9420  142.2354  156.1763 H   0  0  0  0  0  0  0  0  0  0  0  0
  148.1845  142.6577  154.5313 H   0  0  0  0  0  0  0  0  0  0  0  0
  147.2530  141.2154  154.1162 H   0  0  0  0  0  0  0  0  0  0  0  0
  148.4548  141.8494  152.9844 H   0  0  0  0  0  0  0  0  0  0  0  0
  149.9616  137.2209  153.3460 H   0  0  0  0  0  0  0  0  0  0  0  0
  151.2271  136.8755  154.4895 H   0  0  0  0  0  0  0  0  0  0  0  0
  150.7357  142.1506  158.2417 H   0  0  0  0  0  0  0  0  0  0  0  0
  151.7931  142.7103  156.9583 H   0  0  0  0  0  0  0  0  0  0  0  0
  151.8561  138.4723  156.0760 H   0  0  0  0  0  0  0  0  0  0  0  0
  1  2  1  0  0  0  0
  1 18  1  0  0  0  0
  1 19  1  0  0  0  0
  1 20  1  0  0  0  0
  2  3  1  0  0  0  0
  2 21  1  0  0  0  0
  2 22  1  0  0  0  0
  3  4  1  0  0  0  0
  4 17  1  0  0  0  0
  4  5  1  0  0  0  0
  4 23  1  0  0  0  0
  5  6  1  0  0  0  0
  5 24  1  0  0  0  0
  5 25  1  0  0  0  0
  6  7  1  0  0  0  0
  6 26  1  0  0  0  0
  6 27  1  0  0  0  0
  7  8  1  0  0  0  0
  7 28  1  0  0  0  0
  7 29  1  0  0  0  0
  8  9  1  0  0  0  0
  8 17  1  0  0  0  0
  9 16  1  0  0  0  0
  9 10  2  0  0  0  0
 10 11  1  0  0  0  0
 10 30  1  0  0  0  0
 11 12  1  0  0  0  0
 11 13  2  0  0  0  0
 12 31  1  0  0  0  0
 12 32  1  0  0  0  0
 12 33  1  0  0  0  0
 13 14  1  0  0  0  0
 14 15  1  0  0  0  0
 14 16  2  0  0  0  0
 15 34  1  0  0  0  0
 15 35  1  0  0  0  0
 16 38  1  0  0  0  0
 17 36  1  0  0  0  0
 17 37  1  0  0  0  0
M  CHG  1  16   1
M  END
> <s_m_source_file>
AV-unprocessed.smi

> <i_m_source_file_index>
1639

> <i_lp_mmshare_version>
43012

> <i_f3d_flags>
0

> <s_epik_input>
W0NIM11bQ0gyXU9bQ0BASF0xW0NIMl1bQ0gyXVtDSDJdTihbQ0gyXTEpYzJbY0hdYyhbQ0gzXSluYyhuMilbTkgyXQ==

> <s_epik_cmdline>
J2VwaWtfcHl0aG9uJywgJy1waCcsICc3LjAnLCAnLXRuJywgJzgnLCAnLW1hJywgJzIwMCcsICctbWV0YWxfYmluZGluZycsICctaW1hZScsICc8aW5maWxlLm1hZT4nLCAnLW9tYWUnLCAnPG91dGZpbGUubWFlPic=

> <r_lp_tautomer_probability>
0.424989

> <r_epik_Ionization_Penalty>
0.443088

> <r_epik_Ionization_Penalty_Charging>
0.443085

> <r_epik_Ionization_Penalty_Neutral>
3.21819e-06

> <r_epik_State_Penalty>
1.26241

> <r_epik_Charging_Adjusted_Penalty>
1.70549

> <i_epik_Tot_Q>
1

> <i_epik_Tot_abs_Q>
1

> <r_epik_Metal_State_Penalty>
1.59997

> <b_epik_Metal_Only>
0

> <s_lp_Force_Field>
OPLS_2005

> <r_lp_Energy>
15.005

> <b_lp_Chiralities_Consistent>
1

> <s_lp_Variant>
AV-unprocessed.smi:1639-4

> <Gold.Version>
5.8.1

> <Gold.Id.Protein>
6NUR|6NUR_protein|mol2

> <Gold.PLP.Fitness>
39.9475

> <Gold.PLP.PLP>
-34.3537

> <Gold.PLP.part.hbond>
-1.7916

> <Gold.PLP.part.metal>
0.0000

> <Gold.PLP.part.buried>
-7.0179

> <Gold.PLP.part.nonpolar>
-26.9861

> <Gold.PLP.part.repulsive>
0.9679

> <Gold.PLP.ligand.clash>
0.1833

> <Gold.PLP.ligand.torsion>
0.1815

> <Gold.PLP.Chemscore.Hbond>
2.0000

> <Gold.PLP.Chemscore.CHOScore>
0.0000

> <Gold.PLP.Chemscore.Metal>
0.0000

> <Gold.Chemscore.Hbonds>
donor molecule, donor type, donor heavy atom, donor atom, acceptor molecule, acceptor atom, score
      L1  H    15    34       P1  7948  2.00

> <Gold.PLP.Chemscore.Internal.Correction>
0.1402

> <Gold.Rescore>
     Score         DG    S(hbond)    S(metal)    S(lipo)     H(rot)  DE(clash)    DE(int)     intcor
     13.96     -14.16       0.91        0.00      79.99       1.46       0.02       0.18       ----

> <Gold.Chemscore.Fitness>
13.9628

> <Gold.Chemscore.DG>
-14.1641

> <Gold.Chemscore.ZeroCoef>
-5.4800

> <Gold.Chemscore.Hbond>
0.9140

> <Gold.Chemscore.Metal>
0.0000

> <Gold.Chemscore.Lipo>
79.9871

> <Gold.Chemscore.Internal_Hbond>
0.0000

> <Gold.Chemscore.DEClash>
0.0180

> <Gold.Chemscore.DEInternal>
0.1833

> <Gold.Chemscore.Rot>
1.4560

> <Gold.Chemscore.Internal.Correction>
   9.000000E+99

> <Gold.Chemscore.Hbonds>
donor molecule, donor type, donor heavy atom, donor atom, acceptor molecule, acceptor atom, score
      L1  H    15    34       P1  7948  0.33

> <Gold.Chemscore.Hbond.Weighted>
-3.0528

> <Gold.Chemscore.Metal.Weighted>
-0.0000

> <Gold.Chemscore.Lipo.Weighted>
-9.3585

> <Gold.Chemscore.Internal_Hbond.Weighted>
0.0000

> <Gold.Chemscore.DEClash.Weighted>
0.0180

> <Gold.Chemscore.DEInternal.Weighted>
0.1833

> <Gold.Chemscore.Rot.Weighted>
3.7272

> <Gold.Chemscore.Internal.Correction.Weighted>
   9.000000E+99

> <Gold.Protein.RotatedTorsions>
[ 6907 6896 6895 6894 ] final  102.66 input  -60.11 | X-H torsion
[ 7974 7965 7964 7962 ] final  145.55 input  175.53 | X-H torsion
[ 8008 7997 7996 7995 ] final  -42.24 input   59.86 | X-H torsion
[ 10167 10162 10161 10158 ] final  172.17 input  -65.29 | X-H torsion
[ 10718 10713 10712 10709 ] final -146.83 input   66.30 | X-H torsion
[ 10763 10752 10751 10750 ] final   49.01 input  -60.55 | X-H torsion
[ 11005 11000 10999 10996 ] final   17.24 input  -57.11 | X-H torsion

> <Gold.Protein.ActiveResidues>
 VAL166  LYS551  ARG553  GLY616  TRP617  ASP618  TYR619  PRO620  LYS621  CYS622 
 ASP623  PHE694  ASN695  SER759  ASP760  ASP761  ALA762  ILE779  LEU786  VAL792 
 PHE793  MET794  SER795  GLU796  ALA797  LYS798  CYS799  TRP800  GLU811  SER814 

> <Gold.Protein.RotatedAtoms>
  152.5317  133.9942  159.7864 H   0  0  0  0  0  0  0  0  0  0  0  0  # atno 6907 bound_to 6896
  151.0172  133.5902  159.2682 H   0  0  0  0  0  0  0  0  0  0  0  0  # atno 6908 bound_to 6896
  151.2955  135.0761  159.9273 H   0  0  0  0  0  0  0  0  0  0  0  0  # atno 6909 bound_to 6896
  144.8743  139.5797  143.5872 H   0  0  0  0  0  0  0  0  0  0  0  0  # atno 7974 bound_to 7965
  154.4000  140.1478  156.3322 H   0  0  0  0  0  0  0  0  0  0  0  0  # atno 8008 bound_to 7997
  155.8432  140.3461  155.5624 H   0  0  0  0  0  0  0  0  0  0  0  0  # atno 8009 bound_to 7997
  155.8064  140.0877  157.1919 H   0  0  0  0  0  0  0  0  0  0  0  0  # atno 8010 bound_to 7997
  139.5068  144.3404  152.0023 H   0  0  0  0  0  0  0  0  0  0  0  0  # atno 10167 bound_to 10162
  156.3999  130.7928  151.2138 H   0  0  0  0  0  0  0  0  0  0  0  0  # atno 10718 bound_to 10713
  152.9789  135.5925  154.4019 H   0  0  0  0  0  0  0  0  0  0  0  0  # atno 10763 bound_to 10752
  154.3664  135.2767  155.2293 H   0  0  0  0  0  0  0  0  0  0  0  0  # atno 10764 bound_to 10752
  154.4268  135.6046  153.6098 H   0  0  0  0  0  0  0  0  0  0  0  0  # atno 10765 bound_to 10752
  140.4381  134.1350  155.7687 H   0  0  0  0  0  0  0  0  0  0  0  0  # atno 11005 bound_to 11000
  146.2952  139.7256  142.9132 LP  0  0  0  0  0  0  0  0  0  0  0  0  # atno 17320 bound_to 7965
  145.4072  141.0392  143.3037 LP  0  0  0  0  0  0  0  0  0  0  0  0  # atno 17321 bound_to 7965
  140.2842  144.3825  150.6109 LP  0  0  0  0  0  0  0  0  0  0  0  0  # atno 17342 bound_to 10162
  140.5995  143.2167  151.7099 LP  0  0  0  0  0  0  0  0  0  0  0  0  # atno 17343 bound_to 10162
  157.7503  131.0290  150.4073 LP  0  0  0  0  0  0  0  0  0  0  0  0  # atno 17370 bound_to 10713
  156.4350  130.3980  149.6735 LP  0  0  0  0  0  0  0  0  0  0  0  0  # atno 17371 bound_to 10713
  141.1717  133.8595  157.1549 LP  0  0  0  0  0  0  0  0  0  0  0  0  # atno 17394 bound_to 11000
  140.0088  134.9997  157.0351 LP  0  0  0  0  0  0  0  0  0  0  0  0  # atno 17395 bound_to 11000

$$$$
