AV-unprocessed.smi:294|AV-procd|sdf|2253|dock9
  -GOLD-   2262022143D 1   1.00000     0.00000
 Structure written by MMmdl.
 29 30  0  0  0  0  0  0  0  0  1 V2000
  144.5467  145.8884  152.2360 N   0  0  0  0  0  0  0  0  0  0  0  0
  144.8303  145.0088  152.9325 C   0  0  0  0  0  0  0  0  0  0  0  0
  145.1862  143.9043  153.8070 C   0  0  0  0  0  0  0  0  0  0  0  0
  144.8406  143.9000  155.1273 N   0  0  0  0  0  0  0  0  0  0  0  0
  145.3691  142.7332  155.4752 C   0  0  0  0  0  0  0  0  0  0  0  0
  145.9721  142.0887  154.4703 N   0  0  0  0  0  0  0  0  0  0  0  0
  146.6475  140.8038  154.4449 C   0  0  0  0  0  0  0  0  0  0  0  0
  148.1665  140.9777  154.4821 C   0  0  0  0  0  0  0  0  0  0  0  0
  148.6938  141.9128  153.8806 O   0  0  0  0  0  0  0  0  0  0  0  0
  148.8563  140.0705  155.1910 N   0  0  0  0  0  0  0  0  0  0  0  0
  150.3037  140.0693  155.3714 C   0  0  1  0  0  0  0  0  0  0  0  0
  150.6762  140.1312  156.8641 C   0  0  0  0  0  0  0  0  0  0  0  0
  152.1593  139.7713  157.0142 C   0  0  0  0  0  0  0  0  0  0  0  0
  152.5326  138.5869  155.6657 S   0  0  0  0  0  0  0  0  0  0  0  0
  153.6349  139.1223  154.8524 O   0  0  0  0  0  0  0  0  0  0  0  0
  152.5862  137.2217  156.2101 O   0  0  0  0  0  0  0  0  0  0  0  0
  150.9490  138.8101  154.7718 C   0  0  0  0  0  0  0  0  0  0  0  0
  145.8612  142.8497  153.3538 N   0  0  0  0  0  0  0  0  0  0  0  0
  145.3117  142.3377  156.4791 H   0  0  0  0  0  0  0  0  0  0  0  0
  146.3212  140.1999  155.2933 H   0  0  0  0  0  0  0  0  0  0  0  0
  146.3529  140.2729  153.5387 H   0  0  0  0  0  0  0  0  0  0  0  0
  148.3375  139.3366  155.6521 H   0  0  0  0  0  0  0  0  0  0  0  0
  150.7347  140.9471  154.8858 H   0  0  0  0  0  0  0  0  0  0  0  0
  150.4558  141.1072  157.2977 H   0  0  0  0  0  0  0  0  0  0  0  0
  150.0835  139.3979  157.4129 H   0  0  0  0  0  0  0  0  0  0  0  0
  152.7868  140.6512  156.8710 H   0  0  0  0  0  0  0  0  0  0  0  0
  152.3948  139.3288  157.9823 H   0  0  0  0  0  0  0  0  0  0  0  0
  150.3377  137.9256  154.9545 H   0  0  0  0  0  0  0  0  0  0  0  0
  151.1303  138.8928  153.6998 H   0  0  0  0  0  0  0  0  0  0  0  0
  1  2  3  0  0  0  0
  2  3  1  0  0  0  0
  3 18  2  0  0  0  0
  3  4  1  0  0  0  0
  4  5  2  0  0  0  0
  5  6  1  0  0  0  0
  5 19  1  0  0  0  0
  6  7  1  0  0  0  0
  6 18  1  0  0  0  0
  7  8  1  0  0  0  0
  7 20  1  0  0  0  0
  7 21  1  0  0  0  0
  8  9  2  0  0  0  0
  8 10  1  0  0  0  0
 10 11  1  0  0  0  0
 10 22  1  0  0  0  0
 11 17  1  0  0  0  0
 11 12  1  0  0  0  0
 11 23  1  0  0  0  0
 12 13  1  0  0  0  0
 12 24  1  0  0  0  0
 12 25  1  0  0  0  0
 13 14  1  0  0  0  0
 13 26  1  0  0  0  0
 13 27  1  0  0  0  0
 14 15  2  0  0  0  0
 14 16  2  0  0  0  0
 14 17  1  0  0  0  0
 17 28  1  0  0  0  0
 17 29  1  0  0  0  0
M  END
> <s_m_source_file>
AV-unprocessed.smi

> <i_m_source_file_index>
294

> <i_lp_mmshare_version>
43012

> <i_f3d_flags>
0

> <s_epik_input>
TiNDYzFuW2NIXW4objEpW0NIMl1DKD1PKVtOSF1bQ0BASF0oW0NIMl0yKVtDSDJdW0NIMl1TMig9Tyk9Tw==

> <s_epik_cmdline>
J2VwaWtfcHl0aG9uJywgJy1waCcsICc3LjAnLCAnLXRuJywgJzgnLCAnLW1hJywgJzIwMCcsICctbWV0YWxfYmluZGluZycsICctaW1hZScsICc8aW5maWxlLm1hZT4nLCAnLW9tYWUnLCAnPG91dGZpbGUubWFlPic=

> <r_lp_tautomer_probability>
1

> <r_epik_Ionization_Penalty>
6.08231e-07

> <r_epik_Ionization_Penalty_Charging>
0

> <r_epik_Ionization_Penalty_Neutral>
6.08231e-07

> <r_epik_State_Penalty>
-0

> <r_epik_Charging_Adjusted_Penalty>
0

> <i_epik_Tot_Q>
0

> <i_epik_Tot_abs_Q>
0

> <r_epik_Metal_State_Penalty>
-0

> <b_epik_Metal_Only>
0

> <s_lp_Force_Field>
OPLS_2005

> <r_lp_Energy>
6.26763

> <b_lp_Chiralities_Consistent>
1

> <s_lp_Variant>
AV-unprocessed.smi:294-2

> <Gold.Version>
5.8.1

> <Gold.Id.Protein>
6NUR|6NUR_protein|mol2

> <Gold.PLP.Fitness>
37.9486

> <Gold.PLP.PLP>
-32.7766

> <Gold.PLP.part.hbond>
-5.0000

> <Gold.PLP.part.metal>
0.0000

> <Gold.PLP.part.buried>
-6.3865

> <Gold.PLP.part.nonpolar>
-23.3210

> <Gold.PLP.part.repulsive>
0.8111

> <Gold.PLP.ligand.clash>
0.0000

> <Gold.PLP.ligand.torsion>
0.5943

> <Gold.PLP.Chemscore.Hbond>
2.1200

> <Gold.PLP.Chemscore.CHOScore>
0.0000

> <Gold.PLP.Chemscore.Metal>
0.0000

> <Gold.Chemscore.Hbonds>
donor molecule, donor type, donor heavy atom, donor atom, acceptor molecule, acceptor atom, score
      P1  H  7997  8010       L1    15  0.90
      P1  H  8011  8017       L1     9  0.48
      P1  H 10752 10764       L1    16  0.56

> <Gold.PLP.Chemscore.Internal.Correction>
0.0006

> <Gold.Rescore>
     Score         DG    S(hbond)    S(metal)    S(lipo)     H(rot)  DE(clash)    DE(int)     intcor
      8.26     -10.46       2.09        0.00      30.12       2.15       1.54       0.65       ----

> <Gold.Chemscore.Fitness>
8.2646

> <Gold.Chemscore.DG>
-10.4565

> <Gold.Chemscore.ZeroCoef>
-5.4800

> <Gold.Chemscore.Hbond>
2.0861

> <Gold.Chemscore.Metal>
0.0000

> <Gold.Chemscore.Lipo>
30.1248

> <Gold.Chemscore.Internal_Hbond>
0.0000

> <Gold.Chemscore.DEClash>
1.5368

> <Gold.Chemscore.DEInternal>
0.6550

> <Gold.Chemscore.Rot>
2.1546

> <Gold.Chemscore.Internal.Correction>
   9.000000E+99

> <Gold.Chemscore.Hbonds>
donor molecule, donor type, donor heavy atom, donor atom, acceptor molecule, acceptor atom, score
      P1  H  7997  8010       L1    15  0.85
      P1  H  8011  8017       L1     9  0.47
      P1  H 10752 10764       L1    16  0.54

> <Gold.Chemscore.Hbond.Weighted>
-6.9676

> <Gold.Chemscore.Metal.Weighted>
-0.0000

> <Gold.Chemscore.Lipo.Weighted>
-3.5246

> <Gold.Chemscore.Internal_Hbond.Weighted>
0.0000

> <Gold.Chemscore.DEClash.Weighted>
1.5368

> <Gold.Chemscore.DEInternal.Weighted>
0.6550

> <Gold.Chemscore.Rot.Weighted>
5.5158

> <Gold.Chemscore.Internal.Correction.Weighted>
   9.000000E+99

> <Gold.Protein.RotatedTorsions>
[ 6907 6896 6895 6894 ] final   82.76 input  -60.11 | X-H torsion
[ 7974 7965 7964 7962 ] final  -28.33 input  175.53 | X-H torsion
[ 8008 7997 7996 7995 ] final  132.85 input   59.86 | X-H torsion
[ 10167 10162 10161 10158 ] final -110.78 input  -65.29 | X-H torsion
[ 10718 10713 10712 10709 ] final   63.98 input   66.30 | X-H torsion
[ 10763 10752 10751 10750 ] final  -29.45 input  -60.55 | X-H torsion
[ 11005 11000 10999 10996 ] final  172.08 input  -57.11 | X-H torsion

> <Gold.Protein.ActiveResidues>
 VAL166  LYS551  ARG553  GLY616  TRP617  ASP618  TYR619  PRO620  LYS621  CYS622 
 ASP623  PHE694  ASN695  SER759  ASP760  ASP761  ALA762  ILE779  LEU786  VAL792 
 PHE793  MET794  SER795  GLU796  ALA797  LYS798  CYS799  TRP800  GLU811  SER814 

> <Gold.Protein.RotatedAtoms>
  152.5308  134.3001  159.9074 H   0  0  0  0  0  0  0  0  0  0  0  0  # atno 6907 bound_to 6896
  151.2951  133.4141  159.2643 H   0  0  0  0  0  0  0  0  0  0  0  0  # atno 6908 bound_to 6896
  151.0167  134.9454  159.8094 H   0  0  0  0  0  0  0  0  0  0  0  0  # atno 6909 bound_to 6896
  146.1295  140.5269  142.8699 H   0  0  0  0  0  0  0  0  0  0  0  0  # atno 7974 bound_to 7965
  156.2987  140.2536  156.3158 H   0  0  0  0  0  0  0  0  0  0  0  0  # atno 8008 bound_to 7997
  154.9283  140.0399  157.2053 H   0  0  0  0  0  0  0  0  0  0  0  0  # atno 8009 bound_to 7997
  154.8243  140.2865  155.5769 H   0  0  0  0  0  0  0  0  0  0  0  0  # atno 8010 bound_to 7997
  140.1408  143.4281  152.1563 H   0  0  0  0  0  0  0  0  0  0  0  0  # atno 10167 bound_to 10162
  157.6008  130.9135  149.9786 H   0  0  0  0  0  0  0  0  0  0  0  0  # atno 10718 bound_to 10713
  153.7648  135.6916  153.4918 H   0  0  0  0  0  0  0  0  0  0  0  0  # atno 10763 bound_to 10752
  153.1914  135.4470  155.0152 H   0  0  0  0  0  0  0  0  0  0  0  0  # atno 10764 bound_to 10752
  154.8139  135.3390  154.7161 H   0  0  0  0  0  0  0  0  0  0  0  0  # atno 10765 bound_to 10752
  140.3259  134.7398  157.4098 H   0  0  0  0  0  0  0  0  0  0  0  0  # atno 11005 bound_to 11000
  144.7676  140.5566  143.6692 LP  0  0  0  0  0  0  0  0  0  0  0  0  # atno 17320 bound_to 7965
  145.5291  139.1475  143.3509 LP  0  0  0  0  0  0  0  0  0  0  0  0  # atno 17321 bound_to 7965
  139.5473  144.7309  151.4543 LP  0  0  0  0  0  0  0  0  0  0  0  0  # atno 17342 bound_to 10162
  140.6762  143.8185  150.7061 LP  0  0  0  0  0  0  0  0  0  0  0  0  # atno 17343 bound_to 10162
  156.1081  130.3651  150.0097 LP  0  0  0  0  0  0  0  0  0  0  0  0  # atno 17370 bound_to 10713
  156.8201  130.9355  151.3641 LP  0  0  0  0  0  0  0  0  0  0  0  0  # atno 17371 bound_to 10713
  140.0902  134.5611  155.8452 LP  0  0  0  0  0  0  0  0  0  0  0  0  # atno 17394 bound_to 11000
  141.2075  133.6665  156.6312 LP  0  0  0  0  0  0  0  0  0  0  0  0  # atno 17395 bound_to 11000

$$$$
