AV-unprocessed.smi:197|AV-procd|sdf|1551|dock3
  -GOLD-   2262019413D 1   1.00000     0.00000
 Structure written by MMmdl.
 54 57  0  0  0  0  0  0  0  0  1 V2000
  142.6893  134.7585  162.2268 C   0  0  0  0  0  0  0  0  0  0  0  0
  143.0127  136.0893  161.8536 O   0  0  0  0  0  0  0  0  0  0  0  0
  144.3682  136.4474  162.0851 C   0  0  0  0  0  0  0  0  0  0  0  0
  145.3021  135.8824  160.9988 C   0  0  0  0  0  0  0  0  0  0  0  0
  146.8068  136.0898  161.3009 C   0  0  1  0  0  0  0  0  0  0  0  0
  147.2029  135.6514  162.7281 C   0  0  0  0  0  0  0  0  0  0  0  0
  147.1192  134.2345  162.8477 O   0  0  0  0  0  0  0  0  0  0  0  0
  148.0240  133.5725  161.9706 C   0  0  0  0  0  0  0  0  0  0  0  0
  147.6901  133.9282  160.5132 C   0  0  0  0  0  0  0  0  0  0  0  0
  147.6623  135.3806  160.3438 N   0  0  0  0  0  0  0  0  0  0  0  0
  147.7066  135.8794  159.0795 C   0  0  0  0  0  0  0  0  0  0  0  0
  146.7354  136.7352  158.6609 N   0  0  0  0  0  0  0  0  0  0  0  0
  146.7740  137.2561  157.4315 C   0  0  0  0  0  0  0  0  0  0  0  0
  147.6782  137.0597  156.4711 N   0  0  0  0  0  0  0  0  0  0  0  0
  148.6515  136.1959  156.8780 C   0  0  0  0  0  0  0  0  0  0  0  0
  148.7395  135.5622  158.1506 C   0  0  0  0  0  0  0  0  0  0  0  0
  149.8572  134.7362  158.1864 N   0  0  0  0  0  0  0  0  0  0  0  0
  150.4058  134.8858  157.0121 C   0  0  0  0  0  0  0  0  0  0  0  0
  149.7518  135.7517  156.1658 N   0  0  0  0  0  0  0  0  0  0  0  0
  150.1441  136.1043  154.8098 C   0  0  0  0  0  0  0  0  0  0  0  0
  150.9312  137.4384  154.7248 C   0  0  2  0  0  0  0  0  0  0  0  0
  152.0433  137.2316  153.8690 O   0  0  0  0  0  0  0  0  0  0  0  0
  151.4609  137.9255  156.0696 C   0  0  0  0  0  0  0  0  0  0  0  0
  151.5484  139.4313  155.8746 C   0  0  0  0  0  0  0  0  0  0  0  0
  150.3749  139.7154  155.1335 O   0  0  0  0  0  0  0  0  0  0  0  0
  150.1497  138.6710  154.1888 C   0  0  2  0  0  0  0  0  0  0  0  0
  148.6283  138.5114  154.0401 C   0  0  0  0  0  0  0  0  0  0  0  0
  141.6529  134.5511  161.9611 H   0  0  0  0  0  0  0  0  0  0  0  0
  142.7916  134.5977  163.2996 H   0  0  0  0  0  0  0  0  0  0  0  0
  143.3179  134.0373  161.7031 H   0  0  0  0  0  0  0  0  0  0  0  0
  144.4730  137.5302  162.1708 H   0  0  0  0  0  0  0  0  0  0  0  0
  144.6397  136.0333  163.0552 H   0  0  0  0  0  0  0  0  0  0  0  0
  145.0885  134.8233  160.8517 H   0  0  0  0  0  0  0  0  0  0  0  0
  145.0657  136.3689  160.0536 H   0  0  0  0  0  0  0  0  0  0  0  0
  147.0073  137.1572  161.2338 H   0  0  0  0  0  0  0  0  0  0  0  0
  148.2194  135.9770  162.9558 H   0  0  0  0  0  0  0  0  0  0  0  0
  146.5626  136.1120  163.4788 H   0  0  0  0  0  0  0  0  0  0  0  0
  149.0504  133.8534  162.2121 H   0  0  0  0  0  0  0  0  0  0  0  0
  147.9447  132.4960  162.1222 H   0  0  0  0  0  0  0  0  0  0  0  0
  148.4377  133.4848  159.8539 H   0  0  0  0  0  0  0  0  0  0  0  0
  146.7231  133.5070  160.2355 H   0  0  0  0  0  0  0  0  0  0  0  0
  145.9658  137.9282  157.1831 H   0  0  0  0  0  0  0  0  0  0  0  0
  151.3118  134.3694  156.7299 H   0  0  0  0  0  0  0  0  0  0  0  0
  150.7397  135.2848  154.4056 H   0  0  0  0  0  0  0  0  0  0  0  0
  149.2376  136.1541  154.2061 H   0  0  0  0  0  0  0  0  0  0  0  0
  151.7228  136.9485  153.0263 H   0  0  0  0  0  0  0  0  0  0  0  0
  150.7345  137.7173  156.8557 H   0  0  0  0  0  0  0  0  0  0  0  0
  152.4085  137.4720  156.3634 H   0  0  0  0  0  0  0  0  0  0  0  0
  151.5722  139.9797  156.8163 H   0  0  0  0  0  0  0  0  0  0  0  0
  152.4290  139.7037  155.2909 H   0  0  0  0  0  0  0  0  0  0  0  0
  150.5568  138.9937  153.2284 H   0  0  0  0  0  0  0  0  0  0  0  0
  148.3766  137.7327  153.3199 H   0  0  0  0  0  0  0  0  0  0  0  0
  148.1783  139.4391  153.6858 H   0  0  0  0  0  0  0  0  0  0  0  0
  148.1570  138.2637  154.9915 H   0  0  0  0  0  0  0  0  0  0  0  0
  1  2  1  0  0  0  0
  1 28  1  0  0  0  0
  1 29  1  0  0  0  0
  1 30  1  0  0  0  0
  2  3  1  0  0  0  0
  3  4  1  0  0  0  0
  3 31  1  0  0  0  0
  3 32  1  0  0  0  0
  4  5  1  0  0  0  0
  4 33  1  0  0  0  0
  4 34  1  0  0  0  0
  5 10  1  0  0  0  0
  5  6  1  0  0  0  0
  5 35  1  0  0  0  0
  6  7  1  0  0  0  0
  6 36  1  0  0  0  0
  6 37  1  0  0  0  0
  7  8  1  0  0  0  0
  8  9  1  0  0  0  0
  8 38  1  0  0  0  0
  8 39  1  0  0  0  0
  9 10  1  0  0  0  0
  9 40  1  0  0  0  0
  9 41  1  0  0  0  0
 10 11  1  0  0  0  0
 11 16  1  0  0  0  0
 11 12  2  0  0  0  0
 12 13  1  0  0  0  0
 13 14  2  0  0  0  0
 13 42  1  0  0  0  0
 14 15  1  0  0  0  0
 15 19  1  0  0  0  0
 15 16  2  0  0  0  0
 16 17  1  0  0  0  0
 17 18  2  0  0  0  0
 18 19  1  0  0  0  0
 18 43  1  0  0  0  0
 19 20  1  0  0  0  0
 20 21  1  0  0  0  0
 20 44  1  0  0  0  0
 20 45  1  0  0  0  0
 21 26  1  0  0  0  0
 21 22  1  0  0  0  0
 21 23  1  0  0  0  0
 22 46  1  0  0  0  0
 23 24  1  0  0  0  0
 23 47  1  0  0  0  0
 23 48  1  0  0  0  0
 24 25  1  0  0  0  0
 24 49  1  0  0  0  0
 24 50  1  0  0  0  0
 25 26  1  0  0  0  0
 26 27  1  0  0  0  0
 26 51  1  0  0  0  0
 27 52  1  0  0  0  0
 27 53  1  0  0  0  0
 27 54  1  0  0  0  0
M  END
> <s_m_source_file>
AV-unprocessed.smi

> <i_m_source_file_index>
197

> <i_lp_mmshare_version>
43012

> <i_f3d_flags>
0

> <s_epik_input>
W0NIM11PW0NIMl1bQ0gyXVtDQEBIXTFbQ0gyXU9bQ0gyXVtDSDJdTjFjKG5bY0hdbjIpYyhjMjMpbltjSF1uM1tDSDJdW0NAQF00KFtPSF0pW0NIMl1bQ0gyXU9bQ0BIXTRbQ0gzXQ==

> <s_epik_cmdline>
J2VwaWtfcHl0aG9uJywgJy1waCcsICc3LjAnLCAnLXRuJywgJzgnLCAnLW1hJywgJzIwMCcsICctbWV0YWxfYmluZGluZycsICctaW1hZScsICc8aW5maWxlLm1hZT4nLCAnLW9tYWUnLCAnPG91dGZpbGUubWFlPic=

> <r_lp_tautomer_probability>
1

> <r_epik_Ionization_Penalty>
0.000106218

> <r_epik_Ionization_Penalty_Charging>
0

> <r_epik_Ionization_Penalty_Neutral>
0.000106218

> <r_epik_State_Penalty>
-0

> <r_epik_Charging_Adjusted_Penalty>
0

> <i_epik_Tot_Q>
0

> <i_epik_Tot_abs_Q>
0

> <r_epik_Metal_State_Penalty>
-0

> <b_epik_Metal_Only>
0

> <s_lp_Force_Field>
OPLS_2005

> <r_lp_Energy>
41.9523

> <b_lp_Chiralities_Consistent>
1

> <s_lp_Variant>
AV-unprocessed.smi:197-8

> <Gold.Version>
5.8.1

> <Gold.Id.Protein>
6NUR|6NUR_protein|mol2

> <Gold.PLP.Fitness>
46.1066

> <Gold.PLP.PLP>
-39.9354

> <Gold.PLP.part.hbond>
-4.0298

> <Gold.PLP.part.metal>
0.0000

> <Gold.PLP.part.buried>
-7.7949

> <Gold.PLP.part.nonpolar>
-29.2102

> <Gold.PLP.part.repulsive>
0.0643

> <Gold.PLP.ligand.clash>
0.0000

> <Gold.PLP.ligand.torsion>
1.6791

> <Gold.PLP.Chemscore.Hbond>
3.0000

> <Gold.PLP.Chemscore.CHOScore>
0.0000

> <Gold.PLP.Chemscore.Metal>
0.0000

> <Gold.Chemscore.Hbonds>
donor molecule, donor type, donor heavy atom, donor atom, acceptor molecule, acceptor atom, score
      L1  H    22    46       P1  7949  1.00
      P1  H  6896  6909       L1    17  1.00
      P1  H  7989  7998       L1    25  0.04
      P1  H 10752 10765       L1    22  0.60

> <Gold.PLP.Chemscore.Internal.Correction>
0.5293

> <Gold.Rescore>
     Score         DG    S(hbond)    S(metal)    S(lipo)     H(rot)  DE(clash)    DE(int)     intcor
     13.47     -16.59       2.63        0.00      82.03       2.84       0.24       2.88       ----

> <Gold.Chemscore.Fitness>
13.4696

> <Gold.Chemscore.DG>
-16.5936

> <Gold.Chemscore.ZeroCoef>
-5.4800

> <Gold.Chemscore.Hbond>
2.6273

> <Gold.Chemscore.Metal>
0.0000

> <Gold.Chemscore.Lipo>
82.0327

> <Gold.Chemscore.Internal_Hbond>
0.0000

> <Gold.Chemscore.DEClash>
0.2441

> <Gold.Chemscore.DEInternal>
2.8799

> <Gold.Chemscore.Rot>
2.8358

> <Gold.Chemscore.Internal.Correction>
   9.000000E+99

> <Gold.Chemscore.Hbonds>
donor molecule, donor type, donor heavy atom, donor atom, acceptor molecule, acceptor atom, score
      L1  H    22    46       P1  7949  0.99
      P1  H  6896  6909       L1    17  0.88
      P1  H 10752 10765       L1    22  0.04

> <Gold.Chemscore.Hbond.Weighted>
-8.7753

> <Gold.Chemscore.Metal.Weighted>
-0.0000

> <Gold.Chemscore.Lipo.Weighted>
-9.5978

> <Gold.Chemscore.Internal_Hbond.Weighted>
0.0000

> <Gold.Chemscore.DEClash.Weighted>
0.2441

> <Gold.Chemscore.DEInternal.Weighted>
2.8799

> <Gold.Chemscore.Rot.Weighted>
7.2596

> <Gold.Chemscore.Internal.Correction.Weighted>
   9.000000E+99

> <Gold.Protein.RotatedTorsions>
[ 6907 6896 6895 6894 ] final   39.37 input  -60.11 | X-H torsion
[ 7974 7965 7964 7962 ] final  179.04 input  175.53 | X-H torsion
[ 8008 7997 7996 7995 ] final   38.42 input   59.86 | X-H torsion
[ 10167 10162 10161 10158 ] final  -93.36 input  -65.29 | X-H torsion
[ 10718 10713 10712 10709 ] final    4.78 input   66.30 | X-H torsion
[ 10763 10752 10751 10750 ] final  149.67 input  -60.55 | X-H torsion
[ 11005 11000 10999 10996 ] final -100.29 input  -57.11 | X-H torsion

> <Gold.Protein.ActiveResidues>
 VAL166  LYS551  ARG553  GLY616  TRP617  ASP618  TYR619  PRO620  LYS621  CYS622 
 ASP623  PHE694  ASN695  SER759  ASP760  ASP761  ALA762  ILE779  LEU786  VAL792 
 PHE793  MET794  SER795  GLU796  ALA797  LYS798  CYS799  TRP800  GLU811  SER814 

> <Gold.Protein.RotatedAtoms>
  152.1686  134.8853  160.0535 H   0  0  0  0  0  0  0  0  0  0  0  0  # atno 6907 bound_to 6896
  151.9821  133.3756  159.4120 H   0  0  0  0  0  0  0  0  0  0  0  0  # atno 6908 bound_to 6896
  150.6898  134.3950  159.5137 H   0  0  0  0  0  0  0  0  0  0  0  0  # atno 6909 bound_to 6896
  144.7149  140.0488  143.6436 H   0  0  0  0  0  0  0  0  0  0  0  0  # atno 7974 bound_to 7965
  155.2199  140.3330  155.4317 H   0  0  0  0  0  0  0  0  0  0  0  0  # atno 8008 bound_to 7997
  156.2337  140.1862  156.7223 H   0  0  0  0  0  0  0  0  0  0  0  0  # atno 8009 bound_to 7997
  154.6022  140.0621  156.9369 H   0  0  0  0  0  0  0  0  0  0  0  0  # atno 8010 bound_to 7997
  140.3254  143.3025  152.0000 H   0  0  0  0  0  0  0  0  0  0  0  0  # atno 10167 bound_to 10162
  156.8976  130.5710  149.5648 H   0  0  0  0  0  0  0  0  0  0  0  0  # atno 10718 bound_to 10713
  154.0750  135.2864  155.3301 H   0  0  0  0  0  0  0  0  0  0  0  0  # atno 10763 bound_to 10752
  154.6721  135.5295  153.8156 H   0  0  0  0  0  0  0  0  0  0  0  0  # atno 10764 bound_to 10752
  153.0470  135.6560  154.0929 H   0  0  0  0  0  0  0  0  0  0  0  0  # atno 10765 bound_to 10752
  141.1276  133.8387  157.1083 H   0  0  0  0  0  0  0  0  0  0  0  0  # atno 11005 bound_to 11000
  145.9962  139.3054  143.0955 LP  0  0  0  0  0  0  0  0  0  0  0  0  # atno 17320 bound_to 7965
  145.8846  140.9341  143.0583 LP  0  0  0  0  0  0  0  0  0  0  0  0  # atno 17321 bound_to 7965
  139.4866  144.6278  151.7131 LP  0  0  0  0  0  0  0  0  0  0  0  0  # atno 17342 bound_to 10162
  140.5446  144.0525  150.6102 LP  0  0  0  0  0  0  0  0  0  0  0  0  # atno 17343 bound_to 10162
  156.0598  130.5652  150.9168 LP  0  0  0  0  0  0  0  0  0  0  0  0  # atno 17370 bound_to 10713
  157.6046  131.0939  150.8902 LP  0  0  0  0  0  0  0  0  0  0  0  0  # atno 17371 bound_to 10713
  140.0291  134.9910  157.0744 LP  0  0  0  0  0  0  0  0  0  0  0  0  # atno 17394 bound_to 11000
  140.4314  134.1776  155.7168 LP  0  0  0  0  0  0  0  0  0  0  0  0  # atno 17395 bound_to 11000

$$$$
