AV-unprocessed.smi:1354|AV-procd|sdf|5535|dock2
  -GOLD-   22720 5123D 1   1.00000     0.00000
 Structure written by MMmdl.
 40 42  0  0  0  0  0  0  0  0  2 V2000
  152.4126  136.0558  156.1647 O   0  0  0  0  0  0  0  0  0  0  0  0
  151.5939  137.2005  156.0642 C   0  0  0  0  0  0  0  0  0  0  0  0
  151.5259  137.6628  154.6022 C   0  0  0  0  0  0  0  0  0  0  0  0
  150.4072  138.6293  154.3835 C   0  0  0  0  0  0  0  0  0  0  0  0
  149.3451  138.4450  153.5493 N   0  3  0  0  0  0  0  0  0  0  0  0
  148.4977  139.5519  153.6110 C   0  0  0  0  0  0  0  0  0  0  0  0
  147.3069  139.8254  152.9450 C   0  0  0  0  0  0  0  0  0  0  0  0
  146.6890  141.0597  153.2343 C   0  0  0  0  0  0  0  0  0  0  0  0
  147.2537  141.9650  154.1557 C   0  0  0  0  0  0  0  0  0  0  0  0
  148.4594  141.6750  154.8271 C   0  0  0  0  0  0  0  0  0  0  0  0
  149.0664  140.4538  154.5335 C   0  0  0  0  0  0  0  0  0  0  0  0
  150.2424  139.8428  154.9855 N   0  0  0  0  0  0  0  0  0  0  0  0
  151.0902  140.5372  155.9666 C   0  0  0  0  0  0  0  0  0  0  0  0
  150.3037  140.9739  157.2113 C   0  0  0  0  0  0  0  0  0  0  0  0
  151.0302  141.9801  157.9043 O   0  0  0  0  0  0  0  0  0  0  0  0
  151.9270  141.5940  158.8781 C   0  0  0  0  0  0  0  0  0  0  0  0
  152.3169  140.2492  159.1047 C   0  0  0  0  0  0  0  0  0  0  0  0
  153.2385  139.9340  160.1217 C   0  0  0  0  0  0  0  0  0  0  0  0
  153.7815  140.9537  160.9242 C   0  0  0  0  0  0  0  0  0  0  0  0
  153.4020  142.2906  160.7078 C   0  0  0  0  0  0  0  0  0  0  0  0
  152.4808  142.6091  159.6906 C   0  0  0  0  0  0  0  0  0  0  0  0
  152.0364  144.2600  159.4439 Cl  0  0  0  0  0  0  0  0  0  0  0  0
  151.9994  135.4396  156.7506 H   0  0  0  0  0  0  0  0  0  0  0  0
  150.5989  136.9601  156.4400 H   0  0  0  0  0  0  0  0  0  0  0  0
  152.0031  137.9851  156.7011 H   0  0  0  0  0  0  0  0  0  0  0  0
  152.4652  138.1320  154.3081 H   0  0  0  0  0  0  0  0  0  0  0  0
  151.3861  136.8052  153.9429 H   0  0  0  0  0  0  0  0  0  0  0  0
  146.8728  139.1337  152.2380 H   0  0  0  0  0  0  0  0  0  0  0  0
  145.7641  141.3178  152.7390 H   0  0  0  0  0  0  0  0  0  0  0  0
  146.7545  142.9035  154.3490 H   0  0  0  0  0  0  0  0  0  0  0  0
  148.8869  142.3807  155.5236 H   0  0  0  0  0  0  0  0  0  0  0  0
  151.9276  139.8940  156.2370 H   0  0  0  0  0  0  0  0  0  0  0  0
  151.5222  141.4095  155.4758 H   0  0  0  0  0  0  0  0  0  0  0  0
  149.3283  141.3555  156.9072 H   0  0  0  0  0  0  0  0  0  0  0  0
  150.1423  140.1120  157.8608 H   0  0  0  0  0  0  0  0  0  0  0  0
  151.9220  139.4381  158.5121 H   0  0  0  0  0  0  0  0  0  0  0  0
  153.5294  138.9070  160.2867 H   0  0  0  0  0  0  0  0  0  0  0  0
  154.4877  140.7110  161.7045 H   0  0  0  0  0  0  0  0  0  0  0  0
  153.8197  143.0733  161.3241 H   0  0  0  0  0  0  0  0  0  0  0  0
  149.2141  137.6213  152.9762 H   0  0  0  0  0  0  0  0  0  0  0  0
  1  2  1  0  0  0  0
  1 23  1  0  0  0  0
  2  3  1  0  0  0  0
  2 24  1  0  0  0  0
  2 25  1  0  0  0  0
  3  4  1  0  0  0  0
  3 26  1  0  0  0  0
  3 27  1  0  0  0  0
  4 12  1  0  0  0  0
  4  5  2  0  0  0  0
  5  6  1  0  0  0  0
  5 40  1  0  0  0  0
  6 11  2  0  0  0  0
  6  7  1  0  0  0  0
  7  8  2  0  0  0  0
  7 28  1  0  0  0  0
  8  9  1  0  0  0  0
  8 29  1  0  0  0  0
  9 10  2  0  0  0  0
  9 30  1  0  0  0  0
 10 11  1  0  0  0  0
 10 31  1  0  0  0  0
 11 12  1  0  0  0  0
 12 13  1  0  0  0  0
 13 14  1  0  0  0  0
 13 32  1  0  0  0  0
 13 33  1  0  0  0  0
 14 15  1  0  0  0  0
 14 34  1  0  0  0  0
 14 35  1  0  0  0  0
 15 16  1  0  0  0  0
 16 21  1  0  0  0  0
 16 17  2  0  0  0  0
 17 18  1  0  0  0  0
 17 36  1  0  0  0  0
 18 19  2  0  0  0  0
 18 37  1  0  0  0  0
 19 20  1  0  0  0  0
 19 38  1  0  0  0  0
 20 21  2  0  0  0  0
 20 39  1  0  0  0  0
 21 22  1  0  0  0  0
M  CHG  1   5   1
M  END
> <s_m_source_file>
AV-unprocessed.smi

> <i_m_source_file_index>
1354

> <i_lp_mmshare_version>
43012

> <i_f3d_flags>
0

> <s_epik_input>
W2NIXTFbY0hdW2NIXVtjSF1jKGMxMiluKGMobjIpW0NIMl1bQ0gyXVtPSF0pW0NIMl1bQ0gyXU9jM1tjSF1bY0hdW2NIXVtjSF1jM0Ns

> <s_epik_cmdline>
J2VwaWtfcHl0aG9uJywgJy1waCcsICc3LjAnLCAnLXRuJywgJzgnLCAnLW1hJywgJzIwMCcsICctbWV0YWxfYmluZGluZycsICctaW1hZScsICc8aW5maWxlLm1hZT4nLCAnLW9tYWUnLCAnPG91dGZpbGUubWFlPic=

> <r_lp_tautomer_probability>
1

> <r_epik_Ionization_Penalty>
0.752951

> <r_epik_Ionization_Penalty_Charging>
0.752951

> <r_epik_Ionization_Penalty_Neutral>
5.89567e-08

> <r_epik_State_Penalty>
0.780107

> <r_epik_Charging_Adjusted_Penalty>
1.53306

> <i_epik_Tot_Q>
1

> <i_epik_Tot_abs_Q>
1

> <r_epik_Metal_State_Penalty>
4.68821

> <b_epik_Metal_Only>
0

> <s_lp_Force_Field>
OPLS_2005

> <r_lp_Energy>
19.8379

> <b_lp_Chiralities_Consistent>
1

> <s_lp_Variant>
AV-unprocessed.smi:1354-2

> <Gold.Version>
5.8.1

> <Gold.Id.Protein>
6NUR|6NUR_protein|mol2

> <Gold.PLP.Fitness>
59.1168

> <Gold.PLP.PLP>
-50.9432

> <Gold.PLP.part.hbond>
-2.8764

> <Gold.PLP.part.metal>
0.0000

> <Gold.PLP.part.buried>
1.2281

> <Gold.PLP.part.nonpolar>
-49.5431

> <Gold.PLP.part.repulsive>
0.1317

> <Gold.PLP.ligand.clash>
0.0000

> <Gold.PLP.ligand.torsion>
0.4572

> <Gold.PLP.Chemscore.Hbond>
3.0000

> <Gold.PLP.Chemscore.CHOScore>
0.0000

> <Gold.PLP.Chemscore.Metal>
0.0000

> <Gold.Chemscore.Hbonds>
donor molecule, donor type, donor heavy atom, donor atom, acceptor molecule, acceptor atom, score
      L1  H     5    40       P1  7948  2.00
      P1  H 10752 10765       L1     1  0.88

> <Gold.PLP.Chemscore.Internal.Correction>
0.0879

> <Gold.Rescore>
     Score         DG    S(hbond)    S(metal)    S(lipo)     H(rot)  DE(clash)    DE(int)     intcor
     19.55     -21.84       1.86        0.00     139.16       2.39       1.80       0.50       ----

> <Gold.Chemscore.Fitness>
19.5478

> <Gold.Chemscore.DG>
-21.8449

> <Gold.Chemscore.ZeroCoef>
-5.4800

> <Gold.Chemscore.Hbond>
1.8605

> <Gold.Chemscore.Metal>
0.0000

> <Gold.Chemscore.Lipo>
139.1591

> <Gold.Chemscore.Internal_Hbond>
0.0000

> <Gold.Chemscore.DEClash>
1.8006

> <Gold.Chemscore.DEInternal>
0.4965

> <Gold.Chemscore.Rot>
2.3948

> <Gold.Chemscore.Internal.Correction>
   9.000000E+99

> <Gold.Chemscore.Hbonds>
donor molecule, donor type, donor heavy atom, donor atom, acceptor molecule, acceptor atom, score
      L1  H     5    40       P1  7948  0.98
      P1  H 10752 10765       L1     1  0.78

> <Gold.Chemscore.Hbond.Weighted>
-6.2140

> <Gold.Chemscore.Metal.Weighted>
-0.0000

> <Gold.Chemscore.Lipo.Weighted>
-16.2816

> <Gold.Chemscore.Internal_Hbond.Weighted>
0.0000

> <Gold.Chemscore.DEClash.Weighted>
1.8006

> <Gold.Chemscore.DEInternal.Weighted>
0.4965

> <Gold.Chemscore.Rot.Weighted>
6.1308

> <Gold.Chemscore.Internal.Correction.Weighted>
   9.000000E+99

> <Gold.Protein.RotatedTorsions>
[ 6907 6896 6895 6894 ] final   25.15 input  -60.11 | X-H torsion
[ 7974 7965 7964 7962 ] final   52.84 input  175.53 | X-H torsion
[ 8008 7997 7996 7995 ] final  163.67 input   59.86 | X-H torsion
[ 10167 10162 10161 10158 ] final -174.89 input  -65.29 | X-H torsion
[ 10718 10713 10712 10709 ] final -153.44 input   66.30 | X-H torsion
[ 10763 10752 10751 10750 ] final -158.48 input  -60.55 | X-H torsion
[ 11005 11000 10999 10996 ] final  -38.70 input  -57.11 | X-H torsion

> <Gold.Protein.ActiveResidues>
 VAL166  LYS551  ARG553  GLY616  TRP617  ASP618  TYR619  PRO620  LYS621  CYS622 
 ASP623  PHE694  ASN695  SER759  ASP760  ASP761  ALA762  ILE779  LEU786  VAL792 
 PHE793  MET794  SER795  GLU796  ALA797  LYS798  CYS799  TRP800  GLU811  SER814 

> <Gold.Protein.RotatedAtoms>
  151.9683  135.0089  160.0551 H   0  0  0  0  0  0  0  0  0  0  0  0  # atno 6907 bound_to 6896
  152.1806  133.4700  159.4964 H   0  0  0  0  0  0  0  0  0  0  0  0  # atno 6908 bound_to 6896
  150.6917  134.1755  159.4271 H   0  0  0  0  0  0  0  0  0  0  0  0  # atno 6909 bound_to 6896
  145.9773  139.4207  143.0154 H   0  0  0  0  0  0  0  0  0  0  0  0  # atno 7974 bound_to 7965
  156.1939  140.1717  156.8036 H   0  0  0  0  0  0  0  0  0  0  0  0  # atno 8008 bound_to 7997
  154.5506  140.0718  156.8692 H   0  0  0  0  0  0  0  0  0  0  0  0  # atno 8009 bound_to 7997
  155.3037  140.3363  155.4249 H   0  0  0  0  0  0  0  0  0  0  0  0  # atno 8010 bound_to 7997
  139.5610  144.1871  152.1238 H   0  0  0  0  0  0  0  0  0  0  0  0  # atno 10167 bound_to 10162
  156.4859  130.8325  151.2550 H   0  0  0  0  0  0  0  0  0  0  0  0  # atno 10718 bound_to 10713
  154.7553  135.3103  154.8481 H   0  0  0  0  0  0  0  0  0  0  0  0  # atno 10763 bound_to 10752
  153.9257  135.6791  153.4751 H   0  0  0  0  0  0  0  0  0  0  0  0  # atno 10764 bound_to 10752
  153.1150  135.4848  154.9030 H   0  0  0  0  0  0  0  0  0  0  0  0  # atno 10765 bound_to 10752
  141.0047  133.6938  156.2088 H   0  0  0  0  0  0  0  0  0  0  0  0  # atno 11005 bound_to 11000
  145.7821  140.9852  143.1094 LP  0  0  0  0  0  0  0  0  0  0  0  0  # atno 17320 bound_to 7965
  144.6852  139.9577  143.7479 LP  0  0  0  0  0  0  0  0  0  0  0  0  # atno 17321 bound_to 7965
  140.1384  144.5224  150.6759 LP  0  0  0  0  0  0  0  0  0  0  0  0  # atno 17342 bound_to 10162
  140.6889  143.2365  151.5184 LP  0  0  0  0  0  0  0  0  0  0  0  0  # atno 17343 bound_to 10162
  157.7479  131.0029  150.3020 LP  0  0  0  0  0  0  0  0  0  0  0  0  # atno 17370 bound_to 10713
  156.3475  130.3825  149.7357 LP  0  0  0  0  0  0  0  0  0  0  0  0  # atno 17371 bound_to 10713
  140.6832  134.4745  157.5589 LP  0  0  0  0  0  0  0  0  0  0  0  0  # atno 17394 bound_to 11000
  139.9057  134.8455  156.1717 LP  0  0  0  0  0  0  0  0  0  0  0  0  # atno 17395 bound_to 11000

$$$$
