AV-unprocessed.smi:1056|AV-procd|sdf|4640|dock3
  -GOLD-   22720 3143D 1   1.00000     0.00000
 Structure written by MMmdl.
 45 47  0  0  0  0  0  0  0  0  2 V2000
  152.9227  142.8982  161.3955 C   0  0  0  0  0  0  0  0  0  0  0  0
  152.2631  142.5763  160.0653 C   0  0  0  0  0  0  0  0  0  0  0  0
  152.3914  141.2669  159.5491 C   0  0  0  0  0  0  0  0  0  0  0  0
  151.7803  141.0037  158.3290 C   0  0  0  0  0  0  0  0  0  0  0  0
  151.7224  139.8345  157.5672 N   0  3  0  0  0  0  0  0  0  0  0  0
  151.0037  140.0660  156.4337 C   0  0  0  0  0  0  0  0  0  0  0  0
  150.6030  141.3660  156.4614 N   0  0  0  0  0  0  0  0  0  0  0  0
  149.8081  142.1300  155.4906 C   0  0  0  0  0  0  0  0  0  0  0  0
  148.9707  141.2320  154.5564 C   0  0  2  0  0  0  0  0  0  0  0  0
  149.8092  140.7793  153.5095 O   0  0  0  0  0  0  0  0  0  0  0  0
  147.7630  141.9869  153.9554 C   0  0  0  0  0  0  0  0  0  0  0  0
  146.8311  142.5611  154.9316 N   0  0  0  0  0  0  0  0  0  0  0  0
  146.3404  141.5886  155.9088 C   0  0  0  0  0  0  0  0  0  0  0  0
  145.4696  142.2512  156.9876 C   0  0  0  0  0  0  0  0  0  0  0  0
  144.4853  143.1630  156.4145 N   0  0  0  0  0  0  0  0  0  0  0  0
  144.5649  143.6933  155.1833 C   0  0  0  0  0  0  0  0  0  0  0  0
  143.7345  144.5007  154.7724 O   0  0  0  0  0  0  0  0  0  0  0  0
  145.7141  143.2447  154.2603 C   0  0  0  0  0  0  0  0  0  0  0  0
  151.0624  141.9900  157.6254 C   0  0  0  0  0  0  0  0  0  0  0  0
  150.9241  143.2843  158.1200 C   0  0  0  0  0  0  0  0  0  0  0  0
  151.5369  143.5717  159.3608 C   0  0  0  0  0  0  0  0  0  0  0  0
  151.4036  144.9753  159.9268 C   0  0  0  0  0  0  0  0  0  0  0  0
  153.4470  142.0323  161.8010 H   0  0  0  0  0  0  0  0  0  0  0  0
  152.1771  143.2089  162.1277 H   0  0  0  0  0  0  0  0  0  0  0  0
  153.6496  143.7023  161.2776 H   0  0  0  0  0  0  0  0  0  0  0  0
  152.9414  140.5037  160.0801 H   0  0  0  0  0  0  0  0  0  0  0  0
  150.7883  139.3485  155.6551 H   0  0  0  0  0  0  0  0  0  0  0  0
  149.1723  142.8243  156.0414 H   0  0  0  0  0  0  0  0  0  0  0  0
  150.5009  142.7397  154.9087 H   0  0  0  0  0  0  0  0  0  0  0  0
  148.6209  140.3668  155.1210 H   0  0  0  0  0  0  0  0  0  0  0  0
  149.3233  140.1647  152.9812 H   0  0  0  0  0  0  0  0  0  0  0  0
  148.1596  142.8114  153.3606 H   0  0  0  0  0  0  0  0  0  0  0  0
  147.2308  141.3558  153.2409 H   0  0  0  0  0  0  0  0  0  0  0  0
  145.7680  140.8112  155.3991 H   0  0  0  0  0  0  0  0  0  0  0  0
  147.1688  141.0869  156.4071 H   0  0  0  0  0  0  0  0  0  0  0  0
  144.9593  141.4945  157.5836 H   0  0  0  0  0  0  0  0  0  0  0  0
  146.0983  142.8230  157.6709 H   0  0  0  0  0  0  0  0  0  0  0  0
  143.7161  143.4436  157.0054 H   0  0  0  0  0  0  0  0  0  0  0  0
  146.0869  144.1163  153.7204 H   0  0  0  0  0  0  0  0  0  0  0  0
  145.2729  142.5831  153.5130 H   0  0  0  0  0  0  0  0  0  0  0  0
  150.3718  144.0407  157.5821 H   0  0  0  0  0  0  0  0  0  0  0  0
  150.7760  145.6034  159.2935 H   0  0  0  0  0  0  0  0  0  0  0  0
  152.3819  145.4507  160.0035 H   0  0  0  0  0  0  0  0  0  0  0  0
  150.9516  144.9494  160.9185 H   0  0  0  0  0  0  0  0  0  0  0  0
  152.1405  138.9432  157.8006 H   0  0  0  0  0  0  0  0  0  0  0  0
  1  2  1  0  0  0  0
  1 23  1  0  0  0  0
  1 24  1  0  0  0  0
  1 25  1  0  0  0  0
  2 21  1  0  0  0  0
  2  3  2  0  0  0  0
  3  4  1  0  0  0  0
  3 26  1  0  0  0  0
  4 19  2  0  0  0  0
  4  5  1  0  0  0  0
  5  6  2  0  0  0  0
  5 45  1  0  0  0  0
  6  7  1  0  0  0  0
  6 27  1  0  0  0  0
  7  8  1  0  0  0  0
  7 19  1  0  0  0  0
  8  9  1  0  0  0  0
  8 28  1  0  0  0  0
  8 29  1  0  0  0  0
  9 10  1  0  0  0  0
  9 11  1  0  0  0  0
  9 30  1  0  0  0  0
 10 31  1  0  0  0  0
 11 12  1  0  0  0  0
 11 32  1  0  0  0  0
 11 33  1  0  0  0  0
 12 18  1  0  0  0  0
 12 13  1  0  0  0  0
 13 14  1  0  0  0  0
 13 34  1  0  0  0  0
 13 35  1  0  0  0  0
 14 15  1  0  0  0  0
 14 36  1  0  0  0  0
 14 37  1  0  0  0  0
 15 16  1  0  0  0  0
 15 38  1  0  0  0  0
 16 17  2  0  0  0  0
 16 18  1  0  0  0  0
 18 39  1  0  0  0  0
 18 40  1  0  0  0  0
 19 20  1  0  0  0  0
 20 21  2  0  0  0  0
 20 41  1  0  0  0  0
 21 22  1  0  0  0  0
 22 42  1  0  0  0  0
 22 43  1  0  0  0  0
 22 44  1  0  0  0  0
M  CHG  1   5   1
M  END
> <s_m_source_file>
AV-unprocessed.smi

> <i_m_source_file_index>
1056

> <i_lp_mmshare_version>
43012

> <i_f3d_flags>
0

> <s_epik_input>
W0NIM11jKFtjSF0xKWMoW0NIM10pW2NIXWMoYzEyKW4oW2NIXW4yKVtDSDJdW0NASF0oW09IXSlbQ0gyXU4zW0NIMl1bQ0gyXVtOSF1DKD1PKVtDSDJdMw==

> <s_epik_cmdline>
J2VwaWtfcHl0aG9uJywgJy1waCcsICc3LjAnLCAnLXRuJywgJzgnLCAnLW1hJywgJzIwMCcsICctbWV0YWxfYmluZGluZycsICctaW1hZScsICc8aW5maWxlLm1hZT4nLCAnLW9tYWUnLCAnPG91dGZpbGUubWFlPic=

> <r_epik_Ionization_Penalty>
2.47196

> <r_epik_Ionization_Penalty_Charging>
1.21809

> <r_epik_Ionization_Penalty_Neutral>
1.25387

> <r_epik_State_Penalty>
2.6255

> <r_epik_Charging_Adjusted_Penalty>
3.84359

> <i_epik_Tot_Q>
1

> <i_epik_Tot_abs_Q>
1

> <r_epik_Metal_State_Penalty>
2.76698

> <b_epik_Metal_Only>
0

> <s_lp_Force_Field>
OPLS_2005

> <r_lp_Energy>
35.3562

> <b_lp_Chiralities_Consistent>
1

> <s_lp_Variant>
AV-unprocessed.smi:1056-11

> <Gold.Version>
5.8.1

> <Gold.Id.Protein>
6NUR|6NUR_protein|mol2

> <Gold.PLP.Fitness>
49.4074

> <Gold.PLP.PLP>
-45.1892

> <Gold.PLP.part.hbond>
-2.4442

> <Gold.PLP.part.metal>
0.0000

> <Gold.PLP.part.buried>
-3.5825

> <Gold.PLP.part.nonpolar>
-38.3608

> <Gold.PLP.part.repulsive>
1.2052

> <Gold.PLP.ligand.clash>
0.0000

> <Gold.PLP.ligand.torsion>
0.5326

> <Gold.PLP.Chemscore.Hbond>
1.7520

> <Gold.PLP.Chemscore.CHOScore>
0.0000

> <Gold.PLP.Chemscore.Metal>
0.0000

> <Gold.Chemscore.Hbonds>
donor molecule, donor type, donor heavy atom, donor atom, acceptor molecule, acceptor atom, score
      L1  H    10    31       P1  7957  0.42
      P1  H  7989  7998       L1    10  0.37
      P1  H  8011  8017       L1    10  1.00

> <Gold.PLP.Chemscore.Internal.Correction>
0.0274

> <Gold.Rescore>
     Score         DG    S(hbond)    S(metal)    S(lipo)     H(rot)  DE(clash)    DE(int)     intcor
     13.74     -15.40       0.89        0.00     111.25       2.37       1.14       0.51       ----

> <Gold.Chemscore.Fitness>
13.7374

> <Gold.Chemscore.DG>
-15.3958

> <Gold.Chemscore.ZeroCoef>
-5.4800

> <Gold.Chemscore.Hbond>
0.8900

> <Gold.Chemscore.Metal>
0.0000

> <Gold.Chemscore.Lipo>
111.2542

> <Gold.Chemscore.Internal_Hbond>
0.0000

> <Gold.Chemscore.DEClash>
1.1447

> <Gold.Chemscore.DEInternal>
0.5137

> <Gold.Chemscore.Rot>
2.3724

> <Gold.Chemscore.Internal.Correction>
   9.000000E+99

> <Gold.Chemscore.Hbonds>
donor molecule, donor type, donor heavy atom, donor atom, acceptor molecule, acceptor atom, score
      L1  H    10    31       P1  7957  0.42
      P1  H  7989  7998       L1    10  0.36
      P1  H  8011  8017       L1    10  0.07

> <Gold.Chemscore.Hbond.Weighted>
-2.9725

> <Gold.Chemscore.Metal.Weighted>
-0.0000

> <Gold.Chemscore.Lipo.Weighted>
-13.0167

> <Gold.Chemscore.Internal_Hbond.Weighted>
0.0000

> <Gold.Chemscore.DEClash.Weighted>
1.1447

> <Gold.Chemscore.DEInternal.Weighted>
0.5137

> <Gold.Chemscore.Rot.Weighted>
6.0734

> <Gold.Chemscore.Internal.Correction.Weighted>
   9.000000E+99

> <Gold.Protein.RotatedTorsions>
[ 6907 6896 6895 6894 ] final -178.78 input  -60.11 | X-H torsion
[ 7974 7965 7964 7962 ] final   52.57 input  175.53 | X-H torsion
[ 8008 7997 7996 7995 ] final   46.66 input   59.86 | X-H torsion
[ 10167 10162 10161 10158 ] final  133.17 input  -65.29 | X-H torsion
[ 10718 10713 10712 10709 ] final -166.79 input   66.30 | X-H torsion
[ 10763 10752 10751 10750 ] final   51.98 input  -60.55 | X-H torsion
[ 11005 11000 10999 10996 ] final -150.60 input  -57.11 | X-H torsion

> <Gold.Protein.ActiveResidues>
 VAL166  LYS551  ARG553  GLY616  TRP617  ASP618  TYR619  PRO620  LYS621  CYS622 
 ASP623  PHE694  ASN695  SER759  ASP760  ASP761  ALA762  ILE779  LEU786  VAL792 
 PHE793  MET794  SER795  GLU796  ALA797  LYS798  CYS799  TRP800  GLU811  SER814 

> <Gold.Protein.RotatedAtoms>
  151.6428  133.3325  159.3133 H   0  0  0  0  0  0  0  0  0  0  0  0  # atno 6907 bound_to 6896
  150.7999  134.7089  159.6602 H   0  0  0  0  0  0  0  0  0  0  0  0  # atno 6908 bound_to 6896
  152.4090  134.6161  160.0090 H   0  0  0  0  0  0  0  0  0  0  0  0  # atno 6909 bound_to 6896
  145.9800  139.4233  143.0138 H   0  0  0  0  0  0  0  0  0  0  0  0  # atno 7974 bound_to 7965
  155.3561  140.3416  155.4240 H   0  0  0  0  0  0  0  0  0  0  0  0  # atno 8008 bound_to 7997
  156.1738  140.1640  156.8434 H   0  0  0  0  0  0  0  0  0  0  0  0  # atno 8009 bound_to 7997
  154.5261  140.0756  156.8243 H   0  0  0  0  0  0  0  0  0  0  0  0  # atno 8010 bound_to 7997
  139.5308  144.6628  151.4957 H   0  0  0  0  0  0  0  0  0  0  0  0  # atno 10167 bound_to 10162
  156.6730  130.9091  151.3046 H   0  0  0  0  0  0  0  0  0  0  0  0  # atno 10718 bound_to 10713
  152.9787  135.5828  154.4503 H   0  0  0  0  0  0  0  0  0  0  0  0  # atno 10763 bound_to 10752
  154.4093  135.2770  155.2049 H   0  0  0  0  0  0  0  0  0  0  0  0  # atno 10764 bound_to 10752
  154.3846  135.6139  153.5863 H   0  0  0  0  0  0  0  0  0  0  0  0  # atno 10765 bound_to 10752
  140.7385  134.3541  157.5152 H   0  0  0  0  0  0  0  0  0  0  0  0  # atno 11005 bound_to 11000
  145.7783  140.9867  143.1113 LP  0  0  0  0  0  0  0  0  0  0  0  0  # atno 17320 bound_to 7965
  144.6859  139.9533  143.7478 LP  0  0  0  0  0  0  0  0  0  0  0  0  # atno 17321 bound_to 7965
  140.6485  143.8745  150.6761 LP  0  0  0  0  0  0  0  0  0  0  0  0  # atno 17342 bound_to 10162
  140.2102  143.3889  152.1724 LP  0  0  0  0  0  0  0  0  0  0  0  0  # atno 17343 bound_to 10162
  157.7070  130.9397  150.0965 LP  0  0  0  0  0  0  0  0  0  0  0  0  # atno 17370 bound_to 10713
  156.1924  130.3655  149.8892 LP  0  0  0  0  0  0  0  0  0  0  0  0  # atno 17371 bound_to 10713
  139.8811  134.9065  156.2923 LP  0  0  0  0  0  0  0  0  0  0  0  0  # atno 17394 bound_to 11000
  140.9858  133.7239  156.0740 LP  0  0  0  0  0  0  0  0  0  0  0  0  # atno 17395 bound_to 11000

$$$$
