AV-unprocessed.smi:3338|AV-procd|sdf|12871|dock1
  -GOLD-   2272019273D 1   1.00000     0.00000
 Structure written by MMmdl.
 44 45  0  0  0  0  0  0  0  0  2 V2000
  147.0977  138.9034  152.9451 C   0  0  0  0  0  0  0  0  0  0  0  0
  147.4668  139.0447  154.4324 C   0  0  2  0  0  0  0  0  0  0  0  0
  148.5950  140.0644  154.6738 C   0  0  0  0  0  0  0  0  0  0  0  0
  149.9559  139.5021  154.2397 C   0  0  0  0  0  0  0  0  0  0  0  0
  150.2276  138.1416  154.9007 C   0  0  0  0  0  0  0  0  0  0  0  0
  149.1349  137.1778  154.6105 N   0  3  1  0  0  0  0  0  0  0  0  0
  149.4417  135.8119  155.1039 C   0  0  0  0  0  0  0  0  0  0  0  0
  149.7644  135.7951  156.6106 C   0  0  0  0  0  0  0  0  0  0  0  0
  148.5697  135.5642  157.4136 N   0  0  0  0  0  0  0  0  0  0  0  0
  148.4834  135.7638  158.7385 C   0  0  0  0  0  0  0  0  0  0  0  0
  149.4201  136.1977  159.4105 O   0  0  0  0  0  0  0  0  0  0  0  0
  147.1333  135.4247  159.3924 C   0  0  2  0  0  0  0  0  0  0  0  0
  145.9529  136.1973  158.7702 C   0  0  0  0  0  0  0  0  0  0  0  0
  147.2026  135.6128  160.8370 N   0  0  0  0  0  0  0  0  0  0  0  0
  147.2118  134.6443  161.8202 C   0  0  0  0  0  0  0  0  0  0  0  0
  147.3155  135.2814  163.0234 C   0  0  0  0  0  0  0  0  0  0  0  0
  147.3710  136.6589  162.6726 C   0  0  0  0  0  0  0  0  0  0  0  0
  147.3094  136.8541  161.3659 N   0  0  0  0  0  0  0  0  0  0  0  0
  147.8172  137.6879  155.0776 C   0  0  0  0  0  0  0  0  0  0  0  0
  147.9221  138.5024  152.3555 H   0  0  0  0  0  0  0  0  0  0  0  0
  146.8223  139.8677  152.5170 H   0  0  0  0  0  0  0  0  0  0  0  0
  146.2467  138.2340  152.8164 H   0  0  0  0  0  0  0  0  0  0  0  0
  146.5751  139.4240  154.9337 H   0  0  0  0  0  0  0  0  0  0  0  0
  148.3868  140.9992  154.1519 H   0  0  0  0  0  0  0  0  0  0  0  0
  148.6346  140.3108  155.7357 H   0  0  0  0  0  0  0  0  0  0  0  0
  149.9876  139.3974  153.1548 H   0  0  0  0  0  0  0  0  0  0  0  0
  150.7473  140.2054  154.5005 H   0  0  0  0  0  0  0  0  0  0  0  0
  151.1755  137.7509  154.5281 H   0  0  0  0  0  0  0  0  0  0  0  0
  150.3351  138.2596  155.9801 H   0  0  0  0  0  0  0  0  0  0  0  0
  148.5759  135.1710  154.9322 H   0  0  0  0  0  0  0  0  0  0  0  0
  150.2605  135.3816  154.5251 H   0  0  0  0  0  0  0  0  0  0  0  0
  150.4719  135.0020  156.8492 H   0  0  0  0  0  0  0  0  0  0  0  0
  150.2365  136.7322  156.9110 H   0  0  0  0  0  0  0  0  0  0  0  0
  147.7571  135.2032  156.9347 H   0  0  0  0  0  0  0  0  0  0  0  0
  146.9518  134.3633  159.2146 H   0  0  0  0  0  0  0  0  0  0  0  0
  145.8688  135.9944  157.7020 H   0  0  0  0  0  0  0  0  0  0  0  0
  146.0580  137.2758  158.8955 H   0  0  0  0  0  0  0  0  0  0  0  0
  145.0102  135.9035  159.2325 H   0  0  0  0  0  0  0  0  0  0  0  0
  147.1445  133.5924  161.5847 H   0  0  0  0  0  0  0  0  0  0  0  0
  147.3487  134.8322  164.0048 H   0  0  0  0  0  0  0  0  0  0  0  0
  147.4569  137.5165  163.3236 H   0  0  0  0  0  0  0  0  0  0  0  0
  147.8437  137.7937  156.1634 H   0  0  0  0  0  0  0  0  0  0  0  0
  147.0267  136.9710  154.8580 H   0  0  0  0  0  0  0  0  0  0  0  0
  149.0849  137.1104  153.6039 H   0  0  0  0  0  0  0  0  0  0  0  0
  1  2  1  0  0  0  0
  1 20  1  0  0  0  0
  1 21  1  0  0  0  0
  1 22  1  0  0  0  0
  2 19  1  0  0  0  0
  2  3  1  0  0  0  0
  2 23  1  0  0  0  0
  3  4  1  0  0  0  0
  3 24  1  0  0  0  0
  3 25  1  0  0  0  0
  4  5  1  0  0  0  0
  4 26  1  0  0  0  0
  4 27  1  0  0  0  0
  5  6  1  0  0  0  0
  5 28  1  0  0  0  0
  5 29  1  0  0  0  0
  6  7  1  0  0  0  0
  6 19  1  0  0  0  0
  6 44  1  0  0  0  0
  7  8  1  0  0  0  0
  7 30  1  0  0  0  0
  7 31  1  0  0  0  0
  8  9  1  0  0  0  0
  8 32  1  0  0  0  0
  8 33  1  0  0  0  0
  9 10  1  0  0  0  0
  9 34  1  0  0  0  0
 10 11  2  0  0  0  0
 10 12  1  0  0  0  0
 12 13  1  0  0  0  0
 12 14  1  0  0  0  0
 12 35  1  0  0  0  0
 13 36  1  0  0  0  0
 13 37  1  0  0  0  0
 13 38  1  0  0  0  0
 14 18  1  0  0  0  0
 14 15  1  0  0  0  0
 15 16  2  0  0  0  0
 15 39  1  0  0  0  0
 16 17  1  0  0  0  0
 16 40  1  0  0  0  0
 17 18  2  0  0  0  0
 17 41  1  0  0  0  0
 19 42  1  0  0  0  0
 19 43  1  0  0  0  0
M  CHG  1   6   1
M  END
> <s_m_source_file>
AV-unprocessed.smi

> <i_m_source_file_index>
3338

> <i_lp_mmshare_version>
43012

> <i_f3d_flags>
0

> <s_epik_input>
W0NIM11bQ0BASF0xW0NIMl1bQ0gyXVtDSDJdTihbQ0gyXTEpW0NIMl1bQ0gyXVtOSF1DKD1PKVtDQEhdKFtDSDNdKW4yW2NIXVtjSF1bY0hdbjI=

> <s_epik_cmdline>
J2VwaWtfcHl0aG9uJywgJy1waCcsICc3LjAnLCAnLXRuJywgJzgnLCAnLW1hJywgJzIwMCcsICctbWV0YWxfYmluZGluZycsICctaW1hZScsICc8aW5maWxlLm1hZT4nLCAnLW9tYWUnLCAnPG91dGZpbGUubWFlPic=

> <r_lp_tautomer_probability>
1

> <r_epik_Ionization_Penalty>
0.00225707

> <r_epik_Ionization_Penalty_Charging>
0.00223709

> <r_epik_Ionization_Penalty_Neutral>
1.99775e-05

> <r_epik_State_Penalty>
0.00153978

> <r_epik_Charging_Adjusted_Penalty>
0.00377687

> <i_epik_Tot_Q>
1

> <i_epik_Tot_abs_Q>
1

> <r_epik_Metal_State_Penalty>
-0

> <b_epik_Metal_Only>
0

> <s_lp_Force_Field>
OPLS_2005

> <r_lp_Energy>
22.4515

> <b_lp_Chiralities_Consistent>
1

> <s_lp_Variant>
AV-unprocessed.smi:3338-3

> <Gold.Version>
5.8.1

> <Gold.Id.Protein>
6NUR|6NUR_protein|mol2

> <Gold.PLP.Fitness>
41.3771

> <Gold.PLP.PLP>
-30.2594

> <Gold.PLP.part.hbond>
-4.0000

> <Gold.PLP.part.metal>
0.0000

> <Gold.PLP.part.buried>
-1.0201

> <Gold.PLP.part.nonpolar>
-25.0687

> <Gold.PLP.part.repulsive>
0.0464

> <Gold.PLP.ligand.clash>
0.0000

> <Gold.PLP.ligand.torsion>
0.4587

> <Gold.PLP.Chemscore.Hbond>
3.9440

> <Gold.PLP.Chemscore.CHOScore>
0.0000

> <Gold.PLP.Chemscore.Metal>
0.0000

> <Gold.Chemscore.Hbonds>
donor molecule, donor type, donor heavy atom, donor atom, acceptor molecule, acceptor atom, score
      L1  H     6    44       P1  7948  2.00
      P1  H  6896  6908       L1    11  1.00
      P1  H  6934  6947       L1    18  0.55

> <Gold.PLP.Chemscore.Internal.Correction>
0.2030

> <Gold.Rescore>
     Score         DG    S(hbond)    S(metal)    S(lipo)     H(rot)  DE(clash)    DE(int)     intcor
     18.15     -18.97       2.85        0.00      72.47       1.76       0.07       0.75       ----

> <Gold.Chemscore.Fitness>
18.1528

> <Gold.Chemscore.DG>
-18.9672

> <Gold.Chemscore.ZeroCoef>
-5.4800

> <Gold.Chemscore.Hbond>
2.8460

> <Gold.Chemscore.Metal>
0.0000

> <Gold.Chemscore.Lipo>
72.4747

> <Gold.Chemscore.Internal_Hbond>
0.0000

> <Gold.Chemscore.DEClash>
0.0675

> <Gold.Chemscore.DEInternal>
0.7470

> <Gold.Chemscore.Rot>
1.7570

> <Gold.Chemscore.Internal.Correction>
   9.000000E+99

> <Gold.Chemscore.Hbonds>
donor molecule, donor type, donor heavy atom, donor atom, acceptor molecule, acceptor atom, score
      L1  H     6    44       P1  7948  0.98
      P1  H  6896  6908       L1    11  0.64
      P1  H  6934  6947       L1    18  0.38

> <Gold.Chemscore.Hbond.Weighted>
-9.5055

> <Gold.Chemscore.Metal.Weighted>
-0.0000

> <Gold.Chemscore.Lipo.Weighted>
-8.4795

> <Gold.Chemscore.Internal_Hbond.Weighted>
0.0000

> <Gold.Chemscore.DEClash.Weighted>
0.0675

> <Gold.Chemscore.DEInternal.Weighted>
0.7470

> <Gold.Chemscore.Rot.Weighted>
4.4979

> <Gold.Chemscore.Internal.Correction.Weighted>
   9.000000E+99

> <Gold.Protein.RotatedTorsions>
[ 6907 6896 6895 6894 ] final  179.92 input  -60.11 | X-H torsion
[ 7974 7965 7964 7962 ] final  110.93 input  175.53 | X-H torsion
[ 8008 7997 7996 7995 ] final  -40.23 input   59.86 | X-H torsion
[ 10167 10162 10161 10158 ] final  -37.88 input  -65.29 | X-H torsion
[ 10718 10713 10712 10709 ] final   27.82 input   66.30 | X-H torsion
[ 10763 10752 10751 10750 ] final  170.34 input  -60.55 | X-H torsion
[ 11005 11000 10999 10996 ] final   98.07 input  -57.11 | X-H torsion

> <Gold.Protein.ActiveResidues>
 VAL166  LYS551  ARG553  GLY616  TRP617  ASP618  TYR619  PRO620  LYS621  CYS622 
 ASP623  PHE694  ASN695  SER759  ASP760  ASP761  ALA762  ILE779  LEU786  VAL792 
 PHE793  MET794  SER795  GLU796  ALA797  LYS798  CYS799  TRP800  GLU811  SER814 

> <Gold.Protein.RotatedAtoms>
  151.6639  133.3316  159.3180 H   0  0  0  0  0  0  0  0  0  0  0  0  # atno 6907 bound_to 6896
  150.7900  134.6920  159.6511 H   0  0  0  0  0  0  0  0  0  0  0  0  # atno 6908 bound_to 6896
  152.3978  134.6340  160.0134 H   0  0  0  0  0  0  0  0  0  0  0  0  # atno 6909 bound_to 6896
  145.2487  139.2749  143.4079 H   0  0  0  0  0  0  0  0  0  0  0  0  # atno 7974 bound_to 7965
  154.4014  140.1531  156.2993 H   0  0  0  0  0  0  0  0  0  0  0  0  # atno 8008 bound_to 7997
  155.8715  140.3448  155.5803 H   0  0  0  0  0  0  0  0  0  0  0  0  # atno 8009 bound_to 7997
  155.7769  140.0838  157.2070 H   0  0  0  0  0  0  0  0  0  0  0  0  # atno 8010 bound_to 7997
  140.7107  143.3313  151.2563 H   0  0  0  0  0  0  0  0  0  0  0  0  # atno 10167 bound_to 10162
  157.2253  130.6998  149.6288 H   0  0  0  0  0  0  0  0  0  0  0  0  # atno 10718 bound_to 10713
  154.3961  135.2754  155.2125 H   0  0  0  0  0  0  0  0  0  0  0  0  # atno 10763 bound_to 10752
  154.4170  135.6009  153.5990 H   0  0  0  0  0  0  0  0  0  0  0  0  # atno 10764 bound_to 10752
  152.9831  135.5963  154.4223 H   0  0  0  0  0  0  0  0  0  0  0  0  # atno 10765 bound_to 10752
  139.8773  134.9031  156.4401 H   0  0  0  0  0  0  0  0  0  0  0  0  # atno 11005 bound_to 11000
  146.3309  140.2871  142.8613 LP  0  0  0  0  0  0  0  0  0  0  0  0  # atno 17320 bound_to 7965
  144.9523  140.8191  143.5564 LP  0  0  0  0  0  0  0  0  0  0  0  0  # atno 17321 bound_to 7965
  139.6795  143.9878  152.2800 LP  0  0  0  0  0  0  0  0  0  0  0  0  # atno 17342 bound_to 10162
  139.9504  144.6624  150.8178 LP  0  0  0  0  0  0  0  0  0  0  0  0  # atno 17343 bound_to 10162
  155.9679  130.4506  150.5705 LP  0  0  0  0  0  0  0  0  0  0  0  0  # atno 17370 bound_to 10713
  157.3534  131.0737  151.1695 LP  0  0  0  0  0  0  0  0  0  0  0  0  # atno 17371 bound_to 10713
  140.9006  133.7782  155.9675 LP  0  0  0  0  0  0  0  0  0  0  0  0  # atno 17394 bound_to 11000
  140.8655  134.2789  157.5215 LP  0  0  0  0  0  0  0  0  0  0  0  0  # atno 17395 bound_to 11000

$$$$
