AV-unprocessed.smi:1254|AV-procd|sdf|5271|dock3
  -GOLD-   22720 4383D 1   1.00000     0.00000
 Structure written by MMmdl.
 46 47  0  0  0  0  0  0  0  0  2 V2000
  150.8163  141.7726  156.3079 C   0  0  0  0  0  0  0  0  0  0  0  0
  150.8965  140.4423  155.6414 C   0  0  0  0  0  0  0  0  0  0  0  0
  150.0115  139.4081  155.5184 C   0  0  0  0  0  0  0  0  0  0  0  0
  150.7409  138.4518  154.7629 C   0  0  0  0  0  0  0  0  0  0  0  0
  150.1646  137.2029  154.4171 N   0  0  0  0  0  0  0  0  0  0  0  0
  150.2341  136.0515  155.1064 C   0  0  0  0  0  0  0  0  0  0  0  0
  150.8417  135.8923  156.1657 O   0  0  0  0  0  0  0  0  0  0  0  0
  149.5447  135.0755  154.4986 N   0  0  0  0  0  0  0  0  0  0  0  0
  149.4114  133.7119  155.0002 C   0  0  0  0  0  0  0  0  0  0  0  0
  148.2688  132.9526  154.3019 C   0  0  2  0  0  0  0  0  0  0  0  0
  148.7974  131.9592  153.2469 C   0  0  0  0  0  0  0  0  0  0  0  0
  147.6827  131.2812  152.5406 N   0  3  1  0  0  0  0  0  0  0  0  0
  147.0412  130.2013  153.3385 C   0  0  0  0  0  0  0  0  0  0  0  0
  146.3681  129.1229  152.4623 C   0  0  0  0  0  0  0  0  0  0  0  0
  147.4104  128.4180  151.5814 C   0  0  0  0  0  0  0  0  0  0  0  0
  145.2421  129.7095  151.5945 C   0  0  0  0  0  0  0  0  0  0  0  0
  146.7406  132.2830  151.9787 C   0  0  0  0  0  0  0  0  0  0  0  0
  146.2932  133.3004  153.0462 C   0  0  0  0  0  0  0  0  0  0  0  0
  147.4337  133.9021  153.6459 O   0  0  0  0  0  0  0  0  0  0  0  0
  151.9600  138.8647  154.4521 N   0  0  0  0  0  0  0  0  0  0  0  0
  152.0656  140.1429  155.0130 O   0  0  0  0  0  0  0  0  0  0  0  0
  149.8472  141.9108  156.7877 H   0  0  0  0  0  0  0  0  0  0  0  0
  150.9529  142.5762  155.5843 H   0  0  0  0  0  0  0  0  0  0  0  0
  151.5881  141.8692  157.0717 H   0  0  0  0  0  0  0  0  0  0  0  0
  149.0065  139.3486  155.9091 H   0  0  0  0  0  0  0  0  0  0  0  0
  149.6334  137.1887  153.5593 H   0  0  0  0  0  0  0  0  0  0  0  0
  149.0731  135.2905  153.6321 H   0  0  0  0  0  0  0  0  0  0  0  0
  150.3577  133.1933  154.8445 H   0  0  0  0  0  0  0  0  0  0  0  0
  149.2463  133.7371  156.0787 H   0  0  0  0  0  0  0  0  0  0  0  0
  147.6878  132.4125  155.0511 H   0  0  0  0  0  0  0  0  0  0  0  0
  149.3954  132.4954  152.5087 H   0  0  0  0  0  0  0  0  0  0  0  0
  149.4628  131.2243  153.7017 H   0  0  0  0  0  0  0  0  0  0  0  0
  147.7943  129.7112  153.9573 H   0  0  0  0  0  0  0  0  0  0  0  0
  146.3194  130.6309  154.0331 H   0  0  0  0  0  0  0  0  0  0  0  0
  145.9318  128.3588  153.1049 H   0  0  0  0  0  0  0  0  0  0  0  0
  147.8913  129.1182  150.8973 H   0  0  0  0  0  0  0  0  0  0  0  0
  146.9526  127.6299  150.9829 H   0  0  0  0  0  0  0  0  0  0  0  0
  148.1909  127.9565  152.1872 H   0  0  0  0  0  0  0  0  0  0  0  0
  145.6192  130.4825  150.9240 H   0  0  0  0  0  0  0  0  0  0  0  0
  144.4554  130.1529  152.2052 H   0  0  0  0  0  0  0  0  0  0  0  0
  144.7779  128.9367  150.9809 H   0  0  0  0  0  0  0  0  0  0  0  0
  147.2531  132.8134  151.1750 H   0  0  0  0  0  0  0  0  0  0  0  0
  145.8770  131.8030  151.5204 H   0  0  0  0  0  0  0  0  0  0  0  0
  145.6888  134.0814  152.5848 H   0  0  0  0  0  0  0  0  0  0  0  0
  145.6694  132.8340  153.8095 H   0  0  0  0  0  0  0  0  0  0  0  0
  148.1045  130.8076  151.7543 H   0  0  0  0  0  0  0  0  0  0  0  0
  1  2  1  0  0  0  0
  1 22  1  0  0  0  0
  1 23  1  0  0  0  0
  1 24  1  0  0  0  0
  2 21  1  0  0  0  0
  2  3  2  0  0  0  0
  3  4  1  0  0  0  0
  3 25  1  0  0  0  0
  4  5  1  0  0  0  0
  4 20  2  0  0  0  0
  5  6  1  0  0  0  0
  5 26  1  0  0  0  0
  6  7  2  0  0  0  0
  6  8  1  0  0  0  0
  8  9  1  0  0  0  0
  8 27  1  0  0  0  0
  9 10  1  0  0  0  0
  9 28  1  0  0  0  0
  9 29  1  0  0  0  0
 10 19  1  0  0  0  0
 10 11  1  0  0  0  0
 10 30  1  0  0  0  0
 11 12  1  0  0  0  0
 11 31  1  0  0  0  0
 11 32  1  0  0  0  0
 12 13  1  0  0  0  0
 12 17  1  0  0  0  0
 12 46  1  0  0  0  0
 13 14  1  0  0  0  0
 13 33  1  0  0  0  0
 13 34  1  0  0  0  0
 14 15  1  0  0  0  0
 14 16  1  0  0  0  0
 14 35  1  0  0  0  0
 15 36  1  0  0  0  0
 15 37  1  0  0  0  0
 15 38  1  0  0  0  0
 16 39  1  0  0  0  0
 16 40  1  0  0  0  0
 16 41  1  0  0  0  0
 17 18  1  0  0  0  0
 17 42  1  0  0  0  0
 17 43  1  0  0  0  0
 18 19  1  0  0  0  0
 18 44  1  0  0  0  0
 18 45  1  0  0  0  0
 20 21  1  0  0  0  0
M  CHG  1  12   1
M  END
> <s_m_source_file>
AV-unprocessed.smi

> <i_m_source_file_index>
1254

> <i_lp_mmshare_version>
43012

> <i_f3d_flags>
0

> <s_epik_input>
W0NIM11jMVtjSF1jKG5vMSlbTkhdQyg9TylbTkhdW0NIMl1bQ0BASF0yW0NIMl1OKFtDSDJdW0NIMl1PMilbQ0gyXVtDSF0oW0NIM10pW0NIM10=

> <s_epik_cmdline>
J2VwaWtfcHl0aG9uJywgJy1waCcsICc3LjAnLCAnLXRuJywgJzgnLCAnLW1hJywgJzIwMCcsICctbWV0YWxfYmluZGluZycsICctaW1hZScsICc8aW5maWxlLm1hZT4nLCAnLW9tYWUnLCAnPG91dGZpbGUubWFlPic=

> <r_epik_Ionization_Penalty>
0.0986825

> <r_epik_Ionization_Penalty_Charging>
0.0986478

> <r_epik_Ionization_Penalty_Neutral>
3.46838e-05

> <r_epik_State_Penalty>
0.0887259

> <r_epik_Charging_Adjusted_Penalty>
0.187374

> <i_epik_Tot_Q>
1

> <i_epik_Tot_abs_Q>
1

> <r_epik_Metal_State_Penalty>
0.103424

> <b_epik_Metal_Only>
0

> <s_lp_Force_Field>
OPLS_2005

> <r_lp_Energy>
16.7856

> <b_lp_Chiralities_Consistent>
1

> <s_lp_Variant>
AV-unprocessed.smi:1254-3

> <Gold.Version>
5.8.1

> <Gold.Id.Protein>
6NUR|6NUR_protein|mol2

> <Gold.PLP.Fitness>
42.4562

> <Gold.PLP.PLP>
-35.5758

> <Gold.PLP.part.hbond>
-4.8575

> <Gold.PLP.part.metal>
0.0000

> <Gold.PLP.part.buried>
-1.7395

> <Gold.PLP.part.nonpolar>
-28.3766

> <Gold.PLP.part.repulsive>
0.3643

> <Gold.PLP.ligand.clash>
0.0000

> <Gold.PLP.ligand.torsion>
1.6840

> <Gold.PLP.Chemscore.Hbond>
3.3881

> <Gold.PLP.Chemscore.CHOScore>
0.0000

> <Gold.PLP.Chemscore.Metal>
0.0000

> <Gold.Chemscore.Hbonds>
donor molecule, donor type, donor heavy atom, donor atom, acceptor molecule, acceptor atom, score
      L1  H     5    26       P1  7948  0.99
      L1  H     8    27       P1  7948  1.00
      L1  H    12    46       P1 10747  1.00
      P1  H  7989  7998       L1    21  0.36

> <Gold.PLP.Chemscore.Internal.Correction>
0.0842

> <Gold.Rescore>
     Score         DG    S(hbond)    S(metal)    S(lipo)     H(rot)  DE(clash)    DE(int)     intcor
     17.25     -20.17       2.86        0.00      81.77       1.73       0.19       2.73       ----

> <Gold.Chemscore.Fitness>
17.2515

> <Gold.Chemscore.DG>
-20.1748

> <Gold.Chemscore.ZeroCoef>
-5.4800

> <Gold.Chemscore.Hbond>
2.8607

> <Gold.Chemscore.Metal>
0.0000

> <Gold.Chemscore.Lipo>
81.7657

> <Gold.Chemscore.Internal_Hbond>
0.0000

> <Gold.Chemscore.DEClash>
0.1916

> <Gold.Chemscore.DEInternal>
2.7317

> <Gold.Chemscore.Rot>
1.7291

> <Gold.Chemscore.Internal.Correction>
   9.000000E+99

> <Gold.Chemscore.Hbonds>
donor molecule, donor type, donor heavy atom, donor atom, acceptor molecule, acceptor atom, score
      L1  H     5    26       P1  7948  0.69
      L1  H     8    27       P1  7948  0.52
      L1  H    12    46       P1 10747  0.95

> <Gold.Chemscore.Hbond.Weighted>
-9.5547

> <Gold.Chemscore.Metal.Weighted>
-0.0000

> <Gold.Chemscore.Lipo.Weighted>
-9.5666

> <Gold.Chemscore.Internal_Hbond.Weighted>
0.0000

> <Gold.Chemscore.DEClash.Weighted>
0.1916

> <Gold.Chemscore.DEInternal.Weighted>
2.7317

> <Gold.Chemscore.Rot.Weighted>
4.4265

> <Gold.Chemscore.Internal.Correction.Weighted>
   9.000000E+99

> <Gold.Protein.RotatedTorsions>
[ 6907 6896 6895 6894 ] final  -35.02 input  -60.11 | X-H torsion
[ 7974 7965 7964 7962 ] final  -68.02 input  175.53 | X-H torsion
[ 8008 7997 7996 7995 ] final -137.39 input   59.86 | X-H torsion
[ 10167 10162 10161 10158 ] final  -39.83 input  -65.29 | X-H torsion
[ 10718 10713 10712 10709 ] final  173.72 input   66.30 | X-H torsion
[ 10763 10752 10751 10750 ] final  -92.70 input  -60.55 | X-H torsion
[ 11005 11000 10999 10996 ] final   35.60 input  -57.11 | X-H torsion

> <Gold.Protein.ActiveResidues>
 VAL166  LYS551  ARG553  GLY616  TRP617  ASP618  TYR619  PRO620  LYS621  CYS622 
 ASP623  PHE694  ASN695  SER759  ASP760  ASP761  ALA762  ILE779  LEU786  VAL792 
 PHE793  MET794  SER795  GLU796  ALA797  LYS798  CYS799  TRP800  GLU811  SER814 

> <Gold.Protein.RotatedAtoms>
  151.0452  134.9634  159.8182 H   0  0  0  0  0  0  0  0  0  0  0  0  # atno 6907 bound_to 6896
  152.5371  134.2608  159.8944 H   0  0  0  0  0  0  0  0  0  0  0  0  # atno 6908 bound_to 6896
  151.2621  133.4254  159.2650 H   0  0  0  0  0  0  0  0  0  0  0  0  # atno 6909 bound_to 6896
  145.7219  140.9035  143.0626 H   0  0  0  0  0  0  0  0  0  0  0  0  # atno 7974 bound_to 7965
  155.4110  140.0512  157.3031 H   0  0  0  0  0  0  0  0  0  0  0  0  # atno 8008 bound_to 7997
  154.4946  140.2133  155.9434 H   0  0  0  0  0  0  0  0  0  0  0  0  # atno 8009 bound_to 7997
  156.1388  140.3158  155.8468 H   0  0  0  0  0  0  0  0  0  0  0  0  # atno 8010 bound_to 7997
  140.7052  143.3190  151.2839 H   0  0  0  0  0  0  0  0  0  0  0  0  # atno 10167 bound_to 10162
  156.9601  131.0058  151.2929 H   0  0  0  0  0  0  0  0  0  0  0  0  # atno 10718 bound_to 10713
  154.6887  135.5221  153.8362 H   0  0  0  0  0  0  0  0  0  0  0  0  # atno 10763 bound_to 10752
  153.0616  135.6570  154.0459 H   0  0  0  0  0  0  0  0  0  0  0  0  # atno 10764 bound_to 10752
  154.0336  135.2983  155.3345 H   0  0  0  0  0  0  0  0  0  0  0  0  # atno 10765 bound_to 10752
  140.2410  134.3414  155.7925 H   0  0  0  0  0  0  0  0  0  0  0  0  # atno 11005 bound_to 11000
  144.6914  139.9213  143.7468 LP  0  0  0  0  0  0  0  0  0  0  0  0  # atno 17320 bound_to 7965
  146.0618  139.3611  143.0576 LP  0  0  0  0  0  0  0  0  0  0  0  0  # atno 17321 bound_to 7965
  139.6638  144.0142  152.2709 LP  0  0  0  0  0  0  0  0  0  0  0  0  # atno 17342 bound_to 10162
  139.9718  144.6488  150.7982 LP  0  0  0  0  0  0  0  0  0  0  0  0  # atno 17343 bound_to 10162
  157.5663  130.8280  149.8332 LP  0  0  0  0  0  0  0  0  0  0  0  0  # atno 17370 bound_to 10713
  156.0326  130.3760  150.1647 LP  0  0  0  0  0  0  0  0  0  0  0  0  # atno 17371 bound_to 10713
  141.2210  133.7299  156.8885 LP  0  0  0  0  0  0  0  0  0  0  0  0  # atno 17394 bound_to 11000
  140.1653  134.9137  157.2766 LP  0  0  0  0  0  0  0  0  0  0  0  0  # atno 17395 bound_to 11000

$$$$
