AV-unprocessed.smi:2405|AV-procd|sdf|9513|dock1
  -GOLD-   2272013143D 1   1.00000     0.00000
 Structure written by MMmdl.
 36 37  0  0  0  0  0  0  0  0  2 V2000
  152.8357  142.9876  162.0356 C   0  0  0  0  0  0  0  0  0  0  0  0
  153.3295  142.4266  160.6980 C   0  0  0  0  0  0  0  0  0  0  0  0
  152.4892  142.8665  159.5462 C   0  0  0  0  0  0  0  0  0  0  0  0
  151.6370  142.0617  158.9063 N   0  0  0  0  0  0  0  0  0  0  0  0
  150.9836  142.6997  157.8464 C   0  0  0  0  0  0  0  0  0  0  0  0
  149.9768  141.9499  157.0242 C   0  0  0  0  0  0  0  0  0  0  0  0
  150.6586  140.8029  156.2781 C   0  0  0  0  0  0  0  0  0  0  0  0
  150.5703  140.7259  155.0524 O   0  0  0  0  0  0  0  0  0  0  0  0
  151.3353  139.9208  157.0289 N   0  0  0  0  0  0  0  0  0  0  0  0
  152.0579  138.7588  156.5198 C   0  0  1  0  0  0  0  0  0  0  0  0
  153.1359  138.2766  157.5140 C   0  0  0  0  0  0  0  0  0  0  0  0
  152.8362  136.7971  157.7839 C   0  0  0  0  0  0  0  0  0  0  0  0
  151.3301  136.6306  157.5203 C   0  0  1  0  0  0  0  0  0  0  0  0
  150.4434  137.0252  158.7214 C   0  0  0  0  0  0  0  0  0  0  0  0
  150.5924  138.1829  159.1708 O   0  0  0  0  0  0  0  0  0  0  0  0
  149.6301  136.1879  159.1721 O   0  5  0  0  0  0  0  0  0  0  0  0
  151.0948  137.5721  156.3273 C   0  0  0  0  0  0  0  0  0  0  0  0
  151.3756  144.0052  157.6791 C   0  0  0  0  0  0  0  0  0  0  0  0
  152.5723  144.4813  158.8519 S   0  0  0  0  0  0  0  0  0  0  0  0
  153.4654  142.6448  162.8568 H   0  0  0  0  0  0  0  0  0  0  0  0
  151.8138  142.6685  162.2430 H   0  0  0  0  0  0  0  0  0  0  0  0
  152.8530  144.0779  162.0345 H   0  0  0  0  0  0  0  0  0  0  0  0
  154.3601  142.7370  160.5216 H   0  0  0  0  0  0  0  0  0  0  0  0
  153.3328  141.3367  160.7308 H   0  0  0  0  0  0  0  0  0  0  0  0
  149.1892  141.5432  157.6598 H   0  0  0  0  0  0  0  0  0  0  0  0
  149.4832  142.6111  156.3100 H   0  0  0  0  0  0  0  0  0  0  0  0
  151.3614  140.0680  158.0280 H   0  0  0  0  0  0  0  0  0  0  0  0
  152.5090  139.0095  155.5580 H   0  0  0  0  0  0  0  0  0  0  0  0
  154.1431  138.4158  157.1205 H   0  0  0  0  0  0  0  0  0  0  0  0
  153.0797  138.8332  158.4507 H   0  0  0  0  0  0  0  0  0  0  0  0
  153.3887  136.1823  157.0723 H   0  0  0  0  0  0  0  0  0  0  0  0
  153.1535  136.4814  158.7784 H   0  0  0  0  0  0  0  0  0  0  0  0
  151.0933  135.5989  157.2582 H   0  0  0  0  0  0  0  0  0  0  0  0
  150.0557  137.8850  156.2107 H   0  0  0  0  0  0  0  0  0  0  0  0
  151.3571  137.0443  155.4096 H   0  0  0  0  0  0  0  0  0  0  0  0
  151.0314  144.7129  156.9394 H   0  0  0  0  0  0  0  0  0  0  0  0
  1  2  1  0  0  0  0
  1 20  1  0  0  0  0
  1 21  1  0  0  0  0
  1 22  1  0  0  0  0
  2  3  1  0  0  0  0
  2 23  1  0  0  0  0
  2 24  1  0  0  0  0
  3 19  1  0  0  0  0
  3  4  2  0  0  0  0
  4  5  1  0  0  0  0
  5  6  1  0  0  0  0
  5 18  2  0  0  0  0
  6  7  1  0  0  0  0
  6 25  1  0  0  0  0
  6 26  1  0  0  0  0
  7  8  2  0  0  0  0
  7  9  1  0  0  0  0
  9 10  1  0  0  0  0
  9 27  1  0  0  0  0
 10 17  1  0  0  0  0
 10 11  1  0  0  0  0
 10 28  1  0  0  0  0
 11 12  1  0  0  0  0
 11 29  1  0  0  0  0
 11 30  1  0  0  0  0
 12 13  1  0  0  0  0
 12 31  1  0  0  0  0
 12 32  1  0  0  0  0
 13 14  1  0  0  0  0
 13 17  1  0  0  0  0
 13 33  1  0  0  0  0
 14 15  2  0  0  0  0
 14 16  1  0  0  0  0
 17 34  1  0  0  0  0
 17 35  1  0  0  0  0
 18 19  1  0  0  0  0
 18 36  1  0  0  0  0
M  CHG  1  16  -1
M  END
> <s_m_source_file>
AV-unprocessed.smi

> <i_m_source_file_index>
2405

> <i_lp_mmshare_version>
43012

> <i_f3d_flags>
0

> <s_epik_input>
W0NIM11bQ0gyXWMxbmMoW2NIXXMxKVtDSDJdQyg9TylbTkhdW0NAQEhdMltDSDJdW0NIMl1bQ0BIXShbQ0gyXTIpQyg9TylbT0hd

> <s_epik_cmdline>
J2VwaWtfcHl0aG9uJywgJy1waCcsICc3LjAnLCAnLXRuJywgJzgnLCAnLW1hJywgJzIwMCcsICctbWV0YWxfYmluZGluZycsICctaW1hZScsICc8aW5maWxlLm1hZT4nLCAnLW9tYWUnLCAnPG91dGZpbGUubWFlPic=

> <r_epik_Ionization_Penalty>
0.000544611

> <r_epik_Ionization_Penalty_Charging>
0.000481685

> <r_epik_Ionization_Penalty_Neutral>
6.29266e-05

> <r_epik_State_Penalty>
0.00029893

> <r_epik_Charging_Adjusted_Penalty>
0.000780614

> <i_epik_Tot_Q>
-1

> <i_epik_Tot_abs_Q>
1

> <r_epik_Metal_State_Penalty>
-0

> <b_epik_Metal_Only>
0

> <s_lp_Force_Field>
OPLS_2005

> <r_lp_Energy>
7.49368

> <b_lp_Chiralities_Consistent>
1

> <s_lp_Variant>
AV-unprocessed.smi:2405-2

> <Gold.Version>
5.8.1

> <Gold.Id.Protein>
6NUR|6NUR_protein|mol2

> <Gold.PLP.Fitness>
46.4115

> <Gold.PLP.PLP>
-36.0584

> <Gold.PLP.part.hbond>
-2.3680

> <Gold.PLP.part.metal>
0.0000

> <Gold.PLP.part.buried>
-3.8807

> <Gold.PLP.part.nonpolar>
-30.5704

> <Gold.PLP.part.repulsive>
0.1588

> <Gold.PLP.ligand.clash>
0.0000

> <Gold.PLP.ligand.torsion>
0.5602

> <Gold.PLP.Chemscore.Hbond>
2.8480

> <Gold.PLP.Chemscore.CHOScore>
0.9607

> <Gold.PLP.Chemscore.Metal>
0.0000

> <Gold.Chemscore.Hbonds>
donor molecule, donor type, donor heavy atom, donor atom, acceptor molecule, acceptor atom, score
      P1  H  6896  6908       L1    16  2.00
      P1  H  7989  7998       L1     8  0.88
      L1  C    18    36       P1  8028  1.00

> <Gold.PLP.Chemscore.Internal.Correction>
0.0473

> <Gold.Rescore>
     Score         DG    S(hbond)    S(metal)    S(lipo)     H(rot)  DE(clash)    DE(int)     intcor
     14.41     -17.39       1.73        0.00      97.66       2.06       0.01       2.97       ----

> <Gold.Chemscore.Fitness>
14.4142

> <Gold.Chemscore.DG>
-17.3908

> <Gold.Chemscore.ZeroCoef>
-5.4800

> <Gold.Chemscore.Hbond>
1.7268

> <Gold.Chemscore.Metal>
0.0000

> <Gold.Chemscore.Lipo>
97.6564

> <Gold.Chemscore.Internal_Hbond>
0.0000

> <Gold.Chemscore.DEClash>
0.0060

> <Gold.Chemscore.DEInternal>
2.9707

> <Gold.Chemscore.Rot>
2.0635

> <Gold.Chemscore.Internal.Correction>
   9.000000E+99

> <Gold.Chemscore.Hbonds>
donor molecule, donor type, donor heavy atom, donor atom, acceptor molecule, acceptor atom, score
      P1  H  6896  6908       L1    16  0.45
      P1  H  7989  7998       L1     8  0.86

> <Gold.Chemscore.Hbond.Weighted>
-5.7675

> <Gold.Chemscore.Metal.Weighted>
-0.0000

> <Gold.Chemscore.Lipo.Weighted>
-11.4258

> <Gold.Chemscore.Internal_Hbond.Weighted>
0.0000

> <Gold.Chemscore.DEClash.Weighted>
0.0060

> <Gold.Chemscore.DEInternal.Weighted>
2.9707

> <Gold.Chemscore.Rot.Weighted>
5.2825

> <Gold.Chemscore.Internal.Correction.Weighted>
   9.000000E+99

> <Gold.Protein.RotatedTorsions>
[ 6907 6896 6895 6894 ] final  175.58 input  -60.11 | X-H torsion
[ 7974 7965 7964 7962 ] final -123.22 input  175.53 | X-H torsion
[ 8008 7997 7996 7995 ] final  166.05 input   59.86 | X-H torsion
[ 10167 10162 10161 10158 ] final  -44.53 input  -65.29 | X-H torsion
[ 10718 10713 10712 10709 ] final -178.25 input   66.30 | X-H torsion
[ 10763 10752 10751 10750 ] final -136.59 input  -60.55 | X-H torsion
[ 11005 11000 10999 10996 ] final   64.90 input  -57.11 | X-H torsion

> <Gold.Protein.ActiveResidues>
 VAL166  LYS551  ARG553  GLY616  TRP617  ASP618  TYR619  PRO620  LYS621  CYS622 
 ASP623  PHE694  ASN695  SER759  ASP760  ASP761  ALA762  ILE779  LEU786  VAL792 
 PHE793  MET794  SER795  GLU796  ALA797  LYS798  CYS799  TRP800  GLU811  SER814 

> <Gold.Protein.RotatedAtoms>
  151.7340  133.3319  159.3347 H   0  0  0  0  0  0  0  0  0  0  0  0  # atno 6907 bound_to 6896
  150.7601  134.6338  159.6210 H   0  0  0  0  0  0  0  0  0  0  0  0  # atno 6908 bound_to 6896
  152.3573  134.6924  160.0269 H   0  0  0  0  0  0  0  0  0  0  0  0  # atno 6909 bound_to 6896
  145.0210  140.7988  143.4381 H   0  0  0  0  0  0  0  0  0  0  0  0  # atno 7974 bound_to 7965
  156.1750  140.1653  156.8379 H   0  0  0  0  0  0  0  0  0  0  0  0  # atno 8008 bound_to 7997
  154.5297  140.0759  156.8357 H   0  0  0  0  0  0  0  0  0  0  0  0  # atno 8009 bound_to 7997
  155.3432  140.3386  155.4241 H   0  0  0  0  0  0  0  0  0  0  0  0  # atno 8010 bound_to 7997
  140.6893  143.2925  151.3509 H   0  0  0  0  0  0  0  0  0  0  0  0  # atno 10167 bound_to 10162
  156.8415  130.9688  151.3099 H   0  0  0  0  0  0  0  0  0  0  0  0  # atno 10718 bound_to 10713
  154.8680  135.3668  154.5086 H   0  0  0  0  0  0  0  0  0  0  0  0  # atno 10763 bound_to 10752
  153.5722  135.7020  153.5504 H   0  0  0  0  0  0  0  0  0  0  0  0  # atno 10764 bound_to 10752
  153.3532  135.4066  155.1625 H   0  0  0  0  0  0  0  0  0  0  0  0  # atno 10765 bound_to 10752
  139.9929  134.6563  156.0060 H   0  0  0  0  0  0  0  0  0  0  0  0  # atno 11005 bound_to 11000
  145.1896  139.2308  143.5249 LP  0  0  0  0  0  0  0  0  0  0  0  0  # atno 17320 bound_to 7965
  146.3485  140.1689  142.8590 LP  0  0  0  0  0  0  0  0  0  0  0  0  # atno 17321 bound_to 7965
  139.6280  144.0776  152.2451 LP  0  0  0  0  0  0  0  0  0  0  0  0  # atno 17342 bound_to 10162
  140.0242  144.6130  150.7542 LP  0  0  0  0  0  0  0  0  0  0  0  0  # atno 17343 bound_to 10162
  157.6353  130.8762  149.9347 LP  0  0  0  0  0  0  0  0  0  0  0  0  # atno 17370 bound_to 10713
  156.0878  130.3666  150.0454 LP  0  0  0  0  0  0  0  0  0  0  0  0  # atno 17371 bound_to 10713
  141.1581  133.6541  156.4227 LP  0  0  0  0  0  0  0  0  0  0  0  0  # atno 17394 bound_to 11000
  140.4874  134.6608  157.5196 LP  0  0  0  0  0  0  0  0  0  0  0  0  # atno 17395 bound_to 11000

$$$$
