AV-unprocessed.smi:530|AV-procd|sdf|2845|dock3
  -GOLD-   2262023333D 1   1.00000     0.00000
 Structure written by MMmdl.
 36 38  0  0  0  0  0  0  0  0  2 V2000
  151.7190  137.7589  154.6390 C   0  0  0  0  0  0  0  0  0  0  0  0
  150.5746  138.6886  154.4126 C   0  0  0  0  0  0  0  0  0  0  0  0
  149.4920  138.4511  153.6198 N   0  3  0  0  0  0  0  0  0  0  0  0
  148.6288  139.5470  153.6589 C   0  0  0  0  0  0  0  0  0  0  0  0
  147.4107  139.7697  153.0239 C   0  0  0  0  0  0  0  0  0  0  0  0
  146.7805  141.0053  153.2792 C   0  0  0  0  0  0  0  0  0  0  0  0
  147.3626  141.9633  154.1345 C   0  0  0  0  0  0  0  0  0  0  0  0
  148.5984  141.7267  154.7716 C   0  0  0  0  0  0  0  0  0  0  0  0
  149.2141  140.5011  154.5169 C   0  0  0  0  0  0  0  0  0  0  0  0
  150.4131  139.9277  154.9580 N   0  0  0  0  0  0  0  0  0  0  0  0
  151.2830  140.6714  155.8835 C   0  0  0  0  0  0  0  0  0  0  0  0
  150.6518  140.8701  157.2762 C   0  0  1  0  0  0  0  0  0  0  0  0
  150.7108  139.6659  158.0164 O   0  0  0  0  0  0  0  0  0  0  0  0
  151.3021  142.0307  158.0125 C   0  0  0  0  0  0  0  0  0  0  0  0
  151.9148  141.8326  159.2700 C   0  0  0  0  0  0  0  0  0  0  0  0
  152.5242  142.9109  159.9407 C   0  0  0  0  0  0  0  0  0  0  0  0
  152.5272  144.1924  159.3576 C   0  0  0  0  0  0  0  0  0  0  0  0
  151.9215  144.3951  158.1028 C   0  0  0  0  0  0  0  0  0  0  0  0
  151.3115  143.3173  157.4317 C   0  0  0  0  0  0  0  0  0  0  0  0
  151.5893  136.8430  154.0618 H   0  0  0  0  0  0  0  0  0  0  0  0
  151.7867  137.4966  155.6949 H   0  0  0  0  0  0  0  0  0  0  0  0
  152.6537  138.2308  154.3361 H   0  0  0  0  0  0  0  0  0  0  0  0
  146.9638  139.0382  152.3671 H   0  0  0  0  0  0  0  0  0  0  0  0
  145.8325  141.2230  152.8087 H   0  0  0  0  0  0  0  0  0  0  0  0
  146.8517  142.8999  154.3050 H   0  0  0  0  0  0  0  0  0  0  0  0
  149.0374  142.4712  155.4192 H   0  0  0  0  0  0  0  0  0  0  0  0
  152.2484  140.1700  155.9533 H   0  0  0  0  0  0  0  0  0  0  0  0
  151.4812  141.6417  155.4270 H   0  0  0  0  0  0  0  0  0  0  0  0
  149.5932  141.1003  157.1490 H   0  0  0  0  0  0  0  0  0  0  0  0
  151.1265  139.8457  158.8460 H   0  0  0  0  0  0  0  0  0  0  0  0
  151.9221  140.8523  159.7240 H   0  0  0  0  0  0  0  0  0  0  0  0
  152.9912  142.7544  160.9019 H   0  0  0  0  0  0  0  0  0  0  0  0
  152.9955  145.0190  159.8716 H   0  0  0  0  0  0  0  0  0  0  0  0
  151.9261  145.3775  157.6538 H   0  0  0  0  0  0  0  0  0  0  0  0
  150.8526  143.4831  156.4680 H   0  0  0  0  0  0  0  0  0  0  0  0
  149.3559  137.5991  153.0909 H   0  0  0  0  0  0  0  0  0  0  0  0
  1  2  1  0  0  0  0
  1 20  1  0  0  0  0
  1 21  1  0  0  0  0
  1 22  1  0  0  0  0
  2 10  1  0  0  0  0
  2  3  2  0  0  0  0
  3  4  1  0  0  0  0
  3 36  1  0  0  0  0
  4  9  2  0  0  0  0
  4  5  1  0  0  0  0
  5  6  2  0  0  0  0
  5 23  1  0  0  0  0
  6  7  1  0  0  0  0
  6 24  1  0  0  0  0
  7  8  2  0  0  0  0
  7 25  1  0  0  0  0
  8  9  1  0  0  0  0
  8 26  1  0  0  0  0
  9 10  1  0  0  0  0
 10 11  1  0  0  0  0
 11 12  1  0  0  0  0
 11 27  1  0  0  0  0
 11 28  1  0  0  0  0
 12 13  1  0  0  0  0
 12 14  1  0  0  0  0
 12 29  1  0  0  0  0
 13 30  1  0  0  0  0
 14 19  1  0  0  0  0
 14 15  2  0  0  0  0
 15 16  1  0  0  0  0
 15 31  1  0  0  0  0
 16 17  2  0  0  0  0
 16 32  1  0  0  0  0
 17 18  1  0  0  0  0
 17 33  1  0  0  0  0
 18 19  2  0  0  0  0
 18 34  1  0  0  0  0
 19 35  1  0  0  0  0
M  CHG  1   3   1
M  END
> <s_m_source_file>
AV-unprocessed.smi

> <i_m_source_file_index>
530

> <i_lp_mmshare_version>
43012

> <i_f3d_flags>
0

> <s_epik_input>
W2NIXTFbY0hdW2NIXVtjSF1jKGMxMiluKGMobjIpW0NIM10pW0NIMl1bQ0BIXShbT0hdKWMzW2NIXVtjSF1bY0hdW2NIXVtjSF0z

> <s_epik_cmdline>
J2VwaWtfcHl0aG9uJywgJy1waCcsICc3LjAnLCAnLXRuJywgJzgnLCAnLW1hJywgJzIwMCcsICctbWV0YWxfYmluZGluZycsICctaW1hZScsICc8aW5maWxlLm1hZT4nLCAnLW9tYWUnLCAnPG91dGZpbGUubWFlPic=

> <r_epik_Ionization_Penalty>
0.963869

> <r_epik_Ionization_Penalty_Charging>
0.963868

> <r_epik_Ionization_Penalty_Neutral>
1.34362e-06

> <r_epik_State_Penalty>
1.00924

> <r_epik_Charging_Adjusted_Penalty>
1.9731

> <i_epik_Tot_Q>
1

> <i_epik_Tot_abs_Q>
1

> <r_epik_Metal_State_Penalty>
4.98304

> <b_epik_Metal_Only>
0

> <s_lp_Force_Field>
OPLS_2005

> <r_lp_Energy>
15.219

> <b_lp_Chiralities_Consistent>
1

> <s_lp_Variant>
AV-unprocessed.smi:530-4

> <Gold.Version>
5.8.1

> <Gold.Id.Protein>
6NUR|6NUR_protein|mol2

> <Gold.PLP.Fitness>
53.0609

> <Gold.PLP.PLP>
-47.4678

> <Gold.PLP.part.hbond>
-2.0000

> <Gold.PLP.part.metal>
0.0000

> <Gold.PLP.part.buried>
2.7885

> <Gold.PLP.part.nonpolar>
-48.1880

> <Gold.PLP.part.repulsive>
0.0672

> <Gold.PLP.ligand.clash>
0.0000

> <Gold.PLP.ligand.torsion>
0.2175

> <Gold.PLP.Chemscore.Hbond>
2.0000

> <Gold.PLP.Chemscore.CHOScore>
0.0000

> <Gold.PLP.Chemscore.Metal>
0.0000

> <Gold.Chemscore.Hbonds>
donor molecule, donor type, donor heavy atom, donor atom, acceptor molecule, acceptor atom, score
      L1  H     3    36       P1  7948  2.00

> <Gold.PLP.Chemscore.Internal.Correction>
0.0282

> <Gold.Rescore>
     Score         DG    S(hbond)    S(metal)    S(lipo)     H(rot)  DE(clash)    DE(int)     intcor
     19.05     -19.39       0.97        0.00     129.73       1.76       0.16       0.18       ----

> <Gold.Chemscore.Fitness>
19.0509

> <Gold.Chemscore.DG>
-19.3933

> <Gold.Chemscore.ZeroCoef>
-5.4800

> <Gold.Chemscore.Hbond>
0.9667

> <Gold.Chemscore.Metal>
0.0000

> <Gold.Chemscore.Lipo>
129.7331

> <Gold.Chemscore.Internal_Hbond>
0.0000

> <Gold.Chemscore.DEClash>
0.1624

> <Gold.Chemscore.DEInternal>
0.1800

> <Gold.Chemscore.Rot>
1.7555

> <Gold.Chemscore.Internal.Correction>
   9.000000E+99

> <Gold.Chemscore.Hbonds>
donor molecule, donor type, donor heavy atom, donor atom, acceptor molecule, acceptor atom, score
      L1  H     3    36       P1  7948  0.96

> <Gold.Chemscore.Hbond.Weighted>
-3.2288

> <Gold.Chemscore.Metal.Weighted>
-0.0000

> <Gold.Chemscore.Lipo.Weighted>
-15.1788

> <Gold.Chemscore.Internal_Hbond.Weighted>
0.0000

> <Gold.Chemscore.DEClash.Weighted>
0.1624

> <Gold.Chemscore.DEInternal.Weighted>
0.1800

> <Gold.Chemscore.Rot.Weighted>
4.4942

> <Gold.Chemscore.Internal.Correction.Weighted>
   9.000000E+99

> <Gold.Protein.RotatedTorsions>
[ 6907 6896 6895 6894 ] final  167.64 input  -60.11 | X-H torsion
[ 7974 7965 7964 7962 ] final -143.21 input  175.53 | X-H torsion
[ 8008 7997 7996 7995 ] final   86.68 input   59.86 | X-H torsion
[ 10167 10162 10161 10158 ] final  -58.51 input  -65.29 | X-H torsion
[ 10718 10713 10712 10709 ] final  143.08 input   66.30 | X-H torsion
[ 10763 10752 10751 10750 ] final   17.47 input  -60.55 | X-H torsion
[ 11005 11000 10999 10996 ] final  -74.66 input  -57.11 | X-H torsion

> <Gold.Protein.ActiveResidues>
 VAL166  LYS551  ARG553  GLY616  TRP617  ASP618  TYR619  PRO620  LYS621  CYS622 
 ASP623  PHE694  ASN695  SER759  ASP760  ASP761  ALA762  ILE779  LEU786  VAL792 
 PHE793  MET794  SER795  GLU796  ALA797  LYS798  CYS799  TRP800  GLU811  SER814 

> <Gold.Protein.RotatedAtoms>
  151.8602  133.3456  159.3701 H   0  0  0  0  0  0  0  0  0  0  0  0  # atno 6907 bound_to 6896
  150.7181  134.5214  159.5664 H   0  0  0  0  0  0  0  0  0  0  0  0  # atno 6908 bound_to 6896
  152.2725  134.7917  160.0462 H   0  0  0  0  0  0  0  0  0  0  0  0  # atno 6909 bound_to 6896
  144.8386  140.5863  143.5467 H   0  0  0  0  0  0  0  0  0  0  0  0  # atno 7974 bound_to 7965
  155.9658  140.3389  155.6531 H   0  0  0  0  0  0  0  0  0  0  0  0  # atno 8008 bound_to 7997
  155.6739  140.0730  157.2528 H   0  0  0  0  0  0  0  0  0  0  0  0  # atno 8009 bound_to 7997
  154.4154  140.1686  156.1896 H   0  0  0  0  0  0  0  0  0  0  0  0  # atno 8010 bound_to 7997
  140.6193  143.2413  151.5520 H   0  0  0  0  0  0  0  0  0  0  0  0  # atno 10167 bound_to 10162
  157.3731  131.0981  151.0809 H   0  0  0  0  0  0  0  0  0  0  0  0  # atno 10718 bound_to 10713
  153.1336  135.6745  153.9139 H   0  0  0  0  0  0  0  0  0  0  0  0  # atno 10763 bound_to 10752
  153.8617  135.3080  155.3439 H   0  0  0  0  0  0  0  0  0  0  0  0  # atno 10764 bound_to 10752
  154.7728  135.4930  153.9766 H   0  0  0  0  0  0  0  0  0  0  0  0  # atno 10765 bound_to 10752
  141.1637  133.6919  156.7398 H   0  0  0  0  0  0  0  0  0  0  0  0  # atno 11005 bound_to 11000
  145.4741  139.1501  143.3798 LP  0  0  0  0  0  0  0  0  0  0  0  0  # atno 17320 bound_to 7965
  146.2682  140.4875  142.8825 LP  0  0  0  0  0  0  0  0  0  0  0  0  # atno 17321 bound_to 7965
  139.5425  144.2610  152.1378 LP  0  0  0  0  0  0  0  0  0  0  0  0  # atno 17342 bound_to 10162
  140.1826  144.4829  150.6520 LP  0  0  0  0  0  0  0  0  0  0  0  0  # atno 17343 bound_to 10162
  157.1906  130.6350  149.5703 LP  0  0  0  0  0  0  0  0  0  0  0  0  # atno 17370 bound_to 10713
  155.9759  130.4723  150.6495 LP  0  0  0  0  0  0  0  0  0  0  0  0  # atno 17371 bound_to 10713
  140.2683  134.8412  157.3823 LP  0  0  0  0  0  0  0  0  0  0  0  0  # atno 17394 bound_to 11000
  140.1545  134.4807  155.7937 LP  0  0  0  0  0  0  0  0  0  0  0  0  # atno 17395 bound_to 11000

$$$$
