AV-unprocessed.smi:1726|AV-procd|sdf|6960|dock1
  -GOLD-   22720 8173D 1   1.00000     0.00000
 Structure written by MMmdl.
 43 44  0  0  0  0  0  0  0  0  2 V2000
  146.4505  133.6540  151.9849 C   0  0  0  0  0  0  0  0  0  0  0  0
  146.5770  134.4773  153.2747 C   0  0  0  0  0  0  0  0  0  0  0  0
  147.9660  134.5077  153.7993 N   0  3  2  0  0  0  0  0  0  0  0  0
  148.4649  133.1488  154.1361 C   0  0  0  0  0  0  0  0  0  0  0  0
  149.9450  133.1841  154.5508 C   0  0  0  0  0  0  0  0  0  0  0  0
  150.1673  134.1515  155.7202 C   0  0  0  0  0  0  0  0  0  0  0  0
  149.6249  135.5433  155.3606 C   0  0  2  0  0  0  0  0  0  0  0  0
  149.7863  136.4480  156.4955 N   0  0  0  0  0  0  0  0  0  0  0  0
  150.9581  136.9229  156.9424 C   0  0  0  0  0  0  0  0  0  0  0  0
  152.0379  136.6451  156.4207 O   0  0  0  0  0  0  0  0  0  0  0  0
  150.7777  137.7390  157.9971 N   0  0  0  0  0  0  0  0  0  0  0  0
  151.7354  138.4215  158.7667 C   0  0  0  0  0  0  0  0  0  0  0  0
  151.7946  139.7708  158.9159 C   0  0  0  0  0  0  0  0  0  0  0  0
  152.8189  140.4138  159.7223 C   0  0  0  0  0  0  0  0  0  0  0  0
  152.9100  141.9276  159.8396 C   0  0  0  0  0  0  0  0  0  0  0  0
  151.9894  142.5264  159.0827 F   0  0  0  0  0  0  0  0  0  0  0  0
  152.7366  142.3233  161.1008 F   0  0  0  0  0  0  0  0  0  0  0  0
  154.1108  142.3409  159.4366 F   0  0  0  0  0  0  0  0  0  0  0  0
  153.7303  139.6039  160.2919 C   0  0  0  0  0  0  0  0  0  0  0  0
  153.6769  138.2163  160.1435 N   0  0  0  0  0  0  0  0  0  0  0  0
  152.7415  137.5651  159.4164 C   0  0  0  0  0  0  0  0  0  0  0  0
  152.7650  136.3379  159.3297 O   0  0  0  0  0  0  0  0  0  0  0  0
  148.1435  135.4511  154.9356 C   0  0  0  0  0  0  0  0  0  0  0  0
  154.3918  137.6771  160.6106 H   0  0  0  0  0  0  0  0  0  0  0  0
  145.4050  133.5673  151.6881 H   0  0  0  0  0  0  0  0  0  0  0  0
  146.8383  132.6443  152.1220 H   0  0  0  0  0  0  0  0  0  0  0  0
  146.9837  134.1105  151.1515 H   0  0  0  0  0  0  0  0  0  0  0  0
  146.2114  135.4937  153.1210 H   0  0  0  0  0  0  0  0  0  0  0  0
  145.9223  134.0241  154.0205 H   0  0  0  0  0  0  0  0  0  0  0  0
  147.8583  132.7258  154.9385 H   0  0  0  0  0  0  0  0  0  0  0  0
  148.3536  132.4900  153.2739 H   0  0  0  0  0  0  0  0  0  0  0  0
  150.2779  132.1833  154.8276 H   0  0  0  0  0  0  0  0  0  0  0  0
  150.5567  133.4893  153.7007 H   0  0  0  0  0  0  0  0  0  0  0  0
  149.6642  133.7711  156.6105 H   0  0  0  0  0  0  0  0  0  0  0  0
  151.2298  134.2074  155.9600 H   0  0  0  0  0  0  0  0  0  0  0  0
  150.2096  135.9281  154.5223 H   0  0  0  0  0  0  0  0  0  0  0  0
  148.9449  136.7291  156.9785 H   0  0  0  0  0  0  0  0  0  0  0  0
  149.8212  137.9243  158.2633 H   0  0  0  0  0  0  0  0  0  0  0  0
  151.0842  140.4150  158.4245 H   0  0  0  0  0  0  0  0  0  0  0  0
  154.5594  139.9489  160.8921 H   0  0  0  0  0  0  0  0  0  0  0  0
  147.7902  136.4415  154.6512 H   0  0  0  0  0  0  0  0  0  0  0  0
  147.5275  135.1270  155.7764 H   0  0  0  0  0  0  0  0  0  0  0  0
  148.5489  134.8427  153.0455 H   0  0  0  0  0  0  0  0  0  0  0  0
  1  2  1  0  0  0  0
  1 25  1  0  0  0  0
  1 26  1  0  0  0  0
  1 27  1  0  0  0  0
  2  3  1  0  0  0  0
  2 28  1  0  0  0  0
  2 29  1  0  0  0  0
  3 23  1  0  0  0  0
  3  4  1  0  0  0  0
  3 43  1  0  0  0  0
  4  5  1  0  0  0  0
  4 30  1  0  0  0  0
  4 31  1  0  0  0  0
  5  6  1  0  0  0  0
  5 32  1  0  0  0  0
  5 33  1  0  0  0  0
  6  7  1  0  0  0  0
  6 34  1  0  0  0  0
  6 35  1  0  0  0  0
  7  8  1  0  0  0  0
  7 23  1  0  0  0  0
  7 36  1  0  0  0  0
  8  9  1  0  0  0  0
  8 37  1  0  0  0  0
  9 10  2  0  0  0  0
  9 11  1  0  0  0  0
 11 12  1  0  0  0  0
 11 38  1  0  0  0  0
 12 21  1  0  0  0  0
 12 13  2  0  0  0  0
 13 14  1  0  0  0  0
 13 39  1  0  0  0  0
 14 15  1  0  0  0  0
 14 19  2  0  0  0  0
 15 16  1  0  0  0  0
 15 17  1  0  0  0  0
 15 18  1  0  0  0  0
 19 20  1  0  0  0  0
 19 40  1  0  0  0  0
 20 24  1  0  0  0  0
 20 21  1  0  0  0  0
 21 22  2  0  0  0  0
 23 41  1  0  0  0  0
 23 42  1  0  0  0  0
M  CHG  1   3   1
M  END
> <s_m_source_file>
AV-unprocessed.smi

> <i_m_source_file_index>
1726

> <i_lp_mmshare_version>
43012

> <i_f3d_flags>
0

> <s_epik_input>
W0NIM11bQ0gyXU4xW0NIMl1bQ0gyXVtDSDJdW0NASF0oW0NIMl0xKVtOSF1DKD1PKVtOSF1jMltjSF1jKEMoRikoRilGKVtjSF1bbkhdYzI9Tw==

> <s_epik_cmdline>
J2VwaWtfcHl0aG9uJywgJy1waCcsICc3LjAnLCAnLXRuJywgJzgnLCAnLW1hJywgJzIwMCcsICctbWV0YWxfYmluZGluZycsICctaW1hZScsICc8aW5maWxlLm1hZT4nLCAnLW9tYWUnLCAnPG91dGZpbGUubWFlPic=

> <r_lp_tautomer_probability>
1

> <r_epik_Ionization_Penalty>
0.00745721

> <r_epik_Ionization_Penalty_Charging>
0.00743804

> <r_epik_Ionization_Penalty_Neutral>
1.91703e-05

> <r_epik_State_Penalty>
-0

> <r_epik_Charging_Adjusted_Penalty>
0.00743804

> <i_epik_Tot_Q>
1

> <i_epik_Tot_abs_Q>
1

> <r_epik_Metal_State_Penalty>
0.37929

> <b_epik_Metal_Only>
0

> <s_lp_Force_Field>
OPLS_2005

> <r_lp_Energy>
26.6941

> <b_lp_Chiralities_Consistent>
1

> <s_lp_Variant>
AV-unprocessed.smi:1726-4

> <Gold.Version>
5.8.1

> <Gold.Id.Protein>
6NUR|6NUR_protein|mol2

> <Gold.PLP.Fitness>
43.7339

> <Gold.PLP.PLP>
-34.6687

> <Gold.PLP.part.hbond>
-2.8903

> <Gold.PLP.part.metal>
0.0000

> <Gold.PLP.part.buried>
-5.5222

> <Gold.PLP.part.nonpolar>
-25.6198

> <Gold.PLP.part.repulsive>
0.1637

> <Gold.PLP.ligand.clash>
0.0000

> <Gold.PLP.ligand.torsion>
0.7565

> <Gold.PLP.Chemscore.Hbond>
3.5003

> <Gold.PLP.Chemscore.CHOScore>
0.0000

> <Gold.PLP.Chemscore.Metal>
0.0000

> <Gold.Chemscore.Hbonds>
donor molecule, donor type, donor heavy atom, donor atom, acceptor molecule, acceptor atom, score
      L1  H     3    43       P1  7948  1.98
      P1  H  6896  6909       L1    22  0.72
      P1  H 10752 10763       L1    10  0.76

> <Gold.PLP.Chemscore.Internal.Correction>
0.0774

> <Gold.Rescore>
     Score         DG    S(hbond)    S(metal)    S(lipo)     H(rot)  DE(clash)    DE(int)     intcor
     16.26     -17.09       2.25        0.00      63.05       1.29       0.13       0.70       ----

> <Gold.Chemscore.Fitness>
16.2573

> <Gold.Chemscore.DG>
-17.0874

> <Gold.Chemscore.ZeroCoef>
-5.4800

> <Gold.Chemscore.Hbond>
2.2541

> <Gold.Chemscore.Metal>
0.0000

> <Gold.Chemscore.Lipo>
63.0523

> <Gold.Chemscore.Internal_Hbond>
0.0000

> <Gold.Chemscore.DEClash>
0.1304

> <Gold.Chemscore.DEInternal>
0.6997

> <Gold.Chemscore.Rot>
1.2884

> <Gold.Chemscore.Internal.Correction>
   9.000000E+99

> <Gold.Chemscore.Hbonds>
donor molecule, donor type, donor heavy atom, donor atom, acceptor molecule, acceptor atom, score
      L1  H     3    43       P1  7948  0.47
      P1  H  6896  6909       L1    22  0.72
      P1  H 10752 10763       L1    10  0.74

> <Gold.Chemscore.Hbond.Weighted>
-7.5286

> <Gold.Chemscore.Metal.Weighted>
-0.0000

> <Gold.Chemscore.Lipo.Weighted>
-7.3771

> <Gold.Chemscore.Internal_Hbond.Weighted>
0.0000

> <Gold.Chemscore.DEClash.Weighted>
0.1304

> <Gold.Chemscore.DEInternal.Weighted>
0.6997

> <Gold.Chemscore.Rot.Weighted>
3.2983

> <Gold.Chemscore.Internal.Correction.Weighted>
   9.000000E+99

> <Gold.Protein.RotatedTorsions>
[ 6907 6896 6895 6894 ] final  124.68 input  -60.11 | X-H torsion
[ 7974 7965 7964 7962 ] final   97.80 input  175.53 | X-H torsion
[ 8008 7997 7996 7995 ] final  -53.98 input   59.86 | X-H torsion
[ 10167 10162 10161 10158 ] final -113.36 input  -65.29 | X-H torsion
[ 10718 10713 10712 10709 ] final  127.31 input   66.30 | X-H torsion
[ 10763 10752 10751 10750 ] final   80.76 input  -60.55 | X-H torsion
[ 11005 11000 10999 10996 ] final   85.91 input  -57.11 | X-H torsion

> <Gold.Protein.ActiveResidues>
 VAL166  LYS551  ARG553  GLY616  TRP617  ASP618  TYR619  PRO620  LYS621  CYS622 
 ASP623  PHE694  ASN695  SER759  ASP760  ASP761  ALA762  ILE779  LEU786  VAL792 
 PHE793  MET794  SER795  GLU796  ALA797  LYS798  CYS799  TRP800  GLU811  SER814 

> <Gold.Protein.RotatedAtoms>
  152.4058  133.6886  159.6354 H   0  0  0  0  0  0  0  0  0  0  0  0  # atno 6907 bound_to 6896
  150.7943  133.8712  159.3268 H   0  0  0  0  0  0  0  0  0  0  0  0  # atno 6908 bound_to 6896
  151.6467  135.1008  160.0204 H   0  0  0  0  0  0  0  0  0  0  0  0  # atno 6909 bound_to 6896
  145.4207  139.2322  143.3198 H   0  0  0  0  0  0  0  0  0  0  0  0  # atno 7974 bound_to 7965
  154.4149  140.1187  156.5242 H   0  0  0  0  0  0  0  0  0  0  0  0  # atno 8008 bound_to 7997
  155.6672  140.3496  155.4785 H   0  0  0  0  0  0  0  0  0  0  0  0  # atno 8009 bound_to 7997
  155.9664  140.1133  157.0841 H   0  0  0  0  0  0  0  0  0  0  0  0  # atno 8010 bound_to 7997
  140.1127  143.4513  152.1742 H   0  0  0  0  0  0  0  0  0  0  0  0  # atno 10167 bound_to 10162
  157.5344  131.1098  150.8959 H   0  0  0  0  0  0  0  0  0  0  0  0  # atno 10718 bound_to 10713
  153.1060  135.4791  154.8952 H   0  0  0  0  0  0  0  0  0  0  0  0  # atno 10763 bound_to 10752
  154.7430  135.3087  154.8696 H   0  0  0  0  0  0  0  0  0  0  0  0  # atno 10764 bound_to 10752
  153.9299  135.6846  153.4799 H   0  0  0  0  0  0  0  0  0  0  0  0  # atno 10765 bound_to 10752
  139.8959  134.8319  156.2647 H   0  0  0  0  0  0  0  0  0  0  0  0  # atno 11005 bound_to 11000
  146.2658  140.4931  142.8834 LP  0  0  0  0  0  0  0  0  0  0  0  0  # atno 17320 bound_to 7965
  144.8247  140.6609  143.6330 LP  0  0  0  0  0  0  0  0  0  0  0  0  # atno 17321 bound_to 7965
  139.5610  144.7405  151.4154 LP  0  0  0  0  0  0  0  0  0  0  0  0  # atno 17342 bound_to 10162
  140.6916  143.7847  150.7264 LP  0  0  0  0  0  0  0  0  0  0  0  0  # atno 17343 bound_to 10162
  156.9531  130.5427  149.5283 LP  0  0  0  0  0  0  0  0  0  0  0  0  # atno 17370 bound_to 10713
  156.0447  130.5525  150.8853 LP  0  0  0  0  0  0  0  0  0  0  0  0  # atno 17371 bound_to 10713
  141.0140  133.7079  156.1157 LP  0  0  0  0  0  0  0  0  0  0  0  0  # atno 17394 bound_to 11000
  140.7328  134.4236  157.5564 LP  0  0  0  0  0  0  0  0  0  0  0  0  # atno 17395 bound_to 11000

$$$$
