AV-unprocessed.smi:243|AV-procd|sdf|1862|dock8
  -GOLD-   2262020493D 1   1.00000     0.00000
 Structure written by MMmdl.
 58 61  0  0  0  0  0  0  0  0  2 V2000
  146.0439  128.5116  151.9308 C   0  0  0  0  0  0  0  0  0  0  0  0
  146.2159  129.9203  152.5180 C   0  0  0  0  0  0  0  0  0  0  0  0
  147.6315  130.2409  152.8325 N   0  3  2  0  0  0  0  0  0  0  0  0
  148.3066  129.1815  153.6233 C   0  0  0  0  0  0  0  0  0  0  0  0
  149.8002  129.4976  153.8330 C   0  0  0  0  0  0  0  0  0  0  0  0
  150.0721  130.8932  154.4379 C   0  0  2  0  0  0  0  0  0  0  0  0
  150.0190  130.9419  155.9117 N   0  0  0  0  0  0  0  0  0  0  0  0
  151.2378  131.1980  156.6726 C   0  0  0  0  0  0  0  0  0  0  0  0
  148.8878  131.3064  156.5566 C   0  0  0  0  0  0  0  0  0  0  0  0
  147.7783  130.5319  156.4450 N   0  0  0  0  0  0  0  0  0  0  0  0
  146.6536  130.8789  157.0780 C   0  0  0  0  0  0  0  0  0  0  0  0
  146.4253  131.9436  157.8498 N   0  0  0  0  0  0  0  0  0  0  0  0
  147.5286  132.7408  157.9351 C   0  0  0  0  0  0  0  0  0  0  0  0
  148.7887  132.5012  157.3191 C   0  0  0  0  0  0  0  0  0  0  0  0
  149.6715  133.5283  157.6262 N   0  0  0  0  0  0  0  0  0  0  0  0
  148.9763  134.3256  158.3905 C   0  0  0  0  0  0  0  0  0  0  0  0
  147.6779  133.9316  158.6242 N   0  0  0  0  0  0  0  0  0  0  0  0
  146.6878  134.6257  159.4331 C   0  0  0  0  0  0  0  0  0  0  0  0
  147.1528  134.8903  160.8840 C   0  0  2  0  0  0  0  0  0  0  0  0
  147.5830  133.6704  161.4623 O   0  0  0  0  0  0  0  0  0  0  0  0
  146.0800  135.5002  161.7826 C   0  0  0  0  0  0  0  0  0  0  0  0
  146.8868  136.3798  162.7275 C   0  0  0  0  0  0  0  0  0  0  0  0
  147.8716  136.9282  161.8690 O   0  0  0  0  0  0  0  0  0  0  0  0
  148.3073  135.9084  160.9760 C   0  0  0  0  0  0  0  0  0  0  0  0
  149.2499  131.9650  153.6654 C   0  0  2  0  0  0  0  0  0  0  0  0
  149.4012  133.4034  154.1854 C   0  0  0  0  0  0  0  0  0  0  0  0
  147.7695  131.5731  153.4733 C   0  0  0  0  0  0  0  0  0  0  0  0
  145.0107  128.3500  151.6226 H   0  0  0  0  0  0  0  0  0  0  0  0
  146.2888  127.7322  152.6517 H   0  0  0  0  0  0  0  0  0  0  0  0
  146.6750  128.3709  151.0527 H   0  0  0  0  0  0  0  0  0  0  0  0
  145.8422  130.6322  151.7808 H   0  0  0  0  0  0  0  0  0  0  0  0
  145.5966  130.0459  153.4075 H   0  0  0  0  0  0  0  0  0  0  0  0
  147.7859  129.0574  154.5706 H   0  0  0  0  0  0  0  0  0  0  0  0
  148.2308  128.2244  153.1092 H   0  0  0  0  0  0  0  0  0  0  0  0
  150.2807  128.7201  154.4264 H   0  0  0  0  0  0  0  0  0  0  0  0
  150.2864  129.4533  152.8575 H   0  0  0  0  0  0  0  0  0  0  0  0
  151.1193  131.1014  154.2150 H   0  0  0  0  0  0  0  0  0  0  0  0
  151.3437  132.2517  156.9300 H   0  0  0  0  0  0  0  0  0  0  0  0
  152.1219  130.8973  156.1105 H   0  0  0  0  0  0  0  0  0  0  0  0
  151.2256  130.6253  157.6006 H   0  0  0  0  0  0  0  0  0  0  0  0
  145.8172  130.2081  156.9478 H   0  0  0  0  0  0  0  0  0  0  0  0
  149.3951  135.2309  158.8056 H   0  0  0  0  0  0  0  0  0  0  0  0
  146.4348  135.5650  158.9394 H   0  0  0  0  0  0  0  0  0  0  0  0
  145.7755  134.0278  159.4357 H   0  0  0  0  0  0  0  0  0  0  0  0
  147.1524  132.9581  161.0151 H   0  0  0  0  0  0  0  0  0  0  0  0
  145.4149  136.1371  161.1978 H   0  0  0  0  0  0  0  0  0  0  0  0
  145.4643  134.7627  162.2994 H   0  0  0  0  0  0  0  0  0  0  0  0
  146.2853  137.1565  163.2001 H   0  0  0  0  0  0  0  0  0  0  0  0
  147.3647  135.7861  163.5082 H   0  0  0  0  0  0  0  0  0  0  0  0
  149.2237  135.4568  161.3594 H   0  0  0  0  0  0  0  0  0  0  0  0
  148.5452  136.3563  160.0107 H   0  0  0  0  0  0  0  0  0  0  0  0
  149.6764  131.9807  152.6610 H   0  0  0  0  0  0  0  0  0  0  0  0
  148.9063  133.5385  155.1467 H   0  0  0  0  0  0  0  0  0  0  0  0
  148.9551  134.1159  153.4913 H   0  0  0  0  0  0  0  0  0  0  0  0
  150.4508  133.6749  154.2993 H   0  0  0  0  0  0  0  0  0  0  0  0
  147.2908  132.3199  152.8386 H   0  0  0  0  0  0  0  0  0  0  0  0
  147.2255  131.5838  154.4153 H   0  0  0  0  0  0  0  0  0  0  0  0
  148.1153  130.3034  151.9479 H   0  0  0  0  0  0  0  0  0  0  0  0
  1  2  1  0  0  0  0
  1 28  1  0  0  0  0
  1 29  1  0  0  0  0
  1 30  1  0  0  0  0
  2  3  1  0  0  0  0
  2 31  1  0  0  0  0
  2 32  1  0  0  0  0
  3 27  1  0  0  0  0
  3  4  1  0  0  0  0
  3 58  1  0  0  0  0
  4  5  1  0  0  0  0
  4 33  1  0  0  0  0
  4 34  1  0  0  0  0
  5  6  1  0  0  0  0
  5 35  1  0  0  0  0
  5 36  1  0  0  0  0
  6  7  1  0  0  0  0
  6 25  1  0  0  0  0
  6 37  1  0  0  0  0
  7  8  1  0  0  0  0
  7  9  1  0  0  0  0
  8 38  1  0  0  0  0
  8 39  1  0  0  0  0
  8 40  1  0  0  0  0
  9 14  1  0  0  0  0
  9 10  2  0  0  0  0
 10 11  1  0  0  0  0
 11 12  2  0  0  0  0
 11 41  1  0  0  0  0
 12 13  1  0  0  0  0
 13 17  1  0  0  0  0
 13 14  2  0  0  0  0
 14 15  1  0  0  0  0
 15 16  2  0  0  0  0
 16 17  1  0  0  0  0
 16 42  1  0  0  0  0
 17 18  1  0  0  0  0
 18 19  1  0  0  0  0
 18 43  1  0  0  0  0
 18 44  1  0  0  0  0
 19 24  1  0  0  0  0
 19 20  1  0  0  0  0
 19 21  1  0  0  0  0
 20 45  1  0  0  0  0
 21 22  1  0  0  0  0
 21 46  1  0  0  0  0
 21 47  1  0  0  0  0
 22 23  1  0  0  0  0
 22 48  1  0  0  0  0
 22 49  1  0  0  0  0
 23 24  1  0  0  0  0
 24 50  1  0  0  0  0
 24 51  1  0  0  0  0
 25 26  1  0  0  0  0
 25 27  1  0  0  0  0
 25 52  1  0  0  0  0
 26 53  1  0  0  0  0
 26 54  1  0  0  0  0
 26 55  1  0  0  0  0
 27 56  1  0  0  0  0
 27 57  1  0  0  0  0
M  CHG  1   3   1
M  END
> <s_m_source_file>
AV-unprocessed.smi

> <i_m_source_file_index>
243

> <i_lp_mmshare_version>
43012

> <i_f3d_flags>
0

> <s_epik_input>
W0NIM11bQ0gyXU4xW0NIMl1bQ0gyXVtDQEhdKFtDQEBIXShbQ0gzXSlbQ0gyXTEpTihbQ0gzXSljKG5bY0hdbjIpYyhjMjMpbltjSF1uM1tDSDJdW0NAQF00KFtPSF0pW0NIMl1bQ0gyXU9bQ0gyXTQ=

> <s_epik_cmdline>
J2VwaWtfcHl0aG9uJywgJy1waCcsICc3LjAnLCAnLXRuJywgJzgnLCAnLW1hJywgJzIwMCcsICctbWV0YWxfYmluZGluZycsICctaW1hZScsICc8aW5maWxlLm1hZT4nLCAnLW9tYWUnLCAnPG91dGZpbGUubWFlPic=

> <r_lp_tautomer_probability>
1

> <r_epik_Ionization_Penalty>
0.00253099

> <r_epik_Ionization_Penalty_Charging>
0.00137877

> <r_epik_Ionization_Penalty_Neutral>
0.00115221

> <r_epik_State_Penalty>
-0

> <r_epik_Charging_Adjusted_Penalty>
0.00137877

> <i_epik_Tot_Q>
1

> <i_epik_Tot_abs_Q>
1

> <r_epik_Metal_State_Penalty>
-0

> <b_epik_Metal_Only>
0

> <s_lp_Force_Field>
OPLS_2005

> <r_lp_Energy>
52.4668

> <b_lp_Chiralities_Consistent>
1

> <s_lp_Variant>
AV-unprocessed.smi:243-15

> <Gold.Version>
5.8.1

> <Gold.Id.Protein>
6NUR|6NUR_protein|mol2

> <Gold.PLP.Fitness>
41.7148

> <Gold.PLP.PLP>
-35.5823

> <Gold.PLP.part.hbond>
-3.9624

> <Gold.PLP.part.metal>
0.0000

> <Gold.PLP.part.buried>
-3.5195

> <Gold.PLP.part.nonpolar>
-27.3335

> <Gold.PLP.part.repulsive>
0.0078

> <Gold.PLP.ligand.clash>
0.0000

> <Gold.PLP.ligand.torsion>
1.3817

> <Gold.PLP.Chemscore.Hbond>
2.6661

> <Gold.PLP.Chemscore.CHOScore>
0.0000

> <Gold.PLP.Chemscore.Metal>
0.0000

> <Gold.Chemscore.Hbonds>
donor molecule, donor type, donor heavy atom, donor atom, acceptor molecule, acceptor atom, score
      L1  H     3    58       P1 10747  1.00
      P1  H  6931  6943       L1    23  1.00
      P1  H  6934  6947       L1    23  0.07

> <Gold.PLP.Chemscore.Internal.Correction>
0.8974

> <Gold.Rescore>
     Score         DG    S(hbond)    S(metal)    S(lipo)     H(rot)  DE(clash)    DE(int)     intcor
     15.25     -17.84       2.33        0.00      88.10       2.24       0.07       2.53       ----

> <Gold.Chemscore.Fitness>
15.2489

> <Gold.Chemscore.DG>
-17.8420

> <Gold.Chemscore.ZeroCoef>
-5.4800

> <Gold.Chemscore.Hbond>
2.3304

> <Gold.Chemscore.Metal>
0.0000

> <Gold.Chemscore.Lipo>
88.0997

> <Gold.Chemscore.Internal_Hbond>
0.0000

> <Gold.Chemscore.DEClash>
0.0656

> <Gold.Chemscore.DEInternal>
2.5275

> <Gold.Chemscore.Rot>
2.2379

> <Gold.Chemscore.Internal.Correction>
   9.000000E+99

> <Gold.Chemscore.Hbonds>
donor molecule, donor type, donor heavy atom, donor atom, acceptor molecule, acceptor atom, score
      L1  H     3    58       P1 10747  0.96
      P1  H  6931  6943       L1    23  0.78
      P1  H  6934  6947       L1    23  0.07

> <Gold.Chemscore.Hbond.Weighted>
-7.7834

> <Gold.Chemscore.Metal.Weighted>
-0.0000

> <Gold.Chemscore.Lipo.Weighted>
-10.3077

> <Gold.Chemscore.Internal_Hbond.Weighted>
0.0000

> <Gold.Chemscore.DEClash.Weighted>
0.0656

> <Gold.Chemscore.DEInternal.Weighted>
2.5275

> <Gold.Chemscore.Rot.Weighted>
5.7291

> <Gold.Chemscore.Internal.Correction.Weighted>
   9.000000E+99

> <Gold.Protein.RotatedTorsions>
[ 6907 6896 6895 6894 ] final  131.17 input  -60.11 | X-H torsion
[ 7974 7965 7964 7962 ] final -138.18 input  175.53 | X-H torsion
[ 8008 7997 7996 7995 ] final  -84.63 input   59.86 | X-H torsion
[ 10167 10162 10161 10158 ] final  169.37 input  -65.29 | X-H torsion
[ 10718 10713 10712 10709 ] final  -19.90 input   66.30 | X-H torsion
[ 10763 10752 10751 10750 ] final   -7.80 input  -60.55 | X-H torsion
[ 11005 11000 10999 10996 ] final  -87.04 input  -57.11 | X-H torsion

> <Gold.Protein.ActiveResidues>
 VAL166  LYS551  ARG553  GLY616  TRP617  ASP618  TYR619  PRO620  LYS621  CYS622 
 ASP623  PHE694  ASN695  SER759  ASP760  ASP761  ALA762  ILE779  LEU786  VAL792 
 PHE793  MET794  SER795  GLU796  ALA797  LYS798  CYS799  TRP800  GLU811  SER814 

> <Gold.Protein.RotatedAtoms>
  152.3453  133.6114  159.5905 H   0  0  0  0  0  0  0  0  0  0  0  0  # atno 6907 bound_to 6896
  150.7503  133.9659  159.3539 H   0  0  0  0  0  0  0  0  0  0  0  0  # atno 6908 bound_to 6896
  151.7518  135.0831  160.0383 H   0  0  0  0  0  0  0  0  0  0  0  0  # atno 6909 bound_to 6896
  144.8779  140.6465  143.5224 H   0  0  0  0  0  0  0  0  0  0  0  0  # atno 7974 bound_to 7965
  154.6319  140.0602  156.9742 H   0  0  0  0  0  0  0  0  0  0  0  0  # atno 8008 bound_to 7997
  155.1652  140.3286  155.4385 H   0  0  0  0  0  0  0  0  0  0  0  0  # atno 8009 bound_to 7997
  156.2487  140.1923  156.6757 H   0  0  0  0  0  0  0  0  0  0  0  0  # atno 8010 bound_to 7997
  139.4991  144.3713  151.9722 H   0  0  0  0  0  0  0  0  0  0  0  0  # atno 10167 bound_to 10162
  156.5393  130.4674  149.6507 H   0  0  0  0  0  0  0  0  0  0  0  0  # atno 10718 bound_to 10713
  153.4314  135.7012  153.6228 H   0  0  0  0  0  0  0  0  0  0  0  0  # atno 10763 bound_to 10752
  153.4641  135.3729  155.2355 H   0  0  0  0  0  0  0  0  0  0  0  0  # atno 10764 bound_to 10752
  154.8725  135.4027  154.3698 H   0  0  0  0  0  0  0  0  0  0  0  0  # atno 10765 bound_to 10752
  141.1622  133.7489  156.9250 H   0  0  0  0  0  0  0  0  0  0  0  0  # atno 11005 bound_to 11000
  145.4008  139.1598  143.4179 LP  0  0  0  0  0  0  0  0  0  0  0  0  # atno 17320 bound_to 7965
  146.2975  140.4104  142.8716 LP  0  0  0  0  0  0  0  0  0  0  0  0  # atno 17321 bound_to 7965
  140.3149  144.3495  150.6024 LP  0  0  0  0  0  0  0  0  0  0  0  0  # atno 17342 bound_to 10162
  140.5769  143.2176  151.7499 LP  0  0  0  0  0  0  0  0  0  0  0  0  # atno 17343 bound_to 10162
  156.2986  130.7164  151.2031 LP  0  0  0  0  0  0  0  0  0  0  0  0  # atno 17370 bound_to 10713
  157.7408  131.0512  150.5141 LP  0  0  0  0  0  0  0  0  0  0  0  0  # atno 17371 bound_to 10713
  140.1426  134.9284  157.2486 LP  0  0  0  0  0  0  0  0  0  0  0  0  # atno 17394 bound_to 11000
  140.2819  134.3340  155.7340 LP  0  0  0  0  0  0  0  0  0  0  0  0  # atno 17395 bound_to 11000

$$$$
