AV-unprocessed.smi:309|AV-procd|sdf|2291|dock4
  -GOLD-   2262022193D 1   1.00000     0.00000
 Structure written by MMmdl.
 36 38  0  0  0  0  0  0  0  0  1 V2000
  151.5708  136.6113  154.1673 O   0  0  0  0  0  0  0  0  0  0  0  0
  151.7211  137.8379  154.8504 C   0  0  0  0  0  0  0  0  0  0  0  0
  150.5797  138.7848  154.6087 C   0  0  0  0  0  0  0  0  0  0  0  0
  149.5639  138.4421  153.8143 N   0  0  0  0  0  0  0  0  0  0  0  0
  148.7398  139.5467  153.8724 C   0  0  0  0  0  0  0  0  0  0  0  0
  147.4985  139.7983  153.2452 C   0  0  0  0  0  0  0  0  0  0  0  0
  146.8235  141.0171  153.4614 C   0  0  0  0  0  0  0  0  0  0  0  0
  147.3780  141.9984  154.3080 C   0  0  0  0  0  0  0  0  0  0  0  0
  148.6131  141.7664  154.9434 C   0  0  0  0  0  0  0  0  0  0  0  0
  149.2864  140.5494  154.7211 C   0  0  0  0  0  0  0  0  0  0  0  0
  150.4915  140.0184  155.1772 N   0  0  0  0  0  0  0  0  0  0  0  0
  151.4218  140.6820  156.0884 C   0  0  0  0  0  0  0  0  0  0  0  0
  151.1975  140.3337  157.5794 C   0  0  2  0  0  0  0  0  0  0  0  0
  149.8146  140.1747  157.8331 O   0  0  0  0  0  0  0  0  0  0  0  0
  151.8690  141.3223  158.5327 C   0  0  0  0  0  0  0  0  0  0  0  0
  151.5552  142.6997  158.4555 C   0  0  0  0  0  0  0  0  0  0  0  0
  152.1733  143.6272  159.3148 C   0  0  0  0  0  0  0  0  0  0  0  0
  151.7844  145.3035  159.1965 Cl  0  0  0  0  0  0  0  0  0  0  0  0
  153.1126  143.1873  160.2646 C   0  0  0  0  0  0  0  0  0  0  0  0
  153.4364  141.8207  160.3479 C   0  0  0  0  0  0  0  0  0  0  0  0
  152.8234  140.8882  159.4872 C   0  0  0  0  0  0  0  0  0  0  0  0
  153.2802  139.2257  159.6170 Cl  0  0  0  0  0  0  0  0  0  0  0  0
  151.3303  136.7938  153.2721 H   0  0  0  0  0  0  0  0  0  0  0  0
  151.7857  137.6370  155.9199 H   0  0  0  0  0  0  0  0  0  0  0  0
  152.6740  138.2677  154.5539 H   0  0  0  0  0  0  0  0  0  0  0  0
  147.0646  139.0511  152.5973 H   0  0  0  0  0  0  0  0  0  0  0  0
  145.8755  141.1993  152.9765 H   0  0  0  0  0  0  0  0  0  0  0  0
  146.8550  142.9295  154.4696 H   0  0  0  0  0  0  0  0  0  0  0  0
  149.0393  142.5176  155.5914 H   0  0  0  0  0  0  0  0  0  0  0  0
  152.4328  140.3908  155.8012 H   0  0  0  0  0  0  0  0  0  0  0  0
  151.3871  141.7587  155.9311 H   0  0  0  0  0  0  0  0  0  0  0  0
  151.6219  139.3467  157.7609 H   0  0  0  0  0  0  0  0  0  0  0  0
  149.3333  140.6857  157.2006 H   0  0  0  0  0  0  0  0  0  0  0  0
  150.8458  143.0583  157.7239 H   0  0  0  0  0  0  0  0  0  0  0  0
  153.5898  143.8964  160.9248 H   0  0  0  0  0  0  0  0  0  0  0  0
  154.1640  141.4877  161.0734 H   0  0  0  0  0  0  0  0  0  0  0  0
  1  2  1  0  0  0  0
  1 23  1  0  0  0  0
  2  3  1  0  0  0  0
  2 24  1  0  0  0  0
  2 25  1  0  0  0  0
  3 11  1  0  0  0  0
  3  4  2  0  0  0  0
  4  5  1  0  0  0  0
  5 10  2  0  0  0  0
  5  6  1  0  0  0  0
  6  7  2  0  0  0  0
  6 26  1  0  0  0  0
  7  8  1  0  0  0  0
  7 27  1  0  0  0  0
  8  9  2  0  0  0  0
  8 28  1  0  0  0  0
  9 10  1  0  0  0  0
  9 29  1  0  0  0  0
 10 11  1  0  0  0  0
 11 12  1  0  0  0  0
 12 13  1  0  0  0  0
 12 30  1  0  0  0  0
 12 31  1  0  0  0  0
 13 14  1  0  0  0  0
 13 15  1  0  0  0  0
 13 32  1  0  0  0  0
 14 33  1  0  0  0  0
 15 21  1  0  0  0  0
 15 16  2  0  0  0  0
 16 17  1  0  0  0  0
 16 34  1  0  0  0  0
 17 18  1  0  0  0  0
 17 19  2  0  0  0  0
 19 20  1  0  0  0  0
 19 35  1  0  0  0  0
 20 21  2  0  0  0  0
 20 36  1  0  0  0  0
 21 22  1  0  0  0  0
M  END
> <s_m_source_file>
AV-unprocessed.smi

> <i_m_source_file_index>
309

> <i_lp_mmshare_version>
43012

> <i_f3d_flags>
0

> <s_epik_input>
W2NIXTFbY0hdW2NIXVtjSF1jKGMxMiluKGMobjIpW0NIMl1bT0hdKVtDSDJdW0NASF0oW09IXSljM1tjSF1jKENsKVtjSF1bY0hdYzNDbA==

> <s_epik_cmdline>
J2VwaWtfcHl0aG9uJywgJy1waCcsICc3LjAnLCAnLXRuJywgJzgnLCAnLW1hJywgJzIwMCcsICctbWV0YWxfYmluZGluZycsICctaW1hZScsICc8aW5maWxlLm1hZT4nLCAnLW9tYWUnLCAnPG91dGZpbGUubWFlPic=

> <r_epik_Ionization_Penalty>
0.0634742

> <r_epik_Ionization_Penalty_Charging>
0

> <r_epik_Ionization_Penalty_Neutral>
0.0634742

> <r_epik_State_Penalty>
0.0551572

> <r_epik_Charging_Adjusted_Penalty>
0.0551572

> <i_epik_Tot_Q>
0

> <i_epik_Tot_abs_Q>
0

> <r_epik_Metal_State_Penalty>
5.78034e-05

> <b_epik_Metal_Only>
0

> <s_lp_Force_Field>
OPLS_2005

> <r_lp_Energy>
12.4446

> <b_lp_Chiralities_Consistent>
1

> <s_lp_Variant>
AV-unprocessed.smi:309-1

> <Gold.Version>
5.8.1

> <Gold.Id.Protein>
6NUR|6NUR_protein|mol2

> <Gold.PLP.Fitness>
54.8668

> <Gold.PLP.PLP>
-50.2858

> <Gold.PLP.part.hbond>
-2.0000

> <Gold.PLP.part.metal>
0.0000

> <Gold.PLP.part.buried>
-2.4269

> <Gold.PLP.part.nonpolar>
-48.4434

> <Gold.PLP.part.repulsive>
1.1423

> <Gold.PLP.ligand.clash>
0.0000

> <Gold.PLP.ligand.torsion>
0.6386

> <Gold.PLP.Chemscore.Hbond>
1.9357

> <Gold.PLP.Chemscore.CHOScore>
0.0000

> <Gold.PLP.Chemscore.Metal>
0.0000

> <Gold.Chemscore.Hbonds>
donor molecule, donor type, donor heavy atom, donor atom, acceptor molecule, acceptor atom, score
      L1  H     1    23       P1  7949  0.86
      P1  H 10752 10764       L1     1  1.00

> <Gold.PLP.Chemscore.Internal.Correction>
0.0509

> <Gold.Rescore>
     Score         DG    S(hbond)    S(metal)    S(lipo)     H(rot)  DE(clash)    DE(int)     intcor
     18.62     -19.40       1.39        0.00     136.55       2.62       0.04       0.73       ----

> <Gold.Chemscore.Fitness>
18.6245

> <Gold.Chemscore.DG>
-19.3954

> <Gold.Chemscore.ZeroCoef>
-5.4800

> <Gold.Chemscore.Hbond>
1.3936

> <Gold.Chemscore.Metal>
0.0000

> <Gold.Chemscore.Lipo>
136.5474

> <Gold.Chemscore.Internal_Hbond>
0.0000

> <Gold.Chemscore.DEClash>
0.0378

> <Gold.Chemscore.DEInternal>
0.7331

> <Gold.Chemscore.Rot>
2.6232

> <Gold.Chemscore.Internal.Correction>
   9.000000E+99

> <Gold.Chemscore.Hbonds>
donor molecule, donor type, donor heavy atom, donor atom, acceptor molecule, acceptor atom, score
      L1  H     1    23       P1  7949  0.62
      P1  H 10752 10764       L1     1  0.49

> <Gold.Chemscore.Hbond.Weighted>
-4.6548

> <Gold.Chemscore.Metal.Weighted>
-0.0000

> <Gold.Chemscore.Lipo.Weighted>
-15.9761

> <Gold.Chemscore.Internal_Hbond.Weighted>
0.0000

> <Gold.Chemscore.DEClash.Weighted>
0.0378

> <Gold.Chemscore.DEInternal.Weighted>
0.7331

> <Gold.Chemscore.Rot.Weighted>
6.7154

> <Gold.Chemscore.Internal.Correction.Weighted>
   9.000000E+99

> <Gold.Protein.RotatedTorsions>
[ 6907 6896 6895 6894 ] final   64.41 input  -60.11 | X-H torsion
[ 7974 7965 7964 7962 ] final -122.56 input  175.53 | X-H torsion
[ 8008 7997 7996 7995 ] final   95.02 input   59.86 | X-H torsion
[ 10167 10162 10161 10158 ] final -111.98 input  -65.29 | X-H torsion
[ 10718 10713 10712 10709 ] final  109.35 input   66.30 | X-H torsion
[ 10763 10752 10751 10750 ] final  -90.59 input  -60.55 | X-H torsion
[ 11005 11000 10999 10996 ] final   12.32 input  -57.11 | X-H torsion

> <Gold.Protein.ActiveResidues>
 VAL166  LYS551  ARG553  GLY616  TRP617  ASP618  TYR619  PRO620  LYS621  CYS622 
 ASP623  PHE694  ASN695  SER759  ASP760  ASP761  ALA762  ILE779  LEU786  VAL792 
 PHE793  MET794  SER795  GLU796  ALA797  LYS798  CYS799  TRP800  GLU811  SER814 

> <Gold.Protein.RotatedAtoms>
  152.4330  134.5742  159.9929 H   0  0  0  0  0  0  0  0  0  0  0  0  # atno 6907 bound_to 6896
  151.5860  133.3366  159.3026 H   0  0  0  0  0  0  0  0  0  0  0  0  # atno 6908 bound_to 6896
  150.8224  134.7474  159.6849 H   0  0  0  0  0  0  0  0  0  0  0  0  # atno 6909 bound_to 6896
  145.0281  140.8045  143.4340 H   0  0  0  0  0  0  0  0  0  0  0  0  # atno 7974 bound_to 7965
  156.0643  140.3292  155.7499 H   0  0  0  0  0  0  0  0  0  0  0  0  # atno 8008 bound_to 7997
  155.5406  140.0601  157.2888 H   0  0  0  0  0  0  0  0  0  0  0  0  # atno 8009 bound_to 7997
  154.4497  140.1911  156.0575 H   0  0  0  0  0  0  0  0  0  0  0  0  # atno 8010 bound_to 7997
  140.1277  143.4388  152.1649 H   0  0  0  0  0  0  0  0  0  0  0  0  # atno 10167 bound_to 10162
  157.6545  131.0912  150.6440 H   0  0  0  0  0  0  0  0  0  0  0  0  # atno 10718 bound_to 10713
  154.6673  135.5299  153.8094 H   0  0  0  0  0  0  0  0  0  0  0  0  # atno 10763 bound_to 10752
  153.0479  135.6520  154.0779 H   0  0  0  0  0  0  0  0  0  0  0  0  # atno 10764 bound_to 10752
  154.0681  135.2956  155.3293 H   0  0  0  0  0  0  0  0  0  0  0  0  # atno 10765 bound_to 10752
  140.4933  134.0819  155.7776 H   0  0  0  0  0  0  0  0  0  0  0  0  # atno 11005 bound_to 11000
  145.1806  139.2354  143.5294 LP  0  0  0  0  0  0  0  0  0  0  0  0  # atno 17320 bound_to 7965
  146.3495  140.1579  142.8591 LP  0  0  0  0  0  0  0  0  0  0  0  0  # atno 17321 bound_to 7965
  139.5536  144.7356  151.4361 LP  0  0  0  0  0  0  0  0  0  0  0  0  # atno 17342 bound_to 10162
  140.6835  143.8027  150.7154 LP  0  0  0  0  0  0  0  0  0  0  0  0  # atno 17343 bound_to 10162
  156.6748  130.4550  149.5646 LP  0  0  0  0  0  0  0  0  0  0  0  0  # atno 17370 bound_to 10713
  156.1971  130.6596  151.1127 LP  0  0  0  0  0  0  0  0  0  0  0  0  # atno 17371 bound_to 10713
  141.1473  133.9032  157.2184 LP  0  0  0  0  0  0  0  0  0  0  0  0  # atno 17394 bound_to 11000
  139.9756  135.0115  156.9623 LP  0  0  0  0  0  0  0  0  0  0  0  0  # atno 17395 bound_to 11000

$$$$
