AV-unprocessed.smi:283|AV-procd|sdf|2151|dock4
  -GOLD-   2262021493D 1   1.00000     0.00000
 Structure written by MMmdl.
 48 51  0  0  0  0  0  0  0  0  1 V2000
  145.6213  132.8241  158.7835 C   0  0  0  0  0  0  0  0  0  0  0  0
  146.5682  134.0376  158.7505 C   0  0  2  0  0  0  0  0  0  0  0  0
  147.8017  133.7301  158.0270 N   0  0  0  0  0  0  0  0  0  0  0  0
  148.0181  134.1665  156.7662 C   0  0  0  0  0  0  0  0  0  0  0  0
  149.2323  134.6353  156.3776 N   0  0  0  0  0  0  0  0  0  0  0  0
  149.4148  135.0586  155.1239 C   0  0  0  0  0  0  0  0  0  0  0  0
  148.5367  135.0934  154.1195 N   0  0  0  0  0  0  0  0  0  0  0  0
  147.3160  134.6162  154.4993 C   0  0  0  0  0  0  0  0  0  0  0  0
  146.9816  134.1380  155.7976 C   0  0  0  0  0  0  0  0  0  0  0  0
  145.6543  133.7331  155.8234 N   0  0  0  0  0  0  0  0  0  0  0  0
  145.2322  133.9612  154.6092 C   0  0  0  0  0  0  0  0  0  0  0  0
  146.1661  134.4870  153.7433 N   0  0  0  0  0  0  0  0  0  0  0  0
  145.9506  134.8602  152.3087 C   0  0  1  0  0  0  0  0  0  0  0  0
  145.6368  133.6973  151.5995 O   0  0  0  0  0  0  0  0  0  0  0  0
  144.3296  133.7889  151.0390 C   0  0  2  0  0  0  0  0  0  0  0  0
  144.2206  132.9356  149.7625 C   0  0  0  0  0  0  0  0  0  0  0  0
  142.8674  132.6577  149.4708 O   0  0  0  0  0  0  0  0  0  0  0  0
  144.0862  135.2976  150.8975 C   0  0  2  0  0  0  0  0  0  0  0  0
  144.6553  135.7868  149.6925 O   0  0  0  0  0  0  0  0  0  0  0  0
  144.7838  135.8465  152.1388 C   0  0  2  0  0  0  0  0  0  0  0  0
  145.2002  137.1856  151.9515 O   0  0  0  0  0  0  0  0  0  0  0  0
  146.8306  134.5302  160.1728 C   0  0  0  0  0  0  0  0  0  0  0  0
  146.5844  135.8827  160.5083 C   0  0  0  0  0  0  0  0  0  0  0  0
  146.8288  136.3562  161.8111 C   0  0  0  0  0  0  0  0  0  0  0  0
  147.3288  135.4834  162.7938 C   0  0  0  0  0  0  0  0  0  0  0  0
  147.5892  134.1396  162.4693 C   0  0  0  0  0  0  0  0  0  0  0  0
  147.3473  133.6597  161.1662 C   0  0  0  0  0  0  0  0  0  0  0  0
  147.7041  132.0027  160.8227 Cl  0  0  0  0  0  0  0  0  0  0  0  0
  146.9088  135.2507  151.9634 H   0  0  0  0  0  0  0  0  0  0  0  0
  143.6297  133.3957  151.7759 H   0  0  0  0  0  0  0  0  0  0  0  0
  143.0222  135.5373  150.8943 H   0  0  0  0  0  0  0  0  0  0  0  0
  144.1131  135.7867  152.9961 H   0  0  0  0  0  0  0  0  0  0  0  0
  144.6836  133.0759  159.2797 H   0  0  0  0  0  0  0  0  0  0  0  0
  146.0676  131.9888  159.3240 H   0  0  0  0  0  0  0  0  0  0  0  0
  145.3714  132.4741  157.7822 H   0  0  0  0  0  0  0  0  0  0  0  0
  146.0801  134.8464  158.2081 H   0  0  0  0  0  0  0  0  0  0  0  0
  148.4586  133.1423  158.5197 H   0  0  0  0  0  0  0  0  0  0  0  0
  150.4058  135.4201  154.8922 H   0  0  0  0  0  0  0  0  0  0  0  0
  144.2163  133.7485  154.3087 H   0  0  0  0  0  0  0  0  0  0  0  0
  144.6889  133.4263  148.9090 H   0  0  0  0  0  0  0  0  0  0  0  0
  144.7423  131.9891  149.9057 H   0  0  0  0  0  0  0  0  0  0  0  0
  142.4061  133.4771  149.3731 H   0  0  0  0  0  0  0  0  0  0  0  0
  144.5279  136.7230  149.6621 H   0  0  0  0  0  0  0  0  0  0  0  0
  144.6670  137.5677  151.2707 H   0  0  0  0  0  0  0  0  0  0  0  0
  146.2097  136.5725  159.7665 H   0  0  0  0  0  0  0  0  0  0  0  0
  146.6347  137.3903  162.0551 H   0  0  0  0  0  0  0  0  0  0  0  0
  147.5175  135.8455  163.7936 H   0  0  0  0  0  0  0  0  0  0  0  0
  147.9808  133.4742  163.2244 H   0  0  0  0  0  0  0  0  0  0  0  0
  1  2  1  0  0  0  0
  1 33  1  0  0  0  0
  1 34  1  0  0  0  0
  1 35  1  0  0  0  0
  2  3  1  0  0  0  0
  2 22  1  0  0  0  0
  2 36  1  0  0  0  0
  3  4  1  0  0  0  0
  3 37  1  0  0  0  0
  4  9  1  0  0  0  0
  4  5  2  0  0  0  0
  5  6  1  0  0  0  0
  6  7  2  0  0  0  0
  6 38  1  0  0  0  0
  7  8  1  0  0  0  0
  8 12  1  0  0  0  0
  8  9  2  0  0  0  0
  9 10  1  0  0  0  0
 10 11  2  0  0  0  0
 11 12  1  0  0  0  0
 11 39  1  0  0  0  0
 12 13  1  0  0  0  0
 13 29  1  0  0  0  0
 13 20  1  0  0  0  0
 13 14  1  0  0  0  0
 14 15  1  0  0  0  0
 15 30  1  0  0  0  0
 15 16  1  0  0  0  0
 15 18  1  0  0  0  0
 16 17  1  0  0  0  0
 16 40  1  0  0  0  0
 16 41  1  0  0  0  0
 17 42  1  0  0  0  0
 18 31  1  0  0  0  0
 18 19  1  0  0  0  0
 18 20  1  0  0  0  0
 19 43  1  0  0  0  0
 20 32  1  0  0  0  0
 20 21  1  0  0  0  0
 21 44  1  0  0  0  0
 22 27  1  0  0  0  0
 22 23  2  0  0  0  0
 23 24  1  0  0  0  0
 23 45  1  0  0  0  0
 24 25  2  0  0  0  0
 24 46  1  0  0  0  0
 25 26  1  0  0  0  0
 25 47  1  0  0  0  0
 26 27  2  0  0  0  0
 26 48  1  0  0  0  0
 27 28  1  0  0  0  0
M  END
> <s_m_source_file>
AV-unprocessed.smi

> <i_m_source_file_index>
283

> <i_lp_mmshare_version>
43012

> <i_f3d_flags>
0

> <s_epik_input>
Q2xjMVtjSF1bY0hdW2NIXVtjSF1jMVtDQEhdKFtDSDNdKVtOSF1jKG5bY0hdbjIpYyhjMjMpbltjSF1uM1tDQEBIXTRPW0NASF0oW0NIMl1bT0hdKVtDQEBIXShbT0hdKVtDQEhdNFtPSF0=

> <s_epik_cmdline>
J2VwaWtfcHl0aG9uJywgJy1waCcsICc3LjAnLCAnLXRuJywgJzgnLCAnLW1hJywgJzIwMCcsICctbWV0YWxfYmluZGluZycsICctaW1hZScsICc8aW5maWxlLm1hZT4nLCAnLW9tYWUnLCAnPG91dGZpbGUubWFlPic=

> <r_lp_tautomer_probability>
1

> <r_epik_Ionization_Penalty>
0.000266407

> <r_epik_Ionization_Penalty_Charging>
0

> <r_epik_Ionization_Penalty_Neutral>
0.000266407

> <r_epik_State_Penalty>
-0

> <r_epik_Charging_Adjusted_Penalty>
0

> <i_epik_Tot_Q>
0

> <i_epik_Tot_abs_Q>
0

> <r_epik_Metal_State_Penalty>
-0

> <b_epik_Metal_Only>
0

> <s_epik_Chemistry_Notes>
This compound contains an acetal/aminal-like group ( X-CH(R)-Y where X, Y are N, S, or O) that may be acid/base labile, releasing an aldehyde.

> <s_lp_Force_Field>
OPLS_2005

> <r_lp_Energy>
49.1948

> <b_lp_Chiralities_Consistent>
1

> <s_lp_Variant>
AV-unprocessed.smi:283-27

> <Gold.Version>
5.8.1

> <Gold.Id.Protein>
6NUR|6NUR_protein|mol2

> <Gold.PLP.Fitness>
46.7530

> <Gold.PLP.PLP>
-36.2855

> <Gold.PLP.part.hbond>
-4.8967

> <Gold.PLP.part.metal>
0.0000

> <Gold.PLP.part.buried>
-8.1505

> <Gold.PLP.part.nonpolar>
-27.1374

> <Gold.PLP.part.repulsive>
3.7342

> <Gold.PLP.ligand.clash>
0.0000

> <Gold.PLP.ligand.torsion>
0.8323

> <Gold.PLP.Chemscore.Hbond>
2.9913

> <Gold.PLP.Chemscore.CHOScore>
0.9962

> <Gold.PLP.Chemscore.Metal>
0.0000

> <Gold.Chemscore.Hbonds>
donor molecule, donor type, donor heavy atom, donor atom, acceptor molecule, acceptor atom, score
      L1  H    17    42       P1 10186  1.00
      L1  H    19    43       P1 10171  1.00
      L1  H    21    44       P1 10171  1.00
      L1  C    11    39       P1 10957  0.92

> <Gold.PLP.Chemscore.Internal.Correction>
0.1698

> <Gold.Rescore>
     Score         DG    S(hbond)    S(metal)    S(lipo)     H(rot)  DE(clash)    DE(int)     intcor
     11.77     -14.30       3.09        0.00      76.88       4.10       1.61       0.92       ----

> <Gold.Chemscore.Fitness>
11.7680

> <Gold.Chemscore.DG>
-14.2990

> <Gold.Chemscore.ZeroCoef>
-5.4800

> <Gold.Chemscore.Hbond>
3.0874

> <Gold.Chemscore.Metal>
0.0000

> <Gold.Chemscore.Lipo>
76.8808

> <Gold.Chemscore.Internal_Hbond>
0.0000

> <Gold.Chemscore.DEClash>
1.6115

> <Gold.Chemscore.DEInternal>
0.9195

> <Gold.Chemscore.Rot>
4.0968

> <Gold.Chemscore.Internal.Correction>
   9.000000E+99

> <Gold.Chemscore.Hbonds>
donor molecule, donor type, donor heavy atom, donor atom, acceptor molecule, acceptor atom, score
      L1  H    17    42       P1 10186  0.95
      L1  H    19    43       P1 10171  0.99
      L1  H    21    44       P1 10171  0.99

> <Gold.Chemscore.Hbond.Weighted>
-10.3119

> <Gold.Chemscore.Metal.Weighted>
-0.0000

> <Gold.Chemscore.Lipo.Weighted>
-8.9950

> <Gold.Chemscore.Internal_Hbond.Weighted>
0.0000

> <Gold.Chemscore.DEClash.Weighted>
1.6115

> <Gold.Chemscore.DEInternal.Weighted>
0.9195

> <Gold.Chemscore.Rot.Weighted>
10.4879

> <Gold.Chemscore.Internal.Correction.Weighted>
   9.000000E+99

> <Gold.Protein.RotatedTorsions>
[ 6907 6896 6895 6894 ] final   52.37 input  -60.11 | X-H torsion
[ 7974 7965 7964 7962 ] final   88.32 input  175.53 | X-H torsion
[ 8008 7997 7996 7995 ] final  103.23 input   59.86 | X-H torsion
[ 10167 10162 10161 10158 ] final -108.45 input  -65.29 | X-H torsion
[ 10718 10713 10712 10709 ] final    1.63 input   66.30 | X-H torsion
[ 10763 10752 10751 10750 ] final -173.79 input  -60.55 | X-H torsion
[ 11005 11000 10999 10996 ] final  130.73 input  -57.11 | X-H torsion

> <Gold.Protein.ActiveResidues>
 VAL166  LYS551  ARG553  GLY616  TRP617  ASP618  TYR619  PRO620  LYS621  CYS622 
 ASP623  PHE694  ASN695  SER759  ASP760  ASP761  ALA762  ILE779  LEU786  VAL792 
 PHE793  MET794  SER795  GLU796  ALA797  LYS798  CYS799  TRP800  GLU811  SER814 

> <Gold.Protein.RotatedAtoms>
  152.3226  134.7361  160.0309 H   0  0  0  0  0  0  0  0  0  0  0  0  # atno 6907 bound_to 6896
  151.7805  133.3344  159.3478 H   0  0  0  0  0  0  0  0  0  0  0  0  # atno 6908 bound_to 6896
  150.7378  134.5866  159.6010 H   0  0  0  0  0  0  0  0  0  0  0  0  # atno 6909 bound_to 6896
  145.5472  139.2293  143.2533 H   0  0  0  0  0  0  0  0  0  0  0  0  # atno 7974 bound_to 7965
  156.1465  140.3168  155.8579 H   0  0  0  0  0  0  0  0  0  0  0  0  # atno 8008 bound_to 7997
  155.4054  140.0502  157.3051 H   0  0  0  0  0  0  0  0  0  0  0  0  # atno 8009 bound_to 7997
  154.5021  140.2133  155.9338 H   0  0  0  0  0  0  0  0  0  0  0  0  # atno 8010 bound_to 7997
  140.1660  143.4082  152.1390 H   0  0  0  0  0  0  0  0  0  0  0  0  # atno 10167 bound_to 10162
  156.8510  130.5554  149.5670 H   0  0  0  0  0  0  0  0  0  0  0  0  # atno 10718 bound_to 10713
  154.6038  135.2857  155.0507 H   0  0  0  0  0  0  0  0  0  0  0  0  # atno 10763 bound_to 10752
  154.1762  135.6464  153.5026 H   0  0  0  0  0  0  0  0  0  0  0  0  # atno 10764 bound_to 10752
  153.0167  135.5412  154.6766 H   0  0  0  0  0  0  0  0  0  0  0  0  # atno 10765 bound_to 10752
  139.9689  134.9583  156.9335 H   0  0  0  0  0  0  0  0  0  0  0  0  # atno 11005 bound_to 11000
  146.1941  140.6294  142.9132 LP  0  0  0  0  0  0  0  0  0  0  0  0  # atno 17320 bound_to 7965
  144.7547  140.5279  143.6777 LP  0  0  0  0  0  0  0  0  0  0  0  0  # atno 17321 bound_to 7965
  139.5359  144.7209  151.4894 LP  0  0  0  0  0  0  0  0  0  0  0  0  # atno 17342 bound_to 10162
  140.6613  143.8493  150.6891 LP  0  0  0  0  0  0  0  0  0  0  0  0  # atno 17343 bound_to 10162
  156.0828  130.5834  150.9594 LP  0  0  0  0  0  0  0  0  0  0  0  0  # atno 17370 bound_to 10713
  157.6303  131.0921  150.8454 LP  0  0  0  0  0  0  0  0  0  0  0  0  # atno 17371 bound_to 10713
  140.5337  134.0788  155.7322 LP  0  0  0  0  0  0  0  0  0  0  0  0  # atno 17394 bound_to 11000
  141.1368  133.9207  157.2415 LP  0  0  0  0  0  0  0  0  0  0  0  0  # atno 17395 bound_to 11000

$$$$
