AV-unprocessed.smi:1915|AV-procd|sdf|7762|dock7
  -GOLD-   22720 9503D 1   1.00000     0.00000
 Structure written by MMmdl.
 45 46  0  0  0  0  0  0  0  0  2 V2000
  147.9068  141.6462  154.1086 C   0  0  0  0  0  0  0  0  0  0  0  0
  146.9084  140.4871  153.9484 C   0  0  0  0  0  0  0  0  0  0  0  0
  146.1910  140.2051  155.2763 C   0  0  0  0  0  0  0  0  0  0  0  0
  147.5485  139.1952  153.3925 C   0  0  0  0  0  0  0  0  0  0  0  0
  148.6352  138.6955  154.2326 N   0  0  0  0  0  0  0  0  0  0  0  0
  150.0155  138.7988  153.7914 C   0  0  0  0  0  0  0  0  0  0  0  0
  150.8637  138.4462  155.0299 C   0  0  1  0  0  0  0  0  0  0  0  0
  151.4548  139.7020  155.6912 C   0  0  0  0  0  0  0  0  0  0  0  0
  152.6690  139.7905  155.8790 O   0  0  0  0  0  0  0  0  0  0  0  0
  150.5845  140.6545  156.0624 N   0  0  0  0  0  0  0  0  0  0  0  0
  150.9374  141.9168  156.7095 C   0  0  0  0  0  0  0  0  0  0  0  0
  151.6123  141.7320  158.0851 C   0  0  0  0  0  0  0  0  0  0  0  0
  151.6649  142.9974  158.9247 C   0  0  0  0  0  0  0  0  0  0  0  0
  152.0783  142.9814  160.2744 C   0  0  0  0  0  0  0  0  0  0  0  0
  152.0573  144.1811  161.0163 C   0  0  0  0  0  0  0  0  0  0  0  0
  151.6277  145.3708  160.3931 C   0  0  0  0  0  0  0  0  0  0  0  0
  151.2305  145.3310  159.0412 C   0  0  0  0  0  0  0  0  0  0  0  0
  151.2609  144.1615  158.3654 N   0  3  0  0  0  0  0  0  0  0  0  0
  149.8872  137.7102  155.9697 C   0  0  0  0  0  0  0  0  0  0  0  0
  148.5184  138.0418  155.3950 C   0  0  0  0  0  0  0  0  0  0  0  0
  147.4675  137.7536  155.9650 O   0  0  0  0  0  0  0  0  0  0  0  0
  148.7354  141.3675  154.7604 H   0  0  0  0  0  0  0  0  0  0  0  0
  147.4232  142.5225  154.5408 H   0  0  0  0  0  0  0  0  0  0  0  0
  148.3232  141.9539  153.1495 H   0  0  0  0  0  0  0  0  0  0  0  0
  146.1482  140.8115  153.2382 H   0  0  0  0  0  0  0  0  0  0  0  0
  146.8933  139.8795  156.0444 H   0  0  0  0  0  0  0  0  0  0  0  0
  145.4397  139.4236  155.1598 H   0  0  0  0  0  0  0  0  0  0  0  0
  145.6823  141.0959  155.6464 H   0  0  0  0  0  0  0  0  0  0  0  0
  146.7861  138.4234  153.2723 H   0  0  0  0  0  0  0  0  0  0  0  0
  147.9450  139.3806  152.3933 H   0  0  0  0  0  0  0  0  0  0  0  0
  150.1902  138.0837  152.9865 H   0  0  0  0  0  0  0  0  0  0  0  0
  150.2263  139.7944  153.3987 H   0  0  0  0  0  0  0  0  0  0  0  0
  151.6784  137.7791  154.7434 H   0  0  0  0  0  0  0  0  0  0  0  0
  149.6050  140.5008  155.8692 H   0  0  0  0  0  0  0  0  0  0  0  0
  151.5779  142.5107  156.0551 H   0  0  0  0  0  0  0  0  0  0  0  0
  150.0205  142.4930  156.8343 H   0  0  0  0  0  0  0  0  0  0  0  0
  151.0799  140.9654  158.6490 H   0  0  0  0  0  0  0  0  0  0  0  0
  152.6264  141.3536  157.9480 H   0  0  0  0  0  0  0  0  0  0  0  0
  152.3931  142.0595  160.7412 H   0  0  0  0  0  0  0  0  0  0  0  0
  152.3624  144.1872  162.0525 H   0  0  0  0  0  0  0  0  0  0  0  0
  151.5994  146.2989  160.9451 H   0  0  0  0  0  0  0  0  0  0  0  0
  150.8831  146.1907  158.4872 H   0  0  0  0  0  0  0  0  0  0  0  0
  150.0430  136.6317  155.9303 H   0  0  0  0  0  0  0  0  0  0  0  0
  149.9576  138.0221  157.0131 H   0  0  0  0  0  0  0  0  0  0  0  0
  150.9580  144.1541  157.3913 H   0  0  0  0  0  0  0  0  0  0  0  0
  1  2  1  0  0  0  0
  1 22  1  0  0  0  0
  1 23  1  0  0  0  0
  1 24  1  0  0  0  0
  2  3  1  0  0  0  0
  2  4  1  0  0  0  0
  2 25  1  0  0  0  0
  3 26  1  0  0  0  0
  3 27  1  0  0  0  0
  3 28  1  0  0  0  0
  4  5  1  0  0  0  0
  4 29  1  0  0  0  0
  4 30  1  0  0  0  0
  5 20  1  0  0  0  0
  5  6  1  0  0  0  0
  6  7  1  0  0  0  0
  6 31  1  0  0  0  0
  6 32  1  0  0  0  0
  7  8  1  0  0  0  0
  7 19  1  0  0  0  0
  7 33  1  0  0  0  0
  8  9  2  0  0  0  0
  8 10  1  0  0  0  0
 10 11  1  0  0  0  0
 10 34  1  0  0  0  0
 11 12  1  0  0  0  0
 11 35  1  0  0  0  0
 11 36  1  0  0  0  0
 12 13  1  0  0  0  0
 12 37  1  0  0  0  0
 12 38  1  0  0  0  0
 13 18  1  0  0  0  0
 13 14  2  0  0  0  0
 14 15  1  0  0  0  0
 14 39  1  0  0  0  0
 15 16  2  0  0  0  0
 15 40  1  0  0  0  0
 16 17  1  0  0  0  0
 16 41  1  0  0  0  0
 17 18  2  0  0  0  0
 17 42  1  0  0  0  0
 18 45  1  0  0  0  0
 19 20  1  0  0  0  0
 19 43  1  0  0  0  0
 19 44  1  0  0  0  0
 20 21  2  0  0  0  0
M  CHG  1  18   1
M  END
> <s_m_source_file>
AV-unprocessed.smi

> <i_m_source_file_index>
1915

> <i_lp_mmshare_version>
43012

> <i_f3d_flags>
0

> <s_epik_input>
W0NIM11bQ0hdKFtDSDNdKVtDSDJdTjFbQ0gyXVtDQEhdKFtDSDJdQzE9TylDKD1PKVtOSF1bQ0gyXVtDSDJdYzJbY0hdW2NIXVtjSF1bY0hdbjI=

> <s_epik_cmdline>
J2VwaWtfcHl0aG9uJywgJy1waCcsICc3LjAnLCAnLXRuJywgJzgnLCAnLW1hJywgJzIwMCcsICctbWV0YWxfYmluZGluZycsICctaW1hZScsICc8aW5maWxlLm1hZT4nLCAnLW9tYWUnLCAnPG91dGZpbGUubWFlPic=

> <r_epik_Ionization_Penalty>
1.88249

> <r_epik_Ionization_Penalty_Charging>
1.88249

> <r_epik_Ionization_Penalty_Neutral>
3.64574e-08

> <r_epik_State_Penalty>
2.00238

> <r_epik_Charging_Adjusted_Penalty>
3.88487

> <i_epik_Tot_Q>
1

> <i_epik_Tot_abs_Q>
1

> <r_epik_Metal_State_Penalty>
2.02676

> <b_epik_Metal_Only>
0

> <s_lp_Force_Field>
OPLS_2005

> <r_lp_Energy>
19.4357

> <b_lp_Chiralities_Consistent>
1

> <s_lp_Variant>
AV-unprocessed.smi:1915-3

> <Gold.Version>
5.8.1

> <Gold.Id.Protein>
6NUR|6NUR_protein|mol2

> <Gold.PLP.Fitness>
43.1750

> <Gold.PLP.PLP>
-40.6669

> <Gold.PLP.part.hbond>
-1.0000

> <Gold.PLP.part.metal>
0.0000

> <Gold.PLP.part.buried>
-3.9527

> <Gold.PLP.part.nonpolar>
-36.2401

> <Gold.PLP.part.repulsive>
0.1464

> <Gold.PLP.ligand.clash>
0.0000

> <Gold.PLP.ligand.torsion>
0.3184

> <Gold.PLP.Chemscore.Hbond>
1.0000

> <Gold.PLP.Chemscore.CHOScore>
0.0000

> <Gold.PLP.Chemscore.Metal>
0.0000

> <Gold.Chemscore.Hbonds>
donor molecule, donor type, donor heavy atom, donor atom, acceptor molecule, acceptor atom, score
      P1  H  7997  8010       L1     9  1.00

> <Gold.PLP.Chemscore.Internal.Correction>
0.1449

> <Gold.Rescore>
     Score         DG    S(hbond)    S(metal)    S(lipo)     H(rot)  DE(clash)    DE(int)     intcor
     15.67     -17.35       1.00        0.00     113.76       1.86       0.11       1.57       ----

> <Gold.Chemscore.Fitness>
15.6652

> <Gold.Chemscore.DG>
-17.3521

> <Gold.Chemscore.ZeroCoef>
-5.4800

> <Gold.Chemscore.Hbond>
0.9979

> <Gold.Chemscore.Metal>
0.0000

> <Gold.Chemscore.Lipo>
113.7643

> <Gold.Chemscore.Internal_Hbond>
0.0000

> <Gold.Chemscore.DEClash>
0.1140

> <Gold.Chemscore.DEInternal>
1.5729

> <Gold.Chemscore.Rot>
1.8638

> <Gold.Chemscore.Internal.Correction>
   9.000000E+99

> <Gold.Chemscore.Hbonds>
donor molecule, donor type, donor heavy atom, donor atom, acceptor molecule, acceptor atom, score
      P1  H  7997  8010       L1     9  1.00

> <Gold.Chemscore.Hbond.Weighted>
-3.3330

> <Gold.Chemscore.Metal.Weighted>
-0.0000

> <Gold.Chemscore.Lipo.Weighted>
-13.3104

> <Gold.Chemscore.Internal_Hbond.Weighted>
0.0000

> <Gold.Chemscore.DEClash.Weighted>
0.1140

> <Gold.Chemscore.DEInternal.Weighted>
1.5729

> <Gold.Chemscore.Rot.Weighted>
4.7713

> <Gold.Chemscore.Internal.Correction.Weighted>
   9.000000E+99

> <Gold.Protein.RotatedTorsions>
[ 6907 6896 6895 6894 ] final   19.67 input  -60.11 | X-H torsion
[ 7974 7965 7964 7962 ] final   51.54 input  175.53 | X-H torsion
[ 8008 7997 7996 7995 ] final   74.64 input   59.86 | X-H torsion
[ 10167 10162 10161 10158 ] final  -95.67 input  -65.29 | X-H torsion
[ 10718 10713 10712 10709 ] final   66.81 input   66.30 | X-H torsion
[ 10763 10752 10751 10750 ] final  -14.54 input  -60.55 | X-H torsion
[ 11005 11000 10999 10996 ] final  147.84 input  -57.11 | X-H torsion

> <Gold.Protein.ActiveResidues>
 VAL166  LYS551  ARG553  GLY616  TRP617  ASP618  TYR619  PRO620  LYS621  CYS622 
 ASP623  PHE694  ASN695  SER759  ASP760  ASP761  ALA762  ILE779  LEU786  VAL792 
 PHE793  MET794  SER795  GLU796  ALA797  LYS798  CYS799  TRP800  GLU811  SER814 

> <Gold.Protein.RotatedAtoms>
  151.8844  135.0441  160.0491 H   0  0  0  0  0  0  0  0  0  0  0  0  # atno 6907 bound_to 6896
  152.2486  133.5191  159.5320 H   0  0  0  0  0  0  0  0  0  0  0  0  # atno 6908 bound_to 6896
  150.7076  134.0907  159.3973 H   0  0  0  0  0  0  0  0  0  0  0  0  # atno 6909 bound_to 6896
  145.9903  139.4332  143.0077 H   0  0  0  0  0  0  0  0  0  0  0  0  # atno 7974 bound_to 7965
  155.8013  140.3476  155.5404 H   0  0  0  0  0  0  0  0  0  0  0  0  # atno 8008 bound_to 7997
  155.8535  140.0960  157.1680 H   0  0  0  0  0  0  0  0  0  0  0  0  # atno 8009 bound_to 7997
  154.4008  140.1372  156.3860 H   0  0  0  0  0  0  0  0  0  0  0  0  # atno 8010 bound_to 7997
  140.3017  143.3158  152.0241 H   0  0  0  0  0  0  0  0  0  0  0  0  # atno 10167 bound_to 10162
  157.6192  130.9288  150.0159 H   0  0  0  0  0  0  0  0  0  0  0  0  # atno 10718 bound_to 10713
  153.5298  135.7015  153.5689 H   0  0  0  0  0  0  0  0  0  0  0  0  # atno 10763 bound_to 10752
  153.3702  135.3947  155.1783 H   0  0  0  0  0  0  0  0  0  0  0  0  # atno 10764 bound_to 10752
  154.8686  135.3810  154.4793 H   0  0  0  0  0  0  0  0  0  0  0  0  # atno 10765 bound_to 10752
  140.0910  134.9041  157.1650 H   0  0  0  0  0  0  0  0  0  0  0  0  # atno 11005 bound_to 11000
  145.7639  140.9924  143.1185 LP  0  0  0  0  0  0  0  0  0  0  0  0  # atno 17320 bound_to 7965
  144.6887  139.9364  143.7473 LP  0  0  0  0  0  0  0  0  0  0  0  0  # atno 17321 bound_to 7965
  139.4913  144.6451  151.6796 LP  0  0  0  0  0  0  0  0  0  0  0  0  # atno 17342 bound_to 10162
  140.5645  144.0213  150.6186 LP  0  0  0  0  0  0  0  0  0  0  0  0  # atno 17343 bound_to 10162
  156.1329  130.3643  149.9703 LP  0  0  0  0  0  0  0  0  0  0  0  0  # atno 17370 bound_to 10713
  156.7760  130.9204  151.3645 LP  0  0  0  0  0  0  0  0  0  0  0  0  # atno 17371 bound_to 10713
  140.3353  134.2765  155.7221 LP  0  0  0  0  0  0  0  0  0  0  0  0  # atno 17394 bound_to 11000
  141.2078  133.7796  157.0099 LP  0  0  0  0  0  0  0  0  0  0  0  0  # atno 17395 bound_to 11000

$$$$
