AV-unprocessed.smi:1677|AV-procd|sdf|6725|dock7
  -GOLD-   22720 7473D 1   1.00000     0.00000
 Structure written by MMmdl.
 36 37  0  0  0  0  0  0  0  0  1 V2000
  149.3833  138.5210  156.7345 C   0  0  0  0  0  0  0  0  0  0  0  0
  150.5591  139.3738  156.2301 C   0  0  1  0  0  0  0  0  0  0  0  0
  150.4233  139.7803  154.7465 C   0  0  0  0  0  0  0  0  0  0  0  0
  149.1182  140.3303  154.4327 N   0  0  0  0  0  0  0  0  0  0  0  0
  148.0106  139.6366  153.9635 C   0  0  0  0  0  0  0  0  0  0  0  0
  147.0033  140.5623  153.8101 C   0  0  0  0  0  0  0  0  0  0  0  0
  147.4677  141.8250  154.1707 N   0  0  0  0  0  0  0  0  0  0  0  0
  148.7280  141.6094  154.5247 C   0  0  0  0  0  0  0  0  0  0  0  0
  150.6782  140.5639  157.0673 N   0  0  0  0  0  0  0  0  0  0  0  0
  151.7413  140.8838  157.8221 C   0  0  0  0  0  0  0  0  0  0  0  0
  152.7582  140.1921  157.8836 O   0  0  0  0  0  0  0  0  0  0  0  0
  151.6388  142.1834  158.6320 C   0  0  2  0  0  0  0  0  0  0  0  0
  151.5601  143.4192  157.7057 C   0  0  0  0  0  0  0  0  0  0  0  0
  151.7138  144.7208  158.4731 C   0  0  0  0  0  0  0  0  0  0  0  0
  152.1988  144.7881  159.7250 C   0  0  0  0  0  0  0  0  0  0  0  0
  152.6522  143.5712  160.5119 C   0  0  0  0  0  0  0  0  0  0  0  0
  152.8141  142.3256  159.6199 C   0  0  0  0  0  0  0  0  0  0  0  0
  149.3162  137.5740  156.1986 H   0  0  0  0  0  0  0  0  0  0  0  0
  148.4340  139.0428  156.6096 H   0  0  0  0  0  0  0  0  0  0  0  0
  149.4969  138.2843  157.7928 H   0  0  0  0  0  0  0  0  0  0  0  0
  151.4654  138.7758  156.3448 H   0  0  0  0  0  0  0  0  0  0  0  0
  151.1830  140.5188  154.4855 H   0  0  0  0  0  0  0  0  0  0  0  0
  150.5896  138.9194  154.0977 H   0  0  0  0  0  0  0  0  0  0  0  0
  148.0308  138.5713  153.7860 H   0  0  0  0  0  0  0  0  0  0  0  0
  145.9886  140.4179  153.4689 H   0  0  0  0  0  0  0  0  0  0  0  0
  149.3803  142.4003  154.8650 H   0  0  0  0  0  0  0  0  0  0  0  0
  149.8873  141.1914  157.0783 H   0  0  0  0  0  0  0  0  0  0  0  0
  150.7189  142.1454  159.2191 H   0  0  0  0  0  0  0  0  0  0  0  0
  152.3340  143.3910  156.9374 H   0  0  0  0  0  0  0  0  0  0  0  0
  150.6000  143.4322  157.1885 H   0  0  0  0  0  0  0  0  0  0  0  0
  151.4239  145.6263  157.9605 H   0  0  0  0  0  0  0  0  0  0  0  0
  152.2711  145.7441  160.2224 H   0  0  0  0  0  0  0  0  0  0  0  0
  153.5953  143.7956  161.0106 H   0  0  0  0  0  0  0  0  0  0  0  0
  151.9162  143.3815  161.2937 H   0  0  0  0  0  0  0  0  0  0  0  0
  152.9041  141.4371  160.2461 H   0  0  0  0  0  0  0  0  0  0  0  0
  153.7498  142.4048  159.0639 H   0  0  0  0  0  0  0  0  0  0  0  0
  1  2  1  0  0  0  0
  1 18  1  0  0  0  0
  1 19  1  0  0  0  0
  1 20  1  0  0  0  0
  2  3  1  0  0  0  0
  2  9  1  0  0  0  0
  2 21  1  0  0  0  0
  3  4  1  0  0  0  0
  3 22  1  0  0  0  0
  3 23  1  0  0  0  0
  4  8  1  0  0  0  0
  4  5  1  0  0  0  0
  5  6  2  0  0  0  0
  5 24  1  0  0  0  0
  6  7  1  0  0  0  0
  6 25  1  0  0  0  0
  7  8  2  0  0  0  0
  8 26  1  0  0  0  0
  9 10  1  0  0  0  0
  9 27  1  0  0  0  0
 10 11  2  0  0  0  0
 10 12  1  0  0  0  0
 12 17  1  0  0  0  0
 12 13  1  0  0  0  0
 12 28  1  0  0  0  0
 13 14  1  0  0  0  0
 13 29  1  0  0  0  0
 13 30  1  0  0  0  0
 14 15  2  0  0  0  0
 14 31  1  0  0  0  0
 15 16  1  0  0  0  0
 15 32  1  0  0  0  0
 16 17  1  0  0  0  0
 16 33  1  0  0  0  0
 16 34  1  0  0  0  0
 17 35  1  0  0  0  0
 17 36  1  0  0  0  0
M  END
> <s_m_source_file>
AV-unprocessed.smi

> <i_m_source_file_index>
1677

> <i_lp_mmshare_version>
43012

> <i_f3d_flags>
0

> <s_epik_input>
W2NIXTFuW2NIXVtjSF1uMVtDSDJdW0NAQEhdKFtDSDNdKVtOSF1DKD1PKVtDQEBIXTJbQ0gyXVtDSF09W0NIXVtDSDJdW0NIMl0y

> <s_epik_cmdline>
J2VwaWtfcHl0aG9uJywgJy1waCcsICc3LjAnLCAnLXRuJywgJzgnLCAnLW1hJywgJzIwMCcsICctbWV0YWxfYmluZGluZycsICctaW1hZScsICc8aW5maWxlLm1hZT4nLCAnLW9tYWUnLCAnPG91dGZpbGUubWFlPic=

> <r_lp_tautomer_probability>
1

> <r_epik_Ionization_Penalty>
0.640435

> <r_epik_Ionization_Penalty_Charging>
0.640435

> <r_epik_Ionization_Penalty_Neutral>
2.11108e-08

> <r_epik_State_Penalty>
0.658069

> <r_epik_Charging_Adjusted_Penalty>
1.2985

> <i_epik_Tot_Q>
0

> <i_epik_Tot_abs_Q>
0

> <r_epik_Metal_State_Penalty>
0.311689

> <b_epik_Metal_Only>
0

> <s_lp_Force_Field>
OPLS_2005

> <r_lp_Energy>
10.0444

> <b_lp_Chiralities_Consistent>
1

> <s_lp_Variant>
AV-unprocessed.smi:1677-6

> <Gold.Version>
5.8.1

> <Gold.Id.Protein>
6NUR|6NUR_protein|mol2

> <Gold.PLP.Fitness>
45.0658

> <Gold.PLP.PLP>
-37.1428

> <Gold.PLP.part.hbond>
-1.0000

> <Gold.PLP.part.metal>
0.0000

> <Gold.PLP.part.buried>
-1.9152

> <Gold.PLP.part.nonpolar>
-33.6106

> <Gold.PLP.part.repulsive>
0.2007

> <Gold.PLP.ligand.clash>
0.0000

> <Gold.PLP.ligand.torsion>
0.5587

> <Gold.PLP.Chemscore.Hbond>
1.0000

> <Gold.PLP.Chemscore.CHOScore>
2.0000

> <Gold.PLP.Chemscore.Metal>
0.0000

> <Gold.Chemscore.Hbonds>
donor molecule, donor type, donor heavy atom, donor atom, acceptor molecule, acceptor atom, score
      P1  H  7997  8009       L1    11  1.00
      L1  C     6    25       P1 10175  1.00
      L1  C     8    26       P1  8028  1.00

> <Gold.PLP.Chemscore.Internal.Correction>
0.0404

> <Gold.Rescore>
     Score         DG    S(hbond)    S(metal)    S(lipo)     H(rot)  DE(clash)    DE(int)     intcor
     15.20     -15.61       0.97        0.00      97.19       1.75       0.01       0.41       ----

> <Gold.Chemscore.Fitness>
15.1974

> <Gold.Chemscore.DG>
-15.6145

> <Gold.Chemscore.ZeroCoef>
-5.4800

> <Gold.Chemscore.Hbond>
0.9690

> <Gold.Chemscore.Metal>
0.0000

> <Gold.Chemscore.Lipo>
97.1928

> <Gold.Chemscore.Internal_Hbond>
0.0000

> <Gold.Chemscore.DEClash>
0.0115

> <Gold.Chemscore.DEInternal>
0.4055

> <Gold.Chemscore.Rot>
1.7475

> <Gold.Chemscore.Internal.Correction>
   9.000000E+99

> <Gold.Chemscore.Hbonds>
donor molecule, donor type, donor heavy atom, donor atom, acceptor molecule, acceptor atom, score
      P1  H  7997  8009       L1    11  0.91

> <Gold.Chemscore.Hbond.Weighted>
-3.2364

> <Gold.Chemscore.Metal.Weighted>
-0.0000

> <Gold.Chemscore.Lipo.Weighted>
-11.3716

> <Gold.Chemscore.Internal_Hbond.Weighted>
0.0000

> <Gold.Chemscore.DEClash.Weighted>
0.0115

> <Gold.Chemscore.DEInternal.Weighted>
0.4055

> <Gold.Chemscore.Rot.Weighted>
4.4735

> <Gold.Chemscore.Internal.Correction.Weighted>
   9.000000E+99

> <Gold.Protein.RotatedTorsions>
[ 6907 6896 6895 6894 ] final -155.17 input  -60.11 | X-H torsion
[ 7974 7965 7964 7962 ] final -156.31 input  175.53 | X-H torsion
[ 8008 7997 7996 7995 ] final  165.45 input   59.86 | X-H torsion
[ 10167 10162 10161 10158 ] final  -85.43 input  -65.29 | X-H torsion
[ 10718 10713 10712 10709 ] final  167.34 input   66.30 | X-H torsion
[ 10763 10752 10751 10750 ] final  -96.24 input  -60.55 | X-H torsion
[ 11005 11000 10999 10996 ] final   93.72 input  -57.11 | X-H torsion

> <Gold.Protein.ActiveResidues>
 VAL166  LYS551  ARG553  GLY616  TRP617  ASP618  TYR619  PRO620  LYS621  CYS622 
 ASP623  PHE694  ASN695  SER759  ASP760  ASP761  ALA762  ILE779  LEU786  VAL792 
 PHE793  MET794  SER795  GLU796  ALA797  LYS798  CYS799  TRP800  GLU811  SER814 

> <Gold.Protein.RotatedAtoms>
  151.2685  133.4267  159.2619 H   0  0  0  0  0  0  0  0  0  0  0  0  # atno 6907 bound_to 6896
  151.0466  134.9645  159.8200 H   0  0  0  0  0  0  0  0  0  0  0  0  # atno 6908 bound_to 6896
  152.5375  134.2641  159.8999 H   0  0  0  0  0  0  0  0  0  0  0  0  # atno 6909 bound_to 6896
  144.7599  140.4128  143.5984 H   0  0  0  0  0  0  0  0  0  0  0  0  # atno 7974 bound_to 7965
  156.1799  140.1669  156.8293 H   0  0  0  0  0  0  0  0  0  0  0  0  # atno 8008 bound_to 7997
  154.5348  140.0749  156.8442 H   0  0  0  0  0  0  0  0  0  0  0  0  # atno 8009 bound_to 7997
  155.3332  140.3380  155.4241 H   0  0  0  0  0  0  0  0  0  0  0  0  # atno 8010 bound_to 7997
  140.4038  143.2651  151.9108 H   0  0  0  0  0  0  0  0  0  0  0  0  # atno 10167 bound_to 10162
  157.0530  131.0318  151.2674 H   0  0  0  0  0  0  0  0  0  0  0  0  # atno 10718 bound_to 10713
  154.7222  135.5091  153.8829 H   0  0  0  0  0  0  0  0  0  0  0  0  # atno 10763 bound_to 10752
  153.0872  135.6649  153.9934 H   0  0  0  0  0  0  0  0  0  0  0  0  # atno 10764 bound_to 10752
  153.9754  135.3034  155.3403 H   0  0  0  0  0  0  0  0  0  0  0  0  # atno 10765 bound_to 10752
  139.8806  134.8806  156.3759 H   0  0  0  0  0  0  0  0  0  0  0  0  # atno 11005 bound_to 11000
  145.6653  139.1589  143.2785 LP  0  0  0  0  0  0  0  0  0  0  0  0  # atno 17320 bound_to 7965
  146.1651  140.6730  142.9259 LP  0  0  0  0  0  0  0  0  0  0  0  0  # atno 17321 bound_to 7965
  139.4784  144.5607  151.8244 LP  0  0  0  0  0  0  0  0  0  0  0  0  # atno 17342 bound_to 10162
  140.4711  144.1585  150.5918 LP  0  0  0  0  0  0  0  0  0  0  0  0  # atno 17343 bound_to 10162
  157.5015  130.7883  149.7610 LP  0  0  0  0  0  0  0  0  0  0  0  0  # atno 17370 bound_to 10713
  156.0002  130.3885  150.2637 LP  0  0  0  0  0  0  0  0  0  0  0  0  # atno 17371 bound_to 10713
  140.9432  133.7500  156.0174 LP  0  0  0  0  0  0  0  0  0  0  0  0  # atno 17394 bound_to 11000
  140.8194  134.3306  157.5386 LP  0  0  0  0  0  0  0  0  0  0  0  0  # atno 17395 bound_to 11000

$$$$
