AV-unprocessed.smi:3119|AV-procd|sdf|11890|dock4
  -GOLD-   2272017273D 1   1.00000     0.00000
 Structure written by MMmdl.
 31 32  0  0  0  0  0  0  0  0  1 V2000
  150.5492  140.3693  154.9270 O   0  0  0  0  0  0  0  0  0  0  0  0
  149.8039  141.3411  155.0580 C   0  0  0  0  0  0  0  0  0  0  0  0
  150.0099  142.3067  155.9662 N   0  0  0  0  0  0  0  0  0  0  0  0
  151.1233  142.3451  156.9078 C   0  0  0  0  0  0  0  0  0  0  0  0
  151.4045  140.9592  157.5122 C   0  0  0  0  0  0  0  0  0  0  0  0
  152.3343  141.0325  158.7087 C   0  0  0  0  0  0  0  0  0  0  0  0
  152.1656  142.0288  159.6941 C   0  0  0  0  0  0  0  0  0  0  0  0
  153.0607  142.0550  160.7812 C   0  0  0  0  0  0  0  0  0  0  0  0
  154.0848  141.0903  160.8405 C   0  0  0  0  0  0  0  0  0  0  0  0
  154.1692  140.1382  159.8051 C   0  0  0  0  0  0  0  0  0  0  0  0
  153.3170  140.1049  158.7581 N   0  0  0  0  0  0  0  0  0  0  0  0
  148.5661  141.5073  154.1664 C   0  0  0  0  0  0  0  0  0  0  0  0
  147.2954  141.9435  154.9164 C   0  0  0  0  0  0  0  0  0  0  0  0
  146.5118  140.9011  154.1131 C   0  0  0  0  0  0  0  0  0  0  0  0
  147.8393  140.1944  153.8236 C   0  0  0  0  0  0  0  0  0  0  0  0
  149.3495  143.0697  156.0065 H   0  0  0  0  0  0  0  0  0  0  0  0
  152.0145  142.7374  156.4148 H   0  0  0  0  0  0  0  0  0  0  0  0
  150.8726  143.0504  157.7004 H   0  0  0  0  0  0  0  0  0  0  0  0
  150.4682  140.4872  157.8128 H   0  0  0  0  0  0  0  0  0  0  0  0
  151.8509  140.3029  156.7636 H   0  0  0  0  0  0  0  0  0  0  0  0
  151.3713  142.7571  159.6203 H   0  0  0  0  0  0  0  0  0  0  0  0
  152.9639  142.8023  161.5550 H   0  0  0  0  0  0  0  0  0  0  0  0
  154.7889  141.0795  161.6595 H   0  0  0  0  0  0  0  0  0  0  0  0
  154.9420  139.3836  159.8178 H   0  0  0  0  0  0  0  0  0  0  0  0
  148.7463  142.1166  153.2787 H   0  0  0  0  0  0  0  0  0  0  0  0
  147.3082  141.7278  155.9864 H   0  0  0  0  0  0  0  0  0  0  0  0
  146.9904  142.9723  154.7233 H   0  0  0  0  0  0  0  0  0  0  0  0
  145.8028  140.3146  154.6979 H   0  0  0  0  0  0  0  0  0  0  0  0
  146.0517  141.3179  153.2160 H   0  0  0  0  0  0  0  0  0  0  0  0
  147.9533  139.8750  152.7876 H   0  0  0  0  0  0  0  0  0  0  0  0
  148.0379  139.3742  154.5157 H   0  0  0  0  0  0  0  0  0  0  0  0
  1  2  2  0  0  0  0
  2  3  1  0  0  0  0
  2 12  1  0  0  0  0
  3  4  1  0  0  0  0
  3 16  1  0  0  0  0
  4  5  1  0  0  0  0
  4 17  1  0  0  0  0
  4 18  1  0  0  0  0
  5  6  1  0  0  0  0
  5 19  1  0  0  0  0
  5 20  1  0  0  0  0
  6 11  1  0  0  0  0
  6  7  2  0  0  0  0
  7  8  1  0  0  0  0
  7 21  1  0  0  0  0
  8  9  2  0  0  0  0
  8 22  1  0  0  0  0
  9 10  1  0  0  0  0
  9 23  1  0  0  0  0
 10 11  2  0  0  0  0
 10 24  1  0  0  0  0
 12 15  1  0  0  0  0
 12 13  1  0  0  0  0
 12 25  1  0  0  0  0
 13 14  1  0  0  0  0
 13 26  1  0  0  0  0
 13 27  1  0  0  0  0
 14 15  1  0  0  0  0
 14 28  1  0  0  0  0
 14 29  1  0  0  0  0
 15 30  1  0  0  0  0
 15 31  1  0  0  0  0
M  END
> <s_m_source_file>
AV-unprocessed.smi

> <i_m_source_file_index>
3119

> <i_lp_mmshare_version>
43012

> <i_f3d_flags>
0

> <s_epik_input>
W0NIMl0xW0NIMl1bQ0gyXVtDSF0xQyg9TylbTkhdW0NIMl1bQ0gyXWMyW2NIXVtjSF1bY0hdW2NIXW4y

> <s_epik_cmdline>
J2VwaWtfcHl0aG9uJywgJy1waCcsICc3LjAnLCAnLXRuJywgJzgnLCAnLW1hJywgJzIwMCcsICctbWV0YWxfYmluZGluZycsICctaW1hZScsICc8aW5maWxlLm1hZT4nLCAnLW9tYWUnLCAnPG91dGZpbGUubWFlPic=

> <r_epik_Ionization_Penalty>
0.0277532

> <r_epik_Ionization_Penalty_Charging>
0

> <r_epik_Ionization_Penalty_Neutral>
0.0277532

> <r_epik_State_Penalty>
0.022734

> <r_epik_Charging_Adjusted_Penalty>
0.022734

> <i_epik_Tot_Q>
0

> <i_epik_Tot_abs_Q>
0

> <r_epik_Metal_State_Penalty>
0.0217133

> <b_epik_Metal_Only>
0

> <s_lp_Force_Field>
OPLS_2005

> <r_lp_Energy>
9.15138

> <b_lp_Chiralities_Consistent>
1

> <s_lp_Variant>
AV-unprocessed.smi:3119-1

> <Gold.Version>
5.8.1

> <Gold.Id.Protein>
6NUR|6NUR_protein|mol2

> <Gold.PLP.Fitness>
40.8450

> <Gold.PLP.PLP>
-33.2894

> <Gold.PLP.part.hbond>
-3.0000

> <Gold.PLP.part.metal>
0.0000

> <Gold.PLP.part.buried>
-1.5586

> <Gold.PLP.part.nonpolar>
-27.7141

> <Gold.PLP.part.repulsive>
0.2070

> <Gold.PLP.ligand.clash>
0.0000

> <Gold.PLP.ligand.torsion>
0.9146

> <Gold.PLP.Chemscore.Hbond>
2.9920

> <Gold.PLP.Chemscore.CHOScore>
0.0000

> <Gold.PLP.Chemscore.Metal>
0.0000

> <Gold.Chemscore.Hbonds>
donor molecule, donor type, donor heavy atom, donor atom, acceptor molecule, acceptor atom, score
      L1  H     3    16       P1  8028  1.00
      P1  H  7989  7998       L1     1  1.00
      P1  H  7997  8010       L1    11  0.75

> <Gold.PLP.Chemscore.Internal.Correction>
0.4086

> <Gold.Rescore>
     Score         DG    S(hbond)    S(metal)    S(lipo)     H(rot)  DE(clash)    DE(int)     intcor
     16.81     -19.07       2.25        0.00      83.33       1.44       0.03       2.24       ----

> <Gold.Chemscore.Fitness>
16.8083

> <Gold.Chemscore.DG>
-19.0718

> <Gold.Chemscore.ZeroCoef>
-5.4800

> <Gold.Chemscore.Hbond>
2.2526

> <Gold.Chemscore.Metal>
0.0000

> <Gold.Chemscore.Lipo>
83.3342

> <Gold.Chemscore.Internal_Hbond>
0.0000

> <Gold.Chemscore.DEClash>
0.0275

> <Gold.Chemscore.DEInternal>
2.2361

> <Gold.Chemscore.Rot>
1.4383

> <Gold.Chemscore.Internal.Correction>
   9.000000E+99

> <Gold.Chemscore.Hbonds>
donor molecule, donor type, donor heavy atom, donor atom, acceptor molecule, acceptor atom, score
      L1  H     3    16       P1  8028  0.96
      P1  H  7989  7998       L1     1  0.34
      P1  H  7997  8010       L1    11  0.20

> <Gold.Chemscore.Hbond.Weighted>
-7.5237

> <Gold.Chemscore.Metal.Weighted>
-0.0000

> <Gold.Chemscore.Lipo.Weighted>
-9.7501

> <Gold.Chemscore.Internal_Hbond.Weighted>
0.0000

> <Gold.Chemscore.DEClash.Weighted>
0.0275

> <Gold.Chemscore.DEInternal.Weighted>
2.2361

> <Gold.Chemscore.Rot.Weighted>
3.6820

> <Gold.Chemscore.Internal.Correction.Weighted>
   9.000000E+99

> <Gold.Protein.RotatedTorsions>
[ 6907 6896 6895 6894 ] final  -27.96 input  -60.11 | X-H torsion
[ 7974 7965 7964 7962 ] final  101.60 input  175.53 | X-H torsion
[ 8008 7997 7996 7995 ] final   28.03 input   59.86 | X-H torsion
[ 10167 10162 10161 10158 ] final   48.73 input  -65.29 | X-H torsion
[ 10718 10713 10712 10709 ] final  -39.58 input   66.30 | X-H torsion
[ 10763 10752 10751 10750 ] final -140.15 input  -60.55 | X-H torsion
[ 11005 11000 10999 10996 ] final  -75.31 input  -57.11 | X-H torsion

> <Gold.Protein.ActiveResidues>
 VAL166  LYS551  ARG553  GLY616  TRP617  ASP618  TYR619  PRO620  LYS621  CYS622 
 ASP623  PHE694  ASN695  SER759  ASP760  ASP761  ALA762  ILE779  LEU786  VAL792 
 PHE793  MET794  SER795  GLU796  ALA797  LYS798  CYS799  TRP800  GLU811  SER814 

> <Gold.Protein.RotatedAtoms>
  151.1396  135.0172  159.8619 H   0  0  0  0  0  0  0  0  0  0  0  0  # atno 6907 bound_to 6896
  152.5452  134.1515  159.8530 H   0  0  0  0  0  0  0  0  0  0  0  0  # atno 6908 bound_to 6896
  151.1589  133.4812  159.2627 H   0  0  0  0  0  0  0  0  0  0  0  0  # atno 6909 bound_to 6896
  145.3701  139.2400  143.3460 H   0  0  0  0  0  0  0  0  0  0  0  0  # atno 7974 bound_to 7965
  155.0523  140.3181  155.4688 H   0  0  0  0  0  0  0  0  0  0  0  0  # atno 8008 bound_to 7997
  156.2832  140.2144  156.5593 H   0  0  0  0  0  0  0  0  0  0  0  0  # atno 8009 bound_to 7997
  154.7200  140.0490  157.0618 H   0  0  0  0  0  0  0  0  0  0  0  0  # atno 8010 bound_to 7997
  140.2903  144.3054  150.6242 H   0  0  0  0  0  0  0  0  0  0  0  0  # atno 10167 bound_to 10162
  156.2908  130.4228  149.8240 H   0  0  0  0  0  0  0  0  0  0  0  0  # atno 10718 bound_to 10713
  154.8588  135.3562  154.5660 H   0  0  0  0  0  0  0  0  0  0  0  0  # atno 10763 bound_to 10752
  153.6274  135.7003  153.5292 H   0  0  0  0  0  0  0  0  0  0  0  0  # atno 10764 bound_to 10752
  153.3078  135.4187  155.1269 H   0  0  0  0  0  0  0  0  0  0  0  0  # atno 10765 bound_to 10752
  141.1644  133.6942  156.7497 H   0  0  0  0  0  0  0  0  0  0  0  0  # atno 11005 bound_to 11000
  146.2889  140.4351  142.8747 LP  0  0  0  0  0  0  0  0  0  0  0  0  # atno 17320 bound_to 7965
  144.8582  140.7102  143.6124 LP  0  0  0  0  0  0  0  0  0  0  0  0  # atno 17321 bound_to 7965
  140.5738  143.2178  151.7552 LP  0  0  0  0  0  0  0  0  0  0  0  0  # atno 17342 bound_to 10162
  139.4940  144.4179  152.0010 LP  0  0  0  0  0  0  0  0  0  0  0  0  # atno 17343 bound_to 10162
  156.5654  130.8401  151.3341 LP  0  0  0  0  0  0  0  0  0  0  0  0  # atno 17370 bound_to 10713
  157.7342  130.9742  150.2016 LP  0  0  0  0  0  0  0  0  0  0  0  0  # atno 17371 bound_to 10713
  140.2613  134.8464  157.3761 LP  0  0  0  0  0  0  0  0  0  0  0  0  # atno 17394 bound_to 11000
  140.1608  134.4731  155.7896 LP  0  0  0  0  0  0  0  0  0  0  0  0  # atno 17395 bound_to 11000

$$$$
