AV-unprocessed.smi:104|AV-procd|sdf|1001|dock4
  -GOLD-   2262017593D 1   1.00000     0.00000
 Structure written by MMmdl.
 47 49  0  0  0  0  0  0  0  0  1 V2000
  147.4268  140.3071  154.6506 C   0  0  0  0  0  0  0  0  0  0  0  0
  148.8818  140.5362  155.0370 C   0  0  0  0  0  0  0  0  0  0  0  0
  149.7665  139.7482  154.7030 O   0  0  0  0  0  0  0  0  0  0  0  0
  149.0482  141.6574  155.7603 O   0  0  0  0  0  0  0  0  0  0  0  0
  150.3336  142.0285  156.2468 C   0  0  0  0  0  0  0  0  0  0  0  0
  151.0035  140.9254  157.0944 C   0  0  2  0  0  0  0  0  0  0  0  0
  150.0520  140.2370  157.8931 O   0  0  0  0  0  0  0  0  0  0  0  0
  150.6770  139.6899  159.0077 C   0  0  1  0  0  0  0  0  0  0  0  0
  151.0090  138.2430  158.7148 N   0  0  0  0  0  0  0  0  0  0  0  0
  150.2976  137.1308  159.1150 C   0  0  0  0  0  0  0  0  0  0  0  0
  148.7198  137.2443  160.1772 Br  0  0  0  0  0  0  0  0  0  0  0  0
  150.7385  135.9642  158.7410 N   0  0  0  0  0  0  0  0  0  0  0  0
  151.8561  136.2881  157.9880 C   0  0  0  0  0  0  0  0  0  0  0  0
  152.8116  135.5184  157.2775 C   0  0  0  0  0  0  0  0  0  0  0  0
  152.7756  134.1797  157.2204 N   0  0  0  0  0  0  0  0  0  0  0  0
  153.8064  136.1615  156.6251 N   0  0  0  0  0  0  0  0  0  0  0  0
  153.8620  137.4952  156.6649 C   0  0  0  0  0  0  0  0  0  0  0  0
  153.0414  138.3456  157.2855 N   0  0  0  0  0  0  0  0  0  0  0  0
  152.0349  137.7036  157.9498 C   0  0  0  0  0  0  0  0  0  0  0  0
  151.8803  140.5941  159.3408 C   0  0  1  0  0  0  0  0  0  0  0  0
  153.0243  139.8794  159.7943 O   0  0  0  0  0  0  0  0  0  0  0  0
  154.1676  140.5306  160.0632 C   0  0  0  0  0  0  0  0  0  0  0  0
  155.2707  139.5919  160.5315 C   0  0  0  0  0  0  0  0  0  0  0  0
  154.3484  141.7448  159.9726 O   0  0  0  0  0  0  0  0  0  0  0  0
  152.1622  141.3337  158.0312 C   0  0  2  0  0  0  0  0  0  0  0  0
  152.2196  142.7352  158.2737 O   0  0  0  0  0  0  0  0  0  0  0  0
  151.2715  143.3418  159.0089 C   0  0  0  0  0  0  0  0  0  0  0  0
  151.5728  144.8167  159.2389 C   0  0  0  0  0  0  0  0  0  0  0  0
  150.2559  142.8140  159.4622 O   0  0  0  0  0  0  0  0  0  0  0  0
  146.9408  141.2523  154.4069 H   0  0  0  0  0  0  0  0  0  0  0  0
  146.8880  139.8430  155.4767 H   0  0  0  0  0  0  0  0  0  0  0  0
  147.3607  139.6515  153.7821 H   0  0  0  0  0  0  0  0  0  0  0  0
  150.9854  142.3186  155.4214 H   0  0  0  0  0  0  0  0  0  0  0  0
  150.2095  142.9209  156.8605 H   0  0  0  0  0  0  0  0  0  0  0  0
  151.3906  140.1928  156.3881 H   0  0  0  0  0  0  0  0  0  0  0  0
  149.9775  139.6434  159.8401 H   0  0  0  0  0  0  0  0  0  0  0  0
  152.0428  133.6749  157.6982 H   0  0  0  0  0  0  0  0  0  0  0  0
  153.4814  133.6779  156.7012 H   0  0  0  0  0  0  0  0  0  0  0  0
  154.6803  137.9459  156.1228 H   0  0  0  0  0  0  0  0  0  0  0  0
  151.5502  141.3149  160.0910 H   0  0  0  0  0  0  0  0  0  0  0  0
  155.4163  138.7872  159.8102 H   0  0  0  0  0  0  0  0  0  0  0  0
  155.0067  139.1517  161.4934 H   0  0  0  0  0  0  0  0  0  0  0  0
  156.2116  140.1310  160.6438 H   0  0  0  0  0  0  0  0  0  0  0  0
  153.1004  141.0008  157.5844 H   0  0  0  0  0  0  0  0  0  0  0  0
  152.6168  144.9531  159.5214 H   0  0  0  0  0  0  0  0  0  0  0  0
  150.9448  145.2155  160.0361 H   0  0  0  0  0  0  0  0  0  0  0  0
  151.3821  145.3868  158.3296 H   0  0  0  0  0  0  0  0  0  0  0  0
  1  2  1  0  0  0  0
  1 30  1  0  0  0  0
  1 31  1  0  0  0  0
  1 32  1  0  0  0  0
  2  3  2  0  0  0  0
  2  4  1  0  0  0  0
  4  5  1  0  0  0  0
  5  6  1  0  0  0  0
  5 33  1  0  0  0  0
  5 34  1  0  0  0  0
  6 25  1  0  0  0  0
  6  7  1  0  0  0  0
  6 35  1  0  0  0  0
  7  8  1  0  0  0  0
  8  9  1  0  0  0  0
  8 20  1  0  0  0  0
  8 36  1  0  0  0  0
  9 19  1  0  0  0  0
  9 10  1  0  0  0  0
 10 11  1  0  0  0  0
 10 12  2  0  0  0  0
 12 13  1  0  0  0  0
 13 19  2  0  0  0  0
 13 14  1  0  0  0  0
 14 15  1  0  0  0  0
 14 16  2  0  0  0  0
 15 37  1  0  0  0  0
 15 38  1  0  0  0  0
 16 17  1  0  0  0  0
 17 18  2  0  0  0  0
 17 39  1  0  0  0  0
 18 19  1  0  0  0  0
 20 21  1  0  0  0  0
 20 25  1  0  0  0  0
 20 40  1  0  0  0  0
 21 22  1  0  0  0  0
 22 23  1  0  0  0  0
 22 24  2  0  0  0  0
 23 41  1  0  0  0  0
 23 42  1  0  0  0  0
 23 43  1  0  0  0  0
 25 26  1  0  0  0  0
 25 44  1  0  0  0  0
 26 27  1  0  0  0  0
 27 28  1  0  0  0  0
 27 29  2  0  0  0  0
 28 45  1  0  0  0  0
 28 46  1  0  0  0  0
 28 47  1  0  0  0  0
M  END
> <s_m_source_file>
AV-unprocessed.smi

> <i_m_source_file_index>
104

> <i_lp_mmshare_version>
43012

> <i_f3d_flags>
0

> <s_epik_input>
W0NIM11DKD1PKU9bQ0gyXVtDQEBIXTFPW0NASF0oW0NAQEhdKE9DKD1PKVtDSDNdKVtDQEhdMU9DKD1PKVtDSDNdKW4oYyhCciluMiljKGMyMyluW2NIXW5jM1tOSDJd

> <s_epik_cmdline>
J2VwaWtfcHl0aG9uJywgJy1waCcsICc3LjAnLCAnLXRuJywgJzgnLCAnLW1hJywgJzIwMCcsICctbWV0YWxfYmluZGluZycsICctaW1hZScsICc8aW5maWxlLm1hZT4nLCAnLW9tYWUnLCAnPG91dGZpbGUubWFlPic=

> <r_lp_tautomer_probability>
1

> <r_epik_Ionization_Penalty>
7.36622e-05

> <r_epik_Ionization_Penalty_Charging>
0

> <r_epik_Ionization_Penalty_Neutral>
7.36622e-05

> <r_epik_State_Penalty>
-0

> <r_epik_Charging_Adjusted_Penalty>
0

> <i_epik_Tot_Q>
0

> <i_epik_Tot_abs_Q>
0

> <r_epik_Metal_State_Penalty>
-0

> <b_epik_Metal_Only>
0

> <s_epik_Chemistry_Notes>
This compound has an ester and may undergo hydrolysis at high or low pH. This compound contains an acetal/aminal-like group ( X-CH(R)-Y where X, Y are N, S, or O) that may be acid/base labile, releasing an aldehyde.

> <s_lp_Force_Field>
OPLS_2005

> <r_lp_Energy>
20.7491

> <b_lp_Chiralities_Consistent>
1

> <s_lp_Variant>
AV-unprocessed.smi:104-9

> <Gold.Version>
5.8.1

> <Gold.Id.Protein>
6NUR|6NUR_protein|mol2

> <Gold.PLP.Fitness>
37.2200

> <Gold.PLP.PLP>
-30.1661

> <Gold.PLP.part.hbond>
-4.6745

> <Gold.PLP.part.metal>
0.0000

> <Gold.PLP.part.buried>
0.6085

> <Gold.PLP.part.nonpolar>
-26.7039

> <Gold.PLP.part.repulsive>
1.5045

> <Gold.PLP.ligand.clash>
0.0000

> <Gold.PLP.ligand.torsion>
0.8110

> <Gold.PLP.Chemscore.Hbond>
2.8136

> <Gold.PLP.Chemscore.CHOScore>
0.0000

> <Gold.PLP.Chemscore.Metal>
0.0000

> <Gold.Chemscore.Hbonds>
donor molecule, donor type, donor heavy atom, donor atom, acceptor molecule, acceptor atom, score
      P1  H  6896  6908       L1    12  0.62
      P1  H  7997  8008       L1    18  0.20
      P1  H 10752 10764       L1    16  0.74

> <Gold.PLP.Chemscore.Internal.Correction>
0.2351

> <Gold.Rescore>
     Score         DG    S(hbond)    S(metal)    S(lipo)     H(rot)  DE(clash)    DE(int)     intcor
      1.15      -7.41       1.72        0.00      61.57       4.31       2.67       3.60       ----

> <Gold.Chemscore.Fitness>
1.1495

> <Gold.Chemscore.DG>
-7.4138

> <Gold.Chemscore.ZeroCoef>
-5.4800

> <Gold.Chemscore.Hbond>
1.7234

> <Gold.Chemscore.Metal>
0.0000

> <Gold.Chemscore.Lipo>
61.5686

> <Gold.Chemscore.Internal_Hbond>
0.0000

> <Gold.Chemscore.DEClash>
2.6683

> <Gold.Chemscore.DEInternal>
3.5960

> <Gold.Chemscore.Rot>
4.3070

> <Gold.Chemscore.Internal.Correction>
   9.000000E+99

> <Gold.Chemscore.Hbonds>
donor molecule, donor type, donor heavy atom, donor atom, acceptor molecule, acceptor atom, score
      P1  H  6896  6908       L1    12  0.52
      P1  H  7989  7998       L1     3  0.02
      P1  H  7997  8008       L1    18  0.01
      P1  H 10752 10764       L1    16  0.50

> <Gold.Chemscore.Hbond.Weighted>
-5.7562

> <Gold.Chemscore.Metal.Weighted>
-0.0000

> <Gold.Chemscore.Lipo.Weighted>
-7.2035

> <Gold.Chemscore.Internal_Hbond.Weighted>
0.0000

> <Gold.Chemscore.DEClash.Weighted>
2.6683

> <Gold.Chemscore.DEInternal.Weighted>
3.5960

> <Gold.Chemscore.Rot.Weighted>
11.0259

> <Gold.Chemscore.Internal.Correction.Weighted>
   9.000000E+99

> <Gold.Protein.RotatedTorsions>
[ 6907 6896 6895 6894 ] final -159.78 input  -60.11 | X-H torsion
[ 7974 7965 7964 7962 ] final   72.56 input  175.53 | X-H torsion
[ 8008 7997 7996 7995 ] final  -67.70 input   59.86 | X-H torsion
[ 10167 10162 10161 10158 ] final  -36.90 input  -65.29 | X-H torsion
[ 10718 10713 10712 10709 ] final  -18.72 input   66.30 | X-H torsion
[ 10763 10752 10751 10750 ] final   39.89 input  -60.55 | X-H torsion
[ 11005 11000 10999 10996 ] final   97.90 input  -57.11 | X-H torsion

> <Gold.Protein.ActiveResidues>
 VAL166  LYS551  ARG553  GLY616  TRP617  ASP618  TYR619  PRO620  LYS621  CYS622 
 ASP623  PHE694  ASN695  SER759  ASP760  ASP761  ALA762  ILE779  LEU786  VAL792 
 PHE793  MET794  SER795  GLU796  ALA797  LYS798  CYS799  TRP800  GLU811  SER814 

> <Gold.Protein.RotatedAtoms>
  151.3389  133.3970  159.2669 H   0  0  0  0  0  0  0  0  0  0  0  0  # atno 6907 bound_to 6896
  150.9894  134.9233  159.7901 H   0  0  0  0  0  0  0  0  0  0  0  0  # atno 6908 bound_to 6896
  152.5242  134.3353  159.9250 H   0  0  0  0  0  0  0  0  0  0  0  0  # atno 6909 bound_to 6896
  145.7519  139.2763  143.1426 H   0  0  0  0  0  0  0  0  0  0  0  0  # atno 7974 bound_to 7965
  154.4817  140.0887  156.7393 H   0  0  0  0  0  0  0  0  0  0  0  0  # atno 8008 bound_to 7997
  155.4453  140.3455  155.4276 H   0  0  0  0  0  0  0  0  0  0  0  0  # atno 8009 bound_to 7997
  156.1201  140.1472  156.9204 H   0  0  0  0  0  0  0  0  0  0  0  0  # atno 8010 bound_to 7997
  140.7131  143.3378  151.2425 H   0  0  0  0  0  0  0  0  0  0  0  0  # atno 10167 bound_to 10162
  156.5556  130.4712  149.6431 H   0  0  0  0  0  0  0  0  0  0  0  0  # atno 10718 bound_to 10713
  152.9953  135.6207  154.2537 H   0  0  0  0  0  0  0  0  0  0  0  0  # atno 10763 bound_to 10752
  154.2275  135.2793  155.2904 H   0  0  0  0  0  0  0  0  0  0  0  0  # atno 10764 bound_to 10752
  154.5477  135.5742  153.6953 H   0  0  0  0  0  0  0  0  0  0  0  0  # atno 10765 bound_to 10752
  139.8774  134.9023  156.4376 H   0  0  0  0  0  0  0  0  0  0  0  0  # atno 11005 bound_to 11000
  146.0348  140.8222  142.9858 LP  0  0  0  0  0  0  0  0  0  0  0  0  # atno 17320 bound_to 7965
  144.6848  140.2823  143.7290 LP  0  0  0  0  0  0  0  0  0  0  0  0  # atno 17321 bound_to 7965
  139.6877  143.9745  152.2843 LP  0  0  0  0  0  0  0  0  0  0  0  0  # atno 17342 bound_to 10162
  139.9396  144.6690  150.8280 LP  0  0  0  0  0  0  0  0  0  0  0  0  # atno 17343 bound_to 10162
  156.2845  130.7089  151.1922 LP  0  0  0  0  0  0  0  0  0  0  0  0  # atno 17370 bound_to 10713
  157.7379  131.0547  150.5328 LP  0  0  0  0  0  0  0  0  0  0  0  0  # atno 17371 bound_to 10713
  140.9023  133.7771  155.9694 LP  0  0  0  0  0  0  0  0  0  0  0  0  # atno 17394 bound_to 11000
  140.8638  134.2809  157.5222 LP  0  0  0  0  0  0  0  0  0  0  0  0  # atno 17395 bound_to 11000

$$$$
