AV-unprocessed.smi:3028|AV-procd|sdf|11523|dock4
  -GOLD-   2272016463D 1   1.00000     0.00000
 Structure written by MMmdl.
 47 48  0  0  0  0  0  0  0  0  1 V2000
  151.6449  142.2900  157.8559 C   0  0  0  0  0  0  0  0  0  0  0  0
  151.0322  141.5879  156.6785 C   0  0  0  0  0  0  0  0  0  0  0  0
  151.5697  140.5012  155.9328 C   0  0  0  0  0  0  0  0  0  0  0  0
  150.7763  140.1122  154.9493 N   0  0  0  0  0  0  0  0  0  0  0  0
  149.7003  140.9277  155.0319 N   0  0  0  0  0  0  0  0  0  0  0  0
  148.6005  140.8103  154.0770 C   0  0  2  0  0  0  0  0  0  0  0  0
  147.7072  142.0654  154.0712 C   0  0  0  0  0  0  0  0  0  0  0  0
  147.8163  139.4714  154.1995 C   0  0  1  0  0  0  0  0  0  0  0  0
  146.7576  139.5163  155.3147 C   0  0  0  0  0  0  0  0  0  0  0  0
  147.1113  139.1318  152.9665 N   0  0  0  0  0  0  0  0  0  0  0  0
  146.2230  137.9697  153.1012 C   0  0  0  0  0  0  0  0  0  0  0  0
  146.1463  137.1292  151.8169 C   0  0  0  0  0  0  0  0  0  0  0  0
  146.4552  137.6212  150.7321 O   0  0  0  0  0  0  0  0  0  0  0  0
  145.7439  135.8496  151.8950 N   0  0  0  0  0  0  0  0  0  0  0  0
  145.6024  134.8866  150.8051 C   0  0  0  0  0  0  0  0  0  0  0  0
  144.1343  134.4496  150.6927 C   0  0  0  0  0  0  0  0  0  0  0  0
  143.9800  133.3205  149.6609 C   0  0  0  0  0  0  0  0  0  0  0  0
  144.8186  132.2245  150.0104 O   0  0  0  0  0  0  0  0  0  0  0  0
  146.2019  132.5615  150.0086 C   0  0  0  0  0  0  0  0  0  0  0  0
  146.4814  133.6502  151.0573 C   0  0  0  0  0  0  0  0  0  0  0  0
  149.8364  141.8326  156.0649 C   0  0  0  0  0  0  0  0  0  0  0  0
  152.7303  142.1885  157.8672 H   0  0  0  0  0  0  0  0  0  0  0  0
  151.2745  141.8886  158.7993 H   0  0  0  0  0  0  0  0  0  0  0  0
  151.4230  143.3572  157.8503 H   0  0  0  0  0  0  0  0  0  0  0  0
  152.5091  139.9876  156.0753 H   0  0  0  0  0  0  0  0  0  0  0  0
  149.0668  140.7922  153.0908 H   0  0  0  0  0  0  0  0  0  0  0  0
  146.9176  141.9812  153.3242 H   0  0  0  0  0  0  0  0  0  0  0  0
  148.2909  142.9545  153.8317 H   0  0  0  0  0  0  0  0  0  0  0  0
  147.2351  142.2390  155.0380 H   0  0  0  0  0  0  0  0  0  0  0  0
  148.5160  138.6756  154.4609 H   0  0  0  0  0  0  0  0  0  0  0  0
  147.2084  139.7747  156.2730 H   0  0  0  0  0  0  0  0  0  0  0  0
  146.2734  138.5464  155.4341 H   0  0  0  0  0  0  0  0  0  0  0  0
  145.9765  140.2487  155.1075 H   0  0  0  0  0  0  0  0  0  0  0  0
  147.7864  139.0053  152.2245 H   0  0  0  0  0  0  0  0  0  0  0  0
  146.5709  137.3336  153.9132 H   0  0  0  0  0  0  0  0  0  0  0  0
  145.2213  138.3142  153.3602 H   0  0  0  0  0  0  0  0  0  0  0  0
  145.5143  135.5062  152.8165 H   0  0  0  0  0  0  0  0  0  0  0  0
  145.8861  135.3373  149.8537 H   0  0  0  0  0  0  0  0  0  0  0  0
  143.7749  134.0996  151.6617 H   0  0  0  0  0  0  0  0  0  0  0  0
  143.5074  135.2977  150.4150 H   0  0  0  0  0  0  0  0  0  0  0  0
  142.9458  132.9776  149.6339 H   0  0  0  0  0  0  0  0  0  0  0  0
  144.2243  133.6738  148.6577 H   0  0  0  0  0  0  0  0  0  0  0  0
  146.7818  131.6666  150.2352 H   0  0  0  0  0  0  0  0  0  0  0  0
  146.5050  132.8931  149.0142 H   0  0  0  0  0  0  0  0  0  0  0  0
  147.5376  133.9199  151.0405 H   0  0  0  0  0  0  0  0  0  0  0  0
  146.2787  133.2481  152.0512 H   0  0  0  0  0  0  0  0  0  0  0  0
  149.0772  142.5714  156.2757 H   0  0  0  0  0  0  0  0  0  0  0  0
  1  2  1  0  0  0  0
  1 22  1  0  0  0  0
  1 23  1  0  0  0  0
  1 24  1  0  0  0  0
  2 21  2  0  0  0  0
  2  3  1  0  0  0  0
  3  4  2  0  0  0  0
  3 25  1  0  0  0  0
  4  5  1  0  0  0  0
  5  6  1  0  0  0  0
  5 21  1  0  0  0  0
  6  7  1  0  0  0  0
  6  8  1  0  0  0  0
  6 26  1  0  0  0  0
  7 27  1  0  0  0  0
  7 28  1  0  0  0  0
  7 29  1  0  0  0  0
  8  9  1  0  0  0  0
  8 10  1  0  0  0  0
  8 30  1  0  0  0  0
  9 31  1  0  0  0  0
  9 32  1  0  0  0  0
  9 33  1  0  0  0  0
 10 11  1  0  0  0  0
 10 34  1  0  0  0  0
 11 12  1  0  0  0  0
 11 35  1  0  0  0  0
 11 36  1  0  0  0  0
 12 13  2  0  0  0  0
 12 14  1  0  0  0  0
 14 15  1  0  0  0  0
 14 37  1  0  0  0  0
 15 20  1  0  0  0  0
 15 16  1  0  0  0  0
 15 38  1  0  0  0  0
 16 17  1  0  0  0  0
 16 39  1  0  0  0  0
 16 40  1  0  0  0  0
 17 18  1  0  0  0  0
 17 41  1  0  0  0  0
 17 42  1  0  0  0  0
 18 19  1  0  0  0  0
 19 20  1  0  0  0  0
 19 43  1  0  0  0  0
 19 44  1  0  0  0  0
 20 45  1  0  0  0  0
 20 46  1  0  0  0  0
 21 47  1  0  0  0  0
M  END
> <s_m_source_file>
AV-unprocessed.smi

> <i_m_source_file_index>
3028

> <i_lp_mmshare_version>
43012

> <i_f3d_flags>
0

> <s_epik_input>
W0NIM11jMVtjSF1ubihbY0hdMSlbQ0BIXShbQ0gzXSlbQ0BIXShbQ0gzXSlbTkhdW0NIMl1DKD1PKVtOSF1bQ0hdMltDSDJdW0NIMl1PW0NIMl1bQ0gyXTI=

> <s_epik_cmdline>
J2VwaWtfcHl0aG9uJywgJy1waCcsICc3LjAnLCAnLXRuJywgJzgnLCAnLW1hJywgJzIwMCcsICctbWV0YWxfYmluZGluZycsICctaW1hZScsICc8aW5maWxlLm1hZT4nLCAnLW9tYWUnLCAnPG91dGZpbGUubWFlPic=

> <r_lp_tautomer_probability>
1

> <r_epik_Ionization_Penalty>
0.88617

> <r_epik_Ionization_Penalty_Charging>
0

> <r_epik_Ionization_Penalty_Neutral>
0.88617

> <r_epik_State_Penalty>
0.921066

> <r_epik_Charging_Adjusted_Penalty>
0.921066

> <i_epik_Tot_Q>
0

> <i_epik_Tot_abs_Q>
0

> <r_epik_Metal_State_Penalty>
0.917309

> <b_epik_Metal_Only>
0

> <s_lp_Force_Field>
OPLS_2005

> <r_lp_Energy>
19.7658

> <b_lp_Chiralities_Consistent>
1

> <s_lp_Variant>
AV-unprocessed.smi:3028-7

> <Gold.Version>
5.8.1

> <Gold.Id.Protein>
6NUR|6NUR_protein|mol2

> <Gold.PLP.Fitness>
43.2634

> <Gold.PLP.PLP>
-35.4075

> <Gold.PLP.part.hbond>
-3.0689

> <Gold.PLP.part.metal>
0.0000

> <Gold.PLP.part.buried>
-0.9004

> <Gold.PLP.part.nonpolar>
-32.9779

> <Gold.PLP.part.repulsive>
2.6580

> <Gold.PLP.ligand.clash>
0.0000

> <Gold.PLP.ligand.torsion>
1.1346

> <Gold.PLP.Chemscore.Hbond>
2.2717

> <Gold.PLP.Chemscore.CHOScore>
1.0000

> <Gold.PLP.Chemscore.Metal>
0.0000

> <Gold.Chemscore.Hbonds>
donor molecule, donor type, donor heavy atom, donor atom, acceptor molecule, acceptor atom, score
      L1  H    10    34       P1  7957  0.23
      P1  H  7954  7966       L1    13  1.00
      P1  H  7989  7998       L1     4  1.00
      L1  C    21    47       P1  8028  1.00

> <Gold.PLP.Chemscore.Internal.Correction>
0.3100

> <Gold.Rescore>
     Score         DG    S(hbond)    S(metal)    S(lipo)     H(rot)  DE(clash)    DE(int)     intcor
     13.17     -16.72       1.47        0.00      96.29       1.92       2.64       0.91       ----

> <Gold.Chemscore.Fitness>
13.1748

> <Gold.Chemscore.DG>
-16.7203

> <Gold.Chemscore.ZeroCoef>
-5.4800

> <Gold.Chemscore.Hbond>
1.4664

> <Gold.Chemscore.Metal>
0.0000

> <Gold.Chemscore.Lipo>
96.2912

> <Gold.Chemscore.Internal_Hbond>
0.0000

> <Gold.Chemscore.DEClash>
2.6404

> <Gold.Chemscore.DEInternal>
0.9052

> <Gold.Chemscore.Rot>
1.9233

> <Gold.Chemscore.Internal.Correction>
   9.000000E+99

> <Gold.Chemscore.Hbonds>
donor molecule, donor type, donor heavy atom, donor atom, acceptor molecule, acceptor atom, score
      L1  H    10    34       P1  7957  0.23
      P1  H  7954  7966       L1    13  0.97
      P1  H  7989  7998       L1     4  0.08

> <Gold.Chemscore.Hbond.Weighted>
-4.8978

> <Gold.Chemscore.Metal.Weighted>
-0.0000

> <Gold.Chemscore.Lipo.Weighted>
-11.2661

> <Gold.Chemscore.Internal_Hbond.Weighted>
0.0000

> <Gold.Chemscore.DEClash.Weighted>
2.6404

> <Gold.Chemscore.DEInternal.Weighted>
0.9052

> <Gold.Chemscore.Rot.Weighted>
4.9235

> <Gold.Chemscore.Internal.Correction.Weighted>
   9.000000E+99

> <Gold.Protein.RotatedTorsions>
[ 6907 6896 6895 6894 ] final  -56.26 input  -60.11 | X-H torsion
[ 7974 7965 7964 7962 ] final  122.53 input  175.53 | X-H torsion
[ 8008 7997 7996 7995 ] final   35.78 input   59.86 | X-H torsion
[ 10167 10162 10161 10158 ] final -142.29 input  -65.29 | X-H torsion
[ 10718 10713 10712 10709 ] final  -90.42 input   66.30 | X-H torsion
[ 10763 10752 10751 10750 ] final   72.32 input  -60.55 | X-H torsion
[ 11005 11000 10999 10996 ] final -157.77 input  -57.11 | X-H torsion

> <Gold.Protein.ActiveResidues>
 VAL166  LYS551  ARG553  GLY616  TRP617  ASP618  TYR619  PRO620  LYS621  CYS622 
 ASP623  PHE694  ASN695  SER759  ASP760  ASP761  ALA762  ILE779  LEU786  VAL792 
 PHE793  MET794  SER795  GLU796  ALA797  LYS798  CYS799  TRP800  GLU811  SER814 

> <Gold.Protein.RotatedAtoms>
  150.8182  134.7376  159.6748 H   0  0  0  0  0  0  0  0  0  0  0  0  # atno 6907 bound_to 6896
  152.4300  134.5793  159.9953 H   0  0  0  0  0  0  0  0  0  0  0  0  # atno 6908 bound_to 6896
  151.5984  133.3321  159.3078 H   0  0  0  0  0  0  0  0  0  0  0  0  # atno 6909 bound_to 6896
  145.1064  139.3483  143.4785 H   0  0  0  0  0  0  0  0  0  0  0  0  # atno 7974 bound_to 7965
  155.1767  140.3296  155.4382 H   0  0  0  0  0  0  0  0  0  0  0  0  # atno 8008 bound_to 7997
  156.2491  140.1934  156.6818 H   0  0  0  0  0  0  0  0  0  0  0  0  # atno 8009 bound_to 7997
  154.6299  140.0584  156.9706 H   0  0  0  0  0  0  0  0  0  0  0  0  # atno 8010 bound_to 7997
  139.8103  143.7712  152.2663 H   0  0  0  0  0  0  0  0  0  0  0  0  # atno 10167 bound_to 10162
  155.9988  130.4909  150.5321 H   0  0  0  0  0  0  0  0  0  0  0  0  # atno 10718 bound_to 10713
  153.0452  135.5104  154.7727 H   0  0  0  0  0  0  0  0  0  0  0  0  # atno 10763 bound_to 10752
  154.6632  135.2942  154.9841 H   0  0  0  0  0  0  0  0  0  0  0  0  # atno 10764 bound_to 10752
  154.0685  135.6681  153.4873 H   0  0  0  0  0  0  0  0  0  0  0  0  # atno 10765 bound_to 10752
  140.6610  134.4349  157.5234 H   0  0  0  0  0  0  0  0  0  0  0  0  # atno 11005 bound_to 11000
  146.3528  140.0964  142.8610 LP  0  0  0  0  0  0  0  0  0  0  0  0  # atno 17320 bound_to 7965
  145.0896  140.9276  143.4777 LP  0  0  0  0  0  0  0  0  0  0  0  0  # atno 17321 bound_to 7965
  139.7859  144.7428  151.0023 LP  0  0  0  0  0  0  0  0  0  0  0  0  # atno 17342 bound_to 10162
  140.7818  143.4493  151.0437 LP  0  0  0  0  0  0  0  0  0  0  0  0  # atno 17343 bound_to 10162
  157.3269  131.0692  151.1890 LP  0  0  0  0  0  0  0  0  0  0  0  0  # atno 17370 bound_to 10713
  157.2784  130.6738  149.6054 LP  0  0  0  0  0  0  0  0  0  0  0  0  # atno 17371 bound_to 10713
  139.9013  134.8550  156.1885 LP  0  0  0  0  0  0  0  0  0  0  0  0  # atno 17394 bound_to 11000
  141.0465  133.6910  156.1693 LP  0  0  0  0  0  0  0  0  0  0  0  0  # atno 17395 bound_to 11000

$$$$
