AV-unprocessed.smi:2784|AV-procd|sdf|10733|dock4
  -GOLD-   2272015173D 1   1.00000     0.00000
 Structure written by MMmdl.
 32 33  0  0  0  0  0  0  0  0  2 V2000
  148.2943  144.9276  161.1456 C   0  0  0  0  0  0  0  0  0  0  0  0
  149.2083  143.9949  160.5912 O   0  0  0  0  0  0  0  0  0  0  0  0
  150.0336  144.5377  159.5693 C   0  0  1  0  0  0  0  0  0  0  0  0
  151.1196  145.4662  160.1283 C   0  0  0  0  0  0  0  0  0  0  0  0
  152.2724  145.3369  159.1394 C   0  0  0  0  0  0  0  0  0  0  0  0
  152.2627  143.8579  158.7562 C   0  0  0  0  0  0  0  0  0  0  0  0
  150.7904  143.4065  158.8405 C   0  0  2  0  0  0  0  0  0  0  0  0
  150.2276  143.1825  157.5108 N   0  0  0  0  0  0  0  0  0  0  0  0
  150.2039  142.0017  156.8756 C   0  0  0  0  0  0  0  0  0  0  0  0
  150.6714  140.9639  157.3453 O   0  0  0  0  0  0  0  0  0  0  0  0
  149.6138  142.0976  155.6746 N   0  0  0  0  0  0  0  0  0  0  0  0
  149.4330  141.0366  154.7577 C   0  0  0  0  0  0  0  0  0  0  0  0
  148.2548  140.6901  154.2419 N   0  3  0  0  0  0  0  0  0  0  0  0
  148.4407  139.6270  153.3934 C   0  0  0  0  0  0  0  0  0  0  0  0
  149.7871  139.3534  153.4267 C   0  0  0  0  0  0  0  0  0  0  0  0
  150.4246  140.2317  154.2802 O   0  0  0  0  0  0  0  0  0  0  0  0
  147.6760  144.4302  161.8927 H   0  0  0  0  0  0  0  0  0  0  0  0
  147.6319  145.3346  160.3807 H   0  0  0  0  0  0  0  0  0  0  0  0
  148.8101  145.7527  161.6376 H   0  0  0  0  0  0  0  0  0  0  0  0
  149.4256  145.0943  158.8526 H   0  0  0  0  0  0  0  0  0  0  0  0
  150.7776  146.4953  160.2423 H   0  0  0  0  0  0  0  0  0  0  0  0
  151.4443  145.1124  161.1079 H   0  0  0  0  0  0  0  0  0  0  0  0
  152.0735  145.9488  158.2586 H   0  0  0  0  0  0  0  0  0  0  0  0
  153.2263  145.6557  159.5610 H   0  0  0  0  0  0  0  0  0  0  0  0
  152.7190  143.6864  157.7802 H   0  0  0  0  0  0  0  0  0  0  0  0
  152.8501  143.2962  159.4839 H   0  0  0  0  0  0  0  0  0  0  0  0
  150.7316  142.4848  159.4233 H   0  0  0  0  0  0  0  0  0  0  0  0
  149.8210  143.9849  157.0523 H   0  0  0  0  0  0  0  0  0  0  0  0
  147.3521  141.1129  154.4187 H   0  0  0  0  0  0  0  0  0  0  0  0
  147.6133  139.1791  152.8614 H   0  0  0  0  0  0  0  0  0  0  0  0
  150.4121  138.6200  152.9379 H   0  0  0  0  0  0  0  0  0  0  0  0
  149.2668  143.0024  155.3931 H   0  0  0  0  0  0  0  0  0  0  0  0
  1  2  1  0  0  0  0
  1 17  1  0  0  0  0
  1 18  1  0  0  0  0
  1 19  1  0  0  0  0
  2  3  1  0  0  0  0
  3  7  1  0  0  0  0
  3  4  1  0  0  0  0
  3 20  1  0  0  0  0
  4  5  1  0  0  0  0
  4 21  1  0  0  0  0
  4 22  1  0  0  0  0
  5  6  1  0  0  0  0
  5 23  1  0  0  0  0
  5 24  1  0  0  0  0
  6  7  1  0  0  0  0
  6 25  1  0  0  0  0
  6 26  1  0  0  0  0
  7  8  1  0  0  0  0
  7 27  1  0  0  0  0
  8 28  1  0  0  0  0
  8  9  1  0  0  0  0
  9 11  1  0  0  0  0
  9 10  2  0  0  0  0
 11 12  1  0  0  0  0
 11 32  1  0  0  0  0
 12 16  1  0  0  0  0
 12 13  2  0  0  0  0
 13 29  1  0  0  0  0
 13 14  1  0  0  0  0
 14 30  1  0  0  0  0
 14 15  2  0  0  0  0
 15 31  1  0  0  0  0
 15 16  1  0  0  0  0
M  CHG  1  13   1
M  END
> <s_m_source_file>
AV-unprocessed.smi

> <i_m_source_file_index>
2784

> <i_lp_mmshare_version>
43012

> <i_f3d_flags>
0

> <s_epik_input>
W0NIM11PW0NAQEhdMVtDSDJdW0NIMl1bQ0gyXVtDQEhdMVtOSF1DKD1PKVtOSF1jMm5bY0hdW2NIXW8y

> <s_epik_cmdline>
J2VwaWtfcHl0aG9uJywgJy1waCcsICc3LjAnLCAnLXRuJywgJzgnLCAnLW1hJywgJzIwMCcsICctbWV0YWxfYmluZGluZycsICctaW1hZScsICc8aW5maWxlLm1hZT4nLCAnLW9tYWUnLCAnPG91dGZpbGUubWFlPic=

> <r_epik_Ionization_Penalty>
6.73843

> <r_epik_Ionization_Penalty_Charging>
6.66704

> <r_epik_Ionization_Penalty_Neutral>
0.0713889

> <r_epik_State_Penalty>
1.94951

> <r_epik_Charging_Adjusted_Penalty>
8.61656

> <i_epik_Tot_Q>
1

> <i_epik_Tot_abs_Q>
1

> <r_epik_Metal_State_Penalty>
1.97013

> <b_epik_Metal_Only>
0

> <s_lp_Force_Field>
OPLS_2005

> <r_lp_Energy>
26.913

> <b_lp_Chiralities_Consistent>
1

> <s_lp_Variant>
AV-unprocessed.smi:2784-8

> <Gold.Version>
5.8.1

> <Gold.Id.Protein>
6NUR|6NUR_protein|mol2

> <Gold.PLP.Fitness>
41.7906

> <Gold.PLP.PLP>
-31.2061

> <Gold.PLP.part.hbond>
-4.0000

> <Gold.PLP.part.metal>
0.0000

> <Gold.PLP.part.buried>
-2.3506

> <Gold.PLP.part.nonpolar>
-26.2442

> <Gold.PLP.part.repulsive>
0.4778

> <Gold.PLP.ligand.clash>
0.0000

> <Gold.PLP.ligand.torsion>
0.9451

> <Gold.PLP.Chemscore.Hbond>
3.5033

> <Gold.PLP.Chemscore.CHOScore>
0.6529

> <Gold.PLP.Chemscore.Metal>
0.0000

> <Gold.Chemscore.Hbonds>
donor molecule, donor type, donor heavy atom, donor atom, acceptor molecule, acceptor atom, score
      L1  H     8    28       P1  8028  1.00
      L1  H    11    32       P1  8028  1.00
      P1  H  6933  6944       L1     2  0.50
      P1  H  7989  7998       L1    16  1.00

> <Gold.PLP.Chemscore.Internal.Correction>
0.0065

> <Gold.Rescore>
     Score         DG    S(hbond)    S(metal)    S(lipo)     H(rot)  DE(clash)    DE(int)     intcor
     15.58     -17.52       1.94        0.00      76.74       1.34       0.06       1.88       ----

> <Gold.Chemscore.Fitness>
15.5816

> <Gold.Chemscore.DG>
-17.5231

> <Gold.Chemscore.ZeroCoef>
-5.4800

> <Gold.Chemscore.Hbond>
1.9408

> <Gold.Chemscore.Metal>
0.0000

> <Gold.Chemscore.Lipo>
76.7408

> <Gold.Chemscore.Internal_Hbond>
0.0000

> <Gold.Chemscore.DEClash>
0.0615

> <Gold.Chemscore.DEInternal>
1.8800

> <Gold.Chemscore.Rot>
1.3351

> <Gold.Chemscore.Internal.Correction>
   9.000000E+99

> <Gold.Chemscore.Hbonds>
donor molecule, donor type, donor heavy atom, donor atom, acceptor molecule, acceptor atom, score
      L1  H     8    28       P1  8028  0.82
      L1  H    11    32       P1  8028  0.98
      P1  H  6933  6944       L1     2  0.11
      P1  H  7989  7998       L1    16  0.55

> <Gold.Chemscore.Hbond.Weighted>
-6.4821

> <Gold.Chemscore.Metal.Weighted>
-0.0000

> <Gold.Chemscore.Lipo.Weighted>
-8.9787

> <Gold.Chemscore.Internal_Hbond.Weighted>
0.0000

> <Gold.Chemscore.DEClash.Weighted>
0.0615

> <Gold.Chemscore.DEInternal.Weighted>
1.8800

> <Gold.Chemscore.Rot.Weighted>
3.4177

> <Gold.Chemscore.Internal.Correction.Weighted>
   9.000000E+99

> <Gold.Protein.RotatedTorsions>
[ 6907 6896 6895 6894 ] final -145.63 input  -60.11 | X-H torsion
[ 7974 7965 7964 7962 ] final   39.55 input  175.53 | X-H torsion
[ 8008 7997 7996 7995 ] final  -12.55 input   59.86 | X-H torsion
[ 10167 10162 10161 10158 ] final   14.29 input  -65.29 | X-H torsion
[ 10718 10713 10712 10709 ] final   -1.35 input   66.30 | X-H torsion
[ 10763 10752 10751 10750 ] final   95.11 input  -60.55 | X-H torsion
[ 11005 11000 10999 10996 ] final -163.52 input  -57.11 | X-H torsion

> <Gold.Protein.ActiveResidues>
 VAL166  LYS551  ARG553  GLY616  TRP617  ASP618  TYR619  PRO620  LYS621  CYS622 
 ASP623  PHE694  ASN695  SER759  ASP760  ASP761  ALA762  ILE779  LEU786  VAL792 
 PHE793  MET794  SER795  GLU796  ALA797  LYS798  CYS799  TRP800  GLU811  SER814 

> <Gold.Protein.RotatedAtoms>
  151.1304  133.5041  159.2599 H   0  0  0  0  0  0  0  0  0  0  0  0  # atno 6907 bound_to 6896
  151.1764  135.0340  159.8783 H   0  0  0  0  0  0  0  0  0  0  0  0  # atno 6908 bound_to 6896
  152.5459  134.1161  159.8432 H   0  0  0  0  0  0  0  0  0  0  0  0  # atno 6909 bound_to 6896
  146.0975  139.5638  142.9436 H   0  0  0  0  0  0  0  0  0  0  0  0  # atno 7974 bound_to 7965
  154.5368  140.2273  155.8709 H   0  0  0  0  0  0  0  0  0  0  0  0  # atno 8008 bound_to 7997
  156.1819  140.3098  155.9127 H   0  0  0  0  0  0  0  0  0  0  0  0  # atno 8009 bound_to 7997
  155.3339  140.0447  157.3034 H   0  0  0  0  0  0  0  0  0  0  0  0  # atno 8010 bound_to 7997
  140.5945  143.8729  150.6905 H   0  0  0  0  0  0  0  0  0  0  0  0  # atno 10167 bound_to 10162
  156.8069  130.5411  149.5714 H   0  0  0  0  0  0  0  0  0  0  0  0  # atno 10718 bound_to 10713
  153.2494  135.4266  155.0781 H   0  0  0  0  0  0  0  0  0  0  0  0  # atno 10763 bound_to 10752
  154.8375  135.3422  154.6535 H   0  0  0  0  0  0  0  0  0  0  0  0  # atno 10764 bound_to 10752
  153.6957  135.7031  153.5134 H   0  0  0  0  0  0  0  0  0  0  0  0  # atno 10765 bound_to 10752
  140.5972  134.4985  157.5200 H   0  0  0  0  0  0  0  0  0  0  0  0  # atno 11005 bound_to 11000
  145.5919  141.0368  143.2065 LP  0  0  0  0  0  0  0  0  0  0  0  0  # atno 17320 bound_to 7965
  144.7407  139.7458  143.7312 LP  0  0  0  0  0  0  0  0  0  0  0  0  # atno 17321 bound_to 7965
  140.2260  143.3772  152.1605 LP  0  0  0  0  0  0  0  0  0  0  0  0  # atno 17342 bound_to 10162
  139.5249  144.7089  151.5267 LP  0  0  0  0  0  0  0  0  0  0  0  0  # atno 17343 bound_to 10162
  156.1068  130.6010  150.9983 LP  0  0  0  0  0  0  0  0  0  0  0  0  # atno 17370 bound_to 10713
  157.6525  131.0894  150.8018 LP  0  0  0  0  0  0  0  0  0  0  0  0  # atno 17371 bound_to 10713
  139.9248  134.8077  156.1101 LP  0  0  0  0  0  0  0  0  0  0  0  0  # atno 17394 bound_to 11000
  141.0896  133.6720  156.2512 LP  0  0  0  0  0  0  0  0  0  0  0  0  # atno 17395 bound_to 11000

$$$$
