AV-unprocessed.smi:2786|AV-procd|sdf|10755|dock6
  -GOLD-   2272015183D 1   1.00000     0.00000
 Structure written by MMmdl.
 26 27  0  0  0  0  0  0  0  0  1 V2000
  151.5963  144.4007  157.4392 C   0  0  0  0  0  0  0  0  0  0  0  0
  151.7879  143.1520  158.1510 N   0  0  0  0  0  0  0  0  0  0  0  0
  152.2332  143.0232  159.4599 C   0  0  0  0  0  0  0  0  0  0  0  0
  152.2788  141.6773  159.7302 C   0  0  0  0  0  0  0  0  0  0  0  0
  151.8690  140.9683  158.6066 N   0  0  0  0  0  0  0  0  0  0  0  0
  151.5803  141.8990  157.6992 C   0  0  0  0  0  0  0  0  0  0  0  0
  151.1097  141.6023  156.3034 C   0  0  1  0  0  0  0  0  0  0  0  0
  151.3477  140.1200  155.9417 C   0  0  0  0  0  0  0  0  0  0  0  0
  150.8963  139.8320  154.5784 N   0  0  0  0  0  0  0  0  0  0  0  0
  149.4836  140.1761  154.4105 C   0  0  0  0  0  0  0  0  0  0  0  0
  149.2413  141.6555  154.7606 C   0  0  0  0  0  0  0  0  0  0  0  0
  149.6932  141.9456  156.1228 N   0  0  0  0  0  0  0  0  0  0  0  0
  151.9647  145.2347  158.0371 H   0  0  0  0  0  0  0  0  0  0  0  0
  150.5351  144.5513  157.2394 H   0  0  0  0  0  0  0  0  0  0  0  0
  152.1418  144.3774  156.4954 H   0  0  0  0  0  0  0  0  0  0  0  0
  152.4779  143.8776  160.0742 H   0  0  0  0  0  0  0  0  0  0  0  0
  152.5741  141.1689  160.6360 H   0  0  0  0  0  0  0  0  0  0  0  0
  151.6943  142.2151  155.6166 H   0  0  0  0  0  0  0  0  0  0  0  0
  152.4077  139.8826  156.0345 H   0  0  0  0  0  0  0  0  0  0  0  0
  150.8232  139.4770  156.6501 H   0  0  0  0  0  0  0  0  0  0  0  0
  151.0286  138.8452  154.3815 H   0  0  0  0  0  0  0  0  0  0  0  0
  149.1733  139.9832  153.3836 H   0  0  0  0  0  0  0  0  0  0  0  0
  148.8667  139.5399  155.0468 H   0  0  0  0  0  0  0  0  0  0  0  0
  149.7666  142.2944  154.0492 H   0  0  0  0  0  0  0  0  0  0  0  0
  148.1810  141.8891  154.6643 H   0  0  0  0  0  0  0  0  0  0  0  0
  149.5607  142.9325  156.3184 H   0  0  0  0  0  0  0  0  0  0  0  0
  1  2  1  0  0  0  0
  1 13  1  0  0  0  0
  1 14  1  0  0  0  0
  1 15  1  0  0  0  0
  2  6  1  0  0  0  0
  2  3  1  0  0  0  0
  3  4  2  0  0  0  0
  3 16  1  0  0  0  0
  4  5  1  0  0  0  0
  4 17  1  0  0  0  0
  5  6  2  0  0  0  0
  6  7  1  0  0  0  0
  7 12  1  0  0  0  0
  7  8  1  0  0  0  0
  7 18  1  0  0  0  0
  8  9  1  0  0  0  0
  8 19  1  0  0  0  0
  8 20  1  0  0  0  0
  9 10  1  0  0  0  0
  9 21  1  0  0  0  0
 10 11  1  0  0  0  0
 10 22  1  0  0  0  0
 10 23  1  0  0  0  0
 11 12  1  0  0  0  0
 11 24  1  0  0  0  0
 11 25  1  0  0  0  0
 12 26  1  0  0  0  0
M  END
> <s_m_source_file>
AV-unprocessed.smi

> <i_m_source_file_index>
2786

> <i_lp_mmshare_version>
43012

> <i_f3d_flags>
0

> <s_epik_input>
W0NIM11uMVtjSF1bY0hdbmMxW0NAQEhdMltDSDJdW05IXVtDSDJdW0NIMl1bTkhdMg==

> <s_epik_cmdline>
J2VwaWtfcHl0aG9uJywgJy1waCcsICc3LjAnLCAnLXRuJywgJzgnLCAnLW1hJywgJzIwMCcsICctbWV0YWxfYmluZGluZycsICctaW1hZScsICc8aW5maWxlLm1hZT4nLCAnLW9tYWUnLCAnPG91dGZpbGUubWFlPic=

> <r_lp_tautomer_probability>
1

> <r_epik_Ionization_Penalty>
3.5722

> <r_epik_Ionization_Penalty_Charging>
1.66148

> <r_epik_Ionization_Penalty_Neutral>
1.91072

> <r_epik_State_Penalty>
2.63328

> <r_epik_Charging_Adjusted_Penalty>
4.29476

> <i_epik_Tot_Q>
0

> <i_epik_Tot_abs_Q>
0

> <r_epik_Metal_State_Penalty>
0.942173

> <b_epik_Metal_Only>
0

> <s_lp_Force_Field>
OPLS_2005

> <r_lp_Energy>
22.0451

> <b_lp_Chiralities_Consistent>
1

> <s_lp_Variant>
AV-unprocessed.smi:2786-8

> <Gold.Version>
5.8.1

> <Gold.Id.Protein>
6NUR|6NUR_protein|mol2

> <Gold.PLP.Fitness>
33.9165

> <Gold.PLP.PLP>
-28.6705

> <Gold.PLP.part.hbond>
-2.0000

> <Gold.PLP.part.metal>
0.0000

> <Gold.PLP.part.buried>
-1.8948

> <Gold.PLP.part.nonpolar>
-23.3815

> <Gold.PLP.part.repulsive>
0.0000

> <Gold.PLP.ligand.clash>
0.0000

> <Gold.PLP.ligand.torsion>
0.3245

> <Gold.PLP.Chemscore.Hbond>
1.9600

> <Gold.PLP.Chemscore.CHOScore>
0.0000

> <Gold.PLP.Chemscore.Metal>
0.0000

> <Gold.Chemscore.Hbonds>
donor molecule, donor type, donor heavy atom, donor atom, acceptor molecule, acceptor atom, score
      L1  H    12    26       P1  8028  0.94
      P1  H  7989  7998       L1     9  1.00

> <Gold.PLP.Chemscore.Internal.Correction>
0.0150

> <Gold.Rescore>
     Score         DG    S(hbond)    S(metal)    S(lipo)     H(rot)  DE(clash)    DE(int)     intcor
     13.96     -14.33       1.18        0.00      63.86       1.00       0.01       0.36       ----

> <Gold.Chemscore.Fitness>
13.9619

> <Gold.Chemscore.DG>
-14.3319

> <Gold.Chemscore.ZeroCoef>
-5.4800

> <Gold.Chemscore.Hbond>
1.1798

> <Gold.Chemscore.Metal>
0.0000

> <Gold.Chemscore.Lipo>
63.8569

> <Gold.Chemscore.Internal_Hbond>
0.0000

> <Gold.Chemscore.DEClash>
0.0149

> <Gold.Chemscore.DEInternal>
0.3551

> <Gold.Chemscore.Rot>
1.0000

> <Gold.Chemscore.Internal.Correction>
   9.000000E+99

> <Gold.Chemscore.Hbonds>
donor molecule, donor type, donor heavy atom, donor atom, acceptor molecule, acceptor atom, score
      L1  H    12    26       P1  8028  0.86
      P1  H  7989  7998       L1     9  0.23

> <Gold.Chemscore.Hbond.Weighted>
-3.9406

> <Gold.Chemscore.Metal.Weighted>
-0.0000

> <Gold.Chemscore.Lipo.Weighted>
-7.4713

> <Gold.Chemscore.Internal_Hbond.Weighted>
0.0000

> <Gold.Chemscore.DEClash.Weighted>
0.0149

> <Gold.Chemscore.DEInternal.Weighted>
0.3551

> <Gold.Chemscore.Rot.Weighted>
2.5600

> <Gold.Chemscore.Internal.Correction.Weighted>
   9.000000E+99

> <Gold.Protein.RotatedTorsions>
[ 6907 6896 6895 6894 ] final   32.46 input  -60.11 | X-H torsion
[ 7974 7965 7964 7962 ] final -178.71 input  175.53 | X-H torsion
[ 8008 7997 7996 7995 ] final  -50.04 input   59.86 | X-H torsion
[ 10167 10162 10161 10158 ] final   72.62 input  -65.29 | X-H torsion
[ 10718 10713 10712 10709 ] final  -84.33 input   66.30 | X-H torsion
[ 10763 10752 10751 10750 ] final  -66.71 input  -60.55 | X-H torsion
[ 11005 11000 10999 10996 ] final  -35.49 input  -57.11 | X-H torsion

> <Gold.Protein.ActiveResidues>
 VAL166  LYS551  ARG553  GLY616  TRP617  ASP618  TYR619  PRO620  LYS621  CYS622 
 ASP623  PHE694  ASN695  SER759  ASP760  ASP761  ALA762  ILE779  LEU786  VAL792 
 PHE793  MET794  SER795  GLU796  ALA797  LYS798  CYS799  TRP800  GLU811  SER814 

> <Gold.Protein.RotatedAtoms>
  152.0748  134.9510  160.0573 H   0  0  0  0  0  0  0  0  0  0  0  0  # atno 6907 bound_to 6896
  152.0822  133.4153  159.4514 H   0  0  0  0  0  0  0  0  0  0  0  0  # atno 6908 bound_to 6896
  150.6836  134.2889  159.4702 H   0  0  0  0  0  0  0  0  0  0  0  0  # atno 6909 bound_to 6896
  144.7132  140.0828  143.6425 H   0  0  0  0  0  0  0  0  0  0  0  0  # atno 7974 bound_to 7965
  154.4054  140.1282  156.4601 H   0  0  0  0  0  0  0  0  0  0  0  0  # atno 8008 bound_to 7997
  155.7281  140.3492  155.5027 H   0  0  0  0  0  0  0  0  0  0  0  0  # atno 8009 bound_to 7997
  155.9152  140.1043  157.1239 H   0  0  0  0  0  0  0  0  0  0  0  0  # atno 8010 bound_to 7997
  140.0333  144.5448  150.7490 H   0  0  0  0  0  0  0  0  0  0  0  0  # atno 10167 bound_to 10162
  156.0007  130.4694  150.4393 H   0  0  0  0  0  0  0  0  0  0  0  0  # atno 10718 bound_to 10713
  154.3639  135.6110  153.5705 H   0  0  0  0  0  0  0  0  0  0  0  0  # atno 10763 bound_to 10752
  152.9792  135.5822  154.4601 H   0  0  0  0  0  0  0  0  0  0  0  0  # atno 10764 bound_to 10752
  154.4343  135.2848  155.1868 H   0  0  0  0  0  0  0  0  0  0  0  0  # atno 10765 bound_to 10752
  140.9800  133.7061  156.1668 H   0  0  0  0  0  0  0  0  0  0  0  0  # atno 11005 bound_to 11000
  145.9687  139.2854  143.1111 LP  0  0  0  0  0  0  0  0  0  0  0  0  # atno 17320 bound_to 7965
  145.9140  140.9161  143.0439 LP  0  0  0  0  0  0  0  0  0  0  0  0  # atno 17321 bound_to 7965
  140.7292  143.2670  151.4012 LP  0  0  0  0  0  0  0  0  0  0  0  0  # atno 17342 bound_to 10162
  139.6061  144.1194  152.2251 LP  0  0  0  0  0  0  0  0  0  0  0  0  # atno 17343 bound_to 10162
  157.2436  131.0531  151.2422 LP  0  0  0  0  0  0  0  0  0  0  0  0  # atno 17370 bound_to 10713
  157.3597  130.7125  149.6493 LP  0  0  0  0  0  0  0  0  0  0  0  0  # atno 17371 bound_to 10713
  140.7200  134.4368  157.5575 LP  0  0  0  0  0  0  0  0  0  0  0  0  # atno 17394 bound_to 11000
  139.8946  134.8702  156.2168 LP  0  0  0  0  0  0  0  0  0  0  0  0  # atno 17395 bound_to 11000

$$$$
