AV-unprocessed.smi:1041|AV-procd|sdf|4529|dock3
  -GOLD-   22720 2553D 1   1.00000     0.00000
 Structure written by MMmdl.
 53 54  0  0  0  0  0  0  0  0  2 V2000
  151.6054  145.5981  160.3947 C   0  0  0  0  0  0  0  0  0  0  0  0
  151.8767  144.3745  159.7336 O   0  0  0  0  0  0  0  0  0  0  0  0
  150.7730  143.9094  158.9748 C   0  0  0  0  0  0  0  0  0  0  0  0
  151.3012  143.1665  157.7378 C   0  0  0  0  0  0  0  0  0  0  0  0
  150.2073  142.6172  156.8972 N   0  3  2  0  0  0  0  0  0  0  0  0
  149.2160  141.8494  157.6943 C   0  0  0  0  0  0  0  0  0  0  0  0
  148.0254  141.3986  156.8269 C   0  0  0  0  0  0  0  0  0  0  0  0
  148.4731  140.5902  155.5947 C   0  0  2  0  0  0  0  0  0  0  0  0
  148.9244  139.1593  155.9718 C   0  0  0  0  0  0  0  0  0  0  0  0
  148.1283  138.6091  157.0634 N   0  0  0  0  0  0  0  0  0  0  0  0
  148.3353  137.4247  157.6598 C   0  0  0  0  0  0  0  0  0  0  0  0
  149.2800  136.6826  157.3935 O   0  0  0  0  0  0  0  0  0  0  0  0
  147.2904  136.9985  158.6897 C   0  0  0  0  0  0  0  0  0  0  0  0
  147.6025  135.6864  159.4065 C   0  0  0  0  0  0  0  0  0  0  0  0
  147.7342  134.4921  158.7575 C   0  0  0  0  0  0  0  0  0  0  0  0
  147.5948  134.3490  157.2518 C   0  0  0  0  0  0  0  0  0  0  0  0
  148.0134  133.3065  159.4513 N   0  0  0  0  0  0  0  0  0  0  0  0
  148.1456  133.3532  160.7359 C   0  0  0  0  0  0  0  0  0  0  0  0
  148.4501  132.1465  161.5983 C   0  0  0  0  0  0  0  0  0  0  0  0
  148.0160  134.5375  161.4590 N   0  0  0  0  0  0  0  0  0  0  0  0
  147.7452  135.7260  160.8749 C   0  0  0  0  0  0  0  0  0  0  0  0
  147.6232  136.7416  161.5582 O   0  0  0  0  0  0  0  0  0  0  0  0
  149.5279  141.4127  154.8247 C   0  0  0  0  0  0  0  0  0  0  0  0
  150.6964  141.8385  155.7289 C   0  0  0  0  0  0  0  0  0  0  0  0
  148.1248  134.5130  162.4624 H   0  0  0  0  0  0  0  0  0  0  0  0
  152.4843  145.9137  160.9566 H   0  0  0  0  0  0  0  0  0  0  0  0
  150.7778  145.4909  161.0974 H   0  0  0  0  0  0  0  0  0  0  0  0
  151.3604  146.3866  159.6818 H   0  0  0  0  0  0  0  0  0  0  0  0
  150.1271  143.2733  159.5805 H   0  0  0  0  0  0  0  0  0  0  0  0
  150.1701  144.7604  158.6544 H   0  0  0  0  0  0  0  0  0  0  0  0
  151.9312  143.8233  157.1364 H   0  0  0  0  0  0  0  0  0  0  0  0
  151.9449  142.3561  158.0829 H   0  0  0  0  0  0  0  0  0  0  0  0
  149.7037  140.9913  158.1582 H   0  0  0  0  0  0  0  0  0  0  0  0
  148.8423  142.4723  158.5080 H   0  0  0  0  0  0  0  0  0  0  0  0
  147.3242  140.8176  157.4269 H   0  0  0  0  0  0  0  0  0  0  0  0
  147.4770  142.2813  156.4948 H   0  0  0  0  0  0  0  0  0  0  0  0
  147.6059  140.4810  154.9416 H   0  0  0  0  0  0  0  0  0  0  0  0
  148.9046  138.4987  155.1047 H   0  0  0  0  0  0  0  0  0  0  0  0
  149.9627  139.1813  156.3038 H   0  0  0  0  0  0  0  0  0  0  0  0
  147.3237  139.1467  157.3539 H   0  0  0  0  0  0  0  0  0  0  0  0
  147.1875  137.8003  159.4206 H   0  0  0  0  0  0  0  0  0  0  0  0
  146.3119  136.9402  158.2101 H   0  0  0  0  0  0  0  0  0  0  0  0
  148.3620  134.9292  156.7386 H   0  0  0  0  0  0  0  0  0  0  0  0
  146.6161  134.6944  156.9201 H   0  0  0  0  0  0  0  0  0  0  0  0
  147.7022  133.3091  156.9413 H   0  0  0  0  0  0  0  0  0  0  0  0
  147.6651  131.3982  161.4873 H   0  0  0  0  0  0  0  0  0  0  0  0
  148.5220  132.4125  162.6539 H   0  0  0  0  0  0  0  0  0  0  0  0
  149.3966  131.6985  161.2947 H   0  0  0  0  0  0  0  0  0  0  0  0
  149.9011  140.8663  153.9586 H   0  0  0  0  0  0  0  0  0  0  0  0
  149.0538  142.3080  154.4206 H   0  0  0  0  0  0  0  0  0  0  0  0
  151.3911  142.4353  155.1396 H   0  0  0  0  0  0  0  0  0  0  0  0
  151.2516  140.9653  156.0738 H   0  0  0  0  0  0  0  0  0  0  0  0
  149.7082  143.4150  156.5297 H   0  0  0  0  0  0  0  0  0  0  0  0
  1  2  1  0  0  0  0
  1 26  1  0  0  0  0
  1 27  1  0  0  0  0
  1 28  1  0  0  0  0
  2  3  1  0  0  0  0
  3  4  1  0  0  0  0
  3 29  1  0  0  0  0
  3 30  1  0  0  0  0
  4  5  1  0  0  0  0
  4 31  1  0  0  0  0
  4 32  1  0  0  0  0
  5 24  1  0  0  0  0
  5  6  1  0  0  0  0
  5 53  1  0  0  0  0
  6  7  1  0  0  0  0
  6 33  1  0  0  0  0
  6 34  1  0  0  0  0
  7  8  1  0  0  0  0
  7 35  1  0  0  0  0
  7 36  1  0  0  0  0
  8  9  1  0  0  0  0
  8 23  1  0  0  0  0
  8 37  1  0  0  0  0
  9 10  1  0  0  0  0
  9 38  1  0  0  0  0
  9 39  1  0  0  0  0
 10 11  1  0  0  0  0
 10 40  1  0  0  0  0
 11 12  2  0  0  0  0
 11 13  1  0  0  0  0
 13 14  1  0  0  0  0
 13 41  1  0  0  0  0
 13 42  1  0  0  0  0
 14 21  1  0  0  0  0
 14 15  2  0  0  0  0
 15 16  1  0  0  0  0
 15 17  1  0  0  0  0
 16 43  1  0  0  0  0
 16 44  1  0  0  0  0
 16 45  1  0  0  0  0
 17 18  2  0  0  0  0
 18 19  1  0  0  0  0
 18 20  1  0  0  0  0
 19 46  1  0  0  0  0
 19 47  1  0  0  0  0
 19 48  1  0  0  0  0
 20 25  1  0  0  0  0
 20 21  1  0  0  0  0
 21 22  2  0  0  0  0
 23 24  1  0  0  0  0
 23 49  1  0  0  0  0
 23 50  1  0  0  0  0
 24 51  1  0  0  0  0
 24 52  1  0  0  0  0
M  CHG  1   5   1
M  END
> <s_m_source_file>
AV-unprocessed.smi

> <i_m_source_file_index>
1041

> <i_lp_mmshare_version>
43012

> <i_f3d_flags>
0

> <s_epik_input>
W0NIM11PW0NIMl1bQ0gyXU4xW0NIMl1bQ0gyXVtDSF0oW0NIMl1bQ0gyXTEpW0NIMl1bTkhdQyg9TylbQ0gyXWMyYyhbQ0gzXSluYyhbQ0gzXSlbbkhdYzI9Tw==

> <s_epik_cmdline>
J2VwaWtfcHl0aG9uJywgJy1waCcsICc3LjAnLCAnLXRuJywgJzgnLCAnLW1hJywgJzIwMCcsICctbWV0YWxfYmluZGluZycsICctaW1hZScsICc8aW5maWxlLm1hZT4nLCAnLW9tYWUnLCAnPG91dGZpbGUubWFlPic=

> <r_lp_tautomer_probability>
0.839158

> <r_epik_Ionization_Penalty>
0.00964357

> <r_epik_Ionization_Penalty_Charging>
0.00961423

> <r_epik_Ionization_Penalty_Neutral>
2.93415e-05

> <r_epik_State_Penalty>
0.0972512

> <r_epik_Charging_Adjusted_Penalty>
0.106865

> <i_epik_Tot_Q>
1

> <i_epik_Tot_abs_Q>
1

> <r_epik_Metal_State_Penalty>
0.270886

> <b_epik_Metal_Only>
0

> <s_lp_Force_Field>
OPLS_2005

> <r_lp_Energy>
21.6557

> <b_lp_Chiralities_Consistent>
1

> <s_lp_Variant>
AV-unprocessed.smi:1041-2

> <Gold.Version>
5.8.1

> <Gold.Id.Protein>
6NUR|6NUR_protein|mol2

> <Gold.PLP.Fitness>
42.6535

> <Gold.PLP.PLP>
-32.3322

> <Gold.PLP.part.hbond>
-3.0000

> <Gold.PLP.part.metal>
0.0000

> <Gold.PLP.part.buried>
-5.6537

> <Gold.PLP.part.nonpolar>
-22.8382

> <Gold.PLP.part.repulsive>
0.2002

> <Gold.PLP.ligand.clash>
0.0000

> <Gold.PLP.ligand.torsion>
0.4992

> <Gold.PLP.Chemscore.Hbond>
3.7280

> <Gold.PLP.Chemscore.CHOScore>
0.0000

> <Gold.PLP.Chemscore.Metal>
0.0000

> <Gold.Chemscore.Hbonds>
donor molecule, donor type, donor heavy atom, donor atom, acceptor molecule, acceptor atom, score
      L1  H     5    53       P1  8028  2.00
      P1  H  6931  6943       L1    22  0.84
      P1  H  6934  6947       L1    22  0.06

> <Gold.PLP.Chemscore.Internal.Correction>
0.1356

> <Gold.Rescore>
     Score         DG    S(hbond)    S(metal)    S(lipo)     H(rot)  DE(clash)    DE(int)     intcor
     15.64     -16.39       2.45        0.00      76.39       2.43       0.16       0.59       ----

> <Gold.Chemscore.Fitness>
15.6416

> <Gold.Chemscore.DG>
-16.3914

> <Gold.Chemscore.ZeroCoef>
-5.4800

> <Gold.Chemscore.Hbond>
2.4528

> <Gold.Chemscore.Metal>
0.0000

> <Gold.Chemscore.Lipo>
76.3893

> <Gold.Chemscore.Internal_Hbond>
0.0000

> <Gold.Chemscore.DEClash>
0.1574

> <Gold.Chemscore.DEInternal>
0.5924

> <Gold.Chemscore.Rot>
2.4291

> <Gold.Chemscore.Internal.Correction>
   9.000000E+99

> <Gold.Chemscore.Hbonds>
donor molecule, donor type, donor heavy atom, donor atom, acceptor molecule, acceptor atom, score
      L1  H     5    53       P1  8028  1.00
      P1  H  6931  6943       L1    22  0.82
      P1  H  6934  6947       L1    22  0.10

> <Gold.Chemscore.Hbond.Weighted>
-8.1925

> <Gold.Chemscore.Metal.Weighted>
-0.0000

> <Gold.Chemscore.Lipo.Weighted>
-8.9375

> <Gold.Chemscore.Internal_Hbond.Weighted>
0.0000

> <Gold.Chemscore.DEClash.Weighted>
0.1574

> <Gold.Chemscore.DEInternal.Weighted>
0.5924

> <Gold.Chemscore.Rot.Weighted>
6.2186

> <Gold.Chemscore.Internal.Correction.Weighted>
   9.000000E+99

> <Gold.Protein.RotatedTorsions>
[ 6907 6896 6895 6894 ] final  -38.91 input  -60.11 | X-H torsion
[ 7974 7965 7964 7962 ] final   66.15 input  175.53 | X-H torsion
[ 8008 7997 7996 7995 ] final -146.52 input   59.86 | X-H torsion
[ 10167 10162 10161 10158 ] final   94.00 input  -65.29 | X-H torsion
[ 10718 10713 10712 10709 ] final   55.66 input   66.30 | X-H torsion
[ 10763 10752 10751 10750 ] final -106.82 input  -60.55 | X-H torsion
[ 11005 11000 10999 10996 ] final  131.25 input  -57.11 | X-H torsion

> <Gold.Protein.ActiveResidues>
 VAL166  LYS551  ARG553  GLY616  TRP617  ASP618  TYR619  PRO620  LYS621  CYS622 
 ASP623  PHE694  ASN695  SER759  ASP760  ASP761  ALA762  ILE779  LEU786  VAL792 
 PHE793  MET794  SER795  GLU796  ALA797  LYS798  CYS799  TRP800  GLU811  SER814 

> <Gold.Protein.RotatedAtoms>
  150.9967  134.9289  159.7930 H   0  0  0  0  0  0  0  0  0  0  0  0  # atno 6907 bound_to 6896
  152.5266  134.3209  159.9158 H   0  0  0  0  0  0  0  0  0  0  0  0  # atno 6908 bound_to 6896
  151.3215  133.3996  159.2689 H   0  0  0  0  0  0  0  0  0  0  0  0  # atno 6909 bound_to 6896
  145.8300  139.3133  143.0993 H   0  0  0  0  0  0  0  0  0  0  0  0  # atno 7974 bound_to 7965
  155.5607  140.0625  157.2829 H   0  0  0  0  0  0  0  0  0  0  0  0  # atno 8008 bound_to 7997
  154.4391  140.1886  156.0825 H   0  0  0  0  0  0  0  0  0  0  0  0  # atno 8009 bound_to 7997
  156.0449  140.3291  155.7288 H   0  0  0  0  0  0  0  0  0  0  0  0  # atno 8010 bound_to 7997
  139.8126  144.6767  150.9621 H   0  0  0  0  0  0  0  0  0  0  0  0  # atno 10167 bound_to 10162
  157.5364  130.8666  149.8759 H   0  0  0  0  0  0  0  0  0  0  0  0  # atno 10718 bound_to 10713
  154.8036  135.4698  154.0337 H   0  0  0  0  0  0  0  0  0  0  0  0  # atno 10763 bound_to 10752
  153.1823  135.6842  153.8468 H   0  0  0  0  0  0  0  0  0  0  0  0  # atno 10764 bound_to 10752
  153.8014  135.3229  155.3368 H   0  0  0  0  0  0  0  0  0  0  0  0  # atno 10765 bound_to 10752
  139.9719  134.9575  156.9411 H   0  0  0  0  0  0  0  0  0  0  0  0  # atno 11005 bound_to 11000
  145.9581  140.8857  143.0225 LP  0  0  0  0  0  0  0  0  0  0  0  0  # atno 17320 bound_to 7965
  144.6740  140.1774  143.7409 LP  0  0  0  0  0  0  0  0  0  0  0  0  # atno 17321 bound_to 7965
  140.7817  143.4170  151.0901 LP  0  0  0  0  0  0  0  0  0  0  0  0  # atno 17342 bound_to 10162
  139.7836  143.8320  152.3141 LP  0  0  0  0  0  0  0  0  0  0  0  0  # atno 17343 bound_to 10162
  156.0462  130.3727  150.1313 LP  0  0  0  0  0  0  0  0  0  0  0  0  # atno 17370 bound_to 10713
  156.9495  130.9770  151.3501 LP  0  0  0  0  0  0  0  0  0  0  0  0  # atno 17371 bound_to 10713
  140.5275  134.0846  155.7307 LP  0  0  0  0  0  0  0  0  0  0  0  0  # atno 17394 bound_to 11000
  141.1398  133.9158  157.2351 LP  0  0  0  0  0  0  0  0  0  0  0  0  # atno 17395 bound_to 11000

$$$$
