AV-unprocessed.smi:3188|AV-procd|sdf|12183|dock2
  -GOLD-   2272018 23D 1   1.00000     0.00000
 Structure written by MMmdl.
 40 41  0  0  0  0  0  0  0  0  2 V2000
  151.9844  144.0198  158.0133 C   0  0  0  0  0  0  0  0  0  0  0  0
  152.3544  143.4679  159.3803 C   0  0  0  0  0  0  0  0  0  0  0  0
  152.0907  144.1694  160.5005 C   0  0  0  0  0  0  0  0  0  0  0  0
  152.4718  143.7356  161.9051 C   0  0  0  0  0  0  0  0  0  0  0  0
  153.0351  142.3063  161.9640 C   0  0  0  0  0  0  0  0  0  0  0  0
  153.9057  141.9935  160.7346 C   0  0  1  0  0  0  0  0  0  0  0  0
  154.6659  140.6645  160.8874 C   0  0  0  0  0  0  0  0  0  0  0  0
  153.0810  142.1164  159.4217 C   0  0  1  0  0  0  0  0  0  0  0  0
  152.1161  140.9216  159.2002 C   0  0  0  0  0  0  0  0  0  0  0  0
  152.4160  140.1561  157.9742 N   0  3  0  0  0  0  0  0  0  0  0  0
  152.1415  138.7106  158.0848 C   0  0  0  0  0  0  0  0  0  0  0  0
  152.5988  137.9651  156.8230 C   0  0  0  0  0  0  0  0  0  0  0  0
  151.8285  138.3571  155.6588 N   0  0  0  0  0  0  0  0  0  0  0  0
  151.2967  137.5565  154.6690 C   0  0  0  0  0  0  0  0  0  0  0  0
  150.6806  138.4480  153.8375 C   0  0  0  0  0  0  0  0  0  0  0  0
  150.8603  139.7325  154.3479 N   0  0  0  0  0  0  0  0  0  0  0  0
  151.5537  139.6652  155.4405 N   0  0  0  0  0  0  0  0  0  0  0  0
  152.8330  143.9564  157.3318 H   0  0  0  0  0  0  0  0  0  0  0  0
  151.6937  145.0688  158.0810 H   0  0  0  0  0  0  0  0  0  0  0  0
  151.1447  143.4811  157.5777 H   0  0  0  0  0  0  0  0  0  0  0  0
  151.6009  145.1297  160.4265 H   0  0  0  0  0  0  0  0  0  0  0  0
  153.2206  144.4391  162.2707 H   0  0  0  0  0  0  0  0  0  0  0  0
  151.6071  143.8265  162.5628 H   0  0  0  0  0  0  0  0  0  0  0  0
  153.6118  142.1845  162.8817 H   0  0  0  0  0  0  0  0  0  0  0  0
  152.2149  141.5907  162.0273 H   0  0  0  0  0  0  0  0  0  0  0  0
  154.6754  142.7662  160.6914 H   0  0  0  0  0  0  0  0  0  0  0  0
  153.9950  139.8289  161.0863 H   0  0  0  0  0  0  0  0  0  0  0  0
  155.3668  140.7161  161.7211 H   0  0  0  0  0  0  0  0  0  0  0  0
  155.2417  140.4339  159.9908 H   0  0  0  0  0  0  0  0  0  0  0  0
  153.8028  142.1164  158.6034 H   0  0  0  0  0  0  0  0  0  0  0  0
  152.1778  140.2188  160.0299 H   0  0  0  0  0  0  0  0  0  0  0  0
  151.0845  141.2724  159.1556 H   0  0  0  0  0  0  0  0  0  0  0  0
  151.8576  140.5316  157.2208 H   0  0  0  0  0  0  0  0  0  0  0  0
  152.6565  138.3119  158.9601 H   0  0  0  0  0  0  0  0  0  0  0  0
  151.0723  138.5619  158.2436 H   0  0  0  0  0  0  0  0  0  0  0  0
  153.6540  138.1587  156.6232 H   0  0  0  0  0  0  0  0  0  0  0  0
  152.4944  136.8879  156.9598 H   0  0  0  0  0  0  0  0  0  0  0  0
  151.3973  136.4814  154.6429 H   0  0  0  0  0  0  0  0  0  0  0  0
  150.1292  138.2751  152.9248 H   0  0  0  0  0  0  0  0  0  0  0  0
  153.3921  140.2830  157.7475 H   0  0  0  0  0  0  0  0  0  0  0  0
  1  2  1  0  0  0  0
  1 18  1  0  0  0  0
  1 19  1  0  0  0  0
  1 20  1  0  0  0  0
  2  8  1  0  0  0  0
  2  3  2  0  0  0  0
  3  4  1  0  0  0  0
  3 21  1  0  0  0  0
  4  5  1  0  0  0  0
  4 22  1  0  0  0  0
  4 23  1  0  0  0  0
  5  6  1  0  0  0  0
  5 24  1  0  0  0  0
  5 25  1  0  0  0  0
  6  7  1  0  0  0  0
  6  8  1  0  0  0  0
  6 26  1  0  0  0  0
  7 27  1  0  0  0  0
  7 28  1  0  0  0  0
  7 29  1  0  0  0  0
  8  9  1  0  0  0  0
  8 30  1  0  0  0  0
  9 10  1  0  0  0  0
  9 31  1  0  0  0  0
  9 32  1  0  0  0  0
 10 11  1  0  0  0  0
 10 33  1  0  0  0  0
 10 40  1  0  0  0  0
 11 12  1  0  0  0  0
 11 34  1  0  0  0  0
 11 35  1  0  0  0  0
 12 13  1  0  0  0  0
 12 36  1  0  0  0  0
 12 37  1  0  0  0  0
 13 17  1  0  0  0  0
 13 14  1  0  0  0  0
 14 15  2  0  0  0  0
 14 38  1  0  0  0  0
 15 16  1  0  0  0  0
 15 39  1  0  0  0  0
 16 17  2  0  0  0  0
M  CHG  1  10   1
M  END
> <s_m_source_file>
AV-unprocessed.smi

> <i_m_source_file_index>
3188

> <i_lp_mmshare_version>
43012

> <i_f3d_flags>
0

> <s_epik_input>
W0NIM11DMT1bQ0hdW0NIMl1bQ0gyXVtDQEBIXShbQ0gzXSlbQ0BIXTFbQ0gyXVtOSF1bQ0gyXVtDSDJdbjJbY0hdW2NIXW5uMg==

> <s_epik_cmdline>
J2VwaWtfcHl0aG9uJywgJy1waCcsICc3LjAnLCAnLXRuJywgJzgnLCAnLW1hJywgJzIwMCcsICctbWV0YWxfYmluZGluZycsICctaW1hZScsICc8aW5maWxlLm1hZT4nLCAnLW9tYWUnLCAnPG91dGZpbGUubWFlPic=

> <r_lp_tautomer_probability>
1

> <r_epik_Ionization_Penalty>
0.007268

> <r_epik_Ionization_Penalty_Charging>
0.00726786

> <r_epik_Ionization_Penalty_Neutral>
1.34882e-07

> <r_epik_State_Penalty>
0.00542069

> <r_epik_Charging_Adjusted_Penalty>
0.0126886

> <i_epik_Tot_Q>
1

> <i_epik_Tot_abs_Q>
1

> <r_epik_Metal_State_Penalty>
-0

> <b_epik_Metal_Only>
0

> <s_lp_Force_Field>
OPLS_2005

> <r_lp_Energy>
14.7496

> <b_lp_Chiralities_Consistent>
1

> <s_lp_Variant>
AV-unprocessed.smi:3188-1

> <Gold.Version>
5.8.1

> <Gold.Id.Protein>
6NUR|6NUR_protein|mol2

> <Gold.PLP.Fitness>
49.9776

> <Gold.PLP.PLP>
-43.4928

> <Gold.PLP.part.hbond>
-1.3651

> <Gold.PLP.part.metal>
0.0000

> <Gold.PLP.part.buried>
-5.5954

> <Gold.PLP.part.nonpolar>
-36.1457

> <Gold.PLP.part.repulsive>
0.2351

> <Gold.PLP.ligand.clash>
0.0000

> <Gold.PLP.ligand.torsion>
1.1977

> <Gold.PLP.Chemscore.Hbond>
1.0000

> <Gold.PLP.Chemscore.CHOScore>
1.9298

> <Gold.PLP.Chemscore.Metal>
0.0000

> <Gold.Chemscore.Hbonds>
donor molecule, donor type, donor heavy atom, donor atom, acceptor molecule, acceptor atom, score
      P1  H  7989  7998       L1    16  1.00
      L1  C    15    39       P1  7948  1.00
      L1  C    15    39       P1  7949  0.02
      L1  C    15    39       P1  7957  0.92

> <Gold.PLP.Chemscore.Internal.Correction>
0.0907

> <Gold.Rescore>
     Score         DG    S(hbond)    S(metal)    S(lipo)     H(rot)  DE(clash)    DE(int)     intcor
     17.40     -19.85       1.32        0.00     124.01       1.78       0.11       2.34       ----

> <Gold.Chemscore.Fitness>
17.3964

> <Gold.Chemscore.DG>
-19.8452

> <Gold.Chemscore.ZeroCoef>
-5.4800

> <Gold.Chemscore.Hbond>
1.3218

> <Gold.Chemscore.Metal>
0.0000

> <Gold.Chemscore.Lipo>
124.0135

> <Gold.Chemscore.Internal_Hbond>
0.0000

> <Gold.Chemscore.DEClash>
0.1130

> <Gold.Chemscore.DEInternal>
2.3359

> <Gold.Chemscore.Rot>
1.7809

> <Gold.Chemscore.Internal.Correction>
   9.000000E+99

> <Gold.Chemscore.Hbonds>
donor molecule, donor type, donor heavy atom, donor atom, acceptor molecule, acceptor atom, score
      P1  H  7989  7998       L1    16  0.38

> <Gold.Chemscore.Hbond.Weighted>
-4.4147

> <Gold.Chemscore.Metal.Weighted>
-0.0000

> <Gold.Chemscore.Lipo.Weighted>
-14.5096

> <Gold.Chemscore.Internal_Hbond.Weighted>
0.0000

> <Gold.Chemscore.DEClash.Weighted>
0.1130

> <Gold.Chemscore.DEInternal.Weighted>
2.3359

> <Gold.Chemscore.Rot.Weighted>
4.5590

> <Gold.Chemscore.Internal.Correction.Weighted>
   9.000000E+99

> <Gold.Protein.RotatedTorsions>
[ 6907 6896 6895 6894 ] final  147.38 input  -60.11 | X-H torsion
[ 7974 7965 7964 7962 ] final -177.25 input  175.53 | X-H torsion
[ 8008 7997 7996 7995 ] final   55.29 input   59.86 | X-H torsion
[ 10167 10162 10161 10158 ] final  -64.03 input  -65.29 | X-H torsion
[ 10718 10713 10712 10709 ] final  125.10 input   66.30 | X-H torsion
[ 10763 10752 10751 10750 ] final  168.85 input  -60.55 | X-H torsion
[ 11005 11000 10999 10996 ] final  142.72 input  -57.11 | X-H torsion

> <Gold.Protein.ActiveResidues>
 VAL166  LYS551  ARG553  GLY616  TRP617  ASP618  TYR619  PRO620  LYS621  CYS622 
 ASP623  PHE694  ASN695  SER759  ASP760  ASP761  ALA762  ILE779  LEU786  VAL792 
 PHE793  MET794  SER795  GLU796  ALA797  LYS798  CYS799  TRP800  GLU811  SER814 

> <Gold.Protein.RotatedAtoms>
  152.1555  133.4548  159.4834 H   0  0  0  0  0  0  0  0  0  0  0  0  # atno 6907 bound_to 6896
  150.6900  134.2136  159.4378 H   0  0  0  0  0  0  0  0  0  0  0  0  # atno 6908 bound_to 6896
  152.0035  134.9915  160.0616 H   0  0  0  0  0  0  0  0  0  0  0  0  # atno 6909 bound_to 6896
  144.7127  140.1047  143.6414 H   0  0  0  0  0  0  0  0  0  0  0  0  # atno 7974 bound_to 7965
  155.4987  140.3474  155.4367 H   0  0  0  0  0  0  0  0  0  0  0  0  # atno 8008 bound_to 7997
  156.0928  140.1415  156.9598 H   0  0  0  0  0  0  0  0  0  0  0  0  # atno 8009 bound_to 7997
  154.4645  140.0922  156.6961 H   0  0  0  0  0  0  0  0  0  0  0  0  # atno 8010 bound_to 7997
  140.5829  143.2330  151.6303 H   0  0  0  0  0  0  0  0  0  0  0  0  # atno 10167 bound_to 10162
  157.5531  131.1093  150.8668 H   0  0  0  0  0  0  0  0  0  0  0  0  # atno 10718 bound_to 10713
  154.3746  135.2753  155.2246 H   0  0  0  0  0  0  0  0  0  0  0  0  # atno 10763 bound_to 10752
  154.4379  135.5961  153.6114 H   0  0  0  0  0  0  0  0  0  0  0  0  # atno 10764 bound_to 10752
  152.9837  135.6011  154.3981 H   0  0  0  0  0  0  0  0  0  0  0  0  # atno 10765 bound_to 10752
  140.0499  134.9261  157.0997 H   0  0  0  0  0  0  0  0  0  0  0  0  # atno 11005 bound_to 11000
  145.9507  139.2731  143.1214 LP  0  0  0  0  0  0  0  0  0  0  0  0  # atno 17320 bound_to 7965
  145.9326  140.9037  143.0348 LP  0  0  0  0  0  0  0  0  0  0  0  0  # atno 17321 bound_to 7965
  139.5180  144.3296  152.0838 LP  0  0  0  0  0  0  0  0  0  0  0  0  # atno 17342 bound_to 10162
  140.2449  144.4230  150.6245 LP  0  0  0  0  0  0  0  0  0  0  0  0  # atno 17343 bound_to 10162
  156.9187  130.5307  149.5279 LP  0  0  0  0  0  0  0  0  0  0  0  0  # atno 17370 bound_to 10713
  156.0594  130.5649  150.9161 LP  0  0  0  0  0  0  0  0  0  0  0  0  # atno 17371 bound_to 10713
  140.3934  134.2159  155.7165 LP  0  0  0  0  0  0  0  0  0  0  0  0  # atno 17394 bound_to 11000
  141.1925  133.8172  157.0837 LP  0  0  0  0  0  0  0  0  0  0  0  0  # atno 17395 bound_to 11000

$$$$
