AV-unprocessed.smi:2109|AV-procd|sdf|8606|dock5
  -GOLD-   2272011343D 1   1.00000     0.00000
 Structure written by MMmdl.
 45 46  0  0  0  0  0  0  0  0  1 V2000
  145.5388  135.7421  151.0514 C   0  0  0  0  0  0  0  0  0  0  0  0
  145.8180  136.9341  151.9828 C   0  0  0  0  0  0  0  0  0  0  0  0
  144.6187  137.1957  152.9059 C   0  0  0  0  0  0  0  0  0  0  0  0
  146.1962  138.2140  151.2061 C   0  0  0  0  0  0  0  0  0  0  0  0
  147.2641  138.9759  151.8464 N   0  0  0  0  0  0  0  0  0  0  0  0
  147.2437  139.4114  153.1139 C   0  0  0  0  0  0  0  0  0  0  0  0
  146.3234  139.1962  153.9029 O   0  0  0  0  0  0  0  0  0  0  0  0
  148.3446  140.1118  153.4188 N   0  0  0  0  0  0  0  0  0  0  0  0
  148.6174  140.6938  154.7276 C   0  0  0  0  0  0  0  0  0  0  0  0
  149.9818  140.3092  155.2732 C   0  0  0  0  0  0  0  0  0  0  0  0
  150.7418  139.2969  154.6562 C   0  0  0  0  0  0  0  0  0  0  0  0
  152.0016  138.9846  155.1988 C   0  0  0  0  0  0  0  0  0  0  0  0
  152.5123  139.5989  156.2866 N   0  0  0  0  0  0  0  0  0  0  0  0
  151.7838  140.5662  156.8974 C   0  0  0  0  0  0  0  0  0  0  0  0
  152.3236  141.1890  158.0440 N   0  0  0  0  0  0  0  0  0  0  0  0
  152.7513  140.3326  159.1492 C   0  0  0  0  0  0  0  0  0  0  0  0
  153.5532  141.1453  160.1795 C   0  0  0  0  0  0  0  0  0  0  0  0
  152.7823  142.2595  160.6161 O   0  0  0  0  0  0  0  0  0  0  0  0
  152.4710  143.1404  159.5420 C   0  0  0  0  0  0  0  0  0  0  0  0
  151.6337  142.3993  158.4854 C   0  0  0  0  0  0  0  0  0  0  0  0
  150.5124  140.9538  156.4105 C   0  0  0  0  0  0  0  0  0  0  0  0
  144.7168  135.9574  150.3680 H   0  0  0  0  0  0  0  0  0  0  0  0
  145.2705  134.8540  151.6240 H   0  0  0  0  0  0  0  0  0  0  0  0
  146.4134  135.4872  150.4528 H   0  0  0  0  0  0  0  0  0  0  0  0
  146.6589  136.6618  152.6218 H   0  0  0  0  0  0  0  0  0  0  0  0
  143.7319  137.4740  152.3354 H   0  0  0  0  0  0  0  0  0  0  0  0
  144.8311  138.0038  153.6066 H   0  0  0  0  0  0  0  0  0  0  0  0
  144.3733  136.3102  153.4928 H   0  0  0  0  0  0  0  0  0  0  0  0
  146.5268  137.9533  150.2002 H   0  0  0  0  0  0  0  0  0  0  0  0
  145.3211  138.8546  151.0831 H   0  0  0  0  0  0  0  0  0  0  0  0
  148.0678  139.1990  151.2778 H   0  0  0  0  0  0  0  0  0  0  0  0
  149.0476  140.2378  152.7056 H   0  0  0  0  0  0  0  0  0  0  0  0
  148.5789  141.7792  154.6331 H   0  0  0  0  0  0  0  0  0  0  0  0
  147.8326  140.4191  155.4348 H   0  0  0  0  0  0  0  0  0  0  0  0
  150.3763  138.7759  153.7834 H   0  0  0  0  0  0  0  0  0  0  0  0
  152.6158  138.2187  154.7485 H   0  0  0  0  0  0  0  0  0  0  0  0
  151.8746  139.8902  159.6244 H   0  0  0  0  0  0  0  0  0  0  0  0
  153.3686  139.5146  158.7754 H   0  0  0  0  0  0  0  0  0  0  0  0
  153.7966  140.5229  161.0406 H   0  0  0  0  0  0  0  0  0  0  0  0
  154.4991  141.4863  159.7555 H   0  0  0  0  0  0  0  0  0  0  0  0
  151.9130  143.9917  159.9326 H   0  0  0  0  0  0  0  0  0  0  0  0
  153.3886  143.5362  159.1033 H   0  0  0  0  0  0  0  0  0  0  0  0
  151.4333  143.0761  157.6563 H   0  0  0  0  0  0  0  0  0  0  0  0
  150.6671  142.1188  158.9059 H   0  0  0  0  0  0  0  0  0  0  0  0
  149.9482  141.7397  156.8900 H   0  0  0  0  0  0  0  0  0  0  0  0
  1  2  1  0  0  0  0
  1 22  1  0  0  0  0
  1 23  1  0  0  0  0
  1 24  1  0  0  0  0
  2  3  1  0  0  0  0
  2  4  1  0  0  0  0
  2 25  1  0  0  0  0
  3 26  1  0  0  0  0
  3 27  1  0  0  0  0
  3 28  1  0  0  0  0
  4  5  1  0  0  0  0
  4 29  1  0  0  0  0
  4 30  1  0  0  0  0
  5  6  1  0  0  0  0
  5 31  1  0  0  0  0
  6  7  2  0  0  0  0
  6  8  1  0  0  0  0
  8  9  1  0  0  0  0
  8 32  1  0  0  0  0
  9 10  1  0  0  0  0
  9 33  1  0  0  0  0
  9 34  1  0  0  0  0
 10 21  1  0  0  0  0
 10 11  2  0  0  0  0
 11 12  1  0  0  0  0
 11 35  1  0  0  0  0
 12 13  2  0  0  0  0
 12 36  1  0  0  0  0
 13 14  1  0  0  0  0
 14 15  1  0  0  0  0
 14 21  2  0  0  0  0
 15 20  1  0  0  0  0
 15 16  1  0  0  0  0
 16 17  1  0  0  0  0
 16 37  1  0  0  0  0
 16 38  1  0  0  0  0
 17 18  1  0  0  0  0
 17 39  1  0  0  0  0
 17 40  1  0  0  0  0
 18 19  1  0  0  0  0
 19 20  1  0  0  0  0
 19 41  1  0  0  0  0
 19 42  1  0  0  0  0
 20 43  1  0  0  0  0
 20 44  1  0  0  0  0
 21 45  1  0  0  0  0
M  END
> <s_m_source_file>
AV-unprocessed.smi

> <i_m_source_file_index>
2109

> <i_lp_mmshare_version>
43012

> <i_f3d_flags>
0

> <s_epik_input>
W0NIM11bQ0hdKFtDSDNdKVtDSDJdW05IXUMoPU8pW05IXVtDSDJdYzFbY0hdW2NIXW5jKFtjSF0xKU4yW0NIMl1bQ0gyXU9bQ0gyXVtDSDJdMg==

> <s_epik_cmdline>
J2VwaWtfcHl0aG9uJywgJy1waCcsICc3LjAnLCAnLXRuJywgJzgnLCAnLW1hJywgJzIwMCcsICctbWV0YWxfYmluZGluZycsICctaW1hZScsICc8aW5maWxlLm1hZT4nLCAnLW9tYWUnLCAnPG91dGZpbGUubWFlPic=

> <r_lp_tautomer_probability>
1

> <r_epik_Ionization_Penalty>
0.012582

> <r_epik_Ionization_Penalty_Charging>
0

> <r_epik_Ionization_Penalty_Neutral>
0.012582

> <r_epik_State_Penalty>
0.00970236

> <r_epik_Charging_Adjusted_Penalty>
0.00970236

> <i_epik_Tot_Q>
0

> <i_epik_Tot_abs_Q>
0

> <r_epik_Metal_State_Penalty>
0.00950075

> <b_epik_Metal_Only>
0

> <s_lp_Force_Field>
OPLS_2005

> <r_lp_Energy>
12.0327

> <b_lp_Chiralities_Consistent>
1

> <s_lp_Variant>
AV-unprocessed.smi:2109-1

> <Gold.Version>
5.8.1

> <Gold.Id.Protein>
6NUR|6NUR_protein|mol2

> <Gold.PLP.Fitness>
49.3263

> <Gold.PLP.PLP>
-41.6965

> <Gold.PLP.part.hbond>
-3.4586

> <Gold.PLP.part.metal>
0.0000

> <Gold.PLP.part.buried>
-1.4921

> <Gold.PLP.part.nonpolar>
-37.3256

> <Gold.PLP.part.repulsive>
0.3756

> <Gold.PLP.ligand.clash>
0.0000

> <Gold.PLP.ligand.torsion>
0.8465

> <Gold.PLP.Chemscore.Hbond>
2.9920

> <Gold.PLP.Chemscore.CHOScore>
0.0000

> <Gold.PLP.Chemscore.Metal>
0.0000

> <Gold.Chemscore.Hbonds>
donor molecule, donor type, donor heavy atom, donor atom, acceptor molecule, acceptor atom, score
      L1  H     5    31       P1  7957  0.99
      L1  H     8    32       P1  7957  1.00
      P1  H  7997  8010       L1    13  1.00

> <Gold.PLP.Chemscore.Internal.Correction>
0.3467

> <Gold.Rescore>
     Score         DG    S(hbond)    S(metal)    S(lipo)     H(rot)  DE(clash)    DE(int)     intcor
     19.11     -21.62       2.67        0.00     100.22       1.77       1.54       0.97       ----

> <Gold.Chemscore.Fitness>
19.1109

> <Gold.Chemscore.DG>
-21.6170

> <Gold.Chemscore.ZeroCoef>
-5.4800

> <Gold.Chemscore.Hbond>
2.6744

> <Gold.Chemscore.Metal>
0.0000

> <Gold.Chemscore.Lipo>
100.2210

> <Gold.Chemscore.Internal_Hbond>
0.0000

> <Gold.Chemscore.DEClash>
1.5407

> <Gold.Chemscore.DEInternal>
0.9654

> <Gold.Chemscore.Rot>
1.7662

> <Gold.Chemscore.Internal.Correction>
   9.000000E+99

> <Gold.Chemscore.Hbonds>
donor molecule, donor type, donor heavy atom, donor atom, acceptor molecule, acceptor atom, score
      L1  H     5    31       P1  7957  0.65
      L1  H     8    32       P1  7957  0.96
      P1  H  7997  8010       L1    13  0.66

> <Gold.Chemscore.Hbond.Weighted>
-8.9325

> <Gold.Chemscore.Metal.Weighted>
-0.0000

> <Gold.Chemscore.Lipo.Weighted>
-11.7259

> <Gold.Chemscore.Internal_Hbond.Weighted>
0.0000

> <Gold.Chemscore.DEClash.Weighted>
1.5407

> <Gold.Chemscore.DEInternal.Weighted>
0.9654

> <Gold.Chemscore.Rot.Weighted>
4.5214

> <Gold.Chemscore.Internal.Correction.Weighted>
   9.000000E+99

> <Gold.Protein.RotatedTorsions>
[ 6907 6896 6895 6894 ] final  -53.64 input  -60.11 | X-H torsion
[ 7974 7965 7964 7962 ] final  125.44 input  175.53 | X-H torsion
[ 8008 7997 7996 7995 ] final   86.23 input   59.86 | X-H torsion
[ 10167 10162 10161 10158 ] final  113.49 input  -65.29 | X-H torsion
[ 10718 10713 10712 10709 ] final  -12.79 input   66.30 | X-H torsion
[ 10763 10752 10751 10750 ] final  174.88 input  -60.55 | X-H torsion
[ 11005 11000 10999 10996 ] final  -45.18 input  -57.11 | X-H torsion

> <Gold.Protein.ActiveResidues>
 VAL166  LYS551  ARG553  GLY616  TRP617  ASP618  TYR619  PRO620  LYS621  CYS622 
 ASP623  PHE694  ASN695  SER759  ASP760  ASP761  ALA762  ILE779  LEU786  VAL792 
 PHE793  MET794  SER795  GLU796  ALA797  LYS798  CYS799  TRP800  GLU811  SER814 

> <Gold.Protein.RotatedAtoms>
  150.8409  134.7700  159.6930 H   0  0  0  0  0  0  0  0  0  0  0  0  # atno 6907 bound_to 6896
  152.4496  134.5418  159.9851 H   0  0  0  0  0  0  0  0  0  0  0  0  # atno 6908 bound_to 6896
  151.5558  133.3372  159.2997 H   0  0  0  0  0  0  0  0  0  0  0  0  # atno 6909 bound_to 6896
  145.0729  139.3716  143.4948 H   0  0  0  0  0  0  0  0  0  0  0  0  # atno 7974 bound_to 7965
  155.9601  140.3394  155.6483 H   0  0  0  0  0  0  0  0  0  0  0  0  # atno 8008 bound_to 7997
  155.6809  140.0737  157.2503 H   0  0  0  0  0  0  0  0  0  0  0  0  # atno 8009 bound_to 7997
  154.4141  140.1674  156.1968 H   0  0  0  0  0  0  0  0  0  0  0  0  # atno 8010 bound_to 7997
  139.6458  144.7126  151.2146 H   0  0  0  0  0  0  0  0  0  0  0  0  # atno 10167 bound_to 10162
  156.6395  130.4924  149.6100 H   0  0  0  0  0  0  0  0  0  0  0  0  # atno 10718 bound_to 10713
  154.4600  135.2767  155.1719 H   0  0  0  0  0  0  0  0  0  0  0  0  # atno 10763 bound_to 10752
  154.3511  135.6150  153.5647 H   0  0  0  0  0  0  0  0  0  0  0  0  # atno 10764 bound_to 10752
  152.9854  135.5811  154.4961 H   0  0  0  0  0  0  0  0  0  0  0  0  # atno 10765 bound_to 10752
  141.0498  133.6747  156.2976 H   0  0  0  0  0  0  0  0  0  0  0  0  # atno 11005 bound_to 11000
  146.3529  140.0483  142.8638 LP  0  0  0  0  0  0  0  0  0  0  0  0  # atno 17320 bound_to 7965
  145.1270  140.9496  143.4567 LP  0  0  0  0  0  0  0  0  0  0  0  0  # atno 17321 bound_to 7965
  140.7514  143.6234  150.8492 LP  0  0  0  0  0  0  0  0  0  0  0  0  # atno 17342 bound_to 10162
  139.9876  143.5882  152.2921 LP  0  0  0  0  0  0  0  0  0  0  0  0  # atno 17343 bound_to 10162
  156.2170  130.6714  151.1329 LP  0  0  0  0  0  0  0  0  0  0  0  0  # atno 17370 bound_to 10713
  157.7175  131.0701  150.6268 LP  0  0  0  0  0  0  0  0  0  0  0  0  # atno 17371 bound_to 10713
  140.6076  134.5491  157.5528 LP  0  0  0  0  0  0  0  0  0  0  0  0  # atno 17394 bound_to 11000
  139.9341  134.7907  156.0849 LP  0  0  0  0  0  0  0  0  0  0  0  0  # atno 17395 bound_to 11000

$$$$
