AV-unprocessed.smi:632|AV-procd|sdf|3127|dock2
  -GOLD-   22720 0 53D 1   1.00000     0.00000
 Structure written by MMmdl.
 42 43  0  0  0  0  0  0  0  0  1 V2000
  148.9774  133.2109  156.8167 C   0  0  0  0  0  0  0  0  0  0  0  0
  150.1533  133.6640  155.9297 C   0  0  0  0  0  0  0  0  0  0  0  0
  151.3521  132.7392  156.2352 C   0  0  0  0  0  0  0  0  0  0  0  0
  149.8047  133.4921  154.4382 C   0  0  0  0  0  0  0  0  0  0  0  0
  150.4830  135.1108  156.2160 C   0  0  0  0  0  0  0  0  0  0  0  0
  151.4721  135.7519  155.5751 N   0  0  0  0  0  0  0  0  0  0  0  0
  151.6090  137.0717  155.9783 N   0  0  0  0  0  0  0  0  0  0  0  0
  150.7145  137.4030  156.9174 C   0  0  0  0  0  0  0  0  0  0  0  0
  150.6251  138.6941  157.5023 N   0  0  0  0  0  0  0  0  0  0  0  0
  151.5572  139.6630  157.5290 C   0  0  0  0  0  0  0  0  0  0  0  0
  152.6899  139.5743  157.0540 O   0  0  0  0  0  0  0  0  0  0  0  0
  151.0986  140.7609  158.1476 N   0  0  0  0  0  0  0  0  0  0  0  0
  151.8498  141.9995  158.3296 C   0  0  2  0  0  0  0  0  0  0  0  0
  152.2445  142.1856  159.8080 C   0  0  0  0  0  0  0  0  0  0  0  0
  152.9956  143.5108  160.0259 C   0  0  0  0  0  0  0  0  0  0  0  0
  152.2068  144.7254  159.4998 C   0  0  2  0  0  0  0  0  0  0  0  0
  151.0824  144.9666  160.3226 O   0  0  0  0  0  0  0  0  0  0  0  0
  151.7587  144.5239  158.0395 C   0  0  0  0  0  0  0  0  0  0  0  0
  151.0124  143.1934  157.8369 C   0  0  0  0  0  0  0  0  0  0  0  0
  149.6238  136.1144  157.3913 S   0  0  0  0  0  0  0  0  0  0  0  0
  148.7256  132.1646  156.6409 H   0  0  0  0  0  0  0  0  0  0  0  0
  148.0788  133.7969  156.6197 H   0  0  0  0  0  0  0  0  0  0  0  0
  149.2143  133.3197  157.8757 H   0  0  0  0  0  0  0  0  0  0  0  0
  151.6459  132.7921  157.2842 H   0  0  0  0  0  0  0  0  0  0  0  0
  152.2230  132.9953  155.6307 H   0  0  0  0  0  0  0  0  0  0  0  0
  151.1109  131.6969  156.0231 H   0  0  0  0  0  0  0  0  0  0  0  0
  149.5800  132.4522  154.1991 H   0  0  0  0  0  0  0  0  0  0  0  0
  150.6307  133.8064  153.7990 H   0  0  0  0  0  0  0  0  0  0  0  0
  148.9311  134.0827  154.1603 H   0  0  0  0  0  0  0  0  0  0  0  0
  149.7425  138.9096  157.9415 H   0  0  0  0  0  0  0  0  0  0  0  0
  150.1585  140.7430  158.5152 H   0  0  0  0  0  0  0  0  0  0  0  0
  152.7582  141.9554  157.7257 H   0  0  0  0  0  0  0  0  0  0  0  0
  151.3524  142.1641  160.4357 H   0  0  0  0  0  0  0  0  0  0  0  0
  152.8715  141.3562  160.1373 H   0  0  0  0  0  0  0  0  0  0  0  0
  153.2298  143.6401  161.0833 H   0  0  0  0  0  0  0  0  0  0  0  0
  153.9543  143.4595  159.5081 H   0  0  0  0  0  0  0  0  0  0  0  0
  152.8388  145.6121  159.5594 H   0  0  0  0  0  0  0  0  0  0  0  0
  151.3656  144.9712  161.2242 H   0  0  0  0  0  0  0  0  0  0  0  0
  151.1349  145.3579  157.7157 H   0  0  0  0  0  0  0  0  0  0  0  0
  152.6381  144.5352  157.3942 H   0  0  0  0  0  0  0  0  0  0  0  0
  150.7702  143.0691  156.7806 H   0  0  0  0  0  0  0  0  0  0  0  0
  150.0604  143.2242  158.3690 H   0  0  0  0  0  0  0  0  0  0  0  0
  1  2  1  0  0  0  0
  1 21  1  0  0  0  0
  1 22  1  0  0  0  0
  1 23  1  0  0  0  0
  2  3  1  0  0  0  0
  2  4  1  0  0  0  0
  2  5  1  0  0  0  0
  3 24  1  0  0  0  0
  3 25  1  0  0  0  0
  3 26  1  0  0  0  0
  4 27  1  0  0  0  0
  4 28  1  0  0  0  0
  4 29  1  0  0  0  0
  5 20  1  0  0  0  0
  5  6  2  0  0  0  0
  6  7  1  0  0  0  0
  7  8  2  0  0  0  0
  8  9  1  0  0  0  0
  8 20  1  0  0  0  0
  9 10  1  0  0  0  0
  9 30  1  0  0  0  0
 10 11  2  0  0  0  0
 10 12  1  0  0  0  0
 12 13  1  0  0  0  0
 12 31  1  0  0  0  0
 13 19  1  0  0  0  0
 13 14  1  0  0  0  0
 13 32  1  0  0  0  0
 14 15  1  0  0  0  0
 14 33  1  0  0  0  0
 14 34  1  0  0  0  0
 15 16  1  0  0  0  0
 15 35  1  0  0  0  0
 15 36  1  0  0  0  0
 16 17  1  0  0  0  0
 16 18  1  0  0  0  0
 16 37  1  0  0  0  0
 17 38  1  0  0  0  0
 18 19  1  0  0  0  0
 18 39  1  0  0  0  0
 18 40  1  0  0  0  0
 19 41  1  0  0  0  0
 19 42  1  0  0  0  0
M  END
> <s_m_source_file>
AV-unprocessed.smi

> <i_m_source_file_index>
632

> <i_lp_mmshare_version>
43012

> <i_f3d_flags>
0

> <s_epik_input>
W0NIM11DKFtDSDNdKShbQ0gzXSljMW5uYyhzMSlbTkhdQyg9TylbTkhdW0NAQEhdMltDSDJdW0NIMl1bQ0BASF0oW09IXSlbQ0gyXVtDSDJdMg==

> <s_epik_cmdline>
J2VwaWtfcHl0aG9uJywgJy1waCcsICc3LjAnLCAnLXRuJywgJzgnLCAnLW1hJywgJzIwMCcsICctbWV0YWxfYmluZGluZycsICctaW1hZScsICc8aW5maWxlLm1hZT4nLCAnLW9tYWUnLCAnPG91dGZpbGUubWFlPic=

> <r_lp_tautomer_probability>
1

> <r_epik_Ionization_Penalty>
0.000349475

> <r_epik_Ionization_Penalty_Charging>
0

> <r_epik_Ionization_Penalty_Neutral>
0.000349475

> <r_epik_State_Penalty>
-0

> <r_epik_Charging_Adjusted_Penalty>
0

> <i_epik_Tot_Q>
0

> <i_epik_Tot_abs_Q>
0

> <r_epik_Metal_State_Penalty>
0.179207

> <b_epik_Metal_Only>
0

> <s_lp_Force_Field>
OPLS_2005

> <r_lp_Energy>
4.89168

> <b_lp_Chiralities_Consistent>
1

> <s_lp_Variant>
AV-unprocessed.smi:632-2

> <Gold.Version>
5.8.1

> <Gold.Id.Protein>
6NUR|6NUR_protein|mol2

> <Gold.PLP.Fitness>
39.1311

> <Gold.PLP.PLP>
-33.4693

> <Gold.PLP.part.hbond>
-2.0076

> <Gold.PLP.part.metal>
0.0000

> <Gold.PLP.part.buried>
-5.8043

> <Gold.PLP.part.nonpolar>
-25.5523

> <Gold.PLP.part.repulsive>
0.2271

> <Gold.PLP.ligand.clash>
0.0000

> <Gold.PLP.ligand.torsion>
0.1729

> <Gold.PLP.Chemscore.Hbond>
2.0000

> <Gold.PLP.Chemscore.CHOScore>
0.0000

> <Gold.PLP.Chemscore.Metal>
0.0000

> <Gold.Chemscore.Hbonds>
donor molecule, donor type, donor heavy atom, donor atom, acceptor molecule, acceptor atom, score
      P1  H  7997  8009       L1    11  1.00
      P1  H 10752 10763       L1     6  1.00

> <Gold.PLP.Chemscore.Internal.Correction>
0.0074

> <Gold.Rescore>
     Score         DG    S(hbond)    S(metal)    S(lipo)     H(rot)  DE(clash)    DE(int)     intcor
     16.77     -18.24       1.78        0.00      95.34       1.70       0.07       1.40       ----

> <Gold.Chemscore.Fitness>
16.7672

> <Gold.Chemscore.DG>
-18.2403

> <Gold.Chemscore.ZeroCoef>
-5.4800

> <Gold.Chemscore.Hbond>
1.7811

> <Gold.Chemscore.Metal>
0.0000

> <Gold.Chemscore.Lipo>
95.3440

> <Gold.Chemscore.Internal_Hbond>
0.0000

> <Gold.Chemscore.DEClash>
0.0696

> <Gold.Chemscore.DEInternal>
1.4035

> <Gold.Chemscore.Rot>
1.6968

> <Gold.Chemscore.Internal.Correction>
   9.000000E+99

> <Gold.Chemscore.Hbonds>
donor molecule, donor type, donor heavy atom, donor atom, acceptor molecule, acceptor atom, score
      P1  H  7997  8009       L1    11  1.00
      P1  H 10752 10763       L1     6  0.26

> <Gold.Chemscore.Hbond.Weighted>
-5.9488

> <Gold.Chemscore.Metal.Weighted>
-0.0000

> <Gold.Chemscore.Lipo.Weighted>
-11.1553

> <Gold.Chemscore.Internal_Hbond.Weighted>
0.0000

> <Gold.Chemscore.DEClash.Weighted>
0.0696

> <Gold.Chemscore.DEInternal.Weighted>
1.4035

> <Gold.Chemscore.Rot.Weighted>
4.3438

> <Gold.Chemscore.Internal.Correction.Weighted>
   9.000000E+99

> <Gold.Protein.RotatedTorsions>
[ 6907 6896 6895 6894 ] final   46.96 input  -60.11 | X-H torsion
[ 7974 7965 7964 7962 ] final  -45.48 input  175.53 | X-H torsion
[ 8008 7997 7996 7995 ] final -168.54 input   59.86 | X-H torsion
[ 10167 10162 10161 10158 ] final -179.39 input  -65.29 | X-H torsion
[ 10718 10713 10712 10709 ] final  -79.24 input   66.30 | X-H torsion
[ 10763 10752 10751 10750 ] final   79.56 input  -60.55 | X-H torsion
[ 11005 11000 10999 10996 ] final -165.20 input  -57.11 | X-H torsion

> <Gold.Protein.ActiveResidues>
 VAL166  LYS551  ARG553  GLY616  TRP617  ASP618  TYR619  PRO620  LYS621  CYS622 
 ASP623  PHE694  ASN695  SER759  ASP760  ASP761  ALA762  ILE779  LEU786  VAL792 
 PHE793  MET794  SER795  GLU796  ALA797  LYS798  CYS799  TRP800  GLU811  SER814 

> <Gold.Protein.RotatedAtoms>
  152.2625  134.8019  160.0428 H   0  0  0  0  0  0  0  0  0  0  0  0  # atno 6907 bound_to 6896
  151.8661  133.3461  159.3727 H   0  0  0  0  0  0  0  0  0  0  0  0  # atno 6908 bound_to 6896
  150.7121  134.5086  159.5640 H   0  0  0  0  0  0  0  0  0  0  0  0  # atno 6909 bound_to 6896
  145.9816  140.7278  142.9361 H   0  0  0  0  0  0  0  0  0  0  0  0  # atno 7974 bound_to 7965
  155.8928  140.1027  157.1406 H   0  0  0  0  0  0  0  0  0  0  0  0  # atno 8008 bound_to 7997
  154.4017  140.1307  156.4401 H   0  0  0  0  0  0  0  0  0  0  0  0  # atno 8009 bound_to 7997
  155.7514  140.3465  155.5155 H   0  0  0  0  0  0  0  0  0  0  0  0  # atno 8010 bound_to 7997
  139.5388  144.2420  152.0852 H   0  0  0  0  0  0  0  0  0  0  0  0  # atno 10167 bound_to 10162
  156.0097  130.4540  150.3619 H   0  0  0  0  0  0  0  0  0  0  0  0  # atno 10718 bound_to 10713
  153.0962  135.4835  154.8783 H   0  0  0  0  0  0  0  0  0  0  0  0  # atno 10763 bound_to 10752
  154.7327  135.3064  154.8866 H   0  0  0  0  0  0  0  0  0  0  0  0  # atno 10764 bound_to 10752
  153.9497  135.6824  153.4797 H   0  0  0  0  0  0  0  0  0  0  0  0  # atno 10765 bound_to 10752
  140.5784  134.5167  157.5174 H   0  0  0  0  0  0  0  0  0  0  0  0  # atno 11005 bound_to 11000
  144.6863  140.2918  143.7277 LP  0  0  0  0  0  0  0  0  0  0  0  0  # atno 17320 bound_to 7965
  145.7761  139.1874  143.2184 LP  0  0  0  0  0  0  0  0  0  0  0  0  # atno 17321 bound_to 7965
  140.1895  144.4765  150.6486 LP  0  0  0  0  0  0  0  0  0  0  0  0  # atno 17342 bound_to 10162
  140.6608  143.2252  151.5859 LP  0  0  0  0  0  0  0  0  0  0  0  0  # atno 17343 bound_to 10162
  157.1707  131.0368  151.2797 LP  0  0  0  0  0  0  0  0  0  0  0  0  # atno 17370 bound_to 10713
  157.4231  130.7449  149.6929 LP  0  0  0  0  0  0  0  0  0  0  0  0  # atno 17371 bound_to 10713
  139.9329  134.7930  156.0882 LP  0  0  0  0  0  0  0  0  0  0  0  0  # atno 17394 bound_to 11000
  141.1012  133.6676  156.2758 LP  0  0  0  0  0  0  0  0  0  0  0  0  # atno 17395 bound_to 11000

$$$$
