AV-unprocessed.smi:1726|AV-procd|sdf|6958|dock5
  -GOLD-   22720 8173D 1   1.00000     0.00000
 Structure written by MMmdl.
 43 44  0  0  0  0  0  0  0  0  2 V2000
  144.4113  133.5318  150.9582 C   0  0  0  0  0  0  0  0  0  0  0  0
  145.6153  134.4813  150.8712 C   0  0  0  0  0  0  0  0  0  0  0  0
  146.5669  134.2889  151.9935 N   0  3  2  0  0  0  0  0  0  0  0  0
  147.1173  132.9093  152.0421 C   0  0  0  0  0  0  0  0  0  0  0  0
  148.2120  132.7837  153.1166 C   0  0  0  0  0  0  0  0  0  0  0  0
  147.7037  133.2423  154.4939 C   0  0  0  0  0  0  0  0  0  0  0  0
  147.0924  134.6525  154.4131 C   0  0  1  0  0  0  0  0  0  0  0  0
  148.1462  135.6382  154.1689 N   0  0  0  0  0  0  0  0  0  0  0  0
  148.7196  136.4102  155.1029 C   0  0  0  0  0  0  0  0  0  0  0  0
  148.4064  136.3723  156.2923 O   0  0  0  0  0  0  0  0  0  0  0  0
  149.6378  137.2258  154.5536 N   0  0  0  0  0  0  0  0  0  0  0  0
  150.4605  138.1819  155.1726 C   0  0  0  0  0  0  0  0  0  0  0  0
  150.0314  139.1228  156.0540 C   0  0  0  0  0  0  0  0  0  0  0  0
  150.9408  140.0758  156.6681 C   0  0  0  0  0  0  0  0  0  0  0  0
  150.4373  141.1778  157.5872 C   0  0  0  0  0  0  0  0  0  0  0  0
  149.1215  141.0806  157.7836 F   0  0  0  0  0  0  0  0  0  0  0  0
  151.0430  141.1248  158.7738 F   0  0  0  0  0  0  0  0  0  0  0  0
  150.6893  142.3688  157.0457 F   0  0  0  0  0  0  0  0  0  0  0  0
  152.2360  139.9835  156.3140 C   0  0  0  0  0  0  0  0  0  0  0  0
  152.6886  139.0049  155.4263 N   0  0  0  0  0  0  0  0  0  0  0  0
  151.8892  138.0933  154.8284 C   0  0  0  0  0  0  0  0  0  0  0  0
  152.3633  137.2637  154.0528 O   0  0  0  0  0  0  0  0  0  0  0  0
  146.0085  134.6885  153.3127 C   0  0  0  0  0  0  0  0  0  0  0  0
  153.6778  138.9916  155.2231 H   0  0  0  0  0  0  0  0  0  0  0  0
  143.6866  133.7599  150.1764 H   0  0  0  0  0  0  0  0  0  0  0  0
  143.9020  133.6289  151.9176 H   0  0  0  0  0  0  0  0  0  0  0  0
  144.6998  132.4884  150.8350 H   0  0  0  0  0  0  0  0  0  0  0  0
  146.1315  134.3675  149.9167 H   0  0  0  0  0  0  0  0  0  0  0  0
  145.2327  135.5024  150.8951 H   0  0  0  0  0  0  0  0  0  0  0  0
  146.3105  132.2019  152.2411 H   0  0  0  0  0  0  0  0  0  0  0  0
  147.5390  132.6440  151.0720 H   0  0  0  0  0  0  0  0  0  0  0  0
  148.5585  131.7514  153.1746 H   0  0  0  0  0  0  0  0  0  0  0  0
  149.0781  133.3795  152.8255 H   0  0  0  0  0  0  0  0  0  0  0  0
  146.9474  132.5411  154.8493 H   0  0  0  0  0  0  0  0  0  0  0  0
  148.5128  133.2156  155.2251 H   0  0  0  0  0  0  0  0  0  0  0  0
  146.6307  134.8817  155.3754 H   0  0  0  0  0  0  0  0  0  0  0  0
  148.4701  135.7300  153.2169 H   0  0  0  0  0  0  0  0  0  0  0  0
  149.7325  137.1841  153.5493 H   0  0  0  0  0  0  0  0  0  0  0  0
  148.9956  139.1786  156.3466 H   0  0  0  0  0  0  0  0  0  0  0  0
  153.0127  140.6438  156.6711 H   0  0  0  0  0  0  0  0  0  0  0  0
  145.5746  135.6860  153.2575 H   0  0  0  0  0  0  0  0  0  0  0  0
  145.1893  134.0173  153.5756 H   0  0  0  0  0  0  0  0  0  0  0  0
  147.3503  134.8988  151.8084 H   0  0  0  0  0  0  0  0  0  0  0  0
  1  2  1  0  0  0  0
  1 25  1  0  0  0  0
  1 26  1  0  0  0  0
  1 27  1  0  0  0  0
  2  3  1  0  0  0  0
  2 28  1  0  0  0  0
  2 29  1  0  0  0  0
  3 23  1  0  0  0  0
  3  4  1  0  0  0  0
  3 43  1  0  0  0  0
  4  5  1  0  0  0  0
  4 30  1  0  0  0  0
  4 31  1  0  0  0  0
  5  6  1  0  0  0  0
  5 32  1  0  0  0  0
  5 33  1  0  0  0  0
  6  7  1  0  0  0  0
  6 34  1  0  0  0  0
  6 35  1  0  0  0  0
  7  8  1  0  0  0  0
  7 23  1  0  0  0  0
  7 36  1  0  0  0  0
  8  9  1  0  0  0  0
  8 37  1  0  0  0  0
  9 10  2  0  0  0  0
  9 11  1  0  0  0  0
 11 12  1  0  0  0  0
 11 38  1  0  0  0  0
 12 21  1  0  0  0  0
 12 13  2  0  0  0  0
 13 14  1  0  0  0  0
 13 39  1  0  0  0  0
 14 15  1  0  0  0  0
 14 19  2  0  0  0  0
 15 16  1  0  0  0  0
 15 17  1  0  0  0  0
 15 18  1  0  0  0  0
 19 20  1  0  0  0  0
 19 40  1  0  0  0  0
 20 24  1  0  0  0  0
 20 21  1  0  0  0  0
 21 22  2  0  0  0  0
 23 41  1  0  0  0  0
 23 42  1  0  0  0  0
M  CHG  1   3   1
M  END
> <s_m_source_file>
AV-unprocessed.smi

> <i_m_source_file_index>
1726

> <i_lp_mmshare_version>
43012

> <i_f3d_flags>
0

> <s_epik_input>
W0NIM11bQ0gyXU4xW0NIMl1bQ0gyXVtDSDJdW0NASF0oW0NIMl0xKVtOSF1DKD1PKVtOSF1jMltjSF1jKEMoRikoRilGKVtjSF1bbkhdYzI9Tw==

> <s_epik_cmdline>
J2VwaWtfcHl0aG9uJywgJy1waCcsICc3LjAnLCAnLXRuJywgJzgnLCAnLW1hJywgJzIwMCcsICctbWV0YWxfYmluZGluZycsICctaW1hZScsICc8aW5maWxlLm1hZT4nLCAnLW9tYWUnLCAnPG91dGZpbGUubWFlPic=

> <r_lp_tautomer_probability>
1

> <r_epik_Ionization_Penalty>
0.00745721

> <r_epik_Ionization_Penalty_Charging>
0.00743804

> <r_epik_Ionization_Penalty_Neutral>
1.91703e-05

> <r_epik_State_Penalty>
-0

> <r_epik_Charging_Adjusted_Penalty>
0.00743804

> <i_epik_Tot_Q>
1

> <i_epik_Tot_abs_Q>
1

> <r_epik_Metal_State_Penalty>
0.37929

> <b_epik_Metal_Only>
0

> <s_lp_Force_Field>
OPLS_2005

> <r_lp_Energy>
34.544

> <b_lp_Chiralities_Consistent>
1

> <s_lp_Variant>
AV-unprocessed.smi:1726-2

> <Gold.Version>
5.8.1

> <Gold.Id.Protein>
6NUR|6NUR_protein|mol2

> <Gold.PLP.Fitness>
43.2098

> <Gold.PLP.PLP>
-31.0348

> <Gold.PLP.part.hbond>
-3.8209

> <Gold.PLP.part.metal>
0.0000

> <Gold.PLP.part.buried>
-4.9835

> <Gold.PLP.part.nonpolar>
-24.9828

> <Gold.PLP.part.repulsive>
0.8337

> <Gold.PLP.ligand.clash>
0.0000

> <Gold.PLP.ligand.torsion>
0.7386

> <Gold.PLP.Chemscore.Hbond>
4.5342

> <Gold.PLP.Chemscore.CHOScore>
0.0000

> <Gold.PLP.Chemscore.Metal>
0.0000

> <Gold.Chemscore.Hbonds>
donor molecule, donor type, donor heavy atom, donor atom, acceptor molecule, acceptor atom, score
      L1  H     3    43       P1  7948  1.95
      L1  H     8    37       P1  7948  0.94
      L1  H    11    38       P1  7948  0.81
      P1  H 10752 10763       L1    22  0.82

> <Gold.PLP.Chemscore.Internal.Correction>
0.0497

> <Gold.Rescore>
     Score         DG    S(hbond)    S(metal)    S(lipo)     H(rot)  DE(clash)    DE(int)     intcor
     18.65     -19.43       3.23        0.00      55.20       1.29       0.00       0.77       ----

> <Gold.Chemscore.Fitness>
18.6543

> <Gold.Chemscore.DG>
-19.4257

> <Gold.Chemscore.ZeroCoef>
-5.4800

> <Gold.Chemscore.Hbond>
3.2292

> <Gold.Chemscore.Metal>
0.0000

> <Gold.Chemscore.Lipo>
55.2003

> <Gold.Chemscore.Internal_Hbond>
0.0000

> <Gold.Chemscore.DEClash>
0.0015

> <Gold.Chemscore.DEInternal>
0.7699

> <Gold.Chemscore.Rot>
1.2884

> <Gold.Chemscore.Internal.Correction>
   9.000000E+99

> <Gold.Chemscore.Hbonds>
donor molecule, donor type, donor heavy atom, donor atom, acceptor molecule, acceptor atom, score
      L1  H     3    43       P1  7948  0.76
      L1  H     8    37       P1  7948  0.90
      L1  H    11    38       P1  7948  0.53
      P1  H 10752 10763       L1    22  0.81

> <Gold.Chemscore.Hbond.Weighted>
-10.7855

> <Gold.Chemscore.Metal.Weighted>
-0.0000

> <Gold.Chemscore.Lipo.Weighted>
-6.4584

> <Gold.Chemscore.Internal_Hbond.Weighted>
0.0000

> <Gold.Chemscore.DEClash.Weighted>
0.0015

> <Gold.Chemscore.DEInternal.Weighted>
0.7699

> <Gold.Chemscore.Rot.Weighted>
3.2983

> <Gold.Chemscore.Internal.Correction.Weighted>
   9.000000E+99

> <Gold.Protein.RotatedTorsions>
[ 6907 6896 6895 6894 ] final   59.69 input  -60.11 | X-H torsion
[ 7974 7965 7964 7962 ] final  -87.37 input  175.53 | X-H torsion
[ 8008 7997 7996 7995 ] final   44.37 input   59.86 | X-H torsion
[ 10167 10162 10161 10158 ] final  153.88 input  -65.29 | X-H torsion
[ 10718 10713 10712 10709 ] final  -77.01 input   66.30 | X-H torsion
[ 10763 10752 10751 10750 ] final   28.21 input  -60.55 | X-H torsion
[ 11005 11000 10999 10996 ] final  176.57 input  -57.11 | X-H torsion

> <Gold.Protein.ActiveResidues>
 VAL166  LYS551  ARG553  GLY616  TRP617  ASP618  TYR619  PRO620  LYS621  CYS622 
 ASP623  PHE694  ASN695  SER759  ASP760  ASP761  ALA762  ILE779  LEU786  VAL792 
 PHE793  MET794  SER795  GLU796  ALA797  LYS798  CYS799  TRP800  GLU811  SER814 

> <Gold.Protein.RotatedAtoms>
  152.3937  134.6400  160.0097 H   0  0  0  0  0  0  0  0  0  0  0  0  # atno 6907 bound_to 6896
  151.6626  133.3311  159.3185 H   0  0  0  0  0  0  0  0  0  0  0  0  # atno 6908 bound_to 6896
  150.7848  134.6868  159.6519 H   0  0  0  0  0  0  0  0  0  0  0  0  # atno 6909 bound_to 6896
  145.4674  140.9560  143.1936 H   0  0  0  0  0  0  0  0  0  0  0  0  # atno 7974 bound_to 7965
  155.3182  140.3395  155.4242 H   0  0  0  0  0  0  0  0  0  0  0  0  # atno 8008 bound_to 7997
  156.1922  140.1702  156.8107 H   0  0  0  0  0  0  0  0  0  0  0  0  # atno 8009 bound_to 7997
  154.5455  140.0716  156.8566 H   0  0  0  0  0  0  0  0  0  0  0  0  # atno 8010 bound_to 7997
  139.4825  144.5235  151.7838 H   0  0  0  0  0  0  0  0  0  0  0  0  # atno 10167 bound_to 10162
  156.0157  130.4480  150.3280 H   0  0  0  0  0  0  0  0  0  0  0  0  # atno 10718 bound_to 10713
  153.0506  135.6518  154.0703 H   0  0  0  0  0  0  0  0  0  0  0  0  # atno 10763 bound_to 10752
  154.0392  135.2905  155.3359 H   0  0  0  0  0  0  0  0  0  0  0  0  # atno 10764 bound_to 10752
  154.6792  135.5326  153.8307 H   0  0  0  0  0  0  0  0  0  0  0  0  # atno 10765 bound_to 10752
  140.3745  134.7000  157.4413 H   0  0  0  0  0  0  0  0  0  0  0  0  # atno 11005 bound_to 11000
  144.7966  139.6223  143.7090 LP  0  0  0  0  0  0  0  0  0  0  0  0  # atno 17320 bound_to 7965
  146.2416  139.6013  142.9487 LP  0  0  0  0  0  0  0  0  0  0  0  0  # atno 17321 bound_to 7965
  140.4752  144.1529  150.5924 LP  0  0  0  0  0  0  0  0  0  0  0  0  # atno 17342 bound_to 10162
  140.4339  143.2556  151.9561 LP  0  0  0  0  0  0  0  0  0  0  0  0  # atno 17343 bound_to 10162
  157.1379  131.0289  151.2941 LP  0  0  0  0  0  0  0  0  0  0  0  0  # atno 17370 bound_to 10713
  157.4496  130.7591  149.7140 LP  0  0  0  0  0  0  0  0  0  0  0  0  # atno 17371 bound_to 10713
  140.0526  134.6109  155.8844 LP  0  0  0  0  0  0  0  0  0  0  0  0  # atno 17394 bound_to 11000
  141.1943  133.6582  156.5591 LP  0  0  0  0  0  0  0  0  0  0  0  0  # atno 17395 bound_to 11000

$$$$
