AV-unprocessed.smi:2931|AV-procd|sdf|11247|dock1
  -GOLD-   2272016143D 1   1.00000     0.00000
 Structure written by MMmdl.
 43 44  0  0  0  0  0  0  0  0  3 V2000
  145.2574  136.0263  151.3603 C   0  0  0  0  0  0  0  0  0  0  0  0
  146.2885  135.2761  152.1089 N   0  3  2  0  0  0  0  0  0  0  0  0
  146.4069  133.8681  151.6533 C   0  0  0  0  0  0  0  0  0  0  0  0
  147.5714  133.1531  152.3601 C   0  0  0  0  0  0  0  0  0  0  0  0
  147.4392  133.2472  153.8897 C   0  0  0  0  0  0  0  0  0  0  0  0
  147.2700  134.7093  154.3413 C   0  0  1  0  0  0  0  0  0  0  0  0
  148.5232  135.4391  154.1466 N   0  0  0  0  0  0  0  0  0  0  0  0
  149.2451  136.0092  155.1215 C   0  0  0  0  0  0  0  0  0  0  0  0
  148.9189  136.0133  156.3083 O   0  0  0  0  0  0  0  0  0  0  0  0
  150.3627  136.5780  154.6486 N   0  0  0  0  0  0  0  0  0  0  0  0
  151.3575  137.2639  155.4652 C   0  0  0  0  0  0  0  0  0  0  0  0
  151.9566  138.4770  154.7346 C   0  0  0  0  0  0  0  0  0  0  0  0
  151.2287  139.7633  155.0738 C   0  0  0  0  0  0  0  0  0  0  0  0
  151.7914  140.6861  155.9831 C   0  0  0  0  0  0  0  0  0  0  0  0
  151.0938  141.8758  156.2760 C   0  0  0  0  0  0  0  0  0  0  0  0
  149.9026  142.1199  155.6867 N   0  3  0  0  0  0  0  0  0  0  0  0
  149.3307  141.2648  154.8109 C   0  0  0  0  0  0  0  0  0  0  0  0
  149.9817  140.0587  154.4798 C   0  0  0  0  0  0  0  0  0  0  0  0
  146.0966  135.3647  153.5784 C   0  0  0  0  0  0  0  0  0  0  0  0
  144.2655  135.6061  151.5312 H   0  0  0  0  0  0  0  0  0  0  0  0
  145.4620  135.9978  150.2896 H   0  0  0  0  0  0  0  0  0  0  0  0
  145.2441  137.0725  151.6673 H   0  0  0  0  0  0  0  0  0  0  0  0
  145.4706  133.3422  151.8469 H   0  0  0  0  0  0  0  0  0  0  0  0
  146.5668  133.8443  150.5747 H   0  0  0  0  0  0  0  0  0  0  0  0
  147.6047  132.1070  152.0546 H   0  0  0  0  0  0  0  0  0  0  0  0
  148.5169  133.5941  152.0423 H   0  0  0  0  0  0  0  0  0  0  0  0
  146.5717  132.6689  154.2104 H   0  0  0  0  0  0  0  0  0  0  0  0
  148.3046  132.7929  154.3738 H   0  0  0  0  0  0  0  0  0  0  0  0
  147.0415  134.7112  155.4086 H   0  0  0  0  0  0  0  0  0  0  0  0
  148.8820  135.4828  153.2037 H   0  0  0  0  0  0  0  0  0  0  0  0
  150.5481  136.5191  153.6577 H   0  0  0  0  0  0  0  0  0  0  0  0
  150.9129  137.5698  156.4139 H   0  0  0  0  0  0  0  0  0  0  0  0
  152.1449  136.5498  155.7078 H   0  0  0  0  0  0  0  0  0  0  0  0
  153.0108  138.5860  154.9924 H   0  0  0  0  0  0  0  0  0  0  0  0
  151.9192  138.3266  153.6547 H   0  0  0  0  0  0  0  0  0  0  0  0
  152.7458  140.4875  156.4494 H   0  0  0  0  0  0  0  0  0  0  0  0
  151.4508  142.6340  156.9575 H   0  0  0  0  0  0  0  0  0  0  0  0
  148.3775  141.5691  154.4037 H   0  0  0  0  0  0  0  0  0  0  0  0
  149.5295  139.3725  153.7784 H   0  0  0  0  0  0  0  0  0  0  0  0
  145.9932  136.4098  153.8722 H   0  0  0  0  0  0  0  0  0  0  0  0
  145.1594  134.8753  153.8488 H   0  0  0  0  0  0  0  0  0  0  0  0
  147.1714  135.7226  151.9063 H   0  0  0  0  0  0  0  0  0  0  0  0
  149.4147  142.9871  155.9126 H   0  0  0  0  0  0  0  0  0  0  0  0
  1  2  1  0  0  0  0
  1 20  1  0  0  0  0
  1 21  1  0  0  0  0
  1 22  1  0  0  0  0
  2 19  1  0  0  0  0
  2  3  1  0  0  0  0
  2 42  1  0  0  0  0
  3  4  1  0  0  0  0
  3 23  1  0  0  0  0
  3 24  1  0  0  0  0
  4  5  1  0  0  0  0
  4 25  1  0  0  0  0
  4 26  1  0  0  0  0
  5  6  1  0  0  0  0
  5 27  1  0  0  0  0
  5 28  1  0  0  0  0
  6  7  1  0  0  0  0
  6 19  1  0  0  0  0
  6 29  1  0  0  0  0
  7  8  1  0  0  0  0
  7 30  1  0  0  0  0
  8  9  2  0  0  0  0
  8 10  1  0  0  0  0
 10 11  1  0  0  0  0
 10 31  1  0  0  0  0
 11 12  1  0  0  0  0
 11 32  1  0  0  0  0
 11 33  1  0  0  0  0
 12 13  1  0  0  0  0
 12 34  1  0  0  0  0
 12 35  1  0  0  0  0
 13 18  1  0  0  0  0
 13 14  2  0  0  0  0
 14 15  1  0  0  0  0
 14 36  1  0  0  0  0
 15 16  2  0  0  0  0
 15 37  1  0  0  0  0
 16 17  1  0  0  0  0
 16 43  1  0  0  0  0
 17 18  2  0  0  0  0
 17 38  1  0  0  0  0
 18 39  1  0  0  0  0
 19 40  1  0  0  0  0
 19 41  1  0  0  0  0
M  CHG  1   2   1
M  CHG  1  16   1
M  END
> <s_m_source_file>
AV-unprocessed.smi

> <i_m_source_file_index>
2931

> <i_lp_mmshare_version>
43012

> <i_f3d_flags>
0

> <s_epik_input>
W0NIM11OMVtDSDJdW0NIMl1bQ0gyXVtDQEhdKFtDSDJdMSlbTkhdQyg9TylbTkhdW0NIMl1bQ0gyXWMyW2NIXVtjSF1uW2NIXVtjSF0y

> <s_epik_cmdline>
J2VwaWtfcHl0aG9uJywgJy1waCcsICc3LjAnLCAnLXRuJywgJzgnLCAnLW1hJywgJzIwMCcsICctbWV0YWxfYmluZGluZycsICctaW1hZScsICc8aW5maWxlLm1hZT4nLCAnLW9tYWUnLCAnPG91dGZpbGUubWFlPic=

> <r_epik_Ionization_Penalty>
1.43754

> <r_epik_Ionization_Penalty_Charging>
1.4375

> <r_epik_Ionization_Penalty_Neutral>
3.7629e-05

> <r_epik_State_Penalty>
1.52008

> <r_epik_Charging_Adjusted_Penalty>
2.95758

> <i_epik_Tot_Q>
2

> <i_epik_Tot_abs_Q>
2

> <r_epik_Metal_State_Penalty>
1.57105

> <b_epik_Metal_Only>
0

> <s_lp_Force_Field>
OPLS_2005

> <r_lp_Energy>
27.7163

> <b_lp_Chiralities_Consistent>
1

> <s_lp_Variant>
AV-unprocessed.smi:2931-6

> <Gold.Version>
5.8.1

> <Gold.Id.Protein>
6NUR|6NUR_protein|mol2

> <Gold.PLP.Fitness>
48.3181

> <Gold.PLP.PLP>
-34.2896

> <Gold.PLP.part.hbond>
-3.6779

> <Gold.PLP.part.metal>
0.0000

> <Gold.PLP.part.buried>
0.6952

> <Gold.PLP.part.nonpolar>
-29.0266

> <Gold.PLP.part.repulsive>
0.2890

> <Gold.PLP.ligand.clash>
0.0000

> <Gold.PLP.ligand.torsion>
0.6334

> <Gold.PLP.Chemscore.Hbond>
5.0910

> <Gold.PLP.Chemscore.CHOScore>
0.0000

> <Gold.PLP.Chemscore.Metal>
0.0000

> <Gold.Chemscore.Hbonds>
donor molecule, donor type, donor heavy atom, donor atom, acceptor molecule, acceptor atom, score
      L1  H     2    42       P1  7948  2.00
      L1  H     7    30       P1  7948  0.94
      L1  H    10    31       P1  7949  0.13
      L1  H    16    43       P1  8028  2.00

> <Gold.PLP.Chemscore.Internal.Correction>
0.0223

> <Gold.Rescore>
     Score         DG    S(hbond)    S(metal)    S(lipo)     H(rot)  DE(clash)    DE(int)     intcor
     18.63     -19.25       2.76        0.00      74.95       1.65       0.00       0.61       ----

> <Gold.Chemscore.Fitness>
18.6344

> <Gold.Chemscore.DG>
-19.2464

> <Gold.Chemscore.ZeroCoef>
-5.4800

> <Gold.Chemscore.Hbond>
2.7581

> <Gold.Chemscore.Metal>
0.0000

> <Gold.Chemscore.Lipo>
74.9488

> <Gold.Chemscore.Internal_Hbond>
0.0000

> <Gold.Chemscore.DEClash>
0.0048

> <Gold.Chemscore.DEInternal>
0.6073

> <Gold.Chemscore.Rot>
1.6464

> <Gold.Chemscore.Internal.Correction>
   9.000000E+99

> <Gold.Chemscore.Hbonds>
donor molecule, donor type, donor heavy atom, donor atom, acceptor molecule, acceptor atom, score
      L1  H     2    42       P1  7948  1.00
      L1  H     7    30       P1  7948  0.63
      L1  H    16    43       P1  8028  0.99

> <Gold.Chemscore.Hbond.Weighted>
-9.2121

> <Gold.Chemscore.Metal.Weighted>
-0.0000

> <Gold.Chemscore.Lipo.Weighted>
-8.7690

> <Gold.Chemscore.Internal_Hbond.Weighted>
0.0000

> <Gold.Chemscore.DEClash.Weighted>
0.0048

> <Gold.Chemscore.DEInternal.Weighted>
0.6073

> <Gold.Chemscore.Rot.Weighted>
4.2148

> <Gold.Chemscore.Internal.Correction.Weighted>
   9.000000E+99

> <Gold.Protein.RotatedTorsions>
[ 6907 6896 6895 6894 ] final  139.52 input  -60.11 | X-H torsion
[ 7974 7965 7964 7962 ] final   65.89 input  175.53 | X-H torsion
[ 8008 7997 7996 7995 ] final   54.46 input   59.86 | X-H torsion
[ 10167 10162 10161 10158 ] final   88.67 input  -65.29 | X-H torsion
[ 10718 10713 10712 10709 ] final  129.57 input   66.30 | X-H torsion
[ 10763 10752 10751 10750 ] final  -77.04 input  -60.55 | X-H torsion
[ 11005 11000 10999 10996 ] final  126.66 input  -57.11 | X-H torsion

> <Gold.Protein.ActiveResidues>
 VAL166  LYS551  ARG553  GLY616  TRP617  ASP618  TYR619  PRO620  LYS621  CYS622 
 ASP623  PHE694  ASN695  SER759  ASP760  ASP761  ALA762  ILE779  LEU786  VAL792 
 PHE793  MET794  SER795  GLU796  ALA797  LYS798  CYS799  TRP800  GLU811  SER814 

> <Gold.Protein.RotatedAtoms>
  152.2539  133.5238  159.5341 H   0  0  0  0  0  0  0  0  0  0  0  0  # atno 6907 bound_to 6896
  150.7102  134.0923  159.3945 H   0  0  0  0  0  0  0  0  0  0  0  0  # atno 6908 bound_to 6896
  151.8842  135.0442  160.0542 H   0  0  0  0  0  0  0  0  0  0  0  0  # atno 6909 bound_to 6896
  145.8331  139.3151  143.0976 H   0  0  0  0  0  0  0  0  0  0  0  0  # atno 7974 bound_to 7965
  155.4851  140.3469  155.4346 H   0  0  0  0  0  0  0  0  0  0  0  0  # atno 8008 bound_to 7997
  156.1014  140.1436  156.9491 H   0  0  0  0  0  0  0  0  0  0  0  0  # atno 8009 bound_to 7997
  154.4696  140.0905  156.7088 H   0  0  0  0  0  0  0  0  0  0  0  0  # atno 8010 bound_to 7997
  139.8649  144.6524  150.9015 H   0  0  0  0  0  0  0  0  0  0  0  0  # atno 10167 bound_to 10162
  157.5142  131.1097  150.9248 H   0  0  0  0  0  0  0  0  0  0  0  0  # atno 10718 bound_to 10713
  154.5077  135.5777  153.6580 H   0  0  0  0  0  0  0  0  0  0  0  0  # atno 10763 bound_to 10752
  152.9891  135.6151  154.2920 H   0  0  0  0  0  0  0  0  0  0  0  0  # atno 10764 bound_to 10752
  154.2832  135.2850  155.2667 H   0  0  0  0  0  0  0  0  0  0  0  0  # atno 10765 bound_to 10752
  139.9468  134.9628  156.8740 H   0  0  0  0  0  0  0  0  0  0  0  0  # atno 11005 bound_to 11000
  145.9549  140.8880  143.0240 LP  0  0  0  0  0  0  0  0  0  0  0  0  # atno 17320 bound_to 7965
  144.6738  140.1731  143.7412 LP  0  0  0  0  0  0  0  0  0  0  0  0  # atno 17321 bound_to 7965
  140.7769  143.3712  151.1645 LP  0  0  0  0  0  0  0  0  0  0  0  0  # atno 17342 bound_to 10162
  139.7338  143.9031  152.3028 LP  0  0  0  0  0  0  0  0  0  0  0  0  # atno 17343 bound_to 10162
  156.9879  130.5552  149.5301 LP  0  0  0  0  0  0  0  0  0  0  0  0  # atno 17370 bound_to 10713
  156.0309  130.5400  150.8532 LP  0  0  0  0  0  0  0  0  0  0  0  0  # atno 17371 bound_to 10713
  140.5816  134.0347  155.7466 LP  0  0  0  0  0  0  0  0  0  0  0  0  # atno 17394 bound_to 11000
  141.1120  133.9601  157.2893 LP  0  0  0  0  0  0  0  0  0  0  0  0  # atno 17395 bound_to 11000

$$$$
