AV-unprocessed.smi:807|AV-procd|sdf|3802|dock2
  -GOLD-   22720 1243D 1   1.00000     0.00000
 Structure written by MMmdl.
 35 37  0  0  0  0  0  0  0  0  1 V2000
  153.0185  141.5222  159.3408 C   0  0  0  0  0  0  0  0  0  0  0  0
  152.2643  140.7991  158.3297 N   0  0  0  0  0  0  0  0  0  0  0  0
  152.8028  139.6565  157.7217 C   0  0  0  0  0  0  0  0  0  0  0  0
  153.8455  139.0125  158.2955 N   0  0  0  0  0  0  0  0  0  0  0  0
  154.3270  137.9259  157.6777 C   0  0  0  0  0  0  0  0  0  0  0  0
  153.9196  137.3524  156.5347 N   0  0  0  0  0  0  0  0  0  0  0  0
  152.8873  137.9832  155.9586 C   0  0  0  0  0  0  0  0  0  0  0  0
  152.2683  137.6170  154.7758 N   0  0  0  0  0  0  0  0  0  0  0  0
  151.3341  138.5569  154.6572 C   0  0  0  0  0  0  0  0  0  0  0  0
  151.2713  139.4967  155.6211 N   0  0  0  0  0  0  0  0  0  0  0  0
  150.3490  140.6171  155.6801 C   0  0  0  0  0  0  0  0  0  0  0  0
  149.2265  140.5073  154.6283 C   0  0  2  0  0  0  0  0  0  0  0  0
  149.7278  140.9987  153.4016 O   0  0  0  0  0  0  0  0  0  0  0  0
  147.9501  141.2275  155.0627 C   0  0  0  0  0  0  0  0  0  0  0  0
  147.3676  142.1798  154.1950 C   0  0  0  0  0  0  0  0  0  0  0  0
  146.2013  142.8739  154.5672 C   0  0  0  0  0  0  0  0  0  0  0  0
  145.6046  142.6249  155.8159 C   0  0  0  0  0  0  0  0  0  0  0  0
  146.1781  141.6842  156.6907 C   0  0  0  0  0  0  0  0  0  0  0  0
  147.3464  140.9859  156.3245 C   0  0  0  0  0  0  0  0  0  0  0  0
  148.0088  139.8566  157.4548 Cl  0  0  0  0  0  0  0  0  0  0  0  0
  152.2834  139.1514  156.5135 C   0  0  0  0  0  0  0  0  0  0  0  0
  152.4543  142.3937  159.6725 H   0  0  0  0  0  0  0  0  0  0  0  0
  153.9721  141.8665  158.9393 H   0  0  0  0  0  0  0  0  0  0  0  0
  153.2105  140.8891  160.2076 H   0  0  0  0  0  0  0  0  0  0  0  0
  151.3911  141.1842  157.9994 H   0  0  0  0  0  0  0  0  0  0  0  0
  155.1590  137.4433  158.1686 H   0  0  0  0  0  0  0  0  0  0  0  0
  150.6605  138.5693  153.8127 H   0  0  0  0  0  0  0  0  0  0  0  0
  149.9299  140.6757  156.6858 H   0  0  0  0  0  0  0  0  0  0  0  0
  150.9224  141.5329  155.5331 H   0  0  0  0  0  0  0  0  0  0  0  0
  149.0144  139.4560  154.4424 H   0  0  0  0  0  0  0  0  0  0  0  0
  149.5873  140.3441  152.7349 H   0  0  0  0  0  0  0  0  0  0  0  0
  147.8176  142.3875  153.2355 H   0  0  0  0  0  0  0  0  0  0  0  0
  145.7656  143.5987  153.8951 H   0  0  0  0  0  0  0  0  0  0  0  0
  144.7102  143.1575  156.1040 H   0  0  0  0  0  0  0  0  0  0  0  0
  145.7196  141.4999  157.6512 H   0  0  0  0  0  0  0  0  0  0  0  0
  1  2  1  0  0  0  0
  1 22  1  0  0  0  0
  1 23  1  0  0  0  0
  1 24  1  0  0  0  0
  2  3  1  0  0  0  0
  2 25  1  0  0  0  0
  3 21  1  0  0  0  0
  3  4  2  0  0  0  0
  4  5  1  0  0  0  0
  5  6  2  0  0  0  0
  5 26  1  0  0  0  0
  6  7  1  0  0  0  0
  7 21  2  0  0  0  0
  7  8  1  0  0  0  0
  8  9  2  0  0  0  0
  9 10  1  0  0  0  0
  9 27  1  0  0  0  0
 10 11  1  0  0  0  0
 10 21  1  0  0  0  0
 11 12  1  0  0  0  0
 11 28  1  0  0  0  0
 11 29  1  0  0  0  0
 12 13  1  0  0  0  0
 12 14  1  0  0  0  0
 12 30  1  0  0  0  0
 13 31  1  0  0  0  0
 14 19  1  0  0  0  0
 14 15  2  0  0  0  0
 15 16  1  0  0  0  0
 15 32  1  0  0  0  0
 16 17  2  0  0  0  0
 16 33  1  0  0  0  0
 17 18  1  0  0  0  0
 17 34  1  0  0  0  0
 18 19  2  0  0  0  0
 18 35  1  0  0  0  0
 19 20  1  0  0  0  0
M  END
> <s_m_source_file>
AV-unprocessed.smi

> <i_m_source_file_index>
807

> <i_lp_mmshare_version>
43012

> <i_f3d_flags>
0

> <s_epik_input>
bjFbY0hdbmMoW05IXVtDSDNdKWMoYzEyKW4oW2NIXW4yKVtDSDJdW0NASF0oW09IXSljM1tjSF1bY0hdW2NIXVtjSF1jM0Ns

> <s_epik_cmdline>
J2VwaWtfcHl0aG9uJywgJy1waCcsICc3LjAnLCAnLXRuJywgJzgnLCAnLW1hJywgJzIwMCcsICctbWV0YWxfYmluZGluZycsICctaW1hZScsICc8aW5maWxlLm1hZT4nLCAnLW9tYWUnLCAnPG91dGZpbGUubWFlPic=

> <r_lp_tautomer_probability>
1

> <r_epik_Ionization_Penalty>
0.00695285

> <r_epik_Ionization_Penalty_Charging>
0

> <r_epik_Ionization_Penalty_Neutral>
0.00695285

> <r_epik_State_Penalty>
-0

> <r_epik_Charging_Adjusted_Penalty>
0

> <i_epik_Tot_Q>
0

> <i_epik_Tot_abs_Q>
0

> <r_epik_Metal_State_Penalty>
-0

> <b_epik_Metal_Only>
0

> <s_lp_Force_Field>
OPLS_2005

> <r_lp_Energy>
11.3951

> <b_lp_Chiralities_Consistent>
1

> <s_lp_Variant>
AV-unprocessed.smi:807-1

> <Gold.Version>
5.8.1

> <Gold.Id.Protein>
6NUR|6NUR_protein|mol2

> <Gold.PLP.Fitness>
44.2881

> <Gold.PLP.PLP>
-36.5618

> <Gold.PLP.part.hbond>
-4.9233

> <Gold.PLP.part.metal>
0.0000

> <Gold.PLP.part.buried>
-4.1674

> <Gold.PLP.part.nonpolar>
-27.8454

> <Gold.PLP.part.repulsive>
0.2306

> <Gold.PLP.ligand.clash>
0.0000

> <Gold.PLP.ligand.torsion>
0.5304

> <Gold.PLP.Chemscore.Hbond>
2.6747

> <Gold.PLP.Chemscore.CHOScore>
0.2443

> <Gold.PLP.Chemscore.Metal>
0.0000

> <Gold.Chemscore.Hbonds>
donor molecule, donor type, donor heavy atom, donor atom, acceptor molecule, acceptor atom, score
      L1  H    13    31       P1  7957  0.90
      P1  H  7989  7998       L1    13  0.20
      P1  H  7997  8010       L1     4  0.04
      P1  H  8011  8017       L1    13  0.85
      P1  H 10752 10763       L1     8  0.46
      P1  H 10752 10764       L1     6  0.12

> <Gold.PLP.Chemscore.Internal.Correction>
0.0303

> <Gold.Rescore>
     Score         DG    S(hbond)    S(metal)    S(lipo)     H(rot)  DE(clash)    DE(int)     intcor
     11.49     -12.04       1.74        0.00      57.08       2.31       0.15       0.41       ----

> <Gold.Chemscore.Fitness>
11.4881

> <Gold.Chemscore.DG>
-12.0398

> <Gold.Chemscore.ZeroCoef>
-5.4800

> <Gold.Chemscore.Hbond>
1.7363

> <Gold.Chemscore.Metal>
0.0000

> <Gold.Chemscore.Lipo>
57.0763

> <Gold.Chemscore.Internal_Hbond>
0.0000

> <Gold.Chemscore.DEClash>
0.1466

> <Gold.Chemscore.DEInternal>
0.4051

> <Gold.Chemscore.Rot>
2.3115

> <Gold.Chemscore.Internal.Correction>
   9.000000E+99

> <Gold.Chemscore.Hbonds>
donor molecule, donor type, donor heavy atom, donor atom, acceptor molecule, acceptor atom, score
      L1  H    13    31       P1  7957  0.87
      P1  H  7989  7998       L1    13  0.03
      P1  H  8011  8017       L1    13  0.14
      P1  H 10752 10763       L1     8  0.32
      P1  H 10752 10764       L1     6  0.06

> <Gold.Chemscore.Hbond.Weighted>
-5.7992

> <Gold.Chemscore.Metal.Weighted>
-0.0000

> <Gold.Chemscore.Lipo.Weighted>
-6.6779

> <Gold.Chemscore.Internal_Hbond.Weighted>
0.0000

> <Gold.Chemscore.DEClash.Weighted>
0.1466

> <Gold.Chemscore.DEInternal.Weighted>
0.4051

> <Gold.Chemscore.Rot.Weighted>
5.9174

> <Gold.Chemscore.Internal.Correction.Weighted>
   9.000000E+99

> <Gold.Protein.RotatedTorsions>
[ 6907 6896 6895 6894 ] final  103.84 input  -60.11 | X-H torsion
[ 7974 7965 7964 7962 ] final   36.26 input  175.53 | X-H torsion
[ 8008 7997 7996 7995 ] final   21.56 input   59.86 | X-H torsion
[ 10167 10162 10161 10158 ] final   52.64 input  -65.29 | X-H torsion
[ 10718 10713 10712 10709 ] final  104.22 input   66.30 | X-H torsion
[ 10763 10752 10751 10750 ] final   33.00 input  -60.55 | X-H torsion
[ 11005 11000 10999 10996 ] final   82.12 input  -57.11 | X-H torsion

> <Gold.Protein.ActiveResidues>
 VAL166  LYS551  ARG553  GLY616  TRP617  ASP618  TYR619  PRO620  LYS621  CYS622 
 ASP623  PHE694  ASN695  SER759  ASP760  ASP761  ALA762  ILE779  LEU786  VAL792 
 PHE793  MET794  SER795  GLU796  ALA797  LYS798  CYS799  TRP800  GLU811  SER814 

> <Gold.Protein.RotatedAtoms>
  152.5283  133.9765  159.7786 H   0  0  0  0  0  0  0  0  0  0  0  0  # atno 6907 bound_to 6896
  151.0027  133.6033  159.2700 H   0  0  0  0  0  0  0  0  0  0  0  0  # atno 6908 bound_to 6896
  151.3136  135.0807  159.9334 H   0  0  0  0  0  0  0  0  0  0  0  0  # atno 6909 bound_to 6896
  146.1224  139.6040  142.9281 H   0  0  0  0  0  0  0  0  0  0  0  0  # atno 7974 bound_to 7965
  154.9524  140.3067  155.5069 H   0  0  0  0  0  0  0  0  0  0  0  0  # atno 8008 bound_to 7997
  156.2986  140.2316  156.4541 H   0  0  0  0  0  0  0  0  0  0  0  0  # atno 8009 bound_to 7997
  154.8042  140.0432  157.1283 H   0  0  0  0  0  0  0  0  0  0  0  0  # atno 8010 bound_to 7997
  140.2492  144.3498  150.6354 H   0  0  0  0  0  0  0  0  0  0  0  0  # atno 10167 bound_to 10162
  157.6747  131.0798  150.5673 H   0  0  0  0  0  0  0  0  0  0  0  0  # atno 10718 bound_to 10713
  153.0234  135.6398  154.1442 H   0  0  0  0  0  0  0  0  0  0  0  0  # atno 10763 bound_to 10752
  154.1174  135.2849  155.3218 H   0  0  0  0  0  0  0  0  0  0  0  0  # atno 10764 bound_to 10752
  154.6288  135.5500  153.7719 H   0  0  0  0  0  0  0  0  0  0  0  0  # atno 10765 bound_to 10752
  139.9074  134.8047  156.2132 H   0  0  0  0  0  0  0  0  0  0  0  0  # atno 11005 bound_to 11000
  145.5437  141.0419  143.2316 LP  0  0  0  0  0  0  0  0  0  0  0  0  # atno 17320 bound_to 7965
  144.7610  139.6958  143.7234 LP  0  0  0  0  0  0  0  0  0  0  0  0  # atno 17321 bound_to 7965
  140.6054  143.2167  151.6992 LP  0  0  0  0  0  0  0  0  0  0  0  0  # atno 17342 bound_to 10162
  139.5052  144.3727  152.0454 LP  0  0  0  0  0  0  0  0  0  0  0  0  # atno 17343 bound_to 10162
  156.5975  130.4345  149.5911 LP  0  0  0  0  0  0  0  0  0  0  0  0  # atno 17370 bound_to 10713
  156.2533  130.6920  151.1665 LP  0  0  0  0  0  0  0  0  0  0  0  0  # atno 17371 bound_to 10713
  141.0452  133.6917  156.1671 LP  0  0  0  0  0  0  0  0  0  0  0  0  # atno 17394 bound_to 11000
  140.6894  134.4682  157.5589 LP  0  0  0  0  0  0  0  0  0  0  0  0  # atno 17395 bound_to 11000

$$$$
