AV-unprocessed.smi:2198|AV-procd|sdf|8922|dock3
  -GOLD-   2272012133D 1   1.00000     0.00000
 Structure written by MMmdl.
 42 43  0  0  0  0  0  0  0  0  2 V2000
  153.2196  138.2957  159.4199 C   0  0  0  0  0  0  0  0  0  0  0  0
  152.5825  138.2245  158.0484 C   0  0  0  0  0  0  0  0  0  0  0  0
  151.8918  137.1962  157.7326 N   0  0  0  0  0  0  0  0  0  0  0  0
  151.3016  137.1234  156.4595 C   0  0  0  0  0  0  0  0  0  0  0  0
  150.5054  135.8623  156.1717 C   0  0  0  0  0  0  0  0  0  0  0  0
  151.4484  138.1333  155.5541 C   0  0  0  0  0  0  0  0  0  0  0  0
  150.8339  138.0992  154.1552 C   0  0  0  0  0  0  0  0  0  0  0  0
  149.7060  139.1027  153.9108 C   0  0  0  0  0  0  0  0  0  0  0  0
  149.8411  140.2777  154.2512 O   0  0  0  0  0  0  0  0  0  0  0  0
  148.5985  138.6266  153.3214 N   0  0  0  0  0  0  0  0  0  0  0  0
  147.4033  139.4046  153.0020 C   0  0  1  0  0  0  0  0  0  0  0  0
  146.5295  138.6882  151.9507 C   0  0  0  0  0  0  0  0  0  0  0  0
  145.8554  137.4292  152.5212 C   0  0  0  0  0  0  0  0  0  0  0  0
  145.0446  137.7546  153.7851 C   0  0  0  0  0  0  0  0  0  0  0  0
  145.9157  138.4351  154.8582 C   0  0  2  0  0  0  0  0  0  0  0  0
  145.0992  138.7634  156.1163 C   0  0  0  0  0  0  0  0  0  0  0  0
  146.5975  139.6955  154.2840 C   0  0  0  0  0  0  0  0  0  0  0  0
  152.2457  139.3050  155.9607 C   0  0  0  0  0  0  0  0  0  0  0  0
  152.3978  140.2517  155.1898 O   0  0  0  0  0  0  0  0  0  0  0  0
  152.7948  139.2946  157.2089 N   0  5  0  0  0  0  0  0  0  0  0  0
  152.8462  137.5019  160.0681 H   0  0  0  0  0  0  0  0  0  0  0  0
  152.9993  139.2530  159.8935 H   0  0  0  0  0  0  0  0  0  0  0  0
  154.3016  138.1914  159.3375 H   0  0  0  0  0  0  0  0  0  0  0  0
  150.9054  135.3438  155.3003 H   0  0  0  0  0  0  0  0  0  0  0  0
  149.4591  136.1041  155.9858 H   0  0  0  0  0  0  0  0  0  0  0  0
  150.5422  135.1718  157.0151 H   0  0  0  0  0  0  0  0  0  0  0  0
  151.5975  138.2555  153.3927 H   0  0  0  0  0  0  0  0  0  0  0  0
  150.4664  137.0907  153.9638 H   0  0  0  0  0  0  0  0  0  0  0  0
  148.5794  137.6468  153.0783 H   0  0  0  0  0  0  0  0  0  0  0  0
  147.7258  140.3625  152.5898 H   0  0  0  0  0  0  0  0  0  0  0  0
  145.7584  139.3758  151.6013 H   0  0  0  0  0  0  0  0  0  0  0  0
  147.1217  138.4296  151.0720 H   0  0  0  0  0  0  0  0  0  0  0  0
  145.2047  136.9848  151.7677 H   0  0  0  0  0  0  0  0  0  0  0  0
  146.6121  136.6790  152.7540 H   0  0  0  0  0  0  0  0  0  0  0  0
  144.2087  138.4044  153.5219 H   0  0  0  0  0  0  0  0  0  0  0  0
  144.6089  136.8380  154.1843 H   0  0  0  0  0  0  0  0  0  0  0  0
  146.6952  137.7310  155.1528 H   0  0  0  0  0  0  0  0  0  0  0  0
  144.2924  139.4629  155.8946 H   0  0  0  0  0  0  0  0  0  0  0  0
  145.7270  139.2123  156.8863 H   0  0  0  0  0  0  0  0  0  0  0  0
  144.6525  137.8635  156.5400 H   0  0  0  0  0  0  0  0  0  0  0  0
  147.2478  140.1461  155.0352 H   0  0  0  0  0  0  0  0  0  0  0  0
  145.8353  140.4430  154.0588 H   0  0  0  0  0  0  0  0  0  0  0  0
  1  2  1  0  0  0  0
  1 21  1  0  0  0  0
  1 22  1  0  0  0  0
  1 23  1  0  0  0  0
  2 20  1  0  0  0  0
  2  3  2  0  0  0  0
  3  4  1  0  0  0  0
  4  5  1  0  0  0  0
  4  6  2  0  0  0  0
  5 24  1  0  0  0  0
  5 25  1  0  0  0  0
  5 26  1  0  0  0  0
  6  7  1  0  0  0  0
  6 18  1  0  0  0  0
  7  8  1  0  0  0  0
  7 27  1  0  0  0  0
  7 28  1  0  0  0  0
  8  9  2  0  0  0  0
  8 10  1  0  0  0  0
 10 11  1  0  0  0  0
 10 29  1  0  0  0  0
 11 17  1  0  0  0  0
 11 12  1  0  0  0  0
 11 30  1  0  0  0  0
 12 13  1  0  0  0  0
 12 31  1  0  0  0  0
 12 32  1  0  0  0  0
 13 14  1  0  0  0  0
 13 33  1  0  0  0  0
 13 34  1  0  0  0  0
 14 15  1  0  0  0  0
 14 35  1  0  0  0  0
 14 36  1  0  0  0  0
 15 16  1  0  0  0  0
 15 17  1  0  0  0  0
 15 37  1  0  0  0  0
 16 38  1  0  0  0  0
 16 39  1  0  0  0  0
 16 40  1  0  0  0  0
 17 41  1  0  0  0  0
 17 42  1  0  0  0  0
 18 19  2  0  0  0  0
 18 20  1  0  0  0  0
M  CHG  1  20  -1
M  END
> <s_m_source_file>
AV-unprocessed.smi

> <i_m_source_file_index>
2198

> <i_lp_mmshare_version>
43012

> <i_f3d_flags>
0

> <s_epik_input>
W0NIM11jMW5jKFtDSDNdKWMoYyg9TylbbkhdMSlbQ0gyXUMoPU8pW05IXVtDQEBIXTJbQ0gyXVtDSDJdW0NIMl1bQ0BASF0oW0NIM10pW0NIMl0y

> <s_epik_cmdline>
J2VwaWtfcHl0aG9uJywgJy1waCcsICc3LjAnLCAnLXRuJywgJzgnLCAnLW1hJywgJzIwMCcsICctbWV0YWxfYmluZGluZycsICctaW1hZScsICc8aW5maWxlLm1hZT4nLCAnLW9tYWUnLCAnPG91dGZpbGUubWFlPic=

> <r_lp_tautomer_probability>
0.839158

> <r_epik_Ionization_Penalty>
6.67193

> <r_epik_Ionization_Penalty_Charging>
7.66837e-08

> <r_epik_Ionization_Penalty_Neutral>
6.67193

> <r_epik_State_Penalty>
4.51643

> <r_epik_Charging_Adjusted_Penalty>
4.51643

> <i_epik_Tot_Q>
-1

> <i_epik_Tot_abs_Q>
1

> <r_epik_Metal_State_Penalty>
0.851582

> <b_epik_Metal_Only>
1

> <s_lp_Force_Field>
OPLS_2005

> <r_lp_Energy>
13.9181

> <b_lp_Chiralities_Consistent>
1

> <s_lp_Variant>
AV-unprocessed.smi:2198-12

> <Gold.Version>
5.8.1

> <Gold.Id.Protein>
6NUR|6NUR_protein|mol2

> <Gold.PLP.Fitness>
37.6500

> <Gold.PLP.PLP>
-26.8443

> <Gold.PLP.part.hbond>
-5.8129

> <Gold.PLP.part.metal>
0.0000

> <Gold.PLP.part.buried>
0.1321

> <Gold.PLP.part.nonpolar>
-21.9768

> <Gold.PLP.part.repulsive>
0.1888

> <Gold.PLP.ligand.clash>
0.0000

> <Gold.PLP.ligand.torsion>
0.4328

> <Gold.PLP.Chemscore.Hbond>
3.8880

> <Gold.PLP.Chemscore.CHOScore>
0.0000

> <Gold.PLP.Chemscore.Metal>
0.0000

> <Gold.Chemscore.Hbonds>
donor molecule, donor type, donor heavy atom, donor atom, acceptor molecule, acceptor atom, score
      L1  H    10    29       P1  7948  0.99
      P1  H  7989  7998       L1     9  0.86
      P1  H  7997  8008       L1    20  2.00

> <Gold.PLP.Chemscore.Internal.Correction>
0.0073

> <Gold.Rescore>
     Score         DG    S(hbond)    S(metal)    S(lipo)     H(rot)  DE(clash)    DE(int)     intcor
     13.14     -15.64       2.20        0.00      55.53       1.45       0.58       1.92       ----

> <Gold.Chemscore.Fitness>
13.1392

> <Gold.Chemscore.DG>
-15.6363

> <Gold.Chemscore.ZeroCoef>
-5.4800

> <Gold.Chemscore.Hbond>
2.2031

> <Gold.Chemscore.Metal>
0.0000

> <Gold.Chemscore.Lipo>
55.5322

> <Gold.Chemscore.Internal_Hbond>
0.0000

> <Gold.Chemscore.DEClash>
0.5797

> <Gold.Chemscore.DEInternal>
1.9173

> <Gold.Chemscore.Rot>
1.4450

> <Gold.Chemscore.Internal.Correction>
   9.000000E+99

> <Gold.Chemscore.Hbonds>
donor molecule, donor type, donor heavy atom, donor atom, acceptor molecule, acceptor atom, score
      L1  H    10    29       P1  7948  0.93
      P1  H  7989  7998       L1    19  0.56
      P1  H  7997  8008       L1    20  0.43

> <Gold.Chemscore.Hbond.Weighted>
-7.3582

> <Gold.Chemscore.Metal.Weighted>
-0.0000

> <Gold.Chemscore.Lipo.Weighted>
-6.4973

> <Gold.Chemscore.Internal_Hbond.Weighted>
0.0000

> <Gold.Chemscore.DEClash.Weighted>
0.5797

> <Gold.Chemscore.DEInternal.Weighted>
1.9173

> <Gold.Chemscore.Rot.Weighted>
3.6992

> <Gold.Chemscore.Internal.Correction.Weighted>
   9.000000E+99

> <Gold.Protein.RotatedTorsions>
[ 6907 6896 6895 6894 ] final  111.44 input  -60.11 | X-H torsion
[ 7974 7965 7964 7962 ] final -175.65 input  175.53 | X-H torsion
[ 8008 7997 7996 7995 ] final  -81.55 input   59.86 | X-H torsion
[ 10167 10162 10161 10158 ] final   12.31 input  -65.29 | X-H torsion
[ 10718 10713 10712 10709 ] final  -70.37 input   66.30 | X-H torsion
[ 10763 10752 10751 10750 ] final -131.12 input  -60.55 | X-H torsion
[ 11005 11000 10999 10996 ] final  -52.45 input  -57.11 | X-H torsion

> <Gold.Protein.ActiveResidues>
 VAL166  LYS551  ARG553  GLY616  TRP617  ASP618  TYR619  PRO620  LYS621  CYS622 
 ASP623  PHE694  ASN695  SER759  ASP760  ASP761  ALA762  ILE779  LEU786  VAL792 
 PHE793  MET794  SER795  GLU796  ALA797  LYS798  CYS799  TRP800  GLU811  SER814 

> <Gold.Protein.RotatedAtoms>
  152.4969  133.8657  159.7272 H   0  0  0  0  0  0  0  0  0  0  0  0  # atno 6907 bound_to 6896
  150.9157  133.6933  159.2850 H   0  0  0  0  0  0  0  0  0  0  0  0  # atno 6908 bound_to 6896
  151.4327  135.1016  159.9699 H   0  0  0  0  0  0  0  0  0  0  0  0  # atno 6909 bound_to 6896
  144.7128  140.1288  143.6400 H   0  0  0  0  0  0  0  0  0  0  0  0  # atno 7974 bound_to 7965
  154.5995  140.0646  156.9349 H   0  0  0  0  0  0  0  0  0  0  0  0  # atno 8008 bound_to 7997
  155.2156  140.3326  155.4304 H   0  0  0  0  0  0  0  0  0  0  0  0  # atno 8009 bound_to 7997
  156.2309  140.1840  156.7228 H   0  0  0  0  0  0  0  0  0  0  0  0  # atno 8010 bound_to 7997
  140.6076  143.8476  150.7030 H   0  0  0  0  0  0  0  0  0  0  0  0  # atno 10167 bound_to 10162
  156.0411  130.4330  150.2286 H   0  0  0  0  0  0  0  0  0  0  0  0  # atno 10718 bound_to 10713
  154.8752  135.3840  154.4194 H   0  0  0  0  0  0  0  0  0  0  0  0  # atno 10763 bound_to 10752
  153.4899  135.7030  153.5895 H   0  0  0  0  0  0  0  0  0  0  0  0  # atno 10764 bound_to 10752
  153.4273  135.3887  155.2116 H   0  0  0  0  0  0  0  0  0  0  0  0  # atno 10765 bound_to 10752
  141.0925  133.6630  156.4026 H   0  0  0  0  0  0  0  0  0  0  0  0  # atno 11005 bound_to 11000
  145.9305  139.2603  143.1328 LP  0  0  0  0  0  0  0  0  0  0  0  0  # atno 17320 bound_to 7965
  145.9528  140.8896  143.0250 LP  0  0  0  0  0  0  0  0  0  0  0  0  # atno 17321 bound_to 7965
  140.2036  143.3939  152.1772 LP  0  0  0  0  0  0  0  0  0  0  0  0  # atno 17342 bound_to 10162
  139.5336  144.7186  151.4969 LP  0  0  0  0  0  0  0  0  0  0  0  0  # atno 17343 bound_to 10162
  157.0381  131.0027  151.3292 LP  0  0  0  0  0  0  0  0  0  0  0  0  # atno 17370 bound_to 10713
  157.5229  130.8009  149.7829 LP  0  0  0  0  0  0  0  0  0  0  0  0  # atno 17371 bound_to 10713
  140.5219  134.6296  157.5321 LP  0  0  0  0  0  0  0  0  0  0  0  0  # atno 17394 bound_to 11000
  139.9754  134.7224  155.9960 LP  0  0  0  0  0  0  0  0  0  0  0  0  # atno 17395 bound_to 11000

$$$$
