AV-unprocessed.smi:38|AV-procd|sdf|335|dock10
  -GOLD-   2262016173D 1   1.00000     0.00000
 Structure written by MMmdl.
 28 29  0  0  0  0  0  0  0  0  1 V2000
  152.8245  140.1926  158.0431 O   0  0  0  0  0  0  0  0  0  0  0  0
  152.0140  140.2547  157.1208 C   0  0  0  0  0  0  0  0  0  0  0  0
  151.8825  139.1877  156.2269 N   0  0  0  0  0  0  0  0  0  0  0  0
  150.9996  139.1367  155.1462 C   0  0  0  0  0  0  0  0  0  0  0  0
  150.9645  138.1347  154.4337 O   0  0  0  0  0  0  0  0  0  0  0  0
  150.1726  140.2636  154.9372 N   0  0  0  0  0  0  0  0  0  0  0  0
  149.2001  140.2866  153.7799 C   0  0  1  0  0  0  0  0  0  0  0  0
  148.1109  139.2239  153.9569 C   0  0  0  0  0  0  0  0  0  0  0  0
  146.8954  140.0575  154.3179 C   0  0  2  0  0  0  0  0  0  0  0  0
  145.7098  139.4381  153.8628 O   0  0  0  0  0  0  0  0  0  0  0  0
  147.1763  141.3802  153.5996 C   0  0  1  0  0  0  0  0  0  0  0  0
  146.4499  142.5830  154.2209 C   0  0  0  0  0  0  0  0  0  0  0  0
  146.7560  142.6765  155.5955 O   0  0  0  0  0  0  0  0  0  0  0  0
  148.5837  141.5381  153.7499 O   0  0  0  0  0  0  0  0  0  0  0  0
  150.2689  141.3462  155.8010 C   0  0  0  0  0  0  0  0  0  0  0  0
  151.1275  141.3819  156.8471 C   0  0  0  0  0  0  0  0  0  0  0  0
  151.1635  142.4668  157.6395 F   0  0  0  0  0  0  0  0  0  0  0  0
  152.4757  138.3846  156.3763 H   0  0  0  0  0  0  0  0  0  0  0  0
  149.7688  140.1598  152.8580 H   0  0  0  0  0  0  0  0  0  0  0  0
  146.8474  140.2052  155.3974 H   0  0  0  0  0  0  0  0  0  0  0  0
  146.9427  141.2778  152.5377 H   0  0  0  0  0  0  0  0  0  0  0  0
  147.9729  138.7180  152.9998 H   0  0  0  0  0  0  0  0  0  0  0  0
  148.3734  138.4804  154.7107 H   0  0  0  0  0  0  0  0  0  0  0  0
  145.2575  140.0363  153.2875 H   0  0  0  0  0  0  0  0  0  0  0  0
  146.7832  143.5080  153.7497 H   0  0  0  0  0  0  0  0  0  0  0  0
  145.3715  142.5146  154.0740 H   0  0  0  0  0  0  0  0  0  0  0  0
  147.5969  143.0973  155.6892 H   0  0  0  0  0  0  0  0  0  0  0  0
  149.6363  142.2062  155.6398 H   0  0  0  0  0  0  0  0  0  0  0  0
  1  2  2  0  0  0  0
  2 16  1  0  0  0  0
  2  3  1  0  0  0  0
  3 18  1  0  0  0  0
  3  4  1  0  0  0  0
  4  5  2  0  0  0  0
  4  6  1  0  0  0  0
  6  7  1  0  0  0  0
  6 15  1  0  0  0  0
  7 19  1  0  0  0  0
  7 14  1  0  0  0  0
  7  8  1  0  0  0  0
  8  9  1  0  0  0  0
  8 22  1  0  0  0  0
  8 23  1  0  0  0  0
  9 20  1  0  0  0  0
  9 10  1  0  0  0  0
  9 11  1  0  0  0  0
 10 24  1  0  0  0  0
 11 21  1  0  0  0  0
 11 12  1  0  0  0  0
 11 14  1  0  0  0  0
 12 13  1  0  0  0  0
 12 25  1  0  0  0  0
 12 26  1  0  0  0  0
 13 27  1  0  0  0  0
 15 16  2  0  0  0  0
 15 28  1  0  0  0  0
 16 17  1  0  0  0  0
M  END
> <s_m_source_file>
AV-unprocessed.smi

> <i_m_source_file_index>
38

> <i_lp_mmshare_version>
43012

> <i_f3d_flags>
0

> <s_epik_input>
Tz1jMVtuSF1jKD1PKW4oW2NIXWMxRilbQ0BIXTJbQ0gyXVtDQEhdKFtPSF0pW0NASF0oTzIpW0NIMl1bT0hd

> <s_epik_cmdline>
J2VwaWtfcHl0aG9uJywgJy1waCcsICc3LjAnLCAnLXRuJywgJzgnLCAnLW1hJywgJzIwMCcsICctbWV0YWxfYmluZGluZycsICctaW1hZScsICc8aW5maWxlLm1hZT4nLCAnLW9tYWUnLCAnPG91dGZpbGUubWFlPic=

> <r_lp_tautomer_probability>
0.999537

> <r_epik_Ionization_Penalty>
0.0357432

> <r_epik_Ionization_Penalty_Charging>
0.0357431

> <r_epik_Ionization_Penalty_Neutral>
1.19946e-07

> <r_epik_State_Penalty>
0.0298169

> <r_epik_Charging_Adjusted_Penalty>
0.06556

> <i_epik_Tot_Q>
0

> <i_epik_Tot_abs_Q>
0

> <r_epik_Metal_State_Penalty>
2.348

> <b_epik_Metal_Only>
0

> <s_epik_Chemistry_Notes>
This compound contains an acetal/aminal-like group ( X-CH(R)-Y where X, Y are N, S, or O) that may be acid/base labile, releasing an aldehyde.

> <s_lp_Force_Field>
OPLS_2005

> <r_lp_Energy>
27.0042

> <b_lp_Chiralities_Consistent>
1

> <s_lp_Variant>
AV-unprocessed.smi:38-1

> <Gold.Version>
5.8.1

> <Gold.Id.Protein>
6NUR|6NUR_protein|mol2

> <Gold.PLP.Fitness>
41.0802

> <Gold.PLP.PLP>
-27.8101

> <Gold.PLP.part.hbond>
-4.0000

> <Gold.PLP.part.metal>
0.0000

> <Gold.PLP.part.buried>
1.5570

> <Gold.PLP.part.nonpolar>
-24.6295

> <Gold.PLP.part.repulsive>
0.4930

> <Gold.PLP.ligand.clash>
0.0000

> <Gold.PLP.ligand.torsion>
0.0528

> <Gold.PLP.Chemscore.Hbond>
3.5600

> <Gold.PLP.Chemscore.CHOScore>
0.8955

> <Gold.PLP.Chemscore.Metal>
0.0000

> <Gold.Chemscore.Hbonds>
donor molecule, donor type, donor heavy atom, donor atom, acceptor molecule, acceptor atom, score
      L1  H    10    24       P1 10175  0.94
      L1  H    13    27       P1  8028  0.98
      P1  H  7997  8009       L1     1  0.98
      P1  H  8011  8017       L1    14  0.58
      L1  C    15    28       P1  8028  0.77

> <Gold.PLP.Chemscore.Internal.Correction>
0.0092

> <Gold.Rescore>
     Score         DG    S(hbond)    S(metal)    S(lipo)     H(rot)  DE(clash)    DE(int)     intcor
      8.91     -10.86       2.56        0.00      36.84       2.91       1.85       0.10       ----

> <Gold.Chemscore.Fitness>
8.9139

> <Gold.Chemscore.DG>
-10.8650

> <Gold.Chemscore.ZeroCoef>
-5.4800

> <Gold.Chemscore.Hbond>
2.5552

> <Gold.Chemscore.Metal>
0.0000

> <Gold.Chemscore.Lipo>
36.8446

> <Gold.Chemscore.Internal_Hbond>
0.0000

> <Gold.Chemscore.DEClash>
1.8477

> <Gold.Chemscore.DEInternal>
0.1034

> <Gold.Chemscore.Rot>
2.9141

> <Gold.Chemscore.Internal.Correction>
   9.000000E+99

> <Gold.Chemscore.Hbonds>
donor molecule, donor type, donor heavy atom, donor atom, acceptor molecule, acceptor atom, score
      L1  H    10    24       P1 10175  0.91
      L1  H    13    27       P1  8028  0.23
      P1  H  7997  8009       L1     1  0.22
      P1  H  8011  8017       L1    14  0.11

> <Gold.Chemscore.Hbond.Weighted>
-8.5342

> <Gold.Chemscore.Metal.Weighted>
-0.0000

> <Gold.Chemscore.Lipo.Weighted>
-4.3108

> <Gold.Chemscore.Internal_Hbond.Weighted>
0.0000

> <Gold.Chemscore.DEClash.Weighted>
1.8477

> <Gold.Chemscore.DEInternal.Weighted>
0.1034

> <Gold.Chemscore.Rot.Weighted>
7.4601

> <Gold.Chemscore.Internal.Correction.Weighted>
   9.000000E+99

> <Gold.Protein.RotatedTorsions>
[ 6907 6896 6895 6894 ] final  -80.20 input  -60.11 | X-H torsion
[ 7974 7965 7964 7962 ] final -148.17 input  175.53 | X-H torsion
[ 8008 7997 7996 7995 ] final  157.24 input   59.86 | X-H torsion
[ 10167 10162 10161 10158 ] final  128.95 input  -65.29 | X-H torsion
[ 10718 10713 10712 10709 ] final -122.46 input   66.30 | X-H torsion
[ 10763 10752 10751 10750 ] final   -9.01 input  -60.55 | X-H torsion
[ 11005 11000 10999 10996 ] final   35.09 input  -57.11 | X-H torsion

> <Gold.Protein.ActiveResidues>
 VAL166  LYS551  ARG553  GLY616  TRP617  ASP618  TYR619  PRO620  LYS621  CYS622 
 ASP623  PHE694  ASN695  SER759  ASP760  ASP761  ALA762  ILE779  LEU786  VAL792 
 PHE793  MET794  SER795  GLU796  ALA797  LYS798  CYS799  TRP800  GLU811  SER814 

> <Gold.Protein.RotatedAtoms>
  150.6934  134.4006  159.5116 H   0  0  0  0  0  0  0  0  0  0  0  0  # atno 6907 bound_to 6896
  152.1780  134.8776  160.0538 H   0  0  0  0  0  0  0  0  0  0  0  0  # atno 6908 bound_to 6896
  151.9777  133.3712  159.4132 H   0  0  0  0  0  0  0  0  0  0  0  0  # atno 6909 bound_to 6896
  144.8046  140.5231  143.5684 H   0  0  0  0  0  0  0  0  0  0  0  0  # atno 7974 bound_to 7965
  156.2376  140.1891  156.7078 H   0  0  0  0  0  0  0  0  0  0  0  0  # atno 8008 bound_to 7997
  154.6135  140.0618  156.9551 H   0  0  0  0  0  0  0  0  0  0  0  0  # atno 8009 bound_to 7997
  155.1978  140.3289  155.4350 H   0  0  0  0  0  0  0  0  0  0  0  0  # atno 8010 bound_to 7997
  139.5502  144.6807  151.4348 H   0  0  0  0  0  0  0  0  0  0  0  0  # atno 10167 bound_to 10162
  156.1420  130.6473  150.9786 H   0  0  0  0  0  0  0  0  0  0  0  0  # atno 10718 bound_to 10713
  153.4486  135.7015  153.6123 H   0  0  0  0  0  0  0  0  0  0  0  0  # atno 10763 bound_to 10752
  153.4467  135.3767  155.2260 H   0  0  0  0  0  0  0  0  0  0  0  0  # atno 10764 bound_to 10752
  154.8728  135.3987  154.3895 H   0  0  0  0  0  0  0  0  0  0  0  0  # atno 10765 bound_to 10752
  140.2462  134.3356  155.7907 H   0  0  0  0  0  0  0  0  0  0  0  0  # atno 11005 bound_to 11000
  145.5469  139.1476  143.3416 LP  0  0  0  0  0  0  0  0  0  0  0  0  # atno 17320 bound_to 7965
  146.2335  140.5608  142.8965 LP  0  0  0  0  0  0  0  0  0  0  0  0  # atno 17321 bound_to 7965
  140.6762  143.8184  150.7061 LP  0  0  0  0  0  0  0  0  0  0  0  0  # atno 17342 bound_to 10162
  140.1624  143.4264  152.2058 LP  0  0  0  0  0  0  0  0  0  0  0  0  # atno 17343 bound_to 10162
  157.6584  131.0885  150.7894 LP  0  0  0  0  0  0  0  0  0  0  0  0  # atno 17370 bound_to 10713
  156.7969  130.4908  149.5376 LP  0  0  0  0  0  0  0  0  0  0  0  0  # atno 17371 bound_to 10713
  141.2206  133.7327  156.8965 LP  0  0  0  0  0  0  0  0  0  0  0  0  # atno 17394 bound_to 11000
  140.1603  134.9170  157.2706 LP  0  0  0  0  0  0  0  0  0  0  0  0  # atno 17395 bound_to 11000

$$$$
