AV-unprocessed.smi:2499|AV-procd|sdf|9840|dock7
  -GOLD-   2272013463D 1   1.00000     0.00000
 Structure written by MMmdl.
 26 27  0  0  0  0  0  0  0  0  2 V2000
  151.5305  143.9633  157.7841 C   0  0  0  0  0  0  0  0  0  0  0  0
  151.8179  142.8279  158.7759 C   0  0  1  0  0  0  0  0  0  0  0  0
  152.3222  141.6773  158.0313 N   0  0  0  0  0  0  0  0  0  0  0  0
  151.6864  141.0285  157.0444 C   0  0  0  0  0  0  0  0  0  0  0  0
  150.5657  141.3969  156.6856 O   0  0  0  0  0  0  0  0  0  0  0  0
  152.3897  139.9921  156.5345 N   0  5  0  0  0  0  0  0  0  0  0  0
  151.8617  139.2459  155.5510 C   0  0  0  0  0  0  0  0  0  0  0  0
  150.8408  139.5849  154.7618 N   0  0  0  0  0  0  0  0  0  0  0  0
  150.6556  138.5144  153.9006 C   0  0  0  0  0  0  0  0  0  0  0  0
  151.5913  137.5641  154.2052 C   0  0  0  0  0  0  0  0  0  0  0  0
  152.3601  138.0151  155.2424 O   0  0  0  0  0  0  0  0  0  0  0  0
  152.7560  143.2963  159.8765 C   0  0  0  0  0  0  0  0  0  0  0  0
  152.8861  142.5383  161.1770 C   0  0  0  0  0  0  0  0  0  0  0  0
  152.2165  143.8925  161.1556 C   0  0  0  0  0  0  0  0  0  0  0  0
  151.0967  144.8264  158.2895 H   0  0  0  0  0  0  0  0  0  0  0  0
  150.8249  143.6449  157.0160 H   0  0  0  0  0  0  0  0  0  0  0  0
  152.4415  144.2937  157.2838 H   0  0  0  0  0  0  0  0  0  0  0  0
  150.8668  142.5525  159.2354 H   0  0  0  0  0  0  0  0  0  0  0  0
  153.2380  141.3388  158.2871 H   0  0  0  0  0  0  0  0  0  0  0  0
  149.8825  138.5147  153.1468 H   0  0  0  0  0  0  0  0  0  0  0  0
  151.8282  136.5871  153.8118 H   0  0  0  0  0  0  0  0  0  0  0  0
  153.6697  143.7530  159.5003 H   0  0  0  0  0  0  0  0  0  0  0  0
  152.2498  141.6682  161.3256 H   0  0  0  0  0  0  0  0  0  0  0  0
  153.8776  142.4711  161.6195 H   0  0  0  0  0  0  0  0  0  0  0  0
  152.7604  144.7301  161.5874 H   0  0  0  0  0  0  0  0  0  0  0  0
  151.1367  143.9197  161.2871 H   0  0  0  0  0  0  0  0  0  0  0  0
  1  2  1  0  0  0  0
  1 15  1  0  0  0  0
  1 16  1  0  0  0  0
  1 17  1  0  0  0  0
  2  3  1  0  0  0  0
  2 12  1  0  0  0  0
  2 18  1  0  0  0  0
  3 19  1  0  0  0  0
  3  4  1  0  0  0  0
  4  6  1  0  0  0  0
  4  5  2  0  0  0  0
  6  7  1  0  0  0  0
  7 11  1  0  0  0  0
  7  8  2  0  0  0  0
  8  9  1  0  0  0  0
  9 20  1  0  0  0  0
  9 10  2  0  0  0  0
 10 21  1  0  0  0  0
 10 11  1  0  0  0  0
 12 14  1  0  0  0  0
 12 13  1  0  0  0  0
 12 22  1  0  0  0  0
 13 14  1  0  0  0  0
 13 23  1  0  0  0  0
 13 24  1  0  0  0  0
 14 25  1  0  0  0  0
 14 26  1  0  0  0  0
M  CHG  1   6  -1
M  END
> <s_m_source_file>
AV-unprocessed.smi

> <i_m_source_file_index>
2499

> <i_lp_mmshare_version>
43012

> <i_f3d_flags>
0

> <s_epik_input>
W0NIMl0xW0NIMl1bQ0hdMVtDQEhdKFtDSDNdKVtOSF1DKD1PKVtOSF1jMm5bY0hdW2NIXW8y

> <s_epik_cmdline>
J2VwaWtfcHl0aG9uJywgJy1waCcsICc3LjAnLCAnLXRuJywgJzgnLCAnLW1hJywgJzIwMCcsICctbWV0YWxfYmluZGluZycsICctaW1hZScsICc8aW5maWxlLm1hZT4nLCAnLW9tYWUnLCAnPG91dGZpbGUubWFlPic=

> <r_lp_tautomer_probability>
0.107061

> <r_epik_Ionization_Penalty>
11.2144

> <r_epik_Ionization_Penalty_Charging>
7.87172

> <r_epik_Ionization_Penalty_Neutral>
3.3427

> <r_epik_State_Penalty>
5.96777

> <r_epik_Charging_Adjusted_Penalty>
13.8395

> <i_epik_Tot_Q>
-1

> <i_epik_Tot_abs_Q>
1

> <r_epik_Metal_State_Penalty>
1.88989

> <b_epik_Metal_Only>
1

> <s_lp_Force_Field>
OPLS_2005

> <r_lp_Energy>
7.96156

> <b_lp_Chiralities_Consistent>
1

> <s_lp_Variant>
AV-unprocessed.smi:2499-10

> <Gold.Version>
5.8.1

> <Gold.Id.Protein>
6NUR|6NUR_protein|mol2

> <Gold.PLP.Fitness>
45.4495

> <Gold.PLP.PLP>
-29.8950

> <Gold.PLP.part.hbond>
-2.0772

> <Gold.PLP.part.metal>
0.0000

> <Gold.PLP.part.buried>
-2.5569

> <Gold.PLP.part.nonpolar>
-25.7548

> <Gold.PLP.part.repulsive>
0.2420

> <Gold.PLP.ligand.clash>
0.0000

> <Gold.PLP.ligand.torsion>
0.6147

> <Gold.PLP.Chemscore.Hbond>
3.0000

> <Gold.PLP.Chemscore.CHOScore>
2.2355

> <Gold.PLP.Chemscore.Metal>
0.0000

> <Gold.Chemscore.Hbonds>
donor molecule, donor type, donor heavy atom, donor atom, acceptor molecule, acceptor atom, score
      P1  H  7989  7998       L1     8  0.95
      P1  H  7997  8009       L1     6  2.00
      L1  C     9    20       P1  7948  0.43
      L1  C     9    20       P1  7957  0.98
      L1  C    10    21       P1  7949  0.81

> <Gold.PLP.Chemscore.Internal.Correction>
1.0774

> <Gold.Rescore>
     Score         DG    S(hbond)    S(metal)    S(lipo)     H(rot)  DE(clash)    DE(int)     intcor
     14.28     -16.78       1.78        0.00      73.81       1.28       0.16       2.35       ----

> <Gold.Chemscore.Fitness>
14.2772

> <Gold.Chemscore.DG>
-16.7844

> <Gold.Chemscore.ZeroCoef>
-5.4800

> <Gold.Chemscore.Hbond>
1.7783

> <Gold.Chemscore.Metal>
0.0000

> <Gold.Chemscore.Lipo>
73.8120

> <Gold.Chemscore.Internal_Hbond>
0.0000

> <Gold.Chemscore.DEClash>
0.1611

> <Gold.Chemscore.DEInternal>
2.3461

> <Gold.Chemscore.Rot>
1.2778

> <Gold.Chemscore.Internal.Correction>
   9.000000E+99

> <Gold.Chemscore.Hbonds>
donor molecule, donor type, donor heavy atom, donor atom, acceptor molecule, acceptor atom, score
      P1  H  7989  7998       L1     8  0.09
      P1  H  7997  8009       L1     6  0.84

> <Gold.Chemscore.Hbond.Weighted>
-5.9395

> <Gold.Chemscore.Metal.Weighted>
-0.0000

> <Gold.Chemscore.Lipo.Weighted>
-8.6360

> <Gold.Chemscore.Internal_Hbond.Weighted>
0.0000

> <Gold.Chemscore.DEClash.Weighted>
0.1611

> <Gold.Chemscore.DEInternal.Weighted>
2.3461

> <Gold.Chemscore.Rot.Weighted>
3.2711

> <Gold.Chemscore.Internal.Correction.Weighted>
   9.000000E+99

> <Gold.Protein.RotatedTorsions>
[ 6907 6896 6895 6894 ] final   91.92 input  -60.11 | X-H torsion
[ 7974 7965 7964 7962 ] final  132.39 input  175.53 | X-H torsion
[ 8008 7997 7996 7995 ] final -169.42 input   59.86 | X-H torsion
[ 10167 10162 10161 10158 ] final   52.45 input  -65.29 | X-H torsion
[ 10718 10713 10712 10709 ] final -138.42 input   66.30 | X-H torsion
[ 10763 10752 10751 10750 ] final -160.38 input  -60.55 | X-H torsion
[ 11005 11000 10999 10996 ] final  172.07 input  -57.11 | X-H torsion

> <Gold.Protein.ActiveResidues>
 VAL166  LYS551  ARG553  GLY616  TRP617  ASP618  TYR619  PRO620  LYS621  CYS622 
 ASP623  PHE694  ASN695  SER759  ASP760  ASP761  ALA762  ILE779  LEU786  VAL792 
 PHE793  MET794  SER795  GLU796  ALA797  LYS798  CYS799  TRP800  GLU811  SER814 

> <Gold.Protein.RotatedAtoms>
  152.5451  134.1582  159.8546 H   0  0  0  0  0  0  0  0  0  0  0  0  # atno 6907 bound_to 6896
  151.1603  133.4842  159.2602 H   0  0  0  0  0  0  0  0  0  0  0  0  # atno 6908 bound_to 6896
  151.1380  135.0176  159.8668 H   0  0  0  0  0  0  0  0  0  0  0  0  # atno 6909 bound_to 6896
  144.9974  139.4346  143.5309 H   0  0  0  0  0  0  0  0  0  0  0  0  # atno 7974 bound_to 7965
  155.9047  140.1047  157.1324 H   0  0  0  0  0  0  0  0  0  0  0  0  # atno 8008 bound_to 7997
  154.4031  140.1286  156.4545 H   0  0  0  0  0  0  0  0  0  0  0  0  # atno 8009 bound_to 7997
  155.7381  140.3467  155.5093 H   0  0  0  0  0  0  0  0  0  0  0  0  # atno 8010 bound_to 7997
  140.2513  144.3476  150.6347 H   0  0  0  0  0  0  0  0  0  0  0  0  # atno 10167 bound_to 10162
  156.2991  130.7418  151.1465 H   0  0  0  0  0  0  0  0  0  0  0  0  # atno 10718 bound_to 10713
  154.7395  135.3065  154.8752 H   0  0  0  0  0  0  0  0  0  0  0  0  # atno 10763 bound_to 10752
  153.9571  135.6757  153.4749 H   0  0  0  0  0  0  0  0  0  0  0  0  # atno 10764 bound_to 10752
  153.0995  135.4919  154.8765 H   0  0  0  0  0  0  0  0  0  0  0  0  # atno 10765 bound_to 10752
  140.3257  134.7399  157.4097 H   0  0  0  0  0  0  0  0  0  0  0  0  # atno 11005 bound_to 11000
  146.3444  139.9342  142.8749 LP  0  0  0  0  0  0  0  0  0  0  0  0  # atno 17320 bound_to 7965
  145.2201  140.9931  143.4050 LP  0  0  0  0  0  0  0  0  0  0  0  0  # atno 17321 bound_to 7965
  140.6038  143.2167  151.7020 LP  0  0  0  0  0  0  0  0  0  0  0  0  # atno 17342 bound_to 10162
  139.5045  144.3750  152.0432 LP  0  0  0  0  0  0  0  0  0  0  0  0  # atno 17343 bound_to 10162
  157.7363  131.0563  150.5420 LP  0  0  0  0  0  0  0  0  0  0  0  0  # atno 17370 bound_to 10713
  156.5546  130.4240  149.6091 LP  0  0  0  0  0  0  0  0  0  0  0  0  # atno 17371 bound_to 10713
  140.0903  134.5610  155.8451 LP  0  0  0  0  0  0  0  0  0  0  0  0  # atno 17394 bound_to 11000
  141.2076  133.6665  156.6314 LP  0  0  0  0  0  0  0  0  0  0  0  0  # atno 17395 bound_to 11000

$$$$
