AV-unprocessed.smi:697|AV-procd|sdf|3394|dock6
  -GOLD-   22720 0373D 1   1.00000     0.00000
 Structure written by MMmdl.
 43 44  0  0  0  0  0  0  0  0  2 V2000
  142.4342  143.6751  160.9808 C   0  0  0  0  0  0  0  0  0  0  0  0
  142.8957  143.6101  159.6369 O   0  0  0  0  0  0  0  0  0  0  0  0
  143.9542  144.5015  159.2593 C   0  0  2  0  0  0  0  0  0  0  0  0
  143.6750  145.9187  159.7756 C   0  0  0  0  0  0  0  0  0  0  0  0
  144.3196  144.2966  157.7766 C   0  0  0  0  0  0  0  0  0  0  0  0
  145.1958  143.1305  158.2295 C   0  0  1  0  0  0  0  0  0  0  0  0
  146.4407  143.0370  157.4744 N   0  0  0  0  0  0  0  0  0  0  0  0
  147.2823  141.9962  157.5247 C   0  0  0  0  0  0  0  0  0  0  0  0
  147.0783  140.9980  158.2153 O   0  0  0  0  0  0  0  0  0  0  0  0
  148.3584  142.2157  156.7482 N   0  0  0  0  0  0  0  0  0  0  0  0
  149.4601  141.3820  156.4933 C   0  0  0  0  0  0  0  0  0  0  0  0
  150.1992  140.7554  157.4504 C   0  0  0  0  0  0  0  0  0  0  0  0
  151.3233  139.8868  157.1236 C   0  0  0  0  0  0  0  0  0  0  0  0
  152.1180  139.1107  158.1589 C   0  0  0  0  0  0  0  0  0  0  0  0
  153.0914  138.4030  157.5848 F   0  0  0  0  0  0  0  0  0  0  0  0
  152.6745  139.9526  159.0286 F   0  0  0  0  0  0  0  0  0  0  0  0
  151.3323  138.2728  158.8356 F   0  0  0  0  0  0  0  0  0  0  0  0
  151.5120  139.7643  155.7607 C   0  0  0  0  0  0  0  0  0  0  0  0
  150.8342  140.3535  154.7514 N   0  5  0  0  0  0  0  0  0  0  0  0
  149.7899  141.1699  155.0687 C   0  0  0  0  0  0  0  0  0  0  0  0
  149.1229  141.7299  154.1978 O   0  0  0  0  0  0  0  0  0  0  0  0
  145.3195  143.8242  159.6105 C   0  0  0  0  0  0  0  0  0  0  0  0
  146.5157  144.7763  159.8018 C   0  0  0  0  0  0  0  0  0  0  0  0
  145.3290  142.8943  160.8287 C   0  0  0  0  0  0  0  0  0  0  0  0
  141.5393  143.0611  161.0790 H   0  0  0  0  0  0  0  0  0  0  0  0
  142.1735  144.6889  161.2830 H   0  0  0  0  0  0  0  0  0  0  0  0
  143.1720  143.2801  161.6788 H   0  0  0  0  0  0  0  0  0  0  0  0
  144.5118  146.5907  159.5889 H   0  0  0  0  0  0  0  0  0  0  0  0
  143.4894  145.9194  160.8500 H   0  0  0  0  0  0  0  0  0  0  0  0
  142.8123  146.3691  159.2855 H   0  0  0  0  0  0  0  0  0  0  0  0
  143.5030  144.0099  157.1149 H   0  0  0  0  0  0  0  0  0  0  0  0
  144.8845  145.1328  157.3604 H   0  0  0  0  0  0  0  0  0  0  0  0
  144.6311  142.1961  158.2712 H   0  0  0  0  0  0  0  0  0  0  0  0
  146.6822  143.8202  156.8850 H   0  0  0  0  0  0  0  0  0  0  0  0
  148.4136  143.1200  156.3029 H   0  0  0  0  0  0  0  0  0  0  0  0
  149.9617  140.8694  158.4953 H   0  0  0  0  0  0  0  0  0  0  0  0
  152.3273  139.0851  155.4312 H   0  0  0  0  0  0  0  0  0  0  0  0
  147.4575  144.2308  159.8703 H   0  0  0  0  0  0  0  0  0  0  0  0
  146.4170  145.3626  160.7158 H   0  0  0  0  0  0  0  0  0  0  0  0
  146.6177  145.4815  158.9768 H   0  0  0  0  0  0  0  0  0  0  0  0
  146.2992  142.4143  160.9602 H   0  0  0  0  0  0  0  0  0  0  0  0
  144.5960  142.0926  160.7361 H   0  0  0  0  0  0  0  0  0  0  0  0
  145.1011  143.4378  161.7461 H   0  0  0  0  0  0  0  0  0  0  0  0
  1  2  1  0  0  0  0
  1 25  1  0  0  0  0
  1 26  1  0  0  0  0
  1 27  1  0  0  0  0
  2  3  1  0  0  0  0
  3 22  1  0  0  0  0
  3  4  1  0  0  0  0
  3  5  1  0  0  0  0
  4 28  1  0  0  0  0
  4 29  1  0  0  0  0
  4 30  1  0  0  0  0
  5  6  1  0  0  0  0
  5 31  1  0  0  0  0
  5 32  1  0  0  0  0
  6  7  1  0  0  0  0
  6 22  1  0  0  0  0
  6 33  1  0  0  0  0
  7  8  1  0  0  0  0
  7 34  1  0  0  0  0
  8  9  2  0  0  0  0
  8 10  1  0  0  0  0
 10 11  1  0  0  0  0
 10 35  1  0  0  0  0
 11 20  1  0  0  0  0
 11 12  2  0  0  0  0
 12 13  1  0  0  0  0
 12 36  1  0  0  0  0
 13 14  1  0  0  0  0
 13 18  2  0  0  0  0
 14 15  1  0  0  0  0
 14 16  1  0  0  0  0
 14 17  1  0  0  0  0
 18 19  1  0  0  0  0
 18 37  1  0  0  0  0
 19 20  1  0  0  0  0
 20 21  2  0  0  0  0
 22 23  1  0  0  0  0
 22 24  1  0  0  0  0
 23 38  1  0  0  0  0
 23 39  1  0  0  0  0
 23 40  1  0  0  0  0
 24 41  1  0  0  0  0
 24 42  1  0  0  0  0
 24 43  1  0  0  0  0
M  CHG  1  19  -1
M  END
> <s_m_source_file>
AV-unprocessed.smi

> <i_m_source_file_index>
697

> <i_lp_mmshare_version>
43012

> <i_f3d_flags>
0

> <s_epik_input>
W0NIM11PW0NAQF0xKFtDSDNdKVtDSDJdW0NASF0oQzEoW0NIM10pW0NIM10pW05IXUMoPU8pW05IXWMyW2NIXWMoQyhGKShGKUYpW2NIXVtuSF1jMj1P

> <s_epik_cmdline>
J2VwaWtfcHl0aG9uJywgJy1waCcsICc3LjAnLCAnLXRuJywgJzgnLCAnLW1hJywgJzIwMCcsICctbWV0YWxfYmluZGluZycsICctaW1hZScsICc8aW5maWxlLm1hZT4nLCAnLW9tYWUnLCAnPG91dGZpbGUubWFlPic=

> <r_lp_tautomer_probability>
1

> <r_epik_Ionization_Penalty>
3.20094

> <r_epik_Ionization_Penalty_Charging>
0.180017

> <r_epik_Ionization_Penalty_Neutral>
3.02092

> <r_epik_State_Penalty>
3.01726

> <r_epik_Charging_Adjusted_Penalty>
3.19727

> <i_epik_Tot_Q>
-1

> <i_epik_Tot_abs_Q>
1

> <r_epik_Metal_State_Penalty>
0.455096

> <b_epik_Metal_Only>
1

> <s_lp_Force_Field>
OPLS_2005

> <r_lp_Energy>
36.2607

> <b_lp_Chiralities_Consistent>
1

> <s_lp_Variant>
AV-unprocessed.smi:697-6

> <Gold.Version>
5.8.1

> <Gold.Id.Protein>
6NUR|6NUR_protein|mol2

> <Gold.PLP.Fitness>
35.8308

> <Gold.PLP.PLP>
-29.8862

> <Gold.PLP.part.hbond>
-4.8310

> <Gold.PLP.part.metal>
0.0000

> <Gold.PLP.part.buried>
-3.4353

> <Gold.PLP.part.nonpolar>
-20.7462

> <Gold.PLP.part.repulsive>
0.2959

> <Gold.PLP.ligand.clash>
0.0000

> <Gold.PLP.ligand.torsion>
0.9350

> <Gold.PLP.Chemscore.Hbond>
2.4633

> <Gold.PLP.Chemscore.CHOScore>
0.0000

> <Gold.PLP.Chemscore.Metal>
0.0000

> <Gold.Chemscore.Hbonds>
donor molecule, donor type, donor heavy atom, donor atom, acceptor molecule, acceptor atom, score
      L1  H    10    35       P1  8028  1.00
      P1  H  7989  7998       L1    19  1.00
      P1  H  8011  8017       L1    21  0.45

> <Gold.PLP.Chemscore.Internal.Correction>
0.4248

> <Gold.Rescore>
     Score         DG    S(hbond)    S(metal)    S(lipo)     H(rot)  DE(clash)    DE(int)     intcor
     13.49     -14.80       2.03        0.00      49.95       1.30       0.28       1.04       ----

> <Gold.Chemscore.Fitness>
13.4854

> <Gold.Chemscore.DG>
-14.7989

> <Gold.Chemscore.ZeroCoef>
-5.4800

> <Gold.Chemscore.Hbond>
2.0346

> <Gold.Chemscore.Metal>
0.0000

> <Gold.Chemscore.Lipo>
49.9527

> <Gold.Chemscore.Internal_Hbond>
0.0000

> <Gold.Chemscore.DEClash>
0.2773

> <Gold.Chemscore.DEInternal>
1.0361

> <Gold.Chemscore.Rot>
1.2973

> <Gold.Chemscore.Internal.Correction>
   9.000000E+99

> <Gold.Chemscore.Hbonds>
donor molecule, donor type, donor heavy atom, donor atom, acceptor molecule, acceptor atom, score
      L1  H    10    35       P1  8028  0.78
      P1  H  6934  6946       L1     9  0.01
      P1  H  7989  7998       L1    19  0.76
      P1  H  8011  8017       L1    21  0.43

> <Gold.Chemscore.Hbond.Weighted>
-6.7954

> <Gold.Chemscore.Metal.Weighted>
-0.0000

> <Gold.Chemscore.Lipo.Weighted>
-5.8445

> <Gold.Chemscore.Internal_Hbond.Weighted>
0.0000

> <Gold.Chemscore.DEClash.Weighted>
0.2773

> <Gold.Chemscore.DEInternal.Weighted>
1.0361

> <Gold.Chemscore.Rot.Weighted>
3.3210

> <Gold.Chemscore.Internal.Correction.Weighted>
   9.000000E+99

> <Gold.Protein.RotatedTorsions>
[ 6907 6896 6895 6894 ] final  133.16 input  -60.11 | X-H torsion
[ 7974 7965 7964 7962 ] final -172.95 input  175.53 | X-H torsion
[ 8008 7997 7996 7995 ] final  172.81 input   59.86 | X-H torsion
[ 10167 10162 10161 10158 ] final  117.76 input  -65.29 | X-H torsion
[ 10718 10713 10712 10709 ] final   39.29 input   66.30 | X-H torsion
[ 10763 10752 10751 10750 ] final  136.37 input  -60.55 | X-H torsion
[ 11005 11000 10999 10996 ] final -167.12 input  -57.11 | X-H torsion

> <Gold.Protein.ActiveResidues>
 VAL166  LYS551  ARG553  GLY616  TRP617  ASP618  TYR619  PRO620  LYS621  CYS622 
 ASP623  PHE694  ASN695  SER759  ASP760  ASP761  ALA762  ILE779  LEU786  VAL792 
 PHE793  MET794  SER795  GLU796  ALA797  LYS798  CYS799  TRP800  GLU811  SER814 

> <Gold.Protein.RotatedAtoms>
  152.3248  133.5893  159.5769 H   0  0  0  0  0  0  0  0  0  0  0  0  # atno 6907 bound_to 6896
  150.7391  133.9956  159.3630 H   0  0  0  0  0  0  0  0  0  0  0  0  # atno 6908 bound_to 6896
  151.7837  135.0755  160.0428 H   0  0  0  0  0  0  0  0  0  0  0  0  # atno 6909 bound_to 6896
  144.7142  140.1695  143.6369 H   0  0  0  0  0  0  0  0  0  0  0  0  # atno 7974 bound_to 7965
  156.1138  140.1476  156.9302 H   0  0  0  0  0  0  0  0  0  0  0  0  # atno 8008 bound_to 7997
  154.4785  140.0886  156.7364 H   0  0  0  0  0  0  0  0  0  0  0  0  # atno 8009 bound_to 7997
  155.4550  140.3436  155.4307 H   0  0  0  0  0  0  0  0  0  0  0  0  # atno 8010 bound_to 7997
  139.6157  144.7091  151.2745 H   0  0  0  0  0  0  0  0  0  0  0  0  # atno 10167 bound_to 10162
  157.3688  130.7690  149.7103 H   0  0  0  0  0  0  0  0  0  0  0  0  # atno 10718 bound_to 10713
  153.8554  135.3074  155.3435 H   0  0  0  0  0  0  0  0  0  0  0  0  # atno 10763 bound_to 10752
  154.7873  135.4802  153.9976 H   0  0  0  0  0  0  0  0  0  0  0  0  # atno 10764 bound_to 10752
  153.1493  135.6840  153.9000 H   0  0  0  0  0  0  0  0  0  0  0  0  # atno 10765 bound_to 10752
  140.5569  134.5373  157.5135 H   0  0  0  0  0  0  0  0  0  0  0  0  # atno 11005 bound_to 11000
  145.8956  139.2401  143.1523 LP  0  0  0  0  0  0  0  0  0  0  0  0  # atno 17320 bound_to 7965
  145.9861  140.8642  143.0090 LP  0  0  0  0  0  0  0  0  0  0  0  0  # atno 17321 bound_to 7965
  140.7349  143.6752  150.8048 LP  0  0  0  0  0  0  0  0  0  0  0  0  # atno 17342 bound_to 10162
  140.0354  143.5400  152.2741 LP  0  0  0  0  0  0  0  0  0  0  0  0  # atno 17343 bound_to 10162
  155.9751  130.4093  150.3872 LP  0  0  0  0  0  0  0  0  0  0  0  0  # atno 17370 bound_to 10713
  157.1959  131.0426  151.2676 LP  0  0  0  0  0  0  0  0  0  0  0  0  # atno 17371 bound_to 10713
  139.9427  134.7757  156.0638 LP  0  0  0  0  0  0  0  0  0  0  0  0  # atno 17394 bound_to 11000
  141.1138  133.6634  156.3044 LP  0  0  0  0  0  0  0  0  0  0  0  0  # atno 17395 bound_to 11000

$$$$
