AV-unprocessed.smi:2720|AV-procd|sdf|10499|dock10
  -GOLD-   2272014543D 1   1.00000     0.00000
 Structure written by MMmdl.
 32 33  0  0  0  0  0  0  0  0  3 V2000
  149.5193  141.0037  153.4314 O   0  0  0  0  0  0  0  0  0  0  0  0
  148.8219  140.8211  154.6511 C   0  0  0  0  0  0  0  0  0  0  0  0
  149.8571  141.0007  155.7939 C   0  0  0  0  0  0  0  0  0  0  0  0
  150.7832  139.8147  156.0233 C   0  0  0  0  0  0  0  0  0  0  0  0
  151.3445  139.5715  157.2976 C   0  0  0  0  0  0  0  0  0  0  0  0
  152.2009  138.4652  157.4735 C   0  0  0  0  0  0  0  0  0  0  0  0
  152.4758  137.6542  156.4288 N   0  3  0  0  0  0  0  0  0  0  0  0
  151.9633  137.8515  155.1946 C   0  0  0  0  0  0  0  0  0  0  0  0
  151.1017  138.9422  154.9588 C   0  0  0  0  0  0  0  0  0  0  0  0
  147.7258  141.9085  154.7433 C   0  0  0  0  0  0  0  0  0  0  0  0
  146.6204  141.7333  153.6851 C   0  0  0  0  0  0  0  0  0  0  0  0
  146.0316  140.3803  153.7603 N   0  3  0  0  0  0  0  0  0  0  0  0
  147.0353  139.3113  153.5788 C   0  0  0  0  0  0  0  0  0  0  0  0
  148.1573  139.4208  154.6294 C   0  0  0  0  0  0  0  0  0  0  0  0
  149.4537  140.2101  152.9214 H   0  0  0  0  0  0  0  0  0  0  0  0
  150.4549  141.8997  155.6344 H   0  0  0  0  0  0  0  0  0  0  0  0
  149.3264  141.1736  156.7311 H   0  0  0  0  0  0  0  0  0  0  0  0
  151.1232  140.2213  158.1319 H   0  0  0  0  0  0  0  0  0  0  0  0
  152.6713  138.2070  158.4111 H   0  0  0  0  0  0  0  0  0  0  0  0
  152.2564  137.1372  154.4390 H   0  0  0  0  0  0  0  0  0  0  0  0
  150.6903  139.1044  153.9729 H   0  0  0  0  0  0  0  0  0  0  0  0
  147.2648  141.8745  155.7318 H   0  0  0  0  0  0  0  0  0  0  0  0
  148.1683  142.9015  154.6525 H   0  0  0  0  0  0  0  0  0  0  0  0
  145.8322  142.4707  153.8383 H   0  0  0  0  0  0  0  0  0  0  0  0
  147.0166  141.8990  152.6824 H   0  0  0  0  0  0  0  0  0  0  0  0
  145.5952  140.2659  154.6640 H   0  0  0  0  0  0  0  0  0  0  0  0
  146.5394  138.3435  153.6571 H   0  0  0  0  0  0  0  0  0  0  0  0
  147.4472  139.3736  152.5707 H   0  0  0  0  0  0  0  0  0  0  0  0
  148.8970  138.6425  154.4376 H   0  0  0  0  0  0  0  0  0  0  0  0
  147.7378  139.2070  155.6136 H   0  0  0  0  0  0  0  0  0  0  0  0
  145.3248  140.2911  153.0440 H   0  0  0  0  0  0  0  0  0  0  0  0
  153.0985  136.8594  156.5776 H   0  0  0  0  0  0  0  0  0  0  0  0
  1  2  1  0  0  0  0
  1 15  1  0  0  0  0
  2 14  1  0  0  0  0
  2  3  1  0  0  0  0
  2 10  1  0  0  0  0
  3  4  1  0  0  0  0
  3 16  1  0  0  0  0
  3 17  1  0  0  0  0
  4  9  1  0  0  0  0
  4  5  2  0  0  0  0
  5  6  1  0  0  0  0
  5 18  1  0  0  0  0
  6  7  2  0  0  0  0
  6 19  1  0  0  0  0
  7  8  1  0  0  0  0
  7 32  1  0  0  0  0
  8  9  2  0  0  0  0
  8 20  1  0  0  0  0
  9 21  1  0  0  0  0
 10 11  1  0  0  0  0
 10 22  1  0  0  0  0
 10 23  1  0  0  0  0
 11 12  1  0  0  0  0
 11 24  1  0  0  0  0
 11 25  1  0  0  0  0
 12 13  1  0  0  0  0
 12 26  1  0  0  0  0
 12 31  1  0  0  0  0
 13 14  1  0  0  0  0
 13 27  1  0  0  0  0
 13 28  1  0  0  0  0
 14 29  1  0  0  0  0
 14 30  1  0  0  0  0
M  CHG  1   7   1
M  CHG  1  12   1
M  END
> <s_m_source_file>
AV-unprocessed.smi

> <i_m_source_file_index>
2720

> <i_lp_mmshare_version>
43012

> <i_f3d_flags>
0

> <s_epik_input>
W0NIMl0xW0NIMl1bTkhdW0NIMl1bQ0gyXUMxKFtPSF0pW0NIMl1jMltjSF1bY0hdbltjSF1bY0hdMg==

> <s_epik_cmdline>
J2VwaWtfcHl0aG9uJywgJy1waCcsICc3LjAnLCAnLXRuJywgJzgnLCAnLW1hJywgJzIwMCcsICctbWV0YWxfYmluZGluZycsICctaW1hZScsICc8aW5maWxlLm1hZT4nLCAnLW9tYWUnLCAnPG91dGZpbGUubWFlPic=

> <r_epik_Ionization_Penalty>
1.30405

> <r_epik_Ionization_Penalty_Charging>
1.30405

> <r_epik_Ionization_Penalty_Neutral>
5.30574e-07

> <r_epik_State_Penalty>
1.37793

> <r_epik_Charging_Adjusted_Penalty>
2.68198

> <i_epik_Tot_Q>
2

> <i_epik_Tot_abs_Q>
2

> <r_epik_Metal_State_Penalty>
5.40982

> <b_epik_Metal_Only>
0

> <s_lp_Force_Field>
OPLS_2005

> <r_lp_Energy>
28.3784

> <b_lp_Chiralities_Consistent>
1

> <s_lp_Variant>
AV-unprocessed.smi:2720-2

> <Gold.Version>
5.8.1

> <Gold.Id.Protein>
6NUR|6NUR_protein|mol2

> <Gold.PLP.Fitness>
38.0176

> <Gold.PLP.PLP>
-27.8132

> <Gold.PLP.part.hbond>
-3.3503

> <Gold.PLP.part.metal>
0.0000

> <Gold.PLP.part.buried>
-0.6163

> <Gold.PLP.part.nonpolar>
-24.1571

> <Gold.PLP.part.repulsive>
0.1731

> <Gold.PLP.ligand.clash>
0.0000

> <Gold.PLP.ligand.torsion>
0.5640

> <Gold.PLP.Chemscore.Hbond>
3.7763

> <Gold.PLP.Chemscore.CHOScore>
0.0000

> <Gold.PLP.Chemscore.Metal>
0.0000

> <Gold.Chemscore.Hbonds>
donor molecule, donor type, donor heavy atom, donor atom, acceptor molecule, acceptor atom, score
      L1  H     1    15       P1  7957  0.54
      L1  H    12    31       P1 10175  2.00
      P1  H  7989  7998       L1     1  0.13
      P1  H  8011  8017       L1     1  1.00

> <Gold.PLP.Chemscore.Internal.Correction>
0.0035

> <Gold.Rescore>
     Score         DG    S(hbond)    S(metal)    S(lipo)     H(rot)  DE(clash)    DE(int)     intcor
     16.88     -17.53       2.42        0.00      70.28       1.67       0.16       0.49       ----

> <Gold.Chemscore.Fitness>
16.8791

> <Gold.Chemscore.DG>
-17.5262

> <Gold.Chemscore.ZeroCoef>
-5.4800

> <Gold.Chemscore.Hbond>
2.4239

> <Gold.Chemscore.Metal>
0.0000

> <Gold.Chemscore.Lipo>
70.2839

> <Gold.Chemscore.Internal_Hbond>
0.0000

> <Gold.Chemscore.DEClash>
0.1596

> <Gold.Chemscore.DEInternal>
0.4875

> <Gold.Chemscore.Rot>
1.6691

> <Gold.Chemscore.Internal.Correction>
   9.000000E+99

> <Gold.Chemscore.Hbonds>
donor molecule, donor type, donor heavy atom, donor atom, acceptor molecule, acceptor atom, score
      L1  H     1    15       P1  7957  0.54
      L1  H    12    31       P1 10175  0.94
      P1  H  7989  7998       L1     1  0.01
      P1  H  8011  8017       L1     1  0.69

> <Gold.Chemscore.Hbond.Weighted>
-8.0958

> <Gold.Chemscore.Metal.Weighted>
-0.0000

> <Gold.Chemscore.Lipo.Weighted>
-8.2232

> <Gold.Chemscore.Internal_Hbond.Weighted>
0.0000

> <Gold.Chemscore.DEClash.Weighted>
0.1596

> <Gold.Chemscore.DEInternal.Weighted>
0.4875

> <Gold.Chemscore.Rot.Weighted>
4.2728

> <Gold.Chemscore.Internal.Correction.Weighted>
   9.000000E+99

> <Gold.Protein.RotatedTorsions>
[ 6907 6896 6895 6894 ] final    7.82 input  -60.11 | X-H torsion
[ 7974 7965 7964 7962 ] final  111.46 input  175.53 | X-H torsion
[ 8008 7997 7996 7995 ] final  -27.64 input   59.86 | X-H torsion
[ 10167 10162 10161 10158 ] final   74.24 input  -65.29 | X-H torsion
[ 10718 10713 10712 10709 ] final   94.49 input   66.30 | X-H torsion
[ 10763 10752 10751 10750 ] final -176.23 input  -60.55 | X-H torsion
[ 11005 11000 10999 10996 ] final  132.02 input  -57.11 | X-H torsion

> <Gold.Protein.ActiveResidues>
 VAL166  LYS551  ARG553  GLY616  TRP617  ASP618  TYR619  PRO620  LYS621  CYS622 
 ASP623  PHE694  ASN695  SER759  ASP760  ASP761  ALA762  ILE779  LEU786  VAL792 
 PHE793  MET794  SER795  GLU796  ALA797  LYS798  CYS799  TRP800  GLU811  SER814 

> <Gold.Protein.RotatedAtoms>
  151.6960  135.0938  160.0242 H   0  0  0  0  0  0  0  0  0  0  0  0  # atno 6907 bound_to 6896
  152.3749  133.6464  159.6124 H   0  0  0  0  0  0  0  0  0  0  0  0  # atno 6908 bound_to 6896
  150.7702  133.9125  159.3415 H   0  0  0  0  0  0  0  0  0  0  0  0  # atno 6909 bound_to 6896
  145.2420  139.2775  143.4113 H   0  0  0  0  0  0  0  0  0  0  0  0  # atno 7974 bound_to 7965
  154.4368  140.1867  156.0964 H   0  0  0  0  0  0  0  0  0  0  0  0  # atno 8008 bound_to 7997
  156.0326  140.3329  155.7130 H   0  0  0  0  0  0  0  0  0  0  0  0  # atno 8009 bound_to 7997
  155.5817  140.0622  157.2772 H   0  0  0  0  0  0  0  0  0  0  0  0  # atno 8010 bound_to 7997
  140.0159  144.5578  150.7621 H   0  0  0  0  0  0  0  0  0  0  0  0  # atno 10167 bound_to 10162
  157.6947  131.0514  150.4194 H   0  0  0  0  0  0  0  0  0  0  0  0  # atno 10718 bound_to 10713
  154.5748  135.2831  155.0791 H   0  0  0  0  0  0  0  0  0  0  0  0  # atno 10763 bound_to 10752
  154.2150  135.6401  153.5130 H   0  0  0  0  0  0  0  0  0  0  0  0  # atno 10764 bound_to 10752
  153.0069  135.5500  154.6384 H   0  0  0  0  0  0  0  0  0  0  0  0  # atno 10765 bound_to 10752
  139.9765  134.9562  156.9522 H   0  0  0  0  0  0  0  0  0  0  0  0  # atno 11005 bound_to 11000
  146.3326  140.2786  142.8609 LP  0  0  0  0  0  0  0  0  0  0  0  0  # atno 17320 bound_to 7965
  144.9580  140.8247  143.5531 LP  0  0  0  0  0  0  0  0  0  0  0  0  # atno 17321 bound_to 7965
  140.7362  143.2751  151.3768 LP  0  0  0  0  0  0  0  0  0  0  0  0  # atno 17342 bound_to 10162
  139.6173  144.0977  152.2358 LP  0  0  0  0  0  0  0  0  0  0  0  0  # atno 17343 bound_to 10162
  156.4570  130.4024  149.6600 LP  0  0  0  0  0  0  0  0  0  0  0  0  # atno 17370 bound_to 10713
  156.3729  130.7539  151.2524 LP  0  0  0  0  0  0  0  0  0  0  0  0  # atno 17371 bound_to 10713
  140.5184  134.0932  155.7286 LP  0  0  0  0  0  0  0  0  0  0  0  0  # atno 17394 bound_to 11000
  141.1441  133.9085  157.2256 LP  0  0  0  0  0  0  0  0  0  0  0  0  # atno 17395 bound_to 11000

$$$$
