AV-unprocessed.smi:332|AV-procd|sdf|2359|dock9
  -GOLD-   2262022273D 1   1.00000     0.00000
 Structure written by MMmdl.
 42 44  0  0  0  0  0  0  0  0  1 V2000
  151.3119  140.9192  157.0403 C   0  0  0  0  0  0  0  0  0  0  0  0
  151.0936  142.3003  156.4008 C   0  0  1  0  0  0  0  0  0  0  0  0
  149.8490  142.2622  155.6351 N   0  0  0  0  0  0  0  0  0  0  0  0
  149.5689  141.4216  154.6270 C   0  0  0  0  0  0  0  0  0  0  0  0
  150.3336  140.5326  154.2498 O   0  0  0  0  0  0  0  0  0  0  0  0
  148.2060  141.6176  153.9492 C   0  0  0  0  0  0  0  0  0  0  0  0
  147.5063  140.3484  153.6905 N   0  0  0  0  0  0  0  0  0  0  0  0
  147.3270  139.9755  152.3434 C   0  0  0  0  0  0  0  0  0  0  0  0
  146.6992  138.8402  151.9988 C   0  0  0  0  0  0  0  0  0  0  0  0
  146.1996  137.9895  153.0528 C   0  0  0  0  0  0  0  0  0  0  0  0
  146.3624  138.3383  154.3446 C   0  0  0  0  0  0  0  0  0  0  0  0
  147.0470  139.5792  154.7260 C   0  0  0  0  0  0  0  0  0  0  0  0
  147.1983  139.9072  155.9035 O   0  0  0  0  0  0  0  0  0  0  0  0
  151.0349  143.4361  157.4526 C   0  0  1  0  0  0  0  0  0  0  0  0
  150.4769  142.9811  158.8234 C   0  0  0  0  0  0  0  0  0  0  0  0
  151.5661  143.4237  159.8161 C   0  0  2  0  0  0  0  0  0  0  0  0
  151.5823  144.9598  159.9130 C   0  0  0  0  0  0  0  0  0  0  0  0
  152.1948  145.3762  158.5631 C   0  0  0  0  0  0  0  0  0  0  0  0
  152.4131  144.0241  157.8574 C   0  0  1  0  0  0  0  0  0  0  0  0
  152.8353  143.1385  159.0248 C   0  0  0  0  0  0  0  0  0  0  0  0
  152.2567  140.8718  157.5816 H   0  0  0  0  0  0  0  0  0  0  0  0
  151.3355  140.1366  156.2811 H   0  0  0  0  0  0  0  0  0  0  0  0
  150.5142  140.6761  157.7431 H   0  0  0  0  0  0  0  0  0  0  0  0
  151.9358  142.4896  155.7336 H   0  0  0  0  0  0  0  0  0  0  0  0
  149.1536  142.9543  155.8744 H   0  0  0  0  0  0  0  0  0  0  0  0
  147.6036  142.2708  154.5820 H   0  0  0  0  0  0  0  0  0  0  0  0
  148.3344  142.1647  153.0130 H   0  0  0  0  0  0  0  0  0  0  0  0
  147.7227  140.6693  151.6160 H   0  0  0  0  0  0  0  0  0  0  0  0
  146.5675  138.5726  150.9606 H   0  0  0  0  0  0  0  0  0  0  0  0
  145.6913  137.0696  152.8041 H   0  0  0  0  0  0  0  0  0  0  0  0
  145.9800  137.6902  155.1195 H   0  0  0  0  0  0  0  0  0  0  0  0
  150.4102  144.2347  157.0488 H   0  0  0  0  0  0  0  0  0  0  0  0
  149.5068  143.4275  159.0449 H   0  0  0  0  0  0  0  0  0  0  0  0
  150.3589  141.8977  158.8691 H   0  0  0  0  0  0  0  0  0  0  0  0
  151.5037  142.9249  160.7835 H   0  0  0  0  0  0  0  0  0  0  0  0
  150.5846  145.3740  160.0631 H   0  0  0  0  0  0  0  0  0  0  0  0
  152.2122  145.2923  160.7390 H   0  0  0  0  0  0  0  0  0  0  0  0
  151.5455  146.0445  157.9966 H   0  0  0  0  0  0  0  0  0  0  0  0
  153.1450  145.8894  158.7170 H   0  0  0  0  0  0  0  0  0  0  0  0
  153.1408  144.0883  157.0488 H   0  0  0  0  0  0  0  0  0  0  0  0
  153.7424  143.4832  159.5242 H   0  0  0  0  0  0  0  0  0  0  0  0
  152.9541  142.0877  158.7558 H   0  0  0  0  0  0  0  0  0  0  0  0
  1  2  1  0  0  0  0
  1 21  1  0  0  0  0
  1 22  1  0  0  0  0
  1 23  1  0  0  0  0
  2  3  1  0  0  0  0
  2 14  1  0  0  0  0
  2 24  1  0  0  0  0
  3  4  1  0  0  0  0
  3 25  1  0  0  0  0
  4  5  2  0  0  0  0
  4  6  1  0  0  0  0
  6  7  1  0  0  0  0
  6 26  1  0  0  0  0
  6 27  1  0  0  0  0
  7 12  1  0  0  0  0
  7  8  1  0  0  0  0
  8  9  2  0  0  0  0
  8 28  1  0  0  0  0
  9 10  1  0  0  0  0
  9 29  1  0  0  0  0
 10 11  2  0  0  0  0
 10 30  1  0  0  0  0
 11 12  1  0  0  0  0
 11 31  1  0  0  0  0
 12 13  2  0  0  0  0
 14 19  1  0  0  0  0
 14 15  1  0  0  0  0
 14 32  1  0  0  0  0
 15 16  1  0  0  0  0
 15 33  1  0  0  0  0
 15 34  1  0  0  0  0
 16 20  1  0  0  0  0
 16 17  1  0  0  0  0
 16 35  1  0  0  0  0
 17 18  1  0  0  0  0
 17 36  1  0  0  0  0
 17 37  1  0  0  0  0
 18 19  1  0  0  0  0
 18 38  1  0  0  0  0
 18 39  1  0  0  0  0
 19 20  1  0  0  0  0
 19 40  1  0  0  0  0
 20 41  1  0  0  0  0
 20 42  1  0  0  0  0
M  END
> <s_m_source_file>
AV-unprocessed.smi

> <i_m_source_file_index>
332

> <i_lp_mmshare_version>
43012

> <i_f3d_flags>
0

> <s_epik_input>
W0NIMl0xW0NIMl1bQ0BIXShbQ0gyXTIpW0NAQEhdKFtDSDJdW0NAQEhdMTIpW0NASF0oW0NIM10pW05IXUMoPU8pW0NIMl1uM1tjSF1bY0hdW2NIXVtjSF1jMz1P

> <s_epik_cmdline>
J2VwaWtfcHl0aG9uJywgJy1waCcsICc3LjAnLCAnLXRuJywgJzgnLCAnLW1hJywgJzIwMCcsICctbWV0YWxfYmluZGluZycsICctaW1hZScsICc8aW5maWxlLm1hZT4nLCAnLW9tYWUnLCAnPG91dGZpbGUubWFlPic=

> <r_lp_tautomer_probability>
1

> <r_epik_Ionization_Penalty>
4.05802e-07

> <r_epik_Ionization_Penalty_Charging>
3.84175e-07

> <r_epik_Ionization_Penalty_Neutral>
2.16269e-08

> <r_epik_State_Penalty>
-0

> <r_epik_Charging_Adjusted_Penalty>
3.84175e-07

> <i_epik_Tot_Q>
0

> <i_epik_Tot_abs_Q>
0

> <r_epik_Metal_State_Penalty>
-0

> <b_epik_Metal_Only>
0

> <s_lp_Force_Field>
OPLS_2005

> <r_lp_Energy>
59.7004

> <b_lp_Chiralities_Consistent>
1

> <s_lp_Variant>
AV-unprocessed.smi:332-8

> <Gold.Version>
5.8.1

> <Gold.Id.Protein>
6NUR|6NUR_protein|mol2

> <Gold.PLP.Fitness>
48.5266

> <Gold.PLP.PLP>
-42.3802

> <Gold.PLP.part.hbond>
-2.0000

> <Gold.PLP.part.metal>
0.0000

> <Gold.PLP.part.buried>
-1.9024

> <Gold.PLP.part.nonpolar>
-38.2736

> <Gold.PLP.part.repulsive>
0.2572

> <Gold.PLP.ligand.clash>
0.0000

> <Gold.PLP.ligand.torsion>
0.9635

> <Gold.PLP.Chemscore.Hbond>
1.8800

> <Gold.PLP.Chemscore.CHOScore>
0.8066

> <Gold.PLP.Chemscore.Metal>
0.0000

> <Gold.Chemscore.Hbonds>
donor molecule, donor type, donor heavy atom, donor atom, acceptor molecule, acceptor atom, score
      L1  H     3    25       P1  8028  0.77
      P1  H  7989  7998       L1     5  0.87
      L1  C     8    28       P1  7957  0.52

> <Gold.PLP.Chemscore.Internal.Correction>
0.0136

> <Gold.Rescore>
     Score         DG    S(hbond)    S(metal)    S(lipo)     H(rot)  DE(clash)    DE(int)     intcor
     17.89     -21.43       1.51        0.00     126.87       1.54       1.74       1.79       ----

> <Gold.Chemscore.Fitness>
17.8919

> <Gold.Chemscore.DG>
-21.4266

> <Gold.Chemscore.ZeroCoef>
-5.4800

> <Gold.Chemscore.Hbond>
1.5103

> <Gold.Chemscore.Metal>
0.0000

> <Gold.Chemscore.Lipo>
126.8713

> <Gold.Chemscore.Internal_Hbond>
0.0000

> <Gold.Chemscore.DEClash>
1.7404

> <Gold.Chemscore.DEInternal>
1.7943

> <Gold.Chemscore.Rot>
1.5398

> <Gold.Chemscore.Internal.Correction>
   9.000000E+99

> <Gold.Chemscore.Hbonds>
donor molecule, donor type, donor heavy atom, donor atom, acceptor molecule, acceptor atom, score
      L1  H     3    25       P1  8028  0.78
      P1  H  7989  7998       L1     5  0.78

> <Gold.Chemscore.Hbond.Weighted>
-5.0445

> <Gold.Chemscore.Metal.Weighted>
-0.0000

> <Gold.Chemscore.Lipo.Weighted>
-14.8439

> <Gold.Chemscore.Internal_Hbond.Weighted>
0.0000

> <Gold.Chemscore.DEClash.Weighted>
1.7404

> <Gold.Chemscore.DEInternal.Weighted>
1.7943

> <Gold.Chemscore.Rot.Weighted>
3.9419

> <Gold.Chemscore.Internal.Correction.Weighted>
   9.000000E+99

> <Gold.Protein.RotatedTorsions>
[ 6907 6896 6895 6894 ] final -109.60 input  -60.11 | X-H torsion
[ 7974 7965 7964 7962 ] final   98.77 input  175.53 | X-H torsion
[ 8008 7997 7996 7995 ] final   82.74 input   59.86 | X-H torsion
[ 10167 10162 10161 10158 ] final  125.52 input  -65.29 | X-H torsion
[ 10718 10713 10712 10709 ] final   29.42 input   66.30 | X-H torsion
[ 10763 10752 10751 10750 ] final  -24.72 input  -60.55 | X-H torsion
[ 11005 11000 10999 10996 ] final  -70.22 input  -57.11 | X-H torsion

> <Gold.Protein.ActiveResidues>
 VAL166  LYS551  ARG553  GLY616  TRP617  ASP618  TYR619  PRO620  LYS621  CYS622 
 ASP623  PHE694  ASN695  SER759  ASP760  ASP761  ALA762  ILE779  LEU786  VAL792 
 PHE793  MET794  SER795  GLU796  ALA797  LYS798  CYS799  TRP800  GLU811  SER814 

> <Gold.Protein.RotatedAtoms>
  150.7572  133.9505  159.3483 H   0  0  0  0  0  0  0  0  0  0  0  0  # atno 6907 bound_to 6896
  151.7422  135.0850  160.0327 H   0  0  0  0  0  0  0  0  0  0  0  0  # atno 6908 bound_to 6896
  152.3521  133.6155  159.5988 H   0  0  0  0  0  0  0  0  0  0  0  0  # atno 6909 bound_to 6896
  145.4077  139.2338  143.3265 H   0  0  0  0  0  0  0  0  0  0  0  0  # atno 7974 bound_to 7965
  155.9147  140.3425  155.6126 H   0  0  0  0  0  0  0  0  0  0  0  0  # atno 8008 bound_to 7997
  155.7346  140.0800  157.2292 H   0  0  0  0  0  0  0  0  0  0  0  0  # atno 8009 bound_to 7997
  154.4060  140.1582  156.2534 H   0  0  0  0  0  0  0  0  0  0  0  0  # atno 8010 bound_to 7997
  139.5681  144.6923  151.3854 H   0  0  0  0  0  0  0  0  0  0  0  0  # atno 10167 bound_to 10162
  157.2463  130.7093  149.6383 H   0  0  0  0  0  0  0  0  0  0  0  0  # atno 10718 bound_to 10713
  153.6882  135.6963  153.5097 H   0  0  0  0  0  0  0  0  0  0  0  0  # atno 10763 bound_to 10752
  153.2433  135.4299  155.0720 H   0  0  0  0  0  0  0  0  0  0  0  0  # atno 10764 bound_to 10752
  154.8380  135.3513  154.6424 H   0  0  0  0  0  0  0  0  0  0  0  0  # atno 10765 bound_to 10752
  141.1570  133.6784  156.6719 H   0  0  0  0  0  0  0  0  0  0  0  0  # atno 11005 bound_to 11000
  146.2720  140.4784  142.8810 LP  0  0  0  0  0  0  0  0  0  0  0  0  # atno 17320 bound_to 7965
  144.8330  140.6738  143.6278 LP  0  0  0  0  0  0  0  0  0  0  0  0  # atno 17321 bound_to 7965
  140.6965  143.7736  150.7335 LP  0  0  0  0  0  0  0  0  0  0  0  0  # atno 17342 bound_to 10162
  140.1234  143.4591  152.2299 LP  0  0  0  0  0  0  0  0  0  0  0  0  # atno 17343 bound_to 10162
  155.9668  130.4442  150.5451 LP  0  0  0  0  0  0  0  0  0  0  0  0  # atno 17370 bound_to 10713
  157.3325  131.0702  151.1850 LP  0  0  0  0  0  0  0  0  0  0  0  0  # atno 17371 bound_to 10713
  140.3168  134.8040  157.4221 LP  0  0  0  0  0  0  0  0  0  0  0  0  # atno 17394 bound_to 11000
  140.1131  134.5319  155.8249 LP  0  0  0  0  0  0  0  0  0  0  0  0  # atno 17395 bound_to 11000

$$$$
