AV-unprocessed.smi:686|AV-procd|sdf|3352|dock2
  -GOLD-   22720 0323D 1   1.00000     0.00000
 Structure written by MMmdl.
 40 41  0  0  0  0  0  0  0  0  3 V2000
  151.2269  138.1892  156.2028 C   0  0  0  0  0  0  0  0  0  0  0  0
  149.7903  138.5125  155.7476 C   0  0  1  0  0  0  0  0  0  0  0  0
  149.7019  138.9526  154.2757 C   0  0  0  0  0  0  0  0  0  0  0  0
  148.4581  138.3667  153.7131 N   0  3  2  0  0  0  0  0  0  0  0  0
  147.6692  139.2690  152.8270 C   0  0  0  0  0  0  0  0  0  0  0  0
  147.1721  140.5166  153.5825 C   0  0  0  0  0  0  0  0  0  0  0  0
  146.4673  138.5293  152.2098 C   0  0  0  0  0  0  0  0  0  0  0  0
  147.7141  137.7721  154.8439 C   0  0  0  0  0  0  0  0  0  0  0  0
  148.7878  137.3533  155.8488 C   0  0  2  0  0  0  0  0  0  0  0  0
  148.2575  137.2275  157.1982 N   0  5  0  0  0  0  0  0  0  0  0  0
  148.5054  135.8643  158.0434 S   0  0  0  0  0  0  0  0  0  0  0  0
  148.4795  134.6614  157.1947 O   0  0  0  0  0  0  0  0  0  0  0  0
  149.6276  135.9960  158.9862 O   0  0  0  0  0  0  0  0  0  0  0  0
  146.9771  135.8132  159.0785 C   0  0  0  0  0  0  0  0  0  0  0  0
  147.3186  135.9858  160.5339 C   0  0  0  0  0  0  0  0  0  0  0  0
  147.2731  135.0154  161.5733 C   0  0  0  0  0  0  0  0  0  0  0  0
  147.6791  135.7087  162.6765 C   0  0  0  0  0  0  0  0  0  0  0  0
  147.9465  136.9991  162.3545 O   0  0  0  0  0  0  0  0  0  0  0  0
  147.7096  137.1678  160.9854 N   0  0  0  0  0  0  0  0  0  0  0  0
  151.6753  137.3851  155.6162 H   0  0  0  0  0  0  0  0  0  0  0  0
  151.2640  137.8967  157.2537 H   0  0  0  0  0  0  0  0  0  0  0  0
  151.8671  139.0647  156.0928 H   0  0  0  0  0  0  0  0  0  0  0  0
  149.4210  139.3426  156.3536 H   0  0  0  0  0  0  0  0  0  0  0  0
  149.7023  140.0423  154.2201 H   0  0  0  0  0  0  0  0  0  0  0  0
  150.5504  138.5964  153.6888 H   0  0  0  0  0  0  0  0  0  0  0  0
  148.3206  139.6024  152.0175 H   0  0  0  0  0  0  0  0  0  0  0  0
  146.5543  141.1429  152.9384 H   0  0  0  0  0  0  0  0  0  0  0  0
  147.9958  141.1404  153.9300 H   0  0  0  0  0  0  0  0  0  0  0  0
  146.5707  140.2416  154.4500 H   0  0  0  0  0  0  0  0  0  0  0  0
  145.8777  139.1986  151.5824 H   0  0  0  0  0  0  0  0  0  0  0  0
  145.8067  138.1347  152.9827 H   0  0  0  0  0  0  0  0  0  0  0  0
  146.7758  137.6959  151.5790 H   0  0  0  0  0  0  0  0  0  0  0  0
  147.0524  138.5233  155.2805 H   0  0  0  0  0  0  0  0  0  0  0  0
  147.1060  136.9275  154.5187 H   0  0  0  0  0  0  0  0  0  0  0  0
  149.2648  136.4369  155.4980 H   0  0  0  0  0  0  0  0  0  0  0  0
  146.3221  136.6154  158.7381 H   0  0  0  0  0  0  0  0  0  0  0  0
  146.4604  134.8716  158.8951 H   0  0  0  0  0  0  0  0  0  0  0  0
  146.9929  133.9740  161.5144 H   0  0  0  0  0  0  0  0  0  0  0  0
  147.8208  135.4385  163.7126 H   0  0  0  0  0  0  0  0  0  0  0  0
  148.7554  137.5836  153.1489 H   0  0  0  0  0  0  0  0  0  0  0  0
  1  2  1  0  0  0  0
  1 20  1  0  0  0  0
  1 21  1  0  0  0  0
  1 22  1  0  0  0  0
  2  9  1  0  0  0  0
  2  3  1  0  0  0  0
  2 23  1  0  0  0  0
  3  4  1  0  0  0  0
  3 24  1  0  0  0  0
  3 25  1  0  0  0  0
  4  5  1  0  0  0  0
  4  8  1  0  0  0  0
  4 40  1  0  0  0  0
  5  6  1  0  0  0  0
  5  7  1  0  0  0  0
  5 26  1  0  0  0  0
  6 27  1  0  0  0  0
  6 28  1  0  0  0  0
  6 29  1  0  0  0  0
  7 30  1  0  0  0  0
  7 31  1  0  0  0  0
  7 32  1  0  0  0  0
  8  9  1  0  0  0  0
  8 33  1  0  0  0  0
  8 34  1  0  0  0  0
  9 10  1  0  0  0  0
  9 35  1  0  0  0  0
 10 11  1  0  0  0  0
 11 12  2  0  0  0  0
 11 13  2  0  0  0  0
 11 14  1  0  0  0  0
 14 15  1  0  0  0  0
 14 36  1  0  0  0  0
 14 37  1  0  0  0  0
 15 19  2  0  0  0  0
 15 16  1  0  0  0  0
 16 17  2  0  0  0  0
 16 38  1  0  0  0  0
 17 18  1  0  0  0  0
 17 39  1  0  0  0  0
 18 19  1  0  0  0  0
M  CHG  1   4   1
M  CHG  1  10  -1
M  END
> <s_m_source_file>
AV-unprocessed.smi

> <i_m_source_file_index>
686

> <i_lp_mmshare_version>
43012

> <i_f3d_flags>
0

> <s_epik_input>
W0NIM11bQ0BASF0xW0NIMl1OKFtDSF0oW0NIM10pW0NIM10pW0NIMl1bQ0BIXTFbTkhdUyg9TykoPU8pW0NIMl1jMltjSF1bY0hdb24y

> <s_epik_cmdline>
J2VwaWtfcHl0aG9uJywgJy1waCcsICc3LjAnLCAnLXRuJywgJzgnLCAnLW1hJywgJzIwMCcsICctbWV0YWxfYmluZGluZycsICctaW1hZScsICc8aW5maWxlLm1hZT4nLCAnLW9tYWUnLCAnPG91dGZpbGUubWFlPic=

> <r_epik_Ionization_Penalty>
3.62478

> <r_epik_Ionization_Penalty_Charging>
3.62478

> <r_epik_Ionization_Penalty_Neutral>
2.03645e-10

> <r_epik_State_Penalty>
3.6247

> <r_epik_Charging_Adjusted_Penalty>
7.24949

> <i_epik_Tot_Q>
0

> <i_epik_Tot_abs_Q>
2

> <r_epik_Metal_State_Penalty>
0.530836

> <b_epik_Metal_Only>
1

> <s_lp_Force_Field>
OPLS_2005

> <r_lp_Energy>
17.1192

> <b_lp_Chiralities_Consistent>
1

> <s_lp_Variant>
AV-unprocessed.smi:686-16

> <Gold.Version>
5.8.1

> <Gold.Id.Protein>
6NUR|6NUR_protein|mol2

> <Gold.PLP.Fitness>
38.3495

> <Gold.PLP.PLP>
-27.1985

> <Gold.PLP.part.hbond>
-5.6368

> <Gold.PLP.part.metal>
0.0000

> <Gold.PLP.part.buried>
-1.3716

> <Gold.PLP.part.nonpolar>
-20.5380

> <Gold.PLP.part.repulsive>
0.0209

> <Gold.PLP.ligand.clash>
0.0000

> <Gold.PLP.ligand.torsion>
0.8055

> <Gold.PLP.Chemscore.Hbond>
3.8960

> <Gold.PLP.Chemscore.CHOScore>
0.0000

> <Gold.PLP.Chemscore.Metal>
0.0000

> <Gold.Chemscore.Hbonds>
donor molecule, donor type, donor heavy atom, donor atom, acceptor molecule, acceptor atom, score
      L1  H     4    40       P1  7948  2.00
      P1  H  6896  6909       L1    13  1.00
      P1  H  6934  6947       L1    19  0.90

> <Gold.PLP.Chemscore.Internal.Correction>
1.0740

> <Gold.Rescore>
     Score         DG    S(hbond)    S(metal)    S(lipo)     H(rot)  DE(clash)    DE(int)     intcor
     16.80     -17.84       2.73        0.00      62.98       1.61       0.08       0.96       ----

> <Gold.Chemscore.Fitness>
16.7955

> <Gold.Chemscore.DG>
-17.8352

> <Gold.Chemscore.ZeroCoef>
-5.4800

> <Gold.Chemscore.Hbond>
2.7309

> <Gold.Chemscore.Metal>
0.0000

> <Gold.Chemscore.Lipo>
62.9767

> <Gold.Chemscore.Internal_Hbond>
0.0000

> <Gold.Chemscore.DEClash>
0.0820

> <Gold.Chemscore.DEInternal>
0.9578

> <Gold.Chemscore.Rot>
1.6149

> <Gold.Chemscore.Internal.Correction>
   9.000000E+99

> <Gold.Chemscore.Hbonds>
donor molecule, donor type, donor heavy atom, donor atom, acceptor molecule, acceptor atom, score
      L1  H     4    40       P1  7948  1.00
      P1  H  6896  6909       L1    13  1.00
      P1  H  6934  6947       L1    19  0.26

> <Gold.Chemscore.Hbond.Weighted>
-9.1211

> <Gold.Chemscore.Metal.Weighted>
-0.0000

> <Gold.Chemscore.Lipo.Weighted>
-7.3683

> <Gold.Chemscore.Internal_Hbond.Weighted>
0.0000

> <Gold.Chemscore.DEClash.Weighted>
0.0820

> <Gold.Chemscore.DEInternal.Weighted>
0.9578

> <Gold.Chemscore.Rot.Weighted>
4.1341

> <Gold.Chemscore.Internal.Correction.Weighted>
   9.000000E+99

> <Gold.Protein.RotatedTorsions>
[ 6907 6896 6895 6894 ] final   67.53 input  -60.11 | X-H torsion
[ 7974 7965 7964 7962 ] final    9.92 input  175.53 | X-H torsion
[ 8008 7997 7996 7995 ] final   96.47 input   59.86 | X-H torsion
[ 10167 10162 10161 10158 ] final  161.83 input  -65.29 | X-H torsion
[ 10718 10713 10712 10709 ] final   35.82 input   66.30 | X-H torsion
[ 10763 10752 10751 10750 ] final    1.64 input  -60.55 | X-H torsion
[ 11005 11000 10999 10996 ] final  129.03 input  -57.11 | X-H torsion

> <Gold.Protein.ActiveResidues>
 VAL166  LYS551  ARG553  GLY616  TRP617  ASP618  TYR619  PRO620  LYS621  CYS622 
 ASP623  PHE694  ASN695  SER759  ASP760  ASP761  ALA762  ILE779  LEU786  VAL792 
 PHE793  MET794  SER795  GLU796  ALA797  LYS798  CYS799  TRP800  GLU811  SER814 

> <Gold.Protein.RotatedAtoms>
  152.4558  134.5293  159.9806 H   0  0  0  0  0  0  0  0  0  0  0  0  # atno 6907 bound_to 6896
  151.5355  133.3436  159.2933 H   0  0  0  0  0  0  0  0  0  0  0  0  # atno 6908 bound_to 6896
  150.8502  134.7855  159.7066 H   0  0  0  0  0  0  0  0  0  0  0  0  # atno 6909 bound_to 6896
  146.2396  139.9711  142.8447 H   0  0  0  0  0  0  0  0  0  0  0  0  # atno 7974 bound_to 7965
  156.0800  140.3272  155.7682 H   0  0  0  0  0  0  0  0  0  0  0  0  # atno 8008 bound_to 7997
  155.5168  140.0582  157.2931 H   0  0  0  0  0  0  0  0  0  0  0  0  # atno 8009 bound_to 7997
  154.4577  140.1951  156.0350 H   0  0  0  0  0  0  0  0  0  0  0  0  # atno 8010 bound_to 7997
  139.4853  144.4497  151.8845 H   0  0  0  0  0  0  0  0  0  0  0  0  # atno 10167 bound_to 10162
  157.3273  130.7479  149.6824 H   0  0  0  0  0  0  0  0  0  0  0  0  # atno 10718 bound_to 10713
  153.3055  135.6959  153.7164 H   0  0  0  0  0  0  0  0  0  0  0  0  # atno 10763 bound_to 10752
  153.6061  135.3453  155.2963 H   0  0  0  0  0  0  0  0  0  0  0  0  # atno 10764 bound_to 10752
  154.8562  135.4352  154.2178 H   0  0  0  0  0  0  0  0  0  0  0  0  # atno 10765 bound_to 10752
  139.9593  134.9606  156.9089 H   0  0  0  0  0  0  0  0  0  0  0  0  # atno 11005 bound_to 11000
  145.1680  140.9707  143.4338 LP  0  0  0  0  0  0  0  0  0  0  0  0  # atno 17320 bound_to 7965
  145.0054  139.3559  143.6146 LP  0  0  0  0  0  0  0  0  0  0  0  0  # atno 17321 bound_to 7965
  140.3953  144.2563  150.5896 LP  0  0  0  0  0  0  0  0  0  0  0  0  # atno 17342 bound_to 10162
  140.5108  143.2291  151.8539 LP  0  0  0  0  0  0  0  0  0  0  0  0  # atno 17343 bound_to 10162
  155.9692  130.4205  150.4427 LP  0  0  0  0  0  0  0  0  0  0  0  0  # atno 17370 bound_to 10713
  157.2453  131.0534  151.2412 LP  0  0  0  0  0  0  0  0  0  0  0  0  # atno 17371 bound_to 10713
  140.5537  134.0602  155.7377 LP  0  0  0  0  0  0  0  0  0  0  0  0  # atno 17394 bound_to 11000
  141.1268  133.9369  157.2618 LP  0  0  0  0  0  0  0  0  0  0  0  0  # atno 17395 bound_to 11000

$$$$
