AV-unprocessed.smi:3291|AV-procd|sdf|12619|dock8
  -GOLD-   2272018553D 1   1.00000     0.00000
 Structure written by MMmdl.
 43 45  0  0  0  0  0  0  0  0  2 V2000
  149.8116  134.8072  157.1578 C   0  0  0  0  0  0  0  0  0  0  0  0
  149.9497  133.3999  156.6509 C   0  0  0  0  0  0  0  0  0  0  0  0
  150.6886  132.5366  157.3252 N   0  0  0  0  0  0  0  0  0  0  0  0
  150.6170  131.3365  156.6141 O   0  0  0  0  0  0  0  0  0  0  0  0
  149.8279  131.5242  155.5264 C   0  0  0  0  0  0  0  0  0  0  0  0
  149.6391  130.3346  154.6444 C   0  0  0  0  0  0  0  0  0  0  0  0
  149.3718  132.8171  155.4850 C   0  0  0  0  0  0  0  0  0  0  0  0
  148.4746  133.5021  154.4782 C   0  0  2  0  0  0  0  0  0  0  0  0
  147.1864  133.9909  155.1634 C   0  0  0  0  0  0  0  0  0  0  0  0
  148.1832  132.5821  153.2772 C   0  0  0  0  0  0  0  0  0  0  0  0
  147.5817  133.3252  152.1498 N   0  3  0  0  0  0  0  0  0  0  0  0
  146.1032  133.3309  152.1188 C   0  0  0  0  0  0  0  0  0  0  0  0
  145.6163  131.9829  151.6185 C   0  0  0  0  0  0  0  0  0  0  0  0
  145.3617  131.7401  150.1484 C   0  0  0  0  0  0  0  0  0  0  0  0
  144.2032  131.8006  151.1151 C   0  0  0  0  0  0  0  0  0  0  0  0
  145.5878  134.4564  151.2340 C   0  0  0  0  0  0  0  0  0  0  0  0
  145.6074  135.8967  151.6956 C   0  0  0  0  0  0  0  0  0  0  0  0
  144.2933  135.1697  151.5543 C   0  0  0  0  0  0  0  0  0  0  0  0
  148.7694  135.0417  157.3742 H   0  0  0  0  0  0  0  0  0  0  0  0
  150.1671  135.5243  156.4176 H   0  0  0  0  0  0  0  0  0  0  0  0
  150.3834  134.9671  158.0729 H   0  0  0  0  0  0  0  0  0  0  0  0
  148.6060  130.2533  154.3082 H   0  0  0  0  0  0  0  0  0  0  0  0
  149.8903  129.4135  155.1713 H   0  0  0  0  0  0  0  0  0  0  0  0
  150.2790  130.4017  153.7646 H   0  0  0  0  0  0  0  0  0  0  0  0
  148.9837  134.3848  154.0890 H   0  0  0  0  0  0  0  0  0  0  0  0
  147.4174  134.6577  155.9950 H   0  0  0  0  0  0  0  0  0  0  0  0
  146.6000  133.1616  155.5584 H   0  0  0  0  0  0  0  0  0  0  0  0
  146.5499  134.5449  154.4733 H   0  0  0  0  0  0  0  0  0  0  0  0
  149.1105  132.1226  152.9315 H   0  0  0  0  0  0  0  0  0  0  0  0
  147.5165  131.7752  153.5772 H   0  0  0  0  0  0  0  0  0  0  0  0
  147.9096  134.2803  152.1713 H   0  0  0  0  0  0  0  0  0  0  0  0
  145.7271  133.4735  153.1335 H   0  0  0  0  0  0  0  0  0  0  0  0
  146.0375  131.1387  152.1621 H   0  0  0  0  0  0  0  0  0  0  0  0
  145.4767  132.5755  149.4608 H   0  0  0  0  0  0  0  0  0  0  0  0
  145.6330  130.7659  149.7471 H   0  0  0  0  0  0  0  0  0  0  0  0
  143.7006  130.8658  151.3552 H   0  0  0  0  0  0  0  0  0  0  0  0
  143.5604  132.6776  151.0714 H   0  0  0  0  0  0  0  0  0  0  0  0
  145.7715  134.2929  150.1733 H   0  0  0  0  0  0  0  0  0  0  0  0
  145.9592  136.1033  152.7046 H   0  0  0  0  0  0  0  0  0  0  0  0
  145.8467  136.6567  150.9546 H   0  0  0  0  0  0  0  0  0  0  0  0
  143.6527  135.4457  150.7191 H   0  0  0  0  0  0  0  0  0  0  0  0
  143.7728  134.9056  152.4723 H   0  0  0  0  0  0  0  0  0  0  0  0
  147.9066  132.8946  151.2961 H   0  0  0  0  0  0  0  0  0  0  0  0
  1  2  1  0  0  0  0
  1 19  1  0  0  0  0
  1 20  1  0  0  0  0
  1 21  1  0  0  0  0
  2  7  1  0  0  0  0
  2  3  2  0  0  0  0
  3  4  1  0  0  0  0
  4  5  1  0  0  0  0
  5  6  1  0  0  0  0
  5  7  2  0  0  0  0
  6 22  1  0  0  0  0
  6 23  1  0  0  0  0
  6 24  1  0  0  0  0
  7  8  1  0  0  0  0
  8  9  1  0  0  0  0
  8 10  1  0  0  0  0
  8 25  1  0  0  0  0
  9 26  1  0  0  0  0
  9 27  1  0  0  0  0
  9 28  1  0  0  0  0
 10 11  1  0  0  0  0
 10 29  1  0  0  0  0
 10 30  1  0  0  0  0
 11 12  1  0  0  0  0
 11 31  1  0  0  0  0
 11 43  1  0  0  0  0
 12 13  1  0  0  0  0
 12 16  1  0  0  0  0
 12 32  1  0  0  0  0
 13 15  1  0  0  0  0
 13 14  1  0  0  0  0
 13 33  1  0  0  0  0
 14 15  1  0  0  0  0
 14 34  1  0  0  0  0
 14 35  1  0  0  0  0
 15 36  1  0  0  0  0
 15 37  1  0  0  0  0
 16 18  1  0  0  0  0
 16 17  1  0  0  0  0
 16 38  1  0  0  0  0
 17 18  1  0  0  0  0
 17 39  1  0  0  0  0
 17 40  1  0  0  0  0
 18 41  1  0  0  0  0
 18 42  1  0  0  0  0
M  CHG  1  11   1
M  END
> <s_m_source_file>
AV-unprocessed.smi

> <i_m_source_file_index>
3291

> <i_lp_mmshare_version>
43012

> <i_f3d_flags>
0

> <s_epik_input>
W0NIM11jMW5vYyhbQ0gzXSljMVtDQEhdKFtDSDNdKVtDSDJdW05IXVtDSF0oW0NIXTJbQ0gyXVtDSDJdMilbQ0hdM1tDSDJdW0NIMl0z

> <s_epik_cmdline>
J2VwaWtfcHl0aG9uJywgJy1waCcsICc3LjAnLCAnLXRuJywgJzgnLCAnLW1hJywgJzIwMCcsICctbWV0YWxfYmluZGluZycsICctaW1hZScsICc8aW5maWxlLm1hZT4nLCAnLW9tYWUnLCAnPG91dGZpbGUubWFlPic=

> <r_lp_tautomer_probability>
1

> <r_epik_Ionization_Penalty>
0.000158108

> <r_epik_Ionization_Penalty_Charging>
0.000158108

> <r_epik_Ionization_Penalty_Neutral>
1.14678e-10

> <r_epik_State_Penalty>
-0

> <r_epik_Charging_Adjusted_Penalty>
0.000158108

> <i_epik_Tot_Q>
1

> <i_epik_Tot_abs_Q>
1

> <r_epik_Metal_State_Penalty>
-0

> <b_epik_Metal_Only>
0

> <s_lp_Force_Field>
OPLS_2005

> <r_lp_Energy>
25.2548

> <b_lp_Chiralities_Consistent>
1

> <s_lp_Variant>
AV-unprocessed.smi:3291-1

> <Gold.Version>
5.8.1

> <Gold.Id.Protein>
6NUR|6NUR_protein|mol2

> <Gold.PLP.Fitness>
41.6015

> <Gold.PLP.PLP>
-33.5471

> <Gold.PLP.part.hbond>
-2.0000

> <Gold.PLP.part.metal>
0.0000

> <Gold.PLP.part.buried>
-3.5210

> <Gold.PLP.part.nonpolar>
-28.0642

> <Gold.PLP.part.repulsive>
0.0414

> <Gold.PLP.ligand.clash>
0.0000

> <Gold.PLP.ligand.torsion>
1.5643

> <Gold.PLP.Chemscore.Hbond>
2.9833

> <Gold.PLP.Chemscore.CHOScore>
0.0000

> <Gold.PLP.Chemscore.Metal>
0.0000

> <Gold.Chemscore.Hbonds>
donor molecule, donor type, donor heavy atom, donor atom, acceptor molecule, acceptor atom, score
      L1  H    11    31       P1  7948  1.14
      P1  H  6896  6908       L1     3  0.73

> <Gold.PLP.Chemscore.Internal.Correction>
2.2329

> <Gold.Rescore>
     Score         DG    S(hbond)    S(metal)    S(lipo)     H(rot)  DE(clash)    DE(int)     intcor
     13.82     -16.40       1.56        0.00      81.61       1.50       0.04       2.54       ----

> <Gold.Chemscore.Fitness>
13.8181

> <Gold.Chemscore.DG>
-16.4013

> <Gold.Chemscore.ZeroCoef>
-5.4800

> <Gold.Chemscore.Hbond>
1.5618

> <Gold.Chemscore.Metal>
0.0000

> <Gold.Chemscore.Lipo>
81.6118

> <Gold.Chemscore.Internal_Hbond>
0.0000

> <Gold.Chemscore.DEClash>
0.0391

> <Gold.Chemscore.DEInternal>
2.5441

> <Gold.Chemscore.Rot>
1.5015

> <Gold.Chemscore.Internal.Correction>
   9.000000E+99

> <Gold.Chemscore.Hbonds>
donor molecule, donor type, donor heavy atom, donor atom, acceptor molecule, acceptor atom, score
      L1  H    11    31       P1  7948  0.11
      L1  H    11    43       P1 10747  0.01
      P1  H  6896  6908       L1     3  0.40

> <Gold.Chemscore.Hbond.Weighted>
-5.2165

> <Gold.Chemscore.Metal.Weighted>
-0.0000

> <Gold.Chemscore.Lipo.Weighted>
-9.5486

> <Gold.Chemscore.Internal_Hbond.Weighted>
0.0000

> <Gold.Chemscore.DEClash.Weighted>
0.0391

> <Gold.Chemscore.DEInternal.Weighted>
2.5441

> <Gold.Chemscore.Rot.Weighted>
3.8438

> <Gold.Chemscore.Internal.Correction.Weighted>
   9.000000E+99

> <Gold.Protein.RotatedTorsions>
[ 6907 6896 6895 6894 ] final   92.65 input  -60.11 | X-H torsion
[ 7974 7965 7964 7962 ] final   53.88 input  175.53 | X-H torsion
[ 8008 7997 7996 7995 ] final   43.26 input   59.86 | X-H torsion
[ 10167 10162 10161 10158 ] final   80.82 input  -65.29 | X-H torsion
[ 10718 10713 10712 10709 ] final -137.05 input   66.30 | X-H torsion
[ 10763 10752 10751 10750 ] final -123.17 input  -60.55 | X-H torsion
[ 11005 11000 10999 10996 ] final -128.97 input  -57.11 | X-H torsion

> <Gold.Protein.ActiveResidues>
 VAL166  LYS551  ARG553  GLY616  TRP617  ASP618  TYR619  PRO620  LYS621  CYS622 
 ASP623  PHE694  ASN695  SER759  ASP760  ASP761  ALA762  ILE779  LEU786  VAL792 
 PHE793  MET794  SER795  GLU796  ALA797  LYS798  CYS799  TRP800  GLU811  SER814 

> <Gold.Protein.RotatedAtoms>
  152.5453  134.1469  159.8502 H   0  0  0  0  0  0  0  0  0  0  0  0  # atno 6907 bound_to 6896
  151.1500  133.4907  159.2603 H   0  0  0  0  0  0  0  0  0  0  0  0  # atno 6908 bound_to 6896
  151.1482  135.0224  159.8711 H   0  0  0  0  0  0  0  0  0  0  0  0  # atno 6909 bound_to 6896
  145.9666  139.4109  143.0215 H   0  0  0  0  0  0  0  0  0  0  0  0  # atno 7974 bound_to 7965
  155.2998  140.3384  155.4248 H   0  0  0  0  0  0  0  0  0  0  0  0  # atno 8008 bound_to 7997
  156.2007  140.1731  156.7945 H   0  0  0  0  0  0  0  0  0  0  0  0  # atno 8009 bound_to 7997
  154.5555  140.0697  156.8720 H   0  0  0  0  0  0  0  0  0  0  0  0  # atno 8010 bound_to 7997
  139.9457  144.6060  150.8209 H   0  0  0  0  0  0  0  0  0  0  0  0  # atno 10167 bound_to 10162
  156.2838  130.7336  151.1342 H   0  0  0  0  0  0  0  0  0  0  0  0  # atno 10718 bound_to 10713
  154.8703  135.4107  154.2900 H   0  0  0  0  0  0  0  0  0  0  0  0  # atno 10763 bound_to 10752
  153.3777  135.7010  153.6594 H   0  0  0  0  0  0  0  0  0  0  0  0  # atno 10764 bound_to 10752
  153.5430  135.3644  155.2698 H   0  0  0  0  0  0  0  0  0  0  0  0  # atno 10765 bound_to 10752
  140.9471  134.1115  157.4097 H   0  0  0  0  0  0  0  0  0  0  0  0  # atno 11005 bound_to 11000
  145.7965  140.9791  143.1021 LP  0  0  0  0  0  0  0  0  0  0  0  0  # atno 17320 bound_to 7965
  144.6827  139.9748  143.7482 LP  0  0  0  0  0  0  0  0  0  0  0  0  # atno 17321 bound_to 7965
  140.7598  143.3136  151.2785 LP  0  0  0  0  0  0  0  0  0  0  0  0  # atno 17342 bound_to 10162
  139.6668  144.0090  152.2728 LP  0  0  0  0  0  0  0  0  0  0  0  0  # atno 17343 bound_to 10162
  157.7322  131.0601  150.5637 LP  0  0  0  0  0  0  0  0  0  0  0  0  # atno 17370 bound_to 10713
  156.5746  130.4288  149.6004 LP  0  0  0  0  0  0  0  0  0  0  0  0  # atno 17371 bound_to 10713
  139.8836  135.0055  156.6315 LP  0  0  0  0  0  0  0  0  0  0  0  0  # atno 17394 bound_to 11000
  140.7654  133.8783  155.8450 LP  0  0  0  0  0  0  0  0  0  0  0  0  # atno 17395 bound_to 11000

$$$$
