AV-unprocessed.smi:1833|AV-procd|sdf|7465|dock7
  -GOLD-   22720 9153D 1   1.00000     0.00000
 Structure written by MMmdl.
 42 43  0  0  0  0  0  0  0  0  2 V2000
  142.0283  135.2746  153.8589 C   0  0  0  0  0  0  0  0  0  0  0  0
  142.3320  134.3337  152.6839 C   0  0  0  0  0  0  0  0  0  0  0  0
  143.6531  133.6683  152.8118 N   0  3  1  0  0  0  0  0  0  0  0  0
  143.9198  132.7321  151.6885 C   0  0  0  0  0  0  0  0  0  0  0  0
  145.2259  131.9514  151.9111 C   0  0  0  0  0  0  0  0  0  0  0  0
  146.4099  132.9042  152.1195 C   0  0  0  0  0  0  0  0  0  0  0  0
  146.1002  133.8814  153.2644 C   0  0  1  0  0  0  0  0  0  0  0  0
  147.1890  134.8429  153.4157 N   0  0  0  0  0  0  0  0  0  0  0  0
  147.4792  135.5226  154.5344 C   0  0  0  0  0  0  0  0  0  0  0  0
  146.8534  135.4197  155.5894 O   0  0  0  0  0  0  0  0  0  0  0  0
  148.5340  136.3315  154.3641 N   0  0  0  0  0  0  0  0  0  0  0  0
  149.0829  137.2136  155.3874 C   0  0  0  0  0  0  0  0  0  0  0  0
  150.1398  138.1685  154.8097 C   0  0  0  0  0  0  0  0  0  0  0  0
  150.2714  139.4205  155.6100 C   0  0  0  0  0  0  0  0  0  0  0  0
  150.2339  140.6442  155.0753 N   0  0  0  0  0  0  0  0  0  0  0  0
  150.4144  141.6496  156.0283 C   0  0  0  0  0  0  0  0  0  0  0  0
  150.6052  141.1708  157.2997 C   0  0  0  0  0  0  0  0  0  0  0  0
  150.5645  139.4295  157.3462 S   0  0  0  0  0  0  0  0  0  0  0  0
  144.7770  134.6243  153.0017 C   0  0  0  0  0  0  0  0  0  0  0  0
  141.0143  135.6674  153.7813 H   0  0  0  0  0  0  0  0  0  0  0  0
  142.7020  136.1305  153.8856 H   0  0  0  0  0  0  0  0  0  0  0  0
  142.1068  134.7527  154.8130 H   0  0  0  0  0  0  0  0  0  0  0  0
  141.5496  133.5738  152.6594 H   0  0  0  0  0  0  0  0  0  0  0  0
  142.2716  134.8692  151.7353 H   0  0  0  0  0  0  0  0  0  0  0  0
  143.0947  132.0252  151.5926 H   0  0  0  0  0  0  0  0  0  0  0  0
  143.9694  133.2901  150.7521 H   0  0  0  0  0  0  0  0  0  0  0  0
  145.1207  131.3027  152.7819 H   0  0  0  0  0  0  0  0  0  0  0  0
  145.4197  131.2972  151.0607 H   0  0  0  0  0  0  0  0  0  0  0  0
  147.3138  132.3346  152.3395 H   0  0  0  0  0  0  0  0  0  0  0  0
  146.6030  133.4549  151.1976 H   0  0  0  0  0  0  0  0  0  0  0  0
  145.9798  133.3043  154.1835 H   0  0  0  0  0  0  0  0  0  0  0  0
  147.7702  135.0018  152.6053 H   0  0  0  0  0  0  0  0  0  0  0  0
  148.9858  136.3464  153.4613 H   0  0  0  0  0  0  0  0  0  0  0  0
  148.2593  137.7870  155.8137 H   0  0  0  0  0  0  0  0  0  0  0  0
  149.5050  136.6231  156.2028 H   0  0  0  0  0  0  0  0  0  0  0  0
  151.1139  137.6791  154.7678 H   0  0  0  0  0  0  0  0  0  0  0  0
  149.8823  138.4383  153.7850 H   0  0  0  0  0  0  0  0  0  0  0  0
  150.3957  142.6823  155.7129 H   0  0  0  0  0  0  0  0  0  0  0  0
  150.7689  141.7339  158.2064 H   0  0  0  0  0  0  0  0  0  0  0  0
  144.8652  135.2605  152.1192 H   0  0  0  0  0  0  0  0  0  0  0  0
  144.5706  135.2823  153.8454 H   0  0  0  0  0  0  0  0  0  0  0  0
  143.6067  133.1002  153.6458 H   0  0  0  0  0  0  0  0  0  0  0  0
  1  2  1  0  0  0  0
  1 20  1  0  0  0  0
  1 21  1  0  0  0  0
  1 22  1  0  0  0  0
  2  3  1  0  0  0  0
  2 23  1  0  0  0  0
  2 24  1  0  0  0  0
  3 19  1  0  0  0  0
  3  4  1  0  0  0  0
  3 42  1  0  0  0  0
  4  5  1  0  0  0  0
  4 25  1  0  0  0  0
  4 26  1  0  0  0  0
  5  6  1  0  0  0  0
  5 27  1  0  0  0  0
  5 28  1  0  0  0  0
  6  7  1  0  0  0  0
  6 29  1  0  0  0  0
  6 30  1  0  0  0  0
  7  8  1  0  0  0  0
  7 19  1  0  0  0  0
  7 31  1  0  0  0  0
  8  9  1  0  0  0  0
  8 32  1  0  0  0  0
  9 10  2  0  0  0  0
  9 11  1  0  0  0  0
 11 12  1  0  0  0  0
 11 33  1  0  0  0  0
 12 13  1  0  0  0  0
 12 34  1  0  0  0  0
 12 35  1  0  0  0  0
 13 14  1  0  0  0  0
 13 36  1  0  0  0  0
 13 37  1  0  0  0  0
 14 18  1  0  0  0  0
 14 15  2  0  0  0  0
 15 16  1  0  0  0  0
 16 17  2  0  0  0  0
 16 38  1  0  0  0  0
 17 18  1  0  0  0  0
 17 39  1  0  0  0  0
 19 40  1  0  0  0  0
 19 41  1  0  0  0  0
M  CHG  1   3   1
M  END
> <s_m_source_file>
AV-unprocessed.smi

> <i_m_source_file_index>
1833

> <i_lp_mmshare_version>
43012

> <i_f3d_flags>
0

> <s_epik_input>
W0NIM11bQ0gyXU4xW0NIMl1bQ0gyXVtDSDJdW0NASF0oW0NIMl0xKVtOSF1DKD1PKVtOSF1bQ0gyXVtDSDJdYzJuW2NIXVtjSF1zMg==

> <s_epik_cmdline>
J2VwaWtfcHl0aG9uJywgJy1waCcsICc3LjAnLCAnLXRuJywgJzgnLCAnLW1hJywgJzIwMCcsICctbWV0YWxfYmluZGluZycsICctaW1hZScsICc8aW5maWxlLm1hZT4nLCAnLW9tYWUnLCAnPG91dGZpbGUubWFlPic=

> <r_lp_tautomer_probability>
1

> <r_epik_Ionization_Penalty>
0.00269629

> <r_epik_Ionization_Penalty_Charging>
0.00233899

> <r_epik_Ionization_Penalty_Neutral>
0.000357304

> <r_epik_State_Penalty>
-0

> <r_epik_Charging_Adjusted_Penalty>
0.00233899

> <i_epik_Tot_Q>
1

> <i_epik_Tot_abs_Q>
1

> <r_epik_Metal_State_Penalty>
-0

> <b_epik_Metal_Only>
0

> <s_lp_Force_Field>
OPLS_2005

> <r_lp_Energy>
7.28856

> <b_lp_Chiralities_Consistent>
1

> <s_lp_Variant>
AV-unprocessed.smi:1833-1

> <Gold.Version>
5.8.1

> <Gold.Id.Protein>
6NUR|6NUR_protein|mol2

> <Gold.PLP.Fitness>
42.9134

> <Gold.PLP.PLP>
-26.8291

> <Gold.PLP.part.hbond>
-3.8994

> <Gold.PLP.part.metal>
0.0000

> <Gold.PLP.part.buried>
-4.7658

> <Gold.PLP.part.nonpolar>
-18.9064

> <Gold.PLP.part.repulsive>
0.1242

> <Gold.PLP.ligand.clash>
0.0000

> <Gold.PLP.ligand.torsion>
0.5757

> <Gold.PLP.Chemscore.Hbond>
4.7280

> <Gold.PLP.Chemscore.CHOScore>
1.0000

> <Gold.PLP.Chemscore.Metal>
0.0000

> <Gold.Chemscore.Hbonds>
donor molecule, donor type, donor heavy atom, donor atom, acceptor molecule, acceptor atom, score
      L1  H     3    42       P1 10957  2.00
      L1  H     8    32       P1  7948  0.88
      L1  H    11    33       P1  7948  1.00
      P1  H  7989  7998       L1    15  0.71
      L1  C    16    38       P1  8028  0.99

> <Gold.PLP.Chemscore.Internal.Correction>
0.0516

> <Gold.Rescore>
     Score         DG    S(hbond)    S(metal)    S(lipo)     H(rot)  DE(clash)    DE(int)     intcor
     19.80     -20.57       3.58        0.00      64.21       1.71       0.00       0.77       ----

> <Gold.Chemscore.Fitness>
19.7953

> <Gold.Chemscore.DG>
-20.5725

> <Gold.Chemscore.ZeroCoef>
-5.4800

> <Gold.Chemscore.Hbond>
3.5836

> <Gold.Chemscore.Metal>
0.0000

> <Gold.Chemscore.Lipo>
64.2132

> <Gold.Chemscore.Internal_Hbond>
0.0000

> <Gold.Chemscore.DEClash>
0.0048

> <Gold.Chemscore.DEInternal>
0.7724

> <Gold.Chemscore.Rot>
1.7147

> <Gold.Chemscore.Internal.Correction>
   9.000000E+99

> <Gold.Chemscore.Hbonds>
donor molecule, donor type, donor heavy atom, donor atom, acceptor molecule, acceptor atom, score
      L1  H     3    42       P1 10957  0.88
      L1  H     8    32       P1  7948  0.84
      L1  H    11    33       P1  7948  0.94
      P1  H  7989  7998       L1    15  0.44

> <Gold.Chemscore.Hbond.Weighted>
-11.9692

> <Gold.Chemscore.Metal.Weighted>
-0.0000

> <Gold.Chemscore.Lipo.Weighted>
-7.5129

> <Gold.Chemscore.Internal_Hbond.Weighted>
0.0000

> <Gold.Chemscore.DEClash.Weighted>
0.0048

> <Gold.Chemscore.DEInternal.Weighted>
0.7724

> <Gold.Chemscore.Rot.Weighted>
4.3896

> <Gold.Chemscore.Internal.Correction.Weighted>
   9.000000E+99

> <Gold.Protein.RotatedTorsions>
[ 6907 6896 6895 6894 ] final  -61.91 input  -60.11 | X-H torsion
[ 7974 7965 7964 7962 ] final  140.16 input  175.53 | X-H torsion
[ 8008 7997 7996 7995 ] final  150.10 input   59.86 | X-H torsion
[ 10167 10162 10161 10158 ] final   33.60 input  -65.29 | X-H torsion
[ 10718 10713 10712 10709 ] final  158.49 input   66.30 | X-H torsion
[ 10763 10752 10751 10750 ] final  151.22 input  -60.55 | X-H torsion
[ 11005 11000 10999 10996 ] final -113.12 input  -57.11 | X-H torsion

> <Gold.Protein.ActiveResidues>
 VAL166  LYS551  ARG553  GLY616  TRP617  ASP618  TYR619  PRO620  LYS621  CYS622 
 ASP623  PHE694  ASN695  SER759  ASP760  ASP761  ALA762  ILE779  LEU786  VAL792 
 PHE793  MET794  SER795  GLU796  ALA797  LYS798  CYS799  TRP800  GLU811  SER814 

> <Gold.Protein.RotatedAtoms>
  150.7752  134.6642  159.6355 H   0  0  0  0  0  0  0  0  0  0  0  0  # atno 6907 bound_to 6896
  152.3819  134.6574  160.0149 H   0  0  0  0  0  0  0  0  0  0  0  0  # atno 6908 bound_to 6896
  151.6901  133.3274  159.3277 H   0  0  0  0  0  0  0  0  0  0  0  0  # atno 6909 bound_to 6896
  144.9212  139.5165  143.5662 H   0  0  0  0  0  0  0  0  0  0  0  0  # atno 7974 bound_to 7965
  156.2729  140.2084  156.5963 H   0  0  0  0  0  0  0  0  0  0  0  0  # atno 8008 bound_to 7997
  154.6942  140.0527  157.0417 H   0  0  0  0  0  0  0  0  0  0  0  0  # atno 8009 bound_to 7997
  155.0824  140.3188  155.4600 H   0  0  0  0  0  0  0  0  0  0  0  0  # atno 8010 bound_to 7997
  140.4392  144.1212  150.6171 H   0  0  0  0  0  0  0  0  0  0  0  0  # atno 10167 bound_to 10162
  157.1771  131.0624  151.2152 H   0  0  0  0  0  0  0  0  0  0  0  0  # atno 10718 bound_to 10713
  154.1003  135.2846  155.3253 H   0  0  0  0  0  0  0  0  0  0  0  0  # atno 10763 bound_to 10752
  154.6560  135.5352  153.7962 H   0  0  0  0  0  0  0  0  0  0  0  0  # atno 10764 bound_to 10752
  153.0381  135.6522  154.1167 H   0  0  0  0  0  0  0  0  0  0  0  0  # atno 10765 bound_to 10752
  141.0634  133.9499  157.2625 H   0  0  0  0  0  0  0  0  0  0  0  0  # atno 11005 bound_to 11000
  146.3205  139.8093  142.8949 LP  0  0  0  0  0  0  0  0  0  0  0  0  # atno 17320 bound_to 7965
  145.3293  141.0262  143.3456 LP  0  0  0  0  0  0  0  0  0  0  0  0  # atno 17321 bound_to 7965
  140.4338  143.2556  151.9562 LP  0  0  0  0  0  0  0  0  0  0  0  0  # atno 17342 bound_to 10162
  139.4788  144.5719  151.8074 LP  0  0  0  0  0  0  0  0  0  0  0  0  # atno 17343 bound_to 10162
  157.3988  130.7322  149.6751 LP  0  0  0  0  0  0  0  0  0  0  0  0  # atno 17370 bound_to 10713
  155.9730  130.4126  150.4042 LP  0  0  0  0  0  0  0  0  0  0  0  0  # atno 17371 bound_to 10713
  139.9453  135.0185  156.8834 LP  0  0  0  0  0  0  0  0  0  0  0  0  # atno 17394 bound_to 11000
  140.5823  134.0340  155.7468 LP  0  0  0  0  0  0  0  0  0  0  0  0  # atno 17395 bound_to 11000

$$$$
