AV-unprocessed.smi:618|AV-procd|sdf|3080|dock9
  -GOLD-   22720 0 03D 1   1.00000     0.00000
 Structure written by MMmdl.
 41 43  0  0  0  0  0  0  0  0  2 V2000
  144.2615  136.8830  152.1050 O   0  0  0  0  0  0  0  0  0  0  0  0
  145.4274  136.5300  151.9291 C   0  0  0  0  0  0  0  0  0  0  0  0
  146.4735  137.3578  152.0601 N   0  0  0  0  0  0  0  0  0  0  0  0
  146.3778  138.7683  152.4211 C   0  0  0  0  0  0  0  0  0  0  0  0
  146.9725  139.0457  153.8203 C   0  0  2  0  0  0  0  0  0  0  0  0
  145.9186  139.5504  154.8361 C   0  0  0  0  0  0  0  0  0  0  0  0
  145.6043  140.9622  154.5487 N   0  3  1  0  0  0  0  0  0  0  0  0
  144.6158  141.6412  155.4046 C   0  0  0  0  0  0  0  0  0  0  0  0
  144.9590  143.1402  155.2953 C   0  0  0  0  0  0  0  0  0  0  0  0
  146.2573  143.2121  154.4721 C   0  0  0  0  0  0  0  0  0  0  0  0
  146.8090  141.7938  154.5753 C   0  0  2  0  0  0  0  0  0  0  0  0
  147.7723  141.3139  153.4839 C   0  0  0  0  0  0  0  0  0  0  0  0
  148.0908  139.9449  153.7499 O   0  0  0  0  0  0  0  0  0  0  0  0
  145.8244  135.2864  151.6102 N   0  0  0  0  0  0  0  0  0  0  0  0
  145.0204  134.1390  151.3718 C   0  0  0  0  0  0  0  0  0  0  0  0
  143.6046  134.1402  151.3982 C   0  0  0  0  0  0  0  0  0  0  0  0
  142.9185  132.9411  151.1260 C   0  0  0  0  0  0  0  0  0  0  0  0
  143.6709  131.7877  150.8308 C   0  0  0  0  0  0  0  0  0  0  0  0
  145.0200  131.7753  150.7883 N   0  0  0  0  0  0  0  0  0  0  0  0
  145.6708  132.9289  151.0490 C   0  0  0  0  0  0  0  0  0  0  0  0
  147.3990  136.9864  151.9016 H   0  0  0  0  0  0  0  0  0  0  0  0
  146.8842  139.3538  151.6545 H   0  0  0  0  0  0  0  0  0  0  0  0
  145.3323  139.0798  152.3907 H   0  0  0  0  0  0  0  0  0  0  0  0
  147.3609  138.1026  154.2058 H   0  0  0  0  0  0  0  0  0  0  0  0
  145.0117  138.9464  154.7905 H   0  0  0  0  0  0  0  0  0  0  0  0
  146.3090  139.4660  155.8515 H   0  0  0  0  0  0  0  0  0  0  0  0
  143.5996  141.4193  155.0781 H   0  0  0  0  0  0  0  0  0  0  0  0
  144.7221  141.3066  156.4378 H   0  0  0  0  0  0  0  0  0  0  0  0
  144.1594  143.7045  154.8142 H   0  0  0  0  0  0  0  0  0  0  0  0
  145.1076  143.5634  156.2894 H   0  0  0  0  0  0  0  0  0  0  0  0
  146.0243  143.4517  153.4335 H   0  0  0  0  0  0  0  0  0  0  0  0
  146.9542  143.9641  154.8437 H   0  0  0  0  0  0  0  0  0  0  0  0
  147.2900  141.6820  155.5499 H   0  0  0  0  0  0  0  0  0  0  0  0
  147.3408  141.4287  152.4892 H   0  0  0  0  0  0  0  0  0  0  0  0
  148.6904  141.9012  153.5020 H   0  0  0  0  0  0  0  0  0  0  0  0
  146.8213  135.1279  151.5879 H   0  0  0  0  0  0  0  0  0  0  0  0
  143.0346  135.0324  151.6061 H   0  0  0  0  0  0  0  0  0  0  0  0
  141.8393  132.9074  151.1391 H   0  0  0  0  0  0  0  0  0  0  0  0
  143.1757  130.8523  150.6170 H   0  0  0  0  0  0  0  0  0  0  0  0
  146.7492  132.8818  151.0030 H   0  0  0  0  0  0  0  0  0  0  0  0
  145.2455  141.0078  153.6056 H   0  0  0  0  0  0  0  0  0  0  0  0
  1  2  2  0  0  0  0
  2  3  1  0  0  0  0
  2 14  1  0  0  0  0
  3  4  1  0  0  0  0
  3 21  1  0  0  0  0
  4  5  1  0  0  0  0
  4 22  1  0  0  0  0
  4 23  1  0  0  0  0
  5 13  1  0  0  0  0
  5  6  1  0  0  0  0
  5 24  1  0  0  0  0
  6  7  1  0  0  0  0
  6 25  1  0  0  0  0
  6 26  1  0  0  0  0
  7 11  1  0  0  0  0
  7  8  1  0  0  0  0
  7 41  1  0  0  0  0
  8  9  1  0  0  0  0
  8 27  1  0  0  0  0
  8 28  1  0  0  0  0
  9 10  1  0  0  0  0
  9 29  1  0  0  0  0
  9 30  1  0  0  0  0
 10 11  1  0  0  0  0
 10 31  1  0  0  0  0
 10 32  1  0  0  0  0
 11 12  1  0  0  0  0
 11 33  1  0  0  0  0
 12 13  1  0  0  0  0
 12 34  1  0  0  0  0
 12 35  1  0  0  0  0
 14 15  1  0  0  0  0
 14 36  1  0  0  0  0
 15 20  1  0  0  0  0
 15 16  2  0  0  0  0
 16 17  1  0  0  0  0
 16 37  1  0  0  0  0
 17 18  2  0  0  0  0
 17 38  1  0  0  0  0
 18 19  1  0  0  0  0
 18 39  1  0  0  0  0
 19 20  2  0  0  0  0
 20 40  1  0  0  0  0
M  CHG  1   7   1
M  END
> <s_m_source_file>
AV-unprocessed.smi

> <i_m_source_file_index>
618

> <i_lp_mmshare_version>
43012

> <i_f3d_flags>
0

> <s_epik_input>
W2NIXTFuW2NIXVtjSF1bY0hdYzFbTkhdQyg9TylbTkhdW0NIMl1bQ0BIXShbQ0gyXTIpT1tDSDJdW0NAQEhdKE4yMylbQ0gyXVtDSDJdW0NIMl0z

> <s_epik_cmdline>
J2VwaWtfcHl0aG9uJywgJy1waCcsICc3LjAnLCAnLXRuJywgJzgnLCAnLW1hJywgJzIwMCcsICctbWV0YWxfYmluZGluZycsICctaW1hZScsICc8aW5maWxlLm1hZT4nLCAnLW9tYWUnLCAnPG91dGZpbGUubWFlPic=

> <r_epik_Ionization_Penalty>
0.111044

> <r_epik_Ionization_Penalty_Charging>
0.10673

> <r_epik_Ionization_Penalty_Neutral>
0.00431361

> <r_epik_State_Penalty>
0.0978747

> <r_epik_Charging_Adjusted_Penalty>
0.204605

> <i_epik_Tot_Q>
1

> <i_epik_Tot_abs_Q>
1

> <r_epik_Metal_State_Penalty>
0.0947591

> <b_epik_Metal_Only>
0

> <s_lp_Force_Field>
OPLS_2005

> <r_lp_Energy>
41.554

> <b_lp_Chiralities_Consistent>
1

> <s_lp_Variant>
AV-unprocessed.smi:618-7

> <Gold.Version>
5.8.1

> <Gold.Id.Protein>
6NUR|6NUR_protein|mol2

> <Gold.PLP.Fitness>
45.4906

> <Gold.PLP.PLP>
-33.7427

> <Gold.PLP.part.hbond>
-2.8776

> <Gold.PLP.part.metal>
0.0000

> <Gold.PLP.part.buried>
-7.1550

> <Gold.PLP.part.nonpolar>
-26.3572

> <Gold.PLP.part.repulsive>
2.0474

> <Gold.PLP.ligand.clash>
0.0000

> <Gold.PLP.ligand.torsion>
0.7748

> <Gold.PLP.Chemscore.Hbond>
3.8960

> <Gold.PLP.Chemscore.CHOScore>
0.5331

> <Gold.PLP.Chemscore.Metal>
0.0000

> <Gold.Chemscore.Hbonds>
donor molecule, donor type, donor heavy atom, donor atom, acceptor molecule, acceptor atom, score
      L1  H     3    21       P1  7948  1.00
      L1  H     7    41       P1 10175  1.70
      L1  H    14    36       P1  7948  0.13
      L1  C    18    39       P1 10952  0.77

> <Gold.PLP.Chemscore.Internal.Correction>
0.0101

> <Gold.Rescore>
     Score         DG    S(hbond)    S(metal)    S(lipo)     H(rot)  DE(clash)    DE(int)     intcor
     17.46     -19.55       2.86        0.00      66.17       1.27       0.12       1.97       ----

> <Gold.Chemscore.Fitness>
17.4596

> <Gold.Chemscore.DG>
-19.5480

> <Gold.Chemscore.ZeroCoef>
-5.4800

> <Gold.Chemscore.Hbond>
2.8642

> <Gold.Chemscore.Metal>
0.0000

> <Gold.Chemscore.Lipo>
66.1653

> <Gold.Chemscore.Internal_Hbond>
0.0000

> <Gold.Chemscore.DEClash>
0.1164

> <Gold.Chemscore.DEInternal>
1.9720

> <Gold.Chemscore.Rot>
1.2656

> <Gold.Chemscore.Internal.Correction>
   9.000000E+99

> <Gold.Chemscore.Hbonds>
donor molecule, donor type, donor heavy atom, donor atom, acceptor molecule, acceptor atom, score
      L1  H     3    21       P1  7948  1.00
      L1  H     7    41       P1 10175  0.57
      L1  H    14    36       P1  7948  0.13

> <Gold.Chemscore.Hbond.Weighted>
-9.5665

> <Gold.Chemscore.Metal.Weighted>
-0.0000

> <Gold.Chemscore.Lipo.Weighted>
-7.7413

> <Gold.Chemscore.Internal_Hbond.Weighted>
0.0000

> <Gold.Chemscore.DEClash.Weighted>
0.1164

> <Gold.Chemscore.DEInternal.Weighted>
1.9720

> <Gold.Chemscore.Rot.Weighted>
3.2399

> <Gold.Chemscore.Internal.Correction.Weighted>
   9.000000E+99

> <Gold.Protein.RotatedTorsions>
[ 6907 6896 6895 6894 ] final    0.42 input  -60.11 | X-H torsion
[ 7974 7965 7964 7962 ] final    3.27 input  175.53 | X-H torsion
[ 8008 7997 7996 7995 ] final -174.59 input   59.86 | X-H torsion
[ 10167 10162 10161 10158 ] final  -50.91 input  -65.29 | X-H torsion
[ 10718 10713 10712 10709 ] final -133.45 input   66.30 | X-H torsion
[ 10763 10752 10751 10750 ] final  113.59 input  -60.55 | X-H torsion
[ 11005 11000 10999 10996 ] final -126.67 input  -57.11 | X-H torsion

> <Gold.Protein.ActiveResidues>
 VAL166  LYS551  ARG553  GLY616  TRP617  ASP618  TYR619  PRO620  LYS621  CYS622 
 ASP623  PHE694  ASN695  SER759  ASP760  ASP761  ALA762  ILE779  LEU786  VAL792 
 PHE793  MET794  SER795  GLU796  ALA797  LYS798  CYS799  TRP800  GLU811  SER814 

> <Gold.Protein.RotatedAtoms>
  151.5762  135.1060  160.0006 H   0  0  0  0  0  0  0  0  0  0  0  0  # atno 6907 bound_to 6896
  152.4376  133.7386  159.6638 H   0  0  0  0  0  0  0  0  0  0  0  0  # atno 6908 bound_to 6896
  150.8277  133.8075  159.3135 H   0  0  0  0  0  0  0  0  0  0  0  0  # atno 6909 bound_to 6896
  146.2445  140.0711  142.8362 H   0  0  0  0  0  0  0  0  0  0  0  0  # atno 7974 bound_to 7965
  155.9720  140.1165  157.0804 H   0  0  0  0  0  0  0  0  0  0  0  0  # atno 8008 bound_to 7997
  154.4159  140.1161  156.5387 H   0  0  0  0  0  0  0  0  0  0  0  0  # atno 8009 bound_to 7997
  155.6584  140.3473  155.4776 H   0  0  0  0  0  0  0  0  0  0  0  0  # atno 8010 bound_to 7997
  140.6614  143.2639  151.4427 H   0  0  0  0  0  0  0  0  0  0  0  0  # atno 10167 bound_to 10162
  156.2451  130.7119  151.0996 H   0  0  0  0  0  0  0  0  0  0  0  0  # atno 10718 bound_to 10713
  153.4948  135.3651  155.2510 H   0  0  0  0  0  0  0  0  0  0  0  0  # atno 10763 bound_to 10752
  154.8750  135.3986  154.3547 H   0  0  0  0  0  0  0  0  0  0  0  0  # atno 10764 bound_to 10752
  153.4173  135.7079  153.6384 H   0  0  0  0  0  0  0  0  0  0  0  0  # atno 10765 bound_to 10752
  140.9662  134.0868  157.3917 H   0  0  0  0  0  0  0  0  0  0  0  0  # atno 11005 bound_to 11000
  145.0815  140.9224  143.4822 LP  0  0  0  0  0  0  0  0  0  0  0  0  # atno 17320 bound_to 7965
  145.0865  139.2921  143.5757 LP  0  0  0  0  0  0  0  0  0  0  0  0  # atno 17321 bound_to 7965
  139.5850  144.1625  152.2017 LP  0  0  0  0  0  0  0  0  0  0  0  0  # atno 17342 bound_to 10162
  140.0962  144.5578  150.7020 LP  0  0  0  0  0  0  0  0  0  0  0  0  # atno 17343 bound_to 10162
  157.7191  131.0692  150.6207 LP  0  0  0  0  0  0  0  0  0  0  0  0  # atno 17370 bound_to 10713
  156.6283  130.4425  149.5796 LP  0  0  0  0  0  0  0  0  0  0  0  0  # atno 17371 bound_to 10713
  139.8895  135.0106  156.6685 LP  0  0  0  0  0  0  0  0  0  0  0  0  # atno 17394 bound_to 11000
  140.7395  133.8990  155.8268 LP  0  0  0  0  0  0  0  0  0  0  0  0  # atno 17395 bound_to 11000

$$$$
