AV-unprocessed.smi:221|AV-procd|sdf|1689|dock3
  -GOLD-   2262020133D 1   1.00000     0.00000
 Structure written by MMmdl.
 50 53  0  0  0  0  0  0  0  0  1 V2000
  146.1718  136.6794  152.1162 N   0  0  0  0  0  0  0  0  0  0  0  0
  144.9669  136.1154  151.9790 C   0  0  0  0  0  0  0  0  0  0  0  0
  143.9339  136.7651  152.1243 O   0  0  0  0  0  0  0  0  0  0  0  0
  144.8816  134.6149  151.6355 C   0  0  1  0  0  0  0  0  0  0  0  0
  144.4065  134.4087  150.1877 C   0  0  0  0  0  0  0  0  0  0  0  0
  144.9677  133.0425  149.8092 C   0  0  2  0  0  0  0  0  0  0  0  0
  144.1679  132.0857  150.2830 F   0  0  0  0  0  0  0  0  0  0  0  0
  146.3058  132.9970  150.5461 C   0  0  0  0  0  0  0  0  0  0  0  0
  146.1597  133.8909  151.6903 N   0  0  0  0  0  0  0  0  0  0  0  0
  146.7515  133.5459  152.8663 C   0  0  0  0  0  0  0  0  0  0  0  0
  147.9001  132.8187  152.8507 N   0  0  0  0  0  0  0  0  0  0  0  0
  148.4980  132.4681  153.9926 C   0  0  0  0  0  0  0  0  0  0  0  0
  148.1213  132.7296  155.2446 N   0  0  0  0  0  0  0  0  0  0  0  0
  146.9620  133.4466  155.2725 C   0  0  0  0  0  0  0  0  0  0  0  0
  146.2191  133.8934  154.1423 C   0  0  0  0  0  0  0  0  0  0  0  0
  145.0900  134.5851  154.5678 N   0  0  0  0  0  0  0  0  0  0  0  0
  145.1675  134.5585  155.8700 C   0  0  0  0  0  0  0  0  0  0  0  0
  146.2556  133.8874  156.3780 N   0  0  0  0  0  0  0  0  0  0  0  0
  146.5838  133.7073  157.7811 C   0  0  0  0  0  0  0  0  0  0  0  0
  147.0942  135.0150  158.4473 C   0  0  2  0  0  0  0  0  0  0  0  0
  148.4555  135.4379  157.8541 C   0  0  0  0  0  0  0  0  0  0  0  0
  149.4067  134.3999  157.9680 O   0  0  0  0  0  0  0  0  0  0  0  0
  147.1262  134.9467  159.9989 C   0  0  2  0  0  0  0  0  0  0  0  0
  145.7661  135.0940  160.6867 C   0  0  0  0  0  0  0  0  0  0  0  0
  146.0431  136.0586  161.8358 C   0  0  0  0  0  0  0  0  0  0  0  0
  147.0713  136.8861  161.3200 O   0  0  0  0  0  0  0  0  0  0  0  0
  147.9919  136.0321  160.6583 C   0  0  0  0  0  0  0  0  0  0  0  0
  144.1663  134.1371  152.3073 H   0  0  0  0  0  0  0  0  0  0  0  0
  145.0609  132.8921  148.7333 H   0  0  0  0  0  0  0  0  0  0  0  0
  146.2434  137.6594  152.3483 H   0  0  0  0  0  0  0  0  0  0  0  0
  147.0045  136.1216  151.9944 H   0  0  0  0  0  0  0  0  0  0  0  0
  143.3214  134.4582  150.0894 H   0  0  0  0  0  0  0  0  0  0  0  0
  144.8334  135.1660  149.5273 H   0  0  0  0  0  0  0  0  0  0  0  0
  146.5633  131.9746  150.8283 H   0  0  0  0  0  0  0  0  0  0  0  0
  147.1034  133.3823  149.9101 H   0  0  0  0  0  0  0  0  0  0  0  0
  149.4078  131.8959  153.8880 H   0  0  0  0  0  0  0  0  0  0  0  0
  144.4243  135.0235  156.5015 H   0  0  0  0  0  0  0  0  0  0  0  0
  145.7046  133.3114  158.2885 H   0  0  0  0  0  0  0  0  0  0  0  0
  147.3332  132.9175  157.8445 H   0  0  0  0  0  0  0  0  0  0  0  0
  146.3951  135.8140  158.1933 H   0  0  0  0  0  0  0  0  0  0  0  0
  148.3580  135.7269  156.8073 H   0  0  0  0  0  0  0  0  0  0  0  0
  148.8474  136.3038  158.3890 H   0  0  0  0  0  0  0  0  0  0  0  0
  149.1746  133.7108  157.3641 H   0  0  0  0  0  0  0  0  0  0  0  0
  147.5541  133.9860  160.2890 H   0  0  0  0  0  0  0  0  0  0  0  0
  145.0231  135.5285  160.0184 H   0  0  0  0  0  0  0  0  0  0  0  0
  145.3688  134.1408  161.0367 H   0  0  0  0  0  0  0  0  0  0  0  0
  145.1645  136.6373  162.1215 H   0  0  0  0  0  0  0  0  0  0  0  0
  146.4075  135.5255  162.7155 H   0  0  0  0  0  0  0  0  0  0  0  0
  148.6565  135.5888  161.4013 H   0  0  0  0  0  0  0  0  0  0  0  0
  148.6128  136.5835  159.9528 H   0  0  0  0  0  0  0  0  0  0  0  0
  1  2  1  0  0  0  0
  1 30  1  0  0  0  0
  1 31  1  0  0  0  0
  2  3  2  0  0  0  0
  2  4  1  0  0  0  0
  4 28  1  0  0  0  0
  4  9  1  0  0  0  0
  4  5  1  0  0  0  0
  5  6  1  0  0  0  0
  5 32  1  0  0  0  0
  5 33  1  0  0  0  0
  6 29  1  0  0  0  0
  6  7  1  0  0  0  0
  6  8  1  0  0  0  0
  8  9  1  0  0  0  0
  8 34  1  0  0  0  0
  8 35  1  0  0  0  0
  9 10  1  0  0  0  0
 10 15  1  0  0  0  0
 10 11  2  0  0  0  0
 11 12  1  0  0  0  0
 12 13  2  0  0  0  0
 12 36  1  0  0  0  0
 13 14  1  0  0  0  0
 14 18  1  0  0  0  0
 14 15  2  0  0  0  0
 15 16  1  0  0  0  0
 16 17  2  0  0  0  0
 17 18  1  0  0  0  0
 17 37  1  0  0  0  0
 18 19  1  0  0  0  0
 19 20  1  0  0  0  0
 19 38  1  0  0  0  0
 19 39  1  0  0  0  0
 20 21  1  0  0  0  0
 20 23  1  0  0  0  0
 20 40  1  0  0  0  0
 21 22  1  0  0  0  0
 21 41  1  0  0  0  0
 21 42  1  0  0  0  0
 22 43  1  0  0  0  0
 23 27  1  0  0  0  0
 23 24  1  0  0  0  0
 23 44  1  0  0  0  0
 24 25  1  0  0  0  0
 24 45  1  0  0  0  0
 24 46  1  0  0  0  0
 25 26  1  0  0  0  0
 25 47  1  0  0  0  0
 25 48  1  0  0  0  0
 26 27  1  0  0  0  0
 27 49  1  0  0  0  0
 27 50  1  0  0  0  0
M  END
> <s_m_source_file>
AV-unprocessed.smi

> <i_m_source_file_index>
221

> <i_lp_mmshare_version>
43012

> <i_f3d_flags>
0

> <s_epik_input>
W05IMl1DKD1PKVtDQEBIXTFbQ0gyXVtDQEBIXShGKVtDSDJdTjFjKG5bY0hdbjIpYyhjMjMpbltjSF1uM1tDSDJdW0NASF0oW0NIMl1bT0hdKVtDQEBIXTRbQ0gyXVtDSDJdT1tDSDJdNA==

> <s_epik_cmdline>
J2VwaWtfcHl0aG9uJywgJy1waCcsICc3LjAnLCAnLXRuJywgJzgnLCAnLW1hJywgJzIwMCcsICctbWV0YWxfYmluZGluZycsICctaW1hZScsICc8aW5maWxlLm1hZT4nLCAnLW9tYWUnLCAnPG91dGZpbGUubWFlPic=

> <r_lp_tautomer_probability>
1

> <r_epik_Ionization_Penalty>
0.000818822

> <r_epik_Ionization_Penalty_Charging>
0

> <r_epik_Ionization_Penalty_Neutral>
0.000818822

> <r_epik_State_Penalty>
0.000440551

> <r_epik_Charging_Adjusted_Penalty>
0.000440551

> <i_epik_Tot_Q>
0

> <i_epik_Tot_abs_Q>
0

> <r_epik_Metal_State_Penalty>
-0

> <b_epik_Metal_Only>
0

> <s_lp_Force_Field>
OPLS_2005

> <r_lp_Energy>
52.2348

> <b_lp_Chiralities_Consistent>
1

> <s_lp_Variant>
AV-unprocessed.smi:221-4

> <Gold.Version>
5.8.1

> <Gold.Id.Protein>
6NUR|6NUR_protein|mol2

> <Gold.PLP.Fitness>
44.3642

> <Gold.PLP.PLP>
-35.2411

> <Gold.PLP.part.hbond>
-4.0000

> <Gold.PLP.part.metal>
0.0000

> <Gold.PLP.part.buried>
-5.9337

> <Gold.PLP.part.nonpolar>
-26.2671

> <Gold.PLP.part.repulsive>
0.9050

> <Gold.PLP.ligand.clash>
0.0000

> <Gold.PLP.ligand.torsion>
1.0470

> <Gold.PLP.Chemscore.Hbond>
3.5720

> <Gold.PLP.Chemscore.CHOScore>
0.0000

> <Gold.PLP.Chemscore.Metal>
0.0000

> <Gold.Chemscore.Hbonds>
donor molecule, donor type, donor heavy atom, donor atom, acceptor molecule, acceptor atom, score
      L1  H     1    31       P1  7948  0.88
      P1  H  6896  6908       L1    22  1.00
      P1  H  6934  6947       L1    26  0.65

> <Gold.PLP.Chemscore.Internal.Correction>
0.5011

> <Gold.Rescore>
     Score         DG    S(hbond)    S(metal)    S(lipo)     H(rot)  DE(clash)    DE(int)     intcor
     10.12     -12.46       2.67        0.00      55.94       3.31       0.12       2.22       ----

> <Gold.Chemscore.Fitness>
10.1202

> <Gold.Chemscore.DG>
-12.4566

> <Gold.Chemscore.ZeroCoef>
-5.4800

> <Gold.Chemscore.Hbond>
2.6654

> <Gold.Chemscore.Metal>
0.0000

> <Gold.Chemscore.Lipo>
55.9413

> <Gold.Chemscore.Internal_Hbond>
0.0000

> <Gold.Chemscore.DEClash>
0.1214

> <Gold.Chemscore.DEInternal>
2.2150

> <Gold.Chemscore.Rot>
3.3089

> <Gold.Chemscore.Internal.Correction>
   9.000000E+99

> <Gold.Chemscore.Hbonds>
donor molecule, donor type, donor heavy atom, donor atom, acceptor molecule, acceptor atom, score
      L1  H     1    31       P1  7948  0.86
      P1  H  6896  6908       L1    22  0.99
      P1  H  6934  6947       L1    26  0.62

> <Gold.Chemscore.Hbond.Weighted>
-8.9024

> <Gold.Chemscore.Metal.Weighted>
-0.0000

> <Gold.Chemscore.Lipo.Weighted>
-6.5451

> <Gold.Chemscore.Internal_Hbond.Weighted>
0.0000

> <Gold.Chemscore.DEClash.Weighted>
0.1214

> <Gold.Chemscore.DEInternal.Weighted>
2.2150

> <Gold.Chemscore.Rot.Weighted>
8.4709

> <Gold.Chemscore.Internal.Correction.Weighted>
   9.000000E+99

> <Gold.Protein.RotatedTorsions>
[ 6907 6896 6895 6894 ] final  142.48 input  -60.11 | X-H torsion
[ 7974 7965 7964 7962 ] final  118.90 input  175.53 | X-H torsion
[ 8008 7997 7996 7995 ] final -152.27 input   59.86 | X-H torsion
[ 10167 10162 10161 10158 ] final  -33.55 input  -65.29 | X-H torsion
[ 10718 10713 10712 10709 ] final  146.60 input   66.30 | X-H torsion
[ 10763 10752 10751 10750 ] final   60.02 input  -60.55 | X-H torsion
[ 11005 11000 10999 10996 ] final  118.47 input  -57.11 | X-H torsion

> <Gold.Protein.ActiveResidues>
 VAL166  LYS551  ARG553  GLY616  TRP617  ASP618  TYR619  PRO620  LYS621  CYS622 
 ASP623  PHE694  ASN695  SER759  ASP760  ASP761  ALA762  ILE779  LEU786  VAL792 
 PHE793  MET794  SER795  GLU796  ALA797  LYS798  CYS799  TRP800  GLU811  SER814 

> <Gold.Protein.RotatedAtoms>
  152.2181  133.4962  159.5147 H   0  0  0  0  0  0  0  0  0  0  0  0  # atno 6907 bound_to 6896
  150.7006  134.1378  159.4103 H   0  0  0  0  0  0  0  0  0  0  0  0  # atno 6908 bound_to 6896
  151.9299  135.0261  160.0579 H   0  0  0  0  0  0  0  0  0  0  0  0  # atno 6909 bound_to 6896
  145.1496  139.3218  143.4573 H   0  0  0  0  0  0  0  0  0  0  0  0  # atno 7974 bound_to 7965
  155.6524  140.0713  157.2582 H   0  0  0  0  0  0  0  0  0  0  0  0  # atno 8008 bound_to 7997
  154.4159  140.1731  156.1739 H   0  0  0  0  0  0  0  0  0  0  0  0  # atno 8009 bound_to 7997
  155.9765  140.3357  155.6627 H   0  0  0  0  0  0  0  0  0  0  0  0  # atno 8010 bound_to 7997
  140.7202  143.3612  151.1959 H   0  0  0  0  0  0  0  0  0  0  0  0  # atno 10167 bound_to 10162
  157.3312  131.0920  151.1160 H   0  0  0  0  0  0  0  0  0  0  0  0  # atno 10718 bound_to 10713
  152.9910  135.5551  154.5807 H   0  0  0  0  0  0  0  0  0  0  0  0  # atno 10763 bound_to 10752
  154.5188  135.2806  155.1282 H   0  0  0  0  0  0  0  0  0  0  0  0  # atno 10764 bound_to 10752
  154.2643  135.6375  153.5339 H   0  0  0  0  0  0  0  0  0  0  0  0  # atno 10765 bound_to 10752
  139.9111  134.9620  156.7509 H   0  0  0  0  0  0  0  0  0  0  0  0  # atno 11005 bound_to 11000
  146.3496  140.1565  142.8591 LP  0  0  0  0  0  0  0  0  0  0  0  0  # atno 17320 bound_to 7965
  145.0445  140.8970  143.5033 LP  0  0  0  0  0  0  0  0  0  0  0  0  # atno 17321 bound_to 7965
  139.7165  143.9293  152.2968 LP  0  0  0  0  0  0  0  0  0  0  0  0  # atno 17342 bound_to 10162
  139.9035  144.6898  150.8639 LP  0  0  0  0  0  0  0  0  0  0  0  0  # atno 17343 bound_to 10162
  157.2408  130.6568  149.5889 LP  0  0  0  0  0  0  0  0  0  0  0  0  # atno 17370 bound_to 10713
  155.9696  130.4569  150.5942 LP  0  0  0  0  0  0  0  0  0  0  0  0  # atno 17371 bound_to 10713
  140.6774  133.9505  155.7891 LP  0  0  0  0  0  0  0  0  0  0  0  0  # atno 17394 bound_to 11000
  141.0534  134.0451  157.3754 LP  0  0  0  0  0  0  0  0  0  0  0  0  # atno 17395 bound_to 11000

$$$$
