AV-unprocessed.smi:843|AV-procd|sdf|3922|dock10
  -GOLD-   22720 1383D 1   1.00000     0.00000
 Structure written by MMmdl.
 46 47  0  0  0  0  0  0  0  0  2 V2000
  147.3997  128.2829  151.5695 C   0  0  0  0  0  0  0  0  0  0  0  0
  147.0138  129.4079  152.5413 C   0  0  0  0  0  0  0  0  0  0  0  0
  146.7311  130.6919  151.8509 N   0  3  2  0  0  0  0  0  0  0  0  0
  146.3897  131.7758  152.8089 C   0  0  0  0  0  0  0  0  0  0  0  0
  146.2132  133.1280  152.0926 C   0  0  0  0  0  0  0  0  0  0  0  0
  145.1658  133.0599  150.9654 C   0  0  2  0  0  0  0  0  0  0  0  0
  143.7208  132.9976  151.5157 C   0  0  0  0  0  0  0  0  0  0  0  0
  143.3004  134.2595  152.1187 N   0  0  0  0  0  0  0  0  0  0  0  0
  142.1042  134.4954  152.6773 C   0  0  0  0  0  0  0  0  0  0  0  0
  141.2141  133.6492  152.7533 O   0  0  0  0  0  0  0  0  0  0  0  0
  142.0239  135.7574  153.1325 N   0  0  0  0  0  0  0  0  0  0  0  0
  140.9280  136.4236  153.7502 C   0  0  0  0  0  0  0  0  0  0  0  0
  139.5832  135.9856  153.6670 C   0  0  0  0  0  0  0  0  0  0  0  0
  138.5790  136.7360  154.3057 C   0  0  0  0  0  0  0  0  0  0  0  0
  138.9512  137.9014  154.9993 C   0  0  0  0  0  0  0  0  0  0  0  0
  140.2246  138.3384  155.0774 N   0  0  0  0  0  0  0  0  0  0  0  0
  141.1949  137.6170  154.4621 C   0  0  0  0  0  0  0  0  0  0  0  0
  142.4976  138.0725  154.5366 O   0  0  0  0  0  0  0  0  0  0  0  0
  142.7799  139.1918  155.3697 C   0  0  0  0  0  0  0  0  0  0  0  0
  145.5421  131.8999  150.0207 C   0  0  0  0  0  0  0  0  0  0  0  0
  145.7117  130.5700  150.7755 C   0  0  0  0  0  0  0  0  0  0  0  0
  147.7075  127.3929  152.1188 H   0  0  0  0  0  0  0  0  0  0  0  0
  148.2324  128.5803  150.9316 H   0  0  0  0  0  0  0  0  0  0  0  0
  146.5690  127.9909  150.9278 H   0  0  0  0  0  0  0  0  0  0  0  0
  146.1579  129.1135  153.1505 H   0  0  0  0  0  0  0  0  0  0  0  0
  147.8482  129.5505  153.2292 H   0  0  0  0  0  0  0  0  0  0  0  0
  145.4842  131.5094  153.3556 H   0  0  0  0  0  0  0  0  0  0  0  0
  147.1840  131.8705  153.5502 H   0  0  0  0  0  0  0  0  0  0  0  0
  145.9440  133.9007  152.8136 H   0  0  0  0  0  0  0  0  0  0  0  0
  147.1722  133.4322  151.6709 H   0  0  0  0  0  0  0  0  0  0  0  0
  145.2422  133.9862  150.3938 H   0  0  0  0  0  0  0  0  0  0  0  0
  143.0165  132.6842  150.7444 H   0  0  0  0  0  0  0  0  0  0  0  0
  143.6631  132.2361  152.2940 H   0  0  0  0  0  0  0  0  0  0  0  0
  143.9725  135.0129  152.1068 H   0  0  0  0  0  0  0  0  0  0  0  0
  142.8673  136.3075  153.0583 H   0  0  0  0  0  0  0  0  0  0  0  0
  139.2950  135.1027  153.1193 H   0  0  0  0  0  0  0  0  0  0  0  0
  137.5453  136.4265  154.2601 H   0  0  0  0  0  0  0  0  0  0  0  0
  138.2062  138.5023  155.4995 H   0  0  0  0  0  0  0  0  0  0  0  0
  143.8417  139.4295  155.3071 H   0  0  0  0  0  0  0  0  0  0  0  0
  142.5495  138.9796  156.4148 H   0  0  0  0  0  0  0  0  0  0  0  0
  142.2250  140.0759  155.0523 H   0  0  0  0  0  0  0  0  0  0  0  0
  144.8092  131.7894  149.2223 H   0  0  0  0  0  0  0  0  0  0  0  0
  146.4814  132.1404  149.5209 H   0  0  0  0  0  0  0  0  0  0  0  0
  146.0066  129.8034  150.0603 H   0  0  0  0  0  0  0  0  0  0  0  0
  144.7622  130.2476  151.2041 H   0  0  0  0  0  0  0  0  0  0  0  0
  147.5933  130.9725  151.4060 H   0  0  0  0  0  0  0  0  0  0  0  0
  1  2  1  0  0  0  0
  1 22  1  0  0  0  0
  1 23  1  0  0  0  0
  1 24  1  0  0  0  0
  2  3  1  0  0  0  0
  2 25  1  0  0  0  0
  2 26  1  0  0  0  0
  3 21  1  0  0  0  0
  3  4  1  0  0  0  0
  3 46  1  0  0  0  0
  4  5  1  0  0  0  0
  4 27  1  0  0  0  0
  4 28  1  0  0  0  0
  5  6  1  0  0  0  0
  5 29  1  0  0  0  0
  5 30  1  0  0  0  0
  6  7  1  0  0  0  0
  6 20  1  0  0  0  0
  6 31  1  0  0  0  0
  7  8  1  0  0  0  0
  7 32  1  0  0  0  0
  7 33  1  0  0  0  0
  8  9  1  0  0  0  0
  8 34  1  0  0  0  0
  9 10  2  0  0  0  0
  9 11  1  0  0  0  0
 11 12  1  0  0  0  0
 11 35  1  0  0  0  0
 12 17  1  0  0  0  0
 12 13  2  0  0  0  0
 13 14  1  0  0  0  0
 13 36  1  0  0  0  0
 14 15  2  0  0  0  0
 14 37  1  0  0  0  0
 15 16  1  0  0  0  0
 15 38  1  0  0  0  0
 16 17  2  0  0  0  0
 17 18  1  0  0  0  0
 18 19  1  0  0  0  0
 19 39  1  0  0  0  0
 19 40  1  0  0  0  0
 19 41  1  0  0  0  0
 20 21  1  0  0  0  0
 20 42  1  0  0  0  0
 20 43  1  0  0  0  0
 21 44  1  0  0  0  0
 21 45  1  0  0  0  0
M  CHG  1   3   1
M  END
> <s_m_source_file>
AV-unprocessed.smi

> <i_m_source_file_index>
843

> <i_lp_mmshare_version>
43012

> <i_f3d_flags>
0

> <s_epik_input>
W0NIM11bQ0gyXU4xW0NIMl1bQ0gyXVtDSF0oW0NIMl1bQ0gyXTEpW0NIMl1bTkhdQyg9TylbTkhdYzJbY0hdW2NIXVtjSF1uYzJPW0NIM10=

> <s_epik_cmdline>
J2VwaWtfcHl0aG9uJywgJy1waCcsICc3LjAnLCAnLXRuJywgJzgnLCAnLW1hJywgJzIwMCcsICctbWV0YWxfYmluZGluZycsICctaW1hZScsICc8aW5maWxlLm1hZT4nLCAnLW9tYWUnLCAnPG91dGZpbGUubWFlPic=

> <r_lp_tautomer_probability>
1

> <r_epik_Ionization_Penalty>
0.00115026

> <r_epik_Ionization_Penalty_Charging>
0.00106265

> <r_epik_Ionization_Penalty_Neutral>
8.76119e-05

> <r_epik_State_Penalty>
0.000695551

> <r_epik_Charging_Adjusted_Penalty>
0.0017582

> <i_epik_Tot_Q>
1

> <i_epik_Tot_abs_Q>
1

> <r_epik_Metal_State_Penalty>
-0

> <b_epik_Metal_Only>
0

> <s_lp_Force_Field>
OPLS_2005

> <r_lp_Energy>
22.0854

> <b_lp_Chiralities_Consistent>
1

> <s_lp_Variant>
AV-unprocessed.smi:843-2

> <Gold.Version>
5.8.1

> <Gold.Id.Protein>
6NUR|6NUR_protein|mol2

> <Gold.PLP.Fitness>
36.1174

> <Gold.PLP.PLP>
-33.4867

> <Gold.PLP.part.hbond>
-1.0000

> <Gold.PLP.part.metal>
0.0000

> <Gold.PLP.part.buried>
-7.4587

> <Gold.PLP.part.nonpolar>
-25.2193

> <Gold.PLP.part.repulsive>
0.4262

> <Gold.PLP.ligand.clash>
0.0000

> <Gold.PLP.ligand.torsion>
0.1993

> <Gold.PLP.Chemscore.Hbond>
1.0000

> <Gold.PLP.Chemscore.CHOScore>
0.0000

> <Gold.PLP.Chemscore.Metal>
0.0000

> <Gold.Chemscore.Hbonds>
donor molecule, donor type, donor heavy atom, donor atom, acceptor molecule, acceptor atom, score
      L1  H     3    46       P1 10747  1.00

> <Gold.PLP.Chemscore.Internal.Correction>
0.0294

> <Gold.Rescore>
     Score         DG    S(hbond)    S(metal)    S(lipo)     H(rot)  DE(clash)    DE(int)     intcor
     13.59     -14.84       1.00        0.00      87.63       1.65       0.09       1.16       ----

> <Gold.Chemscore.Fitness>
13.5877

> <Gold.Chemscore.DG>
-14.8362

> <Gold.Chemscore.ZeroCoef>
-5.4800

> <Gold.Chemscore.Hbond>
0.9955

> <Gold.Chemscore.Metal>
0.0000

> <Gold.Chemscore.Lipo>
87.6336

> <Gold.Chemscore.Internal_Hbond>
0.0000

> <Gold.Chemscore.DEClash>
0.0872

> <Gold.Chemscore.DEInternal>
1.1613

> <Gold.Chemscore.Rot>
1.6492

> <Gold.Chemscore.Internal.Correction>
   9.000000E+99

> <Gold.Chemscore.Hbonds>
donor molecule, donor type, donor heavy atom, donor atom, acceptor molecule, acceptor atom, score
      L1  H     3    46       P1 10747  0.99
      P1  H 10995 11001       L1    10  0.03

> <Gold.Chemscore.Hbond.Weighted>
-3.3249

> <Gold.Chemscore.Metal.Weighted>
-0.0000

> <Gold.Chemscore.Lipo.Weighted>
-10.2531

> <Gold.Chemscore.Internal_Hbond.Weighted>
0.0000

> <Gold.Chemscore.DEClash.Weighted>
0.0872

> <Gold.Chemscore.DEInternal.Weighted>
1.1613

> <Gold.Chemscore.Rot.Weighted>
4.2219

> <Gold.Chemscore.Internal.Correction.Weighted>
   9.000000E+99

> <Gold.Protein.RotatedTorsions>
[ 6907 6896 6895 6894 ] final -118.47 input  -60.11 | X-H torsion
[ 7974 7965 7964 7962 ] final  116.68 input  175.53 | X-H torsion
[ 8008 7997 7996 7995 ] final  -51.35 input   59.86 | X-H torsion
[ 10167 10162 10161 10158 ] final  148.22 input  -65.29 | X-H torsion
[ 10718 10713 10712 10709 ] final  140.88 input   66.30 | X-H torsion
[ 10763 10752 10751 10750 ] final    8.72 input  -60.55 | X-H torsion
[ 11005 11000 10999 10996 ] final  -33.81 input  -57.11 | X-H torsion

> <Gold.Protein.ActiveResidues>
 VAL166  LYS551  ARG553  GLY616  TRP617  ASP618  TYR619  PRO620  LYS621  CYS622 
 ASP623  PHE694  ASN695  SER759  ASP760  ASP761  ALA762  ILE779  LEU786  VAL792 
 PHE793  MET794  SER795  GLU796  ALA797  LYS798  CYS799  TRP800  GLU811  SER814 

> <Gold.Protein.RotatedAtoms>
  150.8222  133.8233  159.3133 H   0  0  0  0  0  0  0  0  0  0  0  0  # atno 6907 bound_to 6896
  151.5988  135.1047  160.0065 H   0  0  0  0  0  0  0  0  0  0  0  0  # atno 6908 bound_to 6896
  152.4310  133.7237  159.6604 H   0  0  0  0  0  0  0  0  0  0  0  0  # atno 6909 bound_to 6896
  145.1767  139.3072  143.4439 H   0  0  0  0  0  0  0  0  0  0  0  0  # atno 7974 bound_to 7965
  154.4081  140.1250  156.4815 H   0  0  0  0  0  0  0  0  0  0  0  0  # atno 8008 bound_to 7997
  155.7081  140.3494  155.4942 H   0  0  0  0  0  0  0  0  0  0  0  0  # atno 8009 bound_to 7997
  155.9325  140.1072  157.1111 H   0  0  0  0  0  0  0  0  0  0  0  0  # atno 8010 bound_to 7997
  139.4878  144.5696  151.7080 H   0  0  0  0  0  0  0  0  0  0  0  0  # atno 10167 bound_to 10162
  157.3983  131.1013  151.0577 H   0  0  0  0  0  0  0  0  0  0  0  0  # atno 10718 bound_to 10713
  153.2220  135.6882  153.7989 H   0  0  0  0  0  0  0  0  0  0  0  0  # atno 10763 bound_to 10752
  153.7185  135.3271  155.3262 H   0  0  0  0  0  0  0  0  0  0  0  0  # atno 10764 bound_to 10752
  154.8274  135.4607  154.1070 H   0  0  0  0  0  0  0  0  0  0  0  0  # atno 10765 bound_to 10752
  140.9665  133.7134  156.1454 H   0  0  0  0  0  0  0  0  0  0  0  0  # atno 11005 bound_to 11000
  146.3460  140.1931  142.8589 LP  0  0  0  0  0  0  0  0  0  0  0  0  # atno 17320 bound_to 7965
  145.0178  140.8768  143.5185 LP  0  0  0  0  0  0  0  0  0  0  0  0  # atno 17321 bound_to 7965
  140.5281  144.0774  150.6044 LP  0  0  0  0  0  0  0  0  0  0  0  0  # atno 17342 bound_to 10162
  140.3755  143.2831  152.0230 LP  0  0  0  0  0  0  0  0  0  0  0  0  # atno 17343 bound_to 10162
  157.1585  130.6215  149.5603 LP  0  0  0  0  0  0  0  0  0  0  0  0  # atno 17370 bound_to 10713
  155.9816  130.4825  150.6838 LP  0  0  0  0  0  0  0  0  0  0  0  0  # atno 17371 bound_to 10713
  140.7391  134.4170  157.5557 LP  0  0  0  0  0  0  0  0  0  0  0  0  # atno 17394 bound_to 11000
  139.8896  134.8825  156.2410 LP  0  0  0  0  0  0  0  0  0  0  0  0  # atno 17395 bound_to 11000

$$$$
