AV-unprocessed.smi:1985|AV-procd|sdf|8043|dock6
  -GOLD-   2272010243D 1   1.00000     0.00000
 Structure written by MMmdl.
 50 51  0  0  0  0  0  0  0  0  1 V2000
  147.9757  141.8022  153.4651 C   0  0  0  0  0  0  0  0  0  0  0  0
  149.1642  141.1185  154.1647 C   0  0  0  0  0  0  0  0  0  0  0  0
  148.8268  140.3724  155.4956 C   0  0  2  0  0  0  0  0  0  0  0  0
  147.6493  139.4123  155.1709 C   0  0  0  0  0  0  0  0  0  0  0  0
  148.3273  141.4276  156.5322 C   0  0  0  0  0  0  0  0  0  0  0  0
  149.4020  142.2958  156.9993 N   0  0  0  0  0  0  0  0  0  0  0  0
  150.3775  141.9622  157.8585 C   0  0  0  0  0  0  0  0  0  0  0  0
  150.4429  140.8607  158.4019 O   0  0  0  0  0  0  0  0  0  0  0  0
  151.4578  143.0168  158.1590 C   0  0  0  0  0  0  0  0  0  0  0  0
  151.8556  143.0979  159.5741 N   0  0  0  0  0  0  0  0  0  0  0  0
  151.6015  144.2551  160.2877 C   0  0  0  0  0  0  0  0  0  0  0  0
  151.9710  144.4335  161.5746 C   0  0  0  0  0  0  0  0  0  0  0  0
  152.6778  143.3858  162.3003 C   0  0  0  0  0  0  0  0  0  0  0  0
  153.0571  143.5075  163.4660 O   0  0  0  0  0  0  0  0  0  0  0  0
  152.9111  142.2073  161.5550 N   0  0  0  0  0  0  0  0  0  0  0  0
  153.6341  141.1463  162.2250 C   0  0  0  0  0  0  0  0  0  0  0  0
  152.5274  142.0276  160.2060 C   0  0  0  0  0  0  0  0  0  0  0  0
  152.7771  140.9948  159.5806 O   0  0  0  0  0  0  0  0  0  0  0  0
  150.0037  139.6070  155.9957 N   0  0  0  0  0  0  0  0  0  0  0  0
  150.8316  138.9837  154.9563 C   0  0  0  0  0  0  0  0  0  0  0  0
  152.1004  138.3387  155.5403 C   0  0  0  0  0  0  0  0  0  0  0  0
  151.7412  137.3845  156.5323 O   0  0  0  0  0  0  0  0  0  0  0  0
  150.9825  137.9596  157.5894 C   0  0  0  0  0  0  0  0  0  0  0  0
  149.7046  138.5995  157.0208 C   0  0  0  0  0  0  0  0  0  0  0  0
  148.3016  142.2768  152.5397 H   0  0  0  0  0  0  0  0  0  0  0  0
  147.5325  142.5789  154.0878 H   0  0  0  0  0  0  0  0  0  0  0  0
  147.1918  141.0906  153.2063 H   0  0  0  0  0  0  0  0  0  0  0  0
  149.6428  140.4380  153.4605 H   0  0  0  0  0  0  0  0  0  0  0  0
  149.9149  141.8884  154.3466 H   0  0  0  0  0  0  0  0  0  0  0  0
  146.8700  139.8992  154.5826 H   0  0  0  0  0  0  0  0  0  0  0  0
  147.1651  139.0409  156.0742 H   0  0  0  0  0  0  0  0  0  0  0  0
  147.9833  138.5450  154.6008 H   0  0  0  0  0  0  0  0  0  0  0  0
  147.5609  142.0718  156.1019 H   0  0  0  0  0  0  0  0  0  0  0  0
  147.8729  140.9310  157.3899 H   0  0  0  0  0  0  0  0  0  0  0  0
  149.4289  143.2248  156.6049 H   0  0  0  0  0  0  0  0  0  0  0  0
  152.3304  142.7909  157.5445 H   0  0  0  0  0  0  0  0  0  0  0  0
  151.1039  143.9893  157.8130 H   0  0  0  0  0  0  0  0  0  0  0  0
  151.0878  145.0646  159.7895 H   0  0  0  0  0  0  0  0  0  0  0  0
  151.7466  145.3661  162.0713 H   0  0  0  0  0  0  0  0  0  0  0  0
  153.5538  140.2098  161.6737 H   0  0  0  0  0  0  0  0  0  0  0  0
  153.1904  141.0060  163.2124 H   0  0  0  0  0  0  0  0  0  0  0  0
  154.6744  141.4673  162.2959 H   0  0  0  0  0  0  0  0  0  0  0  0
  150.2633  138.2190  154.4271 H   0  0  0  0  0  0  0  0  0  0  0  0
  151.1441  139.7169  154.2148 H   0  0  0  0  0  0  0  0  0  0  0  0
  152.6673  137.8392  154.7547 H   0  0  0  0  0  0  0  0  0  0  0  0
  152.7541  139.0972  155.9739 H   0  0  0  0  0  0  0  0  0  0  0  0
  150.7291  137.1815  158.3096 H   0  0  0  0  0  0  0  0  0  0  0  0
  151.5836  138.7015  158.1172 H   0  0  0  0  0  0  0  0  0  0  0  0
  149.1541  139.0372  157.8514 H   0  0  0  0  0  0  0  0  0  0  0  0
  149.0766  137.8118  156.6049 H   0  0  0  0  0  0  0  0  0  0  0  0
  1  2  1  0  0  0  0
  1 25  1  0  0  0  0
  1 26  1  0  0  0  0
  1 27  1  0  0  0  0
  2  3  1  0  0  0  0
  2 28  1  0  0  0  0
  2 29  1  0  0  0  0
  3  4  1  0  0  0  0
  3  5  1  0  0  0  0
  3 19  1  0  0  0  0
  4 30  1  0  0  0  0
  4 31  1  0  0  0  0
  4 32  1  0  0  0  0
  5  6  1  0  0  0  0
  5 33  1  0  0  0  0
  5 34  1  0  0  0  0
  6  7  1  0  0  0  0
  6 35  1  0  0  0  0
  7  8  2  0  0  0  0
  7  9  1  0  0  0  0
  9 10  1  0  0  0  0
  9 36  1  0  0  0  0
  9 37  1  0  0  0  0
 10 17  1  0  0  0  0
 10 11  1  0  0  0  0
 11 12  2  0  0  0  0
 11 38  1  0  0  0  0
 12 13  1  0  0  0  0
 12 39  1  0  0  0  0
 13 14  2  0  0  0  0
 13 15  1  0  0  0  0
 15 16  1  0  0  0  0
 15 17  1  0  0  0  0
 16 40  1  0  0  0  0
 16 41  1  0  0  0  0
 16 42  1  0  0  0  0
 17 18  2  0  0  0  0
 19 24  1  0  0  0  0
 19 20  1  0  0  0  0
 20 21  1  0  0  0  0
 20 43  1  0  0  0  0
 20 44  1  0  0  0  0
 21 22  1  0  0  0  0
 21 45  1  0  0  0  0
 21 46  1  0  0  0  0
 22 23  1  0  0  0  0
 23 24  1  0  0  0  0
 23 47  1  0  0  0  0
 23 48  1  0  0  0  0
 24 49  1  0  0  0  0
 24 50  1  0  0  0  0
M  END
> <s_m_source_file>
AV-unprocessed.smi

> <i_m_source_file_index>
1985

> <i_lp_mmshare_version>
43012

> <i_f3d_flags>
0

> <s_epik_input>
W0NIMl0xW0NIMl1PW0NIMl1bQ0gyXU4xW0NAQF0oW0NIM10pKFtDSDJdW0NIM10pW0NIMl1bTkhdQyg9TylbQ0gyXW4yW2NIXVtjSF1jKD1PKW4oW0NIM10pYzI9Tw==

> <s_epik_cmdline>
J2VwaWtfcHl0aG9uJywgJy1waCcsICc3LjAnLCAnLXRuJywgJzgnLCAnLW1hJywgJzIwMCcsICctbWV0YWxfYmluZGluZycsICctaW1hZScsICc8aW5maWxlLm1hZT4nLCAnLW9tYWUnLCAnPG91dGZpbGUubWFlPic=

> <r_lp_tautomer_probability>
1

> <r_epik_Ionization_Penalty>
0.318667

> <r_epik_Ionization_Penalty_Charging>
1.17294e-08

> <r_epik_Ionization_Penalty_Neutral>
0.318667

> <r_epik_State_Penalty>
0.313095

> <r_epik_Charging_Adjusted_Penalty>
0.313095

> <i_epik_Tot_Q>
0

> <i_epik_Tot_abs_Q>
0

> <r_epik_Metal_State_Penalty>
0.313065

> <b_epik_Metal_Only>
0

> <s_lp_Force_Field>
OPLS_2005

> <r_lp_Energy>
50.9959

> <b_lp_Chiralities_Consistent>
1

> <s_lp_Variant>
AV-unprocessed.smi:1985-2

> <Gold.Version>
5.8.1

> <Gold.Id.Protein>
6NUR|6NUR_protein|mol2

> <Gold.PLP.Fitness>
47.1387

> <Gold.PLP.PLP>
-45.8661

> <Gold.PLP.part.hbond>
-1.0000

> <Gold.PLP.part.metal>
0.0000

> <Gold.PLP.part.buried>
-3.6702

> <Gold.PLP.part.nonpolar>
-39.4339

> <Gold.PLP.part.repulsive>
0.1431

> <Gold.PLP.ligand.clash>
0.0000

> <Gold.PLP.ligand.torsion>
0.9440

> <Gold.PLP.Chemscore.Hbond>
1.0000

> <Gold.PLP.Chemscore.CHOScore>
0.0000

> <Gold.PLP.Chemscore.Metal>
0.0000

> <Gold.Chemscore.Hbonds>
donor molecule, donor type, donor heavy atom, donor atom, acceptor molecule, acceptor atom, score
      L1  H     6    35       P1  8028  1.00

> <Gold.PLP.Chemscore.Internal.Correction>
0.1606

> <Gold.Rescore>
     Score         DG    S(hbond)    S(metal)    S(lipo)     H(rot)  DE(clash)    DE(int)     intcor
      6.72     -13.70       0.96        0.00      90.97       2.20       0.87       6.11       ----

> <Gold.Chemscore.Fitness>
6.7154

> <Gold.Chemscore.DG>
-13.6968

> <Gold.Chemscore.ZeroCoef>
-5.4800

> <Gold.Chemscore.Hbond>
0.9558

> <Gold.Chemscore.Metal>
0.0000

> <Gold.Chemscore.Lipo>
90.9750

> <Gold.Chemscore.Internal_Hbond>
0.0000

> <Gold.Chemscore.DEClash>
0.8719

> <Gold.Chemscore.DEInternal>
6.1096

> <Gold.Chemscore.Rot>
2.1952

> <Gold.Chemscore.Internal.Correction>
   9.000000E+99

> <Gold.Chemscore.Hbonds>
donor molecule, donor type, donor heavy atom, donor atom, acceptor molecule, acceptor atom, score
      L1  H     6    35       P1  8028  0.99

> <Gold.Chemscore.Hbond.Weighted>
-3.1924

> <Gold.Chemscore.Metal.Weighted>
-0.0000

> <Gold.Chemscore.Lipo.Weighted>
-10.6441

> <Gold.Chemscore.Internal_Hbond.Weighted>
0.0000

> <Gold.Chemscore.DEClash.Weighted>
0.8719

> <Gold.Chemscore.DEInternal.Weighted>
6.1096

> <Gold.Chemscore.Rot.Weighted>
5.6197

> <Gold.Chemscore.Internal.Correction.Weighted>
   9.000000E+99

> <Gold.Protein.RotatedTorsions>
[ 6907 6896 6895 6894 ] final -157.31 input  -60.11 | X-H torsion
[ 7974 7965 7964 7962 ] final  158.46 input  175.53 | X-H torsion
[ 8008 7997 7996 7995 ] final  148.60 input   59.86 | X-H torsion
[ 10167 10162 10161 10158 ] final  169.78 input  -65.29 | X-H torsion
[ 10718 10713 10712 10709 ] final   75.62 input   66.30 | X-H torsion
[ 10763 10752 10751 10750 ] final -145.33 input  -60.55 | X-H torsion
[ 11005 11000 10999 10996 ] final  148.66 input  -57.11 | X-H torsion

> <Gold.Protein.ActiveResidues>
 VAL166  LYS551  ARG553  GLY616  TRP617  ASP618  TYR619  PRO620  LYS621  CYS622 
 ASP623  PHE694  ASN695  SER759  ASP760  ASP761  ALA762  ILE779  LEU786  VAL792 
 PHE793  MET794  SER795  GLU796  ALA797  LYS798  CYS799  TRP800  GLU811  SER814 

> <Gold.Protein.RotatedAtoms>
  151.3009  133.4122  159.2639 H   0  0  0  0  0  0  0  0  0  0  0  0  # atno 6907 bound_to 6896
  151.0196  134.9459  159.8062 H   0  0  0  0  0  0  0  0  0  0  0  0  # atno 6908 bound_to 6896
  152.5321  134.2973  159.9118 H   0  0  0  0  0  0  0  0  0  0  0  0  # atno 6909 bound_to 6896
  144.7845  139.7481  143.6246 H   0  0  0  0  0  0  0  0  0  0  0  0  # atno 7974 bound_to 7965
  156.2785  140.2124  156.5725 H   0  0  0  0  0  0  0  0  0  0  0  0  # atno 8008 bound_to 7997
  154.7124  140.0511  157.0586 H   0  0  0  0  0  0  0  0  0  0  0  0  # atno 8009 bound_to 7997
  155.0587  140.3164  155.4671 H   0  0  0  0  0  0  0  0  0  0  0  0  # atno 8010 bound_to 7997
  139.5001  144.3669  151.9766 H   0  0  0  0  0  0  0  0  0  0  0  0  # atno 10167 bound_to 10162
  157.6641  130.9735  150.1380 H   0  0  0  0  0  0  0  0  0  0  0  0  # atno 10718 bound_to 10713
  154.8388  135.3416  154.6487 H   0  0  0  0  0  0  0  0  0  0  0  0  # atno 10763 bound_to 10752
  153.7099  135.6964  153.5045 H   0  0  0  0  0  0  0  0  0  0  0  0  # atno 10764 bound_to 10752
  153.2459  135.4369  155.0701 H   0  0  0  0  0  0  0  0  0  0  0  0  # atno 10765 bound_to 10752
  140.0978  134.9001  157.1750 H   0  0  0  0  0  0  0  0  0  0  0  0  # atno 11005 bound_to 11000
  146.2069  139.5400  142.9706 LP  0  0  0  0  0  0  0  0  0  0  0  0  # atno 17320 bound_to 7965
  145.5960  141.0362  143.2044 LP  0  0  0  0  0  0  0  0  0  0  0  0  # atno 17321 bound_to 7965
  140.3105  144.3543  150.6035 LP  0  0  0  0  0  0  0  0  0  0  0  0  # atno 17342 bound_to 10162
  140.5802  143.2173  151.7441 LP  0  0  0  0  0  0  0  0  0  0  0  0  # atno 17343 bound_to 10162
  156.2210  130.3674  149.8556 LP  0  0  0  0  0  0  0  0  0  0  0  0  # atno 17370 bound_to 10713
  156.6409  130.8704  151.3514 LP  0  0  0  0  0  0  0  0  0  0  0  0  # atno 17371 bound_to 10713
  140.3261  134.2862  155.7236 LP  0  0  0  0  0  0  0  0  0  0  0  0  # atno 17394 bound_to 11000
  141.2097  133.7741  156.9979 LP  0  0  0  0  0  0  0  0  0  0  0  0  # atno 17395 bound_to 11000

$$$$
