AV-unprocessed.smi:625|AV-procd|sdf|3104|dock8
  -GOLD-   22720 0 23D 1   1.00000     0.00000
 Structure written by MMmdl.
 49 51  0  0  0  0  0  0  0  0  1 V2000
  145.3702  135.9305  160.6456 C   0  0  0  0  0  0  0  0  0  0  0  0
  146.5363  135.9153  159.7754 N   0  0  0  0  0  0  0  0  0  0  0  0
  147.7092  136.5063  160.0625 C   0  0  0  0  0  0  0  0  0  0  0  0
  147.8819  137.1169  161.1183 O   0  0  0  0  0  0  0  0  0  0  0  0
  148.7308  136.3576  159.0218 C   0  0  0  0  0  0  0  0  0  0  0  0
  148.5671  135.3290  158.0125 C   0  0  0  0  0  0  0  0  0  0  0  0
  149.4962  135.1487  157.0535 C   0  0  0  0  0  0  0  0  0  0  0  0
  150.7029  135.9769  156.9854 C   0  0  0  0  0  0  0  0  0  0  0  0
  151.5669  135.8032  156.1261 O   0  0  0  0  0  0  0  0  0  0  0  0
  150.8120  136.9476  157.9434 N   0  0  0  0  0  0  0  0  0  0  0  0
  151.9876  137.8374  157.9862 C   0  0  0  0  0  0  0  0  0  0  0  0
  151.7838  139.2041  157.3095 C   0  0  0  0  0  0  0  0  0  0  0  0
  152.5520  139.5492  156.4128 O   0  0  0  0  0  0  0  0  0  0  0  0
  150.7672  139.9727  157.7358 N   0  0  0  0  0  0  0  0  0  0  0  0
  150.4444  141.3163  157.2645 C   0  0  1  0  0  0  0  0  0  0  0  0
  149.0262  141.6858  157.7357 C   0  0  0  0  0  0  0  0  0  0  0  0
  151.5251  142.3011  157.7754 C   0  0  1  0  0  0  0  0  0  0  0  0
  151.4061  143.7245  157.1721 C   0  0  0  0  0  0  0  0  0  0  0  0
  151.3740  144.6344  158.4121 C   0  0  2  0  0  0  0  0  0  0  0  0
  152.7540  144.6285  159.0940 C   0  0  0  0  0  0  0  0  0  0  0  0
  152.8101  143.2270  159.7295 C   0  0  0  0  0  0  0  0  0  0  0  0
  151.4704  142.6017  159.2949 C   0  0  1  0  0  0  0  0  0  0  0  0
  150.5366  143.8053  159.3759 C   0  0  0  0  0  0  0  0  0  0  0  0
  149.8397  137.1262  158.9477 C   0  0  0  0  0  0  0  0  0  0  0  0
  144.5584  135.3642  160.1892 H   0  0  0  0  0  0  0  0  0  0  0  0
  145.0233  136.9510  160.8107 H   0  0  0  0  0  0  0  0  0  0  0  0
  145.5994  135.4793  161.6116 H   0  0  0  0  0  0  0  0  0  0  0  0
  146.4490  135.4268  158.8961 H   0  0  0  0  0  0  0  0  0  0  0  0
  147.6941  134.6922  158.0174 H   0  0  0  0  0  0  0  0  0  0  0  0
  149.3491  134.3744  156.3150 H   0  0  0  0  0  0  0  0  0  0  0  0
  152.2985  138.0054  159.0189 H   0  0  0  0  0  0  0  0  0  0  0  0
  152.8432  137.3525  157.5142 H   0  0  0  0  0  0  0  0  0  0  0  0
  150.1853  139.6068  158.4754 H   0  0  0  0  0  0  0  0  0  0  0  0
  150.4591  141.3203  156.1733 H   0  0  0  0  0  0  0  0  0  0  0  0
  148.7090  142.6527  157.3478 H   0  0  0  0  0  0  0  0  0  0  0  0
  148.9677  141.7274  158.8238 H   0  0  0  0  0  0  0  0  0  0  0  0
  148.2951  140.9526  157.3932 H   0  0  0  0  0  0  0  0  0  0  0  0
  152.5019  141.8842  157.5235 H   0  0  0  0  0  0  0  0  0  0  0  0
  152.2333  143.9621  156.5022 H   0  0  0  0  0  0  0  0  0  0  0  0
  150.4815  143.8465  156.6059 H   0  0  0  0  0  0  0  0  0  0  0  0
  150.9895  145.6346  158.2099 H   0  0  0  0  0  0  0  0  0  0  0  0
  153.5651  144.7984  158.3848 H   0  0  0  0  0  0  0  0  0  0  0  0
  152.8125  145.4001  159.8627 H   0  0  0  0  0  0  0  0  0  0  0  0
  153.6719  142.6494  159.3931 H   0  0  0  0  0  0  0  0  0  0  0  0
  152.8658  143.3028  160.8164 H   0  0  0  0  0  0  0  0  0  0  0  0
  151.1792  141.7575  159.9187 H   0  0  0  0  0  0  0  0  0  0  0  0
  150.4732  144.2381  160.3759 H   0  0  0  0  0  0  0  0  0  0  0  0
  149.5286  143.6027  159.0110 H   0  0  0  0  0  0  0  0  0  0  0  0
  150.0772  137.9169  159.6451 H   0  0  0  0  0  0  0  0  0  0  0  0
  1  2  1  0  0  0  0
  1 25  1  0  0  0  0
  1 26  1  0  0  0  0
  1 27  1  0  0  0  0
  2  3  1  0  0  0  0
  2 28  1  0  0  0  0
  3  4  2  0  0  0  0
  3  5  1  0  0  0  0
  5 24  2  0  0  0  0
  5  6  1  0  0  0  0
  6  7  2  0  0  0  0
  6 29  1  0  0  0  0
  7  8  1  0  0  0  0
  7 30  1  0  0  0  0
  8  9  2  0  0  0  0
  8 10  1  0  0  0  0
 10 11  1  0  0  0  0
 10 24  1  0  0  0  0
 11 12  1  0  0  0  0
 11 31  1  0  0  0  0
 11 32  1  0  0  0  0
 12 13  2  0  0  0  0
 12 14  1  0  0  0  0
 14 15  1  0  0  0  0
 14 33  1  0  0  0  0
 15 16  1  0  0  0  0
 15 17  1  0  0  0  0
 15 34  1  0  0  0  0
 16 35  1  0  0  0  0
 16 36  1  0  0  0  0
 16 37  1  0  0  0  0
 17 22  1  0  0  0  0
 17 18  1  0  0  0  0
 17 38  1  0  0  0  0
 18 19  1  0  0  0  0
 18 39  1  0  0  0  0
 18 40  1  0  0  0  0
 19 23  1  0  0  0  0
 19 20  1  0  0  0  0
 19 41  1  0  0  0  0
 20 21  1  0  0  0  0
 20 42  1  0  0  0  0
 20 43  1  0  0  0  0
 21 22  1  0  0  0  0
 21 44  1  0  0  0  0
 21 45  1  0  0  0  0
 22 23  1  0  0  0  0
 22 46  1  0  0  0  0
 23 47  1  0  0  0  0
 23 48  1  0  0  0  0
 24 49  1  0  0  0  0
M  END
> <s_m_source_file>
AV-unprocessed.smi

> <i_m_source_file_index>
625

> <i_lp_mmshare_version>
43012

> <i_f3d_flags>
0

> <s_epik_input>
W0NIM11bTkhdQyg9TyljMVtjSF1bY0hdYyg9TyluKFtjSF0xKVtDSDJdQyg9TylbTkhdW0NASF0oW0NIM10pW0NASF0oW0NIMl1bQ0BIXTIzKVtDQEhdKFtDSDJdMylbQ0gyXVtDSDJdMg==

> <s_epik_cmdline>
J2VwaWtfcHl0aG9uJywgJy1waCcsICc3LjAnLCAnLXRuJywgJzgnLCAnLW1hJywgJzIwMCcsICctbWV0YWxfYmluZGluZycsICctaW1hZScsICc8aW5maWxlLm1hZT4nLCAnLW9tYWUnLCAnPG91dGZpbGUubWFlPic=

> <r_lp_tautomer_probability>
1

> <r_epik_Ionization_Penalty>
3.7129e-07

> <r_epik_Ionization_Penalty_Charging>
5.04114e-08

> <r_epik_Ionization_Penalty_Neutral>
3.20879e-07

> <r_epik_State_Penalty>
-0

> <r_epik_Charging_Adjusted_Penalty>
5.04114e-08

> <i_epik_Tot_Q>
0

> <i_epik_Tot_abs_Q>
0

> <r_epik_Metal_State_Penalty>
-0

> <b_epik_Metal_Only>
0

> <s_lp_Force_Field>
OPLS_2005

> <r_lp_Energy>
63.0032

> <b_lp_Chiralities_Consistent>
1

> <s_lp_Variant>
AV-unprocessed.smi:625-4

> <Gold.Version>
5.8.1

> <Gold.Id.Protein>
6NUR|6NUR_protein|mol2

> <Gold.PLP.Fitness>
46.7294

> <Gold.PLP.PLP>
-36.7663

> <Gold.PLP.part.hbond>
-4.0000

> <Gold.PLP.part.metal>
0.0000

> <Gold.PLP.part.buried>
-3.7042

> <Gold.PLP.part.nonpolar>
-29.1570

> <Gold.PLP.part.repulsive>
0.1147

> <Gold.PLP.ligand.clash>
0.0000

> <Gold.PLP.ligand.torsion>
0.7107

> <Gold.PLP.Chemscore.Hbond>
3.7760

> <Gold.PLP.Chemscore.CHOScore>
0.0000

> <Gold.PLP.Chemscore.Metal>
0.0000

> <Gold.Chemscore.Hbonds>
donor molecule, donor type, donor heavy atom, donor atom, acceptor molecule, acceptor atom, score
      P1  H  6931  6943       L1     4  1.00
      P1  H  6934  6947       L1     4  0.78
      P1  H  7997  8009       L1    13  1.00
      P1  H 10752 10763       L1     9  1.00

> <Gold.PLP.Chemscore.Internal.Correction>
0.0565

> <Gold.Rescore>
     Score         DG    S(hbond)    S(metal)    S(lipo)     H(rot)  DE(clash)    DE(int)     intcor
     25.29     -25.86       3.70        0.00     105.07       1.67       0.07       0.50       ----

> <Gold.Chemscore.Fitness>
25.2897

> <Gold.Chemscore.DG>
-25.8636

> <Gold.Chemscore.ZeroCoef>
-5.4800

> <Gold.Chemscore.Hbond>
3.7029

> <Gold.Chemscore.Metal>
0.0000

> <Gold.Chemscore.Lipo>
105.0710

> <Gold.Chemscore.Internal_Hbond>
0.0000

> <Gold.Chemscore.DEClash>
0.0732

> <Gold.Chemscore.DEInternal>
0.5007

> <Gold.Chemscore.Rot>
1.6709

> <Gold.Chemscore.Internal.Correction>
   9.000000E+99

> <Gold.Chemscore.Hbonds>
donor molecule, donor type, donor heavy atom, donor atom, acceptor molecule, acceptor atom, score
      P1  H  6931  6943       L1     4  0.94
      P1  H  6934  6947       L1     4  0.53
      P1  H  7997  8009       L1    13  1.00
      P1  H 10752 10763       L1     9  1.00

> <Gold.Chemscore.Hbond.Weighted>
-12.3677

> <Gold.Chemscore.Metal.Weighted>
-0.0000

> <Gold.Chemscore.Lipo.Weighted>
-12.2933

> <Gold.Chemscore.Internal_Hbond.Weighted>
0.0000

> <Gold.Chemscore.DEClash.Weighted>
0.0732

> <Gold.Chemscore.DEInternal.Weighted>
0.5007

> <Gold.Chemscore.Rot.Weighted>
4.2774

> <Gold.Chemscore.Internal.Correction.Weighted>
   9.000000E+99

> <Gold.Protein.RotatedTorsions>
[ 6907 6896 6895 6894 ] final   51.88 input  -60.11 | X-H torsion
[ 7974 7965 7964 7962 ] final   20.49 input  175.53 | X-H torsion
[ 8008 7997 7996 7995 ] final -171.07 input   59.86 | X-H torsion
[ 10167 10162 10161 10158 ] final -119.78 input  -65.29 | X-H torsion
[ 10718 10713 10712 10709 ] final   16.14 input   66.30 | X-H torsion
[ 10763 10752 10751 10750 ] final   86.50 input  -60.55 | X-H torsion
[ 11005 11000 10999 10996 ] final  -80.20 input  -57.11 | X-H torsion

> <Gold.Protein.ActiveResidues>
 VAL166  LYS551  ARG553  GLY616  TRP617  ASP618  TYR619  PRO620  LYS621  CYS622 
 ASP623  PHE694  ASN695  SER759  ASP760  ASP761  ALA762  ILE779  LEU786  VAL792 
 PHE793  MET794  SER795  GLU796  ALA797  LYS798  CYS799  TRP800  GLU811  SER814 

> <Gold.Protein.RotatedAtoms>
  152.3174  134.7423  160.0321 H   0  0  0  0  0  0  0  0  0  0  0  0  # atno 6907 bound_to 6896
  151.7883  133.3351  159.3499 H   0  0  0  0  0  0  0  0  0  0  0  0  # atno 6908 bound_to 6896
  150.7351  134.5797  159.5977 H   0  0  0  0  0  0  0  0  0  0  0  0  # atno 6909 bound_to 6896
  146.2109  139.8161  142.8689 H   0  0  0  0  0  0  0  0  0  0  0  0  # atno 7974 bound_to 7965
  155.9266  140.1084  157.1165 H   0  0  0  0  0  0  0  0  0  0  0  0  # atno 8008 bound_to 7997
  154.4063  140.1245  156.4814 H   0  0  0  0  0  0  0  0  0  0  0  0  # atno 8009 bound_to 7997
  155.7131  140.3470  155.4985 H   0  0  0  0  0  0  0  0  0  0  0  0  # atno 8010 bound_to 7997
  140.0429  143.5135  152.2121 H   0  0  0  0  0  0  0  0  0  0  0  0  # atno 10167 bound_to 10162
  157.0636  130.6319  149.5791 H   0  0  0  0  0  0  0  0  0  0  0  0  # atno 10718 bound_to 10713
  153.1577  135.4578  154.9727 H   0  0  0  0  0  0  0  0  0  0  0  0  # atno 10763 bound_to 10752
  154.7874  135.3208  154.7858 H   0  0  0  0  0  0  0  0  0  0  0  0  # atno 10764 bound_to 10752
  153.8353  135.6935  153.4864 H   0  0  0  0  0  0  0  0  0  0  0  0  # atno 10765 bound_to 10752
  141.1668  133.7140  156.8238 H   0  0  0  0  0  0  0  0  0  0  0  0  # atno 11005 bound_to 11000
  145.3144  141.0228  143.3536 LP  0  0  0  0  0  0  0  0  0  0  0  0  # atno 17320 bound_to 7965
  144.8912  139.4772  143.6677 LP  0  0  0  0  0  0  0  0  0  0  0  0  # atno 17321 bound_to 7965
  139.6002  144.7580  151.3190 LP  0  0  0  0  0  0  0  0  0  0  0  0  # atno 17342 bound_to 10162
  140.7252  143.7025  150.7834 LP  0  0  0  0  0  0  0  0  0  0  0  0  # atno 17343 bound_to 10162
  155.9971  130.5042  150.7521 LP  0  0  0  0  0  0  0  0  0  0  0  0  # atno 17370 bound_to 10713
  157.4934  131.0913  151.0399 LP  0  0  0  0  0  0  0  0  0  0  0  0  # atno 17371 bound_to 10713
  140.2100  134.8834  157.3264 LP  0  0  0  0  0  0  0  0  0  0  0  0  # atno 17394 bound_to 11000
  140.2097  134.4154  155.7619 LP  0  0  0  0  0  0  0  0  0  0  0  0  # atno 17395 bound_to 11000

$$$$
