AV-unprocessed.smi:1490|AV-procd|sdf|6029|dock4
  -GOLD-   22720 6133D 1   1.00000     0.00000
 Structure written by MMmdl.
 37 38  0  0  0  0  0  0  0  0  1 V2000
  148.2159  141.3649  153.7944 C   0  0  0  0  0  0  0  0  0  0  0  0
  148.0368  141.8235  155.1224 O   0  0  0  0  0  0  0  0  0  0  0  0
  148.9143  141.1930  156.0411 C   0  0  0  0  0  0  0  0  0  0  0  0
  150.3676  141.3676  155.5782 C   0  0  0  0  0  0  0  0  0  0  0  0
  151.3173  140.9324  156.5922 N   0  0  0  0  0  0  0  0  0  0  0  0
  152.1513  139.8627  156.5595 C   0  0  0  0  0  0  0  0  0  0  0  0
  152.1879  138.7568  155.1804 S   0  0  0  0  0  0  0  0  0  0  0  0
  150.6518  137.8360  155.4868 C   0  0  0  0  0  0  0  0  0  0  0  0
  150.8766  136.3269  155.5050 C   0  0  0  0  0  0  0  0  0  0  0  0
  151.8696  135.8560  156.0580 O   0  0  0  0  0  0  0  0  0  0  0  0
  149.9462  135.5744  154.9006 N   0  0  0  0  0  0  0  0  0  0  0  0
  149.9892  134.1213  154.8217 C   0  0  0  0  0  0  0  0  0  0  0  0
  150.2059  133.4892  156.1330 C   0  0  0  0  0  0  0  0  0  0  0  0
  150.3755  132.9925  157.1640 N   0  0  0  0  0  0  0  0  0  0  0  0
  152.9237  139.7065  157.6366 N   0  0  0  0  0  0  0  0  0  0  0  0
  152.5649  140.7758  158.4330 C   0  0  0  0  0  0  0  0  0  0  0  0
  153.0318  141.1701  159.7072 C   0  0  0  0  0  0  0  0  0  0  0  0
  152.5092  142.3204  160.3342 C   0  0  0  0  0  0  0  0  0  0  0  0
  153.0903  142.7885  161.8896 Cl  0  0  0  0  0  0  0  0  0  0  0  0
  151.5145  143.0904  159.6962 C   0  0  0  0  0  0  0  0  0  0  0  0
  151.0355  142.7141  158.4268 C   0  0  0  0  0  0  0  0  0  0  0  0
  151.5605  141.5645  157.8068 C   0  0  0  0  0  0  0  0  0  0  0  0
  147.5229  141.8836  153.1321 H   0  0  0  0  0  0  0  0  0  0  0  0
  148.0187  140.2949  153.7171 H   0  0  0  0  0  0  0  0  0  0  0  0
  149.2295  141.5611  153.4425 H   0  0  0  0  0  0  0  0  0  0  0  0
  148.7870  141.6269  157.0343 H   0  0  0  0  0  0  0  0  0  0  0  0
  148.6759  140.1311  156.1164 H   0  0  0  0  0  0  0  0  0  0  0  0
  150.5404  140.7878  154.6711 H   0  0  0  0  0  0  0  0  0  0  0  0
  150.5623  142.4066  155.3136 H   0  0  0  0  0  0  0  0  0  0  0  0
  150.2338  138.1487  156.4448 H   0  0  0  0  0  0  0  0  0  0  0  0
  149.9178  138.0798  154.7178 H   0  0  0  0  0  0  0  0  0  0  0  0
  149.1600  136.0380  154.4690 H   0  0  0  0  0  0  0  0  0  0  0  0
  149.0420  133.7577  154.4237 H   0  0  0  0  0  0  0  0  0  0  0  0
  150.7762  133.7946  154.1403 H   0  0  0  0  0  0  0  0  0  0  0  0
  153.7938  140.5862  160.2018 H   0  0  0  0  0  0  0  0  0  0  0  0
  151.1187  143.9707  160.1812 H   0  0  0  0  0  0  0  0  0  0  0  0
  150.2748  143.3023  157.9355 H   0  0  0  0  0  0  0  0  0  0  0  0
  1  2  1  0  0  0  0
  1 23  1  0  0  0  0
  1 24  1  0  0  0  0
  1 25  1  0  0  0  0
  2  3  1  0  0  0  0
  3  4  1  0  0  0  0
  3 26  1  0  0  0  0
  3 27  1  0  0  0  0
  4  5  1  0  0  0  0
  4 28  1  0  0  0  0
  4 29  1  0  0  0  0
  5 22  1  0  0  0  0
  5  6  1  0  0  0  0
  6  7  1  0  0  0  0
  6 15  2  0  0  0  0
  7  8  1  0  0  0  0
  8  9  1  0  0  0  0
  8 30  1  0  0  0  0
  8 31  1  0  0  0  0
  9 10  2  0  0  0  0
  9 11  1  0  0  0  0
 11 12  1  0  0  0  0
 11 32  1  0  0  0  0
 12 13  1  0  0  0  0
 12 33  1  0  0  0  0
 12 34  1  0  0  0  0
 13 14  3  0  0  0  0
 15 16  1  0  0  0  0
 16 22  2  0  0  0  0
 16 17  1  0  0  0  0
 17 18  2  0  0  0  0
 17 35  1  0  0  0  0
 18 19  1  0  0  0  0
 18 20  1  0  0  0  0
 20 21  2  0  0  0  0
 20 36  1  0  0  0  0
 21 22  1  0  0  0  0
 21 37  1  0  0  0  0
M  END
> <s_m_source_file>
AV-unprocessed.smi

> <i_m_source_file_index>
1490

> <i_lp_mmshare_version>
43012

> <i_f3d_flags>
0

> <s_epik_input>
W2NIXTFjKENsKVtjSF1bY0hdYyhjMTIpbihbQ0gyXVtDSDJdT1tDSDNdKWMobjIpU1tDSDJdQyg9TylbTkhdW0NIMl1DI04=

> <s_epik_cmdline>
J2VwaWtfcHl0aG9uJywgJy1waCcsICc3LjAnLCAnLXRuJywgJzgnLCAnLW1hJywgJzIwMCcsICctbWV0YWxfYmluZGluZycsICctaW1hZScsICc8aW5maWxlLm1hZT4nLCAnLW9tYWUnLCAnPG91dGZpbGUubWFlPic=

> <r_epik_Ionization_Penalty>
0.00952472

> <r_epik_Ionization_Penalty_Charging>
0

> <r_epik_Ionization_Penalty_Neutral>
0.00952472

> <r_epik_State_Penalty>
0.0072333

> <r_epik_Charging_Adjusted_Penalty>
0.0072333

> <i_epik_Tot_Q>
0

> <i_epik_Tot_abs_Q>
0

> <r_epik_Metal_State_Penalty>
0.00711889

> <b_epik_Metal_Only>
0

> <s_lp_Force_Field>
OPLS_2005

> <r_lp_Energy>
2.86895

> <b_lp_Chiralities_Consistent>
1

> <s_lp_Variant>
AV-unprocessed.smi:1490-1

> <Gold.Version>
5.8.1

> <Gold.Id.Protein>
6NUR|6NUR_protein|mol2

> <Gold.PLP.Fitness>
49.5324

> <Gold.PLP.PLP>
-42.3345

> <Gold.PLP.part.hbond>
-3.0000

> <Gold.PLP.part.metal>
0.0000

> <Gold.PLP.part.buried>
-3.9606

> <Gold.PLP.part.nonpolar>
-33.5852

> <Gold.PLP.part.repulsive>
0.2002

> <Gold.PLP.ligand.clash>
0.0000

> <Gold.PLP.ligand.torsion>
0.9670

> <Gold.PLP.Chemscore.Hbond>
3.0000

> <Gold.PLP.Chemscore.CHOScore>
0.0000

> <Gold.PLP.Chemscore.Metal>
0.0000

> <Gold.Chemscore.Hbonds>
donor molecule, donor type, donor heavy atom, donor atom, acceptor molecule, acceptor atom, score
      P1  H  6896  6909       L1    14  0.54
      P1  H  7997  8009       L1    15  0.98
      P1  H 10752 10763       L1    10  1.00

> <Gold.PLP.Chemscore.Internal.Correction>
0.1319

> <Gold.Rescore>
     Score         DG    S(hbond)    S(metal)    S(lipo)     H(rot)  DE(clash)    DE(int)     intcor
     16.15     -18.10       2.37        0.00     100.48       2.76       0.05       1.90       ----

> <Gold.Chemscore.Fitness>
16.1454

> <Gold.Chemscore.DG>
-18.0957

> <Gold.Chemscore.ZeroCoef>
-5.4800

> <Gold.Chemscore.Hbond>
2.3711

> <Gold.Chemscore.Metal>
0.0000

> <Gold.Chemscore.Lipo>
100.4780

> <Gold.Chemscore.Internal_Hbond>
0.0000

> <Gold.Chemscore.DEClash>
0.0469

> <Gold.Chemscore.DEInternal>
1.9034

> <Gold.Chemscore.Rot>
2.7577

> <Gold.Chemscore.Internal.Correction>
   9.000000E+99

> <Gold.Chemscore.Hbonds>
donor molecule, donor type, donor heavy atom, donor atom, acceptor molecule, acceptor atom, score
      P1  H  6896  6909       L1    14  0.53
      P1  H  7997  8009       L1    15  0.28
      P1  H 10752 10763       L1    10  0.88

> <Gold.Chemscore.Hbond.Weighted>
-7.9196

> <Gold.Chemscore.Metal.Weighted>
-0.0000

> <Gold.Chemscore.Lipo.Weighted>
-11.7559

> <Gold.Chemscore.Internal_Hbond.Weighted>
0.0000

> <Gold.Chemscore.DEClash.Weighted>
0.0469

> <Gold.Chemscore.DEInternal.Weighted>
1.9034

> <Gold.Chemscore.Rot.Weighted>
7.0598

> <Gold.Chemscore.Internal.Correction.Weighted>
   9.000000E+99

> <Gold.Protein.RotatedTorsions>
[ 6907 6896 6895 6894 ] final  -15.27 input  -60.11 | X-H torsion
[ 7974 7965 7964 7962 ] final  148.04 input  175.53 | X-H torsion
[ 8008 7997 7996 7995 ] final  149.24 input   59.86 | X-H torsion
[ 10167 10162 10161 10158 ] final  115.82 input  -65.29 | X-H torsion
[ 10718 10713 10712 10709 ] final -108.82 input   66.30 | X-H torsion
[ 10763 10752 10751 10750 ] final   87.02 input  -60.55 | X-H torsion
[ 11005 11000 10999 10996 ] final  152.51 input  -57.11 | X-H torsion

> <Gold.Protein.ActiveResidues>
 VAL166  LYS551  ARG553  GLY616  TRP617  ASP618  TYR619  PRO620  LYS621  CYS622 
 ASP623  PHE694  ASN695  SER759  ASP760  ASP761  ALA762  ILE779  LEU786  VAL792 
 PHE793  MET794  SER795  GLU796  ALA797  LYS798  CYS799  TRP800  GLU811  SER814 

> <Gold.Protein.RotatedAtoms>
  151.3265  135.0831  159.9323 H   0  0  0  0  0  0  0  0  0  0  0  0  # atno 6907 bound_to 6896
  152.5244  133.9586  159.7716 H   0  0  0  0  0  0  0  0  0  0  0  0  # atno 6908 bound_to 6896
  150.9916  133.6091  159.2737 H   0  0  0  0  0  0  0  0  0  0  0  0  # atno 6909 bound_to 6896
  144.8544  139.6104  143.5959 H   0  0  0  0  0  0  0  0  0  0  0  0  # atno 7974 bound_to 7965
  156.2762  140.2107  156.5826 H   0  0  0  0  0  0  0  0  0  0  0  0  # atno 8008 bound_to 7997
  154.7047  140.0517  157.0515 H   0  0  0  0  0  0  0  0  0  0  0  0  # atno 8009 bound_to 7997
  155.0687  140.3174  155.4640 H   0  0  0  0  0  0  0  0  0  0  0  0  # atno 8010 bound_to 7997
  139.6290  144.7112  151.2472 H   0  0  0  0  0  0  0  0  0  0  0  0  # atno 10167 bound_to 10162
  156.0505  130.5732  150.8014 H   0  0  0  0  0  0  0  0  0  0  0  0  # atno 10718 bound_to 10713
  153.1627  135.4559  154.9795 H   0  0  0  0  0  0  0  0  0  0  0  0  # atno 10763 bound_to 10752
  154.7909  135.3220  154.7781 H   0  0  0  0  0  0  0  0  0  0  0  0  # atno 10764 bound_to 10752
  153.8268  135.6942  153.4874 H   0  0  0  0  0  0  0  0  0  0  0  0  # atno 10765 bound_to 10752
  140.1314  134.8799  157.2209 H   0  0  0  0  0  0  0  0  0  0  0  0  # atno 11005 bound_to 11000
  146.2811  139.6880  142.9228 LP  0  0  0  0  0  0  0  0  0  0  0  0  # atno 17320 bound_to 7965
  145.4435  141.0424  143.2844 LP  0  0  0  0  0  0  0  0  0  0  0  0  # atno 17321 bound_to 7965
  140.7428  143.6514  150.8245 LP  0  0  0  0  0  0  0  0  0  0  0  0  # atno 17342 bound_to 10162
  140.0137  143.5616  152.2829 LP  0  0  0  0  0  0  0  0  0  0  0  0  # atno 17343 bound_to 10162
  157.5426  131.0941  150.9806 LP  0  0  0  0  0  0  0  0  0  0  0  0  # atno 17370 bound_to 10713
  157.0085  130.5627  149.5318 LP  0  0  0  0  0  0  0  0  0  0  0  0  # atno 17371 bound_to 10713
  140.2837  134.3320  155.7335 LP  0  0  0  0  0  0  0  0  0  0  0  0  # atno 17394 bound_to 11000
  141.2171  133.7493  156.9402 LP  0  0  0  0  0  0  0  0  0  0  0  0  # atno 17395 bound_to 11000

$$$$
