AV-unprocessed.smi:36|AV-procd|sdf|288|dock1
  -GOLD-   2262016 73D 1   1.00000     0.00000
 Structure written by MMmdl.
 64 67  0  0  0  0  0  0  0  0  1 V2000
  147.1377  135.2496  160.9592 C   0  0  0  0  0  0  0  0  0  0  0  0
  146.4069  133.8993  161.0424 C   0  0  0  0  0  0  0  0  0  0  0  0
  147.3222  132.8477  161.6912 C   0  0  0  0  0  0  0  0  0  0  0  0
  145.1215  134.0498  161.8735 C   0  0  0  0  0  0  0  0  0  0  0  0
  145.9412  133.3210  159.2823 Si  0  0  0  0  0  0  0  0  0  0  0  0
  145.0276  131.6544  159.3319 C   0  0  0  0  0  0  0  0  0  0  0  0
  144.8685  134.6125  158.3934 C   0  0  0  0  0  0  0  0  0  0  0  0
  147.3741  133.1306  158.4036 O   0  0  0  0  0  0  0  0  0  0  0  0
  148.1149  134.2130  157.8822 C   0  0  0  0  0  0  0  0  0  0  0  0
  148.5086  133.8969  156.4254 C   0  0  1  0  0  0  0  0  0  0  0  0
  148.8403  135.1104  155.7527 O   0  0  0  0  0  0  0  0  0  0  0  0
  150.2166  135.3611  155.8190 C   0  0  1  0  0  0  0  0  0  0  0  0
  150.4458  136.5731  156.6686 N   0  0  0  0  0  0  0  0  0  0  0  0
  149.5458  137.5058  157.0387 C   0  0  0  0  0  0  0  0  0  0  0  0
  150.0239  138.4980  157.7849 N   0  0  0  0  0  0  0  0  0  0  0  0
  151.3727  138.1764  157.8880 C   0  0  0  0  0  0  0  0  0  0  0  0
  152.4734  138.8805  158.5804 C   0  0  0  0  0  0  0  0  0  0  0  0
  152.1838  139.9755  159.2160 N   0  0  0  0  0  0  0  0  0  0  0  0
  153.1794  140.6817  159.8782 C   0  0  0  0  0  0  0  0  0  0  0  0
  154.3117  140.3086  160.1973 O   0  0  0  0  0  0  0  0  0  0  0  0
  152.7687  142.0685  160.2522 C   0  0  0  0  0  0  0  0  0  0  0  0
  152.3551  142.9776  159.2555 C   0  0  0  0  0  0  0  0  0  0  0  0
  151.9600  144.2825  159.6099 C   0  0  0  0  0  0  0  0  0  0  0  0
  151.9752  144.6812  160.9606 C   0  0  0  0  0  0  0  0  0  0  0  0
  152.3854  143.7750  161.9577 C   0  0  0  0  0  0  0  0  0  0  0  0
  152.7807  142.4697  161.6050 C   0  0  0  0  0  0  0  0  0  0  0  0
  153.6738  138.1821  158.3967 N   0  0  0  0  0  0  0  0  0  0  0  0
  153.8320  136.9941  157.6665 C   0  0  0  0  0  0  0  0  0  0  0  0
  152.8694  136.3629  157.0492 N   0  0  0  0  0  0  0  0  0  0  0  0
  151.6529  137.0125  157.2048 C   0  0  0  0  0  0  0  0  0  0  0  0
  150.8719  134.1255  156.4505 C   0  0  0  0  0  0  0  0  0  0  0  0
  149.7940  133.0777  156.2636 C   0  0  1  0  0  0  0  0  0  0  0  0
  149.9210  132.0117  157.1827 O   0  0  0  0  0  0  0  0  0  0  0  0
  147.4196  135.6087  161.9495 H   0  0  0  0  0  0  0  0  0  0  0  0
  146.5097  136.0135  160.5002 H   0  0  0  0  0  0  0  0  0  0  0  0
  148.0493  135.1722  160.3661 H   0  0  0  0  0  0  0  0  0  0  0  0
  148.2477  132.7238  161.1284 H   0  0  0  0  0  0  0  0  0  0  0  0
  146.8337  131.8738  161.7396 H   0  0  0  0  0  0  0  0  0  0  0  0
  147.5927  133.1314  162.7087 H   0  0  0  0  0  0  0  0  0  0  0  0
  145.3423  134.3728  162.8914 H   0  0  0  0  0  0  0  0  0  0  0  0
  144.5799  133.1056  161.9388 H   0  0  0  0  0  0  0  0  0  0  0  0
  144.4468  134.7856  161.4351 H   0  0  0  0  0  0  0  0  0  0  0  0
  144.0963  131.7254  159.8929 H   0  0  0  0  0  0  0  0  0  0  0  0
  145.6300  130.8788  159.8030 H   0  0  0  0  0  0  0  0  0  0  0  0
  144.7753  131.3053  158.3312 H   0  0  0  0  0  0  0  0  0  0  0  0
  143.9353  134.7939  158.9259 H   0  0  0  0  0  0  0  0  0  0  0  0
  144.6090  134.2890  157.3856 H   0  0  0  0  0  0  0  0  0  0  0  0
  145.3836  135.5687  158.3038 H   0  0  0  0  0  0  0  0  0  0  0  0
  147.5288  135.1286  157.9519 H   0  0  0  0  0  0  0  0  0  0  0  0
  149.0035  134.3509  158.4983 H   0  0  0  0  0  0  0  0  0  0  0  0
  147.6731  133.4083  155.9231 H   0  0  0  0  0  0  0  0  0  0  0  0
  150.6125  135.6248  154.8377 H   0  0  0  0  0  0  0  0  0  0  0  0
  148.5043  137.4588  156.7578 H   0  0  0  0  0  0  0  0  0  0  0  0
  152.3392  142.6780  158.2175 H   0  0  0  0  0  0  0  0  0  0  0  0
  151.6448  144.9772  158.8455 H   0  0  0  0  0  0  0  0  0  0  0  0
  151.6718  145.6816  161.2318 H   0  0  0  0  0  0  0  0  0  0  0  0
  152.3964  144.0807  162.9936 H   0  0  0  0  0  0  0  0  0  0  0  0
  153.0928  141.7796  162.3757 H   0  0  0  0  0  0  0  0  0  0  0  0
  154.8558  136.6179  157.6487 H   0  0  0  0  0  0  0  0  0  0  0  0
  151.8109  133.8795  155.9540 H   0  0  0  0  0  0  0  0  0  0  0  0
  151.0681  134.3036  157.5094 H   0  0  0  0  0  0  0  0  0  0  0  0
  149.8463  132.6809  155.2488 H   0  0  0  0  0  0  0  0  0  0  0  0
  149.7601  131.2005  156.7252 H   0  0  0  0  0  0  0  0  0  0  0  0
  154.4996  138.5703  158.8291 H   0  0  0  0  0  0  0  0  0  0  0  0
  1  2  1  0  0  0  0
  1 34  1  0  0  0  0
  1 35  1  0  0  0  0
  1 36  1  0  0  0  0
  2  3  1  0  0  0  0
  2  4  1  0  0  0  0
  2  5  1  0  0  0  0
  3 37  1  0  0  0  0
  3 38  1  0  0  0  0
  3 39  1  0  0  0  0
  4 40  1  0  0  0  0
  4 41  1  0  0  0  0
  4 42  1  0  0  0  0
  5  6  1  0  0  0  0
  5  7  1  0  0  0  0
  5  8  1  0  0  0  0
  6 43  1  0  0  0  0
  6 44  1  0  0  0  0
  6 45  1  0  0  0  0
  7 46  1  0  0  0  0
  7 47  1  0  0  0  0
  7 48  1  0  0  0  0
  8  9  1  0  0  0  0
  9 10  1  0  0  0  0
  9 49  1  0  0  0  0
  9 50  1  0  0  0  0
 10 32  1  0  0  0  0
 10 11  1  0  0  0  0
 10 51  1  0  0  0  0
 11 12  1  0  0  0  0
 12 13  1  0  0  0  0
 12 31  1  0  0  0  0
 12 52  1  0  0  0  0
 13 30  1  0  0  0  0
 13 14  1  0  0  0  0
 14 15  2  0  0  0  0
 14 53  1  0  0  0  0
 15 16  1  0  0  0  0
 16 30  2  0  0  0  0
 16 17  1  0  0  0  0
 17 18  2  0  0  0  0
 17 27  1  0  0  0  0
 18 19  1  0  0  0  0
 19 20  2  0  0  0  0
 19 21  1  0  0  0  0
 21 26  1  0  0  0  0
 21 22  2  0  0  0  0
 22 23  1  0  0  0  0
 22 54  1  0  0  0  0
 23 24  2  0  0  0  0
 23 55  1  0  0  0  0
 24 25  1  0  0  0  0
 24 56  1  0  0  0  0
 25 26  2  0  0  0  0
 25 57  1  0  0  0  0
 26 58  1  0  0  0  0
 27 28  1  0  0  0  0
 27 64  1  0  0  0  0
 28 29  2  0  0  0  0
 28 59  1  0  0  0  0
 29 30  1  0  0  0  0
 31 32  1  0  0  0  0
 31 60  1  0  0  0  0
 31 61  1  0  0  0  0
 32 33  1  0  0  0  0
 32 62  1  0  0  0  0
 33 63  1  0  0  0  0
M  END
> <s_m_source_file>
AV-unprocessed.smi

> <i_m_source_file_index>
36

> <i_lp_mmshare_version>
43012

> <i_f3d_flags>
0

> <s_epik_input>
W0NIM11DKFtDSDNdKShbQ0gzXSlbU2ldKFtDSDNdKShbQ0gzXSlPW0NIMl1bQ0BASF0xT1tDQEhdKFtDSDJdW0NASF0xW09IXSluKFtjSF1uMiljKGMyMyluW2NIXW5jM1tOSF1DKD1PKWM0W2NIXVtjSF1bY0hdW2NIXVtjSF00

> <s_epik_cmdline>
J2VwaWtfcHl0aG9uJywgJy1waCcsICc3LjAnLCAnLXRuJywgJzgnLCAnLW1hJywgJzIwMCcsICctbWV0YWxfYmluZGluZycsICctaW1hZScsICc8aW5maWxlLm1hZT4nLCAnLW9tYWUnLCAnPG91dGZpbGUubWFlPic=

> <r_epik_Ionization_Penalty>
0.0850405

> <r_epik_Ionization_Penalty_Charging>
0.0850403

> <r_epik_Ionization_Penalty_Neutral>
1.47497e-07

> <r_epik_State_Penalty>
2.6133

> <r_epik_Charging_Adjusted_Penalty>
2.69834

> <i_epik_Tot_Q>
0

> <i_epik_Tot_abs_Q>
0

> <r_epik_Metal_State_Penalty>
2.92945

> <b_epik_Metal_Only>
0

> <s_epik_Chemistry_Notes>
This compound contains an acetal/aminal-like group ( X-CH(R)-Y where X, Y are N, S, or O) that may be acid/base labile, releasing an aldehyde.

> <s_lp_Force_Field>
OPLS_2005

> <r_lp_Energy>
49.0467

> <b_lp_Chiralities_Consistent>
1

> <s_lp_Variant>
AV-unprocessed.smi:36-10

> <Gold.Version>
5.8.1

> <Gold.Id.Protein>
6NUR|6NUR_protein|mol2

> <Gold.PLP.Fitness>
47.2251

> <Gold.PLP.PLP>
-48.0769

> <Gold.PLP.part.hbond>
-1.0000

> <Gold.PLP.part.metal>
0.0000

> <Gold.PLP.part.buried>
-8.1898

> <Gold.PLP.part.nonpolar>
-38.7267

> <Gold.PLP.part.repulsive>
0.1432

> <Gold.PLP.ligand.clash>
0.0000

> <Gold.PLP.ligand.torsion>
2.2210

> <Gold.PLP.Chemscore.Hbond>
1.0000

> <Gold.PLP.Chemscore.CHOScore>
0.0000

> <Gold.PLP.Chemscore.Metal>
0.0000

> <Gold.Chemscore.Hbonds>
donor molecule, donor type, donor heavy atom, donor atom, acceptor molecule, acceptor atom, score
      P1  H 10752 10763       L1    29  0.84

> <Gold.PLP.Chemscore.Internal.Correction>
0.5902

> <Gold.Rescore>
     Score         DG    S(hbond)    S(metal)    S(lipo)     H(rot)  DE(clash)    DE(int)     intcor
     13.58     -15.49       0.94        0.00     117.83       2.70       0.00       1.91       ----

> <Gold.Chemscore.Fitness>
13.5797

> <Gold.Chemscore.DG>
-15.4882

> <Gold.Chemscore.ZeroCoef>
-5.4800

> <Gold.Chemscore.Hbond>
0.9414

> <Gold.Chemscore.Metal>
0.0000

> <Gold.Chemscore.Lipo>
117.8328

> <Gold.Chemscore.Internal_Hbond>
0.0000

> <Gold.Chemscore.DEClash>
0.0015

> <Gold.Chemscore.DEInternal>
1.9071

> <Gold.Chemscore.Rot>
2.7041

> <Gold.Chemscore.Internal.Correction>
   9.000000E+99

> <Gold.Chemscore.Hbonds>
donor molecule, donor type, donor heavy atom, donor atom, acceptor molecule, acceptor atom, score
      P1  H 10752 10763       L1    29  0.66

> <Gold.Chemscore.Hbond.Weighted>
-3.1442

> <Gold.Chemscore.Metal.Weighted>
-0.0000

> <Gold.Chemscore.Lipo.Weighted>
-13.7864

> <Gold.Chemscore.Internal_Hbond.Weighted>
0.0000

> <Gold.Chemscore.DEClash.Weighted>
0.0015

> <Gold.Chemscore.DEInternal.Weighted>
1.9071

> <Gold.Chemscore.Rot.Weighted>
6.9225

> <Gold.Chemscore.Internal.Correction.Weighted>
   9.000000E+99

> <Gold.Protein.RotatedTorsions>
[ 6907 6896 6895 6894 ] final   83.46 input  -60.11 | X-H torsion
[ 7974 7965 7964 7962 ] final -112.52 input  175.53 | X-H torsion
[ 8008 7997 7996 7995 ] final   85.84 input   59.86 | X-H torsion
[ 10167 10162 10161 10158 ] final -125.82 input  -65.29 | X-H torsion
[ 10718 10713 10712 10709 ] final  -27.49 input   66.30 | X-H torsion
[ 10763 10752 10751 10750 ] final  121.87 input  -60.55 | X-H torsion
[ 11005 11000 10999 10996 ] final  -31.28 input  -57.11 | X-H torsion

> <Gold.Protein.ActiveResidues>
 VAL166  LYS551  ARG553  GLY616  TRP617  ASP618  TYR619  PRO620  LYS621  CYS622 
 ASP623  PHE694  ASN695  SER759  ASP760  ASP761  ALA762  ILE779  LEU786  VAL792 
 PHE793  MET794  SER795  GLU796  ALA797  LYS798  CYS799  TRP800  GLU811  SER814 

> <Gold.Protein.RotatedAtoms>
  152.5327  134.2892  159.9036 H   0  0  0  0  0  0  0  0  0  0  0  0  # atno 6907 bound_to 6896
  151.2845  133.4187  159.2636 H   0  0  0  0  0  0  0  0  0  0  0  0  # atno 6908 bound_to 6896
  151.0255  134.9516  159.8139 H   0  0  0  0  0  0  0  0  0  0  0  0  # atno 6909 bound_to 6896
  145.1430  140.8788  143.3691 H   0  0  0  0  0  0  0  0  0  0  0  0  # atno 7974 bound_to 7965
  155.9552  140.3398  155.6442 H   0  0  0  0  0  0  0  0  0  0  0  0  # atno 8008 bound_to 7997
  155.6869  140.0744  157.2481 H   0  0  0  0  0  0  0  0  0  0  0  0  # atno 8009 bound_to 7997
  154.4130  140.1664  156.2031 H   0  0  0  0  0  0  0  0  0  0  0  0  # atno 8010 bound_to 7997
  139.9780  143.5773  152.2388 H   0  0  0  0  0  0  0  0  0  0  0  0  # atno 10167 bound_to 10162
  156.4375  130.4457  149.7075 H   0  0  0  0  0  0  0  0  0  0  0  0  # atno 10718 bound_to 10713
  153.6209  135.3413  155.3010 H   0  0  0  0  0  0  0  0  0  0  0  0  # atno 10763 bound_to 10752
  154.8600  135.4273  154.2208 H   0  0  0  0  0  0  0  0  0  0  0  0  # atno 10764 bound_to 10752
  153.3081  135.7029  153.7214 H   0  0  0  0  0  0  0  0  0  0  0  0  # atno 10765 bound_to 10752
  140.9454  133.7253  156.1139 H   0  0  0  0  0  0  0  0  0  0  0  0  # atno 11005 bound_to 11000
  145.0512  139.3180  143.5927 LP  0  0  0  0  0  0  0  0  0  0  0  0  # atno 17320 bound_to 7965
  146.3503  139.9921  142.8684 LP  0  0  0  0  0  0  0  0  0  0  0  0  # atno 17321 bound_to 7965
  139.6431  144.7656  151.2299 LP  0  0  0  0  0  0  0  0  0  0  0  0  # atno 17342 bound_to 10162
  140.7499  143.6284  150.8446 LP  0  0  0  0  0  0  0  0  0  0  0  0  # atno 17343 bound_to 10162
  156.3953  130.7647  151.2651 LP  0  0  0  0  0  0  0  0  0  0  0  0  # atno 17370 bound_to 10713
  157.7507  131.0256  150.3925 LP  0  0  0  0  0  0  0  0  0  0  0  0  # atno 17371 bound_to 10713
  140.7676  134.3869  157.5514 LP  0  0  0  0  0  0  0  0  0  0  0  0  # atno 17394 bound_to 11000
  139.8832  134.9001  156.2782 LP  0  0  0  0  0  0  0  0  0  0  0  0  # atno 17395 bound_to 11000

$$$$
