AV-unprocessed.smi:6|AV-procd|sdf|39|dock5
  -GOLD-   2262015153D 1   1.00000     0.00000
 Structure written by MMmdl.
 37 38  0  0  0  0  0  0  0  0  1 V2000
  142.4254  137.9852  154.7969 C   0  0  0  0  0  0  0  0  0  0  0  0
  142.2408  136.8359  153.7941 C   0  0  0  0  0  0  0  0  0  0  0  0
  141.7207  135.5454  154.4457 C   0  0  0  0  0  0  0  0  0  0  0  0
  143.4964  136.5925  152.9664 C   0  0  0  0  0  0  0  0  0  0  0  0
  143.4167  135.6817  151.9898 N   0  0  0  0  0  0  0  0  0  0  0  0
  144.5331  135.4676  151.2614 C   0  0  0  0  0  0  0  0  0  0  0  0
  145.7295  136.1696  151.5116 C   0  0  0  0  0  0  0  0  0  0  0  0
  145.7010  137.1100  152.5620 C   0  0  0  0  0  0  0  0  0  0  0  0
  146.8578  137.8420  152.8623 N   0  0  0  0  0  0  0  0  0  0  0  0
  146.7945  139.2966  152.9293 C   0  0  0  0  0  0  0  0  0  0  0  0
  148.0235  139.9163  153.5753 C   0  0  0  0  0  0  0  0  0  0  0  0
  149.1629  139.2053  153.7721 C   0  0  0  0  0  0  0  0  0  0  0  0
  150.3121  139.7402  154.3322 N   0  0  0  0  0  0  0  0  0  0  0  0
  151.5126  138.9786  154.5431 C   0  0  0  0  0  0  0  0  0  0  0  0
  150.3388  141.0962  154.7192 C   0  0  0  0  0  0  0  0  0  0  0  0
  151.3266  141.6341  155.2205 O   0  0  0  0  0  0  0  0  0  0  0  0
  149.1729  141.8303  154.5058 N   0  0  0  0  0  0  0  0  0  0  0  0
  147.9898  141.3356  153.9482 C   0  0  0  0  0  0  0  0  0  0  0  0
  147.0267  142.0873  153.8070 O   0  0  0  0  0  0  0  0  0  0  0  0
  144.5756  137.3142  153.2868 N   0  0  0  0  0  0  0  0  0  0  0  0
  149.1846  142.8032  154.7762 H   0  0  0  0  0  0  0  0  0  0  0  0
  142.7242  138.9027  154.2891 H   0  0  0  0  0  0  0  0  0  0  0  0
  143.1903  137.7495  155.5376 H   0  0  0  0  0  0  0  0  0  0  0  0
  141.4983  138.1908  155.3323 H   0  0  0  0  0  0  0  0  0  0  0  0
  141.4601  137.1611  153.1038 H   0  0  0  0  0  0  0  0  0  0  0  0
  141.5220  134.7808  153.6940 H   0  0  0  0  0  0  0  0  0  0  0  0
  140.7914  135.7263  154.9861 H   0  0  0  0  0  0  0  0  0  0  0  0
  142.4421  135.1375  155.1543 H   0  0  0  0  0  0  0  0  0  0  0  0
  144.4721  134.7313  150.4739 H   0  0  0  0  0  0  0  0  0  0  0  0
  146.6190  135.9925  150.9253 H   0  0  0  0  0  0  0  0  0  0  0  0
  147.7556  137.4098  152.6991 H   0  0  0  0  0  0  0  0  0  0  0  0
  146.6721  139.6900  151.9194 H   0  0  0  0  0  0  0  0  0  0  0  0
  145.9140  139.6030  153.4959 H   0  0  0  0  0  0  0  0  0  0  0  0
  149.1716  138.1656  153.4765 H   0  0  0  0  0  0  0  0  0  0  0  0
  151.7348  138.9961  155.6120 H   0  0  0  0  0  0  0  0  0  0  0  0
  152.3054  139.4388  153.9497 H   0  0  0  0  0  0  0  0  0  0  0  0
  151.3346  137.9553  154.2105 H   0  0  0  0  0  0  0  0  0  0  0  0
  1  2  1  0  0  0  0
  1 22  1  0  0  0  0
  1 23  1  0  0  0  0
  1 24  1  0  0  0  0
  2  3  1  0  0  0  0
  2  4  1  0  0  0  0
  2 25  1  0  0  0  0
  3 26  1  0  0  0  0
  3 27  1  0  0  0  0
  3 28  1  0  0  0  0
  4 20  1  0  0  0  0
  4  5  2  0  0  0  0
  5  6  1  0  0  0  0
  6  7  2  0  0  0  0
  6 29  1  0  0  0  0
  7  8  1  0  0  0  0
  7 30  1  0  0  0  0
  8  9  1  0  0  0  0
  8 20  2  0  0  0  0
  9 10  1  0  0  0  0
  9 31  1  0  0  0  0
 10 11  1  0  0  0  0
 10 32  1  0  0  0  0
 10 33  1  0  0  0  0
 11 18  1  0  0  0  0
 11 12  2  0  0  0  0
 12 13  1  0  0  0  0
 12 34  1  0  0  0  0
 13 14  1  0  0  0  0
 13 15  1  0  0  0  0
 14 35  1  0  0  0  0
 14 36  1  0  0  0  0
 14 37  1  0  0  0  0
 15 16  2  0  0  0  0
 15 17  1  0  0  0  0
 17 21  1  0  0  0  0
 17 18  1  0  0  0  0
 18 19  2  0  0  0  0
M  END
> <s_m_source_file>
AV-unprocessed.smi

> <i_m_source_file_index>
6

> <i_lp_mmshare_version>
43012

> <i_f3d_flags>
0

> <s_epik_input>
W0NIM11bQ0hdKFtDSDNdKWMxbltjSF1bY0hdYyhuMSlbTkhdW0NIMl1jMltjSF1uKFtDSDNdKWMoPU8pW25IXWMyPU8=

> <s_epik_cmdline>
J2VwaWtfcHl0aG9uJywgJy1waCcsICc3LjAnLCAnLXRuJywgJzgnLCAnLW1hJywgJzIwMCcsICctbWV0YWxfYmluZGluZycsICctaW1hZScsICc8aW5maWxlLm1hZT4nLCAnLW9tYWUnLCAnPG91dGZpbGUubWFlPic=

> <r_lp_tautomer_probability>
0.999537

> <r_epik_Ionization_Penalty>
0.308056

> <r_epik_Ionization_Penalty_Charging>
0.000755917

> <r_epik_Ionization_Penalty_Neutral>
0.3073

> <r_epik_State_Penalty>
0.300752

> <r_epik_Charging_Adjusted_Penalty>
0.301508

> <i_epik_Tot_Q>
0

> <i_epik_Tot_abs_Q>
0

> <r_epik_Metal_State_Penalty>
0.395738

> <b_epik_Metal_Only>
0

> <s_lp_Force_Field>
OPLS_2005

> <r_lp_Energy>
3.35028

> <b_lp_Chiralities_Consistent>
1

> <s_lp_Variant>
AV-unprocessed.smi:6-1

> <Gold.Version>
5.8.1

> <Gold.Id.Protein>
6NUR|6NUR_protein|mol2

> <Gold.PLP.Fitness>
42.6837

> <Gold.PLP.PLP>
-32.8959

> <Gold.PLP.part.hbond>
-2.3596

> <Gold.PLP.part.metal>
0.0000

> <Gold.PLP.part.buried>
0.3782

> <Gold.PLP.part.nonpolar>
-31.3196

> <Gold.PLP.part.repulsive>
0.8834

> <Gold.PLP.ligand.clash>
0.0000

> <Gold.PLP.ligand.torsion>
0.7406

> <Gold.PLP.Chemscore.Hbond>
1.9183

> <Gold.PLP.Chemscore.CHOScore>
1.8089

> <Gold.PLP.Chemscore.Metal>
0.0000

> <Gold.Chemscore.Hbonds>
donor molecule, donor type, donor heavy atom, donor atom, acceptor molecule, acceptor atom, score
      L1  H     9    31       P1  7948  1.00
      L1  H    17    21       P1  8028  0.78
      L1  C    12    34       P1  7948  1.00

> <Gold.PLP.Chemscore.Internal.Correction>
0.0874

> <Gold.Rescore>
     Score         DG    S(hbond)    S(metal)    S(lipo)     H(rot)  DE(clash)    DE(int)     intcor
     11.80     -13.24       1.70        0.00      53.87       1.65       0.75       0.69       ----

> <Gold.Chemscore.Fitness>
11.8047

> <Gold.Chemscore.DG>
-13.2421

> <Gold.Chemscore.ZeroCoef>
-5.4800

> <Gold.Chemscore.Hbond>
1.7025

> <Gold.Chemscore.Metal>
0.0000

> <Gold.Chemscore.Lipo>
53.8738

> <Gold.Chemscore.Internal_Hbond>
0.0000

> <Gold.Chemscore.DEClash>
0.7499

> <Gold.Chemscore.DEInternal>
0.6875

> <Gold.Chemscore.Rot>
1.6514

> <Gold.Chemscore.Internal.Correction>
   9.000000E+99

> <Gold.Chemscore.Hbonds>
donor molecule, donor type, donor heavy atom, donor atom, acceptor molecule, acceptor atom, score
      L1  H     9    31       P1  7948  0.98
      L1  H    17    21       P1  8028  0.77

> <Gold.Chemscore.Hbond.Weighted>
-5.6864

> <Gold.Chemscore.Metal.Weighted>
-0.0000

> <Gold.Chemscore.Lipo.Weighted>
-6.3032

> <Gold.Chemscore.Internal_Hbond.Weighted>
0.0000

> <Gold.Chemscore.DEClash.Weighted>
0.7499

> <Gold.Chemscore.DEInternal.Weighted>
0.6875

> <Gold.Chemscore.Rot.Weighted>
4.2275

> <Gold.Chemscore.Internal.Correction.Weighted>
   9.000000E+99

> <Gold.Protein.RotatedTorsions>
[ 6907 6896 6895 6894 ] final  153.50 input  -60.11 | X-H torsion
[ 7974 7965 7964 7962 ] final -174.13 input  175.53 | X-H torsion
[ 8008 7997 7996 7995 ] final   77.40 input   59.86 | X-H torsion
[ 10167 10162 10161 10158 ] final  -47.40 input  -65.29 | X-H torsion
[ 10718 10713 10712 10709 ] final -117.72 input   66.30 | X-H torsion
[ 10763 10752 10751 10750 ] final  143.36 input  -60.55 | X-H torsion
[ 11005 11000 10999 10996 ] final -113.52 input  -57.11 | X-H torsion

> <Gold.Protein.ActiveResidues>
 VAL166  LYS551  ARG553  GLY616  TRP617  ASP618  TYR619  PRO620  LYS621  CYS622 
 ASP623  PHE694  ASN695  SER759  ASP760  ASP761  ALA762  ILE779  LEU786  VAL792 
 PHE793  MET794  SER795  GLU796  ALA797  LYS798  CYS799  TRP800  GLU811  SER814 

> <Gold.Protein.RotatedAtoms>
  152.0718  133.4110  159.4462 H   0  0  0  0  0  0  0  0  0  0  0  0  # atno 6907 bound_to 6896
  150.6863  134.3083  159.4745 H   0  0  0  0  0  0  0  0  0  0  0  0  # atno 6908 bound_to 6896
  152.0916  134.9403  160.0622 H   0  0  0  0  0  0  0  0  0  0  0  0  # atno 6909 bound_to 6896
  144.7133  140.1518  143.6383 H   0  0  0  0  0  0  0  0  0  0  0  0  # atno 7974 bound_to 7965
  155.8411  140.3462  155.5632 H   0  0  0  0  0  0  0  0  0  0  0  0  # atno 8008 bound_to 7997
  155.8140  140.0903  157.1907 H   0  0  0  0  0  0  0  0  0  0  0  0  # atno 8009 bound_to 7997
  154.4005  140.1442  156.3407 H   0  0  0  0  0  0  0  0  0  0  0  0  # atno 8010 bound_to 7997
  140.6776  143.2786  151.3921 H   0  0  0  0  0  0  0  0  0  0  0  0  # atno 10167 bound_to 10162
  156.1054  130.6206  150.9200 H   0  0  0  0  0  0  0  0  0  0  0  0  # atno 10718 bound_to 10713
  153.9711  135.2950  155.3427 H   0  0  0  0  0  0  0  0  0  0  0  0  # atno 10763 bound_to 10752
  154.7322  135.5062  153.8985 H   0  0  0  0  0  0  0  0  0  0  0  0  # atno 10764 bound_to 10752
  153.0900  135.6705  153.9986 H   0  0  0  0  0  0  0  0  0  0  0  0  # atno 10765 bound_to 10752
  141.0609  133.9537  157.2668 H   0  0  0  0  0  0  0  0  0  0  0  0  # atno 11005 bound_to 11000
  145.9110  139.2487  143.1438 LP  0  0  0  0  0  0  0  0  0  0  0  0  # atno 17320 bound_to 7965
  145.9716  140.8755  143.0159 LP  0  0  0  0  0  0  0  0  0  0  0  0  # atno 17321 bound_to 7965
  139.6078  144.1160  152.2268 LP  0  0  0  0  0  0  0  0  0  0  0  0  # atno 17342 bound_to 10162
  140.0565  144.5891  150.7296 LP  0  0  0  0  0  0  0  0  0  0  0  0  # atno 17343 bound_to 10162
  157.6230  131.0928  150.8587 LP  0  0  0  0  0  0  0  0  0  0  0  0  # atno 17370 bound_to 10713
  156.8707  130.5145  149.5297 LP  0  0  0  0  0  0  0  0  0  0  0  0  # atno 17371 bound_to 10713
  139.9432  135.0188  156.8772 LP  0  0  0  0  0  0  0  0  0  0  0  0  # atno 17394 bound_to 11000
  140.5870  134.0297  155.7485 LP  0  0  0  0  0  0  0  0  0  0  0  0  # atno 17395 bound_to 11000

$$$$
