AV-unprocessed.smi:109|AV-procd|sdf|1045|dock5
  -GOLD-   2262018 83D 1   1.00000     0.00000
 Structure written by MMmdl.
 58 61  0  0  0  0  0  0  0  0  1 V2000
  145.9236  141.6602  155.2804 O   0  0  0  0  0  0  0  0  0  0  0  0
  146.8641  142.2185  154.3886 C   0  0  0  0  0  0  0  0  0  0  0  0
  147.0908  141.2646  153.2031 C   0  0  0  0  0  0  0  0  0  0  0  0
  147.7901  139.9352  153.5807 C   0  0  2  0  0  0  0  0  0  0  0  0
  147.0254  139.2625  154.6338 N   0  0  0  0  0  0  0  0  0  0  0  0
  146.8794  137.9191  154.6778 C   0  0  0  0  0  0  0  0  0  0  0  0
  147.3754  137.1821  155.7058 N   0  0  0  0  0  0  0  0  0  0  0  0
  147.2195  135.8547  155.7157 C   0  0  0  0  0  0  0  0  0  0  0  0
  146.6108  135.0787  154.8158 N   0  0  0  0  0  0  0  0  0  0  0  0
  146.1089  135.8163  153.7837 C   0  0  0  0  0  0  0  0  0  0  0  0
  146.2014  137.2282  153.6408 C   0  0  0  0  0  0  0  0  0  0  0  0
  145.5794  137.6235  152.4629 N   0  0  0  0  0  0  0  0  0  0  0  0
  145.1450  136.5057  151.9445 C   0  0  0  0  0  0  0  0  0  0  0  0
  145.4226  135.3713  152.6765 N   0  0  0  0  0  0  0  0  0  0  0  0
  145.0805  133.9493  152.3697 C   0  0  1  0  0  0  0  0  0  0  0  0
  144.3813  133.9278  151.1703 O   0  0  0  0  0  0  0  0  0  0  0  0
  144.5332  132.6369  150.6042 C   0  0  1  0  0  0  0  0  0  0  0  0
  144.1646  132.6717  149.1133 C   0  0  0  0  0  0  0  0  0  0  0  0
  142.8375  132.2264  148.9343 O   0  0  0  0  0  0  0  0  0  0  0  0
  146.0143  132.3290  150.8638 C   0  0  2  0  0  0  0  0  0  0  0  0
  146.2021  130.9345  151.0026 O   0  0  0  0  0  0  0  0  0  0  0  0
  146.3201  133.0495  152.1782 C   0  0  1  0  0  0  0  0  0  0  0  0
  147.5451  133.7571  152.0947 O   0  0  0  0  0  0  0  0  0  0  0  0
  149.2621  140.1170  154.0510 C   0  0  0  0  0  0  0  0  0  0  0  0
  150.0446  138.7832  154.1503 C   0  0  0  0  0  0  0  0  0  0  0  0
  151.4829  138.9813  154.6571 C   0  0  0  0  0  0  0  0  0  0  0  0
  151.5081  139.7041  156.0090 C   0  0  0  0  0  0  0  0  0  0  0  0
  150.7626  141.0407  155.9191 C   0  0  0  0  0  0  0  0  0  0  0  0
  149.3228  140.8402  155.4215 C   0  0  0  0  0  0  0  0  0  0  0  0
  144.4335  133.6200  153.1844 H   0  0  0  0  0  0  0  0  0  0  0  0
  143.9016  131.9332  151.1517 H   0  0  0  0  0  0  0  0  0  0  0  0
  146.6316  132.7174  150.0518 H   0  0  0  0  0  0  0  0  0  0  0  0
  146.3662  132.3606  153.0232 H   0  0  0  0  0  0  0  0  0  0  0  0
  146.3873  141.1467  155.9239 H   0  0  0  0  0  0  0  0  0  0  0  0
  146.4891  143.1855  154.0532 H   0  0  0  0  0  0  0  0  0  0  0  0
  147.7974  142.3952  154.9238 H   0  0  0  0  0  0  0  0  0  0  0  0
  146.1101  141.0576  152.7786 H   0  0  0  0  0  0  0  0  0  0  0  0
  147.6623  141.7732  152.4254 H   0  0  0  0  0  0  0  0  0  0  0  0
  147.8294  139.3196  152.6823 H   0  0  0  0  0  0  0  0  0  0  0  0
  146.6161  139.8734  155.3262 H   0  0  0  0  0  0  0  0  0  0  0  0
  147.6434  135.3416  156.5662 H   0  0  0  0  0  0  0  0  0  0  0  0
  144.6104  136.4780  151.0060 H   0  0  0  0  0  0  0  0  0  0  0  0
  144.2917  133.6708  148.6954 H   0  0  0  0  0  0  0  0  0  0  0  0
  144.8126  131.9992  148.5507 H   0  0  0  0  0  0  0  0  0  0  0  0
  142.2622  132.9758  148.9567 H   0  0  0  0  0  0  0  0  0  0  0  0
  147.1051  130.7311  150.8113 H   0  0  0  0  0  0  0  0  0  0  0  0
  147.3765  134.6693  152.2745 H   0  0  0  0  0  0  0  0  0  0  0  0
  149.7735  140.7435  153.3182 H   0  0  0  0  0  0  0  0  0  0  0  0
  149.5167  138.0940  154.8107 H   0  0  0  0  0  0  0  0  0  0  0  0
  150.1083  138.2971  153.1781 H   0  0  0  0  0  0  0  0  0  0  0  0
  151.9816  138.0157  154.7441 H   0  0  0  0  0  0  0  0  0  0  0  0
  152.0511  139.5567  153.9252 H   0  0  0  0  0  0  0  0  0  0  0  0
  151.0466  139.0750  156.7711 H   0  0  0  0  0  0  0  0  0  0  0  0
  152.5384  139.8713  156.3247 H   0  0  0  0  0  0  0  0  0  0  0  0
  150.7534  141.5262  156.8955 H   0  0  0  0  0  0  0  0  0  0  0  0
  151.2931  141.7136  155.2440 H   0  0  0  0  0  0  0  0  0  0  0  0
  148.8420  141.8168  155.3656 H   0  0  0  0  0  0  0  0  0  0  0  0
  148.7614  140.2678  156.1614 H   0  0  0  0  0  0  0  0  0  0  0  0
  1  2  1  0  0  0  0
  1 34  1  0  0  0  0
  2  3  1  0  0  0  0
  2 35  1  0  0  0  0
  2 36  1  0  0  0  0
  3  4  1  0  0  0  0
  3 37  1  0  0  0  0
  3 38  1  0  0  0  0
  4  5  1  0  0  0  0
  4 24  1  0  0  0  0
  4 39  1  0  0  0  0
  5  6  1  0  0  0  0
  5 40  1  0  0  0  0
  6 11  1  0  0  0  0
  6  7  2  0  0  0  0
  7  8  1  0  0  0  0
  8  9  2  0  0  0  0
  8 41  1  0  0  0  0
  9 10  1  0  0  0  0
 10 14  1  0  0  0  0
 10 11  2  0  0  0  0
 11 12  1  0  0  0  0
 12 13  2  0  0  0  0
 13 14  1  0  0  0  0
 13 42  1  0  0  0  0
 14 15  1  0  0  0  0
 15 30  1  0  0  0  0
 15 22  1  0  0  0  0
 15 16  1  0  0  0  0
 16 17  1  0  0  0  0
 17 31  1  0  0  0  0
 17 18  1  0  0  0  0
 17 20  1  0  0  0  0
 18 19  1  0  0  0  0
 18 43  1  0  0  0  0
 18 44  1  0  0  0  0
 19 45  1  0  0  0  0
 20 32  1  0  0  0  0
 20 21  1  0  0  0  0
 20 22  1  0  0  0  0
 21 46  1  0  0  0  0
 22 33  1  0  0  0  0
 22 23  1  0  0  0  0
 23 47  1  0  0  0  0
 24 29  1  0  0  0  0
 24 25  1  0  0  0  0
 24 48  1  0  0  0  0
 25 26  1  0  0  0  0
 25 49  1  0  0  0  0
 25 50  1  0  0  0  0
 26 27  1  0  0  0  0
 26 51  1  0  0  0  0
 26 52  1  0  0  0  0
 27 28  1  0  0  0  0
 27 53  1  0  0  0  0
 27 54  1  0  0  0  0
 28 29  1  0  0  0  0
 28 55  1  0  0  0  0
 28 56  1  0  0  0  0
 29 57  1  0  0  0  0
 29 58  1  0  0  0  0
M  END
> <s_m_source_file>
AV-unprocessed.smi

> <i_m_source_file_index>
109

> <i_lp_mmshare_version>
43012

> <i_f3d_flags>
0

> <s_epik_input>
W0NIMl0xW0NIMl1bQ0gyXVtDSDJdW0NIMl1bQ0hdMVtDQEhdKFtDSDJdW0NIMl1bT0hdKVtOSF1jKG5bY0hdbjIpYyhjMjMpbltjSF1uM1tDQEBIXTRPW0NASF0oW0NIMl1bT0hdKVtDQEBIXShbT0hdKVtDQEhdNFtPSF0=

> <s_epik_cmdline>
J2VwaWtfcHl0aG9uJywgJy1waCcsICc3LjAnLCAnLXRuJywgJzgnLCAnLW1hJywgJzIwMCcsICctbWV0YWxfYmluZGluZycsICctaW1hZScsICc8aW5maWxlLm1hZT4nLCAnLW9tYWUnLCAnPG91dGZpbGUubWFlPic=

> <r_lp_tautomer_probability>
1

> <r_epik_Ionization_Penalty>
0.000793976

> <r_epik_Ionization_Penalty_Charging>
0

> <r_epik_Ionization_Penalty_Neutral>
0.000793976

> <r_epik_State_Penalty>
-0

> <r_epik_Charging_Adjusted_Penalty>
0

> <i_epik_Tot_Q>
0

> <i_epik_Tot_abs_Q>
0

> <r_epik_Metal_State_Penalty>
-0

> <b_epik_Metal_Only>
0

> <s_epik_Chemistry_Notes>
This compound contains an acetal/aminal-like group ( X-CH(R)-Y where X, Y are N, S, or O) that may be acid/base labile, releasing an aldehyde.

> <s_lp_Force_Field>
OPLS_2005

> <r_lp_Energy>
53.6553

> <b_lp_Chiralities_Consistent>
1

> <s_lp_Variant>
AV-unprocessed.smi:109-15

> <Gold.Version>
5.8.1

> <Gold.Id.Protein>
6NUR|6NUR_protein|mol2

> <Gold.PLP.Fitness>
53.1503

> <Gold.PLP.PLP>
-44.4615

> <Gold.PLP.part.hbond>
-4.9220

> <Gold.PLP.part.metal>
0.0000

> <Gold.PLP.part.buried>
-3.5131

> <Gold.PLP.part.nonpolar>
-35.4975

> <Gold.PLP.part.repulsive>
0.4790

> <Gold.PLP.ligand.clash>
0.0000

> <Gold.PLP.ligand.torsion>
1.5378

> <Gold.PLP.Chemscore.Hbond>
3.0122

> <Gold.PLP.Chemscore.CHOScore>
0.8528

> <Gold.PLP.Chemscore.Metal>
0.0000

> <Gold.Chemscore.Hbonds>
donor molecule, donor type, donor heavy atom, donor atom, acceptor molecule, acceptor atom, score
      L1  H    19    45       P1 10186  1.00
      L1  H    21    46       P1 10747  1.00
      L1  H    23    47       P1  7948  0.21
      P1  H 10785 10796       L1    19  0.78
      L1  C    13    42       P1 10171  0.86

> <Gold.PLP.Chemscore.Internal.Correction>
0.1695

> <Gold.Rescore>
     Score         DG    S(hbond)    S(metal)    S(lipo)     H(rot)  DE(clash)    DE(int)     intcor
      9.19     -11.15       2.54        0.00      95.64       5.47       0.05       1.90       ----

> <Gold.Chemscore.Fitness>
9.1946

> <Gold.Chemscore.DG>
-11.1460

> <Gold.Chemscore.ZeroCoef>
-5.4800

> <Gold.Chemscore.Hbond>
2.5360

> <Gold.Chemscore.Metal>
0.0000

> <Gold.Chemscore.Lipo>
95.6355

> <Gold.Chemscore.Internal_Hbond>
0.0000

> <Gold.Chemscore.DEClash>
0.0487

> <Gold.Chemscore.DEInternal>
1.9026

> <Gold.Chemscore.Rot>
5.4662

> <Gold.Chemscore.Internal.Correction>
   9.000000E+99

> <Gold.Chemscore.Hbonds>
donor molecule, donor type, donor heavy atom, donor atom, acceptor molecule, acceptor atom, score
      L1  H    19    45       P1 10186  0.97
      L1  H    21    46       P1 10747  0.99
      L1  H    23    47       P1  7948  0.18
      P1  H 10785 10796       L1    19  0.19

> <Gold.Chemscore.Hbond.Weighted>
-8.4701

> <Gold.Chemscore.Metal.Weighted>
-0.0000

> <Gold.Chemscore.Lipo.Weighted>
-11.1894

> <Gold.Chemscore.Internal_Hbond.Weighted>
0.0000

> <Gold.Chemscore.DEClash.Weighted>
0.0487

> <Gold.Chemscore.DEInternal.Weighted>
1.9026

> <Gold.Chemscore.Rot.Weighted>
13.9935

> <Gold.Chemscore.Internal.Correction.Weighted>
   9.000000E+99

> <Gold.Protein.RotatedTorsions>
[ 6907 6896 6895 6894 ] final  -30.82 input  -60.11 | X-H torsion
[ 7974 7965 7964 7962 ] final  -27.79 input  175.53 | X-H torsion
[ 8008 7997 7996 7995 ] final -110.65 input   59.86 | X-H torsion
[ 10167 10162 10161 10158 ] final  177.17 input  -65.29 | X-H torsion
[ 10718 10713 10712 10709 ] final -119.54 input   66.30 | X-H torsion
[ 10763 10752 10751 10750 ] final  -79.92 input  -60.55 | X-H torsion
[ 11005 11000 10999 10996 ] final   54.88 input  -57.11 | X-H torsion

> <Gold.Protein.ActiveResidues>
 VAL166  LYS551  ARG553  GLY616  TRP617  ASP618  TYR619  PRO620  LYS621  CYS622 
 ASP623  PHE694  ASN695  SER759  ASP760  ASP761  ALA762  ILE779  LEU786  VAL792 
 PHE793  MET794  SER795  GLU796  ALA797  LYS798  CYS799  TRP800  GLU811  SER814 

> <Gold.Protein.RotatedAtoms>
  151.1004  134.9969  159.8445 H   0  0  0  0  0  0  0  0  0  0  0  0  # atno 6907 bound_to 6896
  152.5436  134.1956  159.8702 H   0  0  0  0  0  0  0  0  0  0  0  0  # atno 6908 bound_to 6896
  151.1999  133.4573  159.2629 H   0  0  0  0  0  0  0  0  0  0  0  0  # atno 6909 bound_to 6896
  146.1334  140.5197  142.8683 H   0  0  0  0  0  0  0  0  0  0  0  0  # atno 7974 bound_to 7965
  154.9777  140.0396  157.2263 H   0  0  0  0  0  0  0  0  0  0  0  0  # atno 8008 bound_to 7997
  154.7742  140.2807  155.6091 H   0  0  0  0  0  0  0  0  0  0  0  0  # atno 8009 bound_to 7997
  156.2926  140.2604  156.2552 H   0  0  0  0  0  0  0  0  0  0  0  0  # atno 8010 bound_to 7997
  139.5242  144.2830  152.0530 H   0  0  0  0  0  0  0  0  0  0  0  0  # atno 10167 bound_to 10162
  156.1189  130.6308  150.9429 H   0  0  0  0  0  0  0  0  0  0  0  0  # atno 10718 bound_to 10713
  154.5448  135.5679  153.6870 H   0  0  0  0  0  0  0  0  0  0  0  0  # atno 10763 bound_to 10752
  152.9973  135.6236  154.2454 H   0  0  0  0  0  0  0  0  0  0  0  0  # atno 10764 bound_to 10752
  154.2386  135.2863  155.2842 H   0  0  0  0  0  0  0  0  0  0  0  0  # atno 10765 bound_to 10752
  140.0651  134.5547  155.9108 H   0  0  0  0  0  0  0  0  0  0  0  0  # atno 11005 bound_to 11000
  144.7714  140.5645  143.6668 LP  0  0  0  0  0  0  0  0  0  0  0  0  # atno 17320 bound_to 7965
  145.5211  139.1476  143.3552 LP  0  0  0  0  0  0  0  0  0  0  0  0  # atno 17321 bound_to 7965
  140.2284  144.4394  150.6310 LP  0  0  0  0  0  0  0  0  0  0  0  0  # atno 17342 bound_to 10162
  140.6371  143.2197  151.6370 LP  0  0  0  0  0  0  0  0  0  0  0  0  # atno 17343 bound_to 10162
  157.6373  131.0914  150.8323 LP  0  0  0  0  0  0  0  0  0  0  0  0  # atno 17370 bound_to 10713
  156.8423  130.5052  149.5320 LP  0  0  0  0  0  0  0  0  0  0  0  0  # atno 17371 bound_to 10713
  141.1989  133.6604  156.5818 LP  0  0  0  0  0  0  0  0  0  0  0  0  # atno 17394 bound_to 11000
  140.3711  134.7605  157.4599 LP  0  0  0  0  0  0  0  0  0  0  0  0  # atno 17395 bound_to 11000

$$$$
