AV-unprocessed.smi:1531|AV-procd|sdf|6159|dock3
  -GOLD-   22720 6303D 1   1.00000     0.00000
 Structure written by MMmdl.
 44 45  0  0  0  0  0  0  0  0  1 V2000
  153.4799  140.2331  159.9707 C   0  0  0  0  0  0  0  0  0  0  0  0
  153.1086  141.3118  158.9431 C   0  0  0  0  0  0  0  0  0  0  0  0
  152.2730  142.4818  159.5181 C   0  0  1  0  0  0  0  0  0  0  0  0
  152.8623  142.9994  160.8514 C   0  0  0  0  0  0  0  0  0  0  0  0
  152.0578  144.1735  161.4286 C   0  0  0  0  0  0  0  0  0  0  0  0
  151.9556  145.3223  160.4184 C   0  0  0  0  0  0  0  0  0  0  0  0
  151.3448  144.8333  159.0994 C   0  0  0  0  0  0  0  0  0  0  0  0
  152.1378  143.6508  158.5055 C   0  0  2  0  0  0  0  0  0  0  0  0
  151.4758  143.2019  157.2815 N   0  0  0  0  0  0  0  0  0  0  0  0
  150.3414  142.4893  157.2273 C   0  0  0  0  0  0  0  0  0  0  0  0
  149.7163  142.1233  158.2227 O   0  0  0  0  0  0  0  0  0  0  0  0
  149.9904  142.2295  155.9577 N   0  0  0  0  0  0  0  0  0  0  0  0
  148.8372  141.5364  155.5127 C   0  0  0  0  0  0  0  0  0  0  0  0
  147.5962  141.3296  156.1788 C   0  0  0  0  0  0  0  0  0  0  0  0
  146.7604  140.6346  155.4217 N   0  0  0  0  0  0  0  0  0  0  0  0
  147.4423  140.3898  154.2746 N   0  0  0  0  0  0  0  0  0  0  0  0
  146.8068  139.6391  153.2063 C   0  0  0  0  0  0  0  0  0  0  0  0
  146.2272  138.3213  153.7238 C   0  0  0  0  0  0  0  0  0  0  0  0
  144.9145  138.1288  153.5677 N   0  0  0  0  0  0  0  0  0  0  0  0
  146.9555  137.4884  154.2591 O   0  0  0  0  0  0  0  0  0  0  0  0
  148.7152  140.9264  154.3007 C   0  0  0  0  0  0  0  0  0  0  0  0
  153.9737  139.3928  159.4825 H   0  0  0  0  0  0  0  0  0  0  0  0
  152.5946  139.8478  160.4769 H   0  0  0  0  0  0  0  0  0  0  0  0
  154.1652  140.6125  160.7282 H   0  0  0  0  0  0  0  0  0  0  0  0
  154.0166  141.6989  158.4791 H   0  0  0  0  0  0  0  0  0  0  0  0
  152.5542  140.8185  158.1450 H   0  0  0  0  0  0  0  0  0  0  0  0
  151.2699  142.1042  159.7236 H   0  0  0  0  0  0  0  0  0  0  0  0
  152.8866  142.2018  161.5934 H   0  0  0  0  0  0  0  0  0  0  0  0
  153.8969  143.3100  160.6996 H   0  0  0  0  0  0  0  0  0  0  0  0
  151.0581  143.8337  161.7022 H   0  0  0  0  0  0  0  0  0  0  0  0
  152.5261  144.5281  162.3471 H   0  0  0  0  0  0  0  0  0  0  0  0
  151.3508  146.1300  160.8316 H   0  0  0  0  0  0  0  0  0  0  0  0
  152.9463  145.7391  160.2326 H   0  0  0  0  0  0  0  0  0  0  0  0
  150.3094  144.5350  159.2705 H   0  0  0  0  0  0  0  0  0  0  0  0
  151.3132  145.6587  158.3869 H   0  0  0  0  0  0  0  0  0  0  0  0
  153.1447  143.9987  158.2655 H   0  0  0  0  0  0  0  0  0  0  0  0
  151.9184  143.4552  156.4101 H   0  0  0  0  0  0  0  0  0  0  0  0
  150.6067  142.5703  155.2345 H   0  0  0  0  0  0  0  0  0  0  0  0
  147.2708  141.6497  157.1574 H   0  0  0  0  0  0  0  0  0  0  0  0
  146.0137  140.2516  152.7749 H   0  0  0  0  0  0  0  0  0  0  0  0
  147.5291  139.4437  152.4117 H   0  0  0  0  0  0  0  0  0  0  0  0
  144.4872  137.2769  153.9018 H   0  0  0  0  0  0  0  0  0  0  0  0
  144.3523  138.8400  153.1233 H   0  0  0  0  0  0  0  0  0  0  0  0
  149.4017  140.8314  153.4722 H   0  0  0  0  0  0  0  0  0  0  0  0
  1  2  1  0  0  0  0
  1 22  1  0  0  0  0
  1 23  1  0  0  0  0
  1 24  1  0  0  0  0
  2  3  1  0  0  0  0
  2 25  1  0  0  0  0
  2 26  1  0  0  0  0
  3  8  1  0  0  0  0
  3  4  1  0  0  0  0
  3 27  1  0  0  0  0
  4  5  1  0  0  0  0
  4 28  1  0  0  0  0
  4 29  1  0  0  0  0
  5  6  1  0  0  0  0
  5 30  1  0  0  0  0
  5 31  1  0  0  0  0
  6  7  1  0  0  0  0
  6 32  1  0  0  0  0
  6 33  1  0  0  0  0
  7  8  1  0  0  0  0
  7 34  1  0  0  0  0
  7 35  1  0  0  0  0
  8  9  1  0  0  0  0
  8 36  1  0  0  0  0
  9 10  1  0  0  0  0
  9 37  1  0  0  0  0
 10 11  2  0  0  0  0
 10 12  1  0  0  0  0
 12 13  1  0  0  0  0
 12 38  1  0  0  0  0
 13 21  2  0  0  0  0
 13 14  1  0  0  0  0
 14 15  2  0  0  0  0
 14 39  1  0  0  0  0
 15 16  1  0  0  0  0
 16 17  1  0  0  0  0
 16 21  1  0  0  0  0
 17 18  1  0  0  0  0
 17 40  1  0  0  0  0
 17 41  1  0  0  0  0
 18 19  1  0  0  0  0
 18 20  2  0  0  0  0
 19 42  1  0  0  0  0
 19 43  1  0  0  0  0
 21 44  1  0  0  0  0
M  END
> <s_m_source_file>
AV-unprocessed.smi

> <i_m_source_file_index>
1531

> <i_lp_mmshare_version>
43012

> <i_f3d_flags>
0

> <s_epik_input>
W0NIM11bQ0gyXVtDQEBIXTFbQ0gyXVtDSDJdW0NIMl1bQ0gyXVtDQEhdMVtOSF1DKD1PKVtOSF1jMltjSF1ubihbY0hdMilbQ0gyXUMoPU8pW05IMl0=

> <s_epik_cmdline>
J2VwaWtfcHl0aG9uJywgJy1waCcsICc3LjAnLCAnLXRuJywgJzgnLCAnLW1hJywgJzIwMCcsICctbWV0YWxfYmluZGluZycsICctaW1hZScsICc8aW5maWxlLm1hZT4nLCAnLW9tYWUnLCAnPG91dGZpbGUubWFlPic=

> <r_lp_tautomer_probability>
1

> <r_epik_Ionization_Penalty>
4.83437e-05

> <r_epik_Ionization_Penalty_Charging>
0

> <r_epik_Ionization_Penalty_Neutral>
4.83437e-05

> <r_epik_State_Penalty>
-0

> <r_epik_Charging_Adjusted_Penalty>
0

> <i_epik_Tot_Q>
0

> <i_epik_Tot_abs_Q>
0

> <r_epik_Metal_State_Penalty>
-0

> <b_epik_Metal_Only>
0

> <s_lp_Force_Field>
OPLS_2005

> <r_lp_Energy>
14.9038

> <b_lp_Chiralities_Consistent>
1

> <s_lp_Variant>
AV-unprocessed.smi:1531-4

> <Gold.Version>
5.8.1

> <Gold.Id.Protein>
6NUR|6NUR_protein|mol2

> <Gold.PLP.Fitness>
45.4608

> <Gold.PLP.PLP>
-40.2343

> <Gold.PLP.part.hbond>
-2.0000

> <Gold.PLP.part.metal>
0.0000

> <Gold.PLP.part.buried>
-3.5323

> <Gold.PLP.part.nonpolar>
-35.7941

> <Gold.PLP.part.repulsive>
0.4431

> <Gold.PLP.ligand.clash>
0.0000

> <Gold.PLP.ligand.torsion>
0.3967

> <Gold.PLP.Chemscore.Hbond>
1.0000

> <Gold.PLP.Chemscore.CHOScore>
1.0000

> <Gold.PLP.Chemscore.Metal>
0.0000

> <Gold.Chemscore.Hbonds>
donor molecule, donor type, donor heavy atom, donor atom, acceptor molecule, acceptor atom, score
      L1  H    19    43       P1 10175  1.00
      L1  C    21    44       P1  7957  1.00

> <Gold.PLP.Chemscore.Internal.Correction>
0.0200

> <Gold.Rescore>
     Score         DG    S(hbond)    S(metal)    S(lipo)     H(rot)  DE(clash)    DE(int)     intcor
     14.53     -16.45       1.00        0.00     111.97       2.13       0.10       1.82       ----

> <Gold.Chemscore.Fitness>
14.5251

> <Gold.Chemscore.DG>
-16.4452

> <Gold.Chemscore.ZeroCoef>
-5.4800

> <Gold.Chemscore.Hbond>
0.9961

> <Gold.Chemscore.Metal>
0.0000

> <Gold.Chemscore.Lipo>
111.9664

> <Gold.Chemscore.Internal_Hbond>
0.0000

> <Gold.Chemscore.DEClash>
0.1045

> <Gold.Chemscore.DEInternal>
1.8156

> <Gold.Chemscore.Rot>
2.1335

> <Gold.Chemscore.Internal.Correction>
   9.000000E+99

> <Gold.Chemscore.Hbonds>
donor molecule, donor type, donor heavy atom, donor atom, acceptor molecule, acceptor atom, score
      L1  H    19    43       P1 10175  1.00

> <Gold.Chemscore.Hbond.Weighted>
-3.3270

> <Gold.Chemscore.Metal.Weighted>
-0.0000

> <Gold.Chemscore.Lipo.Weighted>
-13.1001

> <Gold.Chemscore.Internal_Hbond.Weighted>
0.0000

> <Gold.Chemscore.DEClash.Weighted>
0.1045

> <Gold.Chemscore.DEInternal.Weighted>
1.8156

> <Gold.Chemscore.Rot.Weighted>
5.4618

> <Gold.Chemscore.Internal.Correction.Weighted>
   9.000000E+99

> <Gold.Protein.RotatedTorsions>
[ 6907 6896 6895 6894 ] final -116.61 input  -60.11 | X-H torsion
[ 7974 7965 7964 7962 ] final  158.03 input  175.53 | X-H torsion
[ 8008 7997 7996 7995 ] final -165.27 input   59.86 | X-H torsion
[ 10167 10162 10161 10158 ] final  -98.44 input  -65.29 | X-H torsion
[ 10718 10713 10712 10709 ] final   95.86 input   66.30 | X-H torsion
[ 10763 10752 10751 10750 ] final -118.79 input  -60.55 | X-H torsion
[ 11005 11000 10999 10996 ] final  112.43 input  -57.11 | X-H torsion

> <Gold.Protein.ActiveResidues>
 VAL166  LYS551  ARG553  GLY616  TRP617  ASP618  TYR619  PRO620  LYS621  CYS622 
 ASP623  PHE694  ASN695  SER759  ASP760  ASP761  ALA762  ILE779  LEU786  VAL792 
 PHE793  MET794  SER795  GLU796  ALA797  LYS798  CYS799  TRP800  GLU811  SER814 

> <Gold.Protein.RotatedAtoms>
  150.8070  133.8492  159.3200 H   0  0  0  0  0  0  0  0  0  0  0  0  # atno 6907 bound_to 6896
  151.6288  135.1023  160.0127 H   0  0  0  0  0  0  0  0  0  0  0  0  # atno 6908 bound_to 6896
  152.4161  133.7000  159.6475 H   0  0  0  0  0  0  0  0  0  0  0  0  # atno 6909 bound_to 6896
  144.7869  139.7422  143.6237 H   0  0  0  0  0  0  0  0  0  0  0  0  # atno 7974 bound_to 7965
  155.8474  140.0958  157.1696 H   0  0  0  0  0  0  0  0  0  0  0  0  # atno 8008 bound_to 7997
  154.3984  140.1389  156.3864 H   0  0  0  0  0  0  0  0  0  0  0  0  # atno 8009 bound_to 7997
  155.7998  140.3453  155.5399 H   0  0  0  0  0  0  0  0  0  0  0  0  # atno 8010 bound_to 7997
  140.2729  143.3332  152.0517 H   0  0  0  0  0  0  0  0  0  0  0  0  # atno 10167 bound_to 10162
  157.6934  131.0559  150.4403 H   0  0  0  0  0  0  0  0  0  0  0  0  # atno 10718 bound_to 10713
  154.8598  135.4261  154.2196 H   0  0  0  0  0  0  0  0  0  0  0  0  # atno 10763 bound_to 10752
  153.3204  135.6982  153.7042 H   0  0  0  0  0  0  0  0  0  0  0  0  # atno 10764 bound_to 10752
  153.6099  135.3521  155.2949 H   0  0  0  0  0  0  0  0  0  0  0  0  # atno 10765 bound_to 10752
  139.8927  134.9529  156.6584 H   0  0  0  0  0  0  0  0  0  0  0  0  # atno 11005 bound_to 11000
  146.2104  139.5457  142.9684 LP  0  0  0  0  0  0  0  0  0  0  0  0  # atno 17320 bound_to 7965
  145.5898  141.0371  143.2076 LP  0  0  0  0  0  0  0  0  0  0  0  0  # atno 17321 bound_to 7965
  139.4984  144.6644  151.6390 LP  0  0  0  0  0  0  0  0  0  0  0  0  # atno 17342 bound_to 10162
  140.5875  143.9839  150.6304 LP  0  0  0  0  0  0  0  0  0  0  0  0  # atno 17343 bound_to 10162
  156.4762  130.4063  149.6489 LP  0  0  0  0  0  0  0  0  0  0  0  0  # atno 17370 bound_to 10713
  156.3551  130.7452  151.2417 LP  0  0  0  0  0  0  0  0  0  0  0  0  # atno 17371 bound_to 10713
  140.7466  133.8932  155.8316 LP  0  0  0  0  0  0  0  0  0  0  0  0  # atno 17394 bound_to 11000
  141.0034  134.1119  157.4294 LP  0  0  0  0  0  0  0  0  0  0  0  0  # atno 17395 bound_to 11000

$$$$
