AV-unprocessed.smi:177|AV-procd|sdf|1442|dock2
  -GOLD-   2262019233D 1   1.00000     0.00000
 Structure written by MMmdl.
 61 65  0  0  0  0  0  0  0  0  1 V2000
  148.7601  133.1008  153.2002 C   0  0  0  0  0  0  0  0  0  0  0  0
  147.6890  132.3845  152.6046 O   0  0  0  0  0  0  0  0  0  0  0  0
  146.8575  133.1702  151.7600 C   0  0  1  0  0  0  0  0  0  0  0  0
  145.7897  132.2387  151.1642 C   0  0  0  0  0  0  0  0  0  0  0  0
  144.8136  133.0105  150.2627 C   0  0  0  0  0  0  0  0  0  0  0  0
  144.1582  134.1952  150.9936 C   0  0  1  0  0  0  0  0  0  0  0  0
  143.2495  133.7066  151.9771 O   0  0  0  0  0  0  0  0  0  0  0  0
  142.5184  134.7597  152.5963 C   0  0  0  0  0  0  0  0  0  0  0  0
  143.4848  135.7102  153.3214 C   0  0  0  0  0  0  0  0  0  0  0  0
  144.5252  136.1785  152.4044 N   0  0  0  0  0  0  0  0  0  0  0  0
  145.2922  137.2321  152.7961 C   0  0  0  0  0  0  0  0  0  0  0  0
  146.0539  137.8859  151.8775 N   0  0  0  0  0  0  0  0  0  0  0  0
  146.8030  138.9320  152.2356 C   0  0  0  0  0  0  0  0  0  0  0  0
  146.9383  139.4863  153.4407 N   0  0  0  0  0  0  0  0  0  0  0  0
  146.1821  138.8366  154.3709 C   0  0  0  0  0  0  0  0  0  0  0  0
  145.3438  137.7084  154.1386 C   0  0  0  0  0  0  0  0  0  0  0  0
  144.7568  137.3092  155.3340 N   0  0  0  0  0  0  0  0  0  0  0  0
  145.2075  138.1592  156.2146 C   0  0  0  0  0  0  0  0  0  0  0  0
  146.0579  139.1221  155.7203 N   0  0  0  0  0  0  0  0  0  0  0  0
  146.7102  140.1802  156.4795 C   0  0  0  0  0  0  0  0  0  0  0  0
  146.6951  141.5892  155.8060 C   0  0  0  0  0  0  0  0  0  0  0  0
  147.9109  141.6890  154.8430 C   0  0  0  0  0  0  0  0  0  0  0  0
  147.9430  142.8913  154.0990 O   0  0  0  0  0  0  0  0  0  0  0  0
  145.3824  141.8468  155.0210 C   0  0  0  0  0  0  0  0  0  0  0  0
  144.1651  141.9949  155.9507 C   0  0  0  0  0  0  0  0  0  0  0  0
  144.3926  143.0500  156.8768 O   0  0  0  0  0  0  0  0  0  0  0  0
  145.5011  142.8083  157.7352 C   0  0  0  0  0  0  0  0  0  0  0  0
  146.7956  142.6746  156.9096 C   0  0  0  0  0  0  0  0  0  0  0  0
  145.2081  135.1134  151.6635 C   0  0  1  0  0  0  0  0  0  0  0  0
  146.1849  134.3079  152.5517 C   0  0  0  0  0  0  0  0  0  0  0  0
  149.3558  132.4204  153.8084 H   0  0  0  0  0  0  0  0  0  0  0  0
  148.4060  133.9001  153.8504 H   0  0  0  0  0  0  0  0  0  0  0  0
  149.4163  133.5307  152.4425 H   0  0  0  0  0  0  0  0  0  0  0  0
  147.4483  133.5860  150.9413 H   0  0  0  0  0  0  0  0  0  0  0  0
  146.2691  131.4450  150.5905 H   0  0  0  0  0  0  0  0  0  0  0  0
  145.2370  131.7483  151.9670 H   0  0  0  0  0  0  0  0  0  0  0  0
  145.3538  133.3835  149.3919 H   0  0  0  0  0  0  0  0  0  0  0  0
  144.0455  132.3374  149.8804 H   0  0  0  0  0  0  0  0  0  0  0  0
  143.5915  134.7698  150.2583 H   0  0  0  0  0  0  0  0  0  0  0  0
  141.9328  135.2983  151.8499 H   0  0  0  0  0  0  0  0  0  0  0  0
  141.8106  134.3320  153.3065 H   0  0  0  0  0  0  0  0  0  0  0  0
  142.9235  136.5578  153.7170 H   0  0  0  0  0  0  0  0  0  0  0  0
  143.9414  135.2024  154.1716 H   0  0  0  0  0  0  0  0  0  0  0  0
  147.3738  139.3913  151.4419 H   0  0  0  0  0  0  0  0  0  0  0  0
  144.9267  138.1067  157.2563 H   0  0  0  0  0  0  0  0  0  0  0  0
  146.2386  140.2045  157.4604 H   0  0  0  0  0  0  0  0  0  0  0  0
  147.7398  139.8718  156.6653 H   0  0  0  0  0  0  0  0  0  0  0  0
  148.8441  141.6148  155.4022 H   0  0  0  0  0  0  0  0  0  0  0  0
  147.9051  140.8683  154.1260 H   0  0  0  0  0  0  0  0  0  0  0  0
  147.9915  143.6169  154.7027 H   0  0  0  0  0  0  0  0  0  0  0  0
  145.4688  142.7716  154.4499 H   0  0  0  0  0  0  0  0  0  0  0  0
  145.2040  141.0667  154.2819 H   0  0  0  0  0  0  0  0  0  0  0  0
  143.2786  142.2341  155.3631 H   0  0  0  0  0  0  0  0  0  0  0  0
  143.9464  141.0677  156.4806 H   0  0  0  0  0  0  0  0  0  0  0  0
  145.5911  143.6461  158.4267 H   0  0  0  0  0  0  0  0  0  0  0  0
  145.3164  141.9252  158.3472 H   0  0  0  0  0  0  0  0  0  0  0  0
  147.6390  142.4694  157.5699 H   0  0  0  0  0  0  0  0  0  0  0  0
  146.9954  143.6492  156.4638 H   0  0  0  0  0  0  0  0  0  0  0  0
  145.7909  135.5522  150.8564 H   0  0  0  0  0  0  0  0  0  0  0  0
  145.6588  133.8818  153.4062 H   0  0  0  0  0  0  0  0  0  0  0  0
  146.9396  134.9796  152.9596 H   0  0  0  0  0  0  0  0  0  0  0  0
  1  2  1  0  0  0  0
  1 31  1  0  0  0  0
  1 32  1  0  0  0  0
  1 33  1  0  0  0  0
  2  3  1  0  0  0  0
  3 30  1  0  0  0  0
  3  4  1  0  0  0  0
  3 34  1  0  0  0  0
  4  5  1  0  0  0  0
  4 35  1  0  0  0  0
  4 36  1  0  0  0  0
  5  6  1  0  0  0  0
  5 37  1  0  0  0  0
  5 38  1  0  0  0  0
  6 29  1  0  0  0  0
  6  7  1  0  0  0  0
  6 39  1  0  0  0  0
  7  8  1  0  0  0  0
  8  9  1  0  0  0  0
  8 40  1  0  0  0  0
  8 41  1  0  0  0  0
  9 10  1  0  0  0  0
  9 42  1  0  0  0  0
  9 43  1  0  0  0  0
 10 11  1  0  0  0  0
 10 29  1  0  0  0  0
 11 16  1  0  0  0  0
 11 12  2  0  0  0  0
 12 13  1  0  0  0  0
 13 14  2  0  0  0  0
 13 44  1  0  0  0  0
 14 15  1  0  0  0  0
 15 19  1  0  0  0  0
 15 16  2  0  0  0  0
 16 17  1  0  0  0  0
 17 18  2  0  0  0  0
 18 19  1  0  0  0  0
 18 45  1  0  0  0  0
 19 20  1  0  0  0  0
 20 21  1  0  0  0  0
 20 46  1  0  0  0  0
 20 47  1  0  0  0  0
 21 28  1  0  0  0  0
 21 22  1  0  0  0  0
 21 24  1  0  0  0  0
 22 23  1  0  0  0  0
 22 48  1  0  0  0  0
 22 49  1  0  0  0  0
 23 50  1  0  0  0  0
 24 25  1  0  0  0  0
 24 51  1  0  0  0  0
 24 52  1  0  0  0  0
 25 26  1  0  0  0  0
 25 53  1  0  0  0  0
 25 54  1  0  0  0  0
 26 27  1  0  0  0  0
 27 28  1  0  0  0  0
 27 55  1  0  0  0  0
 27 56  1  0  0  0  0
 28 57  1  0  0  0  0
 28 58  1  0  0  0  0
 29 30  1  0  0  0  0
 29 59  1  0  0  0  0
 30 60  1  0  0  0  0
 30 61  1  0  0  0  0
M  END
> <s_m_source_file>
AV-unprocessed.smi

> <i_m_source_file_index>
177

> <i_lp_mmshare_version>
43012

> <i_f3d_flags>
0

> <s_epik_input>
W0NIM11PW0NASF0oW0NIMl1bQ0gyXTEpW0NIMl1bQ0BIXShbQ0BASF0xMilOKFtDSDJdW0NIMl1PMiljKG5bY0hdbjMpYyhjMzQpbltjSF1uNFtDSDJdQzUoW0NIMl1bT0hdKVtDSDJdW0NIMl1PW0NIMl1bQ0gyXTU=

> <s_epik_cmdline>
J2VwaWtfcHl0aG9uJywgJy1waCcsICc3LjAnLCAnLXRuJywgJzgnLCAnLW1hJywgJzIwMCcsICctbWV0YWxfYmluZGluZycsICctaW1hZScsICc8aW5maWxlLm1hZT4nLCAnLW9tYWUnLCAnPG91dGZpbGUubWFlPic=

> <r_lp_tautomer_probability>
1

> <r_epik_Ionization_Penalty>
0.0065899

> <r_epik_Ionization_Penalty_Charging>
0

> <r_epik_Ionization_Penalty_Neutral>
0.0065899

> <r_epik_State_Penalty>
0.00470042

> <r_epik_Charging_Adjusted_Penalty>
0.00470042

> <i_epik_Tot_Q>
0

> <i_epik_Tot_abs_Q>
0

> <r_epik_Metal_State_Penalty>
-0

> <b_epik_Metal_Only>
0

> <s_lp_Force_Field>
OPLS_2005

> <r_lp_Energy>
44.6168

> <b_lp_Chiralities_Consistent>
1

> <s_lp_Variant>
AV-unprocessed.smi:177-6

> <Gold.Version>
5.8.1

> <Gold.Id.Protein>
6NUR|6NUR_protein|mol2

> <Gold.PLP.Fitness>
41.6277

> <Gold.PLP.PLP>
-36.8921

> <Gold.PLP.part.hbond>
-3.0000

> <Gold.PLP.part.metal>
0.0000

> <Gold.PLP.part.buried>
-6.6888

> <Gold.PLP.part.nonpolar>
-28.1954

> <Gold.PLP.part.repulsive>
1.8154

> <Gold.PLP.ligand.clash>
0.0000

> <Gold.PLP.ligand.torsion>
0.8881

> <Gold.PLP.Chemscore.Hbond>
1.0000

> <Gold.PLP.Chemscore.CHOScore>
1.0000

> <Gold.PLP.Chemscore.Metal>
0.0000

> <Gold.Chemscore.Hbonds>
donor molecule, donor type, donor heavy atom, donor atom, acceptor molecule, acceptor atom, score
      L1  H    23    50       P1  8028  1.00
      L1  C    13    44       P1  7957  1.00

> <Gold.PLP.Chemscore.Internal.Correction>
0.5117

> <Gold.Rescore>
     Score         DG    S(hbond)    S(metal)    S(lipo)     H(rot)  DE(clash)    DE(int)     intcor
      7.05     -10.83       1.03        0.00      72.81       2.58       0.08       3.70       ----

> <Gold.Chemscore.Fitness>
7.0453

> <Gold.Chemscore.DG>
-10.8327

> <Gold.Chemscore.ZeroCoef>
-5.4800

> <Gold.Chemscore.Hbond>
1.0300

> <Gold.Chemscore.Metal>
0.0000

> <Gold.Chemscore.Lipo>
72.8086

> <Gold.Chemscore.Internal_Hbond>
0.0000

> <Gold.Chemscore.DEClash>
0.0843

> <Gold.Chemscore.DEInternal>
3.7030

> <Gold.Chemscore.Rot>
2.5806

> <Gold.Chemscore.Internal.Correction>
   9.000000E+99

> <Gold.Chemscore.Hbonds>
donor molecule, donor type, donor heavy atom, donor atom, acceptor molecule, acceptor atom, score
      L1  H    23    50       P1  8028  0.63

> <Gold.Chemscore.Hbond.Weighted>
-3.4403

> <Gold.Chemscore.Metal.Weighted>
-0.0000

> <Gold.Chemscore.Lipo.Weighted>
-8.5186

> <Gold.Chemscore.Internal_Hbond.Weighted>
0.0000

> <Gold.Chemscore.DEClash.Weighted>
0.0843

> <Gold.Chemscore.DEInternal.Weighted>
3.7030

> <Gold.Chemscore.Rot.Weighted>
6.6062

> <Gold.Chemscore.Internal.Correction.Weighted>
   9.000000E+99

> <Gold.Protein.RotatedTorsions>
[ 6907 6896 6895 6894 ] final   15.39 input  -60.11 | X-H torsion
[ 7974 7965 7964 7962 ] final  -12.43 input  175.53 | X-H torsion
[ 8008 7997 7996 7995 ] final   12.28 input   59.86 | X-H torsion
[ 10167 10162 10161 10158 ] final   -3.62 input  -65.29 | X-H torsion
[ 10718 10713 10712 10709 ] final   26.24 input   66.30 | X-H torsion
[ 10763 10752 10751 10750 ] final -111.19 input  -60.55 | X-H torsion
[ 11005 11000 10999 10996 ] final -164.16 input  -57.11 | X-H torsion

> <Gold.Protein.ActiveResidues>
 VAL166  LYS551  ARG553  GLY616  TRP617  ASP618  TYR619  PRO620  LYS621  CYS622 
 ASP623  PHE694  ASN695  SER759  ASP760  ASP761  ALA762  ILE779  LEU786  VAL792 
 PHE793  MET794  SER795  GLU796  ALA797  LYS798  CYS799  TRP800  GLU811  SER814 

> <Gold.Protein.RotatedAtoms>
  151.8173  135.0662  160.0420 H   0  0  0  0  0  0  0  0  0  0  0  0  # atno 6907 bound_to 6896
  152.2977  133.5619  159.5606 H   0  0  0  0  0  0  0  0  0  0  0  0  # atno 6908 bound_to 6896
  150.7259  134.0253  159.3757 H   0  0  0  0  0  0  0  0  0  0  0  0  # atno 6909 bound_to 6896
  146.2152  140.3056  142.8378 H   0  0  0  0  0  0  0  0  0  0  0  0  # atno 7974 bound_to 7965
  154.8184  140.2880  155.5804 H   0  0  0  0  0  0  0  0  0  0  0  0  # atno 8008 bound_to 7997
  156.2995  140.2555  156.3017 H   0  0  0  0  0  0  0  0  0  0  0  0  # atno 8009 bound_to 7997
  154.9366  140.0382  157.2065 H   0  0  0  0  0  0  0  0  0  0  0  0  # atno 8010 bound_to 7997
  140.6897  143.6519  150.8342 H   0  0  0  0  0  0  0  0  0  0  0  0  # atno 10167 bound_to 10162
  157.2042  130.6904  149.6201 H   0  0  0  0  0  0  0  0  0  0  0  0  # atno 10718 bound_to 10713
  154.8287  135.4536  154.1000 H   0  0  0  0  0  0  0  0  0  0  0  0  # atno 10763 bound_to 10752
  153.2292  135.6903  153.7916 H   0  0  0  0  0  0  0  0  0  0  0  0  # atno 10764 bound_to 10752
  153.7305  135.3328  155.3261 H   0  0  0  0  0  0  0  0  0  0  0  0  # atno 10765 bound_to 10752
  140.5900  134.5054  157.5191 H   0  0  0  0  0  0  0  0  0  0  0  0  # atno 11005 bound_to 11000
  144.9025  140.7660  143.5858 LP  0  0  0  0  0  0  0  0  0  0  0  0  # atno 17320 bound_to 7965
  145.2983  139.1859  143.4703 LP  0  0  0  0  0  0  0  0  0  0  0  0  # atno 17321 bound_to 7965
  140.0230  143.5522  152.2792 LP  0  0  0  0  0  0  0  0  0  0  0  0  # atno 17342 bound_to 10162
  139.6287  144.7641  151.2582 LP  0  0  0  0  0  0  0  0  0  0  0  0  # atno 17343 bound_to 10162
  155.9697  130.4572  150.5956 LP  0  0  0  0  0  0  0  0  0  0  0  0  # atno 17370 bound_to 10713
  157.3737  131.0770  151.1536 LP  0  0  0  0  0  0  0  0  0  0  0  0  # atno 17371 bound_to 10713
  139.9278  134.8021  156.1017 LP  0  0  0  0  0  0  0  0  0  0  0  0  # atno 17394 bound_to 11000
  141.0941  133.6702  156.2606 LP  0  0  0  0  0  0  0  0  0  0  0  0  # atno 17395 bound_to 11000

$$$$
