AV-unprocessed.smi:2007|AV-procd|sdf|8136|dock5
  -GOLD-   2272010373D 1   1.00000     0.00000
 Structure written by MMmdl.
 37 38  0  0  0  0  0  0  0  0  2 V2000
  147.5790  141.5458  153.7537 C   0  0  0  0  0  0  0  0  0  0  0  0
  148.5167  140.8556  154.7537 C   0  0  1  0  0  0  0  0  0  0  0  0
  149.5447  139.9579  154.0260 C   0  0  0  0  0  0  0  0  0  0  0  0
  150.3244  139.0941  154.9485 N   0  3  0  0  0  0  0  0  0  0  0  0
  150.2038  137.6466  154.6487 C   0  0  0  0  0  0  0  0  0  0  0  0
  150.9721  136.8225  155.6951 C   0  0  0  0  0  0  0  0  0  0  0  0
  152.3343  137.2325  155.7162 O   0  0  0  0  0  0  0  0  0  0  0  0
  152.4736  138.6016  156.0766 C   0  0  0  0  0  0  0  0  0  0  0  0
  151.7498  139.4850  155.0459 C   0  0  0  0  0  0  0  0  0  0  0  0
  149.1756  141.8781  155.5681 N   0  0  0  0  0  0  0  0  0  0  0  0
  149.9137  141.6575  156.6667 C   0  0  0  0  0  0  0  0  0  0  0  0
  150.1578  140.5330  157.1046 O   0  0  0  0  0  0  0  0  0  0  0  0
  150.3465  142.8112  157.2042 N   0  0  0  0  0  0  0  0  0  0  0  0
  151.1809  142.9902  158.3386 C   0  0  0  0  0  0  0  0  0  0  0  0
  151.6883  141.9890  159.0674 N   0  0  0  0  0  0  0  0  0  0  0  0
  152.4768  142.4560  160.1224 C   0  0  0  0  0  0  0  0  0  0  0  0
  152.5624  143.8248  160.1797 C   0  0  0  0  0  0  0  0  0  0  0  0
  151.6517  144.5866  158.9031 S   0  0  0  0  0  0  0  0  0  0  0  0
  147.0371  140.8131  153.1549 H   0  0  0  0  0  0  0  0  0  0  0  0
  148.1307  142.1913  153.0692 H   0  0  0  0  0  0  0  0  0  0  0  0
  146.8389  142.1601  154.2677 H   0  0  0  0  0  0  0  0  0  0  0  0
  147.8894  140.2379  155.3978 H   0  0  0  0  0  0  0  0  0  0  0  0
  149.0528  139.3369  153.2758 H   0  0  0  0  0  0  0  0  0  0  0  0
  150.2305  140.6061  153.4780 H   0  0  0  0  0  0  0  0  0  0  0  0
  149.1573  137.3433  154.6475 H   0  0  0  0  0  0  0  0  0  0  0  0
  150.5968  137.4425  153.6514 H   0  0  0  0  0  0  0  0  0  0  0  0
  150.5279  136.9382  156.6852 H   0  0  0  0  0  0  0  0  0  0  0  0
  150.9258  135.7622  155.4467 H   0  0  0  0  0  0  0  0  0  0  0  0
  152.0757  138.7678  157.0790 H   0  0  0  0  0  0  0  0  0  0  0  0
  153.5337  138.8531  156.1089 H   0  0  0  0  0  0  0  0  0  0  0  0
  152.2243  139.3901  154.0679 H   0  0  0  0  0  0  0  0  0  0  0  0
  151.8291  140.5313  155.3430 H   0  0  0  0  0  0  0  0  0  0  0  0
  149.0312  142.8369  155.2857 H   0  0  0  0  0  0  0  0  0  0  0  0
  150.0477  143.6611  156.7491 H   0  0  0  0  0  0  0  0  0  0  0  0
  152.9421  141.7423  160.7860 H   0  0  0  0  0  0  0  0  0  0  0  0
  153.1044  144.4285  160.8927 H   0  0  0  0  0  0  0  0  0  0  0  0
  149.9306  139.2346  155.8685 H   0  0  0  0  0  0  0  0  0  0  0  0
  1  2  1  0  0  0  0
  1 19  1  0  0  0  0
  1 20  1  0  0  0  0
  1 21  1  0  0  0  0
  2  3  1  0  0  0  0
  2 10  1  0  0  0  0
  2 22  1  0  0  0  0
  3  4  1  0  0  0  0
  3 23  1  0  0  0  0
  3 24  1  0  0  0  0
  4  9  1  0  0  0  0
  4  5  1  0  0  0  0
  4 37  1  0  0  0  0
  5  6  1  0  0  0  0
  5 25  1  0  0  0  0
  5 26  1  0  0  0  0
  6  7  1  0  0  0  0
  6 27  1  0  0  0  0
  6 28  1  0  0  0  0
  7  8  1  0  0  0  0
  8  9  1  0  0  0  0
  8 29  1  0  0  0  0
  8 30  1  0  0  0  0
  9 31  1  0  0  0  0
  9 32  1  0  0  0  0
 10 11  1  0  0  0  0
 10 33  1  0  0  0  0
 11 12  2  0  0  0  0
 11 13  1  0  0  0  0
 13 14  1  0  0  0  0
 13 34  1  0  0  0  0
 14 18  1  0  0  0  0
 14 15  2  0  0  0  0
 15 16  1  0  0  0  0
 16 17  2  0  0  0  0
 16 35  1  0  0  0  0
 17 18  1  0  0  0  0
 17 36  1  0  0  0  0
M  CHG  1   4   1
M  END
> <s_m_source_file>
AV-unprocessed.smi

> <i_m_source_file_index>
2007

> <i_lp_mmshare_version>
43012

> <i_f3d_flags>
0

> <s_epik_input>
W0NIMl0xW0NIMl1PW0NIMl1bQ0gyXU4xW0NIMl1bQ0BASF0oW0NIM10pW05IXUMoPU8pW05IXWMybltjSF1bY0hdczI=

> <s_epik_cmdline>
J2VwaWtfcHl0aG9uJywgJy1waCcsICc3LjAnLCAnLXRuJywgJzgnLCAnLW1hJywgJzIwMCcsICctbWV0YWxfYmluZGluZycsICctaW1hZScsICc8aW5maWxlLm1hZT4nLCAnLW9tYWUnLCAnPG91dGZpbGUubWFlPic=

> <r_lp_tautomer_probability>
0.999

> <r_epik_Ionization_Penalty>
0.695848

> <r_epik_Ionization_Penalty_Charging>
0.695697

> <r_epik_Ionization_Penalty_Neutral>
0.000150585

> <r_epik_State_Penalty>
0.717972

> <r_epik_Charging_Adjusted_Penalty>
1.41367

> <i_epik_Tot_Q>
1

> <i_epik_Tot_abs_Q>
1

> <r_epik_Metal_State_Penalty>
0.763271

> <b_epik_Metal_Only>
0

> <s_lp_Force_Field>
OPLS_2005

> <r_lp_Energy>
20.6539

> <b_lp_Chiralities_Consistent>
1

> <s_lp_Variant>
AV-unprocessed.smi:2007-4

> <Gold.Version>
5.8.1

> <Gold.Id.Protein>
6NUR|6NUR_protein|mol2

> <Gold.PLP.Fitness>
42.1285

> <Gold.PLP.PLP>
-35.1001

> <Gold.PLP.part.hbond>
-3.0000

> <Gold.PLP.part.metal>
0.0000

> <Gold.PLP.part.buried>
-2.2306

> <Gold.PLP.part.nonpolar>
-30.2502

> <Gold.PLP.part.repulsive>
0.2636

> <Gold.PLP.ligand.clash>
0.0000

> <Gold.PLP.ligand.torsion>
0.8406

> <Gold.PLP.Chemscore.Hbond>
2.8960

> <Gold.PLP.Chemscore.CHOScore>
0.0000

> <Gold.PLP.Chemscore.Metal>
0.0000

> <Gold.Chemscore.Hbonds>
donor molecule, donor type, donor heavy atom, donor atom, acceptor molecule, acceptor atom, score
      L1  H    10    33       P1  8028  1.00
      L1  H    13    34       P1  8028  1.00
      P1  H 10752 10765       L1     7  0.69

> <Gold.PLP.Chemscore.Internal.Correction>
0.0218

> <Gold.Rescore>
     Score         DG    S(hbond)    S(metal)    S(lipo)     H(rot)  DE(clash)    DE(int)     intcor
     16.13     -19.85       2.88        0.00      76.23       1.63       0.04       3.69       ----

> <Gold.Chemscore.Fitness>
16.1314

> <Gold.Chemscore.DG>
-19.8537

> <Gold.Chemscore.ZeroCoef>
-5.4800

> <Gold.Chemscore.Hbond>
2.8830

> <Gold.Chemscore.Metal>
0.0000

> <Gold.Chemscore.Lipo>
76.2295

> <Gold.Chemscore.Internal_Hbond>
0.0000

> <Gold.Chemscore.DEClash>
0.0358

> <Gold.Chemscore.DEInternal>
3.6865

> <Gold.Chemscore.Rot>
1.6306

> <Gold.Chemscore.Internal.Correction>
   9.000000E+99

> <Gold.Chemscore.Hbonds>
donor molecule, donor type, donor heavy atom, donor atom, acceptor molecule, acceptor atom, score
      L1  H    10    33       P1  8028  0.97
      L1  H    13    34       P1  8028  0.98
      P1  H 10752 10765       L1     7  0.11

> <Gold.Chemscore.Hbond.Weighted>
-9.6292

> <Gold.Chemscore.Metal.Weighted>
-0.0000

> <Gold.Chemscore.Lipo.Weighted>
-8.9188

> <Gold.Chemscore.Internal_Hbond.Weighted>
0.0000

> <Gold.Chemscore.DEClash.Weighted>
0.0358

> <Gold.Chemscore.DEInternal.Weighted>
3.6865

> <Gold.Chemscore.Rot.Weighted>
4.1743

> <Gold.Chemscore.Internal.Correction.Weighted>
   9.000000E+99

> <Gold.Protein.RotatedTorsions>
[ 6907 6896 6895 6894 ] final   81.96 input  -60.11 | X-H torsion
[ 7974 7965 7964 7962 ] final   74.41 input  175.53 | X-H torsion
[ 8008 7997 7996 7995 ] final   97.20 input   59.86 | X-H torsion
[ 10167 10162 10161 10158 ] final  108.56 input  -65.29 | X-H torsion
[ 10718 10713 10712 10709 ] final   -0.43 input   66.30 | X-H torsion
[ 10763 10752 10751 10750 ] final -157.94 input  -60.55 | X-H torsion
[ 11005 11000 10999 10996 ] final  -38.59 input  -57.11 | X-H torsion

> <Gold.Protein.ActiveResidues>
 VAL166  LYS551  ARG553  GLY616  TRP617  ASP618  TYR619  PRO620  LYS621  CYS622 
 ASP623  PHE694  ASN695  SER759  ASP760  ASP761  ALA762  ILE779  LEU786  VAL792 
 PHE793  MET794  SER795  GLU796  ALA797  LYS798  CYS799  TRP800  GLU811  SER814 

> <Gold.Protein.RotatedAtoms>
  152.5285  134.3123  159.9117 H   0  0  0  0  0  0  0  0  0  0  0  0  # atno 6907 bound_to 6896
  151.3072  133.4090  159.2652 H   0  0  0  0  0  0  0  0  0  0  0  0  # atno 6908 bound_to 6896
  151.0069  134.9382  159.8042 H   0  0  0  0  0  0  0  0  0  0  0  0  # atno 6909 bound_to 6896
  145.7286  139.2675  143.1554 H   0  0  0  0  0  0  0  0  0  0  0  0  # atno 7974 bound_to 7965
  156.0876  140.3262  155.7774 H   0  0  0  0  0  0  0  0  0  0  0  0  # atno 8008 bound_to 7997
  155.5049  140.0572  157.2950 H   0  0  0  0  0  0  0  0  0  0  0  0  # atno 8009 bound_to 7997
  154.4619  140.1970  156.0239 H   0  0  0  0  0  0  0  0  0  0  0  0  # atno 8010 bound_to 7997
  139.6836  144.7116  151.1471 H   0  0  0  0  0  0  0  0  0  0  0  0  # atno 10167 bound_to 10162
  156.8206  130.5455  149.5698 H   0  0  0  0  0  0  0  0  0  0  0  0  # atno 10718 bound_to 10713
  154.7596  135.3114  154.8403 H   0  0  0  0  0  0  0  0  0  0  0  0  # atno 10763 bound_to 10752
  153.9168  135.6800  153.4753 H   0  0  0  0  0  0  0  0  0  0  0  0  # atno 10764 bound_to 10752
  153.1196  135.4829  154.9104 H   0  0  0  0  0  0  0  0  0  0  0  0  # atno 10765 bound_to 10752
  141.0039  133.6941  156.2074 H   0  0  0  0  0  0  0  0  0  0  0  0  # atno 11005 bound_to 11000
  146.0559  140.8021  142.9758 LP  0  0  0  0  0  0  0  0  0  0  0  0  # atno 17320 bound_to 7965
  144.6898  140.3123  143.7246 LP  0  0  0  0  0  0  0  0  0  0  0  0  # atno 17321 bound_to 7965
  140.7660  143.5662  150.9045 LP  0  0  0  0  0  0  0  0  0  0  0  0  # atno 17342 bound_to 10162
  139.9336  143.6464  152.3070 LP  0  0  0  0  0  0  0  0  0  0  0  0  # atno 17343 bound_to 10162
  156.0991  130.5955  150.9864 LP  0  0  0  0  0  0  0  0  0  0  0  0  # atno 17370 bound_to 10713
  157.6459  131.0904  150.8155 LP  0  0  0  0  0  0  0  0  0  0  0  0  # atno 17371 bound_to 10713
  140.6844  134.4732  157.5589 LP  0  0  0  0  0  0  0  0  0  0  0  0  # atno 17394 bound_to 11000
  139.9053  134.8463  156.1731 LP  0  0  0  0  0  0  0  0  0  0  0  0  # atno 17395 bound_to 11000

$$$$
