AV-unprocessed.smi:1762|AV-procd|sdf|7101|dock4
  -GOLD-   22720 8323D 1   1.00000     0.00000
 Structure written by MMmdl.
 52 53  0  0  0  0  0  0  0  0  1 V2000
  153.4080  142.2117  162.1478 C   0  0  0  0  0  0  0  0  0  0  0  0
  152.4532  142.4513  160.9728 C   0  0  2  0  0  0  0  0  0  0  0  0
  152.5833  141.3674  159.8872 C   0  0  0  0  0  0  0  0  0  0  0  0
  151.7340  141.6349  158.7146 N   0  0  0  0  0  0  0  0  0  0  0  0
  151.7826  140.5818  157.6617 C   0  0  1  0  0  0  0  0  0  0  0  0
  151.4767  139.1623  158.1960 C   0  0  0  0  0  0  0  0  0  0  0  0
  152.3888  138.3558  158.3823 O   0  0  0  0  0  0  0  0  0  0  0  0
  150.1864  138.8714  158.4260 N   0  0  0  0  0  0  0  0  0  0  0  0
  149.6936  137.6001  158.9418 C   0  0  0  0  0  0  0  0  0  0  0  0
  148.1717  137.6319  159.1613 C   0  0  0  0  0  0  0  0  0  0  0  0
  147.7419  136.7597  160.3255 C   0  0  0  0  0  0  0  0  0  0  0  0
  147.7197  135.3543  160.2018 C   0  0  0  0  0  0  0  0  0  0  0  0
  147.3043  134.5896  161.3090 C   0  0  0  0  0  0  0  0  0  0  0  0
  146.9280  135.2563  162.4909 C   0  0  0  0  0  0  0  0  0  0  0  0
  146.9831  136.6642  162.5125 C   0  0  0  0  0  0  0  0  0  0  0  0
  147.3787  137.4070  161.4560 N   0  0  0  0  0  0  0  0  0  0  0  0
  150.9240  140.8847  156.3872 C   0  0  0  0  0  0  0  0  0  0  0  0
  149.4675  141.2806  156.7001 C   0  0  0  0  0  0  0  0  0  0  0  0
  150.9571  139.7566  155.3353 C   0  0  0  0  0  0  0  0  0  0  0  0
  152.0608  142.9718  158.2023 C   0  0  0  0  0  0  0  0  0  0  0  0
  151.9753  144.0779  159.2731 C   0  0  1  0  0  0  0  0  0  0  0  0
  150.5305  144.4481  159.6532 C   0  0  0  0  0  0  0  0  0  0  0  0
  152.7533  143.7260  160.4150 O   0  0  0  0  0  0  0  0  0  0  0  0
  153.2109  141.2509  162.6238 H   0  0  0  0  0  0  0  0  0  0  0  0
  153.2946  142.9868  162.9060 H   0  0  0  0  0  0  0  0  0  0  0  0
  154.4478  142.2163  161.8198 H   0  0  0  0  0  0  0  0  0  0  0  0
  151.4342  142.4552  161.3605 H   0  0  0  0  0  0  0  0  0  0  0  0
  153.6253  141.2818  159.5741 H   0  0  0  0  0  0  0  0  0  0  0  0
  152.3238  140.4225  160.3628 H   0  0  0  0  0  0  0  0  0  0  0  0
  152.8174  140.5417  157.3142 H   0  0  0  0  0  0  0  0  0  0  0  0
  149.4983  139.5870  158.2414 H   0  0  0  0  0  0  0  0  0  0  0  0
  149.9504  136.8223  158.2221 H   0  0  0  0  0  0  0  0  0  0  0  0
  150.2098  137.3480  159.8698 H   0  0  0  0  0  0  0  0  0  0  0  0
  147.8365  138.6542  159.3421 H   0  0  0  0  0  0  0  0  0  0  0  0
  147.6573  137.2983  158.2588 H   0  0  0  0  0  0  0  0  0  0  0  0
  148.0114  134.8726  159.2799 H   0  0  0  0  0  0  0  0  0  0  0  0
  147.2733  133.5116  161.2522 H   0  0  0  0  0  0  0  0  0  0  0  0
  146.6046  134.7026  163.3599 H   0  0  0  0  0  0  0  0  0  0  0  0
  146.7005  137.2082  163.4015 H   0  0  0  0  0  0  0  0  0  0  0  0
  151.3789  141.7308  155.8747 H   0  0  0  0  0  0  0  0  0  0  0  0
  148.9084  140.4578  157.1450 H   0  0  0  0  0  0  0  0  0  0  0  0
  148.9421  141.5753  155.7914 H   0  0  0  0  0  0  0  0  0  0  0  0
  149.4199  142.1252  157.3876 H   0  0  0  0  0  0  0  0  0  0  0  0
  150.4195  138.8682  155.6682 H   0  0  0  0  0  0  0  0  0  0  0  0
  151.9811  139.4626  155.1045 H   0  0  0  0  0  0  0  0  0  0  0  0
  150.4937  140.0815  154.4034 H   0  0  0  0  0  0  0  0  0  0  0  0
  153.0682  142.9642  157.7825 H   0  0  0  0  0  0  0  0  0  0  0  0
  151.3931  143.2582  157.3925 H   0  0  0  0  0  0  0  0  0  0  0  0
  152.4330  144.9776  158.8611 H   0  0  0  0  0  0  0  0  0  0  0  0
  149.9906  144.8363  158.7893 H   0  0  0  0  0  0  0  0  0  0  0  0
  150.5159  145.2182  160.4244 H   0  0  0  0  0  0  0  0  0  0  0  0
  149.9708  143.5900  160.0250 H   0  0  0  0  0  0  0  0  0  0  0  0
  1  2  1  0  0  0  0
  1 24  1  0  0  0  0
  1 25  1  0  0  0  0
  1 26  1  0  0  0  0
  2 23  1  0  0  0  0
  2  3  1  0  0  0  0
  2 27  1  0  0  0  0
  3  4  1  0  0  0  0
  3 28  1  0  0  0  0
  3 29  1  0  0  0  0
  4  5  1  0  0  0  0
  4 20  1  0  0  0  0
  5  6  1  0  0  0  0
  5 17  1  0  0  0  0
  5 30  1  0  0  0  0
  6  7  2  0  0  0  0
  6  8  1  0  0  0  0
  8  9  1  0  0  0  0
  8 31  1  0  0  0  0
  9 10  1  0  0  0  0
  9 32  1  0  0  0  0
  9 33  1  0  0  0  0
 10 11  1  0  0  0  0
 10 34  1  0  0  0  0
 10 35  1  0  0  0  0
 11 16  1  0  0  0  0
 11 12  2  0  0  0  0
 12 13  1  0  0  0  0
 12 36  1  0  0  0  0
 13 14  2  0  0  0  0
 13 37  1  0  0  0  0
 14 15  1  0  0  0  0
 14 38  1  0  0  0  0
 15 16  2  0  0  0  0
 15 39  1  0  0  0  0
 17 18  1  0  0  0  0
 17 19  1  0  0  0  0
 17 40  1  0  0  0  0
 18 41  1  0  0  0  0
 18 42  1  0  0  0  0
 18 43  1  0  0  0  0
 19 44  1  0  0  0  0
 19 45  1  0  0  0  0
 19 46  1  0  0  0  0
 20 21  1  0  0  0  0
 20 47  1  0  0  0  0
 20 48  1  0  0  0  0
 21 22  1  0  0  0  0
 21 23  1  0  0  0  0
 21 49  1  0  0  0  0
 22 50  1  0  0  0  0
 22 51  1  0  0  0  0
 22 52  1  0  0  0  0
M  END
> <s_m_source_file>
AV-unprocessed.smi

> <i_m_source_file_index>
1762

> <i_lp_mmshare_version>
43012

> <i_f3d_flags>
0

> <s_epik_input>
W0NIM11bQ0BASF0xW0NIMl1OKFtDSDJdW0NASF0oTzEpW0NIM10pW0NAQEhdKFtDSF0oW0NIM10pW0NIM10pQyg9TylbTkhdW0NIMl1bQ0gyXWMyW2NIXVtjSF1bY0hdW2NIXW4y

> <s_epik_cmdline>
J2VwaWtfcHl0aG9uJywgJy1waCcsICc3LjAnLCAnLXRuJywgJzgnLCAnLW1hJywgJzIwMCcsICctbWV0YWxfYmluZGluZycsICctaW1hZScsICc8aW5maWxlLm1hZT4nLCAnLW9tYWUnLCAnPG91dGZpbGUubWFlPic=

> <r_epik_Ionization_Penalty>
0.0399736

> <r_epik_Ionization_Penalty_Charging>
0

> <r_epik_Ionization_Penalty_Neutral>
0.0399736

> <r_epik_State_Penalty>
0.0317634

> <r_epik_Charging_Adjusted_Penalty>
0.0317634

> <i_epik_Tot_Q>
0

> <i_epik_Tot_abs_Q>
0

> <r_epik_Metal_State_Penalty>
0.0307795

> <b_epik_Metal_Only>
0

> <s_lp_Force_Field>
OPLS_2005

> <r_lp_Energy>
29.8059

> <b_lp_Chiralities_Consistent>
1

> <s_lp_Variant>
AV-unprocessed.smi:1762-3

> <Gold.Version>
5.8.1

> <Gold.Id.Protein>
6NUR|6NUR_protein|mol2

> <Gold.PLP.Fitness>
53.7346

> <Gold.PLP.PLP>
-49.6165

> <Gold.PLP.part.hbond>
-2.0000

> <Gold.PLP.part.metal>
0.0000

> <Gold.PLP.part.buried>
-5.4490

> <Gold.PLP.part.nonpolar>
-41.3332

> <Gold.PLP.part.repulsive>
0.1781

> <Gold.PLP.ligand.clash>
0.0000

> <Gold.PLP.ligand.torsion>
0.8270

> <Gold.PLP.Chemscore.Hbond>
1.7920

> <Gold.PLP.Chemscore.CHOScore>
0.0000

> <Gold.PLP.Chemscore.Metal>
0.0000

> <Gold.Chemscore.Hbonds>
donor molecule, donor type, donor heavy atom, donor atom, acceptor molecule, acceptor atom, score
      P1  H  6931  6943       L1    16  0.80
      P1  H  6934  6947       L1    16  0.90

> <Gold.PLP.Chemscore.Internal.Correction>
0.3961

> <Gold.Rescore>
     Score         DG    S(hbond)    S(metal)    S(lipo)     H(rot)  DE(clash)    DE(int)     intcor
     19.05     -20.09       1.09        0.00     128.77       1.60       0.00       1.03       ----

> <Gold.Chemscore.Fitness>
19.0542

> <Gold.Chemscore.DG>
-20.0881

> <Gold.Chemscore.ZeroCoef>
-5.4800

> <Gold.Chemscore.Hbond>
1.0886

> <Gold.Chemscore.Metal>
0.0000

> <Gold.Chemscore.Lipo>
128.7725

> <Gold.Chemscore.Internal_Hbond>
0.0000

> <Gold.Chemscore.DEClash>
0.0009

> <Gold.Chemscore.DEInternal>
1.0330

> <Gold.Chemscore.Rot>
1.5993

> <Gold.Chemscore.Internal.Correction>
   9.000000E+99

> <Gold.Chemscore.Hbonds>
donor molecule, donor type, donor heavy atom, donor atom, acceptor molecule, acceptor atom, score
      P1  H  6931  6943       L1    16  0.16
      P1  H  6934  6947       L1    16  0.39

> <Gold.Chemscore.Hbond.Weighted>
-3.6358

> <Gold.Chemscore.Metal.Weighted>
-0.0000

> <Gold.Chemscore.Lipo.Weighted>
-15.0664

> <Gold.Chemscore.Internal_Hbond.Weighted>
0.0000

> <Gold.Chemscore.DEClash.Weighted>
0.0009

> <Gold.Chemscore.DEInternal.Weighted>
1.0330

> <Gold.Chemscore.Rot.Weighted>
4.0941

> <Gold.Chemscore.Internal.Correction.Weighted>
   9.000000E+99

> <Gold.Protein.RotatedTorsions>
[ 6907 6896 6895 6894 ] final   67.15 input  -60.11 | X-H torsion
[ 7974 7965 7964 7962 ] final  -31.00 input  175.53 | X-H torsion
[ 8008 7997 7996 7995 ] final   74.96 input   59.86 | X-H torsion
[ 10167 10162 10161 10158 ] final  -44.48 input  -65.29 | X-H torsion
[ 10718 10713 10712 10709 ] final  -39.94 input   66.30 | X-H torsion
[ 10763 10752 10751 10750 ] final   45.89 input  -60.55 | X-H torsion
[ 11005 11000 10999 10996 ] final   81.44 input  -57.11 | X-H torsion

> <Gold.Protein.ActiveResidues>
 VAL166  LYS551  ARG553  GLY616  TRP617  ASP618  TYR619  PRO620  LYS621  CYS622 
 ASP623  PHE694  ASN695  SER759  ASP760  ASP761  ALA762  ILE779  LEU786  VAL792 
 PHE793  MET794  SER795  GLU796  ALA797  LYS798  CYS799  TRP800  GLU811  SER814 

> <Gold.Protein.RotatedAtoms>
  152.4532  134.5349  159.9821 H   0  0  0  0  0  0  0  0  0  0  0  0  # atno 6907 bound_to 6896
  151.5416  133.3426  159.2944 H   0  0  0  0  0  0  0  0  0  0  0  0  # atno 6908 bound_to 6896
  150.8467  134.7810  159.7039 H   0  0  0  0  0  0  0  0  0  0  0  0  # atno 6909 bound_to 6896
  146.1100  140.5612  142.8782 H   0  0  0  0  0  0  0  0  0  0  0  0  # atno 7974 bound_to 7965
  155.8059  140.3475  155.5429 H   0  0  0  0  0  0  0  0  0  0  0  0  # atno 8008 bound_to 7997
  155.8490  140.0953  157.1707 H   0  0  0  0  0  0  0  0  0  0  0  0  # atno 8009 bound_to 7997
  154.4007  140.1380  156.3809 H   0  0  0  0  0  0  0  0  0  0  0  0  # atno 8010 bound_to 7997
  140.6895  143.2928  151.3501 H   0  0  0  0  0  0  0  0  0  0  0  0  # atno 10167 bound_to 10162
  156.2868  130.4223  149.8279 H   0  0  0  0  0  0  0  0  0  0  0  0  # atno 10718 bound_to 10713
  152.9818  135.6025  154.3510 H   0  0  0  0  0  0  0  0  0  0  0  0  # atno 10763 bound_to 10752
  154.3199  135.2770  155.2526 H   0  0  0  0  0  0  0  0  0  0  0  0  # atno 10764 bound_to 10752
  154.4698  135.5945  153.6369 H   0  0  0  0  0  0  0  0  0  0  0  0  # atno 10765 bound_to 10752
  139.9098  134.7997  156.2042 H   0  0  0  0  0  0  0  0  0  0  0  0  # atno 11005 bound_to 11000
  144.7504  140.5175  143.6806 LP  0  0  0  0  0  0  0  0  0  0  0  0  # atno 17320 bound_to 7965
  145.5682  139.1482  143.3303 LP  0  0  0  0  0  0  0  0  0  0  0  0  # atno 17321 bound_to 7965
  139.6284  144.0769  152.2455 LP  0  0  0  0  0  0  0  0  0  0  0  0  # atno 17342 bound_to 10162
  140.0235  144.6135  150.7546 LP  0  0  0  0  0  0  0  0  0  0  0  0  # atno 17343 bound_to 10162
  156.5707  130.8423  151.3355 LP  0  0  0  0  0  0  0  0  0  0  0  0  # atno 17370 bound_to 10713
  157.7331  130.9725  150.1960 LP  0  0  0  0  0  0  0  0  0  0  0  0  # atno 17371 bound_to 10713
  141.0506  133.6891  156.1764 LP  0  0  0  0  0  0  0  0  0  0  0  0  # atno 17394 bound_to 11000
  140.6817  134.4760  157.5589 LP  0  0  0  0  0  0  0  0  0  0  0  0  # atno 17395 bound_to 11000

$$$$
