AV-unprocessed.smi:3135|AV-procd|sdf|11947|dock4
  -GOLD-   2272017343D 1   1.00000     0.00000
 Structure written by MMmdl.
 37 38  0  0  0  0  0  0  0  0  1 V2000
  153.0967  142.8946  162.6565 C   0  0  0  0  0  0  0  0  0  0  0  0
  152.5607  143.5304  161.4064 C   0  0  0  0  0  0  0  0  0  0  0  0
  151.9039  144.7873  161.2801 C   0  0  0  0  0  0  0  0  0  0  0  0
  151.5513  145.0607  160.0347 N   0  0  0  0  0  0  0  0  0  0  0  0
  151.9735  143.9948  159.3214 N   0  0  0  0  0  0  0  0  0  0  0  0
  151.7478  143.9484  157.8870 C   0  0  0  0  0  0  0  0  0  0  0  0
  151.3027  142.5548  157.4370 C   0  0  0  0  0  0  0  0  0  0  0  0
  151.8471  141.5527  157.9006 O   0  0  0  0  0  0  0  0  0  0  0  0
  150.3105  142.5051  156.5345 N   0  0  0  0  0  0  0  0  0  0  0  0
  149.7386  141.2824  155.9844 C   0  0  0  0  0  0  0  0  0  0  0  0
  150.8390  140.2991  155.5410 C   0  0  0  0  0  0  0  0  0  0  0  0
  150.3127  138.9553  155.3116 N   0  0  0  0  0  0  0  0  0  0  0  0
  149.4877  138.9130  154.1097 C   0  0  0  0  0  0  0  0  0  0  0  0
  151.4316  138.0461  155.1199 C   0  0  0  0  0  0  0  0  0  0  0  0
  152.6949  138.3140  155.9063 C   0  0  0  0  0  0  0  0  0  0  0  0
  152.6595  138.5865  154.4221 C   0  0  0  0  0  0  0  0  0  0  0  0
  152.5811  143.0533  160.1263 C   0  0  0  0  0  0  0  0  0  0  0  0
  153.6415  143.6119  163.2703 H   0  0  0  0  0  0  0  0  0  0  0  0
  153.7830  142.0772  162.4344 H   0  0  0  0  0  0  0  0  0  0  0  0
  152.2966  142.4850  163.2730 H   0  0  0  0  0  0  0  0  0  0  0  0
  151.6733  145.5048  162.0537 H   0  0  0  0  0  0  0  0  0  0  0  0
  150.9974  144.6977  157.6307 H   0  0  0  0  0  0  0  0  0  0  0  0
  152.6648  144.2204  157.3618 H   0  0  0  0  0  0  0  0  0  0  0  0
  149.9215  143.3777  156.2075 H   0  0  0  0  0  0  0  0  0  0  0  0
  149.0805  140.8158  156.7194 H   0  0  0  0  0  0  0  0  0  0  0  0
  149.1113  141.5711  155.1420 H   0  0  0  0  0  0  0  0  0  0  0  0
  151.3524  140.6642  154.6499 H   0  0  0  0  0  0  0  0  0  0  0  0
  151.5887  140.2455  156.3320 H   0  0  0  0  0  0  0  0  0  0  0  0
  149.1432  137.8955  153.9216 H   0  0  0  0  0  0  0  0  0  0  0  0
  150.0438  139.2489  153.2332 H   0  0  0  0  0  0  0  0  0  0  0  0
  148.6011  139.5374  154.2135 H   0  0  0  0  0  0  0  0  0  0  0  0
  151.2185  136.9950  154.9310 H   0  0  0  0  0  0  0  0  0  0  0  0
  152.7087  139.1740  156.5732 H   0  0  0  0  0  0  0  0  0  0  0  0
  153.2652  137.4519  156.2460 H   0  0  0  0  0  0  0  0  0  0  0  0
  153.2063  137.9066  153.7721 H   0  0  0  0  0  0  0  0  0  0  0  0
  152.6480  139.6274  154.1035 H   0  0  0  0  0  0  0  0  0  0  0  0
  152.9768  142.1323  159.7240 H   0  0  0  0  0  0  0  0  0  0  0  0
  1  2  1  0  0  0  0
  1 18  1  0  0  0  0
  1 19  1  0  0  0  0
  1 20  1  0  0  0  0
  2 17  2  0  0  0  0
  2  3  1  0  0  0  0
  3  4  2  0  0  0  0
  3 21  1  0  0  0  0
  4  5  1  0  0  0  0
  5  6  1  0  0  0  0
  5 17  1  0  0  0  0
  6  7  1  0  0  0  0
  6 22  1  0  0  0  0
  6 23  1  0  0  0  0
  7  8  2  0  0  0  0
  7  9  1  0  0  0  0
  9 10  1  0  0  0  0
  9 24  1  0  0  0  0
 10 11  1  0  0  0  0
 10 25  1  0  0  0  0
 10 26  1  0  0  0  0
 11 12  1  0  0  0  0
 11 27  1  0  0  0  0
 11 28  1  0  0  0  0
 12 13  1  0  0  0  0
 12 14  1  0  0  0  0
 13 29  1  0  0  0  0
 13 30  1  0  0  0  0
 13 31  1  0  0  0  0
 14 16  1  0  0  0  0
 14 15  1  0  0  0  0
 14 32  1  0  0  0  0
 15 16  1  0  0  0  0
 15 33  1  0  0  0  0
 15 34  1  0  0  0  0
 16 35  1  0  0  0  0
 16 36  1  0  0  0  0
 17 37  1  0  0  0  0
M  END
> <s_m_source_file>
AV-unprocessed.smi

> <i_m_source_file_index>
3135

> <i_lp_mmshare_version>
43012

> <i_f3d_flags>
0

> <s_epik_input>
W0NIM11jMVtjSF1ubihbY0hdMSlbQ0gyXUMoPU8pW05IXVtDSDJdW0NIMl1OKFtDSDNdKVtDSF0yW0NIMl1bQ0gyXTI=

> <s_epik_cmdline>
J2VwaWtfcHl0aG9uJywgJy1waCcsICc3LjAnLCAnLXRuJywgJzgnLCAnLW1hJywgJzIwMCcsICctbWV0YWxfYmluZGluZycsICctaW1hZScsICc8aW5maWxlLm1hZT4nLCAnLW9tYWUnLCAnPG91dGZpbGUubWFlPic=

> <r_lp_tautomer_probability>
1

> <r_epik_Ionization_Penalty>
0.809981

> <r_epik_Ionization_Penalty_Charging>
0

> <r_epik_Ionization_Penalty_Neutral>
0.809981

> <r_epik_State_Penalty>
0.842006

> <r_epik_Charging_Adjusted_Penalty>
0.842006

> <i_epik_Tot_Q>
0

> <i_epik_Tot_abs_Q>
0

> <r_epik_Metal_State_Penalty>
0.84199

> <b_epik_Metal_Only>
0

> <s_lp_Force_Field>
OPLS_2005

> <r_lp_Energy>
14.2809

> <b_lp_Chiralities_Consistent>
1

> <s_lp_Variant>
AV-unprocessed.smi:3135-3

> <Gold.Version>
5.8.1

> <Gold.Id.Protein>
6NUR|6NUR_protein|mol2

> <Gold.PLP.Fitness>
43.0225

> <Gold.PLP.PLP>
-42.0445

> <Gold.PLP.part.hbond>
-1.0000

> <Gold.PLP.part.metal>
0.0000

> <Gold.PLP.part.buried>
-3.1618

> <Gold.PLP.part.nonpolar>
-37.4185

> <Gold.PLP.part.repulsive>
0.2525

> <Gold.PLP.ligand.clash>
0.7140

> <Gold.PLP.ligand.torsion>
1.2600

> <Gold.PLP.Chemscore.Hbond>
1.0000

> <Gold.PLP.Chemscore.CHOScore>
0.0000

> <Gold.PLP.Chemscore.Metal>
0.0000

> <Gold.Chemscore.Hbonds>
donor molecule, donor type, donor heavy atom, donor atom, acceptor molecule, acceptor atom, score
      L1  H     9    24       P1  8028  1.00

> <Gold.PLP.Chemscore.Internal.Correction>
1.2119

> <Gold.Rescore>
     Score         DG    S(hbond)    S(metal)    S(lipo)     H(rot)  DE(clash)    DE(int)     intcor
     11.93     -16.20       1.00        0.00     103.52       1.85       0.41       3.86       ----

> <Gold.Chemscore.Fitness>
11.9332

> <Gold.Chemscore.DG>
-16.1976

> <Gold.Chemscore.ZeroCoef>
-5.4800

> <Gold.Chemscore.Hbond>
0.9997

> <Gold.Chemscore.Metal>
0.0000

> <Gold.Chemscore.Lipo>
103.5153

> <Gold.Chemscore.Internal_Hbond>
0.0000

> <Gold.Chemscore.DEClash>
0.4075

> <Gold.Chemscore.DEInternal>
3.8569

> <Gold.Chemscore.Rot>
1.8487

> <Gold.Chemscore.Internal.Correction>
   9.000000E+99

> <Gold.Chemscore.Hbonds>
donor molecule, donor type, donor heavy atom, donor atom, acceptor molecule, acceptor atom, score
      L1  H     9    24       P1  8028  1.00

> <Gold.Chemscore.Hbond.Weighted>
-3.3390

> <Gold.Chemscore.Metal.Weighted>
-0.0000

> <Gold.Chemscore.Lipo.Weighted>
-12.1113

> <Gold.Chemscore.Internal_Hbond.Weighted>
0.0000

> <Gold.Chemscore.DEClash.Weighted>
0.4075

> <Gold.Chemscore.DEInternal.Weighted>
3.8569

> <Gold.Chemscore.Rot.Weighted>
4.7326

> <Gold.Chemscore.Internal.Correction.Weighted>
   9.000000E+99

> <Gold.Protein.RotatedTorsions>
[ 6907 6896 6895 6894 ] final  -55.76 input  -60.11 | X-H torsion
[ 7974 7965 7964 7962 ] final -175.52 input  175.53 | X-H torsion
[ 8008 7997 7996 7995 ] final -121.58 input   59.86 | X-H torsion
[ 10167 10162 10161 10158 ] final -161.48 input  -65.29 | X-H torsion
[ 10718 10713 10712 10709 ] final  133.77 input   66.30 | X-H torsion
[ 10763 10752 10751 10750 ] final    2.67 input  -60.55 | X-H torsion
[ 11005 11000 10999 10996 ] final   -6.82 input  -57.11 | X-H torsion

> <Gold.Protein.ActiveResidues>
 VAL166  LYS551  ARG553  GLY616  TRP617  ASP618  TYR619  PRO620  LYS621  CYS622 
 ASP623  PHE694  ASN695  SER759  ASP760  ASP761  ALA762  ILE779  LEU786  VAL792 
 PHE793  MET794  SER795  GLU796  ALA797  LYS798  CYS799  TRP800  GLU811  SER814 

> <Gold.Protein.RotatedAtoms>
  150.8224  134.7439  159.6783 H   0  0  0  0  0  0  0  0  0  0  0  0  # atno 6907 bound_to 6896
  152.4339  134.5722  159.9934 H   0  0  0  0  0  0  0  0  0  0  0  0  # atno 6908 bound_to 6896
  151.5902  133.3330  159.3062 H   0  0  0  0  0  0  0  0  0  0  0  0  # atno 6909 bound_to 6896
  144.7128  140.1309  143.6399 H   0  0  0  0  0  0  0  0  0  0  0  0  # atno 7974 bound_to 7965
  155.1503  140.0403  157.2819 H   0  0  0  0  0  0  0  0  0  0  0  0  # atno 8008 bound_to 7997
  154.6409  140.2546  155.7297 H   0  0  0  0  0  0  0  0  0  0  0  0  # atno 8009 bound_to 7997
  156.2532  140.2856  156.0802 H   0  0  0  0  0  0  0  0  0  0  0  0  # atno 8010 bound_to 7997
  139.6462  144.0168  152.2129 H   0  0  0  0  0  0  0  0  0  0  0  0  # atno 10167 bound_to 10162
  157.4740  131.1082  150.9767 H   0  0  0  0  0  0  0  0  0  0  0  0  # atno 10718 bound_to 10713
  153.2927  135.6950  153.7277 H   0  0  0  0  0  0  0  0  0  0  0  0  # atno 10763 bound_to 10752
  153.6222  135.3425  155.3015 H   0  0  0  0  0  0  0  0  0  0  0  0  # atno 10764 bound_to 10752
  154.8529  135.4389  154.2015 H   0  0  0  0  0  0  0  0  0  0  0  0  # atno 10765 bound_to 10752
  140.7061  133.8948  155.8717 H   0  0  0  0  0  0  0  0  0  0  0  0  # atno 11005 bound_to 11000
  145.9287  139.2592  143.1338 LP  0  0  0  0  0  0  0  0  0  0  0  0  # atno 17320 bound_to 7965
  145.9545  140.8883  143.0242 LP  0  0  0  0  0  0  0  0  0  0  0  0  # atno 17321 bound_to 7965
  139.9870  144.6388  150.7849 LP  0  0  0  0  0  0  0  0  0  0  0  0  # atno 17342 bound_to 10162
  140.7516  143.2975  151.3167 LP  0  0  0  0  0  0  0  0  0  0  0  0  # atno 17343 bound_to 10162
  157.0522  130.5791  149.5372 LP  0  0  0  0  0  0  0  0  0  0  0  0  # atno 17370 bound_to 10713
  156.0087  130.5177  150.7918 LP  0  0  0  0  0  0  0  0  0  0  0  0  # atno 17371 bound_to 10713
  141.0123  134.1003  157.4208 LP  0  0  0  0  0  0  0  0  0  0  0  0  # atno 17394 bound_to 11000
  139.8884  135.0097  156.6616 LP  0  0  0  0  0  0  0  0  0  0  0  0  # atno 17395 bound_to 11000

$$$$
