AV-unprocessed.smi:844|AV-procd|sdf|3924|dock2
  -GOLD-   22720 1383D 1   1.00000     0.00000
 Structure written by MMmdl.
 32 34  0  0  0  0  0  0  0  0  1 V2000
  151.5007  139.8452  158.8673 O   0  0  0  0  0  0  0  0  0  0  0  0
  151.9655  141.1660  158.6744 C   0  0  1  0  0  0  0  0  0  0  0  0
  150.8960  141.9389  157.8771 C   0  0  0  0  0  0  0  0  0  0  0  0
  150.5995  141.3097  156.6024 N   0  0  0  0  0  0  0  0  0  0  0  0
  151.3922  140.4689  155.9106 C   0  0  0  0  0  0  0  0  0  0  0  0
  150.9317  140.0136  154.7488 N   0  0  0  0  0  0  0  0  0  0  0  0
  149.6950  140.6317  154.6774 C   0  0  0  0  0  0  0  0  0  0  0  0
  148.6959  140.5716  153.6797 C   0  0  0  0  0  0  0  0  0  0  0  0
  147.4983  141.3030  153.8228 C   0  0  0  0  0  0  0  0  0  0  0  0
  147.2804  142.1028  154.9634 C   0  0  0  0  0  0  0  0  0  0  0  0
  148.2604  142.1769  155.9716 C   0  0  0  0  0  0  0  0  0  0  0  0
  149.4549  141.4473  155.8243 C   0  0  0  0  0  0  0  0  0  0  0  0
  152.3170  141.8527  159.9902 C   0  0  0  0  0  0  0  0  0  0  0  0
  151.7465  143.1040  160.3150 C   0  0  0  0  0  0  0  0  0  0  0  0
  152.0883  143.7526  161.5171 C   0  0  0  0  0  0  0  0  0  0  0  0
  153.0042  143.1558  162.4034 C   0  0  0  0  0  0  0  0  0  0  0  0
  153.3341  143.7803  163.5587 F   0  0  0  0  0  0  0  0  0  0  0  0
  153.5783  141.9102  162.0864 C   0  0  0  0  0  0  0  0  0  0  0  0
  153.2384  141.2597  160.8842 C   0  0  0  0  0  0  0  0  0  0  0  0
  153.8117  140.0680  160.5894 F   0  0  0  0  0  0  0  0  0  0  0  0
  151.5524  139.3863  158.0427 H   0  0  0  0  0  0  0  0  0  0  0  0
  152.8661  141.0807  158.0654 H   0  0  0  0  0  0  0  0  0  0  0  0
  149.9671  141.9900  158.4472 H   0  0  0  0  0  0  0  0  0  0  0  0
  151.2090  142.9688  157.7003 H   0  0  0  0  0  0  0  0  0  0  0  0
  152.3653  140.1780  156.2789 H   0  0  0  0  0  0  0  0  0  0  0  0
  148.8523  139.9628  152.8014 H   0  0  0  0  0  0  0  0  0  0  0  0
  146.7428  141.2505  153.0526 H   0  0  0  0  0  0  0  0  0  0  0  0
  146.3605  142.6599  155.0637 H   0  0  0  0  0  0  0  0  0  0  0  0
  148.0981  142.7910  156.8448 H   0  0  0  0  0  0  0  0  0  0  0  0
  151.0497  143.5765  159.6382 H   0  0  0  0  0  0  0  0  0  0  0  0
  151.6496  144.7098  161.7576 H   0  0  0  0  0  0  0  0  0  0  0  0
  154.2838  141.4541  162.7650 H   0  0  0  0  0  0  0  0  0  0  0  0
  1  2  1  0  0  0  0
  1 21  1  0  0  0  0
  2  3  1  0  0  0  0
  2 13  1  0  0  0  0
  2 22  1  0  0  0  0
  3  4  1  0  0  0  0
  3 23  1  0  0  0  0
  3 24  1  0  0  0  0
  4 12  1  0  0  0  0
  4  5  1  0  0  0  0
  5  6  2  0  0  0  0
  5 25  1  0  0  0  0
  6  7  1  0  0  0  0
  7 12  2  0  0  0  0
  7  8  1  0  0  0  0
  8  9  2  0  0  0  0
  8 26  1  0  0  0  0
  9 10  1  0  0  0  0
  9 27  1  0  0  0  0
 10 11  2  0  0  0  0
 10 28  1  0  0  0  0
 11 12  1  0  0  0  0
 11 29  1  0  0  0  0
 13 19  1  0  0  0  0
 13 14  2  0  0  0  0
 14 15  1  0  0  0  0
 14 30  1  0  0  0  0
 15 16  2  0  0  0  0
 15 31  1  0  0  0  0
 16 17  1  0  0  0  0
 16 18  1  0  0  0  0
 18 19  2  0  0  0  0
 18 32  1  0  0  0  0
 19 20  1  0  0  0  0
M  END
> <s_m_source_file>
AV-unprocessed.smi

> <i_m_source_file_index>
844

> <i_lp_mmshare_version>
43012

> <i_f3d_flags>
0

> <s_epik_input>
RmMxW2NIXWMoRilbY0hdW2NIXWMxW0NASF0oW09IXSlbQ0gyXW4oW2NIXW4yKWMoYzIzKVtjSF1bY0hdW2NIXVtjSF0z

> <s_epik_cmdline>
J2VwaWtfcHl0aG9uJywgJy1waCcsICc3LjAnLCAnLXRuJywgJzgnLCAnLW1hJywgJzIwMCcsICctbWV0YWxfYmluZGluZycsICctaW1hZScsICc8aW5maWxlLm1hZT4nLCAnLW9tYWUnLCAnPG91dGZpbGUubWFlPic=

> <r_epik_Ionization_Penalty>
0.0696514

> <r_epik_Ionization_Penalty_Charging>
0

> <r_epik_Ionization_Penalty_Neutral>
0.0696514

> <r_epik_State_Penalty>
0.0610247

> <r_epik_Charging_Adjusted_Penalty>
0.0610247

> <i_epik_Tot_Q>
0

> <i_epik_Tot_abs_Q>
0

> <r_epik_Metal_State_Penalty>
6.42746e-05

> <b_epik_Metal_Only>
0

> <s_lp_Force_Field>
OPLS_2005

> <r_lp_Energy>
12.0275

> <b_lp_Chiralities_Consistent>
1

> <s_lp_Variant>
AV-unprocessed.smi:844-2

> <Gold.Version>
5.8.1

> <Gold.Id.Protein>
6NUR|6NUR_protein|mol2

> <Gold.PLP.Fitness>
48.2592

> <Gold.PLP.PLP>
-45.9688

> <Gold.PLP.part.hbond>
-1.0000

> <Gold.PLP.part.metal>
0.0000

> <Gold.PLP.part.buried>
1.1058

> <Gold.PLP.part.nonpolar>
-45.5004

> <Gold.PLP.part.repulsive>
0.0740

> <Gold.PLP.ligand.clash>
0.0000

> <Gold.PLP.ligand.torsion>
0.3638

> <Gold.PLP.Chemscore.Hbond>
1.0000

> <Gold.PLP.Chemscore.CHOScore>
0.0000

> <Gold.PLP.Chemscore.Metal>
0.0000

> <Gold.Chemscore.Hbonds>
donor molecule, donor type, donor heavy atom, donor atom, acceptor molecule, acceptor atom, score
      P1  H  7989  7998       L1     6  0.80

> <Gold.PLP.Chemscore.Internal.Correction>
0.0181

> <Gold.Rescore>
     Score         DG    S(hbond)    S(metal)    S(lipo)     H(rot)  DE(clash)    DE(int)     intcor
     10.51     -13.79       0.00        0.00     114.78       2.00       0.66       2.62       ----

> <Gold.Chemscore.Fitness>
10.5149

> <Gold.Chemscore.DG>
-13.7921

> <Gold.Chemscore.ZeroCoef>
-5.4800

> <Gold.Chemscore.Hbond>
0.0038

> <Gold.Chemscore.Metal>
0.0000

> <Gold.Chemscore.Lipo>
114.7839

> <Gold.Chemscore.Internal_Hbond>
0.0000

> <Gold.Chemscore.DEClash>
0.6601

> <Gold.Chemscore.DEInternal>
2.6170

> <Gold.Chemscore.Rot>
2.0040

> <Gold.Chemscore.Internal.Correction>
   9.000000E+99

> <Gold.Chemscore.Hbonds>
donor molecule, donor type, donor heavy atom, donor atom, acceptor molecule, acceptor atom, score
      P1  H  7989  7998       L1     6  0.08

> <Gold.Chemscore.Hbond.Weighted>
-0.0127

> <Gold.Chemscore.Metal.Weighted>
-0.0000

> <Gold.Chemscore.Lipo.Weighted>
-13.4297

> <Gold.Chemscore.Internal_Hbond.Weighted>
0.0000

> <Gold.Chemscore.DEClash.Weighted>
0.6601

> <Gold.Chemscore.DEInternal.Weighted>
2.6170

> <Gold.Chemscore.Rot.Weighted>
5.1303

> <Gold.Chemscore.Internal.Correction.Weighted>
   9.000000E+99

> <Gold.Protein.RotatedTorsions>
[ 6907 6896 6895 6894 ] final  155.10 input  -60.11 | X-H torsion
[ 7974 7965 7964 7962 ] final   40.89 input  175.53 | X-H torsion
[ 8008 7997 7996 7995 ] final   39.29 input   59.86 | X-H torsion
[ 10167 10162 10161 10158 ] final  124.22 input  -65.29 | X-H torsion
[ 10718 10713 10712 10709 ] final   67.79 input   66.30 | X-H torsion
[ 10763 10752 10751 10750 ] final   60.62 input  -60.55 | X-H torsion
[ 11005 11000 10999 10996 ] final  -79.66 input  -57.11 | X-H torsion

> <Gold.Protein.ActiveResidues>
 VAL166  LYS551  ARG553  GLY616  TRP617  ASP618  TYR619  PRO620  LYS621  CYS622 
 ASP623  PHE694  ASN695  SER759  ASP760  ASP761  ALA762  ILE779  LEU786  VAL792 
 PHE793  MET794  SER795  GLU796  ALA797  LYS798  CYS799  TRP800  GLU811  SER814 

> <Gold.Protein.RotatedAtoms>
  152.0490  133.4010  159.4368 H   0  0  0  0  0  0  0  0  0  0  0  0  # atno 6907 bound_to 6896
  150.6871  134.3329  159.4844 H   0  0  0  0  0  0  0  0  0  0  0  0  # atno 6908 bound_to 6896
  152.1137  134.9255  160.0616 H   0  0  0  0  0  0  0  0  0  0  0  0  # atno 6909 bound_to 6896
  146.0868  139.5480  142.9501 H   0  0  0  0  0  0  0  0  0  0  0  0  # atno 7974 bound_to 7965
  155.2342  140.3340  155.4299 H   0  0  0  0  0  0  0  0  0  0  0  0  # atno 8008 bound_to 7997
  156.2282  140.1839  156.7355 H   0  0  0  0  0  0  0  0  0  0  0  0  # atno 8009 bound_to 7997
  154.5934  140.0634  156.9255 H   0  0  0  0  0  0  0  0  0  0  0  0  # atno 8010 bound_to 7997
  139.5754  144.6960  151.3668 H   0  0  0  0  0  0  0  0  0  0  0  0  # atno 10167 bound_to 10162
  157.6251  130.9339  150.0290 H   0  0  0  0  0  0  0  0  0  0  0  0  # atno 10718 bound_to 10713
  152.9926  135.5530  154.5902 H   0  0  0  0  0  0  0  0  0  0  0  0  # atno 10763 bound_to 10752
  154.5266  135.2811  155.1219 H   0  0  0  0  0  0  0  0  0  0  0  0  # atno 10764 bound_to 10752
  154.2551  135.6391  153.5307 H   0  0  0  0  0  0  0  0  0  0  0  0  # atno 10765 bound_to 10752
  141.1667  133.7115  156.8156 H   0  0  0  0  0  0  0  0  0  0  0  0  # atno 11005 bound_to 11000
  145.6115  141.0339  143.1964 LP  0  0  0  0  0  0  0  0  0  0  0  0  # atno 17320 bound_to 7965
  144.7331  139.7665  143.7339 LP  0  0  0  0  0  0  0  0  0  0  0  0  # atno 17321 bound_to 7965
  140.7037  143.7569  150.7445 LP  0  0  0  0  0  0  0  0  0  0  0  0  # atno 17342 bound_to 10162
  140.1087  143.4720  152.2383 LP  0  0  0  0  0  0  0  0  0  0  0  0  # atno 17343 bound_to 10162
  156.1419  130.3642  149.9570 LP  0  0  0  0  0  0  0  0  0  0  0  0  # atno 17370 bound_to 10713
  156.7609  130.9150  151.3641 LP  0  0  0  0  0  0  0  0  0  0  0  0  # atno 17371 bound_to 10713
  140.2156  134.8795  157.3322 LP  0  0  0  0  0  0  0  0  0  0  0  0  # atno 17394 bound_to 11000
  140.2041  134.4219  155.7647 LP  0  0  0  0  0  0  0  0  0  0  0  0  # atno 17395 bound_to 11000

$$$$
