AV-unprocessed.smi:219|AV-procd|sdf|1679|dock5
  -GOLD-   2262020113D 1   1.00000     0.00000
 Structure written by MMmdl.
 50 53  0  0  0  0  0  0  0  0  1 V2000
  147.9376  130.5429  152.9169 N   0  0  0  0  0  0  0  0  0  0  0  0
  147.7076  131.8020  153.2973 C   0  0  0  0  0  0  0  0  0  0  0  0
  147.4389  132.0976  154.4598 O   0  0  0  0  0  0  0  0  0  0  0  0
  147.7523  132.8789  152.2067 C   0  0  0  0  0  0  0  0  0  0  0  0
  146.3691  133.2721  151.6090 C   0  0  1  0  0  0  0  0  0  0  0  0
  145.8733  132.1202  150.7039 C   0  0  0  0  0  0  0  0  0  0  0  0
  144.4958  132.4106  150.0947 C   0  0  0  0  0  0  0  0  0  0  0  0
  143.4924  132.7225  151.2088 C   0  0  0  0  0  0  0  0  0  0  0  0
  144.0053  133.8830  152.0708 C   0  0  0  0  0  0  0  0  0  0  0  0
  145.3369  133.6007  152.6121 N   0  0  0  0  0  0  0  0  0  0  0  0
  145.6808  134.5188  153.5432 C   0  0  0  0  0  0  0  0  0  0  0  0
  146.0028  134.1217  154.8032 N   0  0  0  0  0  0  0  0  0  0  0  0
  146.3245  135.0337  155.7257 C   0  0  0  0  0  0  0  0  0  0  0  0
  146.3826  136.3618  155.6027 N   0  0  0  0  0  0  0  0  0  0  0  0
  146.0552  136.7593  154.3393 C   0  0  0  0  0  0  0  0  0  0  0  0
  145.7040  135.9081  153.2551 C   0  0  0  0  0  0  0  0  0  0  0  0
  145.4412  136.6615  152.1191 N   0  0  0  0  0  0  0  0  0  0  0  0
  145.6225  137.8932  152.5113 C   0  0  0  0  0  0  0  0  0  0  0  0
  145.9799  138.0452  153.8329 N   0  0  0  0  0  0  0  0  0  0  0  0
  146.2351  139.2965  154.5303 C   0  0  0  0  0  0  0  0  0  0  0  0
  147.4399  140.0891  153.9684 C   0  0  1  0  0  0  0  0  0  0  0  0
  147.1691  140.4618  152.6285 O   0  0  0  0  0  0  0  0  0  0  0  0
  147.7332  141.3555  154.7644 C   0  0  0  0  0  0  0  0  0  0  0  0
  149.2362  141.5249  154.5906 C   0  0  0  0  0  0  0  0  0  0  0  0
  149.7118  140.1923  154.6687 O   0  0  0  0  0  0  0  0  0  0  0  0
  148.7875  139.3367  154.0029 C   0  0  0  0  0  0  0  0  0  0  0  0
  147.9230  129.8025  153.6032 H   0  0  0  0  0  0  0  0  0  0  0  0
  148.1302  130.3352  151.9479 H   0  0  0  0  0  0  0  0  0  0  0  0
  148.2163  133.7526  152.6664 H   0  0  0  0  0  0  0  0  0  0  0  0
  148.4348  132.5735  151.4122 H   0  0  0  0  0  0  0  0  0  0  0  0
  146.4968  134.1517  150.9759 H   0  0  0  0  0  0  0  0  0  0  0  0
  146.5889  131.9393  149.9009 H   0  0  0  0  0  0  0  0  0  0  0  0
  145.8211  131.1973  151.2838 H   0  0  0  0  0  0  0  0  0  0  0  0
  144.5647  133.2566  149.4097 H   0  0  0  0  0  0  0  0  0  0  0  0
  144.1550  131.5574  149.5076 H   0  0  0  0  0  0  0  0  0  0  0  0
  142.5217  132.9736  150.7812 H   0  0  0  0  0  0  0  0  0  0  0  0
  143.3420  131.8388  151.8305 H   0  0  0  0  0  0  0  0  0  0  0  0
  144.0396  134.7930  151.4695 H   0  0  0  0  0  0  0  0  0  0  0  0
  143.3046  134.0671  152.8868 H   0  0  0  0  0  0  0  0  0  0  0  0
  146.5658  134.6446  156.7036 H   0  0  0  0  0  0  0  0  0  0  0  0
  145.4947  138.7310  151.8414 H   0  0  0  0  0  0  0  0  0  0  0  0
  145.3308  139.9047  154.4849 H   0  0  0  0  0  0  0  0  0  0  0  0
  146.3960  139.0681  155.5846 H   0  0  0  0  0  0  0  0  0  0  0  0
  147.9886  140.5258  152.1626 H   0  0  0  0  0  0  0  0  0  0  0  0
  147.1620  142.2247  154.4354 H   0  0  0  0  0  0  0  0  0  0  0  0
  147.5155  141.1973  155.8217 H   0  0  0  0  0  0  0  0  0  0  0  0
  149.4740  141.9444  153.6118 H   0  0  0  0  0  0  0  0  0  0  0  0
  149.6829  142.1578  155.3575 H   0  0  0  0  0  0  0  0  0  0  0  0
  148.7302  138.4020  154.5592 H   0  0  0  0  0  0  0  0  0  0  0  0
  149.1530  139.0992  153.0024 H   0  0  0  0  0  0  0  0  0  0  0  0
  1  2  1  0  0  0  0
  1 27  1  0  0  0  0
  1 28  1  0  0  0  0
  2  3  2  0  0  0  0
  2  4  1  0  0  0  0
  4  5  1  0  0  0  0
  4 29  1  0  0  0  0
  4 30  1  0  0  0  0
  5 10  1  0  0  0  0
  5  6  1  0  0  0  0
  5 31  1  0  0  0  0
  6  7  1  0  0  0  0
  6 32  1  0  0  0  0
  6 33  1  0  0  0  0
  7  8  1  0  0  0  0
  7 34  1  0  0  0  0
  7 35  1  0  0  0  0
  8  9  1  0  0  0  0
  8 36  1  0  0  0  0
  8 37  1  0  0  0  0
  9 10  1  0  0  0  0
  9 38  1  0  0  0  0
  9 39  1  0  0  0  0
 10 11  1  0  0  0  0
 11 16  1  0  0  0  0
 11 12  2  0  0  0  0
 12 13  1  0  0  0  0
 13 14  2  0  0  0  0
 13 40  1  0  0  0  0
 14 15  1  0  0  0  0
 15 19  1  0  0  0  0
 15 16  2  0  0  0  0
 16 17  1  0  0  0  0
 17 18  2  0  0  0  0
 18 19  1  0  0  0  0
 18 41  1  0  0  0  0
 19 20  1  0  0  0  0
 20 21  1  0  0  0  0
 20 42  1  0  0  0  0
 20 43  1  0  0  0  0
 21 26  1  0  0  0  0
 21 22  1  0  0  0  0
 21 23  1  0  0  0  0
 22 44  1  0  0  0  0
 23 24  1  0  0  0  0
 23 45  1  0  0  0  0
 23 46  1  0  0  0  0
 24 25  1  0  0  0  0
 24 47  1  0  0  0  0
 24 48  1  0  0  0  0
 25 26  1  0  0  0  0
 26 49  1  0  0  0  0
 26 50  1  0  0  0  0
M  END
> <s_m_source_file>
AV-unprocessed.smi

> <i_m_source_file_index>
219

> <i_lp_mmshare_version>
43012

> <i_f3d_flags>
0

> <s_epik_input>
W05IMl1DKD1PKVtDSDJdW0NAQEhdMVtDSDJdW0NIMl1bQ0gyXVtDSDJdTjFjKG5bY0hdbjIpYyhjMjMpbltjSF1uM1tDSDJdW0NAQF00KFtPSF0pW0NIMl1bQ0gyXU9bQ0gyXTQ=

> <s_epik_cmdline>
J2VwaWtfcHl0aG9uJywgJy1waCcsICc3LjAnLCAnLXRuJywgJzgnLCAnLW1hJywgJzIwMCcsICctbWV0YWxfYmluZGluZycsICctaW1hZScsICc8aW5maWxlLm1hZT4nLCAnLW9tYWUnLCAnPG91dGZpbGUubWFlPic=

> <r_lp_tautomer_probability>
1

> <r_epik_Ionization_Penalty>
0.00228532

> <r_epik_Ionization_Penalty_Charging>
0

> <r_epik_Ionization_Penalty_Neutral>
0.00228532

> <r_epik_State_Penalty>
0.00140978

> <r_epik_Charging_Adjusted_Penalty>
0.00140978

> <i_epik_Tot_Q>
0

> <i_epik_Tot_abs_Q>
0

> <r_epik_Metal_State_Penalty>
-0

> <b_epik_Metal_Only>
0

> <s_lp_Force_Field>
OPLS_2005

> <r_lp_Energy>
37.1625

> <b_lp_Chiralities_Consistent>
1

> <s_lp_Variant>
AV-unprocessed.smi:219-2

> <Gold.Version>
5.8.1

> <Gold.Id.Protein>
6NUR|6NUR_protein|mol2

> <Gold.PLP.Fitness>
42.5959

> <Gold.PLP.PLP>
-31.9995

> <Gold.PLP.part.hbond>
-2.6304

> <Gold.PLP.part.metal>
0.0000

> <Gold.PLP.part.buried>
0.1308

> <Gold.PLP.part.nonpolar>
-29.2337

> <Gold.PLP.part.repulsive>
0.5243

> <Gold.PLP.ligand.clash>
0.0000

> <Gold.PLP.ligand.torsion>
0.6429

> <Gold.PLP.Chemscore.Hbond>
2.2324

> <Gold.PLP.Chemscore.CHOScore>
1.6360

> <Gold.PLP.Chemscore.Metal>
0.0000

> <Gold.Chemscore.Hbonds>
donor molecule, donor type, donor heavy atom, donor atom, acceptor molecule, acceptor atom, score
      L1  H     1    28       P1 10747  0.98
      L1  H    22    44       P1  7957  1.00
      P1  H  7989  7998       L1    25  0.09
      L1  C    18    41       P1 10171  0.71
      L1  C    18    41       P1 10175  0.67

> <Gold.PLP.Chemscore.Internal.Correction>
0.2773

> <Gold.Rescore>
     Score         DG    S(hbond)    S(metal)    S(lipo)     H(rot)  DE(clash)    DE(int)     intcor
      9.24     -12.03       1.89        0.00      75.80       3.37       0.15       2.63       ----

> <Gold.Chemscore.Fitness>
9.2436

> <Gold.Chemscore.DG>
-12.0263

> <Gold.Chemscore.ZeroCoef>
-5.4800

> <Gold.Chemscore.Hbond>
1.8873

> <Gold.Chemscore.Metal>
0.0000

> <Gold.Chemscore.Lipo>
75.8045

> <Gold.Chemscore.Internal_Hbond>
0.0000

> <Gold.Chemscore.DEClash>
0.1519

> <Gold.Chemscore.DEInternal>
2.6308

> <Gold.Chemscore.Rot>
3.3697

> <Gold.Chemscore.Internal.Correction>
   9.000000E+99

> <Gold.Chemscore.Hbonds>
donor molecule, donor type, donor heavy atom, donor atom, acceptor molecule, acceptor atom, score
      L1  H     1    28       P1 10747  0.91
      L1  H    22    44       P1  7957  0.99

> <Gold.Chemscore.Hbond.Weighted>
-6.3036

> <Gold.Chemscore.Metal.Weighted>
-0.0000

> <Gold.Chemscore.Lipo.Weighted>
-8.8691

> <Gold.Chemscore.Internal_Hbond.Weighted>
0.0000

> <Gold.Chemscore.DEClash.Weighted>
0.1519

> <Gold.Chemscore.DEInternal.Weighted>
2.6308

> <Gold.Chemscore.Rot.Weighted>
8.6264

> <Gold.Chemscore.Internal.Correction.Weighted>
   9.000000E+99

> <Gold.Protein.RotatedTorsions>
[ 6907 6896 6895 6894 ] final  161.86 input  -60.11 | X-H torsion
[ 7974 7965 7964 7962 ] final   75.80 input  175.53 | X-H torsion
[ 8008 7997 7996 7995 ] final  -93.47 input   59.86 | X-H torsion
[ 10167 10162 10161 10158 ] final  -76.47 input  -65.29 | X-H torsion
[ 10718 10713 10712 10709 ] final   71.65 input   66.30 | X-H torsion
[ 10763 10752 10751 10750 ] final -130.56 input  -60.55 | X-H torsion
[ 11005 11000 10999 10996 ] final  171.98 input  -57.11 | X-H torsion

> <Gold.Protein.ActiveResidues>
 VAL166  LYS551  ARG553  GLY616  TRP617  ASP618  TYR619  PRO620  LYS621  CYS622 
 ASP623  PHE694  ASN695  SER759  ASP760  ASP761  ALA762  ILE779  LEU786  VAL792 
 PHE793  MET794  SER795  GLU796  ALA797  LYS798  CYS799  TRP800  GLU811  SER814 

> <Gold.Protein.RotatedAtoms>
  151.9492  133.3660  159.3993 H   0  0  0  0  0  0  0  0  0  0  0  0  # atno 6907 bound_to 6896
  150.6984  134.4358  159.5279 H   0  0  0  0  0  0  0  0  0  0  0  0  # atno 6908 bound_to 6896
  152.2029  134.8572  160.0557 H   0  0  0  0  0  0  0  0  0  0  0  0  # atno 6909 bound_to 6896
  145.7109  139.2614  143.1651 H   0  0  0  0  0  0  0  0  0  0  0  0  # atno 7974 bound_to 7965
  154.7361  140.0498  157.0769 H   0  0  0  0  0  0  0  0  0  0  0  0  # atno 8008 bound_to 7997
  155.0239  140.3150  155.4764 H   0  0  0  0  0  0  0  0  0  0  0  0  # atno 8009 bound_to 7997
  156.2853  140.2162  156.5358 H   0  0  0  0  0  0  0  0  0  0  0  0  # atno 8010 bound_to 7997
  140.4854  143.2392  151.7992 H   0  0  0  0  0  0  0  0  0  0  0  0  # atno 10167 bound_to 10162
  157.6462  130.9539  150.0819 H   0  0  0  0  0  0  0  0  0  0  0  0  # atno 10718 bound_to 10713
  154.8755  135.3858  154.4103 H   0  0  0  0  0  0  0  0  0  0  0  0  # atno 10763 bound_to 10752
  153.4817  135.7030  153.5939 H   0  0  0  0  0  0  0  0  0  0  0  0  # atno 10764 bound_to 10752
  153.4351  135.3869  155.2162 H   0  0  0  0  0  0  0  0  0  0  0  0  # atno 10765 bound_to 10752
  140.3248  134.7407  157.4091 H   0  0  0  0  0  0  0  0  0  0  0  0  # atno 11005 bound_to 11000
  146.0713  140.7866  142.9687 LP  0  0  0  0  0  0  0  0  0  0  0  0  # atno 17320 bound_to 7965
  144.6942  140.3346  143.7210 LP  0  0  0  0  0  0  0  0  0  0  0  0  # atno 17321 bound_to 7965
  139.4841  144.4719  151.9415 LP  0  0  0  0  0  0  0  0  0  0  0  0  # atno 17342 bound_to 10162
  140.3805  144.2743  150.5909 LP  0  0  0  0  0  0  0  0  0  0  0  0  # atno 17343 bound_to 10162
  156.1793  130.3649  149.9057 LP  0  0  0  0  0  0  0  0  0  0  0  0  # atno 17370 bound_to 10713
  156.7014  130.8934  151.3600 LP  0  0  0  0  0  0  0  0  0  0  0  0  # atno 17371 bound_to 10713
  140.0911  134.5600  155.8443 LP  0  0  0  0  0  0  0  0  0  0  0  0  # atno 17394 bound_to 11000
  141.2078  133.6667  156.6328 LP  0  0  0  0  0  0  0  0  0  0  0  0  # atno 17395 bound_to 11000

$$$$
