AV-unprocessed.smi:2919|AV-procd|sdf|11195|dock10
  -GOLD-   2272016 83D 1   1.00000     0.00000
 Structure written by MMmdl.
 34 36  0  0  0  0  0  0  0  0  1 V2000
  147.5881  140.3449  153.9099 C   0  0  0  0  0  0  0  0  0  0  0  0
  148.7926  140.6171  154.7935 C   0  0  0  0  0  0  0  0  0  0  0  0
  148.6513  141.6550  155.6466 N   0  0  0  0  0  0  0  0  0  0  0  0
  149.6425  141.9903  156.4737 N   0  0  0  0  0  0  0  0  0  0  0  0
  150.8084  141.2998  156.4809 C   0  0  0  0  0  0  0  0  0  0  0  0
  151.8067  141.7135  157.3826 N   0  0  0  0  0  0  0  0  0  0  0  0
  151.4965  142.5459  158.5403 C   0  0  1  0  0  0  0  0  0  0  0  0
  152.0638  141.9884  159.8526 C   0  0  0  0  0  0  0  0  0  0  0  0
  152.9078  143.1646  160.3588 C   0  0  2  0  0  0  0  0  0  0  0  0
  152.0441  144.3552  160.7969 C   0  0  0  0  0  0  0  0  0  0  0  0
  151.5685  144.9069  159.4533 C   0  0  0  0  0  0  0  0  0  0  0  0
  152.1944  143.9144  158.4644 C   0  0  1  0  0  0  0  0  0  0  0  0
  153.4189  143.6479  159.1295 O   0  0  0  0  0  0  0  0  0  0  0  0
  151.0260  140.2001  155.6107 C   0  0  0  0  0  0  0  0  0  0  0  0
  152.2858  139.4589  155.6213 C   0  0  0  0  0  0  0  0  0  0  0  0
  153.2830  138.8722  155.6296 N   0  0  0  0  0  0  0  0  0  0  0  0
  149.9755  139.8412  154.7289 C   0  0  0  0  0  0  0  0  0  0  0  0
  150.1200  138.6709  153.7591 C   0  0  0  0  0  0  0  0  0  0  0  0
  147.8560  140.4470  152.8581 H   0  0  0  0  0  0  0  0  0  0  0  0
  146.7752  141.0425  154.1154 H   0  0  0  0  0  0  0  0  0  0  0  0
  147.2109  139.3361  154.0788 H   0  0  0  0  0  0  0  0  0  0  0  0
  152.7187  141.2817  157.3398 H   0  0  0  0  0  0  0  0  0  0  0  0
  150.4166  142.6881  158.5994 H   0  0  0  0  0  0  0  0  0  0  0  0
  151.2839  141.7000  160.5579 H   0  0  0  0  0  0  0  0  0  0  0  0
  152.6997  141.1187  159.6795 H   0  0  0  0  0  0  0  0  0  0  0  0
  153.6723  142.8806  161.0822 H   0  0  0  0  0  0  0  0  0  0  0  0
  151.2218  144.0523  161.4461 H   0  0  0  0  0  0  0  0  0  0  0  0
  152.6426  145.0984  161.3249 H   0  0  0  0  0  0  0  0  0  0  0  0
  150.4818  144.9494  159.3722 H   0  0  0  0  0  0  0  0  0  0  0  0
  151.9624  145.9109  159.2919 H   0  0  0  0  0  0  0  0  0  0  0  0
  152.3019  144.3144  157.4553 H   0  0  0  0  0  0  0  0  0  0  0  0
  150.2910  137.7452  154.3097 H   0  0  0  0  0  0  0  0  0  0  0  0
  150.9694  138.8344  153.0953 H   0  0  0  0  0  0  0  0  0  0  0  0
  149.2440  138.5185  153.1313 H   0  0  0  0  0  0  0  0  0  0  0  0
  1  2  1  0  0  0  0
  1 19  1  0  0  0  0
  1 20  1  0  0  0  0
  1 21  1  0  0  0  0
  2 17  1  0  0  0  0
  2  3  2  0  0  0  0
  3  4  1  0  0  0  0
  4  5  2  0  0  0  0
  5  6  1  0  0  0  0
  5 14  1  0  0  0  0
  6  7  1  0  0  0  0
  6 22  1  0  0  0  0
  7 12  1  0  0  0  0
  7  8  1  0  0  0  0
  7 23  1  0  0  0  0
  8  9  1  0  0  0  0
  8 24  1  0  0  0  0
  8 25  1  0  0  0  0
  9 13  1  0  0  0  0
  9 10  1  0  0  0  0
  9 26  1  0  0  0  0
 10 11  1  0  0  0  0
 10 27  1  0  0  0  0
 10 28  1  0  0  0  0
 11 12  1  0  0  0  0
 11 29  1  0  0  0  0
 11 30  1  0  0  0  0
 12 13  1  0  0  0  0
 12 31  1  0  0  0  0
 14 15  1  0  0  0  0
 14 17  2  0  0  0  0
 15 16  3  0  0  0  0
 17 18  1  0  0  0  0
 18 32  1  0  0  0  0
 18 33  1  0  0  0  0
 18 34  1  0  0  0  0
M  END
> <s_m_source_file>
AV-unprocessed.smi

> <i_m_source_file_index>
2919

> <i_lp_mmshare_version>
43012

> <i_f3d_flags>
0

> <s_epik_input>
W0NIM11jMW5uYyhjKEMjTiljMVtDSDNdKVtOSF1bQ0BIXShbQ0gyXVtDQEBIXTIzKVtDQEBIXShPMylbQ0gyXVtDSDJdMg==

> <s_epik_cmdline>
J2VwaWtfcHl0aG9uJywgJy1waCcsICc3LjAnLCAnLXRuJywgJzgnLCAnLW1hJywgJzIwMCcsICctbWV0YWxfYmluZGluZycsICctaW1hZScsICc8aW5maWxlLm1hZT4nLCAnLW9tYWUnLCAnPG91dGZpbGUubWFlPic=

> <r_lp_tautomer_probability>
1

> <r_epik_Ionization_Penalty>
0.00143865

> <r_epik_Ionization_Penalty_Charging>
0

> <r_epik_Ionization_Penalty_Neutral>
0.00143865

> <r_epik_State_Penalty>
-0

> <r_epik_Charging_Adjusted_Penalty>
0

> <i_epik_Tot_Q>
0

> <i_epik_Tot_abs_Q>
0

> <r_epik_Metal_State_Penalty>
-0

> <b_epik_Metal_Only>
0

> <s_lp_Force_Field>
OPLS_2005

> <r_lp_Energy>
49.0135

> <b_lp_Chiralities_Consistent>
1

> <s_lp_Variant>
AV-unprocessed.smi:2919-4

> <Gold.Version>
5.8.1

> <Gold.Id.Protein>
6NUR|6NUR_protein|mol2

> <Gold.PLP.Fitness>
39.6920

> <Gold.PLP.PLP>
-36.9236

> <Gold.PLP.part.hbond>
-1.0000

> <Gold.PLP.part.metal>
0.0000

> <Gold.PLP.part.buried>
-1.3402

> <Gold.PLP.part.nonpolar>
-35.8659

> <Gold.PLP.part.repulsive>
2.0798

> <Gold.PLP.ligand.clash>
0.0000

> <Gold.PLP.ligand.torsion>
0.1258

> <Gold.PLP.Chemscore.Hbond>
1.0000

> <Gold.PLP.Chemscore.CHOScore>
0.0000

> <Gold.PLP.Chemscore.Metal>
0.0000

> <Gold.Chemscore.Hbonds>
donor molecule, donor type, donor heavy atom, donor atom, acceptor molecule, acceptor atom, score
      P1  H  7997  8010       L1    16  1.00

> <Gold.PLP.Chemscore.Internal.Correction>
0.0200

> <Gold.Rescore>
     Score         DG    S(hbond)    S(metal)    S(lipo)     H(rot)  DE(clash)    DE(int)     intcor
     16.82     -17.13       0.77        0.00      99.50       1.00       0.24       0.07       ----

> <Gold.Chemscore.Fitness>
16.8173

> <Gold.Chemscore.DG>
-17.1307

> <Gold.Chemscore.ZeroCoef>
-5.4800

> <Gold.Chemscore.Hbond>
0.7692

> <Gold.Chemscore.Metal>
0.0000

> <Gold.Chemscore.Lipo>
99.5013

> <Gold.Chemscore.Internal_Hbond>
0.0000

> <Gold.Chemscore.DEClash>
0.2446

> <Gold.Chemscore.DEInternal>
0.0688

> <Gold.Chemscore.Rot>
1.0000

> <Gold.Chemscore.Internal.Correction>
   9.000000E+99

> <Gold.Chemscore.Hbonds>
donor molecule, donor type, donor heavy atom, donor atom, acceptor molecule, acceptor atom, score
      P1  H  7997  8010       L1    16  0.25

> <Gold.Chemscore.Hbond.Weighted>
-2.5691

> <Gold.Chemscore.Metal.Weighted>
-0.0000

> <Gold.Chemscore.Lipo.Weighted>
-11.6417

> <Gold.Chemscore.Internal_Hbond.Weighted>
0.0000

> <Gold.Chemscore.DEClash.Weighted>
0.2446

> <Gold.Chemscore.DEInternal.Weighted>
0.0688

> <Gold.Chemscore.Rot.Weighted>
2.5600

> <Gold.Chemscore.Internal.Correction.Weighted>
   9.000000E+99

> <Gold.Protein.RotatedTorsions>
[ 6907 6896 6895 6894 ] final -126.53 input  -60.11 | X-H torsion
[ 7974 7965 7964 7962 ] final -106.07 input  175.53 | X-H torsion
[ 8008 7997 7996 7995 ] final   83.33 input   59.86 | X-H torsion
[ 10167 10162 10161 10158 ] final  117.26 input  -65.29 | X-H torsion
[ 10718 10713 10712 10709 ] final  -16.76 input   66.30 | X-H torsion
[ 10763 10752 10751 10750 ] final  -22.47 input  -60.55 | X-H torsion
[ 11005 11000 10999 10996 ] final    0.93 input  -57.11 | X-H torsion

> <Gold.Protein.ActiveResidues>
 VAL166  LYS551  ARG553  GLY616  TRP617  ASP618  TYR619  PRO620  LYS621  CYS622 
 ASP623  PHE694  ASN695  SER759  ASP760  ASP761  ALA762  ILE779  LEU786  VAL792 
 PHE793  MET794  SER795  GLU796  ALA797  LYS798  CYS799  TRP800  GLU811  SER814 

> <Gold.Protein.RotatedAtoms>
  150.8978  133.7157  159.2886 H   0  0  0  0  0  0  0  0  0  0  0  0  # atno 6907 bound_to 6896
  151.4686  135.1042  159.9755 H   0  0  0  0  0  0  0  0  0  0  0  0  # atno 6908 bound_to 6896
  152.4859  133.8324  159.7165 H   0  0  0  0  0  0  0  0  0  0  0  0  # atno 6909 bound_to 6896
  145.2225  140.9139  143.3251 H   0  0  0  0  0  0  0  0  0  0  0  0  # atno 7974 bound_to 7965
  155.9225  140.3420  155.6184 H   0  0  0  0  0  0  0  0  0  0  0  0  # atno 8008 bound_to 7997
  155.7256  140.0789  157.2330 H   0  0  0  0  0  0  0  0  0  0  0  0  # atno 8009 bound_to 7997
  154.4072  140.1597  156.2438 H   0  0  0  0  0  0  0  0  0  0  0  0  # atno 8010 bound_to 7997
  139.6190  144.7097  151.2675 H   0  0  0  0  0  0  0  0  0  0  0  0  # atno 10167 bound_to 10162
  156.5830  130.4779  149.6312 H   0  0  0  0  0  0  0  0  0  0  0  0  # atno 10718 bound_to 10713
  153.6525  135.6980  153.5204 H   0  0  0  0  0  0  0  0  0  0  0  0  # atno 10763 bound_to 10752
  153.2695  135.4219  155.0973 H   0  0  0  0  0  0  0  0  0  0  0  0  # atno 10764 bound_to 10752
  154.8473  135.3575  154.6070 H   0  0  0  0  0  0  0  0  0  0  0  0  # atno 10765 bound_to 10752
  140.6210  133.9661  155.8225 H   0  0  0  0  0  0  0  0  0  0  0  0  # atno 11005 bound_to 11000
  144.9752  139.3839  143.6289 LP  0  0  0  0  0  0  0  0  0  0  0  0  # atno 17320 bound_to 7965
  146.3372  139.8868  142.8815 LP  0  0  0  0  0  0  0  0  0  0  0  0  # atno 17321 bound_to 7965
  140.7370  143.6691  150.8097 LP  0  0  0  0  0  0  0  0  0  0  0  0  # atno 17342 bound_to 10162
  140.0299  143.5455  152.2765 LP  0  0  0  0  0  0  0  0  0  0  0  0  # atno 17343 bound_to 10162
  156.2615  130.6965  151.1735 LP  0  0  0  0  0  0  0  0  0  0  0  0  # atno 17370 bound_to 10713
  157.7322  131.0602  150.5640 LP  0  0  0  0  0  0  0  0  0  0  0  0  # atno 17371 bound_to 10713
  141.0742  134.0160  157.3482 LP  0  0  0  0  0  0  0  0  0  0  0  0  # atno 17394 bound_to 11000
  139.9153  135.0196  156.7857 LP  0  0  0  0  0  0  0  0  0  0  0  0  # atno 17395 bound_to 11000

$$$$
