AV-unprocessed.smi:1865|AV-procd|sdf|7554|dock1
  -GOLD-   22720 9273D 1   1.00000     0.00000
 Structure written by MMmdl.
 40 41  0  0  0  0  0  0  0  0  1 V2000
  155.3591  138.9693  159.0037 O   0  0  0  0  0  0  0  0  0  0  0  0
  154.2621  139.5246  159.0712 C   0  0  0  0  0  0  0  0  0  0  0  0
  154.1223  140.8921  159.7473 C   0  0  0  0  0  0  0  0  0  0  0  0
  152.9785  141.7402  159.1589 C   0  0  0  0  0  0  0  0  0  0  0  0
  153.0052  143.2028  159.6374 C   0  0  0  0  0  0  0  0  0  0  0  0
  151.6875  143.9446  159.4056 C   0  0  0  0  0  0  0  0  0  0  0  0
  152.0563  145.4263  159.5098 C   0  0  0  0  0  0  0  0  0  0  0  0
  153.5293  145.5264  159.0869 C   0  0  0  0  0  0  0  0  0  0  0  0
  154.0320  144.0862  158.9193 C   0  0  0  0  0  0  0  0  0  0  0  0
  153.1352  138.9869  158.5798 N   0  0  0  0  0  0  0  0  0  0  0  0
  153.0438  137.6912  157.9172 C   0  0  0  0  0  0  0  0  0  0  0  0
  151.7120  136.9871  158.2244 C   0  0  0  0  0  0  0  0  0  0  0  0
  151.7148  135.5415  157.7680 C   0  0  0  0  0  0  0  0  0  0  0  0
  150.5239  134.7872  157.7411 C   0  0  0  0  0  0  0  0  0  0  0  0
  150.5800  133.4464  157.3145 C   0  0  0  0  0  0  0  0  0  0  0  0
  151.8284  132.9158  156.9327 C   0  0  0  0  0  0  0  0  0  0  0  0
  152.9754  133.6285  156.9555 N   0  0  0  0  0  0  0  0  0  0  0  0
  152.9127  134.9137  157.3655 C   0  0  0  0  0  0  0  0  0  0  0  0
  153.9581  140.7511  160.8168 H   0  0  0  0  0  0  0  0  0  0  0  0
  155.0717  141.4180  159.6431 H   0  0  0  0  0  0  0  0  0  0  0  0
  153.0154  141.7148  158.0687 H   0  0  0  0  0  0  0  0  0  0  0  0
  152.0229  141.2953  159.4412 H   0  0  0  0  0  0  0  0  0  0  0  0
  153.2183  143.2249  160.7077 H   0  0  0  0  0  0  0  0  0  0  0  0
  151.3111  143.7324  158.4037 H   0  0  0  0  0  0  0  0  0  0  0  0
  150.9134  143.6573  160.1178 H   0  0  0  0  0  0  0  0  0  0  0  0
  151.4060  146.0516  158.8973 H   0  0  0  0  0  0  0  0  0  0  0  0
  151.9511  145.7589  160.5433 H   0  0  0  0  0  0  0  0  0  0  0  0
  153.6416  146.0852  158.1571 H   0  0  0  0  0  0  0  0  0  0  0  0
  154.1040  146.0492  159.8521 H   0  0  0  0  0  0  0  0  0  0  0  0
  155.0408  143.9542  159.3117 H   0  0  0  0  0  0  0  0  0  0  0  0
  154.0590  143.8361  157.8577 H   0  0  0  0  0  0  0  0  0  0  0  0
  152.2771  139.5101  158.6793 H   0  0  0  0  0  0  0  0  0  0  0  0
  153.1742  137.8132  156.8402 H   0  0  0  0  0  0  0  0  0  0  0  0
  153.8761  137.0772  158.2629 H   0  0  0  0  0  0  0  0  0  0  0  0
  151.5069  137.0234  159.2952 H   0  0  0  0  0  0  0  0  0  0  0  0
  150.8862  137.5060  157.7352 H   0  0  0  0  0  0  0  0  0  0  0  0
  149.5840  135.2257  158.0430 H   0  0  0  0  0  0  0  0  0  0  0  0
  149.6880  132.8386  157.2807 H   0  0  0  0  0  0  0  0  0  0  0  0
  151.9080  131.8912  156.6005 H   0  0  0  0  0  0  0  0  0  0  0  0
  153.8468  135.4561  157.3746 H   0  0  0  0  0  0  0  0  0  0  0  0
  1  2  2  0  0  0  0
  2  3  1  0  0  0  0
  2 10  1  0  0  0  0
  3  4  1  0  0  0  0
  3 19  1  0  0  0  0
  3 20  1  0  0  0  0
  4  5  1  0  0  0  0
  4 21  1  0  0  0  0
  4 22  1  0  0  0  0
  5  9  1  0  0  0  0
  5  6  1  0  0  0  0
  5 23  1  0  0  0  0
  6  7  1  0  0  0  0
  6 24  1  0  0  0  0
  6 25  1  0  0  0  0
  7  8  1  0  0  0  0
  7 26  1  0  0  0  0
  7 27  1  0  0  0  0
  8  9  1  0  0  0  0
  8 28  1  0  0  0  0
  8 29  1  0  0  0  0
  9 30  1  0  0  0  0
  9 31  1  0  0  0  0
 10 11  1  0  0  0  0
 10 32  1  0  0  0  0
 11 12  1  0  0  0  0
 11 33  1  0  0  0  0
 11 34  1  0  0  0  0
 12 13  1  0  0  0  0
 12 35  1  0  0  0  0
 12 36  1  0  0  0  0
 13 18  1  0  0  0  0
 13 14  2  0  0  0  0
 14 15  1  0  0  0  0
 14 37  1  0  0  0  0
 15 16  2  0  0  0  0
 15 38  1  0  0  0  0
 16 17  1  0  0  0  0
 16 39  1  0  0  0  0
 17 18  2  0  0  0  0
 18 40  1  0  0  0  0
M  END
> <s_m_source_file>
AV-unprocessed.smi

> <i_m_source_file_index>
1865

> <i_lp_mmshare_version>
43012

> <i_f3d_flags>
0

> <s_epik_input>
W0NIMl0xW0NIMl1bQ0gyXVtDSDJdW0NIXTFbQ0gyXVtDSDJdQyg9TylbTkhdW0NIMl1bQ0gyXWMyW2NIXVtjSF1bY0hdbltjSF0y

> <s_epik_cmdline>
J2VwaWtfcHl0aG9uJywgJy1waCcsICc3LjAnLCAnLXRuJywgJzgnLCAnLW1hJywgJzIwMCcsICctbWV0YWxfYmluZGluZycsICctaW1hZScsICc8aW5maWxlLm1hZT4nLCAnLW9tYWUnLCAnPG91dGZpbGUubWFlPic=

> <r_epik_Ionization_Penalty>
0.0133844

> <r_epik_Ionization_Penalty_Charging>
0

> <r_epik_Ionization_Penalty_Neutral>
0.0133844

> <r_epik_State_Penalty>
0.0104136

> <r_epik_Charging_Adjusted_Penalty>
0.0104136

> <i_epik_Tot_Q>
0

> <i_epik_Tot_abs_Q>
0

> <r_epik_Metal_State_Penalty>
0.0101831

> <b_epik_Metal_Only>
0

> <s_lp_Force_Field>
OPLS_2005

> <r_lp_Energy>
19.5978

> <b_lp_Chiralities_Consistent>
1

> <s_lp_Variant>
AV-unprocessed.smi:1865-1

> <Gold.Version>
5.8.1

> <Gold.Id.Protein>
6NUR|6NUR_protein|mol2

> <Gold.PLP.Fitness>
49.0560

> <Gold.PLP.PLP>
-47.6950

> <Gold.PLP.part.hbond>
-1.0000

> <Gold.PLP.part.metal>
0.0000

> <Gold.PLP.part.buried>
-5.0384

> <Gold.PLP.part.nonpolar>
-41.3964

> <Gold.PLP.part.repulsive>
0.0235

> <Gold.PLP.ligand.clash>
0.0000

> <Gold.PLP.ligand.torsion>
0.8793

> <Gold.PLP.Chemscore.Hbond>
1.0000

> <Gold.PLP.Chemscore.CHOScore>
0.0000

> <Gold.PLP.Chemscore.Metal>
0.0000

> <Gold.PLP.Chemscore.Internal.Correction>
0.1196

> <Gold.Rescore>
     Score         DG    S(hbond)    S(metal)    S(lipo)     H(rot)  DE(clash)    DE(int)     intcor
     19.27     -21.04       0.98        0.00     139.16       1.56       1.02       0.75       ----

> <Gold.Chemscore.Fitness>
19.2703

> <Gold.Chemscore.DG>
-21.0427

> <Gold.Chemscore.ZeroCoef>
-5.4800

> <Gold.Chemscore.Hbond>
0.9813

> <Gold.Chemscore.Metal>
0.0000

> <Gold.Chemscore.Lipo>
139.1645

> <Gold.Chemscore.Internal_Hbond>
0.0000

> <Gold.Chemscore.DEClash>
1.0213

> <Gold.Chemscore.DEInternal>
0.7511

> <Gold.Chemscore.Rot>
1.5614

> <Gold.Chemscore.Internal.Correction>
   9.000000E+99

> <Gold.Chemscore.Hbond.Weighted>
-3.2775

> <Gold.Chemscore.Metal.Weighted>
-0.0000

> <Gold.Chemscore.Lipo.Weighted>
-16.2822

> <Gold.Chemscore.Internal_Hbond.Weighted>
0.0000

> <Gold.Chemscore.DEClash.Weighted>
1.0213

> <Gold.Chemscore.DEInternal.Weighted>
0.7511

> <Gold.Chemscore.Rot.Weighted>
3.9971

> <Gold.Chemscore.Internal.Correction.Weighted>
   9.000000E+99

> <Gold.Protein.RotatedTorsions>
[ 6907 6896 6895 6894 ] final   -1.93 input  -60.11 | X-H torsion
[ 7974 7965 7964 7962 ] final  -14.34 input  175.53 | X-H torsion
[ 8008 7997 7996 7995 ] final  115.78 input   59.86 | X-H torsion
[ 10167 10162 10161 10158 ] final   63.01 input  -65.29 | X-H torsion
[ 10718 10713 10712 10709 ] final -123.61 input   66.30 | X-H torsion
[ 10763 10752 10751 10750 ] final  149.08 input  -60.55 | X-H torsion
[ 11005 11000 10999 10996 ] final -153.03 input  -57.11 | X-H torsion

> <Gold.Protein.ActiveResidues>
 VAL166  LYS551  ARG553  GLY616  TRP617  ASP618  TYR619  PRO620  LYS621  CYS622 
 ASP623  PHE694  ASN695  SER759  ASP760  ASP761  ALA762  ILE779  LEU786  VAL792 
 PHE793  MET794  SER795  GLU796  ALA797  LYS798  CYS799  TRP800  GLU811  SER814 

> <Gold.Protein.RotatedAtoms>
  151.5381  135.1068  159.9919 H   0  0  0  0  0  0  0  0  0  0  0  0  # atno 6907 bound_to 6896
  152.4548  133.7696  159.6802 H   0  0  0  0  0  0  0  0  0  0  0  0  # atno 6908 bound_to 6896
  150.8488  133.7754  159.3058 H   0  0  0  0  0  0  0  0  0  0  0  0  # atno 6909 bound_to 6896
  146.2078  140.3334  142.8401 H   0  0  0  0  0  0  0  0  0  0  0  0  # atno 7974 bound_to 7965
  156.2401  140.2931  156.0421 H   0  0  0  0  0  0  0  0  0  0  0  0  # atno 8008 bound_to 7997
  155.1976  140.0408  157.2929 H   0  0  0  0  0  0  0  0  0  0  0  0  # atno 8009 bound_to 7997
  154.6152  140.2462  155.7625 H   0  0  0  0  0  0  0  0  0  0  0  0  # atno 8010 bound_to 7997
  140.1377  144.4583  150.6828 H   0  0  0  0  0  0  0  0  0  0  0  0  # atno 10167 bound_to 10162
  156.1517  130.6539  150.9923 H   0  0  0  0  0  0  0  0  0  0  0  0  # atno 10718 bound_to 10713
  154.0653  135.2871  155.3317 H   0  0  0  0  0  0  0  0  0  0  0  0  # atno 10763 bound_to 10752
  154.6781  135.5274  153.8230 H   0  0  0  0  0  0  0  0  0  0  0  0  # atno 10764 bound_to 10752
  153.0506  135.6575  154.0839 H   0  0  0  0  0  0  0  0  0  0  0  0  # atno 10765 bound_to 10752
  140.7125  134.3817  157.5195 H   0  0  0  0  0  0  0  0  0  0  0  0  # atno 11005 bound_to 11000
  144.8836  140.7433  143.5971 LP  0  0  0  0  0  0  0  0  0  0  0  0  # atno 17320 bound_to 7965
  145.3255  139.1775  143.4565 LP  0  0  0  0  0  0  0  0  0  0  0  0  # atno 17321 bound_to 7965
  140.6779  143.2313  151.5460 LP  0  0  0  0  0  0  0  0  0  0  0  0  # atno 17342 bound_to 10162
  139.5487  144.2451  152.1491 LP  0  0  0  0  0  0  0  0  0  0  0  0  # atno 17343 bound_to 10162
  157.6662  131.0871  150.7722 LP  0  0  0  0  0  0  0  0  0  0  0  0  # atno 17370 bound_to 10713
  156.7790  130.4853  149.5404 LP  0  0  0  0  0  0  0  0  0  0  0  0  # atno 17371 bound_to 10713
  139.8868  134.8900  156.2564 LP  0  0  0  0  0  0  0  0  0  0  0  0  # atno 17394 bound_to 11000
  141.0072  133.7116  156.1054 LP  0  0  0  0  0  0  0  0  0  0  0  0  # atno 17395 bound_to 11000

$$$$
