AV-unprocessed.smi:1535|AV-procd|sdf|6180|dock7
  -GOLD-   22720 6333D 1   1.00000     0.00000
 Structure written by MMmdl.
 47 48  0  0  0  0  0  0  0  0  2 V2000
  153.0213  142.5496  161.8248 C   0  0  0  0  0  0  0  0  0  0  0  0
  152.4605  142.2966  160.4363 C   0  0  0  0  0  0  0  0  0  0  0  0
  152.8902  141.1575  159.7190 C   0  0  0  0  0  0  0  0  0  0  0  0
  152.3933  140.8862  158.4255 C   0  0  0  0  0  0  0  0  0  0  0  0
  152.6727  139.8471  157.5547 N   0  0  0  0  0  0  0  0  0  0  0  0
  151.9009  140.1518  156.5160 C   0  0  0  0  0  0  0  0  0  0  0  0
  151.1639  141.2762  156.6048 N   0  0  0  0  0  0  0  0  0  0  0  0
  150.2668  141.8171  155.6001 C   0  0  0  0  0  0  0  0  0  0  0  0
  149.5074  140.7165  154.8329 C   0  0  2  0  0  0  0  0  0  0  0  0
  150.3849  140.1728  153.8678 O   0  0  0  0  0  0  0  0  0  0  0  0
  148.2402  141.2238  154.1125 C   0  0  0  0  0  0  0  0  0  0  0  0
  147.5336  142.2555  154.9140 N   0  3  1  0  0  0  0  0  0  0  0  0
  146.4427  142.9118  154.1557 C   0  0  0  0  0  0  0  0  0  0  0  0
  147.0754  141.7609  156.2365 C   0  0  0  0  0  0  0  0  0  0  0  0
  146.2838  142.8273  157.0188 C   0  0  2  0  0  0  0  0  0  0  0  0
  146.5288  142.7139  158.5287 C   0  0  0  0  0  0  0  0  0  0  0  0
  144.8455  142.7543  156.7152 C   0  0  0  0  0  0  0  0  0  0  0  0
  143.7153  142.6932  156.4790 N   0  0  0  0  0  0  0  0  0  0  0  0
  151.4480  141.7938  157.8642 C   0  0  0  0  0  0  0  0  0  0  0  0
  151.0088  142.9277  158.5703 C   0  0  0  0  0  0  0  0  0  0  0  0
  151.5159  143.1840  159.8611 C   0  0  0  0  0  0  0  0  0  0  0  0
  151.0375  144.4124  160.6148 C   0  0  0  0  0  0  0  0  0  0  0  0
  153.7440  141.7839  162.1083 H   0  0  0  0  0  0  0  0  0  0  0  0
  152.2215  142.5453  162.5656 H   0  0  0  0  0  0  0  0  0  0  0  0
  153.5256  143.5154  161.8641 H   0  0  0  0  0  0  0  0  0  0  0  0
  153.6075  140.4796  160.1582 H   0  0  0  0  0  0  0  0  0  0  0  0
  151.8789  139.5273  155.6348 H   0  0  0  0  0  0  0  0  0  0  0  0
  149.5629  142.4915  156.0907 H   0  0  0  0  0  0  0  0  0  0  0  0
  150.8556  142.4250  154.9117 H   0  0  0  0  0  0  0  0  0  0  0  0
  149.2464  139.9208  155.5301 H   0  0  0  0  0  0  0  0  0  0  0  0
  149.9516  140.1781  153.0272 H   0  0  0  0  0  0  0  0  0  0  0  0
  148.4799  141.6481  153.1367 H   0  0  0  0  0  0  0  0  0  0  0  0
  147.5923  140.3718  153.9067 H   0  0  0  0  0  0  0  0  0  0  0  0
  145.6366  142.2082  153.9431 H   0  0  0  0  0  0  0  0  0  0  0  0
  146.8030  143.3112  153.2076 H   0  0  0  0  0  0  0  0  0  0  0  0
  146.0266  143.7448  154.7233 H   0  0  0  0  0  0  0  0  0  0  0  0
  146.4260  140.8961  156.0919 H   0  0  0  0  0  0  0  0  0  0  0  0
  147.9327  141.4096  156.8129 H   0  0  0  0  0  0  0  0  0  0  0  0
  146.6019  143.8217  156.7084 H   0  0  0  0  0  0  0  0  0  0  0  0
  145.9830  143.4864  159.0711 H   0  0  0  0  0  0  0  0  0  0  0  0
  147.5868  142.8285  158.7659 H   0  0  0  0  0  0  0  0  0  0  0  0
  146.2022  141.7462  158.9109 H   0  0  0  0  0  0  0  0  0  0  0  0
  150.2869  143.5951  158.1236 H   0  0  0  0  0  0  0  0  0  0  0  0
  150.3007  144.9719  160.0376 H   0  0  0  0  0  0  0  0  0  0  0  0
  151.8732  145.0794  160.8268 H   0  0  0  0  0  0  0  0  0  0  0  0
  150.5739  144.1258  161.5592 H   0  0  0  0  0  0  0  0  0  0  0  0
  148.2150  142.9753  155.1114 H   0  0  0  0  0  0  0  0  0  0  0  0
  1  2  1  0  0  0  0
  1 23  1  0  0  0  0
  1 24  1  0  0  0  0
  1 25  1  0  0  0  0
  2 21  1  0  0  0  0
  2  3  2  0  0  0  0
  3  4  1  0  0  0  0
  3 26  1  0  0  0  0
  4 19  2  0  0  0  0
  4  5  1  0  0  0  0
  5  6  2  0  0  0  0
  6  7  1  0  0  0  0
  6 27  1  0  0  0  0
  7  8  1  0  0  0  0
  7 19  1  0  0  0  0
  8  9  1  0  0  0  0
  8 28  1  0  0  0  0
  8 29  1  0  0  0  0
  9 10  1  0  0  0  0
  9 11  1  0  0  0  0
  9 30  1  0  0  0  0
 10 31  1  0  0  0  0
 11 12  1  0  0  0  0
 11 32  1  0  0  0  0
 11 33  1  0  0  0  0
 12 13  1  0  0  0  0
 12 14  1  0  0  0  0
 12 47  1  0  0  0  0
 13 34  1  0  0  0  0
 13 35  1  0  0  0  0
 13 36  1  0  0  0  0
 14 15  1  0  0  0  0
 14 37  1  0  0  0  0
 14 38  1  0  0  0  0
 15 16  1  0  0  0  0
 15 17  1  0  0  0  0
 15 39  1  0  0  0  0
 16 40  1  0  0  0  0
 16 41  1  0  0  0  0
 16 42  1  0  0  0  0
 17 18  3  0  0  0  0
 19 20  1  0  0  0  0
 20 21  2  0  0  0  0
 20 43  1  0  0  0  0
 21 22  1  0  0  0  0
 22 44  1  0  0  0  0
 22 45  1  0  0  0  0
 22 46  1  0  0  0  0
M  CHG  1  12   1
M  END
> <s_m_source_file>
AV-unprocessed.smi

> <i_m_source_file_index>
1535

> <i_lp_mmshare_version>
43012

> <i_f3d_flags>
0

> <s_epik_input>
W0NIM11jKFtjSF0xKWMoW0NIM10pW2NIXWMoYzEyKW4oW2NIXW4yKVtDSDJdW0NASF0oW09IXSlbQ0gyXU4oW0NIM10pW0NIMl1bQ0BIXShbQ0gzXSlDI04=

> <s_epik_cmdline>
J2VwaWtfcHl0aG9uJywgJy1waCcsICc3LjAnLCAnLXRuJywgJzgnLCAnLW1hJywgJzIwMCcsICctbWV0YWxfYmluZGluZycsICctaW1hZScsICc8aW5maWxlLm1hZT4nLCAnLW9tYWUnLCAnPG91dGZpbGUubWFlPic=

> <r_epik_Ionization_Penalty>
2.21058

> <r_epik_Ionization_Penalty_Charging>
2.12381

> <r_epik_Ionization_Penalty_Neutral>
0.0867699

> <r_epik_State_Penalty>
2.36208

> <r_epik_Charging_Adjusted_Penalty>
4.48589

> <i_epik_Tot_Q>
1

> <i_epik_Tot_abs_Q>
1

> <r_epik_Metal_State_Penalty>
2.2818

> <b_epik_Metal_Only>
0

> <s_lp_Force_Field>
OPLS_2005

> <r_lp_Energy>
13.2218

> <b_lp_Chiralities_Consistent>
1

> <s_lp_Variant>
AV-unprocessed.smi:1535-11

> <Gold.Version>
5.8.1

> <Gold.Id.Protein>
6NUR|6NUR_protein|mol2

> <Gold.PLP.Fitness>
59.0862

> <Gold.PLP.PLP>
-46.5022

> <Gold.PLP.part.hbond>
-3.9028

> <Gold.PLP.part.metal>
0.0000

> <Gold.PLP.part.buried>
-5.6447

> <Gold.PLP.part.nonpolar>
-35.8150

> <Gold.PLP.part.repulsive>
0.1377

> <Gold.PLP.ligand.clash>
0.0000

> <Gold.PLP.ligand.torsion>
1.1958

> <Gold.PLP.Chemscore.Hbond>
4.9440

> <Gold.PLP.Chemscore.CHOScore>
0.0000

> <Gold.PLP.Chemscore.Metal>
0.0000

> <Gold.Chemscore.Hbonds>
donor molecule, donor type, donor heavy atom, donor atom, acceptor molecule, acceptor atom, score
      L1  H    10    31       P1  7957  1.00
      L1  H    12    47       P1  8028  2.00
      P1  H  7989  7998       L1    10  0.68
      P1  H  7997  8008       L1     5  1.00

> <Gold.PLP.Chemscore.Internal.Correction>
0.1437

> <Gold.Rescore>
     Score         DG    S(hbond)    S(metal)    S(lipo)     H(rot)  DE(clash)    DE(int)     intcor
     20.55     -22.12       3.15        0.00     109.25       2.60       0.10       1.47       ----

> <Gold.Chemscore.Fitness>
20.5455

> <Gold.Chemscore.DG>
-22.1173

> <Gold.Chemscore.ZeroCoef>
-5.4800

> <Gold.Chemscore.Hbond>
3.1494

> <Gold.Chemscore.Metal>
0.0000

> <Gold.Chemscore.Lipo>
109.2492

> <Gold.Chemscore.Internal_Hbond>
0.0000

> <Gold.Chemscore.DEClash>
0.0990

> <Gold.Chemscore.DEInternal>
1.4728

> <Gold.Chemscore.Rot>
2.6031

> <Gold.Chemscore.Internal.Correction>
   9.000000E+99

> <Gold.Chemscore.Hbonds>
donor molecule, donor type, donor heavy atom, donor atom, acceptor molecule, acceptor atom, score
      L1  H    10    31       P1  7957  1.00
      L1  H    12    47       P1  8028  0.97
      P1  H  7989  7998       L1    10  0.13
      P1  H  7997  8008       L1     5  0.35

> <Gold.Chemscore.Hbond.Weighted>
-10.5191

> <Gold.Chemscore.Metal.Weighted>
-0.0000

> <Gold.Chemscore.Lipo.Weighted>
-12.7822

> <Gold.Chemscore.Internal_Hbond.Weighted>
0.0000

> <Gold.Chemscore.DEClash.Weighted>
0.0990

> <Gold.Chemscore.DEInternal.Weighted>
1.4728

> <Gold.Chemscore.Rot.Weighted>
6.6640

> <Gold.Chemscore.Internal.Correction.Weighted>
   9.000000E+99

> <Gold.Protein.RotatedTorsions>
[ 6907 6896 6895 6894 ] final   62.14 input  -60.11 | X-H torsion
[ 7974 7965 7964 7962 ] final  159.47 input  175.53 | X-H torsion
[ 8008 7997 7996 7995 ] final  -78.95 input   59.86 | X-H torsion
[ 10167 10162 10161 10158 ] final  -13.43 input  -65.29 | X-H torsion
[ 10718 10713 10712 10709 ] final   83.07 input   66.30 | X-H torsion
[ 10763 10752 10751 10750 ] final   34.39 input  -60.55 | X-H torsion
[ 11005 11000 10999 10996 ] final    8.99 input  -57.11 | X-H torsion

> <Gold.Protein.ActiveResidues>
 VAL166  LYS551  ARG553  GLY616  TRP617  ASP618  TYR619  PRO620  LYS621  CYS622 
 ASP623  PHE694  ASN695  SER759  ASP760  ASP761  ALA762  ILE779  LEU786  VAL792 
 PHE793  MET794  SER795  GLU796  ALA797  LYS798  CYS799  TRP800  GLU811  SER814 

> <Gold.Protein.RotatedAtoms>
  152.4147  134.6062  160.0013 H   0  0  0  0  0  0  0  0  0  0  0  0  # atno 6907 bound_to 6896
  151.6229  133.3332  159.3100 H   0  0  0  0  0  0  0  0  0  0  0  0  # atno 6908 bound_to 6896
  150.8036  134.7187  159.6690 H   0  0  0  0  0  0  0  0  0  0  0  0  # atno 6909 bound_to 6896
  144.7788  139.7622  143.6268 H   0  0  0  0  0  0  0  0  0  0  0  0  # atno 7974 bound_to 7965
  154.5738  140.0686  156.9004 H   0  0  0  0  0  0  0  0  0  0  0  0  # atno 8008 bound_to 7997
  155.2586  140.3357  155.4257 H   0  0  0  0  0  0  0  0  0  0  0  0  # atno 8009 bound_to 7997
  156.2138  140.1770  156.7619 H   0  0  0  0  0  0  0  0  0  0  0  0  # atno 8010 bound_to 7997
  140.7182  143.5427  150.9390 H   0  0  0  0  0  0  0  0  0  0  0  0  # atno 10167 bound_to 10162
  157.6871  131.0075  150.2469 H   0  0  0  0  0  0  0  0  0  0  0  0  # atno 10718 bound_to 10713
  153.0166  135.6361  154.1662 H   0  0  0  0  0  0  0  0  0  0  0  0  # atno 10763 bound_to 10752
  154.1400  135.2835  155.3165 H   0  0  0  0  0  0  0  0  0  0  0  0  # atno 10764 bound_to 10752
  154.6131  135.5550  153.7556 H   0  0  0  0  0  0  0  0  0  0  0  0  # atno 10765 bound_to 10752
  140.5308  134.0468  155.7873 H   0  0  0  0  0  0  0  0  0  0  0  0  # atno 11005 bound_to 11000
  146.1985  139.5265  142.9759 LP  0  0  0  0  0  0  0  0  0  0  0  0  # atno 17320 bound_to 7965
  145.6108  141.0340  143.1968 LP  0  0  0  0  0  0  0  0  0  0  0  0  # atno 17321 bound_to 7965
  139.9150  143.6674  152.3108 LP  0  0  0  0  0  0  0  0  0  0  0  0  # atno 17342 bound_to 10162
  139.7071  144.7626  151.1175 LP  0  0  0  0  0  0  0  0  0  0  0  0  # atno 17343 bound_to 10162
  156.3073  130.3767  149.7694 LP  0  0  0  0  0  0  0  0  0  0  0  0  # atno 17370 bound_to 10713
  156.5305  130.8255  151.3235 LP  0  0  0  0  0  0  0  0  0  0  0  0  # atno 17371 bound_to 10713
  141.1282  133.9346  157.2590 LP  0  0  0  0  0  0  0  0  0  0  0  0  # atno 17394 bound_to 11000
  139.9555  135.0166  156.9116 LP  0  0  0  0  0  0  0  0  0  0  0  0  # atno 17395 bound_to 11000

$$$$
