AV-unprocessed.smi:1897|AV-procd|sdf|7693|dock7
  -GOLD-   22720 9433D 1   1.00000     0.00000
 Structure written by MMmdl.
 38 40  0  0  0  0  0  0  0  0  3 V2000
  152.3955  143.5374  160.7667 C   0  0  0  0  0  0  0  0  0  0  0  0
  152.3055  142.6031  159.6091 C   0  0  0  0  0  0  0  0  0  0  0  0
  151.3154  142.6546  158.7145 N   0  0  0  0  0  0  0  0  0  0  0  0
  151.4477  141.6842  157.7324 N   0  0  0  0  0  0  0  0  0  0  0  0
  152.5245  140.9040  157.9056 C   0  0  0  0  0  0  0  0  0  0  0  0
  152.8257  139.8913  157.0714 N   0  5  0  0  0  0  0  0  0  0  0  0
  152.2506  139.7577  155.8481 C   0  0  0  0  0  0  0  0  0  0  0  0
  152.8936  139.6152  154.8088 O   0  0  0  0  0  0  0  0  0  0  0  0
  150.9062  139.7969  155.7798 N   0  0  0  0  0  0  0  0  0  0  0  0
  150.1108  139.7538  154.5574 C   0  0  1  0  0  0  0  0  0  0  0  0
  149.2068  138.5172  154.4697 C   0  0  0  0  0  0  0  0  0  0  0  0
  147.9562  138.9888  153.7069 C   0  0  0  0  0  0  0  0  0  0  0  0
  148.1678  140.4246  153.4167 N   0  3  1  0  0  0  0  0  0  0  0  0
  146.9471  141.2465  153.2171 C   0  0  0  0  0  0  0  0  0  0  0  0
  146.2632  141.6264  154.5411 C   0  0  0  0  0  0  0  0  0  0  0  0
  147.2610  142.2932  155.4933 C   0  0  0  0  0  0  0  0  0  0  0  0
  148.4441  141.3514  155.7396 C   0  0  0  0  0  0  0  0  0  0  0  0
  149.1341  140.9328  154.4148 C   0  0  1  0  0  0  0  0  0  0  0  0
  153.4875  141.3382  159.3165 S   0  0  0  0  0  0  0  0  0  0  0  0
  151.7555  143.1878  161.5767 H   0  0  0  0  0  0  0  0  0  0  0  0
  152.0767  144.5376  160.4720 H   0  0  0  0  0  0  0  0  0  0  0  0
  153.4220  143.5922  161.1294 H   0  0  0  0  0  0  0  0  0  0  0  0
  150.4025  139.9105  156.6475 H   0  0  0  0  0  0  0  0  0  0  0  0
  150.7774  139.7421  153.6926 H   0  0  0  0  0  0  0  0  0  0  0  0
  149.7080  137.6895  153.9670 H   0  0  0  0  0  0  0  0  0  0  0  0
  148.9204  138.1714  155.4643 H   0  0  0  0  0  0  0  0  0  0  0  0
  147.8112  138.4369  152.7779 H   0  0  0  0  0  0  0  0  0  0  0  0
  147.0686  138.8414  154.3235 H   0  0  0  0  0  0  0  0  0  0  0  0
  147.2406  142.1570  152.6930 H   0  0  0  0  0  0  0  0  0  0  0  0
  146.2525  140.7217  152.5604 H   0  0  0  0  0  0  0  0  0  0  0  0
  145.4288  142.3008  154.3459 H   0  0  0  0  0  0  0  0  0  0  0  0
  145.8367  140.7409  155.0134 H   0  0  0  0  0  0  0  0  0  0  0  0
  147.6150  143.2330  155.0680 H   0  0  0  0  0  0  0  0  0  0  0  0
  146.7738  142.5389  156.4372 H   0  0  0  0  0  0  0  0  0  0  0  0
  149.1629  141.8389  156.3992 H   0  0  0  0  0  0  0  0  0  0  0  0
  148.0892  140.4705  156.2759 H   0  0  0  0  0  0  0  0  0  0  0  0
  149.6469  141.8009  153.9979 H   0  0  0  0  0  0  0  0  0  0  0  0
  148.6645  140.4378  152.5373 H   0  0  0  0  0  0  0  0  0  0  0  0
  1  2  1  0  0  0  0
  1 20  1  0  0  0  0
  1 21  1  0  0  0  0
  1 22  1  0  0  0  0
  2 19  1  0  0  0  0
  2  3  2  0  0  0  0
  3  4  1  0  0  0  0
  4  5  2  0  0  0  0
  5  6  1  0  0  0  0
  5 19  1  0  0  0  0
  6  7  1  0  0  0  0
  7  8  2  0  0  0  0
  7  9  1  0  0  0  0
  9 10  1  0  0  0  0
  9 23  1  0  0  0  0
 10 18  1  0  0  0  0
 10 11  1  0  0  0  0
 10 24  1  0  0  0  0
 11 12  1  0  0  0  0
 11 25  1  0  0  0  0
 11 26  1  0  0  0  0
 12 13  1  0  0  0  0
 12 27  1  0  0  0  0
 12 28  1  0  0  0  0
 13 18  1  0  0  0  0
 13 14  1  0  0  0  0
 13 38  1  0  0  0  0
 14 15  1  0  0  0  0
 14 29  1  0  0  0  0
 14 30  1  0  0  0  0
 15 16  1  0  0  0  0
 15 31  1  0  0  0  0
 15 32  1  0  0  0  0
 16 17  1  0  0  0  0
 16 33  1  0  0  0  0
 16 34  1  0  0  0  0
 17 18  1  0  0  0  0
 17 35  1  0  0  0  0
 17 36  1  0  0  0  0
 18 37  1  0  0  0  0
M  CHG  1   6  -1
M  CHG  1  13   1
M  END
> <s_m_source_file>
AV-unprocessed.smi

> <i_m_source_file_index>
1897

> <i_lp_mmshare_version>
43012

> <i_f3d_flags>
0

> <s_epik_input>
W0NIM11jMW5uYyhzMSlbTkhdQyg9TylbTkhdW0NASF0oW0NIMl1bQ0gyXTIpW0NAQEhdKE4yMylbQ0gyXVtDSDJdW0NIMl1bQ0gyXTM=

> <s_epik_cmdline>
J2VwaWtfcHl0aG9uJywgJy1waCcsICc3LjAnLCAnLXRuJywgJzgnLCAnLW1hJywgJzIwMCcsICctbWV0YWxfYmluZGluZycsICctaW1hZScsICc8aW5maWxlLm1hZT4nLCAnLW9tYWUnLCAnPG91dGZpbGUubWFlPic=

> <r_lp_tautomer_probability>
1

> <r_epik_Ionization_Penalty>
3.77712

> <r_epik_Ionization_Penalty_Charging>
3.67739

> <r_epik_Ionization_Penalty_Neutral>
0.0997294

> <r_epik_State_Penalty>
3.67514

> <r_epik_Charging_Adjusted_Penalty>
7.35254

> <i_epik_Tot_Q>
0

> <i_epik_Tot_abs_Q>
2

> <r_epik_Metal_State_Penalty>
0.540795

> <b_epik_Metal_Only>
1

> <s_lp_Force_Field>
OPLS_2005

> <r_lp_Energy>
30.11

> <b_lp_Chiralities_Consistent>
1

> <s_lp_Variant>
AV-unprocessed.smi:1897-10

> <Gold.Version>
5.8.1

> <Gold.Id.Protein>
6NUR|6NUR_protein|mol2

> <Gold.PLP.Fitness>
42.6189

> <Gold.PLP.PLP>
-33.9481

> <Gold.PLP.part.hbond>
-4.0000

> <Gold.PLP.part.metal>
0.0000

> <Gold.PLP.part.buried>
-1.6127

> <Gold.PLP.part.nonpolar>
-26.7208

> <Gold.PLP.part.repulsive>
0.2821

> <Gold.PLP.ligand.clash>
0.0000

> <Gold.PLP.ligand.torsion>
0.5293

> <Gold.PLP.Chemscore.Hbond>
3.2418

> <Gold.PLP.Chemscore.CHOScore>
0.0000

> <Gold.PLP.Chemscore.Metal>
0.0000

> <Gold.Chemscore.Hbonds>
donor molecule, donor type, donor heavy atom, donor atom, acceptor molecule, acceptor atom, score
      L1  H    13    38       P1  7957  1.00
      P1  H  7989  7998       L1     8  0.28
      P1  H  7997  8008       L1     6  2.00

> <Gold.PLP.Chemscore.Internal.Correction>
0.0040

> <Gold.Rescore>
     Score         DG    S(hbond)    S(metal)    S(lipo)     H(rot)  DE(clash)    DE(int)     intcor
     16.80     -17.57       1.52        0.00      81.79       1.00       0.20       0.56       ----

> <Gold.Chemscore.Fitness>
16.8049

> <Gold.Chemscore.DG>
-17.5702

> <Gold.Chemscore.ZeroCoef>
-5.4800

> <Gold.Chemscore.Hbond>
1.5211

> <Gold.Chemscore.Metal>
0.0000

> <Gold.Chemscore.Lipo>
81.7913

> <Gold.Chemscore.Internal_Hbond>
0.0000

> <Gold.Chemscore.DEClash>
0.2050

> <Gold.Chemscore.DEInternal>
0.5604

> <Gold.Chemscore.Rot>
1.0000

> <Gold.Chemscore.Internal.Correction>
   9.000000E+99

> <Gold.Chemscore.Hbonds>
donor molecule, donor type, donor heavy atom, donor atom, acceptor molecule, acceptor atom, score
      L1  H    13    38       P1  7957  1.00
      P1  H  7989  7998       L1     8  0.06
      P1  H  7997  8008       L1     6  0.22

> <Gold.Chemscore.Hbond.Weighted>
-5.0806

> <Gold.Chemscore.Metal.Weighted>
-0.0000

> <Gold.Chemscore.Lipo.Weighted>
-9.5696

> <Gold.Chemscore.Internal_Hbond.Weighted>
0.0000

> <Gold.Chemscore.DEClash.Weighted>
0.2050

> <Gold.Chemscore.DEInternal.Weighted>
0.5604

> <Gold.Chemscore.Rot.Weighted>
2.5600

> <Gold.Chemscore.Internal.Correction.Weighted>
   9.000000E+99

> <Gold.Protein.RotatedTorsions>
[ 6907 6896 6895 6894 ] final  149.51 input  -60.11 | X-H torsion
[ 7974 7965 7964 7962 ] final   29.84 input  175.53 | X-H torsion
[ 8008 7997 7996 7995 ] final  -69.13 input   59.86 | X-H torsion
[ 10167 10162 10161 10158 ] final  -85.11 input  -65.29 | X-H torsion
[ 10718 10713 10712 10709 ] final   93.63 input   66.30 | X-H torsion
[ 10763 10752 10751 10750 ] final   96.80 input  -60.55 | X-H torsion
[ 11005 11000 10999 10996 ] final -134.90 input  -57.11 | X-H torsion

> <Gold.Protein.ActiveResidues>
 VAL166  LYS551  ARG553  GLY616  TRP617  ASP618  TYR619  PRO620  LYS621  CYS622 
 ASP623  PHE694  ASN695  SER759  ASP760  ASP761  ALA762  ILE779  LEU786  VAL792 
 PHE793  MET794  SER795  GLU796  ALA797  LYS798  CYS799  TRP800  GLU811  SER814 

> <Gold.Protein.RotatedAtoms>
  152.1270  133.4386  159.4702 H   0  0  0  0  0  0  0  0  0  0  0  0  # atno 6907 bound_to 6896
  150.6875  134.2466  159.4503 H   0  0  0  0  0  0  0  0  0  0  0  0  # atno 6908 bound_to 6896
  152.0347  134.9746  160.0623 H   0  0  0  0  0  0  0  0  0  0  0  0  # atno 6909 bound_to 6896
  146.1648  139.6868  142.9009 H   0  0  0  0  0  0  0  0  0  0  0  0  # atno 7974 bound_to 7965
  154.4916  140.0859  156.7607 H   0  0  0  0  0  0  0  0  0  0  0  0  # atno 8008 bound_to 7997
  155.4216  140.3446  155.4253 H   0  0  0  0  0  0  0  0  0  0  0  0  # atno 8009 bound_to 7997
  156.1338  140.1509  156.9014 H   0  0  0  0  0  0  0  0  0  0  0  0  # atno 8010 bound_to 7997
  140.4068  143.2639  151.9070 H   0  0  0  0  0  0  0  0  0  0  0  0  # atno 10167 bound_to 10162
  157.6953  131.0485  150.4064 H   0  0  0  0  0  0  0  0  0  0  0  0  # atno 10718 bound_to 10713
  153.2693  135.4205  155.0972 H   0  0  0  0  0  0  0  0  0  0  0  0  # atno 10763 bound_to 10752
  154.8450  135.3468  154.6267 H   0  0  0  0  0  0  0  0  0  0  0  0  # atno 10764 bound_to 10752
  153.6687  135.7045  153.5211 H   0  0  0  0  0  0  0  0  0  0  0  0  # atno 10765 bound_to 10752
  140.8948  134.1766  157.4503 H   0  0  0  0  0  0  0  0  0  0  0  0  # atno 11005 bound_to 11000
  145.4496  141.0427  143.2812 LP  0  0  0  0  0  0  0  0  0  0  0  0  # atno 17320 bound_to 7965
  144.8077  139.6021  143.7043 LP  0  0  0  0  0  0  0  0  0  0  0  0  # atno 17321 bound_to 7965
  139.4783  144.5578  151.8287 LP  0  0  0  0  0  0  0  0  0  0  0  0  # atno 17342 bound_to 10162
  140.4681  144.1626  150.5914 LP  0  0  0  0  0  0  0  0  0  0  0  0  # atno 17343 bound_to 10162
  156.4452  130.4000  149.6671 LP  0  0  0  0  0  0  0  0  0  0  0  0  # atno 17370 bound_to 10713
  156.3840  130.7593  151.2589 LP  0  0  0  0  0  0  0  0  0  0  0  0  # atno 17371 bound_to 10713
  139.8734  134.9873  156.5364 LP  0  0  0  0  0  0  0  0  0  0  0  0  # atno 17394 bound_to 11000
  140.8303  133.8284  155.8978 LP  0  0  0  0  0  0  0  0  0  0  0  0  # atno 17395 bound_to 11000

$$$$
