AV-unprocessed.smi:45|AV-procd|sdf|418|dock1
  -GOLD-   2262016293D 1   1.00000     0.00000
 Structure written by MMmdl.
 60 63  0  0  0  0  0  0  0  0  3 V2000
  157.7331  129.8295  153.1891 C   0  0  0  0  0  0  0  0  0  0  0  0
  157.3211  130.5887  154.3163 O   0  0  0  0  0  0  0  0  0  0  0  0
  155.9805  130.6003  154.6421 C   0  0  0  0  0  0  0  0  0  0  0  0
  154.9917  129.8616  153.9434 C   0  0  0  0  0  0  0  0  0  0  0  0
  153.6407  129.9235  154.3367 C   0  0  0  0  0  0  0  0  0  0  0  0
  153.2555  130.7207  155.4324 C   0  0  0  0  0  0  0  0  0  0  0  0
  151.8018  130.7862  155.8552 C   0  0  0  0  0  0  0  0  0  0  0  0
  151.3284  132.1471  156.0575 N   0  0  0  0  0  0  0  0  0  0  0  0
  150.1640  132.6182  155.4287 C   0  0  0  0  0  0  0  0  0  0  0  0
  149.4716  131.7584  154.6334 N   0  3  0  0  0  0  0  0  0  0  0  0
  148.3429  132.1451  154.0162 C   0  0  0  0  0  0  0  0  0  0  0  0
  147.6681  131.2193  153.2218 N   0  0  0  0  0  0  0  0  0  0  0  0
  148.1248  129.8384  153.1084 C   0  0  0  0  0  0  0  0  0  0  0  0
  146.8665  128.9944  152.9124 C   0  0  0  0  0  0  0  0  0  0  0  0
  145.9168  129.9574  152.2124 C   0  0  0  0  0  0  0  0  0  0  0  0
  146.2580  131.3170  152.8402 C   0  0  2  0  0  0  0  0  0  0  0  0
  145.9635  132.4977  151.8908 C   0  0  0  0  0  0  0  0  0  0  0  0
  146.6133  132.2959  150.6541 O   0  0  0  0  0  0  0  0  0  0  0  0
  147.8466  133.3805  154.1527 N   0  0  0  0  0  0  0  0  0  0  0  0
  148.4941  134.2700  154.9287 C   0  0  0  0  0  0  0  0  0  0  0  0
  149.6826  133.9405  155.6104 C   0  0  0  0  0  0  0  0  0  0  0  0
  150.4008  134.9710  156.4430 C   0  0  0  0  0  0  0  0  0  0  0  0
  151.2631  135.6701  155.8998 O   0  0  0  0  0  0  0  0  0  0  0  0
  149.9757  134.9576  157.7368 N   0  5  0  0  0  0  0  0  0  0  0  0
  148.7434  135.5961  158.2013 C   0  0  0  0  0  0  0  0  0  0  0  0
  148.4330  135.2477  159.6522 C   0  0  0  0  0  0  0  0  0  0  0  0
  148.3572  136.2656  160.5184 N   0  0  0  0  0  0  0  0  0  0  0  0
  148.0555  135.9604  161.7989 C   0  0  0  0  0  0  0  0  0  0  0  0
  147.8311  134.6317  162.2124 C   0  0  0  0  0  0  0  0  0  0  0  0
  147.9388  133.6426  161.2142 C   0  0  0  0  0  0  0  0  0  0  0  0
  148.2393  133.9531  159.9345 N   0  0  0  0  0  0  0  0  0  0  0  0
  154.2313  131.4589  156.1299 C   0  0  0  0  0  0  0  0  0  0  0  0
  155.5828  131.3993  155.7374 C   0  0  0  0  0  0  0  0  0  0  0  0
  156.7546  132.3163  156.6152 Cl  0  0  0  0  0  0  0  0  0  0  0  0
  145.6812  131.4355  153.7589 H   0  0  0  0  0  0  0  0  0  0  0  0
  158.8133  129.9174  153.0736 H   0  0  0  0  0  0  0  0  0  0  0  0
  157.2729  130.1960  152.2707 H   0  0  0  0  0  0  0  0  0  0  0  0
  157.5004  128.7711  153.3143 H   0  0  0  0  0  0  0  0  0  0  0  0
  155.2439  129.2381  153.0992 H   0  0  0  0  0  0  0  0  0  0  0  0
  152.8991  129.3563  153.7933 H   0  0  0  0  0  0  0  0  0  0  0  0
  151.1949  130.3054  155.0869 H   0  0  0  0  0  0  0  0  0  0  0  0
  151.6654  130.2160  156.7751 H   0  0  0  0  0  0  0  0  0  0  0  0
  151.8175  132.7426  156.7117 H   0  0  0  0  0  0  0  0  0  0  0  0
  148.7815  129.7589  152.2414 H   0  0  0  0  0  0  0  0  0  0  0  0
  148.6813  129.5106  153.9874 H   0  0  0  0  0  0  0  0  0  0  0  0
  147.0495  128.0827  152.3431 H   0  0  0  0  0  0  0  0  0  0  0  0
  146.4548  128.7115  153.8823 H   0  0  0  0  0  0  0  0  0  0  0  0
  146.1345  129.9642  151.1432 H   0  0  0  0  0  0  0  0  0  0  0  0
  144.8682  129.6857  152.3380 H   0  0  0  0  0  0  0  0  0  0  0  0
  144.8976  132.6008  151.6921 H   0  0  0  0  0  0  0  0  0  0  0  0
  146.2988  133.4405  152.3250 H   0  0  0  0  0  0  0  0  0  0  0  0
  147.3162  131.6767  150.7806 H   0  0  0  0  0  0  0  0  0  0  0  0
  148.0577  135.2564  154.9927 H   0  0  0  0  0  0  0  0  0  0  0  0
  148.8168  136.6816  158.1234 H   0  0  0  0  0  0  0  0  0  0  0  0
  147.8837  135.3334  157.5819 H   0  0  0  0  0  0  0  0  0  0  0  0
  147.9922  136.7811  162.4978 H   0  0  0  0  0  0  0  0  0  0  0  0
  147.5899  134.3854  163.2356 H   0  0  0  0  0  0  0  0  0  0  0  0
  147.7836  132.5986  161.4432 H   0  0  0  0  0  0  0  0  0  0  0  0
  153.9455  132.0761  156.9692 H   0  0  0  0  0  0  0  0  0  0  0  0
  149.8224  130.8092  154.5134 H   0  0  0  0  0  0  0  0  0  0  0  0
  1  2  1  0  0  0  0
  1 36  1  0  0  0  0
  1 37  1  0  0  0  0
  1 38  1  0  0  0  0
  2  3  1  0  0  0  0
  3 33  1  0  0  0  0
  3  4  2  0  0  0  0
  4  5  1  0  0  0  0
  4 39  1  0  0  0  0
  5  6  2  0  0  0  0
  5 40  1  0  0  0  0
  6  7  1  0  0  0  0
  6 32  1  0  0  0  0
  7  8  1  0  0  0  0
  7 41  1  0  0  0  0
  7 42  1  0  0  0  0
  8  9  1  0  0  0  0
  8 43  1  0  0  0  0
  9 21  1  0  0  0  0
  9 10  2  0  0  0  0
 10 11  1  0  0  0  0
 10 60  1  0  0  0  0
 11 12  1  0  0  0  0
 11 19  2  0  0  0  0
 12 16  1  0  0  0  0
 12 13  1  0  0  0  0
 13 14  1  0  0  0  0
 13 44  1  0  0  0  0
 13 45  1  0  0  0  0
 14 15  1  0  0  0  0
 14 46  1  0  0  0  0
 14 47  1  0  0  0  0
 15 16  1  0  0  0  0
 15 48  1  0  0  0  0
 15 49  1  0  0  0  0
 16 35  1  0  0  0  0
 16 17  1  0  0  0  0
 17 18  1  0  0  0  0
 17 50  1  0  0  0  0
 17 51  1  0  0  0  0
 18 52  1  0  0  0  0
 19 20  1  0  0  0  0
 20 21  2  0  0  0  0
 20 53  1  0  0  0  0
 21 22  1  0  0  0  0
 22 23  2  0  0  0  0
 22 24  1  0  0  0  0
 24 25  1  0  0  0  0
 25 26  1  0  0  0  0
 25 54  1  0  0  0  0
 25 55  1  0  0  0  0
 26 31  1  0  0  0  0
 26 27  2  0  0  0  0
 27 28  1  0  0  0  0
 28 29  2  0  0  0  0
 28 56  1  0  0  0  0
 29 30  1  0  0  0  0
 29 57  1  0  0  0  0
 30 31  2  0  0  0  0
 30 58  1  0  0  0  0
 32 33  2  0  0  0  0
 32 59  1  0  0  0  0
 33 34  1  0  0  0  0
M  CHG  1  10   1
M  CHG  1  24  -1
M  END
> <s_m_source_file>
AV-unprocessed.smi

> <i_m_source_file_index>
45

> <i_lp_mmshare_version>
43012

> <i_f3d_flags>
0

> <s_epik_input>
W0NIM11PYzFbY0hdW2NIXWMoW2NIXWMxQ2wpW0NIMl1bTkhdYzJuYyhOM1tDSDJdW0NIMl1bQ0gyXVtDQEhdM1tDSDJdW09IXSluW2NIXWMyQyg9TylbTkhdW0NIMl1jNG5bY0hdW2NIXVtjSF1uNA==

> <s_epik_cmdline>
J2VwaWtfcHl0aG9uJywgJy1waCcsICc3LjAnLCAnLXRuJywgJzgnLCAnLW1hJywgJzIwMCcsICctbWV0YWxfYmluZGluZycsICctaW1hZScsICc8aW5maWxlLm1hZT4nLCAnLW9tYWUnLCAnPG91dGZpbGUubWFlPic=

> <r_lp_tautomer_probability>
0.424989

> <r_epik_Ionization_Penalty>
7.51351

> <r_epik_Ionization_Penalty_Charging>
7.51312

> <r_epik_Ionization_Penalty_Neutral>
0.00038389

> <r_epik_State_Penalty>
8.64696

> <r_epik_Charging_Adjusted_Penalty>
16.1601

> <i_epik_Tot_Q>
0

> <i_epik_Tot_abs_Q>
2

> <r_epik_Metal_State_Penalty>
4.61083

> <b_epik_Metal_Only>
1

> <s_epik_Chemistry_Notes>
This compound contains an electron-poor aromatic ring that is susceptible to covalent hydrolysis at low pH, typically resulting in measured values for nitrogen ring protonation that are around two units higher than predicted values.

> <s_lp_Force_Field>
OPLS_2005

> <r_lp_Energy>
41.8384

> <b_lp_Chiralities_Consistent>
1

> <s_lp_Variant>
AV-unprocessed.smi:45-12

> <Gold.Version>
5.8.1

> <Gold.Id.Protein>
6NUR|6NUR_protein|mol2

> <Gold.PLP.Fitness>
58.5879

> <Gold.PLP.PLP>
-50.1913

> <Gold.PLP.part.hbond>
-3.0000

> <Gold.PLP.part.metal>
0.0000

> <Gold.PLP.part.buried>
-7.3361

> <Gold.PLP.part.nonpolar>
-40.2027

> <Gold.PLP.part.repulsive>
0.1957

> <Gold.PLP.ligand.clash>
0.0000

> <Gold.PLP.ligand.torsion>
2.5259

> <Gold.PLP.Chemscore.Hbond>
3.7040

> <Gold.PLP.Chemscore.CHOScore>
0.0000

> <Gold.PLP.Chemscore.Metal>
0.0000

> <Gold.Chemscore.Hbonds>
donor molecule, donor type, donor heavy atom, donor atom, acceptor molecule, acceptor atom, score
      L1  H    18    52       P1 10747  1.00
      P1  H  6896  6908       L1    24  1.73
      P1  H 10752 10764       L1    23  0.98

> <Gold.PLP.Chemscore.Internal.Correction>
2.3365

> <Gold.Rescore>
     Score         DG    S(hbond)    S(metal)    S(lipo)     H(rot)  DE(clash)    DE(int)     intcor
     16.45     -19.63       2.51        0.00     112.58       2.90       0.04       3.14       ----

> <Gold.Chemscore.Fitness>
16.4451

> <Gold.Chemscore.DG>
-19.6263

> <Gold.Chemscore.ZeroCoef>
-5.4800

> <Gold.Chemscore.Hbond>
2.5134

> <Gold.Chemscore.Metal>
0.0000

> <Gold.Chemscore.Lipo>
112.5839

> <Gold.Chemscore.Internal_Hbond>
0.0000

> <Gold.Chemscore.DEClash>
0.0402

> <Gold.Chemscore.DEInternal>
3.1410

> <Gold.Chemscore.Rot>
2.8988

> <Gold.Chemscore.Internal.Correction>
   9.000000E+99

> <Gold.Chemscore.Hbonds>
donor molecule, donor type, donor heavy atom, donor atom, acceptor molecule, acceptor atom, score
      L1  H    18    52       P1 10747  0.96
      P1  H  6896  6908       L1    24  0.22
      P1  H 10752 10764       L1    23  0.91

> <Gold.Chemscore.Hbond.Weighted>
-8.3949

> <Gold.Chemscore.Metal.Weighted>
-0.0000

> <Gold.Chemscore.Lipo.Weighted>
-13.1723

> <Gold.Chemscore.Internal_Hbond.Weighted>
0.0000

> <Gold.Chemscore.DEClash.Weighted>
0.0402

> <Gold.Chemscore.DEInternal.Weighted>
3.1410

> <Gold.Chemscore.Rot.Weighted>
7.4209

> <Gold.Chemscore.Internal.Correction.Weighted>
   9.000000E+99

> <Gold.Protein.RotatedTorsions>
[ 6907 6896 6895 6894 ] final  153.22 input  -60.11 | X-H torsion
[ 7974 7965 7964 7962 ] final   88.73 input  175.53 | X-H torsion
[ 8008 7997 7996 7995 ] final   53.88 input   59.86 | X-H torsion
[ 10167 10162 10161 10158 ] final  119.54 input  -65.29 | X-H torsion
[ 10718 10713 10712 10709 ] final   35.05 input   66.30 | X-H torsion
[ 10763 10752 10751 10750 ] final  -35.95 input  -60.55 | X-H torsion
[ 11005 11000 10999 10996 ] final   71.54 input  -57.11 | X-H torsion

> <Gold.Protein.ActiveResidues>
 VAL166  LYS551  ARG553  GLY616  TRP617  ASP618  TYR619  PRO620  LYS621  CYS622 
 ASP623  PHE694  ASN695  SER759  ASP760  ASP761  ALA762  ILE779  LEU786  VAL792 
 PHE793  MET794  SER795  GLU796  ALA797  LYS798  CYS799  TRP800  GLU811  SER814 

> <Gold.Protein.RotatedAtoms>
  152.0758  133.4128  159.4478 H   0  0  0  0  0  0  0  0  0  0  0  0  # atno 6907 bound_to 6896
  150.6863  134.3039  159.4727 H   0  0  0  0  0  0  0  0  0  0  0  0  # atno 6908 bound_to 6896
  152.0876  134.9429  160.0623 H   0  0  0  0  0  0  0  0  0  0  0  0  # atno 6909 bound_to 6896
  145.5417  139.2289  143.2562 H   0  0  0  0  0  0  0  0  0  0  0  0  # atno 7974 bound_to 7965
  155.4755  140.3466  155.4332 H   0  0  0  0  0  0  0  0  0  0  0  0  # atno 8008 bound_to 7997
  156.1073  140.1451  156.9416 H   0  0  0  0  0  0  0  0  0  0  0  0  # atno 8009 bound_to 7997
  154.4732  140.0893  156.7176 H   0  0  0  0  0  0  0  0  0  0  0  0  # atno 8010 bound_to 7997
  139.6039  144.7064  151.2998 H   0  0  0  0  0  0  0  0  0  0  0  0  # atno 10167 bound_to 10162
  157.3179  130.7433  149.6766 H   0  0  0  0  0  0  0  0  0  0  0  0  # atno 10718 bound_to 10713
  153.8717  135.6830  153.4774 H   0  0  0  0  0  0  0  0  0  0  0  0  # atno 10763 bound_to 10752
  153.1284  135.4709  154.9307 H   0  0  0  0  0  0  0  0  0  0  0  0  # atno 10764 bound_to 10752
  154.7711  135.3239  154.8138 H   0  0  0  0  0  0  0  0  0  0  0  0  # atno 10765 bound_to 10752
  139.9538  134.7180  156.0801 H   0  0  0  0  0  0  0  0  0  0  0  0  # atno 11005 bound_to 11000
  146.1976  140.6237  142.9117 LP  0  0  0  0  0  0  0  0  0  0  0  0  # atno 17320 bound_to 7965
  144.7573  140.5339  143.6760 LP  0  0  0  0  0  0  0  0  0  0  0  0  # atno 17321 bound_to 7965
  140.7270  143.6974  150.7873 LP  0  0  0  0  0  0  0  0  0  0  0  0  # atno 17342 bound_to 10162
  140.0555  143.5206  152.2653 LP  0  0  0  0  0  0  0  0  0  0  0  0  # atno 17343 bound_to 10162
  155.9683  130.4232  150.4550 LP  0  0  0  0  0  0  0  0  0  0  0  0  # atno 17370 bound_to 10713
  157.2561  131.0557  151.2349 LP  0  0  0  0  0  0  0  0  0  0  0  0  # atno 17371 bound_to 10713
  141.1206  133.6614  156.3204 LP  0  0  0  0  0  0  0  0  0  0  0  0  # atno 17394 bound_to 11000
  140.5657  134.5890  157.5445 LP  0  0  0  0  0  0  0  0  0  0  0  0  # atno 17395 bound_to 11000

$$$$
