AV-unprocessed.smi:3292|AV-procd|sdf|12626|dock5
  -GOLD-   2272018563D 1   1.00000     0.00000
 Structure written by MMmdl.
 38 39  0  0  0  0  0  0  0  0  1 V2000
  147.1894  142.1562  153.4237 C   0  0  0  0  0  0  0  0  0  0  0  0
  147.7991  141.2669  154.5201 C   0  0  1  0  0  0  0  0  0  0  0  0
  148.2738  139.8941  153.9948 C   0  0  0  0  0  0  0  0  0  0  0  0
  147.1749  139.0411  153.5834 N   0  0  0  0  0  0  0  0  0  0  0  0
  146.8846  138.6168  152.2935 C   0  0  0  0  0  0  0  0  0  0  0  0
  145.7571  137.8321  152.3823 C   0  0  0  0  0  0  0  0  0  0  0  0
  145.3359  137.7647  153.7083 N   0  0  0  0  0  0  0  0  0  0  0  0
  146.2217  138.5075  154.3598 C   0  0  0  0  0  0  0  0  0  0  0  0
  148.9080  141.9779  155.1505 N   0  0  0  0  0  0  0  0  0  0  0  0
  149.6392  141.5171  156.1752 C   0  0  0  0  0  0  0  0  0  0  0  0
  149.4688  140.4190  156.7054 O   0  0  0  0  0  0  0  0  0  0  0  0
  150.5752  142.3989  156.5541 N   0  0  0  0  0  0  0  0  0  0  0  0
  151.5261  142.2055  157.6445 C   0  0  0  0  0  0  0  0  0  0  0  0
  151.9535  143.5432  158.2773 C   0  0  2  0  0  0  0  0  0  0  0  0
  152.5391  143.4031  159.6675 C   0  0  0  0  0  0  0  0  0  0  0  0
  152.4299  144.8270  160.2066 C   0  0  0  0  0  0  0  0  0  0  0  0
  151.3017  145.4077  159.5578 O   0  0  0  0  0  0  0  0  0  0  0  0
  150.8172  144.5316  158.5454 C   0  0  0  0  0  0  0  0  0  0  0  0
  146.2982  141.7025  152.9898 H   0  0  0  0  0  0  0  0  0  0  0  0
  147.9001  142.3328  152.6158 H   0  0  0  0  0  0  0  0  0  0  0  0
  146.8937  143.1258  153.8255 H   0  0  0  0  0  0  0  0  0  0  0  0
  147.0245  141.1023  155.2718 H   0  0  0  0  0  0  0  0  0  0  0  0
  148.9480  140.0256  153.1471 H   0  0  0  0  0  0  0  0  0  0  0  0
  148.8385  139.3644  154.7628 H   0  0  0  0  0  0  0  0  0  0  0  0
  147.4891  138.8994  151.4441 H   0  0  0  0  0  0  0  0  0  0  0  0
  145.2199  137.3164  151.6001 H   0  0  0  0  0  0  0  0  0  0  0  0
  146.1782  138.6631  155.4278 H   0  0  0  0  0  0  0  0  0  0  0  0
  149.1265  142.8932  154.7850 H   0  0  0  0  0  0  0  0  0  0  0  0
  150.6326  143.2736  156.0535 H   0  0  0  0  0  0  0  0  0  0  0  0
  151.1190  141.5327  158.4014 H   0  0  0  0  0  0  0  0  0  0  0  0
  152.4018  141.7038  157.2323 H   0  0  0  0  0  0  0  0  0  0  0  0
  152.6949  144.0261  157.6383 H   0  0  0  0  0  0  0  0  0  0  0  0
  151.9295  142.7288  160.2708 H   0  0  0  0  0  0  0  0  0  0  0  0
  153.5627  143.0284  159.6664 H   0  0  0  0  0  0  0  0  0  0  0  0
  152.3228  144.8522  161.2911 H   0  0  0  0  0  0  0  0  0  0  0  0
  153.3159  145.4042  159.9403 H   0  0  0  0  0  0  0  0  0  0  0  0
  150.5200  145.0825  157.6528 H   0  0  0  0  0  0  0  0  0  0  0  0
  149.9383  144.0138  158.9317 H   0  0  0  0  0  0  0  0  0  0  0  0
  1  2  1  0  0  0  0
  1 19  1  0  0  0  0
  1 20  1  0  0  0  0
  1 21  1  0  0  0  0
  2  3  1  0  0  0  0
  2  9  1  0  0  0  0
  2 22  1  0  0  0  0
  3  4  1  0  0  0  0
  3 23  1  0  0  0  0
  3 24  1  0  0  0  0
  4  8  1  0  0  0  0
  4  5  1  0  0  0  0
  5  6  2  0  0  0  0
  5 25  1  0  0  0  0
  6  7  1  0  0  0  0
  6 26  1  0  0  0  0
  7  8  2  0  0  0  0
  8 27  1  0  0  0  0
  9 10  1  0  0  0  0
  9 28  1  0  0  0  0
 10 11  2  0  0  0  0
 10 12  1  0  0  0  0
 12 13  1  0  0  0  0
 12 29  1  0  0  0  0
 13 14  1  0  0  0  0
 13 30  1  0  0  0  0
 13 31  1  0  0  0  0
 14 18  1  0  0  0  0
 14 15  1  0  0  0  0
 14 32  1  0  0  0  0
 15 16  1  0  0  0  0
 15 33  1  0  0  0  0
 15 34  1  0  0  0  0
 16 17  1  0  0  0  0
 16 35  1  0  0  0  0
 16 36  1  0  0  0  0
 17 18  1  0  0  0  0
 18 37  1  0  0  0  0
 18 38  1  0  0  0  0
M  END
> <s_m_source_file>
AV-unprocessed.smi

> <i_m_source_file_index>
3292

> <i_lp_mmshare_version>
43012

> <i_f3d_flags>
0

> <s_epik_input>
W2NIXTFuW2NIXVtjSF1uMVtDSDJdW0NAQEhdKFtDSDNdKVtOSF1DKD1PKVtOSF1bQ0gyXVtDQEBIXTJbQ0gyXVtDSDJdT1tDSDJdMg==

> <s_epik_cmdline>
J2VwaWtfcHl0aG9uJywgJy1waCcsICc3LjAnLCAnLXRuJywgJzgnLCAnLW1hJywgJzIwMCcsICctbWV0YWxfYmluZGluZycsICctaW1hZScsICc8aW5maWxlLm1hZT4nLCAnLW9tYWUnLCAnPG91dGZpbGUubWFlPic=

> <r_lp_tautomer_probability>
1

> <r_epik_Ionization_Penalty>
0.621291

> <r_epik_Ionization_Penalty_Charging>
0.621234

> <r_epik_Ionization_Penalty_Neutral>
5.72199e-05

> <r_epik_State_Penalty>
0.637278

> <r_epik_Charging_Adjusted_Penalty>
1.25851

> <i_epik_Tot_Q>
0

> <i_epik_Tot_abs_Q>
0

> <r_epik_Metal_State_Penalty>
0.306757

> <b_epik_Metal_Only>
0

> <s_lp_Force_Field>
OPLS_2005

> <r_lp_Energy>
18.3972

> <b_lp_Chiralities_Consistent>
1

> <s_lp_Variant>
AV-unprocessed.smi:3292-6

> <Gold.Version>
5.8.1

> <Gold.Id.Protein>
6NUR|6NUR_protein|mol2

> <Gold.PLP.Fitness>
44.4733

> <Gold.PLP.PLP>
-34.0984

> <Gold.PLP.part.hbond>
-2.0000

> <Gold.PLP.part.metal>
0.0000

> <Gold.PLP.part.buried>
-5.1157

> <Gold.PLP.part.nonpolar>
-28.3469

> <Gold.PLP.part.repulsive>
0.5465

> <Gold.PLP.ligand.clash>
0.0000

> <Gold.PLP.ligand.torsion>
0.4294

> <Gold.PLP.Chemscore.Hbond>
1.9040

> <Gold.PLP.Chemscore.CHOScore>
1.8298

> <Gold.PLP.Chemscore.Metal>
0.0000

> <Gold.Chemscore.Hbonds>
donor molecule, donor type, donor heavy atom, donor atom, acceptor molecule, acceptor atom, score
      L1  H     9    28       P1  8028  0.61
      L1  H    12    29       P1  8028  0.18
      L1  C     5    25       P1  7957  1.00
      L1  C     6    26       P1 10171  0.74

> <Gold.PLP.Chemscore.Internal.Correction>
0.0323

> <Gold.Rescore>
     Score         DG    S(hbond)    S(metal)    S(lipo)     H(rot)  DE(clash)    DE(int)     intcor
     16.10     -16.87       1.93        0.00      89.52       2.16       0.47       0.30       ----

> <Gold.Chemscore.Fitness>
16.1006

> <Gold.Chemscore.DG>
-16.8652

> <Gold.Chemscore.ZeroCoef>
-5.4800

> <Gold.Chemscore.Hbond>
1.9266

> <Gold.Chemscore.Metal>
0.0000

> <Gold.Chemscore.Lipo>
89.5229

> <Gold.Chemscore.Internal_Hbond>
0.0000

> <Gold.Chemscore.DEClash>
0.4670

> <Gold.Chemscore.DEInternal>
0.2976

> <Gold.Chemscore.Rot>
2.1577

> <Gold.Chemscore.Internal.Correction>
   9.000000E+99

> <Gold.Chemscore.Hbonds>
donor molecule, donor type, donor heavy atom, donor atom, acceptor molecule, acceptor atom, score
      L1  H     9    28       P1  8028  0.56
      L1  H    12    29       P1  8028  0.19

> <Gold.Chemscore.Hbond.Weighted>
-6.4347

> <Gold.Chemscore.Metal.Weighted>
-0.0000

> <Gold.Chemscore.Lipo.Weighted>
-10.4742

> <Gold.Chemscore.Internal_Hbond.Weighted>
0.0000

> <Gold.Chemscore.DEClash.Weighted>
0.4670

> <Gold.Chemscore.DEInternal.Weighted>
0.2976

> <Gold.Chemscore.Rot.Weighted>
5.5237

> <Gold.Chemscore.Internal.Correction.Weighted>
   9.000000E+99

> <Gold.Protein.RotatedTorsions>
[ 6907 6896 6895 6894 ] final -164.76 input  -60.11 | X-H torsion
[ 7974 7965 7964 7962 ] final -100.13 input  175.53 | X-H torsion
[ 8008 7997 7996 7995 ] final   49.72 input   59.86 | X-H torsion
[ 10167 10162 10161 10158 ] final   49.51 input  -65.29 | X-H torsion
[ 10718 10713 10712 10709 ] final   57.00 input   66.30 | X-H torsion
[ 10763 10752 10751 10750 ] final  169.05 input  -60.55 | X-H torsion
[ 11005 11000 10999 10996 ] final   42.81 input  -57.11 | X-H torsion

> <Gold.Protein.ActiveResidues>
 VAL166  LYS551  ARG553  GLY616  TRP617  ASP618  TYR619  PRO620  LYS621  CYS622 
 ASP623  PHE694  ASN695  SER759  ASP760  ASP761  ALA762  ILE779  LEU786  VAL792 
 PHE793  MET794  SER795  GLU796  ALA797  LYS798  CYS799  TRP800  GLU811  SER814 

> <Gold.Protein.RotatedAtoms>
  151.4170  133.3710  159.2750 H   0  0  0  0  0  0  0  0  0  0  0  0  # atno 6907 bound_to 6896
  150.9321  134.8737  159.7569 H   0  0  0  0  0  0  0  0  0  0  0  0  # atno 6908 bound_to 6896
  152.5033  134.4115  159.9502 H   0  0  0  0  0  0  0  0  0  0  0  0  # atno 6909 bound_to 6896
  145.2986  140.9371  143.2837 H   0  0  0  0  0  0  0  0  0  0  0  0  # atno 7974 bound_to 7965
  155.4069  140.3440  155.4261 H   0  0  0  0  0  0  0  0  0  0  0  0  # atno 8008 bound_to 7997
  156.1471  140.1559  156.8861 H   0  0  0  0  0  0  0  0  0  0  0  0  # atno 8009 bound_to 7997
  154.5020  140.0812  156.7798 H   0  0  0  0  0  0  0  0  0  0  0  0  # atno 8010 bound_to 7997
  140.2821  144.3144  150.6261 H   0  0  0  0  0  0  0  0  0  0  0  0  # atno 10167 bound_to 10162
  157.5478  130.8743  149.8917 H   0  0  0  0  0  0  0  0  0  0  0  0  # atno 10718 bound_to 10713
  154.3776  135.2753  155.2230 H   0  0  0  0  0  0  0  0  0  0  0  0  # atno 10763 bound_to 10752
  154.4351  135.5968  153.6097 H   0  0  0  0  0  0  0  0  0  0  0  0  # atno 10764 bound_to 10752
  152.9836  135.6005  154.4014 H   0  0  0  0  0  0  0  0  0  0  0  0  # atno 10765 bound_to 10752
  140.1704  134.4229  155.8260 H   0  0  0  0  0  0  0  0  0  0  0  0  # atno 11005 bound_to 11000
  144.9113  139.4525  143.6586 LP  0  0  0  0  0  0  0  0  0  0  0  0  # atno 17320 bound_to 7965
  146.3160  139.7922  142.8983 LP  0  0  0  0  0  0  0  0  0  0  0  0  # atno 17321 bound_to 7965
  140.5803  143.2173  151.7440 LP  0  0  0  0  0  0  0  0  0  0  0  0  # atno 17342 bound_to 10162
  139.4960  144.4090  152.0101 LP  0  0  0  0  0  0  0  0  0  0  0  0  # atno 17343 bound_to 10162
  156.0550  130.3710  150.1112 LP  0  0  0  0  0  0  0  0  0  0  0  0  # atno 17370 bound_to 10713
  156.9287  130.9706  151.3536 LP  0  0  0  0  0  0  0  0  0  0  0  0  # atno 17371 bound_to 10713
  141.2217  133.6953  156.7754 LP  0  0  0  0  0  0  0  0  0  0  0  0  # atno 17394 bound_to 11000
  140.2384  134.8632  157.3548 LP  0  0  0  0  0  0  0  0  0  0  0  0  # atno 17395 bound_to 11000

$$$$
