AV-unprocessed.smi:2888|AV-procd|sdf|11105|dock5
  -GOLD-   2272015573D 1   1.00000     0.00000
 Structure written by MMmdl.
 34 36  0  0  0  0  0  0  0  0  2 V2000
  152.8737  140.0993  158.8569 C   0  0  0  0  0  0  0  0  0  0  0  0
  152.1951  141.3620  158.3699 C   0  0  0  0  0  0  0  0  0  0  0  0
  152.5136  142.6240  158.9003 C   0  0  0  0  0  0  0  0  0  0  0  0
  151.8166  143.7268  158.3698 C   0  0  0  0  0  0  0  0  0  0  0  0
  152.0647  145.1413  158.8486 C   0  0  0  0  0  0  0  0  0  0  0  0
  150.8914  143.5420  157.3948 N   0  3  0  0  0  0  0  0  0  0  0  0
  150.6399  142.3071  156.9336 C   0  0  0  0  0  0  0  0  0  0  0  0
  149.6907  142.1800  155.9358 N   0  0  0  0  0  0  0  0  0  0  0  0
  149.3054  140.9103  155.3312 C   0  0  1  0  0  0  0  0  0  0  0  0
  148.2900  140.1262  156.1662 C   0  0  0  0  0  0  0  0  0  0  0  0
  147.1760  139.8651  155.1422 C   0  0  1  0  0  0  0  0  0  0  0  0
  146.3543  141.1317  154.8695 C   0  0  0  0  0  0  0  0  0  0  0  0
  147.3325  141.9645  154.0432 C   0  0  0  0  0  0  0  0  0  0  0  0
  148.5649  141.0452  153.9861 C   0  0  2  0  0  0  0  0  0  0  0  0
  147.9259  139.7807  153.9414 O   0  0  0  0  0  0  0  0  0  0  0  0
  151.2700  141.2190  157.3999 N   0  0  0  0  0  0  0  0  0  0  0  0
  153.5340  140.3069  159.6991 H   0  0  0  0  0  0  0  0  0  0  0  0
  153.4690  139.6564  158.0580 H   0  0  0  0  0  0  0  0  0  0  0  0
  152.1321  139.3680  159.1790 H   0  0  0  0  0  0  0  0  0  0  0  0
  153.2559  142.7425  159.6765 H   0  0  0  0  0  0  0  0  0  0  0  0
  152.7197  145.1516  159.7203 H   0  0  0  0  0  0  0  0  0  0  0  0
  151.1254  145.6217  159.1241 H   0  0  0  0  0  0  0  0  0  0  0  0
  152.5355  145.7299  158.0607 H   0  0  0  0  0  0  0  0  0  0  0  0
  149.3687  143.0283  155.4933 H   0  0  0  0  0  0  0  0  0  0  0  0
  150.1963  140.2956  155.1953 H   0  0  0  0  0  0  0  0  0  0  0  0
  148.7291  139.1897  156.5116 H   0  0  0  0  0  0  0  0  0  0  0  0
  147.9229  140.6686  157.0387 H   0  0  0  0  0  0  0  0  0  0  0  0
  146.5712  138.9843  155.3593 H   0  0  0  0  0  0  0  0  0  0  0  0
  145.4626  140.8989  154.2859 H   0  0  0  0  0  0  0  0  0  0  0  0
  146.0415  141.6305  155.7876 H   0  0  0  0  0  0  0  0  0  0  0  0
  146.9340  142.1304  153.0415 H   0  0  0  0  0  0  0  0  0  0  0  0
  147.5427  142.9390  154.4845 H   0  0  0  0  0  0  0  0  0  0  0  0
  149.2205  141.2408  153.1370 H   0  0  0  0  0  0  0  0  0  0  0  0
  150.3955  144.3499  157.0180 H   0  0  0  0  0  0  0  0  0  0  0  0
  1  2  1  0  0  0  0
  1 17  1  0  0  0  0
  1 18  1  0  0  0  0
  1 19  1  0  0  0  0
  2 16  1  0  0  0  0
  2  3  2  0  0  0  0
  3  4  1  0  0  0  0
  3 20  1  0  0  0  0
  4  5  1  0  0  0  0
  4  6  2  0  0  0  0
  5 21  1  0  0  0  0
  5 22  1  0  0  0  0
  5 23  1  0  0  0  0
  6  7  1  0  0  0  0
  6 34  1  0  0  0  0
  7  8  1  0  0  0  0
  7 16  2  0  0  0  0
  8  9  1  0  0  0  0
  8 24  1  0  0  0  0
  9 14  1  0  0  0  0
  9 10  1  0  0  0  0
  9 25  1  0  0  0  0
 10 11  1  0  0  0  0
 10 26  1  0  0  0  0
 10 27  1  0  0  0  0
 11 15  1  0  0  0  0
 11 12  1  0  0  0  0
 11 28  1  0  0  0  0
 12 13  1  0  0  0  0
 12 29  1  0  0  0  0
 12 30  1  0  0  0  0
 13 14  1  0  0  0  0
 13 31  1  0  0  0  0
 13 32  1  0  0  0  0
 14 15  1  0  0  0  0
 14 33  1  0  0  0  0
M  CHG  1   6   1
M  END
> <s_m_source_file>
AV-unprocessed.smi

> <i_m_source_file_index>
2888

> <i_lp_mmshare_version>
43012

> <i_f3d_flags>
0

> <s_epik_input>
W0NIM11jMVtjSF1jKFtDSDNdKW5jKG4xKVtOSF1bQ0BIXShbQ0gyXVtDQEBIXTIzKVtDQEBIXShPMylbQ0gyXVtDSDJdMg==

> <s_epik_cmdline>
J2VwaWtfcHl0aG9uJywgJy1waCcsICc3LjAnLCAnLXRuJywgJzgnLCAnLW1hJywgJzIwMCcsICctbWV0YWxfYmluZGluZycsICctaW1hZScsICc8aW5maWxlLm1hZT4nLCAnLW9tYWUnLCAnPG91dGZpbGUubWFlPic=

> <r_lp_tautomer_probability>
0.505494

> <r_epik_Ionization_Penalty>
2.49163

> <r_epik_Ionization_Penalty_Charging>
2.49163

> <r_epik_Ionization_Penalty_Neutral>
3.7631e-06

> <r_epik_State_Penalty>
2.656

> <r_epik_Charging_Adjusted_Penalty>
5.14762

> <i_epik_Tot_Q>
1

> <i_epik_Tot_abs_Q>
1

> <r_epik_Metal_State_Penalty>
2.66479

> <b_epik_Metal_Only>
0

> <s_lp_Force_Field>
OPLS_2005

> <r_lp_Energy>
36.4531

> <b_lp_Chiralities_Consistent>
1

> <s_lp_Variant>
AV-unprocessed.smi:2888-6

> <Gold.Version>
5.8.1

> <Gold.Id.Protein>
6NUR|6NUR_protein|mol2

> <Gold.PLP.Fitness>
41.1647

> <Gold.PLP.PLP>
-30.9832

> <Gold.PLP.part.hbond>
-2.0000

> <Gold.PLP.part.metal>
0.0000

> <Gold.PLP.part.buried>
-4.8663

> <Gold.PLP.part.nonpolar>
-25.6017

> <Gold.PLP.part.repulsive>
0.2902

> <Gold.PLP.ligand.clash>
0.0000

> <Gold.PLP.ligand.torsion>
0.2686

> <Gold.PLP.Chemscore.Hbond>
3.5700

> <Gold.PLP.Chemscore.CHOScore>
0.0000

> <Gold.PLP.Chemscore.Metal>
0.0000

> <Gold.Chemscore.Hbonds>
donor molecule, donor type, donor heavy atom, donor atom, acceptor molecule, acceptor atom, score
      L1  H     6    34       P1  8028  1.55
      L1  H     8    24       P1  8028  1.95

> <Gold.PLP.Chemscore.Internal.Correction>
0.0088

> <Gold.Rescore>
     Score         DG    S(hbond)    S(metal)    S(lipo)     H(rot)  DE(clash)    DE(int)     intcor
     17.57     -17.87       1.68        0.00      79.87       1.00       0.04       0.26       ----

> <Gold.Chemscore.Fitness>
17.5663

> <Gold.Chemscore.DG>
-17.8741

> <Gold.Chemscore.ZeroCoef>
-5.4800

> <Gold.Chemscore.Hbond>
1.6796

> <Gold.Chemscore.Metal>
0.0000

> <Gold.Chemscore.Lipo>
79.8655

> <Gold.Chemscore.Internal_Hbond>
0.0000

> <Gold.Chemscore.DEClash>
0.0444

> <Gold.Chemscore.DEInternal>
0.2634

> <Gold.Chemscore.Rot>
1.0000

> <Gold.Chemscore.Internal.Correction>
   9.000000E+99

> <Gold.Chemscore.Hbonds>
donor molecule, donor type, donor heavy atom, donor atom, acceptor molecule, acceptor atom, score
      L1  H     6    34       P1  8028  0.63
      L1  H     8    24       P1  8028  0.93

> <Gold.Chemscore.Hbond.Weighted>
-5.6099

> <Gold.Chemscore.Metal.Weighted>
-0.0000

> <Gold.Chemscore.Lipo.Weighted>
-9.3443

> <Gold.Chemscore.Internal_Hbond.Weighted>
0.0000

> <Gold.Chemscore.DEClash.Weighted>
0.0444

> <Gold.Chemscore.DEInternal.Weighted>
0.2634

> <Gold.Chemscore.Rot.Weighted>
2.5600

> <Gold.Chemscore.Internal.Correction.Weighted>
   9.000000E+99

> <Gold.Protein.RotatedTorsions>
[ 6907 6896 6895 6894 ] final  113.29 input  -60.11 | X-H torsion
[ 7974 7965 7964 7962 ] final   15.29 input  175.53 | X-H torsion
[ 8008 7997 7996 7995 ] final  -42.68 input   59.86 | X-H torsion
[ 10167 10162 10161 10158 ] final  124.15 input  -65.29 | X-H torsion
[ 10718 10713 10712 10709 ] final  152.37 input   66.30 | X-H torsion
[ 10763 10752 10751 10750 ] final  -38.45 input  -60.55 | X-H torsion
[ 11005 11000 10999 10996 ] final    2.78 input  -57.11 | X-H torsion

> <Gold.Protein.ActiveResidues>
 VAL166  LYS551  ARG553  GLY616  TRP617  ASP618  TYR619  PRO620  LYS621  CYS622 
 ASP623  PHE694  ASN695  SER759  ASP760  ASP761  ALA762  ILE779  LEU786  VAL792 
 PHE793  MET794  SER795  GLU796  ALA797  LYS798  CYS799  TRP800  GLU811  SER814 

> <Gold.Protein.RotatedAtoms>
  152.4869  133.8396  159.7145 H   0  0  0  0  0  0  0  0  0  0  0  0  # atno 6907 bound_to 6896
  150.8963  133.7167  159.2897 H   0  0  0  0  0  0  0  0  0  0  0  0  # atno 6908 bound_to 6896
  151.4623  135.1043  159.9780 H   0  0  0  0  0  0  0  0  0  0  0  0  # atno 6909 bound_to 6896
  146.2282  139.8916  142.8554 H   0  0  0  0  0  0  0  0  0  0  0  0  # atno 7974 bound_to 7965
  154.3998  140.1467  156.3394 H   0  0  0  0  0  0  0  0  0  0  0  0  # atno 8008 bound_to 7997
  155.8370  140.3463  155.5587 H   0  0  0  0  0  0  0  0  0  0  0  0  # atno 8009 bound_to 7997
  155.8127  140.0886  157.1885 H   0  0  0  0  0  0  0  0  0  0  0  0  # atno 8010 bound_to 7997
  139.5758  144.6962  151.3657 H   0  0  0  0  0  0  0  0  0  0  0  0  # atno 10167 bound_to 10162
  157.2587  131.0793  151.1680 H   0  0  0  0  0  0  0  0  0  0  0  0  # atno 10718 bound_to 10713
  153.9131  135.6790  153.4750 H   0  0  0  0  0  0  0  0  0  0  0  0  # atno 10763 bound_to 10752
  153.1068  135.4802  154.8962 H   0  0  0  0  0  0  0  0  0  0  0  0  # atno 10764 bound_to 10752
  154.7517  135.3186  154.8501 H   0  0  0  0  0  0  0  0  0  0  0  0  # atno 10765 bound_to 10752
  140.6004  133.9841  155.8129 H   0  0  0  0  0  0  0  0  0  0  0  0  # atno 11005 bound_to 11000
  145.2412  141.0010  143.3935 LP  0  0  0  0  0  0  0  0  0  0  0  0  # atno 17320 bound_to 7965
  144.9450  139.4146  143.6430 LP  0  0  0  0  0  0  0  0  0  0  0  0  # atno 17321 bound_to 7965
  140.7041  143.7559  150.7451 LP  0  0  0  0  0  0  0  0  0  0  0  0  # atno 17342 bound_to 10162
  140.1078  143.4727  152.2388 LP  0  0  0  0  0  0  0  0  0  0  0  0  # atno 17343 bound_to 10162
  157.3199  130.6932  149.6263 LP  0  0  0  0  0  0  0  0  0  0  0  0  # atno 17370 bound_to 10713
  155.9664  130.4338  150.5023 LP  0  0  0  0  0  0  0  0  0  0  0  0  # atno 17371 bound_to 10713
  141.0876  133.9967  157.3289 LP  0  0  0  0  0  0  0  0  0  0  0  0  # atno 17394 bound_to 11000
  139.9235  135.0201  156.8150 LP  0  0  0  0  0  0  0  0  0  0  0  0  # atno 17395 bound_to 11000

$$$$
