AV-unprocessed.smi:1093|AV-procd|sdf|4743|dock1
  -GOLD-   22720 3273D 1   1.00000     0.00000
 Structure written by MMmdl.
 47 48  0  0  0  0  0  0  0  0  2 V2000
  144.9207  133.4515  150.3915 C   0  0  0  0  0  0  0  0  0  0  0  0
  146.2900  134.0316  150.7745 C   0  0  0  0  0  0  0  0  0  0  0  0
  146.1732  135.2051  151.6753 N   0  3  2  0  0  0  0  0  0  0  0  0
  145.2556  134.9561  152.8176 C   0  0  0  0  0  0  0  0  0  0  0  0
  145.2746  136.1292  153.8138 C   0  0  0  0  0  0  0  0  0  0  0  0
  144.9677  137.4656  153.1161 C   0  0  0  0  0  0  0  0  0  0  0  0
  145.8945  137.6810  151.9062 C   0  0  1  0  0  0  0  0  0  0  0  0
  147.2632  137.9225  152.3653 N   0  0  0  0  0  0  0  0  0  0  0  0
  147.6098  138.6958  153.4043 C   0  0  0  0  0  0  0  0  0  0  0  0
  146.7935  139.2937  154.1043 O   0  0  0  0  0  0  0  0  0  0  0  0
  148.9428  138.7135  153.5729 N   0  0  0  0  0  0  0  0  0  0  0  0
  149.7105  139.4671  154.5018 C   0  0  0  0  0  0  0  0  0  0  0  0
  151.0847  139.2588  154.7615 C   0  0  0  0  0  0  0  0  0  0  0  0
  151.7273  140.0576  155.7267 C   0  0  0  0  0  0  0  0  0  0  0  0
  150.9840  141.0453  156.4193 C   0  0  0  0  0  0  0  0  0  0  0  0
  151.5846  141.8697  157.3981 N   0  0  0  0  0  0  0  0  0  0  0  0
  151.3015  143.3015  157.4157 C   0  0  0  0  0  0  0  0  0  0  0  0
  152.4785  141.2932  158.3948 C   0  0  0  0  0  0  0  0  0  0  0  0
  149.6645  141.2327  156.1720 N   0  0  0  0  0  0  0  0  0  0  0  0
  149.0525  140.4652  155.2467 C   0  0  0  0  0  0  0  0  0  0  0  0
  145.8106  136.4594  150.9635 C   0  0  0  0  0  0  0  0  0  0  0  0
  145.0352  132.6520  149.6592 H   0  0  0  0  0  0  0  0  0  0  0  0
  144.2797  134.2141  149.9484 H   0  0  0  0  0  0  0  0  0  0  0  0
  144.3972  133.0298  151.2488 H   0  0  0  0  0  0  0  0  0  0  0  0
  146.9205  133.2675  151.2313 H   0  0  0  0  0  0  0  0  0  0  0  0
  146.7897  134.3336  149.8532 H   0  0  0  0  0  0  0  0  0  0  0  0
  144.2432  134.7956  152.4433 H   0  0  0  0  0  0  0  0  0  0  0  0
  145.5496  134.0433  153.3372 H   0  0  0  0  0  0  0  0  0  0  0  0
  144.5505  135.9517  154.6095 H   0  0  0  0  0  0  0  0  0  0  0  0
  146.2510  136.1802  154.2971 H   0  0  0  0  0  0  0  0  0  0  0  0
  143.9299  137.4648  152.7798 H   0  0  0  0  0  0  0  0  0  0  0  0
  145.0589  138.2919  153.8223 H   0  0  0  0  0  0  0  0  0  0  0  0
  145.5576  138.5693  151.3686 H   0  0  0  0  0  0  0  0  0  0  0  0
  148.0010  137.4552  151.8586 H   0  0  0  0  0  0  0  0  0  0  0  0
  149.4749  138.0943  152.9791 H   0  0  0  0  0  0  0  0  0  0  0  0
  151.6570  138.4970  154.2562 H   0  0  0  0  0  0  0  0  0  0  0  0
  152.7765  139.8915  155.9188 H   0  0  0  0  0  0  0  0  0  0  0  0
  150.2340  143.4793  157.5496 H   0  0  0  0  0  0  0  0  0  0  0  0
  151.6157  143.7654  156.4802 H   0  0  0  0  0  0  0  0  0  0  0  0
  151.8267  143.8021  158.2292 H   0  0  0  0  0  0  0  0  0  0  0  0
  151.9536  140.5506  158.9966 H   0  0  0  0  0  0  0  0  0  0  0  0
  152.8644  142.0561  159.0709 H   0  0  0  0  0  0  0  0  0  0  0  0
  153.3318  140.8144  157.9136 H   0  0  0  0  0  0  0  0  0  0  0  0
  148.0001  140.6571  155.0970 H   0  0  0  0  0  0  0  0  0  0  0  0
  146.4610  136.6126  150.1036 H   0  0  0  0  0  0  0  0  0  0  0  0
  144.7995  136.3675  150.5634 H   0  0  0  0  0  0  0  0  0  0  0  0
  147.0898  135.3484  152.0745 H   0  0  0  0  0  0  0  0  0  0  0  0
  1  2  1  0  0  0  0
  1 22  1  0  0  0  0
  1 23  1  0  0  0  0
  1 24  1  0  0  0  0
  2  3  1  0  0  0  0
  2 25  1  0  0  0  0
  2 26  1  0  0  0  0
  3 21  1  0  0  0  0
  3  4  1  0  0  0  0
  3 47  1  0  0  0  0
  4  5  1  0  0  0  0
  4 27  1  0  0  0  0
  4 28  1  0  0  0  0
  5  6  1  0  0  0  0
  5 29  1  0  0  0  0
  5 30  1  0  0  0  0
  6  7  1  0  0  0  0
  6 31  1  0  0  0  0
  6 32  1  0  0  0  0
  7  8  1  0  0  0  0
  7 21  1  0  0  0  0
  7 33  1  0  0  0  0
  8  9  1  0  0  0  0
  8 34  1  0  0  0  0
  9 10  2  0  0  0  0
  9 11  1  0  0  0  0
 11 12  1  0  0  0  0
 11 35  1  0  0  0  0
 12 20  1  0  0  0  0
 12 13  2  0  0  0  0
 13 14  1  0  0  0  0
 13 36  1  0  0  0  0
 14 15  2  0  0  0  0
 14 37  1  0  0  0  0
 15 16  1  0  0  0  0
 15 19  1  0  0  0  0
 16 17  1  0  0  0  0
 16 18  1  0  0  0  0
 17 38  1  0  0  0  0
 17 39  1  0  0  0  0
 17 40  1  0  0  0  0
 18 41  1  0  0  0  0
 18 42  1  0  0  0  0
 18 43  1  0  0  0  0
 19 20  2  0  0  0  0
 20 44  1  0  0  0  0
 21 45  1  0  0  0  0
 21 46  1  0  0  0  0
M  CHG  1   3   1
M  END
> <s_m_source_file>
AV-unprocessed.smi

> <i_m_source_file_index>
1093

> <i_lp_mmshare_version>
43012

> <i_f3d_flags>
0

> <s_epik_input>
W0NIM11bQ0gyXU4xW0NIMl1bQ0gyXVtDSDJdW0NASF0oW0NIMl0xKVtOSF1DKD1PKVtOSF1jMltjSF1bY0hdYyhOKFtDSDNdKVtDSDNdKW5bY0hdMg==

> <s_epik_cmdline>
J2VwaWtfcHl0aG9uJywgJy1waCcsICc3LjAnLCAnLXRuJywgJzgnLCAnLW1hJywgJzIwMCcsICctbWV0YWxfYmluZGluZycsICctaW1hZScsICc8aW5maWxlLm1hZT4nLCAnLW9tYWUnLCAnPG91dGZpbGUubWFlPic=

> <r_lp_tautomer_probability>
1

> <r_epik_Ionization_Penalty>
0.489418

> <r_epik_Ionization_Penalty_Charging>
0.00268196

> <r_epik_Ionization_Penalty_Neutral>
0.486736

> <r_epik_State_Penalty>
0.491157

> <r_epik_Charging_Adjusted_Penalty>
0.493839

> <i_epik_Tot_Q>
1

> <i_epik_Tot_abs_Q>
1

> <r_epik_Metal_State_Penalty>
0.266953

> <b_epik_Metal_Only>
0

> <s_lp_Force_Field>
OPLS_2005

> <r_lp_Energy>
27.714

> <b_lp_Chiralities_Consistent>
1

> <s_lp_Variant>
AV-unprocessed.smi:1093-6

> <Gold.Version>
5.8.1

> <Gold.Id.Protein>
6NUR|6NUR_protein|mol2

> <Gold.PLP.Fitness>
40.6744

> <Gold.PLP.PLP>
-33.3767

> <Gold.PLP.part.hbond>
-3.6368

> <Gold.PLP.part.metal>
0.0000

> <Gold.PLP.part.buried>
0.2191

> <Gold.PLP.part.nonpolar>
-28.3836

> <Gold.PLP.part.repulsive>
0.4051

> <Gold.PLP.ligand.clash>
0.0000

> <Gold.PLP.ligand.torsion>
1.1016

> <Gold.PLP.Chemscore.Hbond>
3.1582

> <Gold.PLP.Chemscore.CHOScore>
0.0000

> <Gold.PLP.Chemscore.Metal>
0.0000

> <Gold.Chemscore.Hbonds>
donor molecule, donor type, donor heavy atom, donor atom, acceptor molecule, acceptor atom, score
      L1  H     3    47       P1  7948  1.78
      L1  H     8    34       P1  7948  0.90
      L1  H    11    35       P1  7948  0.40

> <Gold.PLP.Chemscore.Internal.Correction>
0.0262

> <Gold.Rescore>
     Score         DG    S(hbond)    S(metal)    S(lipo)     H(rot)  DE(clash)    DE(int)     intcor
     15.10     -18.93       2.02        0.00      83.18       1.18       0.18       3.65       ----

> <Gold.Chemscore.Fitness>
15.1044

> <Gold.Chemscore.DG>
-18.9262

> <Gold.Chemscore.ZeroCoef>
-5.4800

> <Gold.Chemscore.Hbond>
2.0196

> <Gold.Chemscore.Metal>
0.0000

> <Gold.Chemscore.Lipo>
83.1832

> <Gold.Chemscore.Internal_Hbond>
0.0000

> <Gold.Chemscore.DEClash>
0.1763

> <Gold.Chemscore.DEInternal>
3.6455

> <Gold.Chemscore.Rot>
1.1842

> <Gold.Chemscore.Internal.Correction>
   9.000000E+99

> <Gold.Chemscore.Hbonds>
donor molecule, donor type, donor heavy atom, donor atom, acceptor molecule, acceptor atom, score
      L1  H     3    47       P1  7948  0.82
      L1  H     8    34       P1  7948  0.82
      L1  H    11    35       P1  7948  0.36

> <Gold.Chemscore.Hbond.Weighted>
-6.7454

> <Gold.Chemscore.Metal.Weighted>
-0.0000

> <Gold.Chemscore.Lipo.Weighted>
-9.7324

> <Gold.Chemscore.Internal_Hbond.Weighted>
0.0000

> <Gold.Chemscore.DEClash.Weighted>
0.1763

> <Gold.Chemscore.DEInternal.Weighted>
3.6455

> <Gold.Chemscore.Rot.Weighted>
3.0317

> <Gold.Chemscore.Internal.Correction.Weighted>
   9.000000E+99

> <Gold.Protein.RotatedTorsions>
[ 6907 6896 6895 6894 ] final  -44.65 input  -60.11 | X-H torsion
[ 7974 7965 7964 7962 ] final  115.01 input  175.53 | X-H torsion
[ 8008 7997 7996 7995 ] final  -29.02 input   59.86 | X-H torsion
[ 10167 10162 10161 10158 ] final  101.69 input  -65.29 | X-H torsion
[ 10718 10713 10712 10709 ] final  103.80 input   66.30 | X-H torsion
[ 10763 10752 10751 10750 ] final  140.12 input  -60.55 | X-H torsion
[ 11005 11000 10999 10996 ] final -148.98 input  -57.11 | X-H torsion

> <Gold.Protein.ActiveResidues>
 VAL166  LYS551  ARG553  GLY616  TRP617  ASP618  TYR619  PRO620  LYS621  CYS622 
 ASP623  PHE694  ASN695  SER759  ASP760  ASP761  ALA762  ILE779  LEU786  VAL792 
 PHE793  MET794  SER795  GLU796  ALA797  LYS798  CYS799  TRP800  GLU811  SER814 

> <Gold.Protein.RotatedAtoms>
  150.9305  134.8720  159.7547 H   0  0  0  0  0  0  0  0  0  0  0  0  # atno 6907 bound_to 6896
  152.5035  134.4086  159.9451 H   0  0  0  0  0  0  0  0  0  0  0  0  # atno 6908 bound_to 6896
  151.4114  133.3686  159.2779 H   0  0  0  0  0  0  0  0  0  0  0  0  # atno 6909 bound_to 6896
  145.1973  139.2970  143.4337 H   0  0  0  0  0  0  0  0  0  0  0  0  # atno 7974 bound_to 7965
  154.4307  140.1829  156.1182 H   0  0  0  0  0  0  0  0  0  0  0  0  # atno 8008 bound_to 7997
  156.0164  140.3345  155.6968 H   0  0  0  0  0  0  0  0  0  0  0  0  # atno 8009 bound_to 7997
  155.6038  140.0643  157.2716 H   0  0  0  0  0  0  0  0  0  0  0  0  # atno 8010 bound_to 7997
  139.7416  144.7009  151.0567 H   0  0  0  0  0  0  0  0  0  0  0  0  # atno 10167 bound_to 10162
  157.6761  131.0788  150.5611 H   0  0  0  0  0  0  0  0  0  0  0  0  # atno 10718 bound_to 10713
  153.9174  135.3004  155.3448 H   0  0  0  0  0  0  0  0  0  0  0  0  # atno 10763 bound_to 10752
  154.7593  135.4942  153.9437 H   0  0  0  0  0  0  0  0  0  0  0  0  # atno 10764 bound_to 10752
  153.1160  135.6771  153.9520 H   0  0  0  0  0  0  0  0  0  0  0  0  # atno 10765 bound_to 10752
  140.7556  134.3357  157.5115 H   0  0  0  0  0  0  0  0  0  0  0  0  # atno 11005 bound_to 11000
  146.3424  140.2206  142.8591 LP  0  0  0  0  0  0  0  0  0  0  0  0  # atno 17320 bound_to 7965
  144.9982  140.8608  143.5298 LP  0  0  0  0  0  0  0  0  0  0  0  0  # atno 17321 bound_to 7965
  140.7786  143.4918  150.9884 LP  0  0  0  0  0  0  0  0  0  0  0  0  # atno 17342 bound_to 10162
  139.8606  143.7320  152.3173 LP  0  0  0  0  0  0  0  0  0  0  0  0  # atno 17343 bound_to 10162
  156.5913  130.4330  149.5935 LP  0  0  0  0  0  0  0  0  0  0  0  0  # atno 17370 bound_to 10713
  156.2581  130.6946  151.1706 LP  0  0  0  0  0  0  0  0  0  0  0  0  # atno 17371 bound_to 10713
  139.8780  134.9170  156.3167 LP  0  0  0  0  0  0  0  0  0  0  0  0  # atno 17394 bound_to 11000
  140.9711  133.7327  156.0535 LP  0  0  0  0  0  0  0  0  0  0  0  0  # atno 17395 bound_to 11000

$$$$
