AV-unprocessed.smi:33|AV-procd|sdf|204|dock4
  -GOLD-   2262015483D 1   1.00000     0.00000
 Structure written by MMmdl.
 67 72  0  0  0  0  0  0  0  0  1 V2000
  154.4101  140.1949  159.0065 O   0  0  0  0  0  0  0  0  0  0  0  0
  153.3052  140.6988  158.7942 C   0  0  0  0  0  0  0  0  0  0  0  0
  152.3119  140.0657  158.1308 O   0  0  0  0  0  0  0  0  0  0  0  0
  152.3986  138.6649  157.9069 C   0  0  0  0  0  0  0  0  0  0  0  0
  152.6913  138.2947  156.4392 C   0  0  1  0  0  0  0  0  0  0  0  0
  152.5421  136.8994  156.1890 O   0  0  0  0  0  0  0  0  0  0  0  0
  151.3255  136.6286  155.5497 C   0  0  1  0  0  0  0  0  0  0  0  0
  150.4536  135.8827  156.5127 N   0  0  0  0  0  0  0  0  0  0  0  0
  149.9328  136.2944  157.7224 C   0  0  0  0  0  0  0  0  0  0  0  0
  149.1899  135.4165  158.3408 N   0  0  0  0  0  0  0  0  0  0  0  0
  149.2468  134.2963  157.5231 C   0  0  0  0  0  0  0  0  0  0  0  0
  148.6978  132.9885  157.5985 C   0  0  0  0  0  0  0  0  0  0  0  0
  147.8998  132.5926  158.6164 N   0  0  0  0  0  0  0  0  0  0  0  0
  146.6547  133.3435  158.8169 C   0  0  0  0  0  0  0  0  0  0  0  0
  146.0582  133.8118  157.8457 O   0  0  0  0  0  0  0  0  0  0  0  0
  146.0798  133.4921  160.1967 C   0  0  0  0  0  0  0  0  0  0  0  0
  144.6900  133.3542  160.4051 C   0  0  0  0  0  0  0  0  0  0  0  0
  144.1464  133.5186  161.6940 C   0  0  0  0  0  0  0  0  0  0  0  0
  144.9859  133.8400  162.7777 C   0  0  0  0  0  0  0  0  0  0  0  0
  146.3686  134.0057  162.5712 C   0  0  0  0  0  0  0  0  0  0  0  0
  146.9132  133.8401  161.2835 C   0  0  0  0  0  0  0  0  0  0  0  0
  148.3628  131.4733  159.4513 C   0  0  0  0  0  0  0  0  0  0  0  0
  149.5520  131.1490  159.4395 O   0  0  0  0  0  0  0  0  0  0  0  0
  147.4021  130.7427  160.3461 C   0  0  0  0  0  0  0  0  0  0  0  0
  147.8419  130.2405  161.5903 C   0  0  0  0  0  0  0  0  0  0  0  0
  146.9516  129.5429  162.4294 C   0  0  0  0  0  0  0  0  0  0  0  0
  145.6215  129.3270  162.0219 C   0  0  0  0  0  0  0  0  0  0  0  0
  145.1837  129.8012  160.7707 C   0  0  0  0  0  0  0  0  0  0  0  0
  146.0730  130.4997  159.9313 C   0  0  0  0  0  0  0  0  0  0  0  0
  148.9922  132.1141  156.6023 N   0  0  0  0  0  0  0  0  0  0  0  0
  149.7646  132.5056  155.5841 C   0  0  0  0  0  0  0  0  0  0  0  0
  150.3338  133.6957  155.3761 N   0  0  0  0  0  0  0  0  0  0  0  0
  150.0475  134.5719  156.3821 C   0  0  0  0  0  0  0  0  0  0  0  0
  150.6829  137.9807  155.1815 C   0  0  2  0  0  0  0  0  0  0  0  0
  150.1994  138.0372  153.8541 O   0  0  0  0  0  0  0  0  0  0  0  0
  151.8219  138.9707  155.3826 C   0  0  2  0  0  0  0  0  0  0  0  0
  152.5586  139.0763  154.2727 F   0  0  0  0  0  0  0  0  0  0  0  0
  152.9249  142.0609  159.2673 C   0  0  0  0  0  0  0  0  0  0  0  0
  152.5695  143.0473  158.3173 C   0  0  0  0  0  0  0  0  0  0  0  0
  152.2084  144.3443  158.7297 C   0  0  0  0  0  0  0  0  0  0  0  0
  152.1936  144.6693  160.0980 C   0  0  0  0  0  0  0  0  0  0  0  0
  152.5490  143.6988  161.0526 C   0  0  0  0  0  0  0  0  0  0  0  0
  152.9126  142.4025  160.6412 C   0  0  0  0  0  0  0  0  0  0  0  0
  153.1884  138.2677  158.5455 H   0  0  0  0  0  0  0  0  0  0  0  0
  151.4714  138.1766  158.2107 H   0  0  0  0  0  0  0  0  0  0  0  0
  153.7383  138.5448  156.2634 H   0  0  0  0  0  0  0  0  0  0  0  0
  151.4667  135.9462  154.7105 H   0  0  0  0  0  0  0  0  0  0  0  0
  150.0984  137.2810  158.1294 H   0  0  0  0  0  0  0  0  0  0  0  0
  144.0362  133.1100  159.5802 H   0  0  0  0  0  0  0  0  0  0  0  0
  143.0844  133.4000  161.8505 H   0  0  0  0  0  0  0  0  0  0  0  0
  144.5684  133.9668  163.7658 H   0  0  0  0  0  0  0  0  0  0  0  0
  147.0120  134.2623  163.3999 H   0  0  0  0  0  0  0  0  0  0  0  0
  147.9746  133.9793  161.1350 H   0  0  0  0  0  0  0  0  0  0  0  0
  148.8606  130.4008  161.9132 H   0  0  0  0  0  0  0  0  0  0  0  0
  147.2900  129.1726  163.3857 H   0  0  0  0  0  0  0  0  0  0  0  0
  144.9392  128.7921  162.6658 H   0  0  0  0  0  0  0  0  0  0  0  0
  144.1659  129.6285  160.4537 H   0  0  0  0  0  0  0  0  0  0  0  0
  145.7269  130.8548  158.9713 H   0  0  0  0  0  0  0  0  0  0  0  0
  149.9522  131.7591  154.8265 H   0  0  0  0  0  0  0  0  0  0  0  0
  149.8706  138.2062  155.8703 H   0  0  0  0  0  0  0  0  0  0  0  0
  149.9215  137.1705  153.5998 H   0  0  0  0  0  0  0  0  0  0  0  0
  151.4910  139.9730  155.6563 H   0  0  0  0  0  0  0  0  0  0  0  0
  152.5728  142.8212  157.2607 H   0  0  0  0  0  0  0  0  0  0  0  0
  151.9427  145.0905  157.9953 H   0  0  0  0  0  0  0  0  0  0  0  0
  151.9192  145.6646  160.4150 H   0  0  0  0  0  0  0  0  0  0  0  0
  152.5468  143.9503  162.1032 H   0  0  0  0  0  0  0  0  0  0  0  0
  153.1777  141.6836  161.3997 H   0  0  0  0  0  0  0  0  0  0  0  0
  1  2  2  0  0  0  0
  2  3  1  0  0  0  0
  2 38  1  0  0  0  0
  3  4  1  0  0  0  0
  4  5  1  0  0  0  0
  4 44  1  0  0  0  0
  4 45  1  0  0  0  0
  5 36  1  0  0  0  0
  5  6  1  0  0  0  0
  5 46  1  0  0  0  0
  6  7  1  0  0  0  0
  7  8  1  0  0  0  0
  7 34  1  0  0  0  0
  7 47  1  0  0  0  0
  8 33  1  0  0  0  0
  8  9  1  0  0  0  0
  9 10  2  0  0  0  0
  9 48  1  0  0  0  0
 10 11  1  0  0  0  0
 11 33  2  0  0  0  0
 11 12  1  0  0  0  0
 12 13  1  0  0  0  0
 12 30  2  0  0  0  0
 13 14  1  0  0  0  0
 13 22  1  0  0  0  0
 14 15  2  0  0  0  0
 14 16  1  0  0  0  0
 16 21  1  0  0  0  0
 16 17  2  0  0  0  0
 17 18  1  0  0  0  0
 17 49  1  0  0  0  0
 18 19  2  0  0  0  0
 18 50  1  0  0  0  0
 19 20  1  0  0  0  0
 19 51  1  0  0  0  0
 20 21  2  0  0  0  0
 20 52  1  0  0  0  0
 21 53  1  0  0  0  0
 22 23  2  0  0  0  0
 22 24  1  0  0  0  0
 24 29  1  0  0  0  0
 24 25  2  0  0  0  0
 25 26  1  0  0  0  0
 25 54  1  0  0  0  0
 26 27  2  0  0  0  0
 26 55  1  0  0  0  0
 27 28  1  0  0  0  0
 27 56  1  0  0  0  0
 28 29  2  0  0  0  0
 28 57  1  0  0  0  0
 29 58  1  0  0  0  0
 30 31  1  0  0  0  0
 31 32  2  0  0  0  0
 31 59  1  0  0  0  0
 32 33  1  0  0  0  0
 34 35  1  0  0  0  0
 34 36  1  0  0  0  0
 34 60  1  0  0  0  0
 35 61  1  0  0  0  0
 36 37  1  0  0  0  0
 36 62  1  0  0  0  0
 38 43  1  0  0  0  0
 38 39  2  0  0  0  0
 39 40  1  0  0  0  0
 39 63  1  0  0  0  0
 40 41  2  0  0  0  0
 40 64  1  0  0  0  0
 41 42  1  0  0  0  0
 41 65  1  0  0  0  0
 42 43  2  0  0  0  0
 42 66  1  0  0  0  0
 43 67  1  0  0  0  0
M  END
> <s_m_source_file>
AV-unprocessed.smi

> <i_m_source_file_index>
33

> <i_lp_mmshare_version>
43012

> <i_f3d_flags>
0

> <s_epik_input>
W2NIXTFbY0hdW2NIXVtjSF1bY0hdYzFDKD1PKU9bQ0gyXVtDQEBIXTJPW0NASF0oW0NAQEhdKFtPSF0pW0NAQEhdMkYpbihbY0hdbjMpYyhjMzQpbltjSF1uYzROKEMoPU8pYzVbY0hdW2NIXVtjSF1bY0hdW2NIXTUpQyg9TyljNltjSF1bY0hdW2NIXVtjSF1bY0hdNg==

> <s_epik_cmdline>
J2VwaWtfcHl0aG9uJywgJy1waCcsICc3LjAnLCAnLXRuJywgJzgnLCAnLW1hJywgJzIwMCcsICctbWV0YWxfYmluZGluZycsICctaW1hZScsICc8aW5maWxlLm1hZT4nLCAnLW9tYWUnLCAnPG91dGZpbGUubWFlPic=

> <r_lp_tautomer_probability>
1

> <r_epik_Ionization_Penalty>
0.00067664

> <r_epik_Ionization_Penalty_Charging>
0

> <r_epik_Ionization_Penalty_Neutral>
0.00067664

> <r_epik_State_Penalty>
0.000428095

> <r_epik_Charging_Adjusted_Penalty>
0.000428095

> <i_epik_Tot_Q>
0

> <i_epik_Tot_abs_Q>
0

> <r_epik_Metal_State_Penalty>
-0

> <b_epik_Metal_Only>
0

> <s_epik_Chemistry_Notes>
This compound has an ester and may undergo hydrolysis at high or low pH. This compound contains an acetal/aminal-like group ( X-CH(R)-Y where X, Y are N, S, or O) that may be acid/base labile, releasing an aldehyde.

> <s_lp_Force_Field>
OPLS_2005

> <r_lp_Energy>
67.2923

> <b_lp_Chiralities_Consistent>
1

> <s_lp_Variant>
AV-unprocessed.smi:33-6

> <Gold.Version>
5.8.1

> <Gold.Id.Protein>
6NUR|6NUR_protein|mol2

> <Gold.PLP.Fitness>
58.7853

> <Gold.PLP.PLP>
-57.1646

> <Gold.PLP.part.hbond>
-3.9617

> <Gold.PLP.part.metal>
0.0000

> <Gold.PLP.part.buried>
-4.1646

> <Gold.PLP.part.nonpolar>
-49.0294

> <Gold.PLP.part.repulsive>
0.0561

> <Gold.PLP.ligand.clash>
0.0000

> <Gold.PLP.ligand.torsion>
4.6932

> <Gold.PLP.Chemscore.Hbond>
2.3869

> <Gold.PLP.Chemscore.CHOScore>
0.0000

> <Gold.PLP.Chemscore.Metal>
0.0000

> <Gold.Chemscore.Hbonds>
donor molecule, donor type, donor heavy atom, donor atom, acceptor molecule, acceptor atom, score
      L1  H    35    61       P1  7948  0.49
      P1  H  6896  6909       L1    10  0.39
      P1  H  7997  8008       L1     1  0.93
      P1  H 10752 10763       L1     6  0.50

> <Gold.PLP.Chemscore.Internal.Correction>
3.8464

> <Gold.Rescore>
     Score         DG    S(hbond)    S(metal)    S(lipo)     H(rot)  DE(clash)    DE(int)     intcor
     14.73     -21.35       1.44        0.00     149.66       2.52       1.36       5.27       ----

> <Gold.Chemscore.Fitness>
14.7315

> <Gold.Chemscore.DG>
-21.3528

> <Gold.Chemscore.ZeroCoef>
-5.4800

> <Gold.Chemscore.Hbond>
1.4448

> <Gold.Chemscore.Metal>
0.0000

> <Gold.Chemscore.Lipo>
149.6615

> <Gold.Chemscore.Internal_Hbond>
0.0000

> <Gold.Chemscore.DEClash>
1.3551

> <Gold.Chemscore.DEInternal>
5.2662

> <Gold.Chemscore.Rot>
2.5247

> <Gold.Chemscore.Internal.Correction>
   9.000000E+99

> <Gold.Chemscore.Hbonds>
donor molecule, donor type, donor heavy atom, donor atom, acceptor molecule, acceptor atom, score
      L1  H    35    61       P1  7948  0.25
      P1  H  7997  8008       L1     1  0.23
      P1  H 10752 10763       L1     6  0.05

> <Gold.Chemscore.Hbond.Weighted>
-4.8257

> <Gold.Chemscore.Metal.Weighted>
-0.0000

> <Gold.Chemscore.Lipo.Weighted>
-17.5104

> <Gold.Chemscore.Internal_Hbond.Weighted>
0.0000

> <Gold.Chemscore.DEClash.Weighted>
1.3551

> <Gold.Chemscore.DEInternal.Weighted>
5.2662

> <Gold.Chemscore.Rot.Weighted>
6.4633

> <Gold.Chemscore.Internal.Correction.Weighted>
   9.000000E+99

> <Gold.Protein.RotatedTorsions>
[ 6907 6896 6895 6894 ] final   56.49 input  -60.11 | X-H torsion
[ 7974 7965 7964 7962 ] final  149.62 input  175.53 | X-H torsion
[ 8008 7997 7996 7995 ] final -114.57 input   59.86 | X-H torsion
[ 10167 10162 10161 10158 ] final -115.29 input  -65.29 | X-H torsion
[ 10718 10713 10712 10709 ] final -168.11 input   66.30 | X-H torsion
[ 10763 10752 10751 10750 ] final  117.34 input  -60.55 | X-H torsion
[ 11005 11000 10999 10996 ] final -166.78 input  -57.11 | X-H torsion

> <Gold.Protein.ActiveResidues>
 VAL166  LYS551  ARG553  GLY616  TRP617  ASP618  TYR619  PRO620  LYS621  CYS622 
 ASP623  PHE694  ASN695  SER759  ASP760  ASP761  ALA762  ILE779  LEU786  VAL792 
 PHE793  MET794  SER795  GLU796  ALA797  LYS798  CYS799  TRP800  GLU811  SER814 

> <Gold.Protein.RotatedAtoms>
  152.3641  134.6830  160.0197 H   0  0  0  0  0  0  0  0  0  0  0  0  # atno 6907 bound_to 6896
  151.7144  133.3307  159.3307 H   0  0  0  0  0  0  0  0  0  0  0  0  # atno 6908 bound_to 6896
  150.7625  134.6438  159.6296 H   0  0  0  0  0  0  0  0  0  0  0  0  # atno 6909 bound_to 6896
  144.8425  139.6303  143.6010 H   0  0  0  0  0  0  0  0  0  0  0  0  # atno 7974 bound_to 7965
  155.0385  140.0392  157.2500 H   0  0  0  0  0  0  0  0  0  0  0  0  # atno 8008 bound_to 7997
  154.7237  140.2717  155.6495 H   0  0  0  0  0  0  0  0  0  0  0  0  # atno 8009 bound_to 7997
  156.2823  140.2698  156.1916 H   0  0  0  0  0  0  0  0  0  0  0  0  # atno 8010 bound_to 7997
  140.0917  143.4693  152.1866 H   0  0  0  0  0  0  0  0  0  0  0  0  # atno 10167 bound_to 10162
  156.6921  130.9163  151.3070 H   0  0  0  0  0  0  0  0  0  0  0  0  # atno 10718 bound_to 10713
  153.5508  135.3540  155.2759 H   0  0  0  0  0  0  0  0  0  0  0  0  # atno 10763 bound_to 10752
  154.8707  135.4113  154.2939 H   0  0  0  0  0  0  0  0  0  0  0  0  # atno 10764 bound_to 10752
  153.3665  135.7062  153.6740 H   0  0  0  0  0  0  0  0  0  0  0  0  # atno 10765 bound_to 10752
  140.5606  134.5337  157.5142 H   0  0  0  0  0  0  0  0  0  0  0  0  # atno 11005 bound_to 11000
  146.2715  139.6647  142.9293 LP  0  0  0  0  0  0  0  0  0  0  0  0  # atno 17320 bound_to 7965
  145.4665  141.0435  143.2722 LP  0  0  0  0  0  0  0  0  0  0  0  0  # atno 17321 bound_to 7965
  139.5721  144.7468  151.3863 LP  0  0  0  0  0  0  0  0  0  0  0  0  # atno 17342 bound_to 10162
  140.7025  143.7597  150.7426 LP  0  0  0  0  0  0  0  0  0  0  0  0  # atno 17343 bound_to 10162
  157.7005  130.9328  150.0771 LP  0  0  0  0  0  0  0  0  0  0  0  0  # atno 17370 bound_to 10713
  156.1790  130.3649  149.9061 LP  0  0  0  0  0  0  0  0  0  0  0  0  # atno 17371 bound_to 10713
  139.9409  134.7788  156.0680 LP  0  0  0  0  0  0  0  0  0  0  0  0  # atno 17394 bound_to 11000
  141.1117  133.6641  156.2994 LP  0  0  0  0  0  0  0  0  0  0  0  0  # atno 17395 bound_to 11000

$$$$
