AV-unprocessed.smi:334|AV-procd|sdf|2365|dock7
  -GOLD-   2262022283D 1   1.00000     0.00000
 Structure written by MMmdl.
 44 46  0  0  0  0  0  0  0  0  3 V2000
  151.1215  139.2025  155.1342 C   0  0  0  0  0  0  0  0  0  0  0  0
  150.2170  140.3486  155.6176 C   0  0  1  0  0  0  0  0  0  0  0  0
  151.0222  141.4008  156.2268 N   0  0  0  0  0  0  0  0  0  0  0  0
  151.2138  141.5930  157.5428 C   0  0  0  0  0  0  0  0  0  0  0  0
  150.8079  140.8085  158.3991 O   0  0  0  0  0  0  0  0  0  0  0  0
  151.9367  142.8780  157.9830 C   0  0  0  0  0  0  0  0  0  0  0  0
  152.1540  142.9803  159.4379 N   0  0  0  0  0  0  0  0  0  0  0  0
  152.8159  141.8983  160.0518 C   0  0  0  0  0  0  0  0  0  0  0  0
  153.0264  141.8477  161.3812 C   0  0  0  0  0  0  0  0  0  0  0  0
  153.6651  140.7063  161.9973 N   0  3  0  0  0  0  0  0  0  0  0  0
  154.1661  140.8418  163.1088 O   0  0  0  0  0  0  0  0  0  0  0  0
  153.6819  139.6371  161.3948 O   0  5  0  0  0  0  0  0  0  0  0  0
  152.5643  142.9665  162.1792 C   0  0  0  0  0  0  0  0  0  0  0  0
  151.9267  144.0024  161.5990 C   0  0  0  0  0  0  0  0  0  0  0  0
  151.6753  144.0428  160.1546 C   0  0  0  0  0  0  0  0  0  0  0  0
  151.0632  144.9699  159.6253 O   0  0  0  0  0  0  0  0  0  0  0  0
  149.3787  140.9519  154.4652 C   0  0  1  0  0  0  0  0  0  0  0  0
  148.5050  139.9323  153.7010 C   0  0  0  0  0  0  0  0  0  0  0  0
  147.1174  140.6016  153.6956 C   0  0  1  0  0  0  0  0  0  0  0  0
  146.5077  140.5128  155.1074 C   0  0  0  0  0  0  0  0  0  0  0  0
  147.3423  141.5338  155.9018 C   0  0  0  0  0  0  0  0  0  0  0  0
  148.3463  142.0441  154.8488 C   0  0  2  0  0  0  0  0  0  0  0  0
  147.4729  142.0807  153.5996 C   0  0  0  0  0  0  0  0  0  0  0  0
  150.5363  138.4004  154.6840 H   0  0  0  0  0  0  0  0  0  0  0  0
  151.6856  138.7685  155.9601 H   0  0  0  0  0  0  0  0  0  0  0  0
  151.8380  139.5491  154.3887 H   0  0  0  0  0  0  0  0  0  0  0  0
  149.5370  139.9496  156.3721 H   0  0  0  0  0  0  0  0  0  0  0  0
  151.4034  142.0907  155.5961 H   0  0  0  0  0  0  0  0  0  0  0  0
  152.9012  142.9165  157.4744 H   0  0  0  0  0  0  0  0  0  0  0  0
  151.3822  143.7351  157.5983 H   0  0  0  0  0  0  0  0  0  0  0  0
  153.1077  141.1111  159.3710 H   0  0  0  0  0  0  0  0  0  0  0  0
  152.7265  142.9819  163.2469 H   0  0  0  0  0  0  0  0  0  0  0  0
  151.5902  144.8253  162.2125 H   0  0  0  0  0  0  0  0  0  0  0  0
  150.0716  141.4058  153.7540 H   0  0  0  0  0  0  0  0  0  0  0  0
  148.8783  139.7963  152.6851 H   0  0  0  0  0  0  0  0  0  0  0  0
  148.4771  138.9507  154.1759 H   0  0  0  0  0  0  0  0  0  0  0  0
  146.4570  140.2324  152.9105 H   0  0  0  0  0  0  0  0  0  0  0  0
  145.4561  140.8025  155.0982 H   0  0  0  0  0  0  0  0  0  0  0  0
  146.5746  139.5071  155.5243 H   0  0  0  0  0  0  0  0  0  0  0  0
  146.7093  142.3513  156.2495 H   0  0  0  0  0  0  0  0  0  0  0  0
  147.8187  141.0990  156.7798 H   0  0  0  0  0  0  0  0  0  0  0  0
  148.7977  143.0024  155.1067 H   0  0  0  0  0  0  0  0  0  0  0  0
  148.0217  142.3370  152.6914 H   0  0  0  0  0  0  0  0  0  0  0  0
  146.6085  142.7408  153.6934 H   0  0  0  0  0  0  0  0  0  0  0  0
  1  2  1  0  0  0  0
  1 24  1  0  0  0  0
  1 25  1  0  0  0  0
  1 26  1  0  0  0  0
  2  3  1  0  0  0  0
  2 17  1  0  0  0  0
  2 27  1  0  0  0  0
  3  4  1  0  0  0  0
  3 28  1  0  0  0  0
  4  5  2  0  0  0  0
  4  6  1  0  0  0  0
  6  7  1  0  0  0  0
  6 29  1  0  0  0  0
  6 30  1  0  0  0  0
  7 15  1  0  0  0  0
  7  8  1  0  0  0  0
  8  9  2  0  0  0  0
  8 31  1  0  0  0  0
  9 10  1  0  0  0  0
  9 13  1  0  0  0  0
 10 11  2  0  0  0  0
 10 12  1  0  0  0  0
 13 14  2  0  0  0  0
 13 32  1  0  0  0  0
 14 15  1  0  0  0  0
 14 33  1  0  0  0  0
 15 16  2  0  0  0  0
 17 22  1  0  0  0  0
 17 18  1  0  0  0  0
 17 34  1  0  0  0  0
 18 19  1  0  0  0  0
 18 35  1  0  0  0  0
 18 36  1  0  0  0  0
 19 23  1  0  0  0  0
 19 20  1  0  0  0  0
 19 37  1  0  0  0  0
 20 21  1  0  0  0  0
 20 38  1  0  0  0  0
 20 39  1  0  0  0  0
 21 22  1  0  0  0  0
 21 40  1  0  0  0  0
 21 41  1  0  0  0  0
 22 23  1  0  0  0  0
 22 42  1  0  0  0  0
 23 43  1  0  0  0  0
 23 44  1  0  0  0  0
M  CHG  1  10   1
M  CHG  1  12  -1
M  END
> <s_m_source_file>
AV-unprocessed.smi

> <i_m_source_file_index>
334

> <i_lp_mmshare_version>
43012

> <i_f3d_flags>
0

> <s_epik_input>
W0NIMl0xW0NIMl1bQ0BIXShbQ0gyXTIpW0NAQEhdKFtDSDJdW0NAQEhdMTIpW0NASF0oW0NIM10pW05IXUMoPU8pW0NIMl1uM1tjSF1jKFtOK10oPU8pW08tXSlbY0hdW2NIXWMzPU8=

> <s_epik_cmdline>
J2VwaWtfcHl0aG9uJywgJy1waCcsICc3LjAnLCAnLXRuJywgJzgnLCAnLW1hJywgJzIwMCcsICctbWV0YWxfYmluZGluZycsICctaW1hZScsICc8aW5maWxlLm1hZT4nLCAnLW9tYWUnLCAnPG91dGZpbGUubWFlPic=

> <r_lp_tautomer_probability>
1

> <r_epik_Ionization_Penalty>
2.17081e-08

> <r_epik_Ionization_Penalty_Charging>
8.1195e-11

> <r_epik_Ionization_Penalty_Neutral>
2.16269e-08

> <r_epik_State_Penalty>
-0

> <r_epik_Charging_Adjusted_Penalty>
8.1195e-11

> <i_epik_Tot_Q>
0

> <i_epik_Tot_abs_Q>
2

> <r_epik_Metal_State_Penalty>
-0

> <b_epik_Metal_Only>
0

> <s_lp_Force_Field>
OPLS_2005

> <r_lp_Energy>
61.6475

> <b_lp_Chiralities_Consistent>
1

> <s_lp_Variant>
AV-unprocessed.smi:334-4

> <Gold.Version>
5.8.1

> <Gold.Id.Protein>
6NUR|6NUR_protein|mol2

> <Gold.PLP.Fitness>
49.0465

> <Gold.PLP.PLP>
-49.9690

> <Gold.PLP.part.hbond>
-1.0000

> <Gold.PLP.part.metal>
0.0000

> <Gold.PLP.part.buried>
-3.0389

> <Gold.PLP.part.nonpolar>
-45.1975

> <Gold.PLP.part.repulsive>
0.2666

> <Gold.PLP.ligand.clash>
0.0000

> <Gold.PLP.ligand.torsion>
0.4921

> <Gold.PLP.Chemscore.Hbond>
0.0000

> <Gold.PLP.Chemscore.CHOScore>
0.0000

> <Gold.PLP.Chemscore.Metal>
0.0000

> <Gold.PLP.Chemscore.Internal.Correction>
0.0617

> <Gold.Rescore>
     Score         DG    S(hbond)    S(metal)    S(lipo)     H(rot)  DE(clash)    DE(int)     intcor
     11.49     -13.21       0.00        0.00     104.26       1.75       0.09       1.62       ----

> <Gold.Chemscore.Fitness>
11.4874

> <Gold.Chemscore.DG>
-13.2052

> <Gold.Chemscore.ZeroCoef>
-5.4800

> <Gold.Chemscore.Hbond>
0.0000

> <Gold.Chemscore.Metal>
0.0000

> <Gold.Chemscore.Lipo>
104.2607

> <Gold.Chemscore.Internal_Hbond>
0.0000

> <Gold.Chemscore.DEClash>
0.0937

> <Gold.Chemscore.DEInternal>
1.6241

> <Gold.Chemscore.Rot>
1.7474

> <Gold.Chemscore.Internal.Correction>
   9.000000E+99

> <Gold.Chemscore.Hbond.Weighted>
-0.0000

> <Gold.Chemscore.Metal.Weighted>
-0.0000

> <Gold.Chemscore.Lipo.Weighted>
-12.1985

> <Gold.Chemscore.Internal_Hbond.Weighted>
0.0000

> <Gold.Chemscore.DEClash.Weighted>
0.0937

> <Gold.Chemscore.DEInternal.Weighted>
1.6241

> <Gold.Chemscore.Rot.Weighted>
4.4733

> <Gold.Chemscore.Internal.Correction.Weighted>
   9.000000E+99

> <Gold.Protein.RotatedTorsions>
[ 6907 6896 6895 6894 ] final  -49.76 input  -60.11 | X-H torsion
[ 7974 7965 7964 7962 ] final -136.09 input  175.53 | X-H torsion
[ 8008 7997 7996 7995 ] final  173.15 input   59.86 | X-H torsion
[ 10167 10162 10161 10158 ] final  -97.28 input  -65.29 | X-H torsion
[ 10718 10713 10712 10709 ] final  128.00 input   66.30 | X-H torsion
[ 10763 10752 10751 10750 ] final -132.83 input  -60.55 | X-H torsion
[ 11005 11000 10999 10996 ] final -111.61 input  -57.11 | X-H torsion

> <Gold.Protein.ActiveResidues>
 VAL166  LYS551  ARG553  GLY616  TRP617  ASP618  TYR619  PRO620  LYS621  CYS622 
 ASP623  PHE694  ASN695  SER759  ASP760  ASP761  ALA762  ILE779  LEU786  VAL792 
 PHE793  MET794  SER795  GLU796  ALA797  LYS798  CYS799  TRP800  GLU811  SER814 

> <Gold.Protein.RotatedAtoms>
  150.8773  134.8158  159.7199 H   0  0  0  0  0  0  0  0  0  0  0  0  # atno 6907 bound_to 6896
  152.4755  134.4851  159.9687 H   0  0  0  0  0  0  0  0  0  0  0  0  # atno 6908 bound_to 6896
  151.4931  133.3482  159.2892 H   0  0  0  0  0  0  0  0  0  0  0  0  # atno 6909 bound_to 6896
  144.8957  140.6703  143.5117 H   0  0  0  0  0  0  0  0  0  0  0  0  # atno 7974 bound_to 7965
  156.1104  140.1467  156.9347 H   0  0  0  0  0  0  0  0  0  0  0  0  # atno 8008 bound_to 7997
  154.4763  140.0893  156.7312 H   0  0  0  0  0  0  0  0  0  0  0  0  # atno 8009 bound_to 7997
  155.4607  140.3438  155.4314 H   0  0  0  0  0  0  0  0  0  0  0  0  # atno 8010 bound_to 7997
  140.2851  143.3257  152.0403 H   0  0  0  0  0  0  0  0  0  0  0  0  # atno 10167 bound_to 10162
  157.5283  131.1098  150.9048 H   0  0  0  0  0  0  0  0  0  0  0  0  # atno 10718 bound_to 10713
  154.8739  135.3785  154.4473 H   0  0  0  0  0  0  0  0  0  0  0  0  # atno 10763 bound_to 10752
  153.5152  135.7029  153.5765 H   0  0  0  0  0  0  0  0  0  0  0  0  # atno 10764 bound_to 10752
  153.4036  135.3942  155.1970 H   0  0  0  0  0  0  0  0  0  0  0  0  # atno 10765 bound_to 10752
  141.0724  133.9357  157.2458 H   0  0  0  0  0  0  0  0  0  0  0  0  # atno 11005 bound_to 11000
  145.3705  139.1660  143.4335 LP  0  0  0  0  0  0  0  0  0  0  0  0  # atno 17320 bound_to 7965
  146.3080  140.3776  142.8680 LP  0  0  0  0  0  0  0  0  0  0  0  0  # atno 17321 bound_to 7965
  139.4952  144.6565  151.6561 LP  0  0  0  0  0  0  0  0  0  0  0  0  # atno 17342 bound_to 10162
  140.5780  143.9996  150.6252 LP  0  0  0  0  0  0  0  0  0  0  0  0  # atno 17343 bound_to 10162
  156.9637  130.5465  149.5287 LP  0  0  0  0  0  0  0  0  0  0  0  0  # atno 17370 bound_to 10713
  156.0403  130.5487  150.8755 LP  0  0  0  0  0  0  0  0  0  0  0  0  # atno 17371 bound_to 10713
  139.9537  135.0170  156.9067 LP  0  0  0  0  0  0  0  0  0  0  0  0  # atno 17394 bound_to 11000
  140.5645  134.0503  155.7409 LP  0  0  0  0  0  0  0  0  0  0  0  0  # atno 17395 bound_to 11000

$$$$
