AV-unprocessed.smi:21|AV-procd|sdf|156|dock5
  -GOLD-   2262015383D 1   1.00000     0.00000
 Structure written by MMmdl.
 61 64  0  0  0  0  0  0  0  0  1 V2000
  151.6155  143.9667  160.3557 C   0  0  0  0  0  0  0  0  0  0  0  0
  150.7949  143.3134  159.4006 O   0  0  0  0  0  0  0  0  0  0  0  0
  151.5231  142.8024  158.2926 C   0  0  2  0  0  0  0  0  0  0  0  0
  150.5844  142.2620  157.2010 C   0  0  0  0  0  0  0  0  0  0  0  0
  151.0983  140.8421  156.9220 C   0  0  2  0  0  0  0  0  0  0  0  0
  150.0281  139.8972  156.3278 C   0  0  0  0  0  0  0  0  0  0  0  0
  150.5707  138.6228  155.8540 N   0  0  0  0  0  0  0  0  0  0  0  0
  150.8592  138.5056  154.4273 C   0  0  0  0  0  0  0  0  0  0  0  0
  150.2555  137.4901  156.5403 C   0  0  0  0  0  0  0  0  0  0  0  0
  150.7627  136.3004  156.1164 N   0  0  0  0  0  0  0  0  0  0  0  0
  150.4384  135.1620  156.7348 C   0  0  0  0  0  0  0  0  0  0  0  0
  149.6359  134.9832  157.7841 N   0  0  0  0  0  0  0  0  0  0  0  0
  149.1378  136.1713  158.2298 C   0  0  0  0  0  0  0  0  0  0  0  0
  149.3990  137.4596  157.6808 C   0  0  0  0  0  0  0  0  0  0  0  0
  148.7303  138.4256  158.4259 N   0  0  0  0  0  0  0  0  0  0  0  0
  148.0939  137.7484  159.3414 C   0  0  0  0  0  0  0  0  0  0  0  0
  148.2733  136.3858  159.2876 N   0  0  0  0  0  0  0  0  0  0  0  0
  147.6818  135.3913  160.1637 C   0  0  0  0  0  0  0  0  0  0  0  0
  146.6726  135.9808  161.1853 C   0  0  2  0  0  0  0  0  0  0  0  0
  147.3307  136.2835  162.5563 C   0  0  0  0  0  0  0  0  0  0  0  0
  148.5891  136.9098  162.4142 O   0  0  0  0  0  0  0  0  0  0  0  0
  145.4529  135.0366  161.3486 C   0  0  2  0  0  0  0  0  0  0  0  0
  144.4212  135.4940  162.3671 C   0  0  0  0  0  0  0  0  0  0  0  0
  143.6522  134.2095  162.6464 C   0  0  0  0  0  0  0  0  0  0  0  0
  144.6211  133.1724  162.5720 O   0  0  0  0  0  0  0  0  0  0  0  0
  145.7856  133.6423  161.8989 C   0  0  0  0  0  0  0  0  0  0  0  0
  151.6321  140.4072  158.2030 N   0  0  0  0  0  0  0  0  0  0  0  0
  152.4994  139.2395  158.1185 C   0  0  0  0  0  0  0  0  0  0  0  0
  152.3308  141.5705  158.7189 C   0  0  0  0  0  0  0  0  0  0  0  0
  152.2048  143.5585  157.8984 H   0  0  0  0  0  0  0  0  0  0  0  0
  151.9272  140.9213  156.2162 H   0  0  0  0  0  0  0  0  0  0  0  0
  150.9951  144.3656  161.1580 H   0  0  0  0  0  0  0  0  0  0  0  0
  152.1671  144.7972  159.9139 H   0  0  0  0  0  0  0  0  0  0  0  0
  152.3307  143.2721  160.7981 H   0  0  0  0  0  0  0  0  0  0  0  0
  149.5599  142.2208  157.5748 H   0  0  0  0  0  0  0  0  0  0  0  0
  150.5885  142.8893  156.3093 H   0  0  0  0  0  0  0  0  0  0  0  0
  149.2905  139.6569  157.0927 H   0  0  0  0  0  0  0  0  0  0  0  0
  149.4686  140.4153  155.5530 H   0  0  0  0  0  0  0  0  0  0  0  0
  151.6004  137.7265  154.2445 H   0  0  0  0  0  0  0  0  0  0  0  0
  151.2600  139.4418  154.0381 H   0  0  0  0  0  0  0  0  0  0  0  0
  149.9556  138.2653  153.8658 H   0  0  0  0  0  0  0  0  0  0  0  0
  150.8812  134.2656  156.3263 H   0  0  0  0  0  0  0  0  0  0  0  0
  147.4640  138.2263  160.0773 H   0  0  0  0  0  0  0  0  0  0  0  0
  147.1992  134.6526  159.5241 H   0  0  0  0  0  0  0  0  0  0  0  0
  148.4838  134.8688  160.6866 H   0  0  0  0  0  0  0  0  0  0  0  0
  146.2941  136.9218  160.7827 H   0  0  0  0  0  0  0  0  0  0  0  0
  146.7200  136.9635  163.1481 H   0  0  0  0  0  0  0  0  0  0  0  0
  147.4407  135.3712  163.1430 H   0  0  0  0  0  0  0  0  0  0  0  0
  149.2177  136.2639  162.1296 H   0  0  0  0  0  0  0  0  0  0  0  0
  144.9537  134.9193  160.3851 H   0  0  0  0  0  0  0  0  0  0  0  0
  144.9110  135.8428  163.2777 H   0  0  0  0  0  0  0  0  0  0  0  0
  143.7717  136.2894  162.0008 H   0  0  0  0  0  0  0  0  0  0  0  0
  143.1511  134.2215  163.6144 H   0  0  0  0  0  0  0  0  0  0  0  0
  142.9000  134.0416  161.8748 H   0  0  0  0  0  0  0  0  0  0  0  0
  146.0802  132.9460  161.1132 H   0  0  0  0  0  0  0  0  0  0  0  0
  146.5980  133.6934  162.6250 H   0  0  0  0  0  0  0  0  0  0  0  0
  152.9142  138.9999  159.0980 H   0  0  0  0  0  0  0  0  0  0  0  0
  153.3295  139.4112  157.4320 H   0  0  0  0  0  0  0  0  0  0  0  0
  151.9484  138.3646  157.7745 H   0  0  0  0  0  0  0  0  0  0  0  0
  153.3242  141.6332  158.2713 H   0  0  0  0  0  0  0  0  0  0  0  0
  152.4645  141.5086  159.7995 H   0  0  0  0  0  0  0  0  0  0  0  0
  1  2  1  0  0  0  0
  1 32  1  0  0  0  0
  1 33  1  0  0  0  0
  1 34  1  0  0  0  0
  2  3  1  0  0  0  0
  3 30  1  0  0  0  0
  3 29  1  0  0  0  0
  3  4  1  0  0  0  0
  4  5  1  0  0  0  0
  4 35  1  0  0  0  0
  4 36  1  0  0  0  0
  5 31  1  0  0  0  0
  5  6  1  0  0  0  0
  5 27  1  0  0  0  0
  6  7  1  0  0  0  0
  6 37  1  0  0  0  0
  6 38  1  0  0  0  0
  7  8  1  0  0  0  0
  7  9  1  0  0  0  0
  8 39  1  0  0  0  0
  8 40  1  0  0  0  0
  8 41  1  0  0  0  0
  9 14  1  0  0  0  0
  9 10  2  0  0  0  0
 10 11  1  0  0  0  0
 11 12  2  0  0  0  0
 11 42  1  0  0  0  0
 12 13  1  0  0  0  0
 13 17  1  0  0  0  0
 13 14  2  0  0  0  0
 14 15  1  0  0  0  0
 15 16  2  0  0  0  0
 16 17  1  0  0  0  0
 16 43  1  0  0  0  0
 17 18  1  0  0  0  0
 18 19  1  0  0  0  0
 18 44  1  0  0  0  0
 18 45  1  0  0  0  0
 19 20  1  0  0  0  0
 19 22  1  0  0  0  0
 19 46  1  0  0  0  0
 20 21  1  0  0  0  0
 20 47  1  0  0  0  0
 20 48  1  0  0  0  0
 21 49  1  0  0  0  0
 22 26  1  0  0  0  0
 22 23  1  0  0  0  0
 22 50  1  0  0  0  0
 23 24  1  0  0  0  0
 23 51  1  0  0  0  0
 23 52  1  0  0  0  0
 24 25  1  0  0  0  0
 24 53  1  0  0  0  0
 24 54  1  0  0  0  0
 25 26  1  0  0  0  0
 26 55  1  0  0  0  0
 26 56  1  0  0  0  0
 27 28  1  0  0  0  0
 27 29  1  0  0  0  0
 28 57  1  0  0  0  0
 28 58  1  0  0  0  0
 28 59  1  0  0  0  0
 29 60  1  0  0  0  0
 29 61  1  0  0  0  0
M  END
> <s_m_source_file>
AV-unprocessed.smi

> <i_m_source_file_index>
21

> <i_lp_mmshare_version>
43012

> <i_f3d_flags>
0

> <s_epik_input>
W0NIM11PW0NASF0xW0NIMl1bQ0BIXShOKFtDSDNdKVtDSDJdMSlbQ0gyXU4oW0NIM10pYyhuW2NIXW4yKWMoYzIzKW5bY0hdbjNbQ0gyXVtDQEhdKFtDSDJdW09IXSlbQ0BASF00W0NIMl1bQ0gyXU9bQ0gyXTQ=

> <s_epik_cmdline>
J2VwaWtfcHl0aG9uJywgJy1waCcsICc3LjAnLCAnLXRuJywgJzgnLCAnLW1hJywgJzIwMCcsICctbWV0YWxfYmluZGluZycsICctaW1hZScsICc8aW5maWxlLm1hZT4nLCAnLW9tYWUnLCAnPG91dGZpbGUubWFlPic=

> <r_lp_tautomer_probability>
1

> <r_epik_Ionization_Penalty>
2.17574

> <r_epik_Ionization_Penalty_Charging>
0

> <r_epik_Ionization_Penalty_Neutral>
2.17574

> <r_epik_State_Penalty>
2.31336

> <r_epik_Charging_Adjusted_Penalty>
2.31336

> <i_epik_Tot_Q>
0

> <i_epik_Tot_abs_Q>
0

> <r_epik_Metal_State_Penalty>
2.31025

> <b_epik_Metal_Only>
0

> <s_lp_Force_Field>
OPLS_2005

> <r_lp_Energy>
68.7045

> <b_lp_Chiralities_Consistent>
1

> <s_lp_Variant>
AV-unprocessed.smi:21-36

> <Gold.Version>
5.8.1

> <Gold.Id.Protein>
6NUR|6NUR_protein|mol2

> <Gold.PLP.Fitness>
41.2236

> <Gold.PLP.PLP>
-36.8746

> <Gold.PLP.part.hbond>
-2.2230

> <Gold.PLP.part.metal>
0.0000

> <Gold.PLP.part.buried>
-3.5502

> <Gold.PLP.part.nonpolar>
-31.7958

> <Gold.PLP.part.repulsive>
0.3317

> <Gold.PLP.ligand.clash>
0.0000

> <Gold.PLP.ligand.torsion>
1.1428

> <Gold.PLP.Chemscore.Hbond>
1.9750

> <Gold.PLP.Chemscore.CHOScore>
0.0000

> <Gold.PLP.Chemscore.Metal>
0.0000

> <Gold.Chemscore.Hbonds>
donor molecule, donor type, donor heavy atom, donor atom, acceptor molecule, acceptor atom, score
      P1  H  6896  6909       L1    12  0.98
      P1  H  6931  6943       L1    21  0.88

> <Gold.PLP.Chemscore.Internal.Correction>
0.7096

> <Gold.Rescore>
     Score         DG    S(hbond)    S(metal)    S(lipo)     H(rot)  DE(clash)    DE(int)     intcor
     11.32     -15.10       1.39        0.00     108.27       3.00       1.04       2.74       ----

> <Gold.Chemscore.Fitness>
11.3171

> <Gold.Chemscore.DG>
-15.0955

> <Gold.Chemscore.ZeroCoef>
-5.4800

> <Gold.Chemscore.Hbond>
1.3880

> <Gold.Chemscore.Metal>
0.0000

> <Gold.Chemscore.Lipo>
108.2693

> <Gold.Chemscore.Internal_Hbond>
0.0000

> <Gold.Chemscore.DEClash>
1.0396

> <Gold.Chemscore.DEInternal>
2.7387

> <Gold.Chemscore.Rot>
3.0031

> <Gold.Chemscore.Internal.Correction>
   9.000000E+99

> <Gold.Chemscore.Hbonds>
donor molecule, donor type, donor heavy atom, donor atom, acceptor molecule, acceptor atom, score
      P1  H  6896  6909       L1    12  0.34
      P1  H  6931  6943       L1    21  0.55

> <Gold.Chemscore.Hbond.Weighted>
-4.6360

> <Gold.Chemscore.Metal.Weighted>
-0.0000

> <Gold.Chemscore.Lipo.Weighted>
-12.6675

> <Gold.Chemscore.Internal_Hbond.Weighted>
0.0000

> <Gold.Chemscore.DEClash.Weighted>
1.0396

> <Gold.Chemscore.DEInternal.Weighted>
2.7387

> <Gold.Chemscore.Rot.Weighted>
7.6880

> <Gold.Chemscore.Internal.Correction.Weighted>
   9.000000E+99

> <Gold.Protein.RotatedTorsions>
[ 6907 6896 6895 6894 ] final   26.51 input  -60.11 | X-H torsion
[ 7974 7965 7964 7962 ] final   -0.98 input  175.53 | X-H torsion
[ 8008 7997 7996 7995 ] final    2.95 input   59.86 | X-H torsion
[ 10167 10162 10161 10158 ] final   54.30 input  -65.29 | X-H torsion
[ 10718 10713 10712 10709 ] final   66.56 input   66.30 | X-H torsion
[ 10763 10752 10751 10750 ] final   -2.06 input  -60.55 | X-H torsion
[ 11005 11000 10999 10996 ] final -113.61 input  -57.11 | X-H torsion

> <Gold.Protein.ActiveResidues>
 VAL166  LYS551  ARG553  GLY616  TRP617  ASP618  TYR619  PRO620  LYS621  CYS622 
 ASP623  PHE694  ASN695  SER759  ASP760  ASP761  ALA762  ILE779  LEU786  VAL792 
 PHE793  MET794  SER795  GLU796  ALA797  LYS798  CYS799  TRP800  GLU811  SER814 

> <Gold.Protein.RotatedAtoms>
  151.9885  134.9992  160.0560 H   0  0  0  0  0  0  0  0  0  0  0  0  # atno 6907 bound_to 6896
  152.1631  133.4590  159.4879 H   0  0  0  0  0  0  0  0  0  0  0  0  # atno 6908 bound_to 6896
  150.6890  134.1965  159.4348 H   0  0  0  0  0  0  0  0  0  0  0  0  # atno 6909 bound_to 6896
  146.2422  140.1351  142.8337 H   0  0  0  0  0  0  0  0  0  0  0  0  # atno 7974 bound_to 7965
  154.6978  140.2666  155.6749 H   0  0  0  0  0  0  0  0  0  0  0  0  # atno 8008 bound_to 7997
  156.2754  140.2778  156.1502 H   0  0  0  0  0  0  0  0  0  0  0  0  # atno 8009 bound_to 7997
  155.0807  140.0372  157.2628 H   0  0  0  0  0  0  0  0  0  0  0  0  # atno 8010 bound_to 7997
  140.2316  144.3681  150.6412 H   0  0  0  0  0  0  0  0  0  0  0  0  # atno 10167 bound_to 10162
  157.6176  130.9274  150.0125 H   0  0  0  0  0  0  0  0  0  0  0  0  # atno 10718 bound_to 10713
  153.3531  135.6986  153.6773 H   0  0  0  0  0  0  0  0  0  0  0  0  # atno 10763 bound_to 10752
  153.5491  135.3557  155.2752 H   0  0  0  0  0  0  0  0  0  0  0  0  # atno 10764 bound_to 10752
  154.8656  135.4222  154.2771 H   0  0  0  0  0  0  0  0  0  0  0  0  # atno 10765 bound_to 10752
  141.0603  133.9545  157.2678 H   0  0  0  0  0  0  0  0  0  0  0  0  # atno 11005 bound_to 11000
  145.0293  140.8858  143.5119 LP  0  0  0  0  0  0  0  0  0  0  0  0  # atno 17320 bound_to 7965
  145.1412  139.2571  143.5489 LP  0  0  0  0  0  0  0  0  0  0  0  0  # atno 17321 bound_to 7965
  140.6181  143.2174  151.6750 LP  0  0  0  0  0  0  0  0  0  0  0  0  # atno 17342 bound_to 10162
  139.5108  144.3530  152.0634 LP  0  0  0  0  0  0  0  0  0  0  0  0  # atno 17343 bound_to 10162
  156.1306  130.3643  149.9738 LP  0  0  0  0  0  0  0  0  0  0  0  0  # atno 17370 bound_to 10713
  156.7799  130.9217  151.3646 LP  0  0  0  0  0  0  0  0  0  0  0  0  # atno 17371 bound_to 10713
  139.9427  135.0189  156.8758 LP  0  0  0  0  0  0  0  0  0  0  0  0  # atno 17394 bound_to 11000
  140.5881  134.0288  155.7489 LP  0  0  0  0  0  0  0  0  0  0  0  0  # atno 17395 bound_to 11000

$$$$
