AV-unprocessed.smi:38|AV-procd|sdf|346|dock8
  -GOLD-   2262016183D 1   1.00000     0.00000
 Structure written by MMmdl.
 27 28  0  0  0  0  0  0  0  0  2 V2000
  152.7817  141.2216  159.0581 O   0  0  0  0  0  0  0  0  0  0  0  0
  152.1477  141.0155  158.0241 C   0  0  0  0  0  0  0  0  0  0  0  0
  152.4451  139.9979  157.1655 N   0  5  0  0  0  0  0  0  0  0  0  0
  151.7417  139.7725  156.0170 C   0  0  0  0  0  0  0  0  0  0  0  0
  152.0024  138.8551  155.2382 O   0  0  0  0  0  0  0  0  0  0  0  0
  150.6561  140.6324  155.6933 N   0  0  0  0  0  0  0  0  0  0  0  0
  149.8793  140.3756  154.4163 C   0  0  2  0  0  0  0  0  0  0  0  0
  148.7521  141.4111  154.2467 C   0  0  0  0  0  0  0  0  0  0  0  0
  147.5197  140.5554  154.0124 C   0  0  1  0  0  0  0  0  0  0  0  0
  147.2929  140.3717  152.6273 O   0  0  0  0  0  0  0  0  0  0  0  0
  147.8857  139.2450  154.7190 C   0  0  1  0  0  0  0  0  0  0  0  0
  147.1239  137.9810  154.2834 C   0  0  0  0  0  0  0  0  0  0  0  0
  147.1874  137.8250  152.8812 O   0  0  0  0  0  0  0  0  0  0  0  0
  149.2799  139.1121  154.4680 O   0  0  0  0  0  0  0  0  0  0  0  0
  150.3273  141.6697  156.5519 C   0  0  0  0  0  0  0  0  0  0  0  0
  151.0244  141.8874  157.6858 C   0  0  0  0  0  0  0  0  0  0  0  0
  150.6810  142.9023  158.4978 F   0  0  0  0  0  0  0  0  0  0  0  0
  150.6186  140.3870  153.6136 H   0  0  0  0  0  0  0  0  0  0  0  0
  146.6276  141.0084  154.4456 H   0  0  0  0  0  0  0  0  0  0  0  0
  147.7583  139.3842  155.7939 H   0  0  0  0  0  0  0  0  0  0  0  0
  148.6366  141.9853  155.1673 H   0  0  0  0  0  0  0  0  0  0  0  0
  148.9728  142.1034  153.4332 H   0  0  0  0  0  0  0  0  0  0  0  0
  148.0986  140.5502  152.1667 H   0  0  0  0  0  0  0  0  0  0  0  0
  147.5163  137.0885  154.7707 H   0  0  0  0  0  0  0  0  0  0  0  0
  146.0758  138.0636  154.5720 H   0  0  0  0  0  0  0  0  0  0  0  0
  147.8135  137.1454  152.6831 H   0  0  0  0  0  0  0  0  0  0  0  0
  149.5005  142.3261  156.3288 H   0  0  0  0  0  0  0  0  0  0  0  0
  1  2  2  0  0  0  0
  2 16  1  0  0  0  0
  2  3  1  0  0  0  0
  3  4  1  0  0  0  0
  4  5  2  0  0  0  0
  4  6  1  0  0  0  0
  6  7  1  0  0  0  0
  6 15  1  0  0  0  0
  7 18  1  0  0  0  0
  7 14  1  0  0  0  0
  7  8  1  0  0  0  0
  8  9  1  0  0  0  0
  8 21  1  0  0  0  0
  8 22  1  0  0  0  0
  9 19  1  0  0  0  0
  9 10  1  0  0  0  0
  9 11  1  0  0  0  0
 10 23  1  0  0  0  0
 11 20  1  0  0  0  0
 11 12  1  0  0  0  0
 11 14  1  0  0  0  0
 12 13  1  0  0  0  0
 12 24  1  0  0  0  0
 12 25  1  0  0  0  0
 13 26  1  0  0  0  0
 15 16  2  0  0  0  0
 15 27  1  0  0  0  0
 16 17  1  0  0  0  0
M  CHG  1   3  -1
M  END
> <s_m_source_file>
AV-unprocessed.smi

> <i_m_source_file_index>
38

> <i_lp_mmshare_version>
43012

> <i_f3d_flags>
0

> <s_epik_input>
Tz1jMVtuSF1jKD1PKW4oW2NIXWMxRilbQ0BIXTJbQ0gyXVtDQEhdKFtPSF0pW0NASF0oTzIpW0NIMl1bT0hd

> <s_epik_cmdline>
J2VwaWtfcHl0aG9uJywgJy1waCcsICc3LjAnLCAnLXRuJywgJzgnLCAnLW1hJywgJzIwMCcsICctbWV0YWxfYmluZGluZycsICctaW1hZScsICc8aW5maWxlLm1hZT4nLCAnLW9tYWUnLCAnPG91dGZpbGUubWFlPic=

> <r_epik_Ionization_Penalty>
1.68146

> <r_epik_Ionization_Penalty_Charging>
3.4211e-08

> <r_epik_Ionization_Penalty_Neutral>
1.68146

> <r_epik_State_Penalty>
1.78593

> <r_epik_Charging_Adjusted_Penalty>
1.78593

> <i_epik_Tot_Q>
-1

> <i_epik_Tot_abs_Q>
1

> <r_epik_Metal_State_Penalty>
0.0113696

> <b_epik_Metal_Only>
0

> <s_epik_Chemistry_Notes>
This compound contains an acetal/aminal-like group ( X-CH(R)-Y where X, Y are N, S, or O) that may be acid/base labile, releasing an aldehyde.

> <s_lp_Force_Field>
OPLS_2005

> <r_lp_Energy>
41.2481

> <b_lp_Chiralities_Consistent>
1

> <s_lp_Variant>
AV-unprocessed.smi:38-12

> <Gold.Version>
5.8.1

> <Gold.Id.Protein>
6NUR|6NUR_protein|mol2

> <Gold.PLP.Fitness>
41.5838

> <Gold.PLP.PLP>
-26.6385

> <Gold.PLP.part.hbond>
-3.0000

> <Gold.PLP.part.metal>
0.0000

> <Gold.PLP.part.buried>
-1.9923

> <Gold.PLP.part.nonpolar>
-20.9262

> <Gold.PLP.part.repulsive>
0.1662

> <Gold.PLP.ligand.clash>
0.0000

> <Gold.PLP.ligand.torsion>
0.0292

> <Gold.PLP.Chemscore.Hbond>
4.0000

> <Gold.PLP.Chemscore.CHOScore>
1.0000

> <Gold.PLP.Chemscore.Metal>
0.0000

> <Gold.Chemscore.Hbonds>
donor molecule, donor type, donor heavy atom, donor atom, acceptor molecule, acceptor atom, score
      L1  H    10    23       P1  7957  1.00
      L1  H    13    26       P1  7948  1.00
      P1  H  7997  8010       L1     3  1.95
      L1  C    15    27       P1  8028  0.92

> <Gold.PLP.Chemscore.Internal.Correction>
0.0037

> <Gold.Rescore>
     Score         DG    S(hbond)    S(metal)    S(lipo)     H(rot)  DE(clash)    DE(int)     intcor
      8.74     -10.66       2.64        0.00      31.94       2.88       0.61       1.32       ----

> <Gold.Chemscore.Fitness>
8.7382

> <Gold.Chemscore.DG>
-10.6632

> <Gold.Chemscore.ZeroCoef>
-5.4800

> <Gold.Chemscore.Hbond>
2.6416

> <Gold.Chemscore.Metal>
0.0000

> <Gold.Chemscore.Lipo>
31.9383

> <Gold.Chemscore.Internal_Hbond>
0.0000

> <Gold.Chemscore.DEClash>
0.6061

> <Gold.Chemscore.DEInternal>
1.3189

> <Gold.Chemscore.Rot>
2.8815

> <Gold.Chemscore.Internal.Correction>
   9.000000E+99

> <Gold.Chemscore.Hbonds>
donor molecule, donor type, donor heavy atom, donor atom, acceptor molecule, acceptor atom, score
      L1  H    10    23       P1  7957  0.97
      L1  H    13    26       P1  7948  0.99
      P1  H  7997  8010       L1     3  0.19

> <Gold.Chemscore.Hbond.Weighted>
-8.8229

> <Gold.Chemscore.Metal.Weighted>
-0.0000

> <Gold.Chemscore.Lipo.Weighted>
-3.7368

> <Gold.Chemscore.Internal_Hbond.Weighted>
0.0000

> <Gold.Chemscore.DEClash.Weighted>
0.6061

> <Gold.Chemscore.DEInternal.Weighted>
1.3189

> <Gold.Chemscore.Rot.Weighted>
7.3765

> <Gold.Chemscore.Internal.Correction.Weighted>
   9.000000E+99

> <Gold.Protein.RotatedTorsions>
[ 6907 6896 6895 6894 ] final -110.97 input  -60.11 | X-H torsion
[ 7974 7965 7964 7962 ] final  158.48 input  175.53 | X-H torsion
[ 8008 7997 7996 7995 ] final   74.38 input   59.86 | X-H torsion
[ 10167 10162 10161 10158 ] final   21.22 input  -65.29 | X-H torsion
[ 10718 10713 10712 10709 ] final  113.36 input   66.30 | X-H torsion
[ 10763 10752 10751 10750 ] final  125.23 input  -60.55 | X-H torsion
[ 11005 11000 10999 10996 ] final  -80.23 input  -57.11 | X-H torsion

> <Gold.Protein.ActiveResidues>
 VAL166  LYS551  ARG553  GLY616  TRP617  ASP618  TYR619  PRO620  LYS621  CYS622 
 ASP623  PHE694  ASN695  SER759  ASP760  ASP761  ALA762  ILE779  LEU786  VAL792 
 PHE793  MET794  SER795  GLU796  ALA797  LYS798  CYS799  TRP800  GLU811  SER814 

> <Gold.Protein.RotatedAtoms>
  150.7659  133.9304  159.3424 H   0  0  0  0  0  0  0  0  0  0  0  0  # atno 6907 bound_to 6896
  151.7202  135.0894  160.0292 H   0  0  0  0  0  0  0  0  0  0  0  0  # atno 6908 bound_to 6896
  152.3655  133.6313  159.6083 H   0  0  0  0  0  0  0  0  0  0  0  0  # atno 6909 bound_to 6896
  144.7843  139.7484  143.6247 H   0  0  0  0  0  0  0  0  0  0  0  0  # atno 7974 bound_to 7965
  155.7975  140.3477  155.5384 H   0  0  0  0  0  0  0  0  0  0  0  0  # atno 8008 bound_to 7997
  155.8572  140.0965  157.1657 H   0  0  0  0  0  0  0  0  0  0  0  0  # atno 8009 bound_to 7997
  154.4010  140.1365  156.3903 H   0  0  0  0  0  0  0  0  0  0  0  0  # atno 8010 bound_to 7997
  140.5443  143.9621  150.6538 H   0  0  0  0  0  0  0  0  0  0  0  0  # atno 10167 bound_to 10162
  157.6342  131.0982  150.7029 H   0  0  0  0  0  0  0  0  0  0  0  0  # atno 10718 bound_to 10713
  153.6740  135.3325  155.3161 H   0  0  0  0  0  0  0  0  0  0  0  0  # atno 10763 bound_to 10752
  154.8483  135.4393  154.1675 H   0  0  0  0  0  0  0  0  0  0  0  0  # atno 10764 bound_to 10752
  153.2674  135.6997  153.7592 H   0  0  0  0  0  0  0  0  0  0  0  0  # atno 10765 bound_to 10752
  141.1668  133.7141  156.8242 H   0  0  0  0  0  0  0  0  0  0  0  0  # atno 11005 bound_to 11000
  146.2067  139.5397  142.9707 LP  0  0  0  0  0  0  0  0  0  0  0  0  # atno 17320 bound_to 7965
  145.5964  141.0362  143.2042 LP  0  0  0  0  0  0  0  0  0  0  0  0  # atno 17321 bound_to 7965
  140.3030  143.3247  152.0953 LP  0  0  0  0  0  0  0  0  0  0  0  0  # atno 17342 bound_to 10162
  139.5001  144.6684  151.6301 LP  0  0  0  0  0  0  0  0  0  0  0  0  # atno 17343 bound_to 10162
  156.7363  130.4725  149.5488 LP  0  0  0  0  0  0  0  0  0  0  0  0  # atno 17370 bound_to 10713
  156.1569  130.6348  151.0668 LP  0  0  0  0  0  0  0  0  0  0  0  0  # atno 17371 bound_to 10713
  140.2098  134.8836  157.3261 LP  0  0  0  0  0  0  0  0  0  0  0  0  # atno 17394 bound_to 11000
  140.2099  134.4151  155.7618 LP  0  0  0  0  0  0  0  0  0  0  0  0  # atno 17395 bound_to 11000

$$$$
