AV-unprocessed.smi:3211|AV-procd|sdf|12277|dock2
  -GOLD-   2272018113D 1   1.00000     0.00000
 Structure written by MMmdl.
 34 35  0  0  0  0  0  0  0  0  1 V2000
  151.7389  145.5239  160.1539 C   0  0  0  0  0  0  0  0  0  0  0  0
  152.1550  144.3091  160.9899 C   0  0  0  0  0  0  0  0  0  0  0  0
  152.1983  143.0509  160.1889 C   0  0  0  0  0  0  0  0  0  0  0  0
  151.3886  142.8071  159.1549 N   0  0  0  0  0  0  0  0  0  0  0  0
  151.6482  141.5750  158.5463 C   0  0  0  0  0  0  0  0  0  0  0  0
  150.8318  141.1329  157.3702 C   0  0  0  0  0  0  0  0  0  0  0  0
  150.9778  142.0841  156.1708 C   0  0  0  0  0  0  0  0  0  0  0  0
  149.7617  142.1259  155.3664 N   0  0  0  0  0  0  0  0  0  0  0  0
  149.3723  141.1699  154.5091 C   0  0  0  0  0  0  0  0  0  0  0  0
  150.0214  140.1414  154.3117 O   0  0  0  0  0  0  0  0  0  0  0  0
  148.0800  141.4625  153.8190 C   0  0  1  0  0  0  0  0  0  0  0  0
  146.9247  140.5127  154.0631 C   0  0  0  0  0  0  0  0  0  0  0  0
  146.9038  141.8919  154.6763 C   0  0  2  0  0  0  0  0  0  0  0  0
  145.9409  142.9488  154.1798 C   0  0  0  0  0  0  0  0  0  0  0  0
  152.6827  140.8892  159.1326 C   0  0  0  0  0  0  0  0  0  0  0  0
  153.3703  141.7684  160.4700 S   0  0  0  0  0  0  0  0  0  0  0  0
  151.7178  146.4267  160.7641 H   0  0  0  0  0  0  0  0  0  0  0  0
  150.7447  145.3861  159.7278 H   0  0  0  0  0  0  0  0  0  0  0  0
  152.4356  145.6925  159.3320 H   0  0  0  0  0  0  0  0  0  0  0  0
  153.1395  144.4784  161.4265 H   0  0  0  0  0  0  0  0  0  0  0  0
  151.4629  144.1747  161.8221 H   0  0  0  0  0  0  0  0  0  0  0  0
  151.1281  140.1248  157.0776 H   0  0  0  0  0  0  0  0  0  0  0  0
  149.7807  141.0632  157.6533 H   0  0  0  0  0  0  0  0  0  0  0  0
  151.1864  143.0955  156.5209 H   0  0  0  0  0  0  0  0  0  0  0  0
  151.8263  141.7899  155.5505 H   0  0  0  0  0  0  0  0  0  0  0  0
  149.1727  142.9395  155.4707 H   0  0  0  0  0  0  0  0  0  0  0  0
  148.1497  141.8990  152.8233 H   0  0  0  0  0  0  0  0  0  0  0  0
  146.2664  140.3127  153.2201 H   0  0  0  0  0  0  0  0  0  0  0  0
  147.0764  139.6696  154.7350 H   0  0  0  0  0  0  0  0  0  0  0  0
  147.0645  141.9328  155.7527 H   0  0  0  0  0  0  0  0  0  0  0  0
  145.7921  142.8627  153.1030 H   0  0  0  0  0  0  0  0  0  0  0  0
  146.3312  143.9427  154.3991 H   0  0  0  0  0  0  0  0  0  0  0  0
  144.9760  142.8372  154.6744 H   0  0  0  0  0  0  0  0  0  0  0  0
  153.0835  139.9249  158.8564 H   0  0  0  0  0  0  0  0  0  0  0  0
  1  2  1  0  0  0  0
  1 17  1  0  0  0  0
  1 18  1  0  0  0  0
  1 19  1  0  0  0  0
  2  3  1  0  0  0  0
  2 20  1  0  0  0  0
  2 21  1  0  0  0  0
  3 16  1  0  0  0  0
  3  4  2  0  0  0  0
  4  5  1  0  0  0  0
  5  6  1  0  0  0  0
  5 15  2  0  0  0  0
  6  7  1  0  0  0  0
  6 22  1  0  0  0  0
  6 23  1  0  0  0  0
  7  8  1  0  0  0  0
  7 24  1  0  0  0  0
  7 25  1  0  0  0  0
  8  9  1  0  0  0  0
  8 26  1  0  0  0  0
  9 10  2  0  0  0  0
  9 11  1  0  0  0  0
 11 13  1  0  0  0  0
 11 12  1  0  0  0  0
 11 27  1  0  0  0  0
 12 13  1  0  0  0  0
 12 28  1  0  0  0  0
 12 29  1  0  0  0  0
 13 14  1  0  0  0  0
 13 30  1  0  0  0  0
 14 31  1  0  0  0  0
 14 32  1  0  0  0  0
 14 33  1  0  0  0  0
 15 16  1  0  0  0  0
 15 34  1  0  0  0  0
M  END
> <s_m_source_file>
AV-unprocessed.smi

> <i_m_source_file_index>
3211

> <i_lp_mmshare_version>
43012

> <i_f3d_flags>
0

> <s_epik_input>
W0NIM11bQ0gyXWMxbmMoW2NIXXMxKVtDSDJdW0NIMl1bTkhdQyg9TylbQ0BASF0yW0NIMl1bQ0BIXTJbQ0gzXQ==

> <s_epik_cmdline>
J2VwaWtfcHl0aG9uJywgJy1waCcsICc3LjAnLCAnLXRuJywgJzgnLCAnLW1hJywgJzIwMCcsICctbWV0YWxfYmluZGluZycsICctaW1hZScsICc8aW5maWxlLm1hZT4nLCAnLW9tYWUnLCAnPG91dGZpbGUubWFlPic=

> <r_epik_Ionization_Penalty>
0.00109667

> <r_epik_Ionization_Penalty_Charging>
0

> <r_epik_Ionization_Penalty_Neutral>
0.00109667

> <r_epik_State_Penalty>
0.000719322

> <r_epik_Charging_Adjusted_Penalty>
0.000719322

> <i_epik_Tot_Q>
0

> <i_epik_Tot_abs_Q>
0

> <r_epik_Metal_State_Penalty>
-0

> <b_epik_Metal_Only>
0

> <s_lp_Force_Field>
OPLS_2005

> <r_lp_Energy>
-0.564993

> <b_lp_Chiralities_Consistent>
1

> <s_lp_Variant>
AV-unprocessed.smi:3211-4

> <Gold.Version>
5.8.1

> <Gold.Id.Protein>
6NUR|6NUR_protein|mol2

> <Gold.PLP.Fitness>
46.2689

> <Gold.PLP.PLP>
-41.8099

> <Gold.PLP.part.hbond>
-2.0000

> <Gold.PLP.part.metal>
0.0000

> <Gold.PLP.part.buried>
-5.9513

> <Gold.PLP.part.nonpolar>
-33.2085

> <Gold.PLP.part.repulsive>
0.3155

> <Gold.PLP.ligand.clash>
0.0000

> <Gold.PLP.ligand.torsion>
0.7763

> <Gold.PLP.Chemscore.Hbond>
1.9760

> <Gold.PLP.Chemscore.CHOScore>
0.0000

> <Gold.PLP.Chemscore.Metal>
0.0000

> <Gold.Chemscore.Hbonds>
donor molecule, donor type, donor heavy atom, donor atom, acceptor molecule, acceptor atom, score
      L1  H     8    26       P1  8028  1.00
      P1  H  7989  7998       L1    10  0.98

> <Gold.PLP.Chemscore.Internal.Correction>
0.0835

> <Gold.Rescore>
     Score         DG    S(hbond)    S(metal)    S(lipo)     H(rot)  DE(clash)    DE(int)     intcor
     17.80     -18.77       1.66        0.00      99.16       1.51       0.27       0.70       ----

> <Gold.Chemscore.Fitness>
17.8031

> <Gold.Chemscore.DG>
-18.7704

> <Gold.Chemscore.ZeroCoef>
-5.4800

> <Gold.Chemscore.Hbond>
1.6627

> <Gold.Chemscore.Metal>
0.0000

> <Gold.Chemscore.Lipo>
99.1586

> <Gold.Chemscore.Internal_Hbond>
0.0000

> <Gold.Chemscore.DEClash>
0.2707

> <Gold.Chemscore.DEInternal>
0.6967

> <Gold.Chemscore.Rot>
1.5096

> <Gold.Chemscore.Internal.Correction>
   9.000000E+99

> <Gold.Chemscore.Hbonds>
donor molecule, donor type, donor heavy atom, donor atom, acceptor molecule, acceptor atom, score
      L1  H     8    26       P1  8028  0.98
      P1  H  7989  7998       L1    10  0.28

> <Gold.Chemscore.Hbond.Weighted>
-5.5535

> <Gold.Chemscore.Metal.Weighted>
-0.0000

> <Gold.Chemscore.Lipo.Weighted>
-11.6016

> <Gold.Chemscore.Internal_Hbond.Weighted>
0.0000

> <Gold.Chemscore.DEClash.Weighted>
0.2707

> <Gold.Chemscore.DEInternal.Weighted>
0.6967

> <Gold.Chemscore.Rot.Weighted>
3.8646

> <Gold.Chemscore.Internal.Correction.Weighted>
   9.000000E+99

> <Gold.Protein.RotatedTorsions>
[ 6907 6896 6895 6894 ] final   85.36 input  -60.11 | X-H torsion
[ 7974 7965 7964 7962 ] final -145.48 input  175.53 | X-H torsion
[ 8008 7997 7996 7995 ] final  -50.17 input   59.86 | X-H torsion
[ 10167 10162 10161 10158 ] final  123.76 input  -65.29 | X-H torsion
[ 10718 10713 10712 10709 ] final  159.79 input   66.30 | X-H torsion
[ 10763 10752 10751 10750 ] final   35.02 input  -60.55 | X-H torsion
[ 11005 11000 10999 10996 ] final   44.06 input  -57.11 | X-H torsion

> <Gold.Protein.ActiveResidues>
 VAL166  LYS551  ARG553  GLY616  TRP617  ASP618  TYR619  PRO620  LYS621  CYS622 
 ASP623  PHE694  ASN695  SER759  ASP760  ASP761  ALA762  ILE779  LEU786  VAL792 
 PHE793  MET794  SER795  GLU796  ALA797  LYS798  CYS799  TRP800  GLU811  SER814 

> <Gold.Protein.RotatedAtoms>
  152.5373  134.2598  159.8930 H   0  0  0  0  0  0  0  0  0  0  0  0  # atno 6907 bound_to 6896
  151.2558  133.4320  159.2621 H   0  0  0  0  0  0  0  0  0  0  0  0  # atno 6908 bound_to 6896
  151.0497  134.9679  159.8261 H   0  0  0  0  0  0  0  0  0  0  0  0  # atno 6909 bound_to 6896
  144.8225  140.5578  143.5569 H   0  0  0  0  0  0  0  0  0  0  0  0  # atno 7974 bound_to 7965
  154.4057  140.1279  156.4622 H   0  0  0  0  0  0  0  0  0  0  0  0  # atno 8008 bound_to 7997
  155.7261  140.3492  155.5018 H   0  0  0  0  0  0  0  0  0  0  0  0  # atno 8009 bound_to 7997
  155.9170  140.1046  157.1226 H   0  0  0  0  0  0  0  0  0  0  0  0  # atno 8010 bound_to 7997
  139.5781  144.6973  151.3600 H   0  0  0  0  0  0  0  0  0  0  0  0  # atno 10167 bound_to 10162
  157.1593  131.0583  151.2240 H   0  0  0  0  0  0  0  0  0  0  0  0  # atno 10718 bound_to 10713
  153.0137  135.6344  154.1761 H   0  0  0  0  0  0  0  0  0  0  0  0  # atno 10763 bound_to 10752
  154.1501  135.2829  155.3139 H   0  0  0  0  0  0  0  0  0  0  0  0  # atno 10764 bound_to 10752
  154.6060  135.5572  153.7484 H   0  0  0  0  0  0  0  0  0  0  0  0  # atno 10765 bound_to 10752
  140.1586  134.4370  155.8332 H   0  0  0  0  0  0  0  0  0  0  0  0  # atno 11005 bound_to 11000
  145.5074  139.1480  143.3624 LP  0  0  0  0  0  0  0  0  0  0  0  0  # atno 17320 bound_to 7965
  146.2530  140.5214  142.8885 LP  0  0  0  0  0  0  0  0  0  0  0  0  # atno 17321 bound_to 7965
  140.7062  143.7508  150.7486 LP  0  0  0  0  0  0  0  0  0  0  0  0  # atno 17342 bound_to 10162
  140.1033  143.4767  152.2412 LP  0  0  0  0  0  0  0  0  0  0  0  0  # atno 17343 bound_to 10162
  157.4147  130.7404  149.6866 LP  0  0  0  0  0  0  0  0  0  0  0  0  # atno 17370 bound_to 10713
  155.9756  130.4086  150.3834 LP  0  0  0  0  0  0  0  0  0  0  0  0  # atno 17371 bound_to 10713
  141.2207  133.6903  156.7553 LP  0  0  0  0  0  0  0  0  0  0  0  0  # atno 17394 bound_to 11000
  140.2517  134.8535  157.3673 LP  0  0  0  0  0  0  0  0  0  0  0  0  # atno 17395 bound_to 11000

$$$$
