AV-unprocessed.smi:174|AV-procd|sdf|1427|dock6
  -GOLD-   2262019203D 1   1.00000     0.00000
 Structure written by MMmdl.
 51 54  0  0  0  0  0  0  0  0  1 V2000
  150.8617  143.0996  157.9899 N   0  0  0  0  0  0  0  0  0  0  0  0
  151.1451  142.0095  158.7060 C   0  0  0  0  0  0  0  0  0  0  0  0
  151.5760  142.0775  159.8561 O   0  0  0  0  0  0  0  0  0  0  0  0
  150.9285  140.6565  158.0131 C   0  0  0  0  0  0  0  0  0  0  0  0
  150.0329  140.7352  156.8497 N   0  0  0  0  0  0  0  0  0  0  0  0
  148.6334  141.0778  157.1507 C   0  0  0  0  0  0  0  0  0  0  0  0
  147.8263  141.5241  155.9202 C   0  0  0  0  0  0  0  0  0  0  0  0
  148.0974  140.6363  154.7972 N   0  0  0  0  0  0  0  0  0  0  0  0
  147.3737  139.4852  154.7966 C   0  0  0  0  0  0  0  0  0  0  0  0
  147.1591  138.8116  155.9590 N   0  0  0  0  0  0  0  0  0  0  0  0
  146.4347  137.6891  155.9669 C   0  0  0  0  0  0  0  0  0  0  0  0
  145.8406  137.0724  154.9439 N   0  0  0  0  0  0  0  0  0  0  0  0
  146.0528  137.7414  153.7749 C   0  0  0  0  0  0  0  0  0  0  0  0
  146.7997  138.9424  153.6128 C   0  0  0  0  0  0  0  0  0  0  0  0
  146.8054  139.3183  152.2743 N   0  0  0  0  0  0  0  0  0  0  0  0
  146.1028  138.3931  151.6797 C   0  0  0  0  0  0  0  0  0  0  0  0
  145.6169  137.4055  152.5054 N   0  0  0  0  0  0  0  0  0  0  0  0
  144.8265  136.2551  152.1075 C   0  0  0  0  0  0  0  0  0  0  0  0
  145.5050  135.4102  151.0089 C   0  0  2  0  0  0  0  0  0  0  0  0
  144.9542  135.8130  149.7710 O   0  0  0  0  0  0  0  0  0  0  0  0
  145.3207  133.8844  151.1712 C   0  0  1  0  0  0  0  0  0  0  0  0
  143.8989  133.3818  150.9038 C   0  0  0  0  0  0  0  0  0  0  0  0
  144.0936  131.9342  150.4762 C   0  0  0  0  0  0  0  0  0  0  0  0
  145.5973  131.8230  150.2180 C   0  0  0  0  0  0  0  0  0  0  0  0
  146.0526  133.1661  150.1888 O   0  0  0  0  0  0  0  0  0  0  0  0
  149.5111  140.5770  154.4059 C   0  0  0  0  0  0  0  0  0  0  0  0
  150.4883  140.4879  155.5941 C   0  0  0  0  0  0  0  0  0  0  0  0
  151.6604  140.1939  155.3578 O   0  0  0  0  0  0  0  0  0  0  0  0
  150.9832  144.0135  158.4014 H   0  0  0  0  0  0  0  0  0  0  0  0
  150.5235  143.0090  157.0429 H   0  0  0  0  0  0  0  0  0  0  0  0
  151.8924  140.2368  157.7184 H   0  0  0  0  0  0  0  0  0  0  0  0
  150.5192  139.9610  158.7472 H   0  0  0  0  0  0  0  0  0  0  0  0
  148.1651  140.1953  157.5883 H   0  0  0  0  0  0  0  0  0  0  0  0
  148.5949  141.8587  157.9116 H   0  0  0  0  0  0  0  0  0  0  0  0
  146.7657  141.5822  156.1641 H   0  0  0  0  0  0  0  0  0  0  0  0
  148.1238  142.5336  155.6329 H   0  0  0  0  0  0  0  0  0  0  0  0
  146.3142  137.2184  156.9315 H   0  0  0  0  0  0  0  0  0  0  0  0
  145.9254  138.4000  150.6141 H   0  0  0  0  0  0  0  0  0  0  0  0
  144.6321  135.6446  152.9904 H   0  0  0  0  0  0  0  0  0  0  0  0
  143.8568  136.6160  151.7617 H   0  0  0  0  0  0  0  0  0  0  0  0
  146.5706  135.6416  150.9830 H   0  0  0  0  0  0  0  0  0  0  0  0
  144.7366  136.7312  149.8247 H   0  0  0  0  0  0  0  0  0  0  0  0
  145.6460  133.5653  152.1635 H   0  0  0  0  0  0  0  0  0  0  0  0
  143.2493  133.4812  151.7739 H   0  0  0  0  0  0  0  0  0  0  0  0
  143.4486  133.9441  150.0844 H   0  0  0  0  0  0  0  0  0  0  0  0
  143.7807  131.2358  151.2531 H   0  0  0  0  0  0  0  0  0  0  0  0
  143.5164  131.7182  149.5764 H   0  0  0  0  0  0  0  0  0  0  0  0
  146.0915  131.2952  151.0350 H   0  0  0  0  0  0  0  0  0  0  0  0
  145.8290  131.3055  149.2869 H   0  0  0  0  0  0  0  0  0  0  0  0
  149.7041  139.7633  153.7050 H   0  0  0  0  0  0  0  0  0  0  0  0
  149.7403  141.4924  153.8597 H   0  0  0  0  0  0  0  0  0  0  0  0
  1  2  1  0  0  0  0
  1 29  1  0  0  0  0
  1 30  1  0  0  0  0
  2  3  2  0  0  0  0
  2  4  1  0  0  0  0
  4  5  1  0  0  0  0
  4 31  1  0  0  0  0
  4 32  1  0  0  0  0
  5 27  1  0  0  0  0
  5  6  1  0  0  0  0
  6  7  1  0  0  0  0
  6 33  1  0  0  0  0
  6 34  1  0  0  0  0
  7  8  1  0  0  0  0
  7 35  1  0  0  0  0
  7 36  1  0  0  0  0
  8  9  1  0  0  0  0
  8 26  1  0  0  0  0
  9 14  1  0  0  0  0
  9 10  2  0  0  0  0
 10 11  1  0  0  0  0
 11 12  2  0  0  0  0
 11 37  1  0  0  0  0
 12 13  1  0  0  0  0
 13 17  1  0  0  0  0
 13 14  2  0  0  0  0
 14 15  1  0  0  0  0
 15 16  2  0  0  0  0
 16 17  1  0  0  0  0
 16 38  1  0  0  0  0
 17 18  1  0  0  0  0
 18 19  1  0  0  0  0
 18 39  1  0  0  0  0
 18 40  1  0  0  0  0
 19 20  1  0  0  0  0
 19 21  1  0  0  0  0
 19 41  1  0  0  0  0
 20 42  1  0  0  0  0
 21 25  1  0  0  0  0
 21 22  1  0  0  0  0
 21 43  1  0  0  0  0
 22 23  1  0  0  0  0
 22 44  1  0  0  0  0
 22 45  1  0  0  0  0
 23 24  1  0  0  0  0
 23 46  1  0  0  0  0
 23 47  1  0  0  0  0
 24 25  1  0  0  0  0
 24 48  1  0  0  0  0
 24 49  1  0  0  0  0
 26 27  1  0  0  0  0
 26 50  1  0  0  0  0
 26 51  1  0  0  0  0
 27 28  2  0  0  0  0
M  END
> <s_m_source_file>
AV-unprocessed.smi

> <i_m_source_file_index>
174

> <i_lp_mmshare_version>
43012

> <i_f3d_flags>
0

> <s_epik_input>
W05IMl1DKD1PKVtDSDJdTjFbQ0gyXVtDSDJdTihbQ0gyXUMxPU8pYyhuW2NIXW4yKWMoYzIzKW5bY0hdbjNbQ0gyXVtDQEhdKFtPSF0pW0NAQEhdNFtDSDJdW0NIMl1bQ0gyXU80

> <s_epik_cmdline>
J2VwaWtfcHl0aG9uJywgJy1waCcsICc3LjAnLCAnLXRuJywgJzgnLCAnLW1hJywgJzIwMCcsICctbWV0YWxfYmluZGluZycsICctaW1hZScsICc8aW5maWxlLm1hZT4nLCAnLW9tYWUnLCAnPG91dGZpbGUubWFlPic=

> <r_lp_tautomer_probability>
1

> <r_epik_Ionization_Penalty>
0.000250477

> <r_epik_Ionization_Penalty_Charging>
0

> <r_epik_Ionization_Penalty_Neutral>
0.000250477

> <r_epik_State_Penalty>
-0

> <r_epik_Charging_Adjusted_Penalty>
0

> <i_epik_Tot_Q>
0

> <i_epik_Tot_abs_Q>
0

> <r_epik_Metal_State_Penalty>
-0

> <b_epik_Metal_Only>
0

> <s_lp_Force_Field>
OPLS_2005

> <r_lp_Energy>
34.8675

> <b_lp_Chiralities_Consistent>
1

> <s_lp_Variant>
AV-unprocessed.smi:174-3

> <Gold.Version>
5.8.1

> <Gold.Id.Protein>
6NUR|6NUR_protein|mol2

> <Gold.PLP.Fitness>
45.5658

> <Gold.PLP.PLP>
-40.2807

> <Gold.PLP.part.hbond>
-3.6055

> <Gold.PLP.part.metal>
0.0000

> <Gold.PLP.part.buried>
-6.8252

> <Gold.PLP.part.nonpolar>
-32.1199

> <Gold.PLP.part.repulsive>
1.5796

> <Gold.PLP.ligand.clash>
0.0000

> <Gold.PLP.ligand.torsion>
1.4701

> <Gold.PLP.Chemscore.Hbond>
1.7296

> <Gold.PLP.Chemscore.CHOScore>
0.8447

> <Gold.PLP.Chemscore.Metal>
0.0000

> <Gold.Chemscore.Hbonds>
donor molecule, donor type, donor heavy atom, donor atom, acceptor molecule, acceptor atom, score
      L1  H    20    42       P1 10171  1.00
      P1  H  7989  7998       L1    28  0.73
      L1  C    16    38       P1 10171  0.83

> <Gold.PLP.Chemscore.Internal.Correction>
0.5024

> <Gold.Rescore>
     Score         DG    S(hbond)    S(metal)    S(lipo)     H(rot)  DE(clash)    DE(int)     intcor
      3.72      -6.36       1.02        0.00      63.80       3.90       0.08       2.56       ----

> <Gold.Chemscore.Fitness>
3.7183

> <Gold.Chemscore.DG>
-6.3591

> <Gold.Chemscore.ZeroCoef>
-5.4800

> <Gold.Chemscore.Hbond>
1.0165

> <Gold.Chemscore.Metal>
0.0000

> <Gold.Chemscore.Lipo>
63.8020

> <Gold.Chemscore.Internal_Hbond>
0.0000

> <Gold.Chemscore.DEClash>
0.0800

> <Gold.Chemscore.DEInternal>
2.5608

> <Gold.Chemscore.Rot>
3.8988

> <Gold.Chemscore.Internal.Correction>
   9.000000E+99

> <Gold.Chemscore.Hbonds>
donor molecule, donor type, donor heavy atom, donor atom, acceptor molecule, acceptor atom, score
      L1  H    20    42       P1 10171  0.93
      P1  H  7989  7998       L1    28  0.10

> <Gold.Chemscore.Hbond.Weighted>
-3.3951

> <Gold.Chemscore.Metal.Weighted>
-0.0000

> <Gold.Chemscore.Lipo.Weighted>
-7.4648

> <Gold.Chemscore.Internal_Hbond.Weighted>
0.0000

> <Gold.Chemscore.DEClash.Weighted>
0.0800

> <Gold.Chemscore.DEInternal.Weighted>
2.5608

> <Gold.Chemscore.Rot.Weighted>
9.9808

> <Gold.Chemscore.Internal.Correction.Weighted>
   9.000000E+99

> <Gold.Protein.RotatedTorsions>
[ 6907 6896 6895 6894 ] final -150.93 input  -60.11 | X-H torsion
[ 7974 7965 7964 7962 ] final -131.49 input  175.53 | X-H torsion
[ 8008 7997 7996 7995 ] final  101.71 input   59.86 | X-H torsion
[ 10167 10162 10161 10158 ] final  164.86 input  -65.29 | X-H torsion
[ 10718 10713 10712 10709 ] final  -68.14 input   66.30 | X-H torsion
[ 10763 10752 10751 10750 ] final  155.43 input  -60.55 | X-H torsion
[ 11005 11000 10999 10996 ] final  -81.98 input  -57.11 | X-H torsion

> <Gold.Protein.ActiveResidues>
 VAL166  LYS551  ARG553  GLY616  TRP617  ASP618  TYR619  PRO620  LYS621  CYS622 
 ASP623  PHE694  ASN695  SER759  ASP760  ASP761  ALA762  ILE779  LEU786  VAL792 
 PHE793  MET794  SER795  GLU796  ALA797  LYS798  CYS799  TRP800  GLU811  SER814 

> <Gold.Protein.RotatedAtoms>
  151.2057  133.4584  159.2596 H   0  0  0  0  0  0  0  0  0  0  0  0  # atno 6907 bound_to 6896
  151.1025  134.9980  159.8465 H   0  0  0  0  0  0  0  0  0  0  0  0  # atno 6908 bound_to 6896
  152.5444  134.1983  159.8755 H   0  0  0  0  0  0  0  0  0  0  0  0  # atno 6909 bound_to 6896
  144.9374  140.7199  143.4868 H   0  0  0  0  0  0  0  0  0  0  0  0  # atno 7974 bound_to 7965
  156.1324  140.3193  155.8370 H   0  0  0  0  0  0  0  0  0  0  0  0  # atno 8008 bound_to 7997
  155.4306  140.0518  157.3036 H   0  0  0  0  0  0  0  0  0  0  0  0  # atno 8009 bound_to 7997
  154.4910  140.2092  155.9561 H   0  0  0  0  0  0  0  0  0  0  0  0  # atno 8010 bound_to 7997
  139.4896  144.4191  151.9207 H   0  0  0  0  0  0  0  0  0  0  0  0  # atno 10167 bound_to 10162
  156.0520  130.4290  150.1957 H   0  0  0  0  0  0  0  0  0  0  0  0  # atno 10718 bound_to 10713
  154.1683  135.2806  155.3088 H   0  0  0  0  0  0  0  0  0  0  0  0  # atno 10763 bound_to 10752
  154.6095  135.5503  153.7461 H   0  0  0  0  0  0  0  0  0  0  0  0  # atno 10764 bound_to 10752
  153.0172  135.6412  154.1823 H   0  0  0  0  0  0  0  0  0  0  0  0  # atno 10765 bound_to 10752
  141.1665  133.7222  156.8504 H   0  0  0  0  0  0  0  0  0  0  0  0  # atno 11005 bound_to 11000
  145.3045  139.1839  143.4672 LP  0  0  0  0  0  0  0  0  0  0  0  0  # atno 17320 bound_to 7965
  146.3272  140.3040  142.8622 LP  0  0  0  0  0  0  0  0  0  0  0  0  # atno 17321 bound_to 7965
  140.3635  144.2944  150.5930 LP  0  0  0  0  0  0  0  0  0  0  0  0  # atno 17342 bound_to 10162
  140.5382  143.2229  151.8128 LP  0  0  0  0  0  0  0  0  0  0  0  0  # atno 17343 bound_to 10162
  157.0039  130.9931  151.3383 LP  0  0  0  0  0  0  0  0  0  0  0  0  # atno 17370 bound_to 10713
  157.5456  130.8148  149.8082 LP  0  0  0  0  0  0  0  0  0  0  0  0  # atno 17371 bound_to 10713
  140.1920  134.8959  157.3071 LP  0  0  0  0  0  0  0  0  0  0  0  0  # atno 17394 bound_to 11000
  140.2280  134.3943  155.7535 LP  0  0  0  0  0  0  0  0  0  0  0  0  # atno 17395 bound_to 11000

$$$$
