AV-unprocessed.smi:265|AV-procd|sdf|2030|dock2
  -GOLD-   2262021233D 1   1.00000     0.00000
 Structure written by MMmdl.
 52 56  0  0  0  0  0  0  0  0  1 V2000
  153.4627  142.2332  159.6697 C   0  0  0  0  0  0  0  0  0  0  0  0
  152.0649  142.8710  159.6888 C   0  0  1  0  0  0  0  0  0  0  0  0
  152.2239  144.2491  160.0173 O   0  0  0  0  0  0  0  0  0  0  0  0
  151.1940  144.9932  159.3915 C   0  0  0  0  0  0  0  0  0  0  0  0
  151.0920  144.3264  158.0287 C   0  0  0  0  0  0  0  0  0  0  0  0
  151.2636  142.8454  158.3563 C   0  0  2  0  0  0  0  0  0  0  0  0
  149.9800  142.3133  158.6376 O   0  0  0  0  0  0  0  0  0  0  0  0
  151.8815  142.0222  157.1952 C   0  0  0  0  0  0  0  0  0  0  0  0
  151.5450  140.6075  157.2454 N   0  0  0  0  0  0  0  0  0  0  0  0
  151.7966  139.7365  158.2813 C   0  0  0  0  0  0  0  0  0  0  0  0
  151.3988  138.5095  158.0854 N   0  0  0  0  0  0  0  0  0  0  0  0
  150.8142  138.5382  156.8243 C   0  0  0  0  0  0  0  0  0  0  0  0
  150.1827  137.5625  156.0016 C   0  0  0  0  0  0  0  0  0  0  0  0
  150.0092  136.2738  156.3915 N   0  0  0  0  0  0  0  0  0  0  0  0
  150.1191  135.9742  157.8238 C   0  0  0  0  0  0  0  0  0  0  0  0
  149.5676  134.5725  158.1491 C   0  0  0  0  0  0  0  0  0  0  0  0
  150.2400  133.5241  157.2533 C   0  0  1  0  0  0  0  0  0  0  0  0
  149.6920  132.2284  157.4437 O   0  0  0  0  0  0  0  0  0  0  0  0
  150.4024  131.2036  156.7398 C   0  0  0  0  0  0  0  0  0  0  0  0
  150.6922  131.5779  155.2705 C   0  0  0  0  0  0  0  0  0  0  0  0
  151.0678  130.7143  154.4811 O   0  0  0  0  0  0  0  0  0  0  0  0
  150.5628  132.8642  154.9066 N   0  0  0  0  0  0  0  0  0  0  0  0
  150.0064  133.8891  155.7794 C   0  0  2  0  0  0  0  0  0  0  0  0
  150.5905  135.2791  155.4864 C   0  0  0  0  0  0  0  0  0  0  0  0
  149.7401  137.9674  154.7809 N   0  0  0  0  0  0  0  0  0  0  0  0
  149.8889  139.2382  154.3954 C   0  0  0  0  0  0  0  0  0  0  0  0
  150.4429  140.2526  155.0616 N   0  0  0  0  0  0  0  0  0  0  0  0
  150.9022  139.8512  156.2810 C   0  0  0  0  0  0  0  0  0  0  0  0
  151.3082  133.5019  157.4802 H   0  0  0  0  0  0  0  0  0  0  0  0
  148.9327  133.9164  155.5845 H   0  0  0  0  0  0  0  0  0  0  0  0
  153.4127  141.1691  159.4378 H   0  0  0  0  0  0  0  0  0  0  0  0
  153.9416  142.3308  160.6442 H   0  0  0  0  0  0  0  0  0  0  0  0
  154.1123  142.7140  158.9383 H   0  0  0  0  0  0  0  0  0  0  0  0
  151.4870  142.4056  160.4896 H   0  0  0  0  0  0  0  0  0  0  0  0
  150.2651  144.8875  159.9540 H   0  0  0  0  0  0  0  0  0  0  0  0
  151.4434  146.0523  159.3267 H   0  0  0  0  0  0  0  0  0  0  0  0
  150.1648  144.5594  157.5030 H   0  0  0  0  0  0  0  0  0  0  0  0
  151.9209  144.6714  157.4090 H   0  0  0  0  0  0  0  0  0  0  0  0
  149.3501  143.0170  158.6061 H   0  0  0  0  0  0  0  0  0  0  0  0
  151.5402  142.4045  156.2329 H   0  0  0  0  0  0  0  0  0  0  0  0
  152.9682  142.1146  157.1965 H   0  0  0  0  0  0  0  0  0  0  0  0
  152.2929  140.0404  159.1914 H   0  0  0  0  0  0  0  0  0  0  0  0
  151.1662  136.0375  158.1237 H   0  0  0  0  0  0  0  0  0  0  0  0
  149.5728  136.7197  158.4033 H   0  0  0  0  0  0  0  0  0  0  0  0
  149.7370  134.3371  159.1999 H   0  0  0  0  0  0  0  0  0  0  0  0
  148.4879  134.5562  157.9940 H   0  0  0  0  0  0  0  0  0  0  0  0
  151.3503  131.0131  157.2446 H   0  0  0  0  0  0  0  0  0  0  0  0
  149.8250  130.2797  156.7784 H   0  0  0  0  0  0  0  0  0  0  0  0
  150.7832  133.1250  153.9564 H   0  0  0  0  0  0  0  0  0  0  0  0
  150.4102  135.5335  154.4428 H   0  0  0  0  0  0  0  0  0  0  0  0
  151.6727  135.2693  155.6230 H   0  0  0  0  0  0  0  0  0  0  0  0
  149.5087  139.4775  153.4133 H   0  0  0  0  0  0  0  0  0  0  0  0
  1  2  1  0  0  0  0
  1 31  1  0  0  0  0
  1 32  1  0  0  0  0
  1 33  1  0  0  0  0
  2  6  1  0  0  0  0
  2  3  1  0  0  0  0
  2 34  1  0  0  0  0
  3  4  1  0  0  0  0
  4  5  1  0  0  0  0
  4 35  1  0  0  0  0
  4 36  1  0  0  0  0
  5  6  1  0  0  0  0
  5 37  1  0  0  0  0
  5 38  1  0  0  0  0
  6  7  1  0  0  0  0
  6  8  1  0  0  0  0
  7 39  1  0  0  0  0
  8  9  1  0  0  0  0
  8 40  1  0  0  0  0
  8 41  1  0  0  0  0
  9 28  1  0  0  0  0
  9 10  1  0  0  0  0
 10 11  2  0  0  0  0
 10 42  1  0  0  0  0
 11 12  1  0  0  0  0
 12 28  2  0  0  0  0
 12 13  1  0  0  0  0
 13 14  1  0  0  0  0
 13 25  2  0  0  0  0
 14 24  1  0  0  0  0
 14 15  1  0  0  0  0
 15 16  1  0  0  0  0
 15 43  1  0  0  0  0
 15 44  1  0  0  0  0
 16 17  1  0  0  0  0
 16 45  1  0  0  0  0
 16 46  1  0  0  0  0
 17 29  1  0  0  0  0
 17 23  1  0  0  0  0
 17 18  1  0  0  0  0
 18 19  1  0  0  0  0
 19 20  1  0  0  0  0
 19 47  1  0  0  0  0
 19 48  1  0  0  0  0
 20 21  2  0  0  0  0
 20 22  1  0  0  0  0
 22 23  1  0  0  0  0
 22 49  1  0  0  0  0
 23 30  1  0  0  0  0
 23 24  1  0  0  0  0
 24 50  1  0  0  0  0
 24 51  1  0  0  0  0
 25 26  1  0  0  0  0
 26 27  2  0  0  0  0
 26 52  1  0  0  0  0
 27 28  1  0  0  0  0
M  END
> <s_m_source_file>
AV-unprocessed.smi

> <i_m_source_file_index>
265

> <i_lp_mmshare_version>
43012

> <i_f3d_flags>
0

> <s_epik_input>
W0NIMl0xW0NIMl1PW0NAQEhdKFtDSDNdKVtDQEBdMShbT0hdKVtDSDJdbihbY0hdbjIpYyhjMjMpbltjSF1uYzNOKFtDSDJdW0NIMl00KVtDSDJdW0NAQEhdKFtDQEhdNDUpW05IXUMoPU8pW0NIMl1PNQ==

> <s_epik_cmdline>
J2VwaWtfcHl0aG9uJywgJy1waCcsICc3LjAnLCAnLXRuJywgJzgnLCAnLW1hJywgJzIwMCcsICctbWV0YWxfYmluZGluZycsICctaW1hZScsICc8aW5maWxlLm1hZT4nLCAnLW9tYWUnLCAnPG91dGZpbGUubWFlPic=

> <r_lp_tautomer_probability>
1

> <r_epik_Ionization_Penalty>
0.00221504

> <r_epik_Ionization_Penalty_Charging>
0

> <r_epik_Ionization_Penalty_Neutral>
0.00221504

> <r_epik_State_Penalty>
-0

> <r_epik_Charging_Adjusted_Penalty>
0

> <i_epik_Tot_Q>
0

> <i_epik_Tot_abs_Q>
0

> <r_epik_Metal_State_Penalty>
-0

> <b_epik_Metal_Only>
0

> <s_lp_Force_Field>
OPLS_2005

> <r_lp_Energy>
44.2788

> <b_lp_Chiralities_Consistent>
1

> <s_lp_Variant>
AV-unprocessed.smi:265-16

> <Gold.Version>
5.8.1

> <Gold.Id.Protein>
6NUR|6NUR_protein|mol2

> <Gold.PLP.Fitness>
39.0330

> <Gold.PLP.PLP>
-34.6791

> <Gold.PLP.part.hbond>
-1.0000

> <Gold.PLP.part.metal>
0.0000

> <Gold.PLP.part.buried>
-7.1568

> <Gold.PLP.part.nonpolar>
-27.4106

> <Gold.PLP.part.repulsive>
0.3963

> <Gold.PLP.ligand.clash>
0.0000

> <Gold.PLP.ligand.torsion>
0.6633

> <Gold.PLP.Chemscore.Hbond>
0.7500

> <Gold.PLP.Chemscore.CHOScore>
1.0000

> <Gold.PLP.Chemscore.Metal>
0.0000

> <Gold.Chemscore.Hbonds>
donor molecule, donor type, donor heavy atom, donor atom, acceptor molecule, acceptor atom, score
      P1  H  7989  7998       L1    27  0.69
      L1  C    26    52       P1  7957  1.00

> <Gold.PLP.Chemscore.Internal.Correction>
0.4305

> <Gold.Rescore>
     Score         DG    S(hbond)    S(metal)    S(lipo)     H(rot)  DE(clash)    DE(int)     intcor
     11.43     -15.57       1.76        0.00      85.25       2.25       2.24       1.89       ----

> <Gold.Chemscore.Fitness>
11.4332

> <Gold.Chemscore.DG>
-15.5694

> <Gold.Chemscore.ZeroCoef>
-5.4800

> <Gold.Chemscore.Hbond>
1.7553

> <Gold.Chemscore.Metal>
0.0000

> <Gold.Chemscore.Lipo>
85.2538

> <Gold.Chemscore.Internal_Hbond>
0.0000

> <Gold.Chemscore.DEClash>
2.2424

> <Gold.Chemscore.DEInternal>
1.8938

> <Gold.Chemscore.Rot>
2.2453

> <Gold.Chemscore.Internal.Correction>
   9.000000E+99

> <Gold.Chemscore.Hbonds>
donor molecule, donor type, donor heavy atom, donor atom, acceptor molecule, acceptor atom, score
      P1  H  7989  7998       L1    27  0.08

> <Gold.Chemscore.Hbond.Weighted>
-5.8626

> <Gold.Chemscore.Metal.Weighted>
-0.0000

> <Gold.Chemscore.Lipo.Weighted>
-9.9747

> <Gold.Chemscore.Internal_Hbond.Weighted>
0.0000

> <Gold.Chemscore.DEClash.Weighted>
2.2424

> <Gold.Chemscore.DEInternal.Weighted>
1.8938

> <Gold.Chemscore.Rot.Weighted>
5.7479

> <Gold.Chemscore.Internal.Correction.Weighted>
   9.000000E+99

> <Gold.Protein.RotatedTorsions>
[ 6907 6896 6895 6894 ] final   45.28 input  -60.11 | X-H torsion
[ 7974 7965 7964 7962 ] final   41.22 input  175.53 | X-H torsion
[ 8008 7997 7996 7995 ] final   52.40 input   59.86 | X-H torsion
[ 10167 10162 10161 10158 ] final  116.89 input  -65.29 | X-H torsion
[ 10718 10713 10712 10709 ] final  -29.96 input   66.30 | X-H torsion
[ 10763 10752 10751 10750 ] final  179.39 input  -60.55 | X-H torsion
[ 11005 11000 10999 10996 ] final -137.23 input  -57.11 | X-H torsion

> <Gold.Protein.ActiveResidues>
 VAL166  LYS551  ARG553  GLY616  TRP617  ASP618  TYR619  PRO620  LYS621  CYS622 
 ASP623  PHE694  ASN695  SER759  ASP760  ASP761  ALA762  ILE779  LEU786  VAL792 
 PHE793  MET794  SER795  GLU796  ALA797  LYS798  CYS799  TRP800  GLU811  SER814 

> <Gold.Protein.RotatedAtoms>
  152.2427  134.8212  160.0457 H   0  0  0  0  0  0  0  0  0  0  0  0  # atno 6907 bound_to 6896
  151.8921  133.3513  159.3810 H   0  0  0  0  0  0  0  0  0  0  0  0  # atno 6908 bound_to 6896
  150.7059  134.4839  159.5528 H   0  0  0  0  0  0  0  0  0  0  0  0  # atno 6909 bound_to 6896
  146.0841  139.5441  142.9518 H   0  0  0  0  0  0  0  0  0  0  0  0  # atno 7974 bound_to 7965
  155.4511  140.3458  155.4301 H   0  0  0  0  0  0  0  0  0  0  0  0  # atno 8008 bound_to 7997
  156.1220  140.1489  156.9221 H   0  0  0  0  0  0  0  0  0  0  0  0  # atno 8009 bound_to 7997
  154.4830  140.0864  156.7401 H   0  0  0  0  0  0  0  0  0  0  0  0  # atno 8010 bound_to 7997
  139.6216  144.7102  151.2623 H   0  0  0  0  0  0  0  0  0  0  0  0  # atno 10167 bound_to 10162
  156.4058  130.4399  149.7288 H   0  0  0  0  0  0  0  0  0  0  0  0  # atno 10718 bound_to 10713
  154.5200  135.2793  155.1271 H   0  0  0  0  0  0  0  0  0  0  0  0  # atno 10763 bound_to 10752
  154.2832  135.6281  153.5359 H   0  0  0  0  0  0  0  0  0  0  0  0  # atno 10764 bound_to 10752
  152.9935  135.5656  154.5686 H   0  0  0  0  0  0  0  0  0  0  0  0  # atno 10765 bound_to 10752
  140.8731  134.2026  157.4639 H   0  0  0  0  0  0  0  0  0  0  0  0  # atno 11005 bound_to 11000
  145.6162  141.0331  143.1939 LP  0  0  0  0  0  0  0  0  0  0  0  0  # atno 17320 bound_to 7965
  144.7313  139.7716  143.7346 LP  0  0  0  0  0  0  0  0  0  0  0  0  # atno 17321 bound_to 7965
  140.7385  143.6646  150.8134 LP  0  0  0  0  0  0  0  0  0  0  0  0  # atno 17342 bound_to 10162
  140.0257  143.5496  152.2781 LP  0  0  0  0  0  0  0  0  0  0  0  0  # atno 17343 bound_to 10162
  156.4286  130.7804  151.2823 LP  0  0  0  0  0  0  0  0  0  0  0  0  # atno 17370 bound_to 10713
  157.7505  131.0161  150.3530 LP  0  0  0  0  0  0  0  0  0  0  0  0  # atno 17371 bound_to 10713
  139.8713  134.9783  156.4992 LP  0  0  0  0  0  0  0  0  0  0  0  0  # atno 17394 bound_to 11000
  140.8550  133.8103  155.9207 LP  0  0  0  0  0  0  0  0  0  0  0  0  # atno 17395 bound_to 11000

$$$$
