AV-unprocessed.smi:828|AV-procd|sdf|3865|dock7
  -GOLD-   22720 1313D 1   1.00000     0.00000
 Structure written by MMmdl.
 34 35  0  0  0  0  0  0  0  0  3 V2000
  149.4596  134.6247  154.8246 C   0  0  0  0  0  0  0  0  0  0  0  0
  150.3677  135.6562  155.4006 C   0  0  0  0  0  0  0  0  0  0  0  0
  151.4508  135.3449  156.1167 N   0  0  0  0  0  0  0  0  0  0  0  0
  152.1357  136.4723  156.5459 N   0  0  0  0  0  0  0  0  0  0  0  0
  151.5575  137.6179  156.1582 C   0  0  0  0  0  0  0  0  0  0  0  0
  152.0658  138.8219  156.4689 N   0  5  0  0  0  0  0  0  0  0  0  0
  151.3424  139.9401  156.2387 C   0  0  0  0  0  0  0  0  0  0  0  0
  151.0644  140.4171  155.1362 O   0  0  0  0  0  0  0  0  0  0  0  0
  150.9236  140.5474  157.3580 N   0  0  0  0  0  0  0  0  0  0  0  0
  150.1448  141.7795  157.4331 C   0  0  0  0  0  0  0  0  0  0  0  0
  150.7713  142.7941  158.4096 C   0  0  1  0  0  0  0  0  0  0  0  0
  152.2414  143.1227  158.1267 C   0  0  0  0  0  0  0  0  0  0  0  0
  152.4203  144.4825  158.7855 C   0  0  0  0  0  0  0  0  0  0  0  0
  151.0775  145.1736  158.5410 C   0  0  0  0  0  0  0  0  0  0  0  0
  150.0705  144.0998  158.3637 N   0  3  2  0  0  0  0  0  0  0  0  0
  148.9181  144.2035  159.2856 C   0  0  0  0  0  0  0  0  0  0  0  0
  150.0994  137.3789  155.1955 S   0  0  0  0  0  0  0  0  0  0  0  0
  148.8805  134.1523  155.6183 H   0  0  0  0  0  0  0  0  0  0  0  0
  150.0396  133.8595  154.3083 H   0  0  0  0  0  0  0  0  0  0  0  0
  148.7715  135.0801  154.1123 H   0  0  0  0  0  0  0  0  0  0  0  0
  151.1731  140.1130  158.2344 H   0  0  0  0  0  0  0  0  0  0  0  0
  150.0178  142.2247  156.4446 H   0  0  0  0  0  0  0  0  0  0  0  0
  149.1450  141.5086  157.7719 H   0  0  0  0  0  0  0  0  0  0  0  0
  150.7083  142.4034  159.4274 H   0  0  0  0  0  0  0  0  0  0  0  0
  152.9281  142.3704  158.5163 H   0  0  0  0  0  0  0  0  0  0  0  0
  152.4136  143.2120  157.0531 H   0  0  0  0  0  0  0  0  0  0  0  0
  152.5814  144.3523  159.8564 H   0  0  0  0  0  0  0  0  0  0  0  0
  153.2653  145.0421  158.3833 H   0  0  0  0  0  0  0  0  0  0  0  0
  150.8296  145.8600  159.3520 H   0  0  0  0  0  0  0  0  0  0  0  0
  151.1148  145.7554  157.6194 H   0  0  0  0  0  0  0  0  0  0  0  0
  149.2379  144.1212  160.3252 H   0  0  0  0  0  0  0  0  0  0  0  0
  148.1922  143.4149  159.0869 H   0  0  0  0  0  0  0  0  0  0  0  0
  148.4136  145.1616  159.1572 H   0  0  0  0  0  0  0  0  0  0  0  0
  149.7148  144.2018  157.4238 H   0  0  0  0  0  0  0  0  0  0  0  0
  1  2  1  0  0  0  0
  1 18  1  0  0  0  0
  1 19  1  0  0  0  0
  1 20  1  0  0  0  0
  2 17  1  0  0  0  0
  2  3  2  0  0  0  0
  3  4  1  0  0  0  0
  4  5  2  0  0  0  0
  5  6  1  0  0  0  0
  5 17  1  0  0  0  0
  6  7  1  0  0  0  0
  7  8  2  0  0  0  0
  7  9  1  0  0  0  0
  9 10  1  0  0  0  0
  9 21  1  0  0  0  0
 10 11  1  0  0  0  0
 10 22  1  0  0  0  0
 10 23  1  0  0  0  0
 11 15  1  0  0  0  0
 11 12  1  0  0  0  0
 11 24  1  0  0  0  0
 12 13  1  0  0  0  0
 12 25  1  0  0  0  0
 12 26  1  0  0  0  0
 13 14  1  0  0  0  0
 13 27  1  0  0  0  0
 13 28  1  0  0  0  0
 14 15  1  0  0  0  0
 14 29  1  0  0  0  0
 14 30  1  0  0  0  0
 15 16  1  0  0  0  0
 15 34  1  0  0  0  0
 16 31  1  0  0  0  0
 16 32  1  0  0  0  0
 16 33  1  0  0  0  0
M  CHG  1   6  -1
M  CHG  1  15   1
M  END
> <s_m_source_file>
AV-unprocessed.smi

> <i_m_source_file_index>
828

> <i_lp_mmshare_version>
43012

> <i_f3d_flags>
0

> <s_epik_input>
W0NIM11jMW5uYyhzMSlbTkhdQyg9TylbTkhdW0NIMl1bQ0BASF0yW0NIMl1bQ0gyXVtDSDJdTjJbQ0gzXQ==

> <s_epik_cmdline>
J2VwaWtfcHl0aG9uJywgJy1waCcsICc3LjAnLCAnLXRuJywgJzgnLCAnLW1hJywgJzIwMCcsICctbWV0YWxfYmluZGluZycsICctaW1hZScsICc8aW5maWxlLm1hZT4nLCAnLW9tYWUnLCAnPG91dGZpbGUubWFlPic=

> <r_lp_tautomer_probability>
1

> <r_epik_Ionization_Penalty>
3.94379

> <r_epik_Ionization_Penalty_Charging>
3.83377

> <r_epik_Ionization_Penalty_Neutral>
0.110023

> <r_epik_State_Penalty>
3.83036

> <r_epik_Charging_Adjusted_Penalty>
7.66413

> <i_epik_Tot_Q>
0

> <i_epik_Tot_abs_Q>
2

> <r_epik_Metal_State_Penalty>
0.575095

> <b_epik_Metal_Only>
1

> <s_lp_Force_Field>
OPLS_2005

> <r_lp_Energy>
18.3481

> <b_lp_Chiralities_Consistent>
1

> <s_lp_Variant>
AV-unprocessed.smi:828-8

> <Gold.Version>
5.8.1

> <Gold.Id.Protein>
6NUR|6NUR_protein|mol2

> <Gold.PLP.Fitness>
35.1261

> <Gold.PLP.PLP>
-27.6174

> <Gold.PLP.part.hbond>
-4.9570

> <Gold.PLP.part.metal>
0.0000

> <Gold.PLP.part.buried>
-2.2180

> <Gold.PLP.part.nonpolar>
-20.5011

> <Gold.PLP.part.repulsive>
0.2092

> <Gold.PLP.ligand.clash>
0.0000

> <Gold.PLP.ligand.torsion>
0.7499

> <Gold.PLP.Chemscore.Hbond>
3.0000

> <Gold.PLP.Chemscore.CHOScore>
0.0000

> <Gold.PLP.Chemscore.Metal>
0.0000

> <Gold.Chemscore.Hbonds>
donor molecule, donor type, donor heavy atom, donor atom, acceptor molecule, acceptor atom, score
      L1  H    15    34       P1  8028  2.00
      P1  H  7989  7998       L1     8  1.00

> <Gold.PLP.Chemscore.Internal.Correction>
0.0084

> <Gold.Rescore>
     Score         DG    S(hbond)    S(metal)    S(lipo)     H(rot)  DE(clash)    DE(int)     intcor
     12.13     -14.46       1.37        0.00      66.50       1.31       1.57       0.76       ----

> <Gold.Chemscore.Fitness>
12.1335

> <Gold.Chemscore.DG>
-14.4573

> <Gold.Chemscore.ZeroCoef>
-5.4800

> <Gold.Chemscore.Hbond>
1.3663

> <Gold.Chemscore.Metal>
0.0000

> <Gold.Chemscore.Lipo>
66.4974

> <Gold.Chemscore.Internal_Hbond>
0.0000

> <Gold.Chemscore.DEClash>
1.5684

> <Gold.Chemscore.DEInternal>
0.7554

> <Gold.Chemscore.Rot>
1.3149

> <Gold.Chemscore.Internal.Correction>
   9.000000E+99

> <Gold.Chemscore.Hbonds>
donor molecule, donor type, donor heavy atom, donor atom, acceptor molecule, acceptor atom, score
      L1  H    15    34       P1  8028  0.29
      P1  H  7989  7998       L1     8  0.96

> <Gold.Chemscore.Hbond.Weighted>
-4.5633

> <Gold.Chemscore.Metal.Weighted>
-0.0000

> <Gold.Chemscore.Lipo.Weighted>
-7.7802

> <Gold.Chemscore.Internal_Hbond.Weighted>
0.0000

> <Gold.Chemscore.DEClash.Weighted>
1.5684

> <Gold.Chemscore.DEInternal.Weighted>
0.7554

> <Gold.Chemscore.Rot.Weighted>
3.3662

> <Gold.Chemscore.Internal.Correction.Weighted>
   9.000000E+99

> <Gold.Protein.RotatedTorsions>
[ 6907 6896 6895 6894 ] final  -18.64 input  -60.11 | X-H torsion
[ 7974 7965 7964 7962 ] final   91.14 input  175.53 | X-H torsion
[ 8008 7997 7996 7995 ] final -163.90 input   59.86 | X-H torsion
[ 10167 10162 10161 10158 ] final   77.79 input  -65.29 | X-H torsion
[ 10718 10713 10712 10709 ] final   30.41 input   66.30 | X-H torsion
[ 10763 10752 10751 10750 ] final -113.17 input  -60.55 | X-H torsion
[ 11005 11000 10999 10996 ] final   92.30 input  -57.11 | X-H torsion

> <Gold.Protein.ActiveResidues>
 VAL166  LYS551  ARG553  GLY616  TRP617  ASP618  TYR619  PRO620  LYS621  CYS622 
 ASP623  PHE694  ASN695  SER759  ASP760  ASP761  ALA762  ILE779  LEU786  VAL792 
 PHE793  MET794  SER795  GLU796  ALA797  LYS798  CYS799  TRP800  GLU811  SER814 

> <Gold.Protein.RotatedAtoms>
  151.2752  135.0697  159.9148 H   0  0  0  0  0  0  0  0  0  0  0  0  # atno 6907 bound_to 6896
  152.5344  134.0089  159.7939 H   0  0  0  0  0  0  0  0  0  0  0  0  # atno 6908 bound_to 6896
  151.0334  133.5720  159.2689 H   0  0  0  0  0  0  0  0  0  0  0  0  # atno 6909 bound_to 6896
  145.5096  139.2277  143.2732 H   0  0  0  0  0  0  0  0  0  0  0  0  # atno 7974 bound_to 7965
  155.8280  140.0929  157.1810 H   0  0  0  0  0  0  0  0  0  0  0  0  # atno 8008 bound_to 7997
  154.3979  140.1424  156.3640 H   0  0  0  0  0  0  0  0  0  0  0  0  # atno 8009 bound_to 7997
  155.8196  140.3447  155.5509 H   0  0  0  0  0  0  0  0  0  0  0  0  # atno 8010 bound_to 7997
  139.9778  144.5848  150.7927 H   0  0  0  0  0  0  0  0  0  0  0  0  # atno 10167 bound_to 10162
  157.2593  130.7153  149.6445 H   0  0  0  0  0  0  0  0  0  0  0  0  # atno 10718 bound_to 10713
  154.8384  135.4464  154.1308 H   0  0  0  0  0  0  0  0  0  0  0  0  # atno 10763 bound_to 10752
  153.2519  135.6927  153.7677 H   0  0  0  0  0  0  0  0  0  0  0  0  # atno 10764 bound_to 10752
  153.6986  135.3375  155.3195 H   0  0  0  0  0  0  0  0  0  0  0  0  # atno 10765 bound_to 10752
  139.8825  134.8725  156.3553 H   0  0  0  0  0  0  0  0  0  0  0  0  # atno 11005 bound_to 11000
  146.2175  140.5902  142.9032 LP  0  0  0  0  0  0  0  0  0  0  0  0  # atno 17320 bound_to 7965
  144.7734  140.5688  143.6654 LP  0  0  0  0  0  0  0  0  0  0  0  0  # atno 17321 bound_to 7965
  140.7500  143.2947  151.3235 LP  0  0  0  0  0  0  0  0  0  0  0  0  # atno 17342 bound_to 10162
  139.6432  144.0499  152.2571 LP  0  0  0  0  0  0  0  0  0  0  0  0  # atno 17343 bound_to 10162
  155.9664  130.4402  150.5292 LP  0  0  0  0  0  0  0  0  0  0  0  0  # atno 17370 bound_to 10713
  157.3193  131.0679  151.1943 LP  0  0  0  0  0  0  0  0  0  0  0  0  # atno 17371 bound_to 10713
  140.9566  133.7416  156.0344 LP  0  0  0  0  0  0  0  0  0  0  0  0  # atno 17394 bound_to 11000
  140.8040  134.3475  157.5431 LP  0  0  0  0  0  0  0  0  0  0  0  0  # atno 17395 bound_to 11000

$$$$
