AV-unprocessed.smi:2586|AV-procd|sdf|10145|dock10
  -GOLD-   2272014153D 1   1.00000     0.00000
 Structure written by MMmdl.
 30 31  0  0  0  0  0  0  0  0  1 V2000
  145.4044  135.6296  154.7516 C   0  0  0  0  0  0  0  0  0  0  0  0
  145.8160  135.5170  153.3945 O   0  0  0  0  0  0  0  0  0  0  0  0
  145.3454  136.5234  152.4913 C   0  0  0  0  0  0  0  0  0  0  0  0
  145.8682  137.9176  152.8586 C   0  0  0  0  0  0  0  0  0  0  0  0
  147.3234  137.9095  152.9736 N   0  0  0  0  0  0  0  0  0  0  0  0
  148.0483  138.7092  153.7680 C   0  0  0  0  0  0  0  0  0  0  0  0
  147.5597  139.5900  154.4759 O   0  0  0  0  0  0  0  0  0  0  0  0
  149.3566  138.4116  153.6850 N   0  0  0  0  0  0  0  0  0  0  0  0
  150.3993  138.9820  154.3425 C   0  0  0  0  0  0  0  0  0  0  0  0
  150.3621  140.1406  155.0705 C   0  0  0  0  0  0  0  0  0  0  0  0
  151.5921  140.4990  155.6452 N   0  0  0  0  0  0  0  0  0  0  0  0
  152.5608  139.6692  155.3909 N   0  0  0  0  0  0  0  0  0  0  0  0
  152.0326  138.4007  154.4343 S   0  0  0  0  0  0  0  0  0  0  0  0
  145.6096  136.0054  151.0648 C   0  0  0  0  0  0  0  0  0  0  0  0
  144.2253  135.3546  151.0724 C   0  0  0  0  0  0  0  0  0  0  0  0
  143.8447  136.3315  152.1865 C   0  0  0  0  0  0  0  0  0  0  0  0
  145.7209  134.7389  155.2938 H   0  0  0  0  0  0  0  0  0  0  0  0
  144.3228  135.7104  154.8528 H   0  0  0  0  0  0  0  0  0  0  0  0
  145.8645  136.4848  155.2449 H   0  0  0  0  0  0  0  0  0  0  0  0
  145.6079  138.6308  152.0759 H   0  0  0  0  0  0  0  0  0  0  0  0
  145.3846  138.2932  153.7610 H   0  0  0  0  0  0  0  0  0  0  0  0
  147.8127  137.2153  152.4283 H   0  0  0  0  0  0  0  0  0  0  0  0
  149.6014  137.6573  153.0606 H   0  0  0  0  0  0  0  0  0  0  0  0
  149.5064  140.7786  155.2355 H   0  0  0  0  0  0  0  0  0  0  0  0
  145.6865  136.8092  150.3308 H   0  0  0  0  0  0  0  0  0  0  0  0
  146.4415  135.3061  150.9748 H   0  0  0  0  0  0  0  0  0  0  0  0
  143.6589  135.4712  150.1479 H   0  0  0  0  0  0  0  0  0  0  0  0
  144.2476  134.3167  151.4082 H   0  0  0  0  0  0  0  0  0  0  0  0
  143.2444  135.8893  152.9809 H   0  0  0  0  0  0  0  0  0  0  0  0
  143.3757  137.2374  151.7989 H   0  0  0  0  0  0  0  0  0  0  0  0
  1  2  1  0  0  0  0
  1 17  1  0  0  0  0
  1 18  1  0  0  0  0
  1 19  1  0  0  0  0
  2  3  1  0  0  0  0
  3 16  1  0  0  0  0
  3  4  1  0  0  0  0
  3 14  1  0  0  0  0
  4  5  1  0  0  0  0
  4 20  1  0  0  0  0
  4 21  1  0  0  0  0
  5  6  1  0  0  0  0
  5 22  1  0  0  0  0
  6  7  2  0  0  0  0
  6  8  1  0  0  0  0
  8  9  1  0  0  0  0
  8 23  1  0  0  0  0
  9 13  1  0  0  0  0
  9 10  2  0  0  0  0
 10 11  1  0  0  0  0
 10 24  1  0  0  0  0
 11 12  2  0  0  0  0
 12 13  1  0  0  0  0
 14 15  1  0  0  0  0
 14 25  1  0  0  0  0
 14 26  1  0  0  0  0
 15 16  1  0  0  0  0
 15 27  1  0  0  0  0
 15 28  1  0  0  0  0
 16 29  1  0  0  0  0
 16 30  1  0  0  0  0
M  END
> <s_m_source_file>
AV-unprocessed.smi

> <i_m_source_file_index>
2586

> <i_lp_mmshare_version>
43012

> <i_f3d_flags>
0

> <s_epik_input>
W0NIMl0xW0NIMl1bQ0gyXUMxKE9bQ0gzXSlbQ0gyXVtOSF1DKD1PKVtOSF1jMltjSF1ubnMy

> <s_epik_cmdline>
J2VwaWtfcHl0aG9uJywgJy1waCcsICc3LjAnLCAnLXRuJywgJzgnLCAnLW1hJywgJzIwMCcsICctbWV0YWxfYmluZGluZycsICctaW1hZScsICc8aW5maWxlLm1hZT4nLCAnLW9tYWUnLCAnPG91dGZpbGUubWFlPic=

> <r_lp_tautomer_probability>
1

> <r_epik_Ionization_Penalty>
2.25632e-05

> <r_epik_Ionization_Penalty_Charging>
0

> <r_epik_Ionization_Penalty_Neutral>
2.25632e-05

> <r_epik_State_Penalty>
-0

> <r_epik_Charging_Adjusted_Penalty>
0

> <i_epik_Tot_Q>
0

> <i_epik_Tot_abs_Q>
0

> <r_epik_Metal_State_Penalty>
-0

> <b_epik_Metal_Only>
0

> <s_lp_Force_Field>
OPLS_2005

> <r_lp_Energy>
14.9091

> <b_lp_Chiralities_Consistent>
1

> <s_lp_Variant>
AV-unprocessed.smi:2586-1

> <Gold.Version>
5.8.1

> <Gold.Id.Protein>
6NUR|6NUR_protein|mol2

> <Gold.PLP.Fitness>
35.1689

> <Gold.PLP.PLP>
-26.7035

> <Gold.PLP.part.hbond>
-5.6564

> <Gold.PLP.part.metal>
0.0000

> <Gold.PLP.part.buried>
-3.5168

> <Gold.PLP.part.nonpolar>
-18.6007

> <Gold.PLP.part.repulsive>
0.2936

> <Gold.PLP.ligand.clash>
0.0000

> <Gold.PLP.ligand.torsion>
0.3626

> <Gold.PLP.Chemscore.Hbond>
2.9760

> <Gold.PLP.Chemscore.CHOScore>
0.0000

> <Gold.PLP.Chemscore.Metal>
0.0000

> <Gold.Chemscore.Hbonds>
donor molecule, donor type, donor heavy atom, donor atom, acceptor molecule, acceptor atom, score
      L1  H     5    22       P1  7948  1.00
      L1  H     8    23       P1  7948  0.96
      P1  H  7997  8008       L1    12  1.00

> <Gold.PLP.Chemscore.Internal.Correction>
0.2627

> <Gold.Rescore>
     Score         DG    S(hbond)    S(metal)    S(lipo)     H(rot)  DE(clash)    DE(int)     intcor
     14.56     -16.21       2.71        0.00      49.61       1.61       0.07       1.58       ----

> <Gold.Chemscore.Fitness>
14.5596

> <Gold.Chemscore.DG>
-16.2114

> <Gold.Chemscore.ZeroCoef>
-5.4800

> <Gold.Chemscore.Hbond>
2.7124

> <Gold.Chemscore.Metal>
0.0000

> <Gold.Chemscore.Lipo>
49.6060

> <Gold.Chemscore.Internal_Hbond>
0.0000

> <Gold.Chemscore.DEClash>
0.0701

> <Gold.Chemscore.DEInternal>
1.5817

> <Gold.Chemscore.Rot>
1.6141

> <Gold.Chemscore.Internal.Correction>
   9.000000E+99

> <Gold.Chemscore.Hbonds>
donor molecule, donor type, donor heavy atom, donor atom, acceptor molecule, acceptor atom, score
      L1  H     5    22       P1  7948  0.98
      L1  H     8    23       P1  7948  0.72
      P1  H  7997  8008       L1    12  0.89

> <Gold.Chemscore.Hbond.Weighted>
-9.0595

> <Gold.Chemscore.Metal.Weighted>
-0.0000

> <Gold.Chemscore.Lipo.Weighted>
-5.8039

> <Gold.Chemscore.Internal_Hbond.Weighted>
0.0000

> <Gold.Chemscore.DEClash.Weighted>
0.0701

> <Gold.Chemscore.DEInternal.Weighted>
1.5817

> <Gold.Chemscore.Rot.Weighted>
4.1320

> <Gold.Chemscore.Internal.Correction.Weighted>
   9.000000E+99

> <Gold.Protein.RotatedTorsions>
[ 6907 6896 6895 6894 ] final -122.12 input  -60.11 | X-H torsion
[ 7974 7965 7964 7962 ] final  -16.71 input  175.53 | X-H torsion
[ 8008 7997 7996 7995 ] final  -29.95 input   59.86 | X-H torsion
[ 10167 10162 10161 10158 ] final  -56.80 input  -65.29 | X-H torsion
[ 10718 10713 10712 10709 ] final  -43.03 input   66.30 | X-H torsion
[ 10763 10752 10751 10750 ] final  143.34 input  -60.55 | X-H torsion
[ 11005 11000 10999 10996 ] final   35.47 input  -57.11 | X-H torsion

> <Gold.Protein.ActiveResidues>
 VAL166  LYS551  ARG553  GLY616  TRP617  ASP618  TYR619  PRO620  LYS621  CYS622 
 ASP623  PHE694  ASN695  SER759  ASP760  ASP761  ALA762  ILE779  LEU786  VAL792 
 PHE793  MET794  SER795  GLU796  ALA797  LYS798  CYS799  TRP800  GLU811  SER814 

> <Gold.Protein.RotatedAtoms>
  150.8546  133.7734  159.3013 H   0  0  0  0  0  0  0  0  0  0  0  0  # atno 6907 bound_to 6896
  151.5395  135.1067  159.9932 H   0  0  0  0  0  0  0  0  0  0  0  0  # atno 6908 bound_to 6896
  152.4580  133.7719  159.6859 H   0  0  0  0  0  0  0  0  0  0  0  0  # atno 6909 bound_to 6896
  146.1975  140.3676  142.8435 H   0  0  0  0  0  0  0  0  0  0  0  0  # atno 7974 bound_to 7965
  154.4269  140.1804  156.1329 H   0  0  0  0  0  0  0  0  0  0  0  0  # atno 8008 bound_to 7997
  156.0053  140.3356  155.6861 H   0  0  0  0  0  0  0  0  0  0  0  0  # atno 8009 bound_to 7997
  155.6186  140.0657  157.2675 H   0  0  0  0  0  0  0  0  0  0  0  0  # atno 8010 bound_to 7997
  140.6296  143.2453  151.5276 H   0  0  0  0  0  0  0  0  0  0  0  0  # atno 10167 bound_to 10162
  156.2532  130.4190  149.8625 H   0  0  0  0  0  0  0  0  0  0  0  0  # atno 10718 bound_to 10713
  153.9708  135.2951  155.3427 H   0  0  0  0  0  0  0  0  0  0  0  0  # atno 10763 bound_to 10752
  154.7323  135.5062  153.8987 H   0  0  0  0  0  0  0  0  0  0  0  0  # atno 10764 bound_to 10752
  153.0901  135.6705  153.9983 H   0  0  0  0  0  0  0  0  0  0  0  0  # atno 10765 bound_to 10752
  140.2423  134.3400  155.7921 H   0  0  0  0  0  0  0  0  0  0  0  0  # atno 11005 bound_to 11000
  144.8611  140.7140  143.6107 LP  0  0  0  0  0  0  0  0  0  0  0  0  # atno 17320 bound_to 7965
  145.3596  139.1685  143.4390 LP  0  0  0  0  0  0  0  0  0  0  0  0  # atno 17321 bound_to 7965
  139.5511  144.2392  152.1532 LP  0  0  0  0  0  0  0  0  0  0  0  0  # atno 17342 bound_to 10162
  140.1632  144.5006  150.6620 LP  0  0  0  0  0  0  0  0  0  0  0  0  # atno 17343 bound_to 10162
  156.6166  130.8609  151.3466 LP  0  0  0  0  0  0  0  0  0  0  0  0  # atno 17370 bound_to 10713
  157.7223  130.9574  150.1487 LP  0  0  0  0  0  0  0  0  0  0  0  0  # atno 17371 bound_to 10713
  141.2209  133.7306  156.8905 LP  0  0  0  0  0  0  0  0  0  0  0  0  # atno 17394 bound_to 11000
  140.1641  134.9145  157.2751 LP  0  0  0  0  0  0  0  0  0  0  0  0  # atno 17395 bound_to 11000

$$$$
