AV-unprocessed.smi:2310|AV-procd|sdf|9256|dock8
  -GOLD-   2272012473D 1   1.00000     0.00000
 Structure written by MMmdl.
 45 46  0  0  0  0  0  0  0  0  1 V2000
  144.2183  135.3869  150.6047 C   0  0  0  0  0  0  0  0  0  0  0  0
  145.5929  135.9684  150.9654 C   0  0  0  0  0  0  0  0  0  0  0  0
  145.5221  137.2520  151.8139 C   0  0  1  0  0  0  0  0  0  0  0  0
  144.5051  137.1087  152.9568 C   0  0  0  0  0  0  0  0  0  0  0  0
  144.7903  135.9751  153.8510 C   0  0  0  0  0  0  0  0  0  0  0  0
  145.0140  135.0834  154.5531 N   0  0  0  0  0  0  0  0  0  0  0  0
  146.8394  137.5702  152.3671 N   0  0  0  0  0  0  0  0  0  0  0  0
  147.1101  138.5591  153.2321 C   0  0  0  0  0  0  0  0  0  0  0  0
  146.2627  139.3442  153.6566 O   0  0  0  0  0  0  0  0  0  0  0  0
  148.4171  138.5840  153.5451 N   0  0  0  0  0  0  0  0  0  0  0  0
  149.1019  139.4746  154.4195 C   0  0  0  0  0  0  0  0  0  0  0  0
  148.4620  140.5681  155.0520 C   0  0  0  0  0  0  0  0  0  0  0  0
  149.2018  141.3906  155.9211 C   0  0  0  0  0  0  0  0  0  0  0  0
  150.5593  141.0929  156.1469 C   0  0  0  0  0  0  0  0  0  0  0  0
  151.2966  141.9116  157.0158 N   0  0  0  0  0  0  0  0  0  0  0  0
  151.3211  143.3239  156.6720 C   0  0  0  0  0  0  0  0  0  0  0  0
  151.8282  144.0392  157.9265 C   0  0  0  0  0  0  0  0  0  0  0  0
  151.5306  143.0709  159.0780 C   0  0  0  0  0  0  0  0  0  0  0  0
  150.8935  141.8486  158.4109 C   0  0  0  0  0  0  0  0  0  0  0  0
  151.1774  140.0419  155.5597 N   0  0  0  0  0  0  0  0  0  0  0  0
  150.4697  139.2514  154.7231 C   0  0  0  0  0  0  0  0  0  0  0  0
  151.2703  138.1027  154.1298 C   0  0  0  0  0  0  0  0  0  0  0  0
  144.3262  134.4532  150.0524 H   0  0  0  0  0  0  0  0  0  0  0  0
  143.6422  136.0720  149.9824 H   0  0  0  0  0  0  0  0  0  0  0  0
  143.6339  135.1768  151.5008 H   0  0  0  0  0  0  0  0  0  0  0  0
  146.1553  135.2113  151.5133 H   0  0  0  0  0  0  0  0  0  0  0  0
  146.1563  136.1597  150.0512 H   0  0  0  0  0  0  0  0  0  0  0  0
  145.1739  138.0600  151.1680 H   0  0  0  0  0  0  0  0  0  0  0  0
  144.5005  138.0090  153.5717 H   0  0  0  0  0  0  0  0  0  0  0  0
  143.4960  136.9847  152.5629 H   0  0  0  0  0  0  0  0  0  0  0  0
  147.6057  136.9839  152.0700 H   0  0  0  0  0  0  0  0  0  0  0  0
  149.0053  137.9338  153.0448 H   0  0  0  0  0  0  0  0  0  0  0  0
  147.4157  140.7835  154.9008 H   0  0  0  0  0  0  0  0  0  0  0  0
  148.7300  142.2305  156.4099 H   0  0  0  0  0  0  0  0  0  0  0  0
  151.9692  143.5083  155.8148 H   0  0  0  0  0  0  0  0  0  0  0  0
  150.3199  143.6769  156.4203 H   0  0  0  0  0  0  0  0  0  0  0  0
  152.9029  144.2112  157.8552 H   0  0  0  0  0  0  0  0  0  0  0  0
  151.3447  145.0073  158.0607 H   0  0  0  0  0  0  0  0  0  0  0  0
  152.4589  142.7913  159.5776 H   0  0  0  0  0  0  0  0  0  0  0  0
  150.8691  143.5077  159.8266 H   0  0  0  0  0  0  0  0  0  0  0  0
  149.8072  141.8975  158.4987 H   0  0  0  0  0  0  0  0  0  0  0  0
  151.2267  140.9194  158.8742 H   0  0  0  0  0  0  0  0  0  0  0  0
  150.7074  137.5031  153.4159 H   0  0  0  0  0  0  0  0  0  0  0  0
  151.6132  137.4397  154.9244 H   0  0  0  0  0  0  0  0  0  0  0  0
  152.1486  138.4902  153.6122 H   0  0  0  0  0  0  0  0  0  0  0  0
  1  2  1  0  0  0  0
  1 23  1  0  0  0  0
  1 24  1  0  0  0  0
  1 25  1  0  0  0  0
  2  3  1  0  0  0  0
  2 26  1  0  0  0  0
  2 27  1  0  0  0  0
  3  4  1  0  0  0  0
  3  7  1  0  0  0  0
  3 28  1  0  0  0  0
  4  5  1  0  0  0  0
  4 29  1  0  0  0  0
  4 30  1  0  0  0  0
  5  6  3  0  0  0  0
  7  8  1  0  0  0  0
  7 31  1  0  0  0  0
  8  9  2  0  0  0  0
  8 10  1  0  0  0  0
 10 11  1  0  0  0  0
 10 32  1  0  0  0  0
 11 21  1  0  0  0  0
 11 12  2  0  0  0  0
 12 13  1  0  0  0  0
 12 33  1  0  0  0  0
 13 14  2  0  0  0  0
 13 34  1  0  0  0  0
 14 15  1  0  0  0  0
 14 20  1  0  0  0  0
 15 19  1  0  0  0  0
 15 16  1  0  0  0  0
 16 17  1  0  0  0  0
 16 35  1  0  0  0  0
 16 36  1  0  0  0  0
 17 18  1  0  0  0  0
 17 37  1  0  0  0  0
 17 38  1  0  0  0  0
 18 19  1  0  0  0  0
 18 39  1  0  0  0  0
 18 40  1  0  0  0  0
 19 41  1  0  0  0  0
 19 42  1  0  0  0  0
 20 21  2  0  0  0  0
 21 22  1  0  0  0  0
 22 43  1  0  0  0  0
 22 44  1  0  0  0  0
 22 45  1  0  0  0  0
M  END
> <s_m_source_file>
AV-unprocessed.smi

> <i_m_source_file_index>
2310

> <i_lp_mmshare_version>
43012

> <i_f3d_flags>
0

> <s_epik_input>
TiNDW0NIMl1bQ0BASF0oW0NIMl1bQ0gzXSlbTkhdQyg9TylbTkhdYzFbY0hdW2NIXWMobmMxW0NIM10pTjJbQ0gyXVtDSDJdW0NIMl1bQ0gyXTI=

> <s_epik_cmdline>
J2VwaWtfcHl0aG9uJywgJy1waCcsICc3LjAnLCAnLXRuJywgJzgnLCAnLW1hJywgJzIwMCcsICctbWV0YWxfYmluZGluZycsICctaW1hZScsICc8aW5maWxlLm1hZT4nLCAnLW9tYWUnLCAnPG91dGZpbGUubWFlPic=

> <r_lp_tautomer_probability>
1

> <r_epik_Ionization_Penalty>
0.281354

> <r_epik_Ionization_Penalty_Charging>
0

> <r_epik_Ionization_Penalty_Neutral>
0.281354

> <r_epik_State_Penalty>
0.273364

> <r_epik_Charging_Adjusted_Penalty>
0.273364

> <i_epik_Tot_Q>
0

> <i_epik_Tot_abs_Q>
0

> <r_epik_Metal_State_Penalty>
0.18752

> <b_epik_Metal_Only>
0

> <s_lp_Force_Field>
OPLS_2005

> <r_lp_Energy>
36.0303

> <b_lp_Chiralities_Consistent>
1

> <s_lp_Variant>
AV-unprocessed.smi:2310-2

> <Gold.Version>
5.8.1

> <Gold.Id.Protein>
6NUR|6NUR_protein|mol2

> <Gold.PLP.Fitness>
40.6926

> <Gold.PLP.PLP>
-35.5456

> <Gold.PLP.part.hbond>
-3.5148

> <Gold.PLP.part.metal>
0.0000

> <Gold.PLP.part.buried>
-2.3230

> <Gold.PLP.part.nonpolar>
-32.1343

> <Gold.PLP.part.repulsive>
0.8940

> <Gold.PLP.ligand.clash>
0.0000

> <Gold.PLP.ligand.torsion>
0.2160

> <Gold.PLP.Chemscore.Hbond>
1.8437

> <Gold.PLP.Chemscore.CHOScore>
0.0000

> <Gold.PLP.Chemscore.Metal>
0.0000

> <Gold.Chemscore.Hbonds>
donor molecule, donor type, donor heavy atom, donor atom, acceptor molecule, acceptor atom, score
      L1  H     7    31       P1  7948  1.00
      L1  H    10    32       P1  7948  0.84

> <Gold.PLP.Chemscore.Internal.Correction>
0.0480

> <Gold.Rescore>
     Score         DG    S(hbond)    S(metal)    S(lipo)     H(rot)  DE(clash)    DE(int)     intcor
     15.58     -18.18       1.73        0.00      95.31       1.65       1.06       1.55       ----

> <Gold.Chemscore.Fitness>
15.5771

> <Gold.Chemscore.DG>
-18.1831

> <Gold.Chemscore.ZeroCoef>
-5.4800

> <Gold.Chemscore.Hbond>
1.7305

> <Gold.Chemscore.Metal>
0.0000

> <Gold.Chemscore.Lipo>
95.3060

> <Gold.Chemscore.Internal_Hbond>
0.0000

> <Gold.Chemscore.DEClash>
1.0568

> <Gold.Chemscore.DEInternal>
1.5492

> <Gold.Chemscore.Rot>
1.6514

> <Gold.Chemscore.Internal.Correction>
   9.000000E+99

> <Gold.Chemscore.Hbonds>
donor molecule, donor type, donor heavy atom, donor atom, acceptor molecule, acceptor atom, score
      L1  H     7    31       P1  7948  0.94
      L1  H    10    32       P1  7948  0.79

> <Gold.Chemscore.Hbond.Weighted>
-5.7799

> <Gold.Chemscore.Metal.Weighted>
-0.0000

> <Gold.Chemscore.Lipo.Weighted>
-11.1508

> <Gold.Chemscore.Internal_Hbond.Weighted>
0.0000

> <Gold.Chemscore.DEClash.Weighted>
1.0568

> <Gold.Chemscore.DEInternal.Weighted>
1.5492

> <Gold.Chemscore.Rot.Weighted>
4.2276

> <Gold.Chemscore.Internal.Correction.Weighted>
   9.000000E+99

> <Gold.Protein.RotatedTorsions>
[ 6907 6896 6895 6894 ] final  116.74 input  -60.11 | X-H torsion
[ 7974 7965 7964 7962 ] final -150.91 input  175.53 | X-H torsion
[ 8008 7997 7996 7995 ] final  -10.12 input   59.86 | X-H torsion
[ 10167 10162 10161 10158 ] final  171.26 input  -65.29 | X-H torsion
[ 10718 10713 10712 10709 ] final  -90.85 input   66.30 | X-H torsion
[ 10763 10752 10751 10750 ] final  103.88 input  -60.55 | X-H torsion
[ 11005 11000 10999 10996 ] final   13.59 input  -57.11 | X-H torsion

> <Gold.Protein.ActiveResidues>
 VAL166  LYS551  ARG553  GLY616  TRP617  ASP618  TYR619  PRO620  LYS621  CYS622 
 ASP623  PHE694  ASN695  SER759  ASP760  ASP761  ALA762  ILE779  LEU786  VAL792 
 PHE793  MET794  SER795  GLU796  ALA797  LYS798  CYS799  TRP800  GLU811  SER814 

> <Gold.Protein.RotatedAtoms>
  152.4658  133.7919  159.6906 H   0  0  0  0  0  0  0  0  0  0  0  0  # atno 6907 bound_to 6896
  150.8622  133.7618  159.2995 H   0  0  0  0  0  0  0  0  0  0  0  0  # atno 6908 bound_to 6896
  151.5179  135.1069  159.9923 H   0  0  0  0  0  0  0  0  0  0  0  0  # atno 6909 bound_to 6896
  144.7880  140.4869  143.5792 H   0  0  0  0  0  0  0  0  0  0  0  0  # atno 7974 bound_to 7965
  154.5584  140.2337  155.8374 H   0  0  0  0  0  0  0  0  0  0  0  0  # atno 8008 bound_to 7997
  156.2008  140.3053  155.9483 H   0  0  0  0  0  0  0  0  0  0  0  0  # atno 8009 bound_to 7997
  155.2936  140.0428  157.3015 H   0  0  0  0  0  0  0  0  0  0  0  0  # atno 8010 bound_to 7997
  139.5042  144.3505  151.9927 H   0  0  0  0  0  0  0  0  0  0  0  0  # atno 10167 bound_to 10162
  155.9990  130.4925  150.5385 H   0  0  0  0  0  0  0  0  0  0  0  0  # atno 10718 bound_to 10713
  153.3585  135.3962  155.1700 H   0  0  0  0  0  0  0  0  0  0  0  0  # atno 10763 bound_to 10752
  154.8675  135.3674  154.5130 H   0  0  0  0  0  0  0  0  0  0  0  0  # atno 10764 bound_to 10752
  153.5587  135.7081  153.5617 H   0  0  0  0  0  0  0  0  0  0  0  0  # atno 10765 bound_to 10752
  140.4790  134.0954  155.7747 H   0  0  0  0  0  0  0  0  0  0  0  0  # atno 11005 bound_to 11000
  145.5869  139.1493  143.3204 LP  0  0  0  0  0  0  0  0  0  0  0  0  # atno 17320 bound_to 7965
  146.2120  140.5997  142.9055 LP  0  0  0  0  0  0  0  0  0  0  0  0  # atno 17321 bound_to 7965
  140.2942  144.3720  150.6079 LP  0  0  0  0  0  0  0  0  0  0  0  0  # atno 17342 bound_to 10162
  140.5923  143.2167  151.7229 LP  0  0  0  0  0  0  0  0  0  0  0  0  # atno 17343 bound_to 10162
  157.3325  131.0702  151.1850 LP  0  0  0  0  0  0  0  0  0  0  0  0  # atno 17370 bound_to 10713
  157.2726  130.6711  149.6027 LP  0  0  0  0  0  0  0  0  0  0  0  0  # atno 17371 bound_to 10713
  141.1540  133.8916  157.2024 LP  0  0  0  0  0  0  0  0  0  0  0  0  # atno 17394 bound_to 11000
  139.9838  135.0089  156.9813 LP  0  0  0  0  0  0  0  0  0  0  0  0  # atno 17395 bound_to 11000

$$$$
