AV-unprocessed.smi:1072|AV-procd|sdf|4687|dock7
  -GOLD-   22720 3203D 1   1.00000     0.00000
 Structure written by MMmdl.
 45 46  0  0  0  0  0  0  0  0  2 V2000
  154.4102  138.5676  158.4626 C   0  0  0  0  0  0  0  0  0  0  0  0
  153.4033  138.2909  157.3667 C   0  0  0  0  0  0  0  0  0  0  0  0
  152.8430  137.1432  157.3080 N   0  0  0  0  0  0  0  0  0  0  0  0
  151.9058  136.8823  156.2941 C   0  0  0  0  0  0  0  0  0  0  0  0
  151.2914  135.4932  156.2987 C   0  0  0  0  0  0  0  0  0  0  0  0
  151.5807  137.8330  155.3718 C   0  0  0  0  0  0  0  0  0  0  0  0
  150.5680  137.5965  154.2511 C   0  0  0  0  0  0  0  0  0  0  0  0
  149.2508  138.3672  154.3667 C   0  0  0  0  0  0  0  0  0  0  0  0
  148.9151  138.8654  155.4407 O   0  0  0  0  0  0  0  0  0  0  0  0
  148.5191  138.4460  153.2414 N   0  0  0  0  0  0  0  0  0  0  0  0
  147.2174  139.0978  153.0362 C   0  0  1  0  0  0  0  0  0  0  0  0
  147.3291  140.6026  153.3640 C   0  0  0  0  0  0  0  0  0  0  0  0
  146.6980  138.8977  151.5880 C   0  0  0  0  0  0  0  0  0  0  0  0
  146.4305  137.4201  151.2495 C   0  0  0  0  0  0  0  0  0  0  0  0
  145.4319  136.7889  152.2363 C   0  0  1  0  0  0  0  0  0  0  0  0
  145.1734  135.3119  151.9067 C   0  0  0  0  0  0  0  0  0  0  0  0
  145.9231  136.9671  153.6847 C   0  0  0  0  0  0  0  0  0  0  0  0
  146.2082  138.4459  154.0120 C   0  0  0  0  0  0  0  0  0  0  0  0
  152.2459  139.1441  155.4767 C   0  0  0  0  0  0  0  0  0  0  0  0
  151.9797  140.0417  154.6785 O   0  0  0  0  0  0  0  0  0  0  0  0
  153.1513  139.3152  156.4820 N   0  5  0  0  0  0  0  0  0  0  0  0
  154.3839  137.7886  159.2257 H   0  0  0  0  0  0  0  0  0  0  0  0
  154.1967  139.5223  158.9445 H   0  0  0  0  0  0  0  0  0  0  0  0
  155.4171  138.6080  158.0464 H   0  0  0  0  0  0  0  0  0  0  0  0
  151.5530  134.9566  155.3866 H   0  0  0  0  0  0  0  0  0  0  0  0
  150.2053  135.5530  156.3687 H   0  0  0  0  0  0  0  0  0  0  0  0
  151.6483  134.9070  157.1462 H   0  0  0  0  0  0  0  0  0  0  0  0
  151.0061  137.8167  153.2774 H   0  0  0  0  0  0  0  0  0  0  0  0
  150.3456  136.5295  154.2169 H   0  0  0  0  0  0  0  0  0  0  0  0
  148.9089  137.9973  152.4253 H   0  0  0  0  0  0  0  0  0  0  0  0
  146.3553  141.0906  153.3141 H   0  0  0  0  0  0  0  0  0  0  0  0
  147.9825  141.1270  152.6666 H   0  0  0  0  0  0  0  0  0  0  0  0
  147.7236  140.7613  154.3683 H   0  0  0  0  0  0  0  0  0  0  0  0
  145.7696  139.4559  151.4606 H   0  0  0  0  0  0  0  0  0  0  0  0
  147.3907  139.3197  150.8600 H   0  0  0  0  0  0  0  0  0  0  0  0
  146.0434  137.3470  150.2326 H   0  0  0  0  0  0  0  0  0  0  0  0
  147.3682  136.8630  151.2585 H   0  0  0  0  0  0  0  0  0  0  0  0
  144.4833  137.3188  152.1378 H   0  0  0  0  0  0  0  0  0  0  0  0
  146.0870  134.7220  151.9858 H   0  0  0  0  0  0  0  0  0  0  0  0
  144.7905  135.1974  150.8923 H   0  0  0  0  0  0  0  0  0  0  0  0
  144.4383  134.8804  152.5866 H   0  0  0  0  0  0  0  0  0  0  0  0
  145.1754  136.5811  154.3786 H   0  0  0  0  0  0  0  0  0  0  0  0
  146.8225  136.3715  153.8465 H   0  0  0  0  0  0  0  0  0  0  0  0
  146.5703  138.5277  155.0380 H   0  0  0  0  0  0  0  0  0  0  0  0
  145.2661  138.9955  153.9835 H   0  0  0  0  0  0  0  0  0  0  0  0
  1  2  1  0  0  0  0
  1 22  1  0  0  0  0
  1 23  1  0  0  0  0
  1 24  1  0  0  0  0
  2 21  1  0  0  0  0
  2  3  2  0  0  0  0
  3  4  1  0  0  0  0
  4  5  1  0  0  0  0
  4  6  2  0  0  0  0
  5 25  1  0  0  0  0
  5 26  1  0  0  0  0
  5 27  1  0  0  0  0
  6  7  1  0  0  0  0
  6 19  1  0  0  0  0
  7  8  1  0  0  0  0
  7 28  1  0  0  0  0
  7 29  1  0  0  0  0
  8  9  2  0  0  0  0
  8 10  1  0  0  0  0
 10 11  1  0  0  0  0
 10 30  1  0  0  0  0
 11 18  1  0  0  0  0
 11 12  1  0  0  0  0
 11 13  1  0  0  0  0
 12 31  1  0  0  0  0
 12 32  1  0  0  0  0
 12 33  1  0  0  0  0
 13 14  1  0  0  0  0
 13 34  1  0  0  0  0
 13 35  1  0  0  0  0
 14 15  1  0  0  0  0
 14 36  1  0  0  0  0
 14 37  1  0  0  0  0
 15 16  1  0  0  0  0
 15 17  1  0  0  0  0
 15 38  1  0  0  0  0
 16 39  1  0  0  0  0
 16 40  1  0  0  0  0
 16 41  1  0  0  0  0
 17 18  1  0  0  0  0
 17 42  1  0  0  0  0
 17 43  1  0  0  0  0
 18 44  1  0  0  0  0
 18 45  1  0  0  0  0
 19 20  2  0  0  0  0
 19 21  1  0  0  0  0
M  CHG  1  21  -1
M  END
> <s_m_source_file>
AV-unprocessed.smi

> <i_m_source_file_index>
1072

> <i_lp_mmshare_version>
43012

> <i_f3d_flags>
0

> <s_epik_input>
W0NIM11jMW5jKFtDSDNdKWMoYyg9TylbbkhdMSlbQ0gyXUMoPU8pW05IXVtDQEBdMihbQ0gzXSlbQ0gyXVtDSDJdW0NAQEhdKFtDSDNdKVtDSDJdW0NIMl0y

> <s_epik_cmdline>
J2VwaWtfcHl0aG9uJywgJy1waCcsICc3LjAnLCAnLXRuJywgJzgnLCAnLW1hJywgJzIwMCcsICctbWV0YWxfYmluZGluZycsICctaW1hZScsICc8aW5maWxlLm1hZT4nLCAnLW9tYWUnLCAnPG91dGZpbGUubWFlPic=

> <r_lp_tautomer_probability>
0.839158

> <r_epik_Ionization_Penalty>
6.73882

> <r_epik_Ionization_Penalty_Charging>
8.02239e-08

> <r_epik_Ionization_Penalty_Neutral>
6.73882

> <r_epik_State_Penalty>
4.55873

> <r_epik_Charging_Adjusted_Penalty>
4.55873

> <i_epik_Tot_Q>
-1

> <i_epik_Tot_abs_Q>
1

> <r_epik_Metal_State_Penalty>
0.872514

> <b_epik_Metal_Only>
1

> <s_lp_Force_Field>
OPLS_2005

> <r_lp_Energy>
14.8033

> <b_lp_Chiralities_Consistent>
1

> <s_lp_Variant>
AV-unprocessed.smi:1072-5

> <Gold.Version>
5.8.1

> <Gold.Id.Protein>
6NUR|6NUR_protein|mol2

> <Gold.PLP.Fitness>
40.7902

> <Gold.PLP.PLP>
-30.6081

> <Gold.PLP.part.hbond>
-3.9748

> <Gold.PLP.part.metal>
0.0000

> <Gold.PLP.part.buried>
3.4451

> <Gold.PLP.part.nonpolar>
-30.3831

> <Gold.PLP.part.repulsive>
0.1443

> <Gold.PLP.ligand.clash>
0.0000

> <Gold.PLP.ligand.torsion>
0.3112

> <Gold.PLP.Chemscore.Hbond>
3.6000

> <Gold.PLP.Chemscore.CHOScore>
0.0000

> <Gold.PLP.Chemscore.Metal>
0.0000

> <Gold.Chemscore.Hbonds>
donor molecule, donor type, donor heavy atom, donor atom, acceptor molecule, acceptor atom, score
      L1  H    10    30       P1  7948  0.69
      P1  H  7989  7998       L1    20  0.72
      P1  H  7997  8008       L1    21  1.59

> <Gold.PLP.Chemscore.Internal.Correction>
0.0047

> <Gold.Rescore>
     Score         DG    S(hbond)    S(metal)    S(lipo)     H(rot)  DE(clash)    DE(int)     intcor
     17.41     -19.55       2.80        0.00      71.81       1.43       1.48       0.66       ----

> <Gold.Chemscore.Fitness>
17.4107

> <Gold.Chemscore.DG>
-19.5521

> <Gold.Chemscore.ZeroCoef>
-5.4800

> <Gold.Chemscore.Hbond>
2.7967

> <Gold.Chemscore.Metal>
0.0000

> <Gold.Chemscore.Lipo>
71.8117

> <Gold.Chemscore.Internal_Hbond>
0.0000

> <Gold.Chemscore.DEClash>
1.4821

> <Gold.Chemscore.DEInternal>
0.6593

> <Gold.Chemscore.Rot>
1.4339

> <Gold.Chemscore.Internal.Correction>
   9.000000E+99

> <Gold.Chemscore.Hbonds>
donor molecule, donor type, donor heavy atom, donor atom, acceptor molecule, acceptor atom, score
      L1  H    10    30       P1  7948  0.69
      P1  H  7989  7998       L1    20  0.68
      P1  H  7997  8008       L1    21  0.20

> <Gold.Chemscore.Hbond.Weighted>
-9.3409

> <Gold.Chemscore.Metal.Weighted>
-0.0000

> <Gold.Chemscore.Lipo.Weighted>
-8.4020

> <Gold.Chemscore.Internal_Hbond.Weighted>
0.0000

> <Gold.Chemscore.DEClash.Weighted>
1.4821

> <Gold.Chemscore.DEInternal.Weighted>
0.6593

> <Gold.Chemscore.Rot.Weighted>
3.6708

> <Gold.Chemscore.Internal.Correction.Weighted>
   9.000000E+99

> <Gold.Protein.RotatedTorsions>
[ 6907 6896 6895 6894 ] final   46.03 input  -60.11 | X-H torsion
[ 7974 7965 7964 7962 ] final  -67.96 input  175.53 | X-H torsion
[ 8008 7997 7996 7995 ] final  -60.07 input   59.86 | X-H torsion
[ 10167 10162 10161 10158 ] final  -68.94 input  -65.29 | X-H torsion
[ 10718 10713 10712 10709 ] final  -71.00 input   66.30 | X-H torsion
[ 10763 10752 10751 10750 ] final  -28.91 input  -60.55 | X-H torsion
[ 11005 11000 10999 10996 ] final   34.82 input  -57.11 | X-H torsion

> <Gold.Protein.ActiveResidues>
 VAL166  LYS551  ARG553  GLY616  TRP617  ASP618  TYR619  PRO620  LYS621  CYS622 
 ASP623  PHE694  ASN695  SER759  ASP760  ASP761  ALA762  ILE779  LEU786  VAL792 
 PHE793  MET794  SER795  GLU796  ALA797  LYS798  CYS799  TRP800  GLU811  SER814 

> <Gold.Protein.RotatedAtoms>
  152.2516  134.8127  160.0444 H   0  0  0  0  0  0  0  0  0  0  0  0  # atno 6907 bound_to 6896
  151.8805  133.3489  159.3773 H   0  0  0  0  0  0  0  0  0  0  0  0  # atno 6908 bound_to 6896
  150.7086  134.4950  159.5578 H   0  0  0  0  0  0  0  0  0  0  0  0  # atno 6909 bound_to 6896
  145.7226  140.9032  143.0622 H   0  0  0  0  0  0  0  0  0  0  0  0  # atno 7974 bound_to 7965
  154.4381  140.1048  156.6215 H   0  0  0  0  0  0  0  0  0  0  0  0  # atno 8008 bound_to 7997
  155.5702  140.3489  155.4495 H   0  0  0  0  0  0  0  0  0  0  0  0  # atno 8009 bound_to 7997
  156.0395  140.1279  157.0160 H   0  0  0  0  0  0  0  0  0  0  0  0  # atno 8010 bound_to 7997
  140.5469  143.2313  151.6985 H   0  0  0  0  0  0  0  0  0  0  0  0  # atno 10167 bound_to 10162
  156.0382  130.4342  150.2379 H   0  0  0  0  0  0  0  0  0  0  0  0  # atno 10718 bound_to 10713
  153.7561  135.6922  153.4935 H   0  0  0  0  0  0  0  0  0  0  0  0  # atno 10763 bound_to 10752
  153.1970  135.4450  155.0219 H   0  0  0  0  0  0  0  0  0  0  0  0  # atno 10764 bound_to 10752
  154.8170  135.3403  154.7079 H   0  0  0  0  0  0  0  0  0  0  0  0  # atno 10765 bound_to 10752
  140.2490  134.3326  155.7897 H   0  0  0  0  0  0  0  0  0  0  0  0  # atno 11005 bound_to 11000
  144.6913  139.9222  143.7468 LP  0  0  0  0  0  0  0  0  0  0  0  0  # atno 17320 bound_to 7965
  146.0612  139.3605  143.0580 LP  0  0  0  0  0  0  0  0  0  0  0  0  # atno 17321 bound_to 7965
  139.5011  144.3881  152.0308 LP  0  0  0  0  0  0  0  0  0  0  0  0  # atno 17342 bound_to 10162
  140.2994  144.3663  150.6064 LP  0  0  0  0  0  0  0  0  0  0  0  0  # atno 17343 bound_to 10162
  157.0476  131.0053  151.3264 LP  0  0  0  0  0  0  0  0  0  0  0  0  # atno 17370 bound_to 10713
  157.5164  130.7970  149.7760 LP  0  0  0  0  0  0  0  0  0  0  0  0  # atno 17371 bound_to 10713
  141.2203  133.7342  156.9006 LP  0  0  0  0  0  0  0  0  0  0  0  0  # atno 17394 bound_to 11000
  140.1577  134.9187  157.2675 LP  0  0  0  0  0  0  0  0  0  0  0  0  # atno 17395 bound_to 11000

$$$$
