AV-unprocessed.smi:1831|AV-procd|sdf|7457|dock6
  -GOLD-   22720 9143D 1   1.00000     0.00000
 Structure written by MMmdl.
 41 42  0  0  0  0  0  0  0  0  2 V2000
  151.7239  140.8851  157.0046 C   0  0  0  0  0  0  0  0  0  0  0  0
  151.1651  139.8555  156.0831 C   0  0  0  0  0  0  0  0  0  0  0  0
  150.9427  140.0885  154.7834 N   0  0  0  0  0  0  0  0  0  0  0  0
  150.4207  138.9804  154.1291 N   0  0  0  0  0  0  0  0  0  0  0  0
  150.2681  137.9404  154.9534 C   0  0  0  0  0  0  0  0  0  0  0  0
  149.7442  136.7367  154.4190 N   0  0  0  0  0  0  0  0  0  0  0  0
  149.4924  135.5876  155.0664 C   0  0  0  0  0  0  0  0  0  0  0  0
  149.6794  135.3908  156.2670 O   0  0  0  0  0  0  0  0  0  0  0  0
  148.9982  134.6588  154.2348 N   0  0  0  0  0  0  0  0  0  0  0  0
  148.6494  133.2903  154.6052 C   0  0  0  0  0  0  0  0  0  0  0  0
  148.2099  132.4469  153.3921 C   0  0  1  0  0  0  0  0  0  0  0  0
  147.0843  131.4643  153.7065 C   0  0  0  0  0  0  0  0  0  0  0  0
  146.4056  131.2001  152.3561 C   0  0  0  0  0  0  0  0  0  0  0  0
  146.8721  132.2519  151.4173 N   0  3  1  0  0  0  0  0  0  0  0  0
  145.8222  132.8179  150.5237 C   0  0  0  0  0  0  0  0  0  0  0  0
  144.4902  132.9986  151.2762 C   0  0  0  0  0  0  0  0  0  0  0  0
  145.5945  131.9362  149.2806 C   0  0  0  0  0  0  0  0  0  0  0  0
  147.6199  133.2399  152.2249 C   0  0  0  0  0  0  0  0  0  0  0  0
  150.7517  138.2336  156.6240 S   0  0  0  0  0  0  0  0  0  0  0  0
  151.6942  141.8722  156.5421 H   0  0  0  0  0  0  0  0  0  0  0  0
  152.7585  140.6432  157.2481 H   0  0  0  0  0  0  0  0  0  0  0  0
  151.1441  140.9154  157.9272 H   0  0  0  0  0  0  0  0  0  0  0  0
  149.5468  136.7523  153.4291 H   0  0  0  0  0  0  0  0  0  0  0  0
  148.8789  134.9090  153.2638 H   0  0  0  0  0  0  0  0  0  0  0  0
  149.5328  132.8392  155.0579 H   0  0  0  0  0  0  0  0  0  0  0  0
  147.8786  133.2870  155.3779 H   0  0  0  0  0  0  0  0  0  0  0  0
  149.0652  131.8769  153.0242 H   0  0  0  0  0  0  0  0  0  0  0  0
  147.4464  130.5507  154.1792 H   0  0  0  0  0  0  0  0  0  0  0  0
  146.3663  131.9245  154.3871 H   0  0  0  0  0  0  0  0  0  0  0  0
  146.6858  130.2242  151.9586 H   0  0  0  0  0  0  0  0  0  0  0  0
  145.3219  131.2094  152.4806 H   0  0  0  0  0  0  0  0  0  0  0  0
  146.1595  133.7981  150.1832 H   0  0  0  0  0  0  0  0  0  0  0  0
  143.7205  133.3983  150.6151 H   0  0  0  0  0  0  0  0  0  0  0  0
  144.5792  133.6923  152.1119 H   0  0  0  0  0  0  0  0  0  0  0  0
  144.1256  132.0489  151.6693 H   0  0  0  0  0  0  0  0  0  0  0  0
  144.7920  132.3368  148.6605 H   0  0  0  0  0  0  0  0  0  0  0  0
  145.3182  130.9188  149.5597 H   0  0  0  0  0  0  0  0  0  0  0  0
  146.4809  131.8818  148.6485 H   0  0  0  0  0  0  0  0  0  0  0  0
  146.9320  133.9994  152.6008 H   0  0  0  0  0  0  0  0  0  0  0  0
  148.3903  133.7380  151.6354 H   0  0  0  0  0  0  0  0  0  0  0  0
  147.5578  131.8086  150.8228 H   0  0  0  0  0  0  0  0  0  0  0  0
  1  2  1  0  0  0  0
  1 20  1  0  0  0  0
  1 21  1  0  0  0  0
  1 22  1  0  0  0  0
  2 19  1  0  0  0  0
  2  3  2  0  0  0  0
  3  4  1  0  0  0  0
  4  5  2  0  0  0  0
  5  6  1  0  0  0  0
  5 19  1  0  0  0  0
  6  7  1  0  0  0  0
  6 23  1  0  0  0  0
  7  8  2  0  0  0  0
  7  9  1  0  0  0  0
  9 10  1  0  0  0  0
  9 24  1  0  0  0  0
 10 11  1  0  0  0  0
 10 25  1  0  0  0  0
 10 26  1  0  0  0  0
 11 18  1  0  0  0  0
 11 12  1  0  0  0  0
 11 27  1  0  0  0  0
 12 13  1  0  0  0  0
 12 28  1  0  0  0  0
 12 29  1  0  0  0  0
 13 14  1  0  0  0  0
 13 30  1  0  0  0  0
 13 31  1  0  0  0  0
 14 15  1  0  0  0  0
 14 18  1  0  0  0  0
 14 41  1  0  0  0  0
 15 16  1  0  0  0  0
 15 17  1  0  0  0  0
 15 32  1  0  0  0  0
 16 33  1  0  0  0  0
 16 34  1  0  0  0  0
 16 35  1  0  0  0  0
 17 36  1  0  0  0  0
 17 37  1  0  0  0  0
 17 38  1  0  0  0  0
 18 39  1  0  0  0  0
 18 40  1  0  0  0  0
M  CHG  1  14   1
M  END
> <s_m_source_file>
AV-unprocessed.smi

> <i_m_source_file_index>
1831

> <i_lp_mmshare_version>
43012

> <i_f3d_flags>
0

> <s_epik_input>
W0NIM11jMW5uYyhzMSlbTkhdQyg9TylbTkhdW0NIMl1bQ0BASF0yW0NIMl1bQ0gyXU4oW0NIMl0yKVtDSF0oW0NIM10pW0NIM10=

> <s_epik_cmdline>
J2VwaWtfcHl0aG9uJywgJy1waCcsICc3LjAnLCAnLXRuJywgJzgnLCAnLW1hJywgJzIwMCcsICctbWV0YWxfYmluZGluZycsICctaW1hZScsICc8aW5maWxlLm1hZT4nLCAnLW9tYWUnLCAnPG91dGZpbGUubWFlPic=

> <r_lp_tautomer_probability>
1

> <r_epik_Ionization_Penalty>
0.00080807

> <r_epik_Ionization_Penalty_Charging>
0.000218981

> <r_epik_Ionization_Penalty_Neutral>
0.00058909

> <r_epik_State_Penalty>
-0

> <r_epik_Charging_Adjusted_Penalty>
0.000218981

> <i_epik_Tot_Q>
1

> <i_epik_Tot_abs_Q>
1

> <r_epik_Metal_State_Penalty>
0.236062

> <b_epik_Metal_Only>
0

> <s_lp_Force_Field>
OPLS_2005

> <r_lp_Energy>
27.4223

> <b_lp_Chiralities_Consistent>
1

> <s_lp_Variant>
AV-unprocessed.smi:1831-2

> <Gold.Version>
5.8.1

> <Gold.Id.Protein>
6NUR|6NUR_protein|mol2

> <Gold.PLP.Fitness>
42.1251

> <Gold.PLP.PLP>
-32.3049

> <Gold.PLP.part.hbond>
-4.4121

> <Gold.PLP.part.metal>
0.0000

> <Gold.PLP.part.buried>
-4.4602

> <Gold.PLP.part.nonpolar>
-23.2519

> <Gold.PLP.part.repulsive>
0.3761

> <Gold.PLP.ligand.clash>
0.0000

> <Gold.PLP.ligand.torsion>
1.0259

> <Gold.PLP.Chemscore.Hbond>
3.9500

> <Gold.PLP.Chemscore.CHOScore>
0.0000

> <Gold.PLP.Chemscore.Metal>
0.0000

> <Gold.Chemscore.Hbonds>
donor molecule, donor type, donor heavy atom, donor atom, acceptor molecule, acceptor atom, score
      L1  H     6    23       P1  7948  1.00
      L1  H     9    24       P1  7948  1.00
      L1  H    14    41       P1 10747  1.00
      P1  H  7989  7998       L1     3  1.00

> <Gold.PLP.Chemscore.Internal.Correction>
0.0219

> <Gold.Rescore>
     Score         DG    S(hbond)    S(metal)    S(lipo)     H(rot)  DE(clash)    DE(int)     intcor
     18.39     -20.11       3.08        0.00      70.80       1.54       0.11       1.61       ----

> <Gold.Chemscore.Fitness>
18.3873

> <Gold.Chemscore.DG>
-20.1136

> <Gold.Chemscore.ZeroCoef>
-5.4800

> <Gold.Chemscore.Hbond>
3.0811

> <Gold.Chemscore.Metal>
0.0000

> <Gold.Chemscore.Lipo>
70.8035

> <Gold.Chemscore.Internal_Hbond>
0.0000

> <Gold.Chemscore.DEClash>
0.1142

> <Gold.Chemscore.DEInternal>
1.6122

> <Gold.Chemscore.Rot>
1.5396

> <Gold.Chemscore.Internal.Correction>
   9.000000E+99

> <Gold.Chemscore.Hbonds>
donor molecule, donor type, donor heavy atom, donor atom, acceptor molecule, acceptor atom, score
      L1  H     6    23       P1  7948  0.74
      L1  H     9    24       P1  7948  0.29
      L1  H    14    41       P1 10747  1.00
      P1  H  7989  7998       L1     3  0.26

> <Gold.Chemscore.Hbond.Weighted>
-10.2909

> <Gold.Chemscore.Metal.Weighted>
-0.0000

> <Gold.Chemscore.Lipo.Weighted>
-8.2840

> <Gold.Chemscore.Internal_Hbond.Weighted>
0.0000

> <Gold.Chemscore.DEClash.Weighted>
0.1142

> <Gold.Chemscore.DEInternal.Weighted>
1.6122

> <Gold.Chemscore.Rot.Weighted>
3.9413

> <Gold.Chemscore.Internal.Correction.Weighted>
   9.000000E+99

> <Gold.Protein.RotatedTorsions>
[ 6907 6896 6895 6894 ] final -174.89 input  -60.11 | X-H torsion
[ 7974 7965 7964 7962 ] final -107.00 input  175.53 | X-H torsion
[ 8008 7997 7996 7995 ] final  177.74 input   59.86 | X-H torsion
[ 10167 10162 10161 10158 ] final  -37.94 input  -65.29 | X-H torsion
[ 10718 10713 10712 10709 ] final  118.83 input   66.30 | X-H torsion
[ 10763 10752 10751 10750 ] final   97.58 input  -60.55 | X-H torsion
[ 11005 11000 10999 10996 ] final -163.29 input  -57.11 | X-H torsion

> <Gold.Protein.ActiveResidues>
 VAL166  LYS551  ARG553  GLY616  TRP617  ASP618  TYR619  PRO620  LYS621  CYS622 
 ASP623  PHE694  ASN695  SER759  ASP760  ASP761  ALA762  ILE779  LEU786  VAL792 
 PHE793  MET794  SER795  GLU796  ALA797  LYS798  CYS799  TRP800  GLU811  SER814 

> <Gold.Protein.RotatedAtoms>
  151.5797  133.3379  159.3005 H   0  0  0  0  0  0  0  0  0  0  0  0  # atno 6907 bound_to 6896
  150.8320  134.7581  159.6873 H   0  0  0  0  0  0  0  0  0  0  0  0  # atno 6908 bound_to 6896
  152.4403  134.5611  159.9946 H   0  0  0  0  0  0  0  0  0  0  0  0  # atno 6909 bound_to 6896
  145.2108  140.9095  143.3316 H   0  0  0  0  0  0  0  0  0  0  0  0  # atno 7974 bound_to 7965
  156.0623  140.1351  156.9926 H   0  0  0  0  0  0  0  0  0  0  0  0  # atno 8008 bound_to 7997
  154.4488  140.0989  156.6606 H   0  0  0  0  0  0  0  0  0  0  0  0  # atno 8009 bound_to 7997
  155.5358  140.3459  155.4438 H   0  0  0  0  0  0  0  0  0  0  0  0  # atno 8010 bound_to 7997
  140.7105  143.3309  151.2571 H   0  0  0  0  0  0  0  0  0  0  0  0  # atno 10167 bound_to 10162
  157.6003  131.1052  150.7811 H   0  0  0  0  0  0  0  0  0  0  0  0  # atno 10718 bound_to 10713
  153.2787  135.4178  155.1057 H   0  0  0  0  0  0  0  0  0  0  0  0  # atno 10763 bound_to 10752
  154.8482  135.3490  154.6143 H   0  0  0  0  0  0  0  0  0  0  0  0  # atno 10764 bound_to 10752
  153.6563  135.7050  153.5250 H   0  0  0  0  0  0  0  0  0  0  0  0  # atno 10765 bound_to 10752
  140.5998  134.4959  157.5203 H   0  0  0  0  0  0  0  0  0  0  0  0  # atno 11005 bound_to 11000
  144.9858  139.3738  143.6239 LP  0  0  0  0  0  0  0  0  0  0  0  0  # atno 17320 bound_to 7965
  146.3398  139.9019  142.8793 LP  0  0  0  0  0  0  0  0  0  0  0  0  # atno 17321 bound_to 7965
  139.6791  143.9886  152.2798 LP  0  0  0  0  0  0  0  0  0  0  0  0  # atno 17342 bound_to 10162
  139.9510  144.6620  150.8172 LP  0  0  0  0  0  0  0  0  0  0  0  0  # atno 17343 bound_to 10162
  156.8211  130.4984  149.5343 LP  0  0  0  0  0  0  0  0  0  0  0  0  # atno 17370 bound_to 10713
  156.1075  130.6016  150.9995 LP  0  0  0  0  0  0  0  0  0  0  0  0  # atno 17371 bound_to 10713
  139.9237  134.8097  156.1132 LP  0  0  0  0  0  0  0  0  0  0  0  0  # atno 17394 bound_to 11000
  141.0880  133.6726  156.2478 LP  0  0  0  0  0  0  0  0  0  0  0  0  # atno 17395 bound_to 11000

$$$$
