AV-unprocessed.smi:113|AV-procd|sdf|1102|dock2
  -GOLD-   2262018213D 1   1.00000     0.00000
 Structure written by MMmdl.
 53 56  0  0  0  0  0  0  0  0  2 V2000
  148.8331  132.7781  156.9099 C   0  0  0  0  0  0  0  0  0  0  0  0
  148.4584  133.5920  158.1302 C   0  0  0  0  0  0  0  0  0  0  0  0
  148.7521  134.9654  158.2363 C   0  0  0  0  0  0  0  0  0  0  0  0
  148.3760  135.6813  159.4002 C   0  0  0  0  0  0  0  0  0  0  0  0
  148.6799  137.1767  159.5437 C   0  0  0  0  0  0  0  0  0  0  0  0
  149.2695  137.8432  158.3913 N   0  0  0  0  0  0  0  0  0  0  0  0
  150.6033  137.5135  158.0460 C   0  0  0  0  0  0  0  0  0  0  0  0
  151.2501  136.6867  158.6925 O   0  0  0  0  0  0  0  0  0  0  0  0
  151.1475  138.2415  156.8965 C   0  0  0  0  0  0  0  0  0  0  0  0
  152.5757  137.9428  156.4692 C   0  0  0  0  0  0  0  0  0  0  0  0
  150.3805  139.1559  156.2558 C   0  0  0  0  0  0  0  0  0  0  0  0
  149.0784  139.4567  156.6171 N   0  0  0  0  0  0  0  0  0  0  0  0
  148.2916  140.5022  155.8660 C   0  0  1  0  0  0  0  0  0  0  0  0
  149.1667  141.2091  154.8395 C   0  0  0  0  0  0  0  0  0  0  0  0
  148.1374  141.6308  153.8097 C   0  0  2  0  0  0  0  0  0  0  0  0
  147.6241  142.9115  154.1227 O   0  0  0  0  0  0  0  0  0  0  0  0
  147.0286  140.5668  153.9335 C   0  0  1  0  0  0  0  0  0  0  0  0
  147.0555  139.5212  152.8073 C   0  0  0  0  0  0  0  0  0  0  0  0
  148.2394  138.7552  152.8751 O   0  0  0  0  0  0  0  0  0  0  0  0
  147.2677  139.8771  155.1605 O   0  0  0  0  0  0  0  0  0  0  0  0
  148.4898  138.8139  157.7238 C   0  0  0  0  0  0  0  0  0  0  0  0
  147.3531  139.1079  158.1015 O   0  0  0  0  0  0  0  0  0  0  0  0
  147.7056  134.9766  160.4377 C   0  0  0  0  0  0  0  0  0  0  0  0
  147.2956  135.6086  161.6362 C   0  0  0  0  0  0  0  0  0  0  0  0
  146.6343  134.8762  162.6415 C   0  0  0  0  0  0  0  0  0  0  0  0
  146.3720  133.5048  162.4647 C   0  0  0  0  0  0  0  0  0  0  0  0
  146.7720  132.8607  161.2792 C   0  0  0  0  0  0  0  0  0  0  0  0
  147.4347  133.5913  160.2729 C   0  0  0  0  0  0  0  0  0  0  0  0
  147.8176  132.9672  159.1390 N   0  3  0  0  0  0  0  0  0  0  0  0
  149.5950  133.2879  156.3194 H   0  0  0  0  0  0  0  0  0  0  0  0
  147.9585  132.6208  156.2784 H   0  0  0  0  0  0  0  0  0  0  0  0
  149.2275  131.8043  157.2022 H   0  0  0  0  0  0  0  0  0  0  0  0
  149.2638  135.4533  157.4202 H   0  0  0  0  0  0  0  0  0  0  0  0
  147.7717  137.7220  159.8054 H   0  0  0  0  0  0  0  0  0  0  0  0
  149.3473  137.3450  160.3904 H   0  0  0  0  0  0  0  0  0  0  0  0
  152.8712  138.5329  155.6010 H   0  0  0  0  0  0  0  0  0  0  0  0
  152.6836  136.8896  156.2074 H   0  0  0  0  0  0  0  0  0  0  0  0
  153.2715  138.1682  157.2783 H   0  0  0  0  0  0  0  0  0  0  0  0
  150.8151  139.6869  155.4209 H   0  0  0  0  0  0  0  0  0  0  0  0
  147.8409  141.1782  156.5940 H   0  0  0  0  0  0  0  0  0  0  0  0
  149.7320  142.0274  155.2870 H   0  0  0  0  0  0  0  0  0  0  0  0
  149.8626  140.4928  154.4003 H   0  0  0  0  0  0  0  0  0  0  0  0
  148.5696  141.6749  152.8093 H   0  0  0  0  0  0  0  0  0  0  0  0
  148.2271  143.3450  154.7070 H   0  0  0  0  0  0  0  0  0  0  0  0
  146.0398  141.0267  153.9810 H   0  0  0  0  0  0  0  0  0  0  0  0
  146.1871  138.8641  152.8620 H   0  0  0  0  0  0  0  0  0  0  0  0
  147.0260  140.0154  151.8361 H   0  0  0  0  0  0  0  0  0  0  0  0
  148.8152  139.0274  152.1769 H   0  0  0  0  0  0  0  0  0  0  0  0
  147.4794  136.6584  161.8079 H   0  0  0  0  0  0  0  0  0  0  0  0
  146.3267  135.3693  163.5523 H   0  0  0  0  0  0  0  0  0  0  0  0
  145.8641  132.9478  163.2386 H   0  0  0  0  0  0  0  0  0  0  0  0
  146.5680  131.8076  161.1491 H   0  0  0  0  0  0  0  0  0  0  0  0
  147.6128  131.9730  159.0405 H   0  0  0  0  0  0  0  0  0  0  0  0
  1  2  1  0  0  0  0
  1 30  1  0  0  0  0
  1 31  1  0  0  0  0
  1 32  1  0  0  0  0
  2 29  1  0  0  0  0
  2  3  2  0  0  0  0
  3  4  1  0  0  0  0
  3 33  1  0  0  0  0
  4  5  1  0  0  0  0
  4 23  2  0  0  0  0
  5  6  1  0  0  0  0
  5 34  1  0  0  0  0
  5 35  1  0  0  0  0
  6 21  1  0  0  0  0
  6  7  1  0  0  0  0
  7  8  2  0  0  0  0
  7  9  1  0  0  0  0
  9 10  1  0  0  0  0
  9 11  2  0  0  0  0
 10 36  1  0  0  0  0
 10 37  1  0  0  0  0
 10 38  1  0  0  0  0
 11 12  1  0  0  0  0
 11 39  1  0  0  0  0
 12 13  1  0  0  0  0
 12 21  1  0  0  0  0
 13 20  1  0  0  0  0
 13 14  1  0  0  0  0
 13 40  1  0  0  0  0
 14 15  1  0  0  0  0
 14 41  1  0  0  0  0
 14 42  1  0  0  0  0
 15 16  1  0  0  0  0
 15 17  1  0  0  0  0
 15 43  1  0  0  0  0
 16 44  1  0  0  0  0
 17 18  1  0  0  0  0
 17 20  1  0  0  0  0
 17 45  1  0  0  0  0
 18 19  1  0  0  0  0
 18 46  1  0  0  0  0
 18 47  1  0  0  0  0
 19 48  1  0  0  0  0
 21 22  2  0  0  0  0
 23 28  1  0  0  0  0
 23 24  1  0  0  0  0
 24 25  2  0  0  0  0
 24 49  1  0  0  0  0
 25 26  1  0  0  0  0
 25 50  1  0  0  0  0
 26 27  2  0  0  0  0
 26 51  1  0  0  0  0
 27 28  1  0  0  0  0
 27 52  1  0  0  0  0
 28 29  2  0  0  0  0
 29 53  1  0  0  0  0
M  CHG  1  29   1
M  END
> <s_m_source_file>
AV-unprocessed.smi

> <i_m_source_file_index>
113

> <i_lp_mmshare_version>
43012

> <i_f3d_flags>
0

> <s_epik_input>
W2NIXTFbY0hdW2NIXVtjSF1jKGMxMiluYyhbQ0gzXSlbY0hdYzJbQ0gyXW4zYyg9TyljKFtDSDNdKVtjSF1uKGMzPU8pW0NAQEhdNFtDSDJdW0NAQEhdKFtPSF0pW0NASF0oTzQpW0NIMl1bT0hd

> <s_epik_cmdline>
J2VwaWtfcHl0aG9uJywgJy1waCcsICc3LjAnLCAnLXRuJywgJzgnLCAnLW1hJywgJzIwMCcsICctbWV0YWxfYmluZGluZycsICctaW1hZScsICc8aW5maWxlLm1hZT4nLCAnLW9tYWUnLCAnPG91dGZpbGUubWFlPic=

> <r_lp_tautomer_probability>
1

> <r_epik_Ionization_Penalty>
0.705471

> <r_epik_Ionization_Penalty_Charging>
0.70547

> <r_epik_Ionization_Penalty_Neutral>
1.19947e-07

> <r_epik_State_Penalty>
0.728574

> <r_epik_Charging_Adjusted_Penalty>
1.43404

> <i_epik_Tot_Q>
1

> <i_epik_Tot_abs_Q>
1

> <r_epik_Metal_State_Penalty>
4.61665

> <b_epik_Metal_Only>
0

> <s_epik_Chemistry_Notes>
This compound contains an acetal/aminal-like group ( X-CH(R)-Y where X, Y are N, S, or O) that may be acid/base labile, releasing an aldehyde.

> <s_lp_Force_Field>
OPLS_2005

> <r_lp_Energy>
43.7755

> <b_lp_Chiralities_Consistent>
1

> <s_lp_Variant>
AV-unprocessed.smi:113-12

> <Gold.Version>
5.8.1

> <Gold.Id.Protein>
6NUR|6NUR_protein|mol2

> <Gold.PLP.Fitness>
48.1979

> <Gold.PLP.PLP>
-40.1323

> <Gold.PLP.part.hbond>
-6.6736

> <Gold.PLP.part.metal>
0.0000

> <Gold.PLP.part.buried>
-2.6374

> <Gold.PLP.part.nonpolar>
-31.4896

> <Gold.PLP.part.repulsive>
0.0980

> <Gold.PLP.ligand.clash>
0.0000

> <Gold.PLP.ligand.torsion>
0.2520

> <Gold.PLP.Chemscore.Hbond>
2.8480

> <Gold.PLP.Chemscore.CHOScore>
0.0000

> <Gold.PLP.Chemscore.Metal>
0.0000

> <Gold.Chemscore.Hbonds>
donor molecule, donor type, donor heavy atom, donor atom, acceptor molecule, acceptor atom, score
      L1  H    16    44       P1  8028  1.00
      L1  H    19    48       P1  7957  1.00
      P1  H  6896  6908       L1     8  0.86

> <Gold.PLP.Chemscore.Internal.Correction>
0.0255

> <Gold.Rescore>
     Score         DG    S(hbond)    S(metal)    S(lipo)     H(rot)  DE(clash)    DE(int)     intcor
     17.95     -19.11       2.79        0.00     102.76       3.01       0.09       1.07       ----

> <Gold.Chemscore.Fitness>
17.9535

> <Gold.Chemscore.DG>
-19.1120

> <Gold.Chemscore.ZeroCoef>
-5.4800

> <Gold.Chemscore.Hbond>
2.7903

> <Gold.Chemscore.Metal>
0.0000

> <Gold.Chemscore.Lipo>
102.7613

> <Gold.Chemscore.Internal_Hbond>
0.0000

> <Gold.Chemscore.DEClash>
0.0884

> <Gold.Chemscore.DEInternal>
1.0702

> <Gold.Chemscore.Rot>
3.0120

> <Gold.Chemscore.Internal.Correction>
   9.000000E+99

> <Gold.Chemscore.Hbonds>
donor molecule, donor type, donor heavy atom, donor atom, acceptor molecule, acceptor atom, score
      L1  H    16    44       P1  8028  0.94
      L1  H    19    48       P1  7957  0.97
      P1  H  6896  6908       L1     8  0.84

> <Gold.Chemscore.Hbond.Weighted>
-9.3197

> <Gold.Chemscore.Metal.Weighted>
-0.0000

> <Gold.Chemscore.Lipo.Weighted>
-12.0231

> <Gold.Chemscore.Internal_Hbond.Weighted>
0.0000

> <Gold.Chemscore.DEClash.Weighted>
0.0884

> <Gold.Chemscore.DEInternal.Weighted>
1.0702

> <Gold.Chemscore.Rot.Weighted>
7.7108

> <Gold.Chemscore.Internal.Correction.Weighted>
   9.000000E+99

> <Gold.Protein.RotatedTorsions>
[ 6907 6896 6895 6894 ] final -142.84 input  -60.11 | X-H torsion
[ 7974 7965 7964 7962 ] final   95.54 input  175.53 | X-H torsion
[ 8008 7997 7996 7995 ] final  114.40 input   59.86 | X-H torsion
[ 10167 10162 10161 10158 ] final -102.36 input  -65.29 | X-H torsion
[ 10718 10713 10712 10709 ] final -122.68 input   66.30 | X-H torsion
[ 10763 10752 10751 10750 ] final  -76.88 input  -60.55 | X-H torsion
[ 11005 11000 10999 10996 ] final   47.98 input  -57.11 | X-H torsion

> <Gold.Protein.ActiveResidues>
 VAL166  LYS551  ARG553  GLY616  TRP617  ASP618  TYR619  PRO620  LYS621  CYS622 
 ASP623  PHE694  ASN695  SER759  ASP760  ASP761  ALA762  ILE779  LEU786  VAL792 
 PHE793  MET794  SER795  GLU796  ALA797  LYS798  CYS799  TRP800  GLU811  SER814 

> <Gold.Protein.RotatedAtoms>
  151.0925  133.5305  159.2613 H   0  0  0  0  0  0  0  0  0  0  0  0  # atno 6907 bound_to 6896
  151.2167  135.0502  159.8943 H   0  0  0  0  0  0  0  0  0  0  0  0  # atno 6908 bound_to 6896
  152.5435  134.0733  159.8257 H   0  0  0  0  0  0  0  0  0  0  0  0  # atno 6909 bound_to 6896
  145.4509  139.2293  143.3040 H   0  0  0  0  0  0  0  0  0  0  0  0  # atno 7974 bound_to 7965
  156.2319  140.2960  156.0210 H   0  0  0  0  0  0  0  0  0  0  0  0  # atno 8008 bound_to 7997
  155.2202  140.0415  157.2964 H   0  0  0  0  0  0  0  0  0  0  0  0  # atno 8009 bound_to 7997
  154.6010  140.2427  155.7800 H   0  0  0  0  0  0  0  0  0  0  0  0  # atno 8010 bound_to 7997
  140.2315  143.3603  152.0883 H   0  0  0  0  0  0  0  0  0  0  0  0  # atno 10167 bound_to 10162
  156.1439  130.6486  150.9812 H   0  0  0  0  0  0  0  0  0  0  0  0  # atno 10718 bound_to 10713
  154.5057  135.5782  153.6565 H   0  0  0  0  0  0  0  0  0  0  0  0  # atno 10763 bound_to 10752
  152.9887  135.6146  154.2945 H   0  0  0  0  0  0  0  0  0  0  0  0  # atno 10764 bound_to 10752
  154.2855  135.2850  155.2657 H   0  0  0  0  0  0  0  0  0  0  0  0  # atno 10765 bound_to 10752
  140.1231  134.4803  155.8581 H   0  0  0  0  0  0  0  0  0  0  0  0  # atno 11005 bound_to 11000
  146.2505  140.5268  142.8895 LP  0  0  0  0  0  0  0  0  0  0  0  0  # atno 17320 bound_to 7965
  144.8062  140.6304  143.6445 LP  0  0  0  0  0  0  0  0  0  0  0  0  # atno 17321 bound_to 7965
  139.5108  144.6891  151.5808 LP  0  0  0  0  0  0  0  0  0  0  0  0  # atno 17342 bound_to 10162
  140.6182  143.9309  150.6505 LP  0  0  0  0  0  0  0  0  0  0  0  0  # atno 17343 bound_to 10162
  157.6599  131.0882  150.7861 LP  0  0  0  0  0  0  0  0  0  0  0  0  # atno 17370 bound_to 10713
  156.7934  130.4897  149.5381 LP  0  0  0  0  0  0  0  0  0  0  0  0  # atno 17371 bound_to 10713
  141.2156  133.6768  156.6927 LP  0  0  0  0  0  0  0  0  0  0  0  0  # atno 17394 bound_to 11000
  140.2939  134.8219  157.4040 LP  0  0  0  0  0  0  0  0  0  0  0  0  # atno 17395 bound_to 11000

$$$$
