AV-unprocessed.smi:467|AV-procd|sdf|2647|dock8
  -GOLD-   2262023 53D 1   1.00000     0.00000
 Structure written by MMmdl.
 45 47  0  0  0  0  0  0  0  0  2 V2000
  152.1265  144.9792  160.0694 C   0  0  0  0  0  0  0  0  0  0  0  0
  151.9424  143.7236  159.2342 C   0  0  0  0  0  0  0  0  0  0  0  0
  151.1220  143.7922  158.0857 C   0  0  0  0  0  0  0  0  0  0  0  0
  150.9692  142.6264  157.3449 C   0  0  0  0  0  0  0  0  0  0  0  0
  150.2360  142.3720  156.1841 N   0  3  0  0  0  0  0  0  0  0  0  0
  150.3890  141.0670  155.8274 C   0  0  0  0  0  0  0  0  0  0  0  0
  151.2110  140.4844  156.7417 N   0  0  0  0  0  0  0  0  0  0  0  0
  151.6875  139.0959  156.8169 C   0  0  0  0  0  0  0  0  0  0  0  0
  152.2642  138.5907  155.4781 C   0  0  2  0  0  0  0  0  0  0  0  0
  153.3165  139.4390  155.0659 O   0  0  0  0  0  0  0  0  0  0  0  0
  151.2140  138.5645  154.3496 C   0  0  0  0  0  0  0  0  0  0  0  0
  150.2045  137.5102  154.4525 N   0  0  0  0  0  0  0  0  0  0  0  0
  149.1064  137.8667  155.3494 C   0  0  0  0  0  0  0  0  0  0  0  0
  148.0730  136.7331  155.4735 C   0  0  0  0  0  0  0  0  0  0  0  0
  148.7180  135.5401  155.9062 O   0  0  0  0  0  0  0  0  0  0  0  0
  149.7616  135.1327  155.0281 C   0  0  0  0  0  0  0  0  0  0  0  0
  150.8019  136.2598  154.9102 C   0  0  0  0  0  0  0  0  0  0  0  0
  151.5999  141.4203  157.7080 C   0  0  0  0  0  0  0  0  0  0  0  0
  152.4141  141.3368  158.8355 C   0  0  0  0  0  0  0  0  0  0  0  0
  152.5809  142.5115  159.6035 C   0  0  0  0  0  0  0  0  0  0  0  0
  153.4606  142.4488  160.8406 C   0  0  0  0  0  0  0  0  0  0  0  0
  151.5362  145.8086  159.6786 H   0  0  0  0  0  0  0  0  0  0  0  0
  153.1728  145.2859  160.0727 H   0  0  0  0  0  0  0  0  0  0  0  0
  151.8127  144.8052  161.0989 H   0  0  0  0  0  0  0  0  0  0  0  0
  150.6326  144.7112  157.7979 H   0  0  0  0  0  0  0  0  0  0  0  0
  149.9383  140.5811  154.9739 H   0  0  0  0  0  0  0  0  0  0  0  0
  152.4595  139.0709  157.5868 H   0  0  0  0  0  0  0  0  0  0  0  0
  150.8829  138.4528  157.1741 H   0  0  0  0  0  0  0  0  0  0  0  0
  152.6981  137.6007  155.6165 H   0  0  0  0  0  0  0  0  0  0  0  0
  152.9562  140.1198  154.5188 H   0  0  0  0  0  0  0  0  0  0  0  0
  150.7134  139.5338  154.3370 H   0  0  0  0  0  0  0  0  0  0  0  0
  151.7206  138.4808  153.3865 H   0  0  0  0  0  0  0  0  0  0  0  0
  149.4993  138.1062  156.3387 H   0  0  0  0  0  0  0  0  0  0  0  0
  148.5962  138.7594  154.9901 H   0  0  0  0  0  0  0  0  0  0  0  0
  147.3000  137.0020  156.1934 H   0  0  0  0  0  0  0  0  0  0  0  0
  147.5753  136.5591  154.5182 H   0  0  0  0  0  0  0  0  0  0  0  0
  150.2254  134.2278  155.4213 H   0  0  0  0  0  0  0  0  0  0  0  0
  149.3481  134.8833  154.0496 H   0  0  0  0  0  0  0  0  0  0  0  0
  151.5884  135.9509  154.2207 H   0  0  0  0  0  0  0  0  0  0  0  0
  151.2792  136.4104  155.8800 H   0  0  0  0  0  0  0  0  0  0  0  0
  152.8976  140.4147  159.1210 H   0  0  0  0  0  0  0  0  0  0  0  0
  153.8926  141.4564  160.9733 H   0  0  0  0  0  0  0  0  0  0  0  0
  152.8809  142.6814  161.7343 H   0  0  0  0  0  0  0  0  0  0  0  0
  154.2819  143.1617  160.7644 H   0  0  0  0  0  0  0  0  0  0  0  0
  149.6706  143.0374  155.6724 H   0  0  0  0  0  0  0  0  0  0  0  0
  1  2  1  0  0  0  0
  1 22  1  0  0  0  0
  1 23  1  0  0  0  0
  1 24  1  0  0  0  0
  2 20  1  0  0  0  0
  2  3  2  0  0  0  0
  3  4  1  0  0  0  0
  3 25  1  0  0  0  0
  4 18  2  0  0  0  0
  4  5  1  0  0  0  0
  5  6  2  0  0  0  0
  5 45  1  0  0  0  0
  6  7  1  0  0  0  0
  6 26  1  0  0  0  0
  7  8  1  0  0  0  0
  7 18  1  0  0  0  0
  8  9  1  0  0  0  0
  8 27  1  0  0  0  0
  8 28  1  0  0  0  0
  9 10  1  0  0  0  0
  9 11  1  0  0  0  0
  9 29  1  0  0  0  0
 10 30  1  0  0  0  0
 11 12  1  0  0  0  0
 11 31  1  0  0  0  0
 11 32  1  0  0  0  0
 12 17  1  0  0  0  0
 12 13  1  0  0  0  0
 13 14  1  0  0  0  0
 13 33  1  0  0  0  0
 13 34  1  0  0  0  0
 14 15  1  0  0  0  0
 14 35  1  0  0  0  0
 14 36  1  0  0  0  0
 15 16  1  0  0  0  0
 16 17  1  0  0  0  0
 16 37  1  0  0  0  0
 16 38  1  0  0  0  0
 17 39  1  0  0  0  0
 17 40  1  0  0  0  0
 18 19  1  0  0  0  0
 19 20  2  0  0  0  0
 19 41  1  0  0  0  0
 20 21  1  0  0  0  0
 21 42  1  0  0  0  0
 21 43  1  0  0  0  0
 21 44  1  0  0  0  0
M  CHG  1   5   1
M  END
> <s_m_source_file>
AV-unprocessed.smi

> <i_m_source_file_index>
467

> <i_lp_mmshare_version>
43012

> <i_f3d_flags>
0

> <s_epik_input>
W0NIM11jKFtjSF0xKWMoW0NIM10pW2NIXWMoYzEyKW4oW2NIXW4yKVtDSDJdW0NASF0oW09IXSlbQ0gyXU4zW0NIMl1bQ0gyXU9bQ0gyXVtDSDJdMw==

> <s_epik_cmdline>
J2VwaWtfcHl0aG9uJywgJy1waCcsICc3LjAnLCAnLXRuJywgJzgnLCAnLW1hJywgJzIwMCcsICctbWV0YWxfYmluZGluZycsICctaW1hZScsICc8aW5maWxlLm1hZT4nLCAnLW9tYWUnLCAnPG91dGZpbGUubWFlPic=

> <r_epik_Ionization_Penalty>
1.42557

> <r_epik_Ionization_Penalty_Charging>
1.21121

> <r_epik_Ionization_Penalty_Neutral>
0.214359

> <r_epik_State_Penalty>
1.47019

> <r_epik_Charging_Adjusted_Penalty>
2.68141

> <i_epik_Tot_Q>
1

> <i_epik_Tot_abs_Q>
1

> <r_epik_Metal_State_Penalty>
5.48819

> <b_epik_Metal_Only>
0

> <s_lp_Force_Field>
OPLS_2005

> <r_lp_Energy>
33.4521

> <b_lp_Chiralities_Consistent>
1

> <s_lp_Variant>
AV-unprocessed.smi:467-5

> <Gold.Version>
5.8.1

> <Gold.Id.Protein>
6NUR|6NUR_protein|mol2

> <Gold.PLP.Fitness>
51.1165

> <Gold.PLP.PLP>
-42.9643

> <Gold.PLP.part.hbond>
-1.8559

> <Gold.PLP.part.metal>
0.0000

> <Gold.PLP.part.buried>
-7.2853

> <Gold.PLP.part.nonpolar>
-35.7635

> <Gold.PLP.part.repulsive>
0.3706

> <Gold.PLP.ligand.clash>
0.0000

> <Gold.PLP.ligand.torsion>
0.4025

> <Gold.PLP.Chemscore.Hbond>
2.9840

> <Gold.PLP.Chemscore.CHOScore>
0.0000

> <Gold.PLP.Chemscore.Metal>
0.0000

> <Gold.Chemscore.Hbonds>
donor molecule, donor type, donor heavy atom, donor atom, acceptor molecule, acceptor atom, score
      L1  H     5    45       P1  8028  1.89
      P1  H  7997  8008       L1    10  0.96

> <Gold.PLP.Chemscore.Internal.Correction>
0.0052

> <Gold.Rescore>
     Score         DG    S(hbond)    S(metal)    S(lipo)     H(rot)  DE(clash)    DE(int)     intcor
     18.77     -19.89       1.85        0.00     115.85       2.08       0.15       0.97       ----

> <Gold.Chemscore.Fitness>
18.7718

> <Gold.Chemscore.DG>
-19.8932

> <Gold.Chemscore.ZeroCoef>
-5.4800

> <Gold.Chemscore.Hbond>
1.8523

> <Gold.Chemscore.Metal>
0.0000

> <Gold.Chemscore.Lipo>
115.8459

> <Gold.Chemscore.Internal_Hbond>
0.0000

> <Gold.Chemscore.DEClash>
0.1540

> <Gold.Chemscore.DEInternal>
0.9674

> <Gold.Chemscore.Rot>
2.0811

> <Gold.Chemscore.Internal.Correction>
   9.000000E+99

> <Gold.Chemscore.Hbonds>
donor molecule, donor type, donor heavy atom, donor atom, acceptor molecule, acceptor atom, score
      L1  H     5    45       P1  8028  0.91
      P1  H  7997  8008       L1    10  0.64

> <Gold.Chemscore.Hbond.Weighted>
-6.1868

> <Gold.Chemscore.Metal.Weighted>
-0.0000

> <Gold.Chemscore.Lipo.Weighted>
-13.5540

> <Gold.Chemscore.Internal_Hbond.Weighted>
0.0000

> <Gold.Chemscore.DEClash.Weighted>
0.1540

> <Gold.Chemscore.DEInternal.Weighted>
0.9674

> <Gold.Chemscore.Rot.Weighted>
5.3275

> <Gold.Chemscore.Internal.Correction.Weighted>
   9.000000E+99

> <Gold.Protein.RotatedTorsions>
[ 6907 6896 6895 6894 ] final -154.73 input  -60.11 | X-H torsion
[ 7974 7965 7964 7962 ] final -103.81 input  175.53 | X-H torsion
[ 8008 7997 7996 7995 ] final  -35.35 input   59.86 | X-H torsion
[ 10167 10162 10161 10158 ] final -146.03 input  -65.29 | X-H torsion
[ 10718 10713 10712 10709 ] final  -65.68 input   66.30 | X-H torsion
[ 10763 10752 10751 10750 ] final  172.26 input  -60.55 | X-H torsion
[ 11005 11000 10999 10996 ] final  152.18 input  -57.11 | X-H torsion

> <Gold.Protein.ActiveResidues>
 VAL166  LYS551  ARG553  GLY616  TRP617  ASP618  TYR619  PRO620  LYS621  CYS622 
 ASP623  PHE694  ASN695  SER759  ASP760  ASP761  ALA762  ILE779  LEU786  VAL792 
 PHE793  MET794  SER795  GLU796  ALA797  LYS798  CYS799  TRP800  GLU811  SER814 

> <Gold.Protein.RotatedAtoms>
  151.2619  133.4297  159.2616 H   0  0  0  0  0  0  0  0  0  0  0  0  # atno 6907 bound_to 6896
  151.0523  134.9681  159.8228 H   0  0  0  0  0  0  0  0  0  0  0  0  # atno 6908 bound_to 6896
  152.5384  134.2573  159.8974 H   0  0  0  0  0  0  0  0  0  0  0  0  # atno 6909 bound_to 6896
  145.2511  140.9238  143.3094 H   0  0  0  0  0  0  0  0  0  0  0  0  # atno 7974 bound_to 7965
  154.4098  140.1659  156.2197 H   0  0  0  0  0  0  0  0  0  0  0  0  # atno 8008 bound_to 7997
  155.9374  140.3410  155.6276 H   0  0  0  0  0  0  0  0  0  0  0  0  # atno 8009 bound_to 7997
  155.7032  140.0747  157.2392 H   0  0  0  0  0  0  0  0  0  0  0  0  # atno 8010 bound_to 7997
  139.7751  143.8181  152.2630 H   0  0  0  0  0  0  0  0  0  0  0  0  # atno 10167 bound_to 10162
  156.0655  130.4251  150.1599 H   0  0  0  0  0  0  0  0  0  0  0  0  # atno 10718 bound_to 10713
  154.4235  135.2758  155.1960 H   0  0  0  0  0  0  0  0  0  0  0  0  # atno 10763 bound_to 10752
  154.3896  135.6069  153.5839 H   0  0  0  0  0  0  0  0  0  0  0  0  # atno 10764 bound_to 10752
  152.9833  135.5900  154.4535 H   0  0  0  0  0  0  0  0  0  0  0  0  # atno 10765 bound_to 10752
  140.1285  134.8817  157.2171 H   0  0  0  0  0  0  0  0  0  0  0  0  # atno 11005 bound_to 11000
  144.9502  139.4091  143.6406 LP  0  0  0  0  0  0  0  0  0  0  0  0  # atno 17320 bound_to 7965
  146.3302  139.8505  142.8874 LP  0  0  0  0  0  0  0  0  0  0  0  0  # atno 17321 bound_to 7965
  139.8227  144.7288  150.9551 LP  0  0  0  0  0  0  0  0  0  0  0  0  # atno 17342 bound_to 10162
  140.7816  143.4144  151.0942 LP  0  0  0  0  0  0  0  0  0  0  0  0  # atno 17343 bound_to 10162
  156.9659  130.9819  151.3469 LP  0  0  0  0  0  0  0  0  0  0  0  0  # atno 17370 bound_to 10713
  157.5694  130.8300  149.8371 LP  0  0  0  0  0  0  0  0  0  0  0  0  # atno 17371 bound_to 10713
  140.2873  134.3281  155.7325 LP  0  0  0  0  0  0  0  0  0  0  0  0  # atno 17394 bound_to 11000
  141.2166  133.7513  156.9451 LP  0  0  0  0  0  0  0  0  0  0  0  0  # atno 17395 bound_to 11000

$$$$
