AV-unprocessed.smi:2299|AV-procd|sdf|9228|dock6
  -GOLD-   2272012443D 1   1.00000     0.00000
 Structure written by MMmdl.
 43 44  0  0  0  0  0  0  0  0  2 V2000
  146.1649  138.1436  152.4003 C   0  0  0  0  0  0  0  0  0  0  0  0
  147.3552  138.6061  153.2538 C   0  0  0  0  0  0  0  0  0  0  0  0
  147.4919  137.7742  154.5370 C   0  0  0  0  0  0  0  0  0  0  0  0
  147.2721  140.0756  153.5622 C   0  0  0  0  0  0  0  0  0  0  0  0
  146.1914  140.8405  153.3600 N   0  3  0  0  0  0  0  0  0  0  0  0
  146.4356  142.1302  153.7428 C   0  0  0  0  0  0  0  0  0  0  0  0
  147.7230  142.1569  154.2086 C   0  0  0  0  0  0  0  0  0  0  0  0
  148.2137  140.8805  154.0922 N   0  0  0  0  0  0  0  0  0  0  0  0
  149.5652  140.4433  154.4784 C   0  0  0  0  0  0  0  0  0  0  0  0
  149.8828  140.6990  155.9571 C   0  0  0  0  0  0  0  0  0  0  0  0
  149.4527  139.9539  156.8389 O   0  0  0  0  0  0  0  0  0  0  0  0
  150.6481  141.7723  156.2108 N   0  0  0  0  0  0  0  0  0  0  0  0
  151.0959  142.2053  157.5369 C   0  0  2  0  0  0  0  0  0  0  0  0
  151.8662  143.5337  157.3558 C   0  0  0  0  0  0  0  0  0  0  0  0
  151.9396  144.3888  158.6327 C   0  0  0  0  0  0  0  0  0  0  0  0
  152.7387  143.7645  159.7866 C   0  0  0  0  0  0  0  0  0  0  0  0
  152.1419  142.4474  160.3108 C   0  0  0  0  0  0  0  0  0  0  0  0
  152.4440  141.3216  159.4365 N   0  0  0  0  0  0  0  0  0  0  0  0
  152.0370  141.1527  158.1691 C   0  0  0  0  0  0  0  0  0  0  0  0
  152.4113  140.1750  157.5211 O   0  0  0  0  0  0  0  0  0  0  0  0
  146.1095  138.7089  151.4690 H   0  0  0  0  0  0  0  0  0  0  0  0
  145.2186  138.2736  152.9266 H   0  0  0  0  0  0  0  0  0  0  0  0
  146.2563  137.0890  152.1388 H   0  0  0  0  0  0  0  0  0  0  0  0
  148.2549  138.4534  152.6600 H   0  0  0  0  0  0  0  0  0  0  0  0
  148.3712  138.0755  155.1075 H   0  0  0  0  0  0  0  0  0  0  0  0
  147.5970  136.7135  154.3074 H   0  0  0  0  0  0  0  0  0  0  0  0
  146.6202  137.8894  155.1819 H   0  0  0  0  0  0  0  0  0  0  0  0
  145.6939  142.9110  153.6577 H   0  0  0  0  0  0  0  0  0  0  0  0
  148.3129  142.9706  154.6055 H   0  0  0  0  0  0  0  0  0  0  0  0
  149.6420  139.3742  154.2763 H   0  0  0  0  0  0  0  0  0  0  0  0
  150.2930  140.9404  153.8364 H   0  0  0  0  0  0  0  0  0  0  0  0
  150.9640  142.3245  155.4266 H   0  0  0  0  0  0  0  0  0  0  0  0
  150.2238  142.3599  158.1748 H   0  0  0  0  0  0  0  0  0  0  0  0
  152.8690  143.3544  156.9635 H   0  0  0  0  0  0  0  0  0  0  0  0
  151.3616  144.1364  156.5988 H   0  0  0  0  0  0  0  0  0  0  0  0
  152.3911  145.3489  158.3807 H   0  0  0  0  0  0  0  0  0  0  0  0
  150.9291  144.6180  158.9735 H   0  0  0  0  0  0  0  0  0  0  0  0
  153.7777  143.6156  159.4890 H   0  0  0  0  0  0  0  0  0  0  0  0
  152.7636  144.4824  160.6071 H   0  0  0  0  0  0  0  0  0  0  0  0
  152.5756  142.2210  161.2851 H   0  0  0  0  0  0  0  0  0  0  0  0
  151.0658  142.5343  160.4671 H   0  0  0  0  0  0  0  0  0  0  0  0
  153.0482  140.6099  159.8216 H   0  0  0  0  0  0  0  0  0  0  0  0
  145.3181  140.5072  152.9716 H   0  0  0  0  0  0  0  0  0  0  0  0
  1  2  1  0  0  0  0
  1 21  1  0  0  0  0
  1 22  1  0  0  0  0
  1 23  1  0  0  0  0
  2  3  1  0  0  0  0
  2  4  1  0  0  0  0
  2 24  1  0  0  0  0
  3 25  1  0  0  0  0
  3 26  1  0  0  0  0
  3 27  1  0  0  0  0
  4  8  1  0  0  0  0
  4  5  2  0  0  0  0
  5  6  1  0  0  0  0
  5 43  1  0  0  0  0
  6  7  2  0  0  0  0
  6 28  1  0  0  0  0
  7  8  1  0  0  0  0
  7 29  1  0  0  0  0
  8  9  1  0  0  0  0
  9 10  1  0  0  0  0
  9 30  1  0  0  0  0
  9 31  1  0  0  0  0
 10 11  2  0  0  0  0
 10 12  1  0  0  0  0
 12 13  1  0  0  0  0
 12 32  1  0  0  0  0
 13 19  1  0  0  0  0
 13 14  1  0  0  0  0
 13 33  1  0  0  0  0
 14 15  1  0  0  0  0
 14 34  1  0  0  0  0
 14 35  1  0  0  0  0
 15 16  1  0  0  0  0
 15 36  1  0  0  0  0
 15 37  1  0  0  0  0
 16 17  1  0  0  0  0
 16 38  1  0  0  0  0
 16 39  1  0  0  0  0
 17 18  1  0  0  0  0
 17 40  1  0  0  0  0
 17 41  1  0  0  0  0
 18 19  1  0  0  0  0
 18 42  1  0  0  0  0
 19 20  2  0  0  0  0
M  CHG  1   5   1
M  END
> <s_m_source_file>
AV-unprocessed.smi

> <i_m_source_file_index>
2299

> <i_lp_mmshare_version>
43012

> <i_f3d_flags>
0

> <s_epik_input>
W0NIM11bQ0hdKFtDSDNdKWMxbltjSF1bY0hdbjFbQ0gyXUMoPU8pW05IXVtDQEBIXTJbQ0gyXVtDSDJdW0NIMl1bQ0gyXVtOSF1DMj1P

> <s_epik_cmdline>
J2VwaWtfcHl0aG9uJywgJy1waCcsICc3LjAnLCAnLXRuJywgJzgnLCAnLW1hJywgJzIwMCcsICctbWV0YWxfYmluZGluZycsICctaW1hZScsICc8aW5maWxlLm1hZT4nLCAnLW9tYWUnLCAnPG91dGZpbGUubWFlPic=

> <r_lp_tautomer_probability>
1

> <r_epik_Ionization_Penalty>
0.292878

> <r_epik_Ionization_Penalty_Charging>
0

> <r_epik_Ionization_Penalty_Neutral>
0.292878

> <r_epik_State_Penalty>
0.286008

> <r_epik_Charging_Adjusted_Penalty>
0.286008

> <i_epik_Tot_Q>
1

> <i_epik_Tot_abs_Q>
1

> <r_epik_Metal_State_Penalty>
0.563502

> <b_epik_Metal_Only>
0

> <s_lp_Force_Field>
OPLS_2005

> <r_lp_Energy>
16.2332

> <b_lp_Chiralities_Consistent>
1

> <s_lp_Variant>
AV-unprocessed.smi:2299-1

> <Gold.Version>
5.8.1

> <Gold.Id.Protein>
6NUR|6NUR_protein|mol2

> <Gold.PLP.Fitness>
50.8088

> <Gold.PLP.PLP>
-39.6865

> <Gold.PLP.part.hbond>
-2.0000

> <Gold.PLP.part.metal>
0.0000

> <Gold.PLP.part.buried>
-1.1934

> <Gold.PLP.part.nonpolar>
-37.0722

> <Gold.PLP.part.repulsive>
0.2378

> <Gold.PLP.ligand.clash>
0.0000

> <Gold.PLP.ligand.torsion>
0.4477

> <Gold.PLP.Chemscore.Hbond>
2.9920

> <Gold.PLP.Chemscore.CHOScore>
0.9996

> <Gold.PLP.Chemscore.Metal>
0.0000

> <Gold.Chemscore.Hbonds>
donor molecule, donor type, donor heavy atom, donor atom, acceptor molecule, acceptor atom, score
      L1  H     5    43       P1 10175  2.00
      P1  H  7997  8009       L1    20  0.71
      L1  C     7    29       P1  8028  1.00

> <Gold.PLP.Chemscore.Internal.Correction>
0.0429

> <Gold.Rescore>
     Score         DG    S(hbond)    S(metal)    S(lipo)     H(rot)  DE(clash)    DE(int)     intcor
     16.11     -18.35       1.90        0.00      93.95       1.75       1.23       1.01       ----

> <Gold.Chemscore.Fitness>
16.1118

> <Gold.Chemscore.DG>
-18.3524

> <Gold.Chemscore.ZeroCoef>
-5.4800

> <Gold.Chemscore.Hbond>
1.9049

> <Gold.Chemscore.Metal>
0.0000

> <Gold.Chemscore.Lipo>
93.9494

> <Gold.Chemscore.Internal_Hbond>
0.0000

> <Gold.Chemscore.DEClash>
1.2316

> <Gold.Chemscore.DEInternal>
1.0090

> <Gold.Chemscore.Rot>
1.7508

> <Gold.Chemscore.Internal.Correction>
   9.000000E+99

> <Gold.Chemscore.Hbonds>
donor molecule, donor type, donor heavy atom, donor atom, acceptor molecule, acceptor atom, score
      L1  H     5    43       P1 10175  0.88
      P1  H  7997  8009       L1    20  0.67

> <Gold.Chemscore.Hbond.Weighted>
-6.3624

> <Gold.Chemscore.Metal.Weighted>
-0.0000

> <Gold.Chemscore.Lipo.Weighted>
-10.9921

> <Gold.Chemscore.Internal_Hbond.Weighted>
0.0000

> <Gold.Chemscore.DEClash.Weighted>
1.2316

> <Gold.Chemscore.DEInternal.Weighted>
1.0090

> <Gold.Chemscore.Rot.Weighted>
4.4821

> <Gold.Chemscore.Internal.Correction.Weighted>
   9.000000E+99

> <Gold.Protein.RotatedTorsions>
[ 6907 6896 6895 6894 ] final  168.17 input  -60.11 | X-H torsion
[ 7974 7965 7964 7962 ] final  145.01 input  175.53 | X-H torsion
[ 8008 7997 7996 7995 ] final  172.75 input   59.86 | X-H torsion
[ 10167 10162 10161 10158 ] final  122.48 input  -65.29 | X-H torsion
[ 10718 10713 10712 10709 ] final -135.47 input   66.30 | X-H torsion
[ 10763 10752 10751 10750 ] final   48.30 input  -60.55 | X-H torsion
[ 11005 11000 10999 10996 ] final  -32.58 input  -57.11 | X-H torsion

> <Gold.Protein.ActiveResidues>
 VAL166  LYS551  ARG553  GLY616  TRP617  ASP618  TYR619  PRO620  LYS621  CYS622 
 ASP623  PHE694  ASN695  SER759  ASP760  ASP761  ALA762  ILE779  LEU786  VAL792 
 PHE793  MET794  SER795  GLU796  ALA797  LYS798  CYS799  TRP800  GLU811  SER814 

> <Gold.Protein.RotatedAtoms>
  151.8519  133.3441  159.3675 H   0  0  0  0  0  0  0  0  0  0  0  0  # atno 6907 bound_to 6896
  150.7204  134.5291  159.5700 H   0  0  0  0  0  0  0  0  0  0  0  0  # atno 6908 bound_to 6896
  152.2786  134.7854  160.0452 H   0  0  0  0  0  0  0  0  0  0  0  0  # atno 6909 bound_to 6896
  144.8788  139.5731  143.5852 H   0  0  0  0  0  0  0  0  0  0  0  0  # atno 7974 bound_to 7965
  156.1144  140.1478  156.9293 H   0  0  0  0  0  0  0  0  0  0  0  0  # atno 8008 bound_to 7997
  154.4790  140.0885  156.7374 H   0  0  0  0  0  0  0  0  0  0  0  0  # atno 8009 bound_to 7997
  155.4539  140.3436  155.4306 H   0  0  0  0  0  0  0  0  0  0  0  0  # atno 8010 bound_to 7997
  139.5856  144.7005  151.3418 H   0  0  0  0  0  0  0  0  0  0  0  0  # atno 10167 bound_to 10162
  156.2665  130.7240  151.1193 H   0  0  0  0  0  0  0  0  0  0  0  0  # atno 10718 bound_to 10713
  152.9793  135.5948  154.3904 H   0  0  0  0  0  0  0  0  0  0  0  0  # atno 10763 bound_to 10752
  154.3560  135.2767  155.2348 H   0  0  0  0  0  0  0  0  0  0  0  0  # atno 10764 bound_to 10752
  154.4366  135.6023  153.6158 H   0  0  0  0  0  0  0  0  0  0  0  0  # atno 10765 bound_to 10752
  140.9564  133.7190  156.1300 H   0  0  0  0  0  0  0  0  0  0  0  0  # atno 11005 bound_to 11000
  146.2980  139.7339  142.9112 LP  0  0  0  0  0  0  0  0  0  0  0  0  # atno 17320 bound_to 7965
  145.3993  141.0383  143.3079 LP  0  0  0  0  0  0  0  0  0  0  0  0  # atno 17321 bound_to 7965
  140.7128  143.7345  150.7599 LP  0  0  0  0  0  0  0  0  0  0  0  0  # atno 17342 bound_to 10162
  140.0889  143.4897  152.2489 LP  0  0  0  0  0  0  0  0  0  0  0  0  # atno 17343 bound_to 10162
  157.7269  131.0643  150.5889 LP  0  0  0  0  0  0  0  0  0  0  0  0  # atno 17370 bound_to 10713
  156.5981  130.4347  149.5908 LP  0  0  0  0  0  0  0  0  0  0  0  0  # atno 17371 bound_to 10713
  140.7530  134.4024  157.5538 LP  0  0  0  0  0  0  0  0  0  0  0  0  # atno 17394 bound_to 11000
  139.8863  134.8912  156.2590 LP  0  0  0  0  0  0  0  0  0  0  0  0  # atno 17395 bound_to 11000

$$$$
