AV-unprocessed.smi:1165|AV-procd|sdf|4931|dock3
  -GOLD-   22720 3513D 1   1.00000     0.00000
 Structure written by MMmdl.
 40 41  0  0  0  0  0  0  0  0  2 V2000
  150.7663  134.1071  156.4765 C   0  0  0  0  0  0  0  0  0  0  0  0
  150.2990  135.5600  156.6194 C   0  0  2  0  0  0  0  0  0  0  0  0
  151.3804  136.5579  156.1682 C   0  0  0  0  0  0  0  0  0  0  0  0
  150.9660  137.9410  156.4459 N   0  0  0  0  0  0  0  0  0  0  0  0
  151.8553  139.2194  155.6639 S   0  0  0  0  0  0  0  0  0  0  0  0
  152.8201  138.5370  154.7879 O   0  0  0  0  0  0  0  0  0  0  0  0
  150.8615  140.0970  155.0217 O   0  0  0  0  0  0  0  0  0  0  0  0
  152.5632  139.8761  156.9759 N   0  5  0  0  0  0  0  0  0  0  0  0
  151.9414  140.9759  157.7068 C   0  0  0  0  0  0  0  0  0  0  0  0
  152.8102  141.3743  158.9192 C   0  0  0  0  0  0  0  0  0  0  0  0
  152.5733  142.7909  159.4329 C   0  0  0  0  0  0  0  0  0  0  0  0
  152.4423  143.8761  158.5389 C   0  0  0  0  0  0  0  0  0  0  0  0
  152.2328  145.1669  159.0608 C   0  0  0  0  0  0  0  0  0  0  0  0
  152.1658  145.3214  160.4594 C   0  0  0  0  0  0  0  0  0  0  0  0
  152.2974  144.2953  161.3271 N   0  0  0  0  0  0  0  0  0  0  0  0
  152.4961  143.0602  160.8178 C   0  0  0  0  0  0  0  0  0  0  0  0
  150.5548  138.1407  157.8480 C   0  0  0  0  0  0  0  0  0  0  0  0
  149.5075  137.0976  158.2784 C   0  0  1  0  0  0  0  0  0  0  0  0
  148.1068  137.3721  157.7015 C   0  0  0  0  0  0  0  0  0  0  0  0
  149.9662  135.7798  157.9856 O   0  0  0  0  0  0  0  0  0  0  0  0
  151.0269  133.8783  155.4429 H   0  0  0  0  0  0  0  0  0  0  0  0
  149.9827  133.4137  156.7823 H   0  0  0  0  0  0  0  0  0  0  0  0
  151.6433  133.9118  157.0942 H   0  0  0  0  0  0  0  0  0  0  0  0
  149.4103  135.6862  156.0009 H   0  0  0  0  0  0  0  0  0  0  0  0
  152.3235  136.3643  156.6807 H   0  0  0  0  0  0  0  0  0  0  0  0
  151.5637  136.4326  155.1014 H   0  0  0  0  0  0  0  0  0  0  0  0
  151.7889  141.8534  157.0778 H   0  0  0  0  0  0  0  0  0  0  0  0
  150.9517  140.6938  158.0667 H   0  0  0  0  0  0  0  0  0  0  0  0
  152.6138  140.6818  159.7382 H   0  0  0  0  0  0  0  0  0  0  0  0
  153.8671  141.2532  158.6771 H   0  0  0  0  0  0  0  0  0  0  0  0
  152.4964  143.7208  157.4712 H   0  0  0  0  0  0  0  0  0  0  0  0
  152.1232  146.0168  158.4039 H   0  0  0  0  0  0  0  0  0  0  0  0
  152.0049  146.2970  160.8936 H   0  0  0  0  0  0  0  0  0  0  0  0
  152.5962  142.2617  161.5382 H   0  0  0  0  0  0  0  0  0  0  0  0
  151.4391  138.0600  158.4811 H   0  0  0  0  0  0  0  0  0  0  0  0
  150.1604  139.1457  157.9955 H   0  0  0  0  0  0  0  0  0  0  0  0
  149.4160  137.1499  159.3635 H   0  0  0  0  0  0  0  0  0  0  0  0
  147.7230  138.3270  158.0612 H   0  0  0  0  0  0  0  0  0  0  0  0
  147.4015  136.5977  158.0032 H   0  0  0  0  0  0  0  0  0  0  0  0
  148.1106  137.4193  156.6128 H   0  0  0  0  0  0  0  0  0  0  0  0
  1  2  1  0  0  0  0
  1 21  1  0  0  0  0
  1 22  1  0  0  0  0
  1 23  1  0  0  0  0
  2 20  1  0  0  0  0
  2  3  1  0  0  0  0
  2 24  1  0  0  0  0
  3  4  1  0  0  0  0
  3 25  1  0  0  0  0
  3 26  1  0  0  0  0
  4  5  1  0  0  0  0
  4 17  1  0  0  0  0
  5  6  2  0  0  0  0
  5  7  2  0  0  0  0
  5  8  1  0  0  0  0
  8  9  1  0  0  0  0
  9 10  1  0  0  0  0
  9 27  1  0  0  0  0
  9 28  1  0  0  0  0
 10 11  1  0  0  0  0
 10 29  1  0  0  0  0
 10 30  1  0  0  0  0
 11 16  1  0  0  0  0
 11 12  2  0  0  0  0
 12 13  1  0  0  0  0
 12 31  1  0  0  0  0
 13 14  2  0  0  0  0
 13 32  1  0  0  0  0
 14 15  1  0  0  0  0
 14 33  1  0  0  0  0
 15 16  2  0  0  0  0
 16 34  1  0  0  0  0
 17 18  1  0  0  0  0
 17 35  1  0  0  0  0
 17 36  1  0  0  0  0
 18 19  1  0  0  0  0
 18 20  1  0  0  0  0
 18 37  1  0  0  0  0
 19 38  1  0  0  0  0
 19 39  1  0  0  0  0
 19 40  1  0  0  0  0
M  CHG  1   8  -1
M  END
> <s_m_source_file>
AV-unprocessed.smi

> <i_m_source_file_index>
1165

> <i_lp_mmshare_version>
43012

> <i_f3d_flags>
0

> <s_epik_input>
W0NIM11bQ0BASF0xW0NIMl1OKFtDSDJdW0NASF0oTzEpW0NIM10pUyg9TykoPU8pW05IXVtDSDJdW0NIMl1jMltjSF1bY0hdW2NIXW5bY0hdMg==

> <s_epik_cmdline>
J2VwaWtfcHl0aG9uJywgJy1waCcsICc3LjAnLCAnLXRuJywgJzgnLCAnLW1hJywgJzIwMCcsICctbWV0YWxfYmluZGluZycsICctaW1hZScsICc8aW5maWxlLm1hZT4nLCAnLW9tYWUnLCAnPG91dGZpbGUubWFlPic=

> <r_epik_Ionization_Penalty>
1.23471

> <r_epik_Ionization_Penalty_Charging>
1.20871

> <r_epik_Ionization_Penalty_Neutral>
0.025996

> <r_epik_State_Penalty>
1.46261

> <r_epik_Charging_Adjusted_Penalty>
2.67132

> <i_epik_Tot_Q>
-1

> <i_epik_Tot_abs_Q>
1

> <r_epik_Metal_State_Penalty>
0.521406

> <b_epik_Metal_Only>
0

> <s_lp_Force_Field>
OPLS_2005

> <r_lp_Energy>
7.90597

> <b_lp_Chiralities_Consistent>
1

> <s_lp_Variant>
AV-unprocessed.smi:1165-4

> <Gold.Version>
5.8.1

> <Gold.Id.Protein>
6NUR|6NUR_protein|mol2

> <Gold.PLP.Fitness>
48.3012

> <Gold.PLP.PLP>
-39.0562

> <Gold.PLP.part.hbond>
-3.0000

> <Gold.PLP.part.metal>
0.0000

> <Gold.PLP.part.buried>
-5.9835

> <Gold.PLP.part.nonpolar>
-30.0207

> <Gold.PLP.part.repulsive>
0.2353

> <Gold.PLP.ligand.clash>
0.0000

> <Gold.PLP.ligand.torsion>
1.4286

> <Gold.PLP.Chemscore.Hbond>
3.5056

> <Gold.PLP.Chemscore.CHOScore>
0.0000

> <Gold.PLP.Chemscore.Metal>
0.0000

> <Gold.Chemscore.Hbonds>
donor molecule, donor type, donor heavy atom, donor atom, acceptor molecule, acceptor atom, score
      P1  H  6896  6907       L1    20  0.33
      P1  H  7989  7998       L1     7  1.00
      P1  H  7997  8008       L1     8  1.95

> <Gold.PLP.Chemscore.Internal.Correction>
1.5856

> <Gold.Rescore>
     Score         DG    S(hbond)    S(metal)    S(lipo)     H(rot)  DE(clash)    DE(int)     intcor
     18.47     -20.06       2.03        0.00      98.79       1.47       0.16       1.42       ----

> <Gold.Chemscore.Fitness>
18.4737

> <Gold.Chemscore.DG>
-20.0558

> <Gold.Chemscore.ZeroCoef>
-5.4800

> <Gold.Chemscore.Hbond>
2.0326

> <Gold.Chemscore.Metal>
0.0000

> <Gold.Chemscore.Lipo>
98.7859

> <Gold.Chemscore.Internal_Hbond>
0.0000

> <Gold.Chemscore.DEClash>
0.1581

> <Gold.Chemscore.DEInternal>
1.4240

> <Gold.Chemscore.Rot>
1.4731

> <Gold.Chemscore.Internal.Correction>
   9.000000E+99

> <Gold.Chemscore.Hbonds>
donor molecule, donor type, donor heavy atom, donor atom, acceptor molecule, acceptor atom, score
      P1  H  6896  6907       L1    20  0.21
      P1  H  7989  7998       L1     7  0.70
      P1  H  7997  8008       L1     8  0.23

> <Gold.Chemscore.Hbond.Weighted>
-6.7890

> <Gold.Chemscore.Metal.Weighted>
-0.0000

> <Gold.Chemscore.Lipo.Weighted>
-11.5580

> <Gold.Chemscore.Internal_Hbond.Weighted>
0.0000

> <Gold.Chemscore.DEClash.Weighted>
0.1581

> <Gold.Chemscore.DEInternal.Weighted>
1.4240

> <Gold.Chemscore.Rot.Weighted>
3.7712

> <Gold.Chemscore.Internal.Correction.Weighted>
   9.000000E+99

> <Gold.Protein.RotatedTorsions>
[ 6907 6896 6895 6894 ] final  -34.04 input  -60.11 | X-H torsion
[ 7974 7965 7964 7962 ] final  150.07 input  175.53 | X-H torsion
[ 8008 7997 7996 7995 ] final  -38.96 input   59.86 | X-H torsion
[ 10167 10162 10161 10158 ] final -121.56 input  -65.29 | X-H torsion
[ 10718 10713 10712 10709 ] final  103.06 input   66.30 | X-H torsion
[ 10763 10752 10751 10750 ] final  166.77 input  -60.55 | X-H torsion
[ 11005 11000 10999 10996 ] final  -61.26 input  -57.11 | X-H torsion

> <Gold.Protein.ActiveResidues>
 VAL166  LYS551  ARG553  GLY616  TRP617  ASP618  TYR619  PRO620  LYS621  CYS622 
 ASP623  PHE694  ASN695  SER759  ASP760  ASP761  ALA762  ILE779  LEU786  VAL792 
 PHE793  MET794  SER795  GLU796  ALA797  LYS798  CYS799  TRP800  GLU811  SER814 

> <Gold.Protein.RotatedAtoms>
  151.0577  134.9716  159.8244 H   0  0  0  0  0  0  0  0  0  0  0  0  # atno 6907 bound_to 6896
  152.5391  134.2457  159.8889 H   0  0  0  0  0  0  0  0  0  0  0  0  # atno 6908 bound_to 6896
  151.2475  133.4324  159.2644 H   0  0  0  0  0  0  0  0  0  0  0  0  # atno 6909 bound_to 6896
  144.8391  139.6362  143.6024 H   0  0  0  0  0  0  0  0  0  0  0  0  # atno 7974 bound_to 7965
  154.4029  140.1564  156.2785 H   0  0  0  0  0  0  0  0  0  0  0  0  # atno 8008 bound_to 7997
  155.8890  140.3439  155.5920 H   0  0  0  0  0  0  0  0  0  0  0  0  # atno 8009 bound_to 7997
  155.7580  140.0814  157.2160 H   0  0  0  0  0  0  0  0  0  0  0  0  # atno 8010 bound_to 7997
  140.0237  143.5318  152.2209 H   0  0  0  0  0  0  0  0  0  0  0  0  # atno 10167 bound_to 10162
  157.6784  131.0769  150.5498 H   0  0  0  0  0  0  0  0  0  0  0  0  # atno 10718 bound_to 10713
  154.3440  135.2753  155.2408 H   0  0  0  0  0  0  0  0  0  0  0  0  # atno 10763 bound_to 10752
  154.4666  135.5893  153.6296 H   0  0  0  0  0  0  0  0  0  0  0  0  # atno 10764 bound_to 10752
  152.9855  135.6078  154.3643 H   0  0  0  0  0  0  0  0  0  0  0  0  # atno 10765 bound_to 10752
  141.1318  133.6628  156.5348 H   0  0  0  0  0  0  0  0  0  0  0  0  # atno 11005 bound_to 11000
  146.2686  139.6579  142.9312 LP  0  0  0  0  0  0  0  0  0  0  0  0  # atno 17320 bound_to 7965
  145.4732  141.0436  143.2687 LP  0  0  0  0  0  0  0  0  0  0  0  0  # atno 17321 bound_to 7965
  139.6122  144.7611  151.2926 LP  0  0  0  0  0  0  0  0  0  0  0  0  # atno 17342 bound_to 10162
  140.7331  143.6803  150.8007 LP  0  0  0  0  0  0  0  0  0  0  0  0  # atno 17343 bound_to 10162
  156.5803  130.4302  149.5980 LP  0  0  0  0  0  0  0  0  0  0  0  0  # atno 17370 bound_to 10713
  156.2667  130.6993  151.1779 LP  0  0  0  0  0  0  0  0  0  0  0  0  # atno 17371 bound_to 10713
  140.4187  134.7207  157.4877 LP  0  0  0  0  0  0  0  0  0  0  0  0  # atno 17394 bound_to 11000
  140.0375  134.6315  155.9023 LP  0  0  0  0  0  0  0  0  0  0  0  0  # atno 17395 bound_to 11000

$$$$
