AV-unprocessed.smi:3017|AV-procd|sdf|11477|dock1
  -GOLD-   2272016413D 1   1.00000     0.00000
 Structure written by MMmdl.
 37 38  0  0  0  0  0  0  0  0  1 V2000
  152.8011  143.1911  161.6562 C   0  0  0  0  0  0  0  0  0  0  0  0
  152.7270  142.9679  160.1391 C   0  0  2  0  0  0  0  0  0  0  0  0
  152.0175  144.1388  159.4322 C   0  0  0  0  0  0  0  0  0  0  0  0
  151.9373  143.9146  157.9141 C   0  0  0  0  0  0  0  0  0  0  0  0
  151.2493  142.5810  157.5872 C   0  0  0  0  0  0  0  0  0  0  0  0
  151.9581  141.4021  158.2744 C   0  0  2  0  0  0  0  0  0  0  0  0
  151.2102  140.2309  157.9766 O   0  0  0  0  0  0  0  0  0  0  0  0
  151.4881  139.6594  156.7043 C   0  0  0  0  0  0  0  0  0  0  0  0
  150.5003  140.2136  155.6775 C   0  0  0  0  0  0  0  0  0  0  0  0
  150.7948  140.1870  154.4827 O   0  0  0  0  0  0  0  0  0  0  0  0
  149.3559  140.7219  156.1722 N   0  0  0  0  0  0  0  0  0  0  0  0
  148.2636  141.2828  155.4607 C   0  0  0  0  0  0  0  0  0  0  0  0
  148.1760  140.9305  154.0931 C   0  0  0  0  0  0  0  0  0  0  0  0
  147.1947  141.3873  153.2835 N   0  0  0  0  0  0  0  0  0  0  0  0
  146.2833  142.2101  153.8447 C   0  0  0  0  0  0  0  0  0  0  0  0
  146.3542  142.5712  155.2050 C   0  0  0  0  0  0  0  0  0  0  0  0
  147.3376  142.1109  156.0087 N   0  0  0  0  0  0  0  0  0  0  0  0
  152.0370  141.6317  159.7984 C   0  0  0  0  0  0  0  0  0  0  0  0
  151.8058  143.2425  162.0987 H   0  0  0  0  0  0  0  0  0  0  0  0
  153.3182  144.1219  161.8910 H   0  0  0  0  0  0  0  0  0  0  0  0
  153.3423  142.3815  162.1464 H   0  0  0  0  0  0  0  0  0  0  0  0
  153.7507  142.9216  159.7647 H   0  0  0  0  0  0  0  0  0  0  0  0
  151.0108  144.2579  159.8354 H   0  0  0  0  0  0  0  0  0  0  0  0
  152.5431  145.0724  159.6358 H   0  0  0  0  0  0  0  0  0  0  0  0
  151.3960  144.7366  157.4451 H   0  0  0  0  0  0  0  0  0  0  0  0
  152.9417  143.9226  157.4888 H   0  0  0  0  0  0  0  0  0  0  0  0
  150.2073  142.6212  157.9080 H   0  0  0  0  0  0  0  0  0  0  0  0
  151.2344  142.4274  156.5075 H   0  0  0  0  0  0  0  0  0  0  0  0
  152.9644  141.3176  157.8594 H   0  0  0  0  0  0  0  0  0  0  0  0
  152.5020  139.9078  156.3875 H   0  0  0  0  0  0  0  0  0  0  0  0
  151.4040  138.5728  156.7364 H   0  0  0  0  0  0  0  0  0  0  0  0
  149.2509  140.6843  157.1759 H   0  0  0  0  0  0  0  0  0  0  0  0
  148.9035  140.2733  153.6391 H   0  0  0  0  0  0  0  0  0  0  0  0
  145.4951  142.5818  153.2067 H   0  0  0  0  0  0  0  0  0  0  0  0
  145.6221  143.2294  155.6485 H   0  0  0  0  0  0  0  0  0  0  0  0
  152.5787  140.8155  160.2758 H   0  0  0  0  0  0  0  0  0  0  0  0
  151.0306  141.6209  160.2193 H   0  0  0  0  0  0  0  0  0  0  0  0
  1  2  1  0  0  0  0
  1 19  1  0  0  0  0
  1 20  1  0  0  0  0
  1 21  1  0  0  0  0
  2 18  1  0  0  0  0
  2  3  1  0  0  0  0
  2 22  1  0  0  0  0
  3  4  1  0  0  0  0
  3 23  1  0  0  0  0
  3 24  1  0  0  0  0
  4  5  1  0  0  0  0
  4 25  1  0  0  0  0
  4 26  1  0  0  0  0
  5  6  1  0  0  0  0
  5 27  1  0  0  0  0
  5 28  1  0  0  0  0
  6  7  1  0  0  0  0
  6 18  1  0  0  0  0
  6 29  1  0  0  0  0
  7  8  1  0  0  0  0
  8  9  1  0  0  0  0
  8 30  1  0  0  0  0
  8 31  1  0  0  0  0
  9 10  2  0  0  0  0
  9 11  1  0  0  0  0
 11 12  1  0  0  0  0
 11 32  1  0  0  0  0
 12 17  1  0  0  0  0
 12 13  2  0  0  0  0
 13 14  1  0  0  0  0
 13 33  1  0  0  0  0
 14 15  2  0  0  0  0
 15 16  1  0  0  0  0
 15 34  1  0  0  0  0
 16 17  2  0  0  0  0
 16 35  1  0  0  0  0
 18 36  1  0  0  0  0
 18 37  1  0  0  0  0
M  END
> <s_m_source_file>
AV-unprocessed.smi

> <i_m_source_file_index>
3017

> <i_lp_mmshare_version>
43012

> <i_f3d_flags>
0

> <s_epik_input>
W0NIM11bQ0BASF0xW0NIMl1bQ0gyXVtDSDJdW0NASF0oW0NIMl0xKU9bQ0gyXUMoPU8pW05IXWMyW2NIXW5bY0hdW2NIXW4y

> <s_epik_cmdline>
J2VwaWtfcHl0aG9uJywgJy1waCcsICc3LjAnLCAnLXRuJywgJzgnLCAnLW1hJywgJzIwMCcsICctbWV0YWxfYmluZGluZycsICctaW1hZScsICc8aW5maWxlLm1hZT4nLCAnLW9tYWUnLCAnPG91dGZpbGUubWFlPic=

> <r_lp_tautomer_probability>
1

> <r_epik_Ionization_Penalty>
2.89243e-06

> <r_epik_Ionization_Penalty_Charging>
0

> <r_epik_Ionization_Penalty_Neutral>
2.89243e-06

> <r_epik_State_Penalty>
-0

> <r_epik_Charging_Adjusted_Penalty>
0

> <i_epik_Tot_Q>
0

> <i_epik_Tot_abs_Q>
0

> <r_epik_Metal_State_Penalty>
-0

> <b_epik_Metal_Only>
0

> <s_lp_Force_Field>
OPLS_2005

> <r_lp_Energy>
19.9912

> <b_lp_Chiralities_Consistent>
1

> <s_lp_Variant>
AV-unprocessed.smi:3017-3

> <Gold.Version>
5.8.1

> <Gold.Id.Protein>
6NUR|6NUR_protein|mol2

> <Gold.PLP.Fitness>
40.3654

> <Gold.PLP.PLP>
-36.9311

> <Gold.PLP.part.hbond>
-0.7083

> <Gold.PLP.part.metal>
0.0000

> <Gold.PLP.part.buried>
-4.0859

> <Gold.PLP.part.nonpolar>
-33.2452

> <Gold.PLP.part.repulsive>
1.2696

> <Gold.PLP.ligand.clash>
0.0000

> <Gold.PLP.ligand.torsion>
0.8391

> <Gold.PLP.Chemscore.Hbond>
0.8125

> <Gold.PLP.Chemscore.CHOScore>
0.8845

> <Gold.PLP.Chemscore.Metal>
0.0000

> <Gold.Chemscore.Hbonds>
donor molecule, donor type, donor heavy atom, donor atom, acceptor molecule, acceptor atom, score
      P1  H  7989  7998       L1    10  0.83
      L1  C    13    33       P1  7957  0.85

> <Gold.PLP.Chemscore.Internal.Correction>
0.0216

> <Gold.Rescore>
     Score         DG    S(hbond)    S(metal)    S(lipo)     H(rot)  DE(clash)    DE(int)     intcor
     14.30     -16.66       0.99        0.00     100.47       1.51       0.04       2.31       ----

> <Gold.Chemscore.Fitness>
14.3020

> <Gold.Chemscore.DG>
-16.6559

> <Gold.Chemscore.ZeroCoef>
-5.4800

> <Gold.Chemscore.Hbond>
0.9854

> <Gold.Chemscore.Metal>
0.0000

> <Gold.Chemscore.Lipo>
100.4713

> <Gold.Chemscore.Internal_Hbond>
0.0000

> <Gold.Chemscore.DEClash>
0.0420

> <Gold.Chemscore.DEInternal>
2.3119

> <Gold.Chemscore.Rot>
1.5119

> <Gold.Chemscore.Internal.Correction>
   9.000000E+99

> <Gold.Chemscore.Hbonds>
donor molecule, donor type, donor heavy atom, donor atom, acceptor molecule, acceptor atom, score
      P1  H  7989  7998       L1    10  0.80

> <Gold.Chemscore.Hbond.Weighted>
-3.2913

> <Gold.Chemscore.Metal.Weighted>
-0.0000

> <Gold.Chemscore.Lipo.Weighted>
-11.7551

> <Gold.Chemscore.Internal_Hbond.Weighted>
0.0000

> <Gold.Chemscore.DEClash.Weighted>
0.0420

> <Gold.Chemscore.DEInternal.Weighted>
2.3119

> <Gold.Chemscore.Rot.Weighted>
3.8706

> <Gold.Chemscore.Internal.Correction.Weighted>
   9.000000E+99

> <Gold.Protein.RotatedTorsions>
[ 6907 6896 6895 6894 ] final  -87.14 input  -60.11 | X-H torsion
[ 7974 7965 7964 7962 ] final  -32.33 input  175.53 | X-H torsion
[ 8008 7997 7996 7995 ] final   32.77 input   59.86 | X-H torsion
[ 10167 10162 10161 10158 ] final -178.49 input  -65.29 | X-H torsion
[ 10718 10713 10712 10709 ] final -164.26 input   66.30 | X-H torsion
[ 10763 10752 10751 10750 ] final   64.78 input  -60.55 | X-H torsion
[ 11005 11000 10999 10996 ] final -179.19 input  -57.11 | X-H torsion

> <Gold.Protein.ActiveResidues>
 VAL166  LYS551  ARG553  GLY616  TRP617  ASP618  TYR619  PRO620  LYS621  CYS622 
 ASP623  PHE694  ASN695  SER759  ASP760  ASP761  ALA762  ILE779  LEU786  VAL792 
 PHE793  MET794  SER795  GLU796  ALA797  LYS798  CYS799  TRP800  GLU811  SER814 

> <Gold.Protein.RotatedAtoms>
  150.6866  134.2942  159.4679 H   0  0  0  0  0  0  0  0  0  0  0  0  # atno 6907 bound_to 6896
  152.0844  134.9447  160.0582 H   0  0  0  0  0  0  0  0  0  0  0  0  # atno 6908 bound_to 6896
  152.0787  133.4107  159.4528 H   0  0  0  0  0  0  0  0  0  0  0  0  # atno 6909 bound_to 6896
  146.0998  140.5779  142.8826 H   0  0  0  0  0  0  0  0  0  0  0  0  # atno 7974 bound_to 7965
  155.1278  140.3254  155.4481 H   0  0  0  0  0  0  0  0  0  0  0  0  # atno 8008 bound_to 7997
  156.2643  140.2016  156.6347 H   0  0  0  0  0  0  0  0  0  0  0  0  # atno 8009 bound_to 7997
  154.6635  140.0544  157.0075 H   0  0  0  0  0  0  0  0  0  0  0  0  # atno 8010 bound_to 7997
  139.5430  144.2311  152.0933 H   0  0  0  0  0  0  0  0  0  0  0  0  # atno 10167 bound_to 10162
  156.6365  130.8951  151.2988 H   0  0  0  0  0  0  0  0  0  0  0  0  # atno 10718 bound_to 10713
  153.0069  135.5380  154.6564 H   0  0  0  0  0  0  0  0  0  0  0  0  # atno 10763 bound_to 10752
  154.5783  135.2847  155.0760 H   0  0  0  0  0  0  0  0  0  0  0  0  # atno 10764 bound_to 10752
  154.1899  135.6502  153.5109 H   0  0  0  0  0  0  0  0  0  0  0  0  # atno 10765 bound_to 10752
  140.4214  134.6602  157.4665 H   0  0  0  0  0  0  0  0  0  0  0  0  # atno 11005 bound_to 11000
  144.7424  140.4977  143.6860 LP  0  0  0  0  0  0  0  0  0  0  0  0  # atno 17320 bound_to 7965
  145.5877  139.1493  143.3200 LP  0  0  0  0  0  0  0  0  0  0  0  0  # atno 17321 bound_to 7965
  140.1793  144.4860  150.6537 LP  0  0  0  0  0  0  0  0  0  0  0  0  # atno 17342 bound_to 10162
  140.6668  143.2271  151.5724 LP  0  0  0  0  0  0  0  0  0  0  0  0  # atno 17343 bound_to 10162
  157.7184  130.9527  150.1343 LP  0  0  0  0  0  0  0  0  0  0  0  0  # atno 17370 bound_to 10713
  156.2193  130.3672  149.8575 LP  0  0  0  0  0  0  0  0  0  0  0  0  # atno 17371 bound_to 10713
  140.0198  134.6565  155.9257 LP  0  0  0  0  0  0  0  0  0  0  0  0  # atno 17394 bound_to 11000
  141.1783  133.6543  156.4915 LP  0  0  0  0  0  0  0  0  0  0  0  0  # atno 17395 bound_to 11000

$$$$
