AV-unprocessed.smi:1207|AV-procd|sdf|5057|dock7
  -GOLD-   22720 4 93D 1   1.00000     0.00000
 Structure written by MMmdl.
 53 55  0  0  0  0  0  0  0  0  3 V2000
  145.8213  129.7425  151.7746 C   0  0  0  0  0  0  0  0  0  0  0  0
  145.7499  131.2592  151.8339 C   0  0  0  0  0  0  0  0  0  0  0  0
  144.6454  131.9062  151.2349 C   0  0  0  0  0  0  0  0  0  0  0  0
  144.6080  133.2938  151.3056 C   0  0  0  0  0  0  0  0  0  0  0  0
  143.6727  134.2110  150.8211 N   0  3  0  0  0  0  0  0  0  0  0  0
  144.0703  135.4753  151.1349 C   0  0  0  0  0  0  0  0  0  0  0  0
  145.2436  135.3781  151.8183 N   0  0  0  0  0  0  0  0  0  0  0  0
  146.1001  136.4302  152.3817 C   0  0  0  0  0  0  0  0  0  0  0  0
  145.3056  137.6647  152.8519 C   0  0  2  0  0  0  0  0  0  0  0  0
  145.2441  138.6060  151.7979 O   0  0  0  0  0  0  0  0  0  0  0  0
  145.9638  138.3334  154.0756 C   0  0  0  0  0  0  0  0  0  0  0  0
  145.1024  139.3768  154.6929 N   0  3  1  0  0  0  0  0  0  0  0  0
  143.9551  138.8034  155.4403 C   0  0  0  0  0  0  0  0  0  0  0  0
  145.8859  140.3479  155.5006 C   0  0  0  0  0  0  0  0  0  0  0  0
  146.7896  141.1951  154.6414 C   0  0  0  0  0  0  0  0  0  0  0  0
  148.0459  140.8467  154.0651 C   0  0  0  0  0  0  0  0  0  0  0  0
  148.7978  139.5499  154.1611 C   0  0  0  0  0  0  0  0  0  0  0  0
  148.5594  141.8430  153.3639 N   0  0  0  0  0  0  0  0  0  0  0  0
  147.6391  142.8914  153.4543 O   0  0  0  0  0  0  0  0  0  0  0  0
  146.5947  142.4807  154.2168 C   0  0  0  0  0  0  0  0  0  0  0  0
  145.4939  143.4640  154.4307 C   0  0  0  0  0  0  0  0  0  0  0  0
  145.6201  134.0364  151.9438 C   0  0  0  0  0  0  0  0  0  0  0  0
  146.7162  133.4156  152.5378 C   0  0  0  0  0  0  0  0  0  0  0  0
  146.7723  132.0046  152.4768 C   0  0  0  0  0  0  0  0  0  0  0  0
  147.9552  131.2982  153.1168 C   0  0  0  0  0  0  0  0  0  0  0  0
  144.9696  129.3237  151.2379 H   0  0  0  0  0  0  0  0  0  0  0  0
  145.8227  129.3192  152.7793 H   0  0  0  0  0  0  0  0  0  0  0  0
  146.7281  129.4208  151.2617 H   0  0  0  0  0  0  0  0  0  0  0  0
  143.8644  131.3452  150.7426 H   0  0  0  0  0  0  0  0  0  0  0  0
  143.5484  136.3888  150.8874 H   0  0  0  0  0  0  0  0  0  0  0  0
  146.6759  136.0000  153.2021 H   0  0  0  0  0  0  0  0  0  0  0  0
  146.8212  136.7118  151.6127 H   0  0  0  0  0  0  0  0  0  0  0  0
  144.2886  137.3545  153.0863 H   0  0  0  0  0  0  0  0  0  0  0  0
  144.6729  138.2667  151.1253 H   0  0  0  0  0  0  0  0  0  0  0  0
  146.2176  137.5875  154.8302 H   0  0  0  0  0  0  0  0  0  0  0  0
  146.9109  138.7684  153.7528 H   0  0  0  0  0  0  0  0  0  0  0  0
  144.2990  138.2457  156.3120 H   0  0  0  0  0  0  0  0  0  0  0  0
  143.3662  138.1289  154.8209 H   0  0  0  0  0  0  0  0  0  0  0  0
  143.2757  139.5835  155.7831 H   0  0  0  0  0  0  0  0  0  0  0  0
  145.2016  140.9602  156.0893 H   0  0  0  0  0  0  0  0  0  0  0  0
  146.4937  139.8045  156.2250 H   0  0  0  0  0  0  0  0  0  0  0  0
  148.6272  139.0627  155.1207 H   0  0  0  0  0  0  0  0  0  0  0  0
  149.8728  139.7021  154.0587 H   0  0  0  0  0  0  0  0  0  0  0  0
  148.4843  138.8595  153.3780 H   0  0  0  0  0  0  0  0  0  0  0  0
  145.0809  143.3732  155.4355 H   0  0  0  0  0  0  0  0  0  0  0  0
  144.6869  143.2987  153.7168 H   0  0  0  0  0  0  0  0  0  0  0  0
  145.8520  144.4862  154.3062 H   0  0  0  0  0  0  0  0  0  0  0  0
  147.4953  133.9824  153.0251 H   0  0  0  0  0  0  0  0  0  0  0  0
  148.6538  132.0090  153.5596 H   0  0  0  0  0  0  0  0  0  0  0  0
  148.5004  130.7150  152.3744 H   0  0  0  0  0  0  0  0  0  0  0  0
  147.6185  130.6263  153.9068 H   0  0  0  0  0  0  0  0  0  0  0  0
  144.7198  139.9062  153.9221 H   0  0  0  0  0  0  0  0  0  0  0  0
  142.8265  133.9931  150.3103 H   0  0  0  0  0  0  0  0  0  0  0  0
  1  2  1  0  0  0  0
  1 26  1  0  0  0  0
  1 27  1  0  0  0  0
  1 28  1  0  0  0  0
  2 24  1  0  0  0  0
  2  3  2  0  0  0  0
  3  4  1  0  0  0  0
  3 29  1  0  0  0  0
  4 22  2  0  0  0  0
  4  5  1  0  0  0  0
  5  6  2  0  0  0  0
  5 53  1  0  0  0  0
  6  7  1  0  0  0  0
  6 30  1  0  0  0  0
  7  8  1  0  0  0  0
  7 22  1  0  0  0  0
  8  9  1  0  0  0  0
  8 31  1  0  0  0  0
  8 32  1  0  0  0  0
  9 10  1  0  0  0  0
  9 11  1  0  0  0  0
  9 33  1  0  0  0  0
 10 34  1  0  0  0  0
 11 12  1  0  0  0  0
 11 35  1  0  0  0  0
 11 36  1  0  0  0  0
 12 13  1  0  0  0  0
 12 14  1  0  0  0  0
 12 52  1  0  0  0  0
 13 37  1  0  0  0  0
 13 38  1  0  0  0  0
 13 39  1  0  0  0  0
 14 15  1  0  0  0  0
 14 40  1  0  0  0  0
 14 41  1  0  0  0  0
 15 20  2  0  0  0  0
 15 16  1  0  0  0  0
 16 17  1  0  0  0  0
 16 18  2  0  0  0  0
 17 42  1  0  0  0  0
 17 43  1  0  0  0  0
 17 44  1  0  0  0  0
 18 19  1  0  0  0  0
 19 20  1  0  0  0  0
 20 21  1  0  0  0  0
 21 45  1  0  0  0  0
 21 46  1  0  0  0  0
 21 47  1  0  0  0  0
 22 23  1  0  0  0  0
 23 24  2  0  0  0  0
 23 48  1  0  0  0  0
 24 25  1  0  0  0  0
 25 49  1  0  0  0  0
 25 50  1  0  0  0  0
 25 51  1  0  0  0  0
M  CHG  1   5   1
M  CHG  1  12   1
M  END
> <s_m_source_file>
AV-unprocessed.smi

> <i_m_source_file_index>
1207

> <i_lp_mmshare_version>
43012

> <i_f3d_flags>
0

> <s_epik_input>
W0NIM11jKFtjSF0xKWMoW0NIM10pW2NIXWMoYzEyKW4oW2NIXW4yKVtDSDJdW0NASF0oW09IXSlbQ0gyXU4oW0NIM10pW0NIMl1jM2MoW0NIM10pbm9jM1tDSDNd

> <s_epik_cmdline>
J2VwaWtfcHl0aG9uJywgJy1waCcsICc3LjAnLCAnLXRuJywgJzgnLCAnLW1hJywgJzIwMCcsICctbWV0YWxfYmluZGluZycsICctaW1hZScsICc8aW5maWxlLm1hZT4nLCAnLW9tYWUnLCAnPG91dGZpbGUubWFlPic=

> <r_epik_Ionization_Penalty>
1.77463

> <r_epik_Ionization_Penalty_Charging>
1.77463

> <r_epik_Ionization_Penalty_Neutral>
3.70885e-06

> <r_epik_State_Penalty>
1.85225

> <r_epik_Charging_Adjusted_Penalty>
3.62688

> <i_epik_Tot_Q>
2

> <i_epik_Tot_abs_Q>
2

> <r_epik_Metal_State_Penalty>
1.92674

> <b_epik_Metal_Only>
0

> <s_lp_Force_Field>
OPLS_2005

> <r_lp_Energy>
17.578

> <b_lp_Chiralities_Consistent>
1

> <s_lp_Variant>
AV-unprocessed.smi:1207-9

> <Gold.Version>
5.8.1

> <Gold.Id.Protein>
6NUR|6NUR_protein|mol2

> <Gold.PLP.Fitness>
56.7469

> <Gold.PLP.PLP>
-38.3170

> <Gold.PLP.part.hbond>
-6.8416

> <Gold.PLP.part.metal>
0.0000

> <Gold.PLP.part.buried>
-2.2088

> <Gold.PLP.part.nonpolar>
-31.0551

> <Gold.PLP.part.repulsive>
1.9258

> <Gold.PLP.ligand.clash>
0.0000

> <Gold.PLP.ligand.torsion>
1.3280

> <Gold.PLP.Chemscore.Hbond>
5.9880

> <Gold.PLP.Chemscore.CHOScore>
1.0000

> <Gold.PLP.Chemscore.Metal>
0.0000

> <Gold.Chemscore.Hbonds>
donor molecule, donor type, donor heavy atom, donor atom, acceptor molecule, acceptor atom, score
      L1  H     5    53       P1 10186  2.00
      L1  H    10    34       P1 10171  0.91
      L1  H    12    52       P1 10175  2.00
      P1  H  8011  8017       L1    18  0.58
      P1  H  8022  8030       L1    19  0.44
      L1  C     6    30       P1 10171  1.00

> <Gold.PLP.Chemscore.Internal.Correction>
0.1221

> <Gold.Rescore>
     Score         DG    S(hbond)    S(metal)    S(lipo)     H(rot)  DE(clash)    DE(int)     intcor
     18.15     -21.69       3.58        0.00      91.73       2.54       2.19       1.35       ----

> <Gold.Chemscore.Fitness>
18.1473

> <Gold.Chemscore.DG>
-21.6945

> <Gold.Chemscore.ZeroCoef>
-5.4800

> <Gold.Chemscore.Hbond>
3.5843

> <Gold.Chemscore.Metal>
0.0000

> <Gold.Chemscore.Lipo>
91.7341

> <Gold.Chemscore.Internal_Hbond>
0.0000

> <Gold.Chemscore.DEClash>
2.1950

> <Gold.Chemscore.DEInternal>
1.3522

> <Gold.Chemscore.Rot>
2.5351

> <Gold.Chemscore.Internal.Correction>
   9.000000E+99

> <Gold.Chemscore.Hbonds>
donor molecule, donor type, donor heavy atom, donor atom, acceptor molecule, acceptor atom, score
      L1  H     5    53       P1 10186  0.88
      L1  H    10    34       P1 10171  0.85
      L1  H    12    52       P1 10175  1.00
      P1  H  8011  8017       L1    18  0.26
      P1  H  8022  8030       L1    19  0.37

> <Gold.Chemscore.Hbond.Weighted>
-11.9715

> <Gold.Chemscore.Metal.Weighted>
-0.0000

> <Gold.Chemscore.Lipo.Weighted>
-10.7329

> <Gold.Chemscore.Internal_Hbond.Weighted>
0.0000

> <Gold.Chemscore.DEClash.Weighted>
2.1950

> <Gold.Chemscore.DEInternal.Weighted>
1.3522

> <Gold.Chemscore.Rot.Weighted>
6.4900

> <Gold.Chemscore.Internal.Correction.Weighted>
   9.000000E+99

> <Gold.Protein.RotatedTorsions>
[ 6907 6896 6895 6894 ] final  -94.87 input  -60.11 | X-H torsion
[ 7974 7965 7964 7962 ] final   -3.30 input  175.53 | X-H torsion
[ 8008 7997 7996 7995 ] final  168.36 input   59.86 | X-H torsion
[ 10167 10162 10161 10158 ] final -120.21 input  -65.29 | X-H torsion
[ 10718 10713 10712 10709 ] final  -54.03 input   66.30 | X-H torsion
[ 10763 10752 10751 10750 ] final   47.78 input  -60.55 | X-H torsion
[ 11005 11000 10999 10996 ] final  161.49 input  -57.11 | X-H torsion

> <Gold.Protein.ActiveResidues>
 VAL166  LYS551  ARG553  GLY616  TRP617  ASP618  TYR619  PRO620  LYS621  CYS622 
 ASP623  PHE694  ASN695  SER759  ASP760  ASP761  ALA762  ILE779  LEU786  VAL792 
 PHE793  MET794  SER795  GLU796  ALA797  LYS798  CYS799  TRP800  GLU811  SER814 

> <Gold.Protein.RotatedAtoms>
  150.6951  134.1745  159.4224 H   0  0  0  0  0  0  0  0  0  0  0  0  # atno 6907 bound_to 6896
  151.9722  135.0069  160.0562 H   0  0  0  0  0  0  0  0  0  0  0  0  # atno 6908 bound_to 6896
  152.1831  133.4686  159.5005 H   0  0  0  0  0  0  0  0  0  0  0  0  # atno 6909 bound_to 6896
  146.2392  140.1700  142.8332 H   0  0  0  0  0  0  0  0  0  0  0  0  # atno 7974 bound_to 7965
  156.1553  140.1592  156.8702 H   0  0  0  0  0  0  0  0  0  0  0  0  # atno 8008 bound_to 7997
  154.5109  140.0801  156.8024 H   0  0  0  0  0  0  0  0  0  0  0  0  # atno 8009 bound_to 7997
  155.3815  140.3405  155.4249 H   0  0  0  0  0  0  0  0  0  0  0  0  # atno 8010 bound_to 7997
  140.0383  143.5179  152.2143 H   0  0  0  0  0  0  0  0  0  0  0  0  # atno 10167 bound_to 10162
  156.1485  130.4152  149.9984 H   0  0  0  0  0  0  0  0  0  0  0  0  # atno 10718 bound_to 10713
  152.9797  135.5965  154.3818 H   0  0  0  0  0  0  0  0  0  0  0  0  # atno 10763 bound_to 10752
  154.3482  135.2767  155.2388 H   0  0  0  0  0  0  0  0  0  0  0  0  # atno 10764 bound_to 10752
  154.4439  135.6006  153.6202 H   0  0  0  0  0  0  0  0  0  0  0  0  # atno 10765 bound_to 10752
  140.2163  134.8229  157.3174 H   0  0  0  0  0  0  0  0  0  0  0  0  # atno 11005 bound_to 11000
  145.0019  140.8639  143.5276 LP  0  0  0  0  0  0  0  0  0  0  0  0  # atno 17320 bound_to 7965
  145.1720  139.2399  143.5337 LP  0  0  0  0  0  0  0  0  0  0  0  0  # atno 17321 bound_to 7965
  139.6030  144.7588  151.3126 LP  0  0  0  0  0  0  0  0  0  0  0  0  # atno 17342 bound_to 10162
  140.7271  143.6971  150.7875 LP  0  0  0  0  0  0  0  0  0  0  0  0  # atno 17343 bound_to 10162
  156.7849  130.9235  151.3646 LP  0  0  0  0  0  0  0  0  0  0  0  0  # atno 17370 bound_to 10713
  157.6637  130.8988  149.9885 LP  0  0  0  0  0  0  0  0  0  0  0  0  # atno 17371 bound_to 10713
  140.1897  134.4387  155.7723 LP  0  0  0  0  0  0  0  0  0  0  0  0  # atno 17394 bound_to 11000
  141.2224  133.7021  156.8006 LP  0  0  0  0  0  0  0  0  0  0  0  0  # atno 17395 bound_to 11000

$$$$
