AV-unprocessed.smi:1817|AV-procd|sdf|7368|dock3
  -GOLD-   22720 9 33D 1   1.00000     0.00000
 Structure written by MMmdl.
 43 44  0  0  0  0  0  0  0  0  2 V2000
  143.4062  140.1347  156.0298 C   0  0  0  0  0  0  0  0  0  0  0  0
  144.4968  139.1342  155.6216 C   0  0  0  0  0  0  0  0  0  0  0  0
  145.4064  139.6705  154.5787 N   0  3  0  0  0  0  0  0  0  0  0  0
  146.4011  138.6640  154.1333 C   0  0  0  0  0  0  0  0  0  0  0  0
  147.3054  139.2493  153.0287 C   0  0  0  0  0  0  0  0  0  0  0  0
  148.0450  140.4290  153.4999 N   0  0  0  0  0  0  0  0  0  0  0  0
  149.0455  140.1799  154.5619 C   0  0  2  0  0  0  0  0  0  0  0  0
  149.5074  141.5167  155.1888 C   0  0  0  0  0  0  0  0  0  0  0  0
  150.2726  139.3828  154.0382 C   0  0  0  0  0  0  0  0  0  0  0  0
  150.0205  137.9458  153.9862 N   0  0  0  0  0  0  0  0  0  0  0  0
  150.3695  137.0777  154.9473 C   0  0  0  0  0  0  0  0  0  0  0  0
  150.9241  137.4160  155.9941 O   0  0  0  0  0  0  0  0  0  0  0  0
  150.0427  135.8177  154.6115 N   0  0  0  0  0  0  0  0  0  0  0  0
  150.2850  134.6234  155.3407 C   0  0  0  0  0  0  0  0  0  0  0  0
  150.6105  134.5999  156.6428 N   0  0  0  0  0  0  0  0  0  0  0  0
  150.7979  133.3049  157.1081 N   0  0  0  0  0  0  0  0  0  0  0  0
  150.6080  132.4042  156.1398 C   0  0  0  0  0  0  0  0  0  0  0  0
  150.1805  133.0499  154.5646 S   0  0  0  0  0  0  0  0  0  0  0  0
  147.0220  141.4277  153.8463 C   0  0  0  0  0  0  0  0  0  0  0  0
  146.0811  140.9351  154.9697 C   0  0  0  0  0  0  0  0  0  0  0  0
  142.7026  139.6712  156.7215 H   0  0  0  0  0  0  0  0  0  0  0  0
  142.8393  140.4764  155.1634 H   0  0  0  0  0  0  0  0  0  0  0  0
  143.8201  141.0094  156.5307 H   0  0  0  0  0  0  0  0  0  0  0  0
  145.0722  138.8171  156.4927 H   0  0  0  0  0  0  0  0  0  0  0  0
  144.0039  138.2411  155.2354 H   0  0  0  0  0  0  0  0  0  0  0  0
  146.9895  138.3103  154.9811 H   0  0  0  0  0  0  0  0  0  0  0  0
  145.8759  137.7938  153.7380 H   0  0  0  0  0  0  0  0  0  0  0  0
  147.9750  138.4899  152.6300 H   0  0  0  0  0  0  0  0  0  0  0  0
  146.6880  139.5421  152.1780 H   0  0  0  0  0  0  0  0  0  0  0  0
  148.5853  139.5879  155.3507 H   0  0  0  0  0  0  0  0  0  0  0  0
  150.3151  141.3708  155.9055 H   0  0  0  0  0  0  0  0  0  0  0  0
  148.7123  142.0108  155.7451 H   0  0  0  0  0  0  0  0  0  0  0  0
  149.8697  142.2074  154.4267 H   0  0  0  0  0  0  0  0  0  0  0  0
  150.5603  139.6803  153.0307 H   0  0  0  0  0  0  0  0  0  0  0  0
  151.1395  139.5607  154.6756 H   0  0  0  0  0  0  0  0  0  0  0  0
  149.5653  137.5901  153.1579 H   0  0  0  0  0  0  0  0  0  0  0  0
  149.5807  135.6951  153.7225 H   0  0  0  0  0  0  0  0  0  0  0  0
  150.7208  131.3520  156.3546 H   0  0  0  0  0  0  0  0  0  0  0  0
  147.4738  142.3798  154.1179 H   0  0  0  0  0  0  0  0  0  0  0  0
  146.4320  141.6436  152.9543 H   0  0  0  0  0  0  0  0  0  0  0  0
  145.3332  141.7056  155.1540 H   0  0  0  0  0  0  0  0  0  0  0  0
  146.6201  140.8017  155.9079 H   0  0  0  0  0  0  0  0  0  0  0  0
  144.8378  139.8792  153.7705 H   0  0  0  0  0  0  0  0  0  0  0  0
  1  2  1  0  0  0  0
  1 21  1  0  0  0  0
  1 22  1  0  0  0  0
  1 23  1  0  0  0  0
  2  3  1  0  0  0  0
  2 24  1  0  0  0  0
  2 25  1  0  0  0  0
  3 20  1  0  0  0  0
  3  4  1  0  0  0  0
  3 43  1  0  0  0  0
  4  5  1  0  0  0  0
  4 26  1  0  0  0  0
  4 27  1  0  0  0  0
  5  6  1  0  0  0  0
  5 28  1  0  0  0  0
  5 29  1  0  0  0  0
  6  7  1  0  0  0  0
  6 19  1  0  0  0  0
  7  8  1  0  0  0  0
  7  9  1  0  0  0  0
  7 30  1  0  0  0  0
  8 31  1  0  0  0  0
  8 32  1  0  0  0  0
  8 33  1  0  0  0  0
  9 10  1  0  0  0  0
  9 34  1  0  0  0  0
  9 35  1  0  0  0  0
 10 11  1  0  0  0  0
 10 36  1  0  0  0  0
 11 12  2  0  0  0  0
 11 13  1  0  0  0  0
 13 14  1  0  0  0  0
 13 37  1  0  0  0  0
 14 18  1  0  0  0  0
 14 15  2  0  0  0  0
 15 16  1  0  0  0  0
 16 17  2  0  0  0  0
 17 18  1  0  0  0  0
 17 38  1  0  0  0  0
 19 20  1  0  0  0  0
 19 39  1  0  0  0  0
 19 40  1  0  0  0  0
 20 41  1  0  0  0  0
 20 42  1  0  0  0  0
M  CHG  1   3   1
M  END
> <s_m_source_file>
AV-unprocessed.smi

> <i_m_source_file_index>
1817

> <i_lp_mmshare_version>
43012

> <i_f3d_flags>
0

> <s_epik_input>
W0NIM11bQ0gyXU4xW0NIMl1bQ0gyXU4oW0NIMl1bQ0gyXTEpW0NASF0oW0NIM10pW0NIMl1bTkhdQyg9TylbTkhdYzJubltjSF1zMg==

> <s_epik_cmdline>
J2VwaWtfcHl0aG9uJywgJy1waCcsICc3LjAnLCAnLXRuJywgJzgnLCAnLW1hJywgJzIwMCcsICctbWV0YWxfYmluZGluZycsICctaW1hZScsICc8aW5maWxlLm1hZT4nLCAnLW9tYWUnLCAnPG91dGZpbGUubWFlPic=

> <r_lp_tautomer_probability>
1

> <r_epik_Ionization_Penalty>
0.0474318

> <r_epik_Ionization_Penalty_Charging>
0.0451959

> <r_epik_Ionization_Penalty_Neutral>
0.00223598

> <r_epik_State_Penalty>
0.165541

> <r_epik_Charging_Adjusted_Penalty>
0.210737

> <i_epik_Tot_Q>
1

> <i_epik_Tot_abs_Q>
1

> <r_epik_Metal_State_Penalty>
0.500395

> <b_epik_Metal_Only>
0

> <s_lp_Force_Field>
OPLS_2005

> <r_lp_Energy>
19.2999

> <b_lp_Chiralities_Consistent>
1

> <s_lp_Variant>
AV-unprocessed.smi:1817-1

> <Gold.Version>
5.8.1

> <Gold.Id.Protein>
6NUR|6NUR_protein|mol2

> <Gold.PLP.Fitness>
40.1734

> <Gold.PLP.PLP>
-26.6167

> <Gold.PLP.part.hbond>
-4.0000

> <Gold.PLP.part.metal>
0.0000

> <Gold.PLP.part.buried>
-2.5538

> <Gold.PLP.part.nonpolar>
-21.4954

> <Gold.PLP.part.repulsive>
1.7713

> <Gold.PLP.ligand.clash>
0.0000

> <Gold.PLP.ligand.torsion>
0.6628

> <Gold.PLP.Chemscore.Hbond>
4.9421

> <Gold.PLP.Chemscore.CHOScore>
0.0000

> <Gold.PLP.Chemscore.Metal>
0.0000

> <Gold.Chemscore.Hbonds>
donor molecule, donor type, donor heavy atom, donor atom, acceptor molecule, acceptor atom, score
      L1  H     3    43       P1 10175  2.00
      L1  H    10    36       P1  7948  1.00
      L1  H    13    37       P1  7948  1.00
      P1  H  6896  6909       L1    16  0.67

> <Gold.PLP.Chemscore.Internal.Correction>
0.0562

> <Gold.Rescore>
     Score         DG    S(hbond)    S(metal)    S(lipo)     H(rot)  DE(clash)    DE(int)     intcor
     15.73     -17.72       3.40        0.00      49.64       1.92       0.11       1.87       ----

> <Gold.Chemscore.Fitness>
15.7322

> <Gold.Chemscore.DG>
-17.7182

> <Gold.Chemscore.ZeroCoef>
-5.4800

> <Gold.Chemscore.Hbond>
3.3966

> <Gold.Chemscore.Metal>
0.0000

> <Gold.Chemscore.Lipo>
49.6377

> <Gold.Chemscore.Internal_Hbond>
0.0000

> <Gold.Chemscore.DEClash>
0.1129

> <Gold.Chemscore.DEInternal>
1.8732

> <Gold.Chemscore.Rot>
1.9196

> <Gold.Chemscore.Internal.Correction>
   9.000000E+99

> <Gold.Chemscore.Hbonds>
donor molecule, donor type, donor heavy atom, donor atom, acceptor molecule, acceptor atom, score
      L1  H     3    43       P1 10175  1.00
      L1  H    10    36       P1  7948  0.81
      L1  H    13    37       P1  7948  0.24
      P1  H  6896  6909       L1    16  0.26

> <Gold.Chemscore.Hbond.Weighted>
-11.3447

> <Gold.Chemscore.Metal.Weighted>
-0.0000

> <Gold.Chemscore.Lipo.Weighted>
-5.8076

> <Gold.Chemscore.Internal_Hbond.Weighted>
0.0000

> <Gold.Chemscore.DEClash.Weighted>
0.1129

> <Gold.Chemscore.DEInternal.Weighted>
1.8732

> <Gold.Chemscore.Rot.Weighted>
4.9141

> <Gold.Chemscore.Internal.Correction.Weighted>
   9.000000E+99

> <Gold.Protein.RotatedTorsions>
[ 6907 6896 6895 6894 ] final  -18.49 input  -60.11 | X-H torsion
[ 7974 7965 7964 7962 ] final -110.38 input  175.53 | X-H torsion
[ 8008 7997 7996 7995 ] final  147.17 input   59.86 | X-H torsion
[ 10167 10162 10161 10158 ] final -167.83 input  -65.29 | X-H torsion
[ 10718 10713 10712 10709 ] final  125.48 input   66.30 | X-H torsion
[ 10763 10752 10751 10750 ] final  -66.87 input  -60.55 | X-H torsion
[ 11005 11000 10999 10996 ] final   10.53 input  -57.11 | X-H torsion

> <Gold.Protein.ActiveResidues>
 VAL166  LYS551  ARG553  GLY616  TRP617  ASP618  TYR619  PRO620  LYS621  CYS622 
 ASP623  PHE694  ASN695  SER759  ASP760  ASP761  ALA762  ILE779  LEU786  VAL792 
 PHE793  MET794  SER795  GLU796  ALA797  LYS798  CYS799  TRP800  GLU811  SER814 

> <Gold.Protein.RotatedAtoms>
  151.2773  135.0703  159.9156 H   0  0  0  0  0  0  0  0  0  0  0  0  # atno 6907 bound_to 6896
  152.5340  134.0067  159.7930 H   0  0  0  0  0  0  0  0  0  0  0  0  # atno 6908 bound_to 6896
  151.0315  133.5735  159.2691 H   0  0  0  0  0  0  0  0  0  0  0  0  # atno 6909 bound_to 6896
  145.1690  140.8916  143.3546 H   0  0  0  0  0  0  0  0  0  0  0  0  # atno 7974 bound_to 7965
  156.2833  140.2163  156.5494 H   0  0  0  0  0  0  0  0  0  0  0  0  # atno 8008 bound_to 7997
  154.7303  140.0496  157.0743 H   0  0  0  0  0  0  0  0  0  0  0  0  # atno 8009 bound_to 7997
  155.0362  140.3140  155.4744 H   0  0  0  0  0  0  0  0  0  0  0  0  # atno 8010 bound_to 7997
  139.6024  144.0983  152.1757 H   0  0  0  0  0  0  0  0  0  0  0  0  # atno 10167 bound_to 10162
  157.5499  131.1094  150.8719 H   0  0  0  0  0  0  0  0  0  0  0  0  # atno 10718 bound_to 10713
  154.3661  135.6105  153.5716 H   0  0  0  0  0  0  0  0  0  0  0  0  # atno 10763 bound_to 10752
  152.9791  135.5827  154.4576 H   0  0  0  0  0  0  0  0  0  0  0  0  # atno 10764 bound_to 10752
  154.4322  135.2848  155.1882 H   0  0  0  0  0  0  0  0  0  0  0  0  # atno 10765 bound_to 10752
  140.5134  134.0629  155.7824 H   0  0  0  0  0  0  0  0  0  0  0  0  # atno 11005 bound_to 11000
  145.0252  139.3389  143.6052 LP  0  0  0  0  0  0  0  0  0  0  0  0  # atno 17320 bound_to 7965
  146.3471  139.9569  142.8722 LP  0  0  0  0  0  0  0  0  0  0  0  0  # atno 17321 bound_to 7965
  140.0582  144.5878  150.7283 LP  0  0  0  0  0  0  0  0  0  0  0  0  # atno 17342 bound_to 10162
  140.7260  143.2636  151.4120 LP  0  0  0  0  0  0  0  0  0  0  0  0  # atno 17343 bound_to 10162
  156.9247  130.5328  149.5279 LP  0  0  0  0  0  0  0  0  0  0  0  0  # atno 17370 bound_to 10713
  156.0568  130.5628  150.9108 LP  0  0  0  0  0  0  0  0  0  0  0  0  # atno 17371 bound_to 10713
  141.1373  133.9199  157.2405 LP  0  0  0  0  0  0  0  0  0  0  0  0  # atno 17394 bound_to 11000
  139.9646  135.0145  156.9352 LP  0  0  0  0  0  0  0  0  0  0  0  0  # atno 17395 bound_to 11000

$$$$
