AV-unprocessed.smi:1728|AV-procd|sdf|6967|dock2
  -GOLD-   22720 8183D 1   1.00000     0.00000
 Structure written by MMmdl.
 46 47  0  0  0  0  0  0  0  0  1 V2000
  151.5644  145.5442  160.1453 C   0  0  0  0  0  0  0  0  0  0  0  0
  151.2691  144.3661  159.4032 O   0  0  0  0  0  0  0  0  0  0  0  0
  152.0577  143.2476  159.5968 C   0  0  0  0  0  0  0  0  0  0  0  0
  152.8014  143.1721  160.7293 N   0  0  0  0  0  0  0  0  0  0  0  0
  153.5683  142.0798  160.9228 C   0  0  0  0  0  0  0  0  0  0  0  0
  153.6299  141.0110  160.0105 C   0  0  0  0  0  0  0  0  0  0  0  0
  152.8590  141.0861  158.8357 C   0  0  0  0  0  0  0  0  0  0  0  0
  152.0578  142.2328  158.6107 C   0  0  0  0  0  0  0  0  0  0  0  0
  151.2275  142.4168  157.4690 N   0  0  0  0  0  0  0  0  0  0  0  0
  150.7061  141.4993  156.6369 C   0  0  0  0  0  0  0  0  0  0  0  0
  150.8684  140.2821  156.7165 O   0  0  0  0  0  0  0  0  0  0  0  0
  149.9773  142.0816  155.6772 N   0  0  0  0  0  0  0  0  0  0  0  0
  149.2638  141.3640  154.6252 C   0  0  0  0  0  0  0  0  0  0  0  0
  147.8507  140.9029  155.0836 C   0  0  0  0  0  0  0  0  0  0  0  0
  147.3850  139.8452  154.0503 C   0  0  0  0  0  0  0  0  0  0  0  0
  148.0214  140.1759  156.4392 C   0  0  0  0  0  0  0  0  0  0  0  0
  146.8950  142.0441  155.1496 N   0  0  0  0  0  0  0  0  0  0  0  0
  146.3865  142.5021  153.8516 C   0  0  0  0  0  0  0  0  0  0  0  0
  145.5058  143.7565  153.9855 C   0  0  0  0  0  0  0  0  0  0  0  0
  144.4315  143.4961  154.8805 O   0  0  0  0  0  0  0  0  0  0  0  0
  144.8835  143.1042  156.1710 C   0  0  0  0  0  0  0  0  0  0  0  0
  145.7563  141.8435  156.0536 C   0  0  0  0  0  0  0  0  0  0  0  0
  150.8536  146.3256  159.8774 H   0  0  0  0  0  0  0  0  0  0  0  0
  152.5651  145.9176  159.9231 H   0  0  0  0  0  0  0  0  0  0  0  0
  151.4762  145.3713  161.2188 H   0  0  0  0  0  0  0  0  0  0  0  0
  154.1465  142.0546  161.8346 H   0  0  0  0  0  0  0  0  0  0  0  0
  154.2518  140.1508  160.2091 H   0  0  0  0  0  0  0  0  0  0  0  0
  152.8931  140.2588  158.1452 H   0  0  0  0  0  0  0  0  0  0  0  0
  151.0430  143.3804  157.2297 H   0  0  0  0  0  0  0  0  0  0  0  0
  149.8927  143.0878  155.6784 H   0  0  0  0  0  0  0  0  0  0  0  0
  149.1811  142.0114  153.7501 H   0  0  0  0  0  0  0  0  0  0  0  0
  149.8700  140.5182  154.2986 H   0  0  0  0  0  0  0  0  0  0  0  0
  148.1563  139.0959  153.8684 H   0  0  0  0  0  0  0  0  0  0  0  0
  147.1422  140.2999  153.0891 H   0  0  0  0  0  0  0  0  0  0  0  0
  146.5057  139.2966  154.3877 H   0  0  0  0  0  0  0  0  0  0  0  0
  148.7232  139.3456  156.3521 H   0  0  0  0  0  0  0  0  0  0  0  0
  147.0839  139.7563  156.8032 H   0  0  0  0  0  0  0  0  0  0  0  0
  148.4115  140.8361  157.2136 H   0  0  0  0  0  0  0  0  0  0  0  0
  147.2048  142.7428  153.1756 H   0  0  0  0  0  0  0  0  0  0  0  0
  145.8033  141.7136  153.3761 H   0  0  0  0  0  0  0  0  0  0  0  0
  146.0919  144.6037  154.3452 H   0  0  0  0  0  0  0  0  0  0  0  0
  145.0989  144.0380  153.0141 H   0  0  0  0  0  0  0  0  0  0  0  0
  145.4433  143.9189  156.6327 H   0  0  0  0  0  0  0  0  0  0  0  0
  144.0200  142.9087  156.8068 H   0  0  0  0  0  0  0  0  0  0  0  0
  145.1365  141.0185  155.7025 H   0  0  0  0  0  0  0  0  0  0  0  0
  146.0941  141.5822  157.0547 H   0  0  0  0  0  0  0  0  0  0  0  0
  1  2  1  0  0  0  0
  1 23  1  0  0  0  0
  1 24  1  0  0  0  0
  1 25  1  0  0  0  0
  2  3  1  0  0  0  0
  3  8  1  0  0  0  0
  3  4  2  0  0  0  0
  4  5  1  0  0  0  0
  5  6  2  0  0  0  0
  5 26  1  0  0  0  0
  6  7  1  0  0  0  0
  6 27  1  0  0  0  0
  7  8  2  0  0  0  0
  7 28  1  0  0  0  0
  8  9  1  0  0  0  0
  9 10  1  0  0  0  0
  9 29  1  0  0  0  0
 10 11  2  0  0  0  0
 10 12  1  0  0  0  0
 12 13  1  0  0  0  0
 12 30  1  0  0  0  0
 13 14  1  0  0  0  0
 13 31  1  0  0  0  0
 13 32  1  0  0  0  0
 14 15  1  0  0  0  0
 14 16  1  0  0  0  0
 14 17  1  0  0  0  0
 15 33  1  0  0  0  0
 15 34  1  0  0  0  0
 15 35  1  0  0  0  0
 16 36  1  0  0  0  0
 16 37  1  0  0  0  0
 16 38  1  0  0  0  0
 17 22  1  0  0  0  0
 17 18  1  0  0  0  0
 18 19  1  0  0  0  0
 18 39  1  0  0  0  0
 18 40  1  0  0  0  0
 19 20  1  0  0  0  0
 19 41  1  0  0  0  0
 19 42  1  0  0  0  0
 20 21  1  0  0  0  0
 21 22  1  0  0  0  0
 21 43  1  0  0  0  0
 21 44  1  0  0  0  0
 22 45  1  0  0  0  0
 22 46  1  0  0  0  0
M  END
> <s_m_source_file>
AV-unprocessed.smi

> <i_m_source_file_index>
1728

> <i_lp_mmshare_version>
43012

> <i_f3d_flags>
0

> <s_epik_input>
W0NIM11PYzFuW2NIXVtjSF1bY0hdYzFbTkhdQyg9TylbTkhdW0NIMl1DKFtDSDNdKShbQ0gzXSlOMltDSDJdW0NIMl1PW0NIMl1bQ0gyXTI=

> <s_epik_cmdline>
J2VwaWtfcHl0aG9uJywgJy1waCcsICc3LjAnLCAnLXRuJywgJzgnLCAnLW1hJywgJzIwMCcsICctbWV0YWxfYmluZGluZycsICctaW1hZScsICc8aW5maWxlLm1hZT4nLCAnLW9tYWUnLCAnPG91dGZpbGUubWFlPic=

> <r_lp_tautomer_probability>
1

> <r_epik_Ionization_Penalty>
0.266086

> <r_epik_Ionization_Penalty_Charging>
0

> <r_epik_Ionization_Penalty_Neutral>
0.266086

> <r_epik_State_Penalty>
0.257924

> <r_epik_Charging_Adjusted_Penalty>
0.257924

> <i_epik_Tot_Q>
0

> <i_epik_Tot_abs_Q>
0

> <r_epik_Metal_State_Penalty>
0.257921

> <b_epik_Metal_Only>
0

> <s_lp_Force_Field>
OPLS_2005

> <r_lp_Energy>
44.4816

> <b_lp_Chiralities_Consistent>
1

> <s_lp_Variant>
AV-unprocessed.smi:1728-1

> <Gold.Version>
5.8.1

> <Gold.Id.Protein>
6NUR|6NUR_protein|mol2

> <Gold.PLP.Fitness>
41.6528

> <Gold.PLP.PLP>
-41.2414

> <Gold.PLP.part.hbond>
-1.0000

> <Gold.PLP.part.metal>
0.0000

> <Gold.PLP.part.buried>
-9.0960

> <Gold.PLP.part.nonpolar>
-32.0699

> <Gold.PLP.part.repulsive>
0.6379

> <Gold.PLP.ligand.clash>
0.0101

> <Gold.PLP.ligand.torsion>
1.3216

> <Gold.PLP.Chemscore.Hbond>
1.0000

> <Gold.PLP.Chemscore.CHOScore>
0.0000

> <Gold.PLP.Chemscore.Metal>
0.0000

> <Gold.Chemscore.Hbonds>
donor molecule, donor type, donor heavy atom, donor atom, acceptor molecule, acceptor atom, score
      L1  H    12    30       P1  8028  1.00

> <Gold.PLP.Chemscore.Internal.Correction>
0.0647

> <Gold.Rescore>
     Score         DG    S(hbond)    S(metal)    S(lipo)     H(rot)  DE(clash)    DE(int)     intcor
     13.19     -15.17       1.10        0.00      88.67       1.70       0.02       1.97       ----

> <Gold.Chemscore.Fitness>
13.1862

> <Gold.Chemscore.DG>
-15.1699

> <Gold.Chemscore.ZeroCoef>
-5.4800

> <Gold.Chemscore.Hbond>
1.1000

> <Gold.Chemscore.Metal>
0.0000

> <Gold.Chemscore.Lipo>
88.6677

> <Gold.Chemscore.Internal_Hbond>
0.0000

> <Gold.Chemscore.DEClash>
0.0154

> <Gold.Chemscore.DEInternal>
1.9683

> <Gold.Chemscore.Rot>
1.7024

> <Gold.Chemscore.Internal.Correction>
   9.000000E+99

> <Gold.Chemscore.Hbonds>
donor molecule, donor type, donor heavy atom, donor atom, acceptor molecule, acceptor atom, score
      L1  H    12    30       P1  8028  0.97

> <Gold.Chemscore.Hbond.Weighted>
-3.6741

> <Gold.Chemscore.Metal.Weighted>
-0.0000

> <Gold.Chemscore.Lipo.Weighted>
-10.3741

> <Gold.Chemscore.Internal_Hbond.Weighted>
0.0000

> <Gold.Chemscore.DEClash.Weighted>
0.0154

> <Gold.Chemscore.DEInternal.Weighted>
1.9683

> <Gold.Chemscore.Rot.Weighted>
4.3583

> <Gold.Chemscore.Internal.Correction.Weighted>
   9.000000E+99

> <Gold.Protein.RotatedTorsions>
[ 6907 6896 6895 6894 ] final -174.38 input  -60.11 | X-H torsion
[ 7974 7965 7964 7962 ] final -151.67 input  175.53 | X-H torsion
[ 8008 7997 7996 7995 ] final -134.50 input   59.86 | X-H torsion
[ 10167 10162 10161 10158 ] final  147.76 input  -65.29 | X-H torsion
[ 10718 10713 10712 10709 ] final  139.31 input   66.30 | X-H torsion
[ 10763 10752 10751 10750 ] final -134.93 input  -60.55 | X-H torsion
[ 11005 11000 10999 10996 ] final  -84.25 input  -57.11 | X-H torsion

> <Gold.Protein.ActiveResidues>
 VAL166  LYS551  ARG553  GLY616  TRP617  ASP618  TYR619  PRO620  LYS621  CYS622 
 ASP623  PHE694  ASN695  SER759  ASP760  ASP761  ALA762  ILE779  LEU786  VAL792 
 PHE793  MET794  SER795  GLU796  ALA797  LYS798  CYS799  TRP800  GLU811  SER814 

> <Gold.Protein.RotatedAtoms>
  151.5714  133.3389  159.2990 H   0  0  0  0  0  0  0  0  0  0  0  0  # atno 6907 bound_to 6896
  150.8365  134.7644  159.6908 H   0  0  0  0  0  0  0  0  0  0  0  0  # atno 6908 bound_to 6896
  152.4441  134.5538  159.9926 H   0  0  0  0  0  0  0  0  0  0  0  0  # atno 6909 bound_to 6896
  144.7837  140.4766  143.5821 H   0  0  0  0  0  0  0  0  0  0  0  0  # atno 7974 bound_to 7965
  155.3632  140.0484  157.3046 H   0  0  0  0  0  0  0  0  0  0  0  0  # atno 8008 bound_to 7997
  154.5168  140.2211  155.9015 H   0  0  0  0  0  0  0  0  0  0  0  0  # atno 8009 bound_to 7997
  156.1645  140.3109  155.8870 H   0  0  0  0  0  0  0  0  0  0  0  0  # atno 8010 bound_to 7997
  139.4885  144.5731  151.7017 H   0  0  0  0  0  0  0  0  0  0  0  0  # atno 10167 bound_to 10162
  157.4157  131.1033  151.0407 H   0  0  0  0  0  0  0  0  0  0  0  0  # atno 10718 bound_to 10713
  154.8711  135.3719  154.4815 H   0  0  0  0  0  0  0  0  0  0  0  0  # atno 10763 bound_to 10752
  153.5468  135.7025  153.5615 H   0  0  0  0  0  0  0  0  0  0  0  0  # atno 10764 bound_to 10752
  153.3752  135.4011  155.1781 H   0  0  0  0  0  0  0  0  0  0  0  0  # atno 10765 bound_to 10752
  141.1652  133.7336  156.8840 H   0  0  0  0  0  0  0  0  0  0  0  0  # atno 11005 bound_to 11000
  145.5980  139.1501  143.3145 LP  0  0  0  0  0  0  0  0  0  0  0  0  # atno 17320 bound_to 7965
  146.2058  140.6103  142.9082 LP  0  0  0  0  0  0  0  0  0  0  0  0  # atno 17321 bound_to 7965
  140.5322  144.0712  150.6058 LP  0  0  0  0  0  0  0  0  0  0  0  0  # atno 17342 bound_to 10162
  140.3706  143.2857  152.0282 LP  0  0  0  0  0  0  0  0  0  0  0  0  # atno 17343 bound_to 10162
  157.1355  130.6120  149.5541 LP  0  0  0  0  0  0  0  0  0  0  0  0  # atno 17370 bound_to 10713
  155.9864  130.4899  150.7079 LP  0  0  0  0  0  0  0  0  0  0  0  0  # atno 17371 bound_to 10713
  140.1695  134.9110  157.2815 LP  0  0  0  0  0  0  0  0  0  0  0  0  # atno 17394 bound_to 11000
  140.2518  134.3674  155.7439 LP  0  0  0  0  0  0  0  0  0  0  0  0  # atno 17395 bound_to 11000

$$$$
