AV-unprocessed.smi:1997|AV-procd|sdf|8088|dock2
  -GOLD-   2272010303D 1   1.00000     0.00000
 Structure written by MMmdl.
 36 38  0  0  0  0  0  0  0  0  2 V2000
  150.9746  135.2636  156.4297 O   0  0  0  0  0  0  0  0  0  0  0  0
  150.4398  135.2123  155.3195 C   0  0  0  0  0  0  0  0  0  0  0  0
  150.0879  134.0906  154.6506 N   0  5  0  0  0  0  0  0  0  0  0  0
  148.8571  133.9802  154.1243 C   0  0  0  0  0  0  0  0  0  0  0  0
  147.8530  134.8004  154.4650 N   0  0  0  0  0  0  0  0  0  0  0  0
  146.6691  134.5175  153.7990 N   0  0  0  0  0  0  0  0  0  0  0  0
  146.7979  133.4889  152.9576 C   0  0  0  0  0  0  0  0  0  0  0  0
  145.6650  132.9892  152.1251 C   0  0  0  0  0  0  0  0  0  0  0  0
  145.8063  131.7276  151.3047 C   0  0  0  0  0  0  0  0  0  0  0  0
  145.7011  133.0634  150.6140 C   0  0  0  0  0  0  0  0  0  0  0  0
  148.4056  132.7829  152.9112 S   0  0  0  0  0  0  0  0  0  0  0  0
  150.1557  136.3456  154.6596 N   0  0  0  0  0  0  0  0  0  0  0  0
  150.4346  137.7094  155.1156 C   0  0  2  0  0  0  0  0  0  0  0  0
  149.4519  138.6660  154.3939 C   0  0  0  0  0  0  0  0  0  0  0  0
  149.8164  140.1677  154.4092 C   0  0  0  0  0  0  0  0  0  0  0  0
  150.2947  140.7141  155.7700 C   0  0  0  0  0  0  0  0  0  0  0  0
  151.5738  140.0722  156.3678 C   0  0  0  0  0  0  0  0  0  0  0  0
  152.3412  139.2477  155.4343 N   0  0  0  0  0  0  0  0  0  0  0  0
  151.8922  138.1356  154.8278 C   0  0  0  0  0  0  0  0  0  0  0  0
  152.6033  137.4995  154.0507 O   0  0  0  0  0  0  0  0  0  0  0  0
  144.7139  133.1714  152.6213 H   0  0  0  0  0  0  0  0  0  0  0  0
  146.7766  131.2349  151.2997 H   0  0  0  0  0  0  0  0  0  0  0  0
  144.9456  131.0643  151.2534 H   0  0  0  0  0  0  0  0  0  0  0  0
  144.7696  133.2923  150.1008 H   0  0  0  0  0  0  0  0  0  0  0  0
  146.6008  133.4490  150.1387 H   0  0  0  0  0  0  0  0  0  0  0  0
  149.7229  136.2521  153.7527 H   0  0  0  0  0  0  0  0  0  0  0  0
  150.2512  137.7497  156.1900 H   0  0  0  0  0  0  0  0  0  0  0  0
  149.3371  138.3622  153.3520 H   0  0  0  0  0  0  0  0  0  0  0  0
  148.4665  138.5403  154.8441 H   0  0  0  0  0  0  0  0  0  0  0  0
  150.5802  140.3659  153.6556 H   0  0  0  0  0  0  0  0  0  0  0  0
  148.9468  140.7389  154.0830 H   0  0  0  0  0  0  0  0  0  0  0  0
  150.4747  141.7831  155.6515 H   0  0  0  0  0  0  0  0  0  0  0  0
  149.4848  140.6371  156.4960 H   0  0  0  0  0  0  0  0  0  0  0  0
  152.2309  140.8555  156.7463 H   0  0  0  0  0  0  0  0  0  0  0  0
  151.3160  139.4674  157.2382 H   0  0  0  0  0  0  0  0  0  0  0  0
  153.2886  139.5376  155.2404 H   0  0  0  0  0  0  0  0  0  0  0  0
  1  2  2  0  0  0  0
  2  3  1  0  0  0  0
  2 12  1  0  0  0  0
  3  4  1  0  0  0  0
  4 11  1  0  0  0  0
  4  5  2  0  0  0  0
  5  6  1  0  0  0  0
  6  7  2  0  0  0  0
  7  8  1  0  0  0  0
  7 11  1  0  0  0  0
  8 10  1  0  0  0  0
  8  9  1  0  0  0  0
  8 21  1  0  0  0  0
  9 10  1  0  0  0  0
  9 22  1  0  0  0  0
  9 23  1  0  0  0  0
 10 24  1  0  0  0  0
 10 25  1  0  0  0  0
 12 13  1  0  0  0  0
 12 26  1  0  0  0  0
 13 19  1  0  0  0  0
 13 14  1  0  0  0  0
 13 27  1  0  0  0  0
 14 15  1  0  0  0  0
 14 28  1  0  0  0  0
 14 29  1  0  0  0  0
 15 16  1  0  0  0  0
 15 30  1  0  0  0  0
 15 31  1  0  0  0  0
 16 17  1  0  0  0  0
 16 32  1  0  0  0  0
 16 33  1  0  0  0  0
 17 18  1  0  0  0  0
 17 34  1  0  0  0  0
 17 35  1  0  0  0  0
 18 19  1  0  0  0  0
 18 36  1  0  0  0  0
 19 20  2  0  0  0  0
M  CHG  1   3  -1
M  END
> <s_m_source_file>
AV-unprocessed.smi

> <i_m_source_file_index>
1997

> <i_lp_mmshare_version>
43012

> <i_f3d_flags>
0

> <s_epik_input>
W0NIMl0xW0NIMl1bQ0hdMWMoczIpbm5jMltOSF1DKD1PKVtOSF1bQ0BASF0zW0NIMl1bQ0gyXVtDSDJdW0NIMl1bTkhdQzM9Tw==

> <s_epik_cmdline>
J2VwaWtfcHl0aG9uJywgJy1waCcsICc3LjAnLCAnLXRuJywgJzgnLCAnLW1hJywgJzIwMCcsICctbWV0YWxfYmluZGluZycsICctaW1hZScsICc8aW5maWxlLm1hZT4nLCAnLW9tYWUnLCAnPG91dGZpbGUubWFlPic=

> <r_lp_tautomer_probability>
1

> <r_epik_Ionization_Penalty>
4.47229

> <r_epik_Ionization_Penalty_Charging>
4.32584

> <r_epik_Ionization_Penalty_Neutral>
0.146443

> <r_epik_State_Penalty>
4.32544

> <r_epik_Charging_Adjusted_Penalty>
8.65129

> <i_epik_Tot_Q>
-1

> <i_epik_Tot_abs_Q>
1

> <r_epik_Metal_State_Penalty>
0.738743

> <b_epik_Metal_Only>
1

> <s_lp_Force_Field>
OPLS_2005

> <r_lp_Energy>
12.6103

> <b_lp_Chiralities_Consistent>
1

> <s_lp_Variant>
AV-unprocessed.smi:1997-3

> <Gold.Version>
5.8.1

> <Gold.Id.Protein>
6NUR|6NUR_protein|mol2

> <Gold.PLP.Fitness>
35.1364

> <Gold.PLP.PLP>
-31.7053

> <Gold.PLP.part.hbond>
-2.0000

> <Gold.PLP.part.metal>
0.0000

> <Gold.PLP.part.buried>
-2.9633

> <Gold.PLP.part.nonpolar>
-27.1737

> <Gold.PLP.part.repulsive>
0.7223

> <Gold.PLP.ligand.clash>
0.0000

> <Gold.PLP.ligand.torsion>
0.8742

> <Gold.PLP.Chemscore.Hbond>
1.6720

> <Gold.PLP.Chemscore.CHOScore>
0.0000

> <Gold.PLP.Chemscore.Metal>
0.0000

> <Gold.Chemscore.Hbonds>
donor molecule, donor type, donor heavy atom, donor atom, acceptor molecule, acceptor atom, score
      L1  H    12    26       P1  7948  1.00
      P1  H 10752 10765       L1    20  0.66

> <Gold.PLP.Chemscore.Internal.Correction>
0.1636

> <Gold.Rescore>
     Score         DG    S(hbond)    S(metal)    S(lipo)     H(rot)  DE(clash)    DE(int)     intcor
     12.42     -13.45       1.19        0.00      62.12       1.27       0.08       0.95       ----

> <Gold.Chemscore.Fitness>
12.4191

> <Gold.Chemscore.DG>
-13.4496

> <Gold.Chemscore.ZeroCoef>
-5.4800

> <Gold.Chemscore.Hbond>
1.1864

> <Gold.Chemscore.Metal>
0.0000

> <Gold.Chemscore.Lipo>
62.1192

> <Gold.Chemscore.Internal_Hbond>
0.0000

> <Gold.Chemscore.DEClash>
0.0806

> <Gold.Chemscore.DEInternal>
0.9499

> <Gold.Chemscore.Rot>
1.2738

> <Gold.Chemscore.Internal.Correction>
   9.000000E+99

> <Gold.Chemscore.Hbonds>
donor molecule, donor type, donor heavy atom, donor atom, acceptor molecule, acceptor atom, score
      L1  H    12    26       P1  7948  0.38
      P1  H 10752 10765       L1    20  0.66

> <Gold.Chemscore.Hbond.Weighted>
-3.9626

> <Gold.Chemscore.Metal.Weighted>
-0.0000

> <Gold.Chemscore.Lipo.Weighted>
-7.2679

> <Gold.Chemscore.Internal_Hbond.Weighted>
0.0000

> <Gold.Chemscore.DEClash.Weighted>
0.0806

> <Gold.Chemscore.DEInternal.Weighted>
0.9499

> <Gold.Chemscore.Rot.Weighted>
3.2610

> <Gold.Chemscore.Internal.Correction.Weighted>
   9.000000E+99

> <Gold.Protein.RotatedTorsions>
[ 6907 6896 6895 6894 ] final -146.09 input  -60.11 | X-H torsion
[ 7974 7965 7964 7962 ] final  -65.33 input  175.53 | X-H torsion
[ 8008 7997 7996 7995 ] final  150.14 input   59.86 | X-H torsion
[ 10167 10162 10161 10158 ] final  -66.46 input  -65.29 | X-H torsion
[ 10718 10713 10712 10709 ] final   51.34 input   66.30 | X-H torsion
[ 10763 10752 10751 10750 ] final  141.22 input  -60.55 | X-H torsion
[ 11005 11000 10999 10996 ] final  -76.13 input  -57.11 | X-H torsion

> <Gold.Protein.ActiveResidues>
 VAL166  LYS551  ARG553  GLY616  TRP617  ASP618  TYR619  PRO620  LYS621  CYS622 
 ASP623  PHE694  ASN695  SER759  ASP760  ASP761  ALA762  ILE779  LEU786  VAL792 
 PHE793  MET794  SER795  GLU796  ALA797  LYS798  CYS799  TRP800  GLU811  SER814 

> <Gold.Protein.RotatedAtoms>
  151.1368  133.4998  159.2597 H   0  0  0  0  0  0  0  0  0  0  0  0  # atno 6907 bound_to 6896
  151.1698  135.0312  159.8756 H   0  0  0  0  0  0  0  0  0  0  0  0  # atno 6908 bound_to 6896
  152.5461  134.1233  159.8461 H   0  0  0  0  0  0  0  0  0  0  0  0  # atno 6909 bound_to 6896
  145.7556  140.8887  143.0457 H   0  0  0  0  0  0  0  0  0  0  0  0  # atno 7974 bound_to 7965
  156.2727  140.2083  156.5970 H   0  0  0  0  0  0  0  0  0  0  0  0  # atno 8008 bound_to 7997
  154.6937  140.0527  157.0412 H   0  0  0  0  0  0  0  0  0  0  0  0  # atno 8009 bound_to 7997
  155.0831  140.3188  155.4598 H   0  0  0  0  0  0  0  0  0  0  0  0  # atno 8010 bound_to 7997
  140.5655  143.2314  151.6642 H   0  0  0  0  0  0  0  0  0  0  0  0  # atno 10167 bound_to 10162
  157.4971  130.8414  149.8272 H   0  0  0  0  0  0  0  0  0  0  0  0  # atno 10718 bound_to 10713
  153.9356  135.2985  155.3444 H   0  0  0  0  0  0  0  0  0  0  0  0  # atno 10763 bound_to 10752
  154.7504  135.4983  153.9281 H   0  0  0  0  0  0  0  0  0  0  0  0  # atno 10764 bound_to 10752
  153.1069  135.6749  153.9676 H   0  0  0  0  0  0  0  0  0  0  0  0  # atno 10765 bound_to 10752
  141.1651  133.6972  156.7622 H   0  0  0  0  0  0  0  0  0  0  0  0  # atno 11005 bound_to 11000
  144.6841  139.9651  143.7481 LP  0  0  0  0  0  0  0  0  0  0  0  0  # atno 17320 bound_to 7965
  146.0314  139.3339  143.0752 LP  0  0  0  0  0  0  0  0  0  0  0  0  # atno 17321 bound_to 7965
  139.5091  144.3588  152.0582 LP  0  0  0  0  0  0  0  0  0  0  0  0  # atno 17342 bound_to 10162
  140.2720  144.3954  150.6148 LP  0  0  0  0  0  0  0  0  0  0  0  0  # atno 17343 bound_to 10162
  156.0207  130.3796  150.1971 LP  0  0  0  0  0  0  0  0  0  0  0  0  # atno 17370 bound_to 10713
  157.0160  130.9965  151.3353 LP  0  0  0  0  0  0  0  0  0  0  0  0  # atno 17371 bound_to 10713
  140.2526  134.8529  157.3682 LP  0  0  0  0  0  0  0  0  0  0  0  0  # atno 17394 bound_to 11000
  140.1688  134.4635  155.7845 LP  0  0  0  0  0  0  0  0  0  0  0  0  # atno 17395 bound_to 11000

$$$$
