AV-unprocessed.smi:2850|AV-procd|sdf|10970|dock5
  -GOLD-   2272015423D 1   1.00000     0.00000
 Structure written by MMmdl.
 44 45  0  0  0  0  0  0  0  0  1 V2000
  144.3366  134.5757  152.3807 C   0  0  0  0  0  0  0  0  0  0  0  0
  143.6545  136.0980  153.0955 S   0  0  0  0  0  0  0  0  0  0  0  0
  144.9419  137.3089  153.0718 C   0  0  0  0  0  0  0  0  0  0  0  0
  145.6750  137.5535  151.8967 C   0  0  0  0  0  0  0  0  0  0  0  0
  146.6812  138.5331  151.9642 C   0  0  0  0  0  0  0  0  0  0  0  0
  146.8758  139.1888  153.1969 C   0  0  0  0  0  0  0  0  0  0  0  0
  147.8688  140.1727  153.2936 N   0  0  0  0  0  0  0  0  0  0  0  0
  147.9970  140.9731  154.5036 C   0  0  0  0  0  0  0  0  0  0  0  0
  149.4590  141.0976  154.9524 C   0  0  1  0  0  0  0  0  0  0  0  0
  149.5628  141.6867  156.3728 C   0  0  0  0  0  0  0  0  0  0  0  0
  150.9405  141.7448  156.8495 N   0  0  0  0  0  0  0  0  0  0  0  0
  150.9993  142.3178  158.1954 C   0  0  0  0  0  0  0  0  0  0  0  0
  152.3067  143.0536  158.5595 C   0  0  0  0  0  0  0  0  0  0  0  0
  152.4522  143.1621  160.0845 C   0  0  0  0  0  0  0  0  0  0  0  0
  152.3761  144.4465  157.9126 C   0  0  0  0  0  0  0  0  0  0  0  0
  151.5216  140.4061  156.7790 C   0  0  0  0  0  0  0  0  0  0  0  0
  151.4085  139.8057  155.3675 C   0  0  0  0  0  0  0  0  0  0  0  0
  150.0445  139.7977  154.9598 O   0  0  0  0  0  0  0  0  0  0  0  0
  146.1258  138.8979  154.2906 N   0  0  0  0  0  0  0  0  0  0  0  0
  145.1675  137.9669  154.2314 N   0  0  0  0  0  0  0  0  0  0  0  0
  143.5767  133.7947  152.3688 H   0  0  0  0  0  0  0  0  0  0  0  0
  145.1835  134.2230  152.9695 H   0  0  0  0  0  0  0  0  0  0  0  0
  144.6689  134.7487  151.3569 H   0  0  0  0  0  0  0  0  0  0  0  0
  145.4752  137.0145  150.9823 H   0  0  0  0  0  0  0  0  0  0  0  0
  147.2813  138.7715  151.0981 H   0  0  0  0  0  0  0  0  0  0  0  0
  148.6054  140.2137  152.6042 H   0  0  0  0  0  0  0  0  0  0  0  0
  147.5948  141.9673  154.3038 H   0  0  0  0  0  0  0  0  0  0  0  0
  147.3943  140.5355  155.3006 H   0  0  0  0  0  0  0  0  0  0  0  0
  150.0008  141.7390  154.2545 H   0  0  0  0  0  0  0  0  0  0  0  0
  149.1314  142.6884  156.3768 H   0  0  0  0  0  0  0  0  0  0  0  0
  148.9613  141.0872  157.0582 H   0  0  0  0  0  0  0  0  0  0  0  0
  150.1780  143.0261  158.3143 H   0  0  0  0  0  0  0  0  0  0  0  0
  150.8144  141.5293  158.9268 H   0  0  0  0  0  0  0  0  0  0  0  0
  153.1585  142.4736  158.2060 H   0  0  0  0  0  0  0  0  0  0  0  0
  151.6363  143.7395  160.5206 H   0  0  0  0  0  0  0  0  0  0  0  0
  153.3883  143.6503  160.3574 H   0  0  0  0  0  0  0  0  0  0  0  0
  152.4484  142.1765  160.5509 H   0  0  0  0  0  0  0  0  0  0  0  0
  151.5453  145.0749  158.2347 H   0  0  0  0  0  0  0  0  0  0  0  0
  152.3411  144.3805  156.8249 H   0  0  0  0  0  0  0  0  0  0  0  0
  153.3022  144.9573  158.1774 H   0  0  0  0  0  0  0  0  0  0  0  0
  152.5738  140.4324  157.0595 H   0  0  0  0  0  0  0  0  0  0  0  0
  151.0224  139.7475  157.4915 H   0  0  0  0  0  0  0  0  0  0  0  0
  152.0054  140.3772  154.6549 H   0  0  0  0  0  0  0  0  0  0  0  0
  151.7897  138.7845  155.3584 H   0  0  0  0  0  0  0  0  0  0  0  0
  1  2  1  0  0  0  0
  1 21  1  0  0  0  0
  1 22  1  0  0  0  0
  1 23  1  0  0  0  0
  2  3  1  0  0  0  0
  3 20  1  0  0  0  0
  3  4  2  0  0  0  0
  4  5  1  0  0  0  0
  4 24  1  0  0  0  0
  5  6  2  0  0  0  0
  5 25  1  0  0  0  0
  6  7  1  0  0  0  0
  6 19  1  0  0  0  0
  7  8  1  0  0  0  0
  7 26  1  0  0  0  0
  8  9  1  0  0  0  0
  8 27  1  0  0  0  0
  8 28  1  0  0  0  0
  9 18  1  0  0  0  0
  9 10  1  0  0  0  0
  9 29  1  0  0  0  0
 10 11  1  0  0  0  0
 10 30  1  0  0  0  0
 10 31  1  0  0  0  0
 11 12  1  0  0  0  0
 11 16  1  0  0  0  0
 12 13  1  0  0  0  0
 12 32  1  0  0  0  0
 12 33  1  0  0  0  0
 13 14  1  0  0  0  0
 13 15  1  0  0  0  0
 13 34  1  0  0  0  0
 14 35  1  0  0  0  0
 14 36  1  0  0  0  0
 14 37  1  0  0  0  0
 15 38  1  0  0  0  0
 15 39  1  0  0  0  0
 15 40  1  0  0  0  0
 16 17  1  0  0  0  0
 16 41  1  0  0  0  0
 16 42  1  0  0  0  0
 17 18  1  0  0  0  0
 17 43  1  0  0  0  0
 17 44  1  0  0  0  0
 19 20  2  0  0  0  0
M  END
> <s_m_source_file>
AV-unprocessed.smi

> <i_m_source_file_index>
2850

> <i_lp_mmshare_version>
43012

> <i_f3d_flags>
0

> <s_epik_input>
W0NIM11TYzFbY0hdW2NIXWMobm4xKVtOSF1bQ0gyXVtDQEBIXTJbQ0gyXU4oW0NIMl1bQ0gyXU8yKVtDSDJdW0NIXShbQ0gzXSlbQ0gzXQ==

> <s_epik_cmdline>
J2VwaWtfcHl0aG9uJywgJy1waCcsICc3LjAnLCAnLXRuJywgJzgnLCAnLW1hJywgJzIwMCcsICctbWV0YWxfYmluZGluZycsICctaW1hZScsICc8aW5maWxlLm1hZT4nLCAnLW9tYWUnLCAnPG91dGZpbGUubWFlPic=

> <r_lp_tautomer_probability>
0.999978

> <r_epik_Ionization_Penalty>
1.20939

> <r_epik_Ionization_Penalty_Charging>
0

> <r_epik_Ionization_Penalty_Neutral>
1.20939

> <r_epik_State_Penalty>
1.27042

> <r_epik_Charging_Adjusted_Penalty>
1.27042

> <i_epik_Tot_Q>
0

> <i_epik_Tot_abs_Q>
0

> <r_epik_Metal_State_Penalty>
1.26998

> <b_epik_Metal_Only>
0

> <s_lp_Force_Field>
OPLS_2005

> <r_lp_Energy>
30.7386

> <b_lp_Chiralities_Consistent>
1

> <s_lp_Variant>
AV-unprocessed.smi:2850-6

> <Gold.Version>
5.8.1

> <Gold.Id.Protein>
6NUR|6NUR_protein|mol2

> <Gold.PLP.Fitness>
41.3059

> <Gold.PLP.PLP>
-39.7099

> <Gold.PLP.part.hbond>
-1.4529

> <Gold.PLP.part.metal>
0.0000

> <Gold.PLP.part.buried>
1.7286

> <Gold.PLP.part.nonpolar>
-41.0987

> <Gold.PLP.part.repulsive>
0.5388

> <Gold.PLP.ligand.clash>
0.0000

> <Gold.PLP.ligand.torsion>
0.7427

> <Gold.PLP.Chemscore.Hbond>
1.0000

> <Gold.PLP.Chemscore.CHOScore>
0.0000

> <Gold.PLP.Chemscore.Metal>
0.0000

> <Gold.Chemscore.Hbonds>
donor molecule, donor type, donor heavy atom, donor atom, acceptor molecule, acceptor atom, score
      L1  H     7    26       P1  7957  1.00

> <Gold.PLP.Chemscore.Internal.Correction>
0.0814

> <Gold.Rescore>
     Score         DG    S(hbond)    S(metal)    S(lipo)     H(rot)  DE(clash)    DE(int)     intcor
     16.23     -17.07       0.98        0.00     104.83       1.55       0.07       0.77       ----

> <Gold.Chemscore.Fitness>
16.2322

> <Gold.Chemscore.DG>
-17.0736

> <Gold.Chemscore.ZeroCoef>
-5.4800

> <Gold.Chemscore.Hbond>
0.9848

> <Gold.Chemscore.Metal>
0.0000

> <Gold.Chemscore.Lipo>
104.8333

> <Gold.Chemscore.Internal_Hbond>
0.0000

> <Gold.Chemscore.DEClash>
0.0719

> <Gold.Chemscore.DEInternal>
0.7695

> <Gold.Chemscore.Rot>
1.5473

> <Gold.Chemscore.Internal.Correction>
   9.000000E+99

> <Gold.Chemscore.Hbonds>
donor molecule, donor type, donor heavy atom, donor atom, acceptor molecule, acceptor atom, score
      L1  H     7    26       P1  7957  1.00

> <Gold.Chemscore.Hbond.Weighted>
-3.2891

> <Gold.Chemscore.Metal.Weighted>
-0.0000

> <Gold.Chemscore.Lipo.Weighted>
-12.2655

> <Gold.Chemscore.Internal_Hbond.Weighted>
0.0000

> <Gold.Chemscore.DEClash.Weighted>
0.0719

> <Gold.Chemscore.DEInternal.Weighted>
0.7695

> <Gold.Chemscore.Rot.Weighted>
3.9610

> <Gold.Chemscore.Internal.Correction.Weighted>
   9.000000E+99

> <Gold.Protein.RotatedTorsions>
[ 6907 6896 6895 6894 ] final -120.02 input  -60.11 | X-H torsion
[ 7974 7965 7964 7962 ] final   74.49 input  175.53 | X-H torsion
[ 8008 7997 7996 7995 ] final   26.45 input   59.86 | X-H torsion
[ 10167 10162 10161 10158 ] final   41.01 input  -65.29 | X-H torsion
[ 10718 10713 10712 10709 ] final  130.94 input   66.30 | X-H torsion
[ 10763 10752 10751 10750 ] final   74.94 input  -60.55 | X-H torsion
[ 11005 11000 10999 10996 ] final  155.00 input  -57.11 | X-H torsion

> <Gold.Protein.ActiveResidues>
 VAL166  LYS551  ARG553  GLY616  TRP617  ASP618  TYR619  PRO620  LYS621  CYS622 
 ASP623  PHE694  ASN695  SER759  ASP760  ASP761  ALA762  ILE779  LEU786  VAL792 
 PHE793  MET794  SER795  GLU796  ALA797  LYS798  CYS799  TRP800  GLU811  SER814 

> <Gold.Protein.RotatedAtoms>
  150.8356  133.8019  159.3080 H   0  0  0  0  0  0  0  0  0  0  0  0  # atno 6907 bound_to 6896
  151.5736  135.1060  160.0010 H   0  0  0  0  0  0  0  0  0  0  0  0  # atno 6908 bound_to 6896
  152.4429  133.7439  159.6713 H   0  0  0  0  0  0  0  0  0  0  0  0  # atno 6909 bound_to 6896
  145.7276  139.2671  143.1560 H   0  0  0  0  0  0  0  0  0  0  0  0  # atno 7974 bound_to 7965
  155.0275  140.3155  155.4770 H   0  0  0  0  0  0  0  0  0  0  0  0  # atno 8008 bound_to 7997
  156.2880  140.2186  156.5337 H   0  0  0  0  0  0  0  0  0  0  0  0  # atno 8009 bound_to 7997
  154.7399  140.0474  157.0789 H   0  0  0  0  0  0  0  0  0  0  0  0  # atno 8010 bound_to 7997
  140.3686  144.2135  150.6134 H   0  0  0  0  0  0  0  0  0  0  0  0  # atno 10167 bound_to 10162
  157.5014  131.1094  150.9421 H   0  0  0  0  0  0  0  0  0  0  0  0  # atno 10718 bound_to 10713
  153.0621  135.5007  154.8116 H   0  0  0  0  0  0  0  0  0  0  0  0  # atno 10763 bound_to 10752
  154.6898  135.2982  154.9498 H   0  0  0  0  0  0  0  0  0  0  0  0  # atno 10764 bound_to 10752
  154.0257  135.6736  153.4829 H   0  0  0  0  0  0  0  0  0  0  0  0  # atno 10765 bound_to 10752
  140.1541  134.8654  157.2492 H   0  0  0  0  0  0  0  0  0  0  0  0  # atno 11005 bound_to 11000
  146.0568  140.8013  142.9754 LP  0  0  0  0  0  0  0  0  0  0  0  0  # atno 17320 bound_to 7965
  144.6901  140.3135  143.7244 LP  0  0  0  0  0  0  0  0  0  0  0  0  # atno 17321 bound_to 7965
  140.5056  143.2305  151.8613 LP  0  0  0  0  0  0  0  0  0  0  0  0  # atno 17342 bound_to 10162
  139.4806  144.5009  151.9061 LP  0  0  0  0  0  0  0  0  0  0  0  0  # atno 17343 bound_to 10162
  157.0090  130.5629  149.5319 LP  0  0  0  0  0  0  0  0  0  0  0  0  # atno 17370 bound_to 10713
  156.0232  130.5326  150.8333 LP  0  0  0  0  0  0  0  0  0  0  0  0  # atno 17371 bound_to 10713
  140.2569  134.3617  155.7421 LP  0  0  0  0  0  0  0  0  0  0  0  0  # atno 17394 bound_to 11000
  141.2202  133.7347  156.9020 LP  0  0  0  0  0  0  0  0  0  0  0  0  # atno 17395 bound_to 11000

$$$$
