AV-unprocessed.smi:2906|AV-procd|sdf|11163|dock1
  -GOLD-   2272016 53D 1   1.00000     0.00000
 Structure written by MMmdl.
 40 41  0  0  0  0  0  0  0  0  1 V2000
  151.5059  141.3824  157.3700 C   0  0  0  0  0  0  0  0  0  0  0  0
  150.1608  141.5249  156.6397 C   0  0  0  0  0  0  0  0  0  0  0  0
  150.0914  140.7507  155.3125 C   0  0  0  0  0  0  0  0  0  0  0  0
  151.0789  140.1335  154.9099 O   0  0  0  0  0  0  0  0  0  0  0  0
  148.9329  140.7742  154.6211 N   0  0  0  0  0  0  0  0  0  0  0  0
  147.7387  141.4832  155.0727 C   0  0  0  0  0  0  0  0  0  0  0  0
  146.6125  141.0515  154.1334 C   0  0  0  0  0  0  0  0  0  0  0  0
  147.3230  140.6127  152.8560 C   0  0  2  0  0  0  0  0  0  0  0  0
  146.5739  139.5784  152.1497 N   0  0  0  0  0  0  0  0  0  0  0  0
  146.2738  138.3734  152.6549 C   0  0  0  0  0  0  0  0  0  0  0  0
  146.6013  138.0127  153.7858 O   0  0  0  0  0  0  0  0  0  0  0  0
  145.5795  137.6338  151.7724 N   0  0  0  0  0  0  0  0  0  0  0  0
  145.0771  136.3163  151.9362 C   0  0  0  0  0  0  0  0  0  0  0  0
  145.0463  135.3956  150.9663 N   0  0  0  0  0  0  0  0  0  0  0  0
  144.5029  134.1838  151.4039 C   0  0  0  0  0  0  0  0  0  0  0  0
  144.3919  133.0298  150.4544 C   0  0  0  0  0  0  0  0  0  0  0  0
  145.7615  132.4644  150.0623 C   0  0  0  0  0  0  0  0  0  0  0  0
  144.1220  134.2053  152.7236 C   0  0  0  0  0  0  0  0  0  0  0  0
  144.4328  135.7502  153.4694 S   0  0  0  0  0  0  0  0  0  0  0  0
  148.6916  140.1134  153.3400 C   0  0  0  0  0  0  0  0  0  0  0  0
  151.5044  141.9605  158.2942 H   0  0  0  0  0  0  0  0  0  0  0  0
  152.3323  141.7443  156.7572 H   0  0  0  0  0  0  0  0  0  0  0  0
  151.7090  140.3437  157.6336 H   0  0  0  0  0  0  0  0  0  0  0  0
  149.3603  141.1755  157.2925 H   0  0  0  0  0  0  0  0  0  0  0  0
  149.9754  142.5819  156.4453 H   0  0  0  0  0  0  0  0  0  0  0  0
  147.4962  141.2582  156.1126 H   0  0  0  0  0  0  0  0  0  0  0  0
  147.9134  142.5570  154.9906 H   0  0  0  0  0  0  0  0  0  0  0  0
  146.0838  140.2075  154.5792 H   0  0  0  0  0  0  0  0  0  0  0  0
  145.8833  141.8433  153.9593 H   0  0  0  0  0  0  0  0  0  0  0  0
  147.4618  141.4859  152.2154 H   0  0  0  0  0  0  0  0  0  0  0  0
  146.2664  139.7957  151.2131 H   0  0  0  0  0  0  0  0  0  0  0  0
  145.3868  138.0629  150.8795 H   0  0  0  0  0  0  0  0  0  0  0  0
  143.7912  132.2360  150.8995 H   0  0  0  0  0  0  0  0  0  0  0  0
  143.8594  133.3380  149.5540 H   0  0  0  0  0  0  0  0  0  0  0  0
  145.6532  131.6252  149.3750 H   0  0  0  0  0  0  0  0  0  0  0  0
  146.3059  132.1103  150.9381 H   0  0  0  0  0  0  0  0  0  0  0  0
  146.3740  133.2204  149.5701 H   0  0  0  0  0  0  0  0  0  0  0  0
  143.6803  133.4069  153.3014 H   0  0  0  0  0  0  0  0  0  0  0  0
  149.4676  140.3392  152.6072 H   0  0  0  0  0  0  0  0  0  0  0  0
  148.6822  139.0339  153.5016 H   0  0  0  0  0  0  0  0  0  0  0  0
  1  2  1  0  0  0  0
  1 21  1  0  0  0  0
  1 22  1  0  0  0  0
  1 23  1  0  0  0  0
  2  3  1  0  0  0  0
  2 24  1  0  0  0  0
  2 25  1  0  0  0  0
  3  4  2  0  0  0  0
  3  5  1  0  0  0  0
  5 20  1  0  0  0  0
  5  6  1  0  0  0  0
  6  7  1  0  0  0  0
  6 26  1  0  0  0  0
  6 27  1  0  0  0  0
  7  8  1  0  0  0  0
  7 28  1  0  0  0  0
  7 29  1  0  0  0  0
  8  9  1  0  0  0  0
  8 20  1  0  0  0  0
  8 30  1  0  0  0  0
  9 10  1  0  0  0  0
  9 31  1  0  0  0  0
 10 11  2  0  0  0  0
 10 12  1  0  0  0  0
 12 13  1  0  0  0  0
 12 32  1  0  0  0  0
 13 19  1  0  0  0  0
 13 14  2  0  0  0  0
 14 15  1  0  0  0  0
 15 16  1  0  0  0  0
 15 18  2  0  0  0  0
 16 17  1  0  0  0  0
 16 33  1  0  0  0  0
 16 34  1  0  0  0  0
 17 35  1  0  0  0  0
 17 36  1  0  0  0  0
 17 37  1  0  0  0  0
 18 19  1  0  0  0  0
 18 38  1  0  0  0  0
 20 39  1  0  0  0  0
 20 40  1  0  0  0  0
M  END
> <s_m_source_file>
AV-unprocessed.smi

> <i_m_source_file_index>
2906

> <i_lp_mmshare_version>
43012

> <i_f3d_flags>
0

> <s_epik_input>
W0NIM11bQ0gyXUMoPU8pTjFbQ0gyXVtDSDJdW0NASF0oW0NIMl0xKVtOSF1DKD1PKVtOSF1jMm5jKFtjSF1zMilbQ0gyXVtDSDNd

> <s_epik_cmdline>
J2VwaWtfcHl0aG9uJywgJy1waCcsICc3LjAnLCAnLXRuJywgJzgnLCAnLW1hJywgJzIwMCcsICctbWV0YWxfYmluZGluZycsICctaW1hZScsICc8aW5maWxlLm1hZT4nLCAnLW9tYWUnLCAnPG91dGZpbGUubWFlPic=

> <r_lp_tautomer_probability>
1

> <r_epik_Ionization_Penalty>
0.000174744

> <r_epik_Ionization_Penalty_Charging>
0

> <r_epik_Ionization_Penalty_Neutral>
0.000174744

> <r_epik_State_Penalty>
-0

> <r_epik_Charging_Adjusted_Penalty>
0

> <i_epik_Tot_Q>
0

> <i_epik_Tot_abs_Q>
0

> <r_epik_Metal_State_Penalty>
0.0273865

> <b_epik_Metal_Only>
0

> <s_lp_Force_Field>
OPLS_2005

> <r_lp_Energy>
21.1229

> <b_lp_Chiralities_Consistent>
1

> <s_lp_Variant>
AV-unprocessed.smi:2906-2

> <Gold.Version>
5.8.1

> <Gold.Id.Protein>
6NUR|6NUR_protein|mol2

> <Gold.PLP.Fitness>
40.2591

> <Gold.PLP.PLP>
-32.6501

> <Gold.PLP.part.hbond>
-3.4993

> <Gold.PLP.part.metal>
0.0000

> <Gold.PLP.part.buried>
-0.0364

> <Gold.PLP.part.nonpolar>
-30.2355

> <Gold.PLP.part.repulsive>
0.5639

> <Gold.PLP.ligand.clash>
0.0000

> <Gold.PLP.ligand.torsion>
0.3532

> <Gold.PLP.Chemscore.Hbond>
1.7680

> <Gold.PLP.Chemscore.CHOScore>
1.0000

> <Gold.PLP.Chemscore.Metal>
0.0000

> <Gold.Chemscore.Hbonds>
donor molecule, donor type, donor heavy atom, donor atom, acceptor molecule, acceptor atom, score
      L1  H    12    32       P1 10171  0.80
      P1  H  7989  7998       L1     4  1.00
      L1  C    18    38       P1 10957  1.00

> <Gold.PLP.Chemscore.Internal.Correction>
0.0115

> <Gold.Rescore>
     Score         DG    S(hbond)    S(metal)    S(lipo)     H(rot)  DE(clash)    DE(int)     intcor
     13.32     -16.34       1.92        0.00      68.77       1.41       1.55       1.47       ----

> <Gold.Chemscore.Fitness>
13.3224

> <Gold.Chemscore.DG>
-16.3399

> <Gold.Chemscore.ZeroCoef>
-5.4800

> <Gold.Chemscore.Hbond>
1.9234

> <Gold.Chemscore.Metal>
0.0000

> <Gold.Chemscore.Lipo>
68.7677

> <Gold.Chemscore.Internal_Hbond>
0.0000

> <Gold.Chemscore.DEClash>
1.5516

> <Gold.Chemscore.DEInternal>
1.4659

> <Gold.Chemscore.Rot>
1.4102

> <Gold.Chemscore.Internal.Correction>
   9.000000E+99

> <Gold.Chemscore.Hbonds>
donor molecule, donor type, donor heavy atom, donor atom, acceptor molecule, acceptor atom, score
      L1  H    12    32       P1 10171  0.79
      P1  H  7989  7998       L1     4  0.70

> <Gold.Chemscore.Hbond.Weighted>
-6.4241

> <Gold.Chemscore.Metal.Weighted>
-0.0000

> <Gold.Chemscore.Lipo.Weighted>
-8.0458

> <Gold.Chemscore.Internal_Hbond.Weighted>
0.0000

> <Gold.Chemscore.DEClash.Weighted>
1.5516

> <Gold.Chemscore.DEInternal.Weighted>
1.4659

> <Gold.Chemscore.Rot.Weighted>
3.6101

> <Gold.Chemscore.Internal.Correction.Weighted>
   9.000000E+99

> <Gold.Protein.RotatedTorsions>
[ 6907 6896 6895 6894 ] final  -53.30 input  -60.11 | X-H torsion
[ 7974 7965 7964 7962 ] final -177.14 input  175.53 | X-H torsion
[ 8008 7997 7996 7995 ] final   32.09 input   59.86 | X-H torsion
[ 10167 10162 10161 10158 ] final   89.38 input  -65.29 | X-H torsion
[ 10718 10713 10712 10709 ] final   15.86 input   66.30 | X-H torsion
[ 10763 10752 10751 10750 ] final  162.03 input  -60.55 | X-H torsion
[ 11005 11000 10999 10996 ] final  -43.98 input  -57.11 | X-H torsion

> <Gold.Protein.ActiveResidues>
 VAL166  LYS551  ARG553  GLY616  TRP617  ASP618  TYR619  PRO620  LYS621  CYS622 
 ASP623  PHE694  ASN695  SER759  ASP760  ASP761  ALA762  ILE779  LEU786  VAL792 
 PHE793  MET794  SER795  GLU796  ALA797  LYS798  CYS799  TRP800  GLU811  SER814 

> <Gold.Protein.RotatedAtoms>
  150.8439  134.7741  159.6954 H   0  0  0  0  0  0  0  0  0  0  0  0  # atno 6907 bound_to 6896
  152.4520  134.5369  159.9837 H   0  0  0  0  0  0  0  0  0  0  0  0  # atno 6908 bound_to 6896
  151.5503  133.3380  159.2987 H   0  0  0  0  0  0  0  0  0  0  0  0  # atno 6909 bound_to 6896
  144.7127  140.1064  143.6413 H   0  0  0  0  0  0  0  0  0  0  0  0  # atno 7974 bound_to 7965
  155.1169  140.3244  155.4507 H   0  0  0  0  0  0  0  0  0  0  0  0  # atno 8008 bound_to 7997
  156.2674  140.2034  156.6240 H   0  0  0  0  0  0  0  0  0  0  0  0  # atno 8009 bound_to 7997
  154.6713  140.0536  157.0155 H   0  0  0  0  0  0  0  0  0  0  0  0  # atno 8010 bound_to 7997
  139.8578  144.6560  150.9093 H   0  0  0  0  0  0  0  0  0  0  0  0  # atno 10167 bound_to 10162
  157.0596  130.6303  149.5783 H   0  0  0  0  0  0  0  0  0  0  0  0  # atno 10718 bound_to 10713
  154.2720  135.2765  155.2734 H   0  0  0  0  0  0  0  0  0  0  0  0  # atno 10763 bound_to 10752
  154.5293  135.5734  153.6749 H   0  0  0  0  0  0  0  0  0  0  0  0  # atno 10764 bound_to 10752
  152.9943  135.6224  154.2875 H   0  0  0  0  0  0  0  0  0  0  0  0  # atno 10765 bound_to 10752
  141.0420  133.6776  156.2809 H   0  0  0  0  0  0  0  0  0  0  0  0  # atno 11005 bound_to 11000
  145.9493  139.2723  143.1222 LP  0  0  0  0  0  0  0  0  0  0  0  0  # atno 17320 bound_to 7965
  145.9340  140.9028  143.0342 LP  0  0  0  0  0  0  0  0  0  0  0  0  # atno 17321 bound_to 7965
  140.7779  143.3770  151.1545 LP  0  0  0  0  0  0  0  0  0  0  0  0  # atno 17342 bound_to 10162
  139.7402  143.8936  152.3047 LP  0  0  0  0  0  0  0  0  0  0  0  0  # atno 17343 bound_to 10162
  155.9982  130.5056  150.7563 LP  0  0  0  0  0  0  0  0  0  0  0  0  # atno 17370 bound_to 10713
  157.4965  131.0915  151.0365 LP  0  0  0  0  0  0  0  0  0  0  0  0  # atno 17371 bound_to 10713
  140.6216  134.5355  157.5548 LP  0  0  0  0  0  0  0  0  0  0  0  0  # atno 17394 bound_to 11000
  139.9283  134.8013  156.1004 LP  0  0  0  0  0  0  0  0  0  0  0  0  # atno 17395 bound_to 11000

$$$$
