AV-unprocessed.smi:2264|AV-procd|sdf|9141|dock3
  -GOLD-   2272012343D 1   1.00000     0.00000
 Structure written by MMmdl.
 44 45  0  0  0  0  0  0  0  0  1 V2000
  152.1170  145.2553  158.6723 C   0  0  0  0  0  0  0  0  0  0  0  0
  152.0175  143.7484  158.7914 C   0  0  0  0  0  0  0  0  0  0  0  0
  151.0544  143.0359  158.0515 C   0  0  0  0  0  0  0  0  0  0  0  0
  150.9633  141.6361  158.1696 C   0  0  0  0  0  0  0  0  0  0  0  0
  151.8355  140.9267  159.0338 C   0  0  0  0  0  0  0  0  0  0  0  0
  151.8016  139.5583  159.2025 O   0  0  0  0  0  0  0  0  0  0  0  0
  151.0037  138.7821  158.3174 C   0  0  0  0  0  0  0  0  0  0  0  0
  150.5075  137.5161  159.0362 C   0  0  2  0  0  0  0  0  0  0  0  0
  151.0923  136.3994  158.3964 O   0  0  0  0  0  0  0  0  0  0  0  0
  148.9672  137.3888  159.0429 C   0  0  0  0  0  0  0  0  0  0  0  0
  148.5122  136.1722  159.7355 N   0  0  0  0  0  0  0  0  0  0  0  0
  148.5080  134.9894  158.9784 C   0  0  0  0  0  0  0  0  0  0  0  0
  148.1327  133.8605  159.4847 N   0  0  0  0  0  0  0  0  0  0  0  0
  147.7182  133.7977  160.8182 C   0  0  0  0  0  0  0  0  0  0  0  0
  147.2977  132.4242  161.3110 C   0  0  0  0  0  0  0  0  0  0  0  0
  147.7019  134.9072  161.6065 C   0  0  0  0  0  0  0  0  0  0  0  0
  147.2618  134.8999  163.0650 C   0  0  0  0  0  0  0  0  0  0  0  0
  148.1296  136.1987  161.0450 C   0  0  0  0  0  0  0  0  0  0  0  0
  148.1500  137.2403  161.7037 O   0  0  0  0  0  0  0  0  0  0  0  0
  152.8002  141.6493  159.7733 C   0  0  0  0  0  0  0  0  0  0  0  0
  153.7465  140.9166  160.7058 C   0  0  0  0  0  0  0  0  0  0  0  0
  152.8886  143.0518  159.6507 C   0  0  0  0  0  0  0  0  0  0  0  0
  151.5211  145.6277  157.8385 H   0  0  0  0  0  0  0  0  0  0  0  0
  153.1520  145.5572  158.5102 H   0  0  0  0  0  0  0  0  0  0  0  0
  151.7592  145.7289  159.5867 H   0  0  0  0  0  0  0  0  0  0  0  0
  150.3797  143.5594  157.3898 H   0  0  0  0  0  0  0  0  0  0  0  0
  150.2107  141.1294  157.5852 H   0  0  0  0  0  0  0  0  0  0  0  0
  150.1596  139.3595  157.9357 H   0  0  0  0  0  0  0  0  0  0  0  0
  151.6135  138.4820  157.4635 H   0  0  0  0  0  0  0  0  0  0  0  0
  150.8914  137.5428  160.0566 H   0  0  0  0  0  0  0  0  0  0  0  0
  150.4022  135.8567  158.0471 H   0  0  0  0  0  0  0  0  0  0  0  0
  148.5370  138.2537  159.5517 H   0  0  0  0  0  0  0  0  0  0  0  0
  148.5742  137.4556  158.0260 H   0  0  0  0  0  0  0  0  0  0  0  0
  148.8445  135.0913  157.9452 H   0  0  0  0  0  0  0  0  0  0  0  0
  146.2573  132.4372  161.6363 H   0  0  0  0  0  0  0  0  0  0  0  0
  147.9215  132.1114  162.1487 H   0  0  0  0  0  0  0  0  0  0  0  0
  147.3928  131.6735  160.5253 H   0  0  0  0  0  0  0  0  0  0  0  0
  148.0770  135.2385  163.7056 H   0  0  0  0  0  0  0  0  0  0  0  0
  146.9549  133.9162  163.4165 H   0  0  0  0  0  0  0  0  0  0  0  0
  146.4183  135.5763  163.2057 H   0  0  0  0  0  0  0  0  0  0  0  0
  154.4424  141.6025  161.1900 H   0  0  0  0  0  0  0  0  0  0  0  0
  154.3280  140.1784  160.1530 H   0  0  0  0  0  0  0  0  0  0  0  0
  153.1842  140.3988  161.4833 H   0  0  0  0  0  0  0  0  0  0  0  0
  153.6266  143.5985  160.2195 H   0  0  0  0  0  0  0  0  0  0  0  0
  1  2  1  0  0  0  0
  1 23  1  0  0  0  0
  1 24  1  0  0  0  0
  1 25  1  0  0  0  0
  2 22  1  0  0  0  0
  2  3  2  0  0  0  0
  3  4  1  0  0  0  0
  3 26  1  0  0  0  0
  4  5  2  0  0  0  0
  4 27  1  0  0  0  0
  5  6  1  0  0  0  0
  5 20  1  0  0  0  0
  6  7  1  0  0  0  0
  7  8  1  0  0  0  0
  7 28  1  0  0  0  0
  7 29  1  0  0  0  0
  8  9  1  0  0  0  0
  8 10  1  0  0  0  0
  8 30  1  0  0  0  0
  9 31  1  0  0  0  0
 10 11  1  0  0  0  0
 10 32  1  0  0  0  0
 10 33  1  0  0  0  0
 11 18  1  0  0  0  0
 11 12  1  0  0  0  0
 12 13  2  0  0  0  0
 12 34  1  0  0  0  0
 13 14  1  0  0  0  0
 14 15  1  0  0  0  0
 14 16  2  0  0  0  0
 15 35  1  0  0  0  0
 15 36  1  0  0  0  0
 15 37  1  0  0  0  0
 16 17  1  0  0  0  0
 16 18  1  0  0  0  0
 17 38  1  0  0  0  0
 17 39  1  0  0  0  0
 17 40  1  0  0  0  0
 18 19  2  0  0  0  0
 20 21  1  0  0  0  0
 20 22  2  0  0  0  0
 21 41  1  0  0  0  0
 21 42  1  0  0  0  0
 21 43  1  0  0  0  0
 22 44  1  0  0  0  0
M  END
> <s_m_source_file>
AV-unprocessed.smi

> <i_m_source_file_index>
2264

> <i_lp_mmshare_version>
43012

> <i_f3d_flags>
0

> <s_epik_input>
W0NIM11jMVtjSF1bY0hdYyhjKFtDSDNdKVtjSF0xKU9bQ0gyXVtDQEhdKFtPSF0pW0NIMl1uMltjSF1uYyhbQ0gzXSljKFtDSDNdKWMyPU8=

> <s_epik_cmdline>
J2VwaWtfcHl0aG9uJywgJy1waCcsICc3LjAnLCAnLXRuJywgJzgnLCAnLW1hJywgJzIwMCcsICctbWV0YWxfYmluZGluZycsICctaW1hZScsICc8aW5maWxlLm1hZT4nLCAnLW9tYWUnLCAnPG91dGZpbGUubWFlPic=

> <r_lp_tautomer_probability>
1

> <r_epik_Ionization_Penalty>
3.7476e-05

> <r_epik_Ionization_Penalty_Charging>
8.44705e-08

> <r_epik_Ionization_Penalty_Neutral>
3.73915e-05

> <r_epik_State_Penalty>
-0

> <r_epik_Charging_Adjusted_Penalty>
8.44705e-08

> <i_epik_Tot_Q>
0

> <i_epik_Tot_abs_Q>
0

> <r_epik_Metal_State_Penalty>
-0

> <b_epik_Metal_Only>
0

> <s_lp_Force_Field>
OPLS_2005

> <r_lp_Energy>
23.9382

> <b_lp_Chiralities_Consistent>
1

> <s_lp_Variant>
AV-unprocessed.smi:2264-1

> <Gold.Version>
5.8.1

> <Gold.Id.Protein>
6NUR|6NUR_protein|mol2

> <Gold.PLP.Fitness>
49.9807

> <Gold.PLP.PLP>
-47.7144

> <Gold.PLP.part.hbond>
-2.8486

> <Gold.PLP.part.metal>
0.0000

> <Gold.PLP.part.buried>
-4.8738

> <Gold.PLP.part.nonpolar>
-39.5808

> <Gold.PLP.part.repulsive>
0.0000

> <Gold.PLP.ligand.clash>
0.0000

> <Gold.PLP.ligand.torsion>
1.3573

> <Gold.PLP.Chemscore.Hbond>
1.6344

> <Gold.PLP.Chemscore.CHOScore>
0.0000

> <Gold.PLP.Chemscore.Metal>
0.0000

> <Gold.Chemscore.Hbonds>
donor molecule, donor type, donor heavy atom, donor atom, acceptor molecule, acceptor atom, score
      P1  H  6931  6943       L1    19  0.57
      P1  H  6934  6947       L1    19  0.36

> <Gold.PLP.Chemscore.Internal.Correction>
0.0776

> <Gold.Rescore>
     Score         DG    S(hbond)    S(metal)    S(lipo)     H(rot)  DE(clash)    DE(int)     intcor
     16.50     -18.97       1.70        0.00     117.57       2.32       0.05       2.41       ----

> <Gold.Chemscore.Fitness>
16.5036

> <Gold.Chemscore.DG>
-18.9708

> <Gold.Chemscore.ZeroCoef>
-5.4800

> <Gold.Chemscore.Hbond>
1.7018

> <Gold.Chemscore.Metal>
0.0000

> <Gold.Chemscore.Lipo>
117.5658

> <Gold.Chemscore.Internal_Hbond>
0.0000

> <Gold.Chemscore.DEClash>
0.0536

> <Gold.Chemscore.DEInternal>
2.4136

> <Gold.Chemscore.Rot>
2.3236

> <Gold.Chemscore.Internal.Correction>
   9.000000E+99

> <Gold.Chemscore.Hbonds>
donor molecule, donor type, donor heavy atom, donor atom, acceptor molecule, acceptor atom, score
      P1  H  6931  6943       L1    19  0.56
      P1  H  6934  6947       L1    19  0.35

> <Gold.Chemscore.Hbond.Weighted>
-5.6840

> <Gold.Chemscore.Metal.Weighted>
-0.0000

> <Gold.Chemscore.Lipo.Weighted>
-13.7552

> <Gold.Chemscore.Internal_Hbond.Weighted>
0.0000

> <Gold.Chemscore.DEClash.Weighted>
0.0536

> <Gold.Chemscore.DEInternal.Weighted>
2.4136

> <Gold.Chemscore.Rot.Weighted>
5.9484

> <Gold.Chemscore.Internal.Correction.Weighted>
   9.000000E+99

> <Gold.Protein.RotatedTorsions>
[ 6907 6896 6895 6894 ] final   35.00 input  -60.11 | X-H torsion
[ 7974 7965 7964 7962 ] final -127.18 input  175.53 | X-H torsion
[ 8008 7997 7996 7995 ] final  -95.98 input   59.86 | X-H torsion
[ 10167 10162 10161 10158 ] final  154.60 input  -65.29 | X-H torsion
[ 10718 10713 10712 10709 ] final   48.57 input   66.30 | X-H torsion
[ 10763 10752 10751 10750 ] final -167.20 input  -60.55 | X-H torsion
[ 11005 11000 10999 10996 ] final -105.27 input  -57.11 | X-H torsion

> <Gold.Protein.ActiveResidues>
 VAL166  LYS551  ARG553  GLY616  TRP617  ASP618  TYR619  PRO620  LYS621  CYS622 
 ASP623  PHE694  ASN695  SER759  ASP760  ASP761  ALA762  ILE779  LEU786  VAL792 
 PHE793  MET794  SER795  GLU796  ALA797  LYS798  CYS799  TRP800  GLU811  SER814 

> <Gold.Protein.RotatedAtoms>
  152.1101  134.9280  160.0566 H   0  0  0  0  0  0  0  0  0  0  0  0  # atno 6907 bound_to 6896
  152.0461  133.3994  159.4365 H   0  0  0  0  0  0  0  0  0  0  0  0  # atno 6908 bound_to 6896
  150.6843  134.3281  159.4859 H   0  0  0  0  0  0  0  0  0  0  0  0  # atno 6909 bound_to 6896
  144.9797  140.7628  143.4620 H   0  0  0  0  0  0  0  0  0  0  0  0  # atno 7974 bound_to 7965
  154.7684  140.0475  157.1031 H   0  0  0  0  0  0  0  0  0  0  0  0  # atno 8008 bound_to 7997
  154.9850  140.3106  155.4910 H   0  0  0  0  0  0  0  0  0  0  0  0  # atno 8009 bound_to 7997
  156.2917  140.2229  156.4952 H   0  0  0  0  0  0  0  0  0  0  0  0  # atno 8010 bound_to 7997
  139.4823  144.5173  151.7932 H   0  0  0  0  0  0  0  0  0  0  0  0  # atno 10167 bound_to 10162
  157.4700  130.8249  149.7978 H   0  0  0  0  0  0  0  0  0  0  0  0  # atno 10718 bound_to 10713
  154.6756  135.2946  154.9683 H   0  0  0  0  0  0  0  0  0  0  0  0  # atno 10763 bound_to 10752
  154.0695  135.6620  153.4826 H   0  0  0  0  0  0  0  0  0  0  0  0  # atno 10764 bound_to 10752
  153.0514  135.5171  154.7774 H   0  0  0  0  0  0  0  0  0  0  0  0  # atno 10765 bound_to 10752
  141.1061  133.8793  157.1713 H   0  0  0  0  0  0  0  0  0  0  0  0  # atno 11005 bound_to 11000
  145.2439  139.2060  143.4978 LP  0  0  0  0  0  0  0  0  0  0  0  0  # atno 17320 bound_to 7965
  146.3405  140.2339  142.8594 LP  0  0  0  0  0  0  0  0  0  0  0  0  # atno 17321 bound_to 7965
  140.4682  144.1624  150.5914 LP  0  0  0  0  0  0  0  0  0  0  0  0  # atno 17342 bound_to 10162
  140.4411  143.2526  151.9472 LP  0  0  0  0  0  0  0  0  0  0  0  0  # atno 17343 bound_to 10162
  156.0069  130.3851  150.2400 LP  0  0  0  0  0  0  0  0  0  0  0  0  # atno 17370 bound_to 10713
  157.0582  131.0082  151.3231 LP  0  0  0  0  0  0  0  0  0  0  0  0  # atno 17371 bound_to 10713
  139.9932  135.0056  157.0023 LP  0  0  0  0  0  0  0  0  0  0  0  0  # atno 17394 bound_to 11000
  140.4898  134.1205  155.7230 LP  0  0  0  0  0  0  0  0  0  0  0  0  # atno 17395 bound_to 11000

$$$$
