AV-unprocessed.smi:2858|AV-procd|sdf|11000|dock7
  -GOLD-   2272015453D 1   1.00000     0.00000
 Structure written by MMmdl.
 40 41  0  0  0  0  0  0  0  0  2 V2000
  149.4817  135.3815  156.7208 O   0  0  0  0  0  0  0  0  0  0  0  0
  149.7244  136.2999  155.9423 C   0  0  0  0  0  0  0  0  0  0  0  0
  148.5759  137.1791  155.4240 C   0  0  0  0  0  0  0  0  0  0  0  0
  148.9281  137.9890  154.2290 N   0  3  1  0  0  0  0  0  0  0  0  0
  147.8291  138.9023  153.8278 C   0  0  0  0  0  0  0  0  0  0  0  0
  147.8066  140.1946  154.6611 C   0  0  0  0  0  0  0  0  0  0  0  0
  148.7119  141.2871  154.0676 C   0  0  0  0  0  0  0  0  0  0  0  0
  149.2083  142.1945  155.0962 N   0  0  0  0  0  0  0  0  0  0  0  0
  150.0300  141.8418  156.0960 C   0  0  0  0  0  0  0  0  0  0  0  0
  150.4630  140.6982  156.2422 O   0  0  0  0  0  0  0  0  0  0  0  0
  150.3104  142.8890  156.8919 N   0  0  0  0  0  0  0  0  0  0  0  0
  151.1445  142.9181  158.0416 C   0  0  0  0  0  0  0  0  0  0  0  0
  151.3452  141.6673  158.6683 C   0  0  0  0  0  0  0  0  0  0  0  0
  152.1559  141.5903  159.8175 C   0  0  0  0  0  0  0  0  0  0  0  0
  152.7474  142.7673  160.3097 C   0  0  0  0  0  0  0  0  0  0  0  0
  152.4969  143.9713  159.6262 C   0  0  0  0  0  0  0  0  0  0  0  0
  151.7190  144.0478  158.5257 N   0  0  0  0  0  0  0  0  0  0  0  0
  150.2367  138.6678  154.3911 C   0  0  0  0  0  0  0  0  0  0  0  0
  151.3517  137.6284  154.6011 C   0  0  0  0  0  0  0  0  0  0  0  0
  150.9744  136.5653  155.5295 N   0  0  0  0  0  0  0  0  0  0  0  0
  147.7224  136.5411  155.1903 H   0  0  0  0  0  0  0  0  0  0  0  0
  148.2681  137.8423  156.2339 H   0  0  0  0  0  0  0  0  0  0  0  0
  147.9616  139.1789  152.7808 H   0  0  0  0  0  0  0  0  0  0  0  0
  146.8725  138.3814  153.8909 H   0  0  0  0  0  0  0  0  0  0  0  0
  146.7883  140.5755  154.7312 H   0  0  0  0  0  0  0  0  0  0  0  0
  148.1245  139.9760  155.6816 H   0  0  0  0  0  0  0  0  0  0  0  0
  149.5708  140.8323  153.5734 H   0  0  0  0  0  0  0  0  0  0  0  0
  148.1773  141.8532  153.3028 H   0  0  0  0  0  0  0  0  0  0  0  0
  148.8980  143.1541  155.0485 H   0  0  0  0  0  0  0  0  0  0  0  0
  149.8795  143.7681  156.6471 H   0  0  0  0  0  0  0  0  0  0  0  0
  150.8839  140.7724  158.2764 H   0  0  0  0  0  0  0  0  0  0  0  0
  152.3213  140.6443  160.3114 H   0  0  0  0  0  0  0  0  0  0  0  0
  153.3763  142.7483  161.1874 H   0  0  0  0  0  0  0  0  0  0  0  0
  152.9322  144.8975  159.9710 H   0  0  0  0  0  0  0  0  0  0  0  0
  150.4785  139.2799  153.5230 H   0  0  0  0  0  0  0  0  0  0  0  0
  150.1856  139.3423  155.2476 H   0  0  0  0  0  0  0  0  0  0  0  0
  151.5988  137.1597  153.6479 H   0  0  0  0  0  0  0  0  0  0  0  0
  152.2610  138.1136  154.9564 H   0  0  0  0  0  0  0  0  0  0  0  0
  151.7201  135.9816  155.8817 H   0  0  0  0  0  0  0  0  0  0  0  0
  149.0411  137.3286  153.4732 H   0  0  0  0  0  0  0  0  0  0  0  0
  1  2  2  0  0  0  0
  2 20  1  0  0  0  0
  2  3  1  0  0  0  0
  3  4  1  0  0  0  0
  3 21  1  0  0  0  0
  3 22  1  0  0  0  0
  4  5  1  0  0  0  0
  4 18  1  0  0  0  0
  4 40  1  0  0  0  0
  5  6  1  0  0  0  0
  5 23  1  0  0  0  0
  5 24  1  0  0  0  0
  6  7  1  0  0  0  0
  6 25  1  0  0  0  0
  6 26  1  0  0  0  0
  7  8  1  0  0  0  0
  7 27  1  0  0  0  0
  7 28  1  0  0  0  0
  8  9  1  0  0  0  0
  8 29  1  0  0  0  0
  9 10  2  0  0  0  0
  9 11  1  0  0  0  0
 11 12  1  0  0  0  0
 11 30  1  0  0  0  0
 12 17  1  0  0  0  0
 12 13  2  0  0  0  0
 13 14  1  0  0  0  0
 13 31  1  0  0  0  0
 14 15  2  0  0  0  0
 14 32  1  0  0  0  0
 15 16  1  0  0  0  0
 15 33  1  0  0  0  0
 16 17  2  0  0  0  0
 16 34  1  0  0  0  0
 18 19  1  0  0  0  0
 18 35  1  0  0  0  0
 18 36  1  0  0  0  0
 19 20  1  0  0  0  0
 19 37  1  0  0  0  0
 19 38  1  0  0  0  0
 20 39  1  0  0  0  0
M  CHG  1   4   1
M  END
> <s_m_source_file>
AV-unprocessed.smi

> <i_m_source_file_index>
2858

> <i_lp_mmshare_version>
43012

> <i_f3d_flags>
0

> <s_epik_input>
Tz1DMVtDSDJdTihbQ0gyXVtDSDJdW05IXTEpW0NIMl1bQ0gyXVtDSDJdW05IXUMoPU8pW05IXWMyW2NIXVtjSF1bY0hdW2NIXW4y

> <s_epik_cmdline>
J2VwaWtfcHl0aG9uJywgJy1waCcsICc3LjAnLCAnLXRuJywgJzgnLCAnLW1hJywgJzIwMCcsICctbWV0YWxfYmluZGluZycsICctaW1hZScsICc8aW5maWxlLm1hZT4nLCAnLW9tYWUnLCAnPG91dGZpbGUubWFlPic=

> <r_epik_Ionization_Penalty>
0.11034

> <r_epik_Ionization_Penalty_Charging>
0.110189

> <r_epik_Ionization_Penalty_Neutral>
0.000150894

> <r_epik_State_Penalty>
0.0999426

> <r_epik_Charging_Adjusted_Penalty>
0.210132

> <i_epik_Tot_Q>
1

> <i_epik_Tot_abs_Q>
1

> <r_epik_Metal_State_Penalty>
0.172915

> <b_epik_Metal_Only>
0

> <s_lp_Force_Field>
OPLS_2005

> <r_lp_Energy>
20.0709

> <b_lp_Chiralities_Consistent>
1

> <s_lp_Variant>
AV-unprocessed.smi:2858-2

> <Gold.Version>
5.8.1

> <Gold.Id.Protein>
6NUR|6NUR_protein|mol2

> <Gold.PLP.Fitness>
46.6933

> <Gold.PLP.PLP>
-35.8602

> <Gold.PLP.part.hbond>
-3.0000

> <Gold.PLP.part.metal>
0.0000

> <Gold.PLP.part.buried>
-6.3316

> <Gold.PLP.part.nonpolar>
-28.0811

> <Gold.PLP.part.repulsive>
1.0490

> <Gold.PLP.ligand.clash>
0.0000

> <Gold.PLP.ligand.torsion>
0.6016

> <Gold.PLP.Chemscore.Hbond>
4.0000

> <Gold.PLP.Chemscore.CHOScore>
0.0000

> <Gold.PLP.Chemscore.Metal>
0.0000

> <Gold.Chemscore.Hbonds>
donor molecule, donor type, donor heavy atom, donor atom, acceptor molecule, acceptor atom, score
      L1  H     4    40       P1  7948  2.00
      L1  H     8    29       P1  8028  1.00
      L1  H    11    30       P1  8028  1.00

> <Gold.PLP.Chemscore.Internal.Correction>
0.0363

> <Gold.Rescore>
     Score         DG    S(hbond)    S(metal)    S(lipo)     H(rot)  DE(clash)    DE(int)     intcor
     16.06     -19.32       2.94        0.00      79.74       2.08       0.04       3.23       ----

> <Gold.Chemscore.Fitness>
16.0587

> <Gold.Chemscore.DG>
-19.3248

> <Gold.Chemscore.ZeroCoef>
-5.4800

> <Gold.Chemscore.Hbond>
2.9442

> <Gold.Chemscore.Metal>
0.0000

> <Gold.Chemscore.Lipo>
79.7440

> <Gold.Chemscore.Internal_Hbond>
0.0000

> <Gold.Chemscore.DEClash>
0.0359

> <Gold.Chemscore.DEInternal>
3.2302

> <Gold.Chemscore.Rot>
2.0777

> <Gold.Chemscore.Internal.Correction>
   9.000000E+99

> <Gold.Chemscore.Hbonds>
donor molecule, donor type, donor heavy atom, donor atom, acceptor molecule, acceptor atom, score
      L1  H     4    40       P1  7948  0.99
      L1  H     8    29       P1  8028  0.96
      L1  H    11    30       P1  8028  0.97

> <Gold.Chemscore.Hbond.Weighted>
-9.8335

> <Gold.Chemscore.Metal.Weighted>
-0.0000

> <Gold.Chemscore.Lipo.Weighted>
-9.3300

> <Gold.Chemscore.Internal_Hbond.Weighted>
0.0000

> <Gold.Chemscore.DEClash.Weighted>
0.0359

> <Gold.Chemscore.DEInternal.Weighted>
3.2302

> <Gold.Chemscore.Rot.Weighted>
5.3188

> <Gold.Chemscore.Internal.Correction.Weighted>
   9.000000E+99

> <Gold.Protein.RotatedTorsions>
[ 6907 6896 6895 6894 ] final  101.29 input  -60.11 | X-H torsion
[ 7974 7965 7964 7962 ] final   74.70 input  175.53 | X-H torsion
[ 8008 7997 7996 7995 ] final   63.32 input   59.86 | X-H torsion
[ 10167 10162 10161 10158 ] final -109.62 input  -65.29 | X-H torsion
[ 10718 10713 10712 10709 ] final  -97.77 input   66.30 | X-H torsion
[ 10763 10752 10751 10750 ] final  100.21 input  -60.55 | X-H torsion
[ 11005 11000 10999 10996 ] final -139.88 input  -57.11 | X-H torsion

> <Gold.Protein.ActiveResidues>
 VAL166  LYS551  ARG553  GLY616  TRP617  ASP618  TYR619  PRO620  LYS621  CYS622 
 ASP623  PHE694  ASN695  SER759  ASP760  ASP761  ALA762  ILE779  LEU786  VAL792 
 PHE793  MET794  SER795  GLU796  ALA797  LYS798  CYS799  TRP800  GLU811  SER814 

> <Gold.Protein.RotatedAtoms>
  152.5353  134.0149  159.7954 H   0  0  0  0  0  0  0  0  0  0  0  0  # atno 6907 bound_to 6896
  151.0345  133.5753  159.2664 H   0  0  0  0  0  0  0  0  0  0  0  0  # atno 6908 bound_to 6896
  151.2745  135.0702  159.9200 H   0  0  0  0  0  0  0  0  0  0  0  0  # atno 6909 bound_to 6896
  145.7250  139.2662  143.1574 H   0  0  0  0  0  0  0  0  0  0  0  0  # atno 7974 bound_to 7965
  155.6284  140.3496  155.4675 H   0  0  0  0  0  0  0  0  0  0  0  0  # atno 8008 bound_to 7997
  156.0023  140.1216  157.0559 H   0  0  0  0  0  0  0  0  0  0  0  0  # atno 8009 bound_to 7997
  154.4253  140.1098  156.5700 H   0  0  0  0  0  0  0  0  0  0  0  0  # atno 8010 bound_to 7997
  140.1533  143.4181  152.1479 H   0  0  0  0  0  0  0  0  0  0  0  0  # atno 10167 bound_to 10162
  156.0091  130.5209  150.6423 H   0  0  0  0  0  0  0  0  0  0  0  0  # atno 10718 bound_to 10713
  153.3111  135.4086  155.1337 H   0  0  0  0  0  0  0  0  0  0  0  0  # atno 10763 bound_to 10752
  154.8576  135.3565  154.5722 H   0  0  0  0  0  0  0  0  0  0  0  0  # atno 10764 bound_to 10752
  153.6151  135.7066  153.5390 H   0  0  0  0  0  0  0  0  0  0  0  0  # atno 10765 bound_to 10752
  140.8477  134.2324  157.4777 H   0  0  0  0  0  0  0  0  0  0  0  0  # atno 11005 bound_to 11000
  146.0591  140.7990  142.9744 LP  0  0  0  0  0  0  0  0  0  0  0  0  # atno 17320 bound_to 7965
  144.6907  140.3169  143.7239 LP  0  0  0  0  0  0  0  0  0  0  0  0  # atno 17321 bound_to 7965
  139.5415  144.7261  151.4718 LP  0  0  0  0  0  0  0  0  0  0  0  0  # atno 17342 bound_to 10162
  140.6689  143.8338  150.6975 LP  0  0  0  0  0  0  0  0  0  0  0  0  # atno 17343 bound_to 10162
  157.4201  131.0835  151.1139 LP  0  0  0  0  0  0  0  0  0  0  0  0  # atno 17370 bound_to 10713
  157.1744  130.6281  149.5651 LP  0  0  0  0  0  0  0  0  0  0  0  0  # atno 17371 bound_to 10713
  139.8703  134.9667  156.4573 LP  0  0  0  0  0  0  0  0  0  0  0  0  # atno 17394 bound_to 11000
  140.8825  133.7907  155.9482 LP  0  0  0  0  0  0  0  0  0  0  0  0  # atno 17395 bound_to 11000

$$$$
