AV-unprocessed.smi:2032|AV-procd|sdf|8238|dock3
  -GOLD-   2272010503D 1   1.00000     0.00000
 Structure written by MMmdl.
 43 44  0  0  0  0  0  0  0  0  2 V2000
  148.5922  141.6062  154.4031 C   0  0  0  0  0  0  0  0  0  0  0  0
  149.1369  140.2245  154.7823 C   0  0  1  0  0  0  0  0  0  0  0  0
  148.6367  139.1230  153.8198 C   0  0  0  0  0  0  0  0  0  0  0  0
  149.2584  137.8030  154.1192 N   0  3  2  0  0  0  0  0  0  0  0  0
  148.6671  137.0927  155.3035 C   0  0  2  0  0  0  0  0  0  0  0  0
  149.5847  135.9792  155.8646 C   0  0  0  0  0  0  0  0  0  0  0  0
  147.2753  136.5008  154.9466 C   0  0  0  0  0  0  0  0  0  0  0  0
  147.2915  135.6837  153.7363 N   0  0  0  0  0  0  0  0  0  0  0  0
  146.2518  134.9681  153.2837 C   0  0  0  0  0  0  0  0  0  0  0  0
  145.1560  134.9407  153.8454 O   0  0  0  0  0  0  0  0  0  0  0  0
  146.5698  134.2983  152.1622 N   0  0  0  0  0  0  0  0  0  0  0  0
  145.7639  133.3919  151.4246 C   0  0  0  0  0  0  0  0  0  0  0  0
  146.2076  132.6426  150.4084 N   0  0  0  0  0  0  0  0  0  0  0  0
  145.1957  131.8492  149.8618 C   0  0  0  0  0  0  0  0  0  0  0  0
  143.9789  132.0104  150.4765 C   0  0  0  0  0  0  0  0  0  0  0  0
  144.0562  133.1701  151.7760 S   0  0  0  0  0  0  0  0  0  0  0  0
  150.7374  137.9688  154.1072 C   0  0  0  0  0  0  0  0  0  0  0  0
  151.1815  139.0587  155.1033 C   0  0  1  0  0  0  0  0  0  0  0  0
  152.6994  139.2700  155.0864 C   0  0  0  0  0  0  0  0  0  0  0  0
  150.5590  140.2851  154.7353 O   0  0  0  0  0  0  0  0  0  0  0  0
  147.5025  141.6220  154.4378 H   0  0  0  0  0  0  0  0  0  0  0  0
  148.8992  141.8899  153.3961 H   0  0  0  0  0  0  0  0  0  0  0  0
  148.9564  142.3705  155.0901 H   0  0  0  0  0  0  0  0  0  0  0  0
  148.8239  140.0089  155.8045 H   0  0  0  0  0  0  0  0  0  0  0  0
  147.5501  139.0775  153.8305 H   0  0  0  0  0  0  0  0  0  0  0  0
  148.9048  139.3938  152.7974 H   0  0  0  0  0  0  0  0  0  0  0  0
  148.5405  137.8200  156.1043 H   0  0  0  0  0  0  0  0  0  0  0  0
  149.1128  135.4385  156.6845 H   0  0  0  0  0  0  0  0  0  0  0  0
  150.5095  136.3806  156.2782 H   0  0  0  0  0  0  0  0  0  0  0  0
  149.8399  135.2486  155.0966 H   0  0  0  0  0  0  0  0  0  0  0  0
  146.8687  135.8864  155.7479 H   0  0  0  0  0  0  0  0  0  0  0  0
  146.5596  137.3094  154.7951 H   0  0  0  0  0  0  0  0  0  0  0  0
  148.1552  135.6563  153.2138 H   0  0  0  0  0  0  0  0  0  0  0  0
  147.5043  134.4340  151.8057 H   0  0  0  0  0  0  0  0  0  0  0  0
  145.4295  131.1969  149.0333 H   0  0  0  0  0  0  0  0  0  0  0  0
  143.0457  131.5194  150.2439 H   0  0  0  0  0  0  0  0  0  0  0  0
  151.2634  137.0302  154.2742 H   0  0  0  0  0  0  0  0  0  0  0  0
  151.0309  138.2715  153.1008 H   0  0  0  0  0  0  0  0  0  0  0  0
  150.8830  138.7908  156.1182 H   0  0  0  0  0  0  0  0  0  0  0  0
  153.2251  138.3577  155.3697 H   0  0  0  0  0  0  0  0  0  0  0  0
  152.9913  140.0523  155.7874 H   0  0  0  0  0  0  0  0  0  0  0  0
  153.0476  139.5634  154.0955 H   0  0  0  0  0  0  0  0  0  0  0  0
  149.0511  137.2051  153.3320 H   0  0  0  0  0  0  0  0  0  0  0  0
  1  2  1  0  0  0  0
  1 21  1  0  0  0  0
  1 22  1  0  0  0  0
  1 23  1  0  0  0  0
  2 20  1  0  0  0  0
  2  3  1  0  0  0  0
  2 24  1  0  0  0  0
  3  4  1  0  0  0  0
  3 25  1  0  0  0  0
  3 26  1  0  0  0  0
  4  5  1  0  0  0  0
  4 17  1  0  0  0  0
  4 43  1  0  0  0  0
  5  6  1  0  0  0  0
  5  7  1  0  0  0  0
  5 27  1  0  0  0  0
  6 28  1  0  0  0  0
  6 29  1  0  0  0  0
  6 30  1  0  0  0  0
  7  8  1  0  0  0  0
  7 31  1  0  0  0  0
  7 32  1  0  0  0  0
  8  9  1  0  0  0  0
  8 33  1  0  0  0  0
  9 10  2  0  0  0  0
  9 11  1  0  0  0  0
 11 12  1  0  0  0  0
 11 34  1  0  0  0  0
 12 16  1  0  0  0  0
 12 13  2  0  0  0  0
 13 14  1  0  0  0  0
 14 15  2  0  0  0  0
 14 35  1  0  0  0  0
 15 16  1  0  0  0  0
 15 36  1  0  0  0  0
 17 18  1  0  0  0  0
 17 37  1  0  0  0  0
 17 38  1  0  0  0  0
 18 19  1  0  0  0  0
 18 20  1  0  0  0  0
 18 39  1  0  0  0  0
 19 40  1  0  0  0  0
 19 41  1  0  0  0  0
 19 42  1  0  0  0  0
M  CHG  1   4   1
M  END
> <s_m_source_file>
AV-unprocessed.smi

> <i_m_source_file_index>
2032

> <i_lp_mmshare_version>
43012

> <i_f3d_flags>
0

> <s_epik_input>
W0NIM11bQ0BASF0xW0NIMl1OKFtDSDJdW0NASF0oTzEpW0NIM10pW0NASF0oW0NIM10pW0NIMl1bTkhdQyg9TylbTkhdYzJuW2NIXVtjSF1zMg==

> <s_epik_cmdline>
J2VwaWtfcHl0aG9uJywgJy1waCcsICc3LjAnLCAnLXRuJywgJzgnLCAnLW1hJywgJzIwMCcsICctbWV0YWxfYmluZGluZycsICctaW1hZScsICc8aW5maWxlLm1hZT4nLCAnLW9tYWUnLCAnPG91dGZpbGUubWFlPic=

> <r_lp_tautomer_probability>
0.999

> <r_epik_Ionization_Penalty>
0.695838

> <r_epik_Ionization_Penalty_Charging>
0.695697

> <r_epik_Ionization_Penalty_Neutral>
0.000141198

> <r_epik_State_Penalty>
0.717972

> <r_epik_Charging_Adjusted_Penalty>
1.41367

> <i_epik_Tot_Q>
1

> <i_epik_Tot_abs_Q>
1

> <r_epik_Metal_State_Penalty>
0.756405

> <b_epik_Metal_Only>
0

> <s_lp_Force_Field>
OPLS_2005

> <r_lp_Energy>
19.2739

> <b_lp_Chiralities_Consistent>
1

> <s_lp_Variant>
AV-unprocessed.smi:2032-8

> <Gold.Version>
5.8.1

> <Gold.Id.Protein>
6NUR|6NUR_protein|mol2

> <Gold.PLP.Fitness>
48.9903

> <Gold.PLP.PLP>
-34.1826

> <Gold.PLP.part.hbond>
-3.8914

> <Gold.PLP.part.metal>
0.0000

> <Gold.PLP.part.buried>
-1.7929

> <Gold.PLP.part.nonpolar>
-28.3248

> <Gold.PLP.part.repulsive>
0.3751

> <Gold.PLP.ligand.clash>
0.0000

> <Gold.PLP.ligand.torsion>
0.4978

> <Gold.PLP.Chemscore.Hbond>
4.4680

> <Gold.PLP.Chemscore.CHOScore>
0.7790

> <Gold.PLP.Chemscore.Metal>
0.0000

> <Gold.Chemscore.Hbonds>
donor molecule, donor type, donor heavy atom, donor atom, acceptor molecule, acceptor atom, score
      L1  H     4    43       P1  7948  2.00
      L1  H     8    33       P1  7948  0.91
      L1  H    11    34       P1  7948  0.30
      P1  H  7989  7998       L1    20  1.00
      L1  C    15    36       P1 10952  0.82

> <Gold.PLP.Chemscore.Internal.Correction>
0.0624

> <Gold.Rescore>
     Score         DG    S(hbond)    S(metal)    S(lipo)     H(rot)  DE(clash)    DE(int)     intcor
     18.46     -20.49       3.00        0.00      77.95       1.61       0.19       1.84       ----

> <Gold.Chemscore.Fitness>
18.4624

> <Gold.Chemscore.DG>
-20.4926

> <Gold.Chemscore.ZeroCoef>
-5.4800

> <Gold.Chemscore.Hbond>
2.9988

> <Gold.Chemscore.Metal>
0.0000

> <Gold.Chemscore.Lipo>
77.9546

> <Gold.Chemscore.Internal_Hbond>
0.0000

> <Gold.Chemscore.DEClash>
0.1903

> <Gold.Chemscore.DEInternal>
1.8399

> <Gold.Chemscore.Rot>
1.6110

> <Gold.Chemscore.Internal.Correction>
   9.000000E+99

> <Gold.Chemscore.Hbonds>
donor molecule, donor type, donor heavy atom, donor atom, acceptor molecule, acceptor atom, score
      L1  H     4    43       P1  7948  1.00
      L1  H     8    33       P1  7948  0.89
      L1  H    11    34       P1  7948  0.12
      P1  H  7989  7998       L1    20  0.34

> <Gold.Chemscore.Hbond.Weighted>
-10.0161

> <Gold.Chemscore.Metal.Weighted>
-0.0000

> <Gold.Chemscore.Lipo.Weighted>
-9.1207

> <Gold.Chemscore.Internal_Hbond.Weighted>
0.0000

> <Gold.Chemscore.DEClash.Weighted>
0.1903

> <Gold.Chemscore.DEInternal.Weighted>
1.8399

> <Gold.Chemscore.Rot.Weighted>
4.1242

> <Gold.Chemscore.Internal.Correction.Weighted>
   9.000000E+99

> <Gold.Protein.RotatedTorsions>
[ 6907 6896 6895 6894 ] final   15.10 input  -60.11 | X-H torsion
[ 7974 7965 7964 7962 ] final  147.02 input  175.53 | X-H torsion
[ 8008 7997 7996 7995 ] final -156.08 input   59.86 | X-H torsion
[ 10167 10162 10161 10158 ] final   74.62 input  -65.29 | X-H torsion
[ 10718 10713 10712 10709 ] final -162.67 input   66.30 | X-H torsion
[ 10763 10752 10751 10750 ] final   26.45 input  -60.55 | X-H torsion
[ 11005 11000 10999 10996 ] final  -78.51 input  -57.11 | X-H torsion

> <Gold.Protein.ActiveResidues>
 VAL166  LYS551  ARG553  GLY616  TRP617  ASP618  TYR619  PRO620  LYS621  CYS622 
 ASP623  PHE694  ASN695  SER759  ASP760  ASP761  ALA762  ILE779  LEU786  VAL792 
 PHE793  MET794  SER795  GLU796  ALA797  LYS798  CYS799  TRP800  GLU811  SER814 

> <Gold.Protein.RotatedAtoms>
  151.8128  135.0675  160.0414 H   0  0  0  0  0  0  0  0  0  0  0  0  # atno 6907 bound_to 6896
  152.3008  133.5649  159.5625 H   0  0  0  0  0  0  0  0  0  0  0  0  # atno 6908 bound_to 6896
  150.7272  134.0210  159.3743 H   0  0  0  0  0  0  0  0  0  0  0  0  # atno 6909 bound_to 6896
  144.8624  139.5977  143.5924 H   0  0  0  0  0  0  0  0  0  0  0  0  # atno 7974 bound_to 7965
  155.7117  140.0779  157.2368 H   0  0  0  0  0  0  0  0  0  0  0  0  # atno 8008 bound_to 7997
  154.4057  140.1629  156.2357 H   0  0  0  0  0  0  0  0  0  0  0  0  # atno 8009 bound_to 7997
  155.9277  140.3393  155.6226 H   0  0  0  0  0  0  0  0  0  0  0  0  # atno 8010 bound_to 7997
  140.0117  144.5609  150.7653 H   0  0  0  0  0  0  0  0  0  0  0  0  # atno 10167 bound_to 10162
  156.6137  130.8861  151.2942 H   0  0  0  0  0  0  0  0  0  0  0  0  # atno 10718 bound_to 10713
  153.0622  135.6560  154.0437 H   0  0  0  0  0  0  0  0  0  0  0  0  # atno 10763 bound_to 10752
  154.0102  135.2929  155.3394 H   0  0  0  0  0  0  0  0  0  0  0  0  # atno 10764 bound_to 10752
  154.6965  135.5262  153.8533 H   0  0  0  0  0  0  0  0  0  0  0  0  # atno 10765 bound_to 10752
  141.1665  133.7066  156.7982 H   0  0  0  0  0  0  0  0  0  0  0  0  # atno 11005 bound_to 11000
  146.2871  139.7033  142.9188 LP  0  0  0  0  0  0  0  0  0  0  0  0  # atno 17320 bound_to 7965
  145.4286  141.0413  143.2923 LP  0  0  0  0  0  0  0  0  0  0  0  0  # atno 17321 bound_to 7965
  140.7378  143.2771  151.3710 LP  0  0  0  0  0  0  0  0  0  0  0  0  # atno 17342 bound_to 10162
  139.6200  144.0926  152.2382 LP  0  0  0  0  0  0  0  0  0  0  0  0  # atno 17343 bound_to 10162
  157.7247  130.9606  150.1584 LP  0  0  0  0  0  0  0  0  0  0  0  0  # atno 17370 bound_to 10713
  156.2368  130.3687  149.8382 LP  0  0  0  0  0  0  0  0  0  0  0  0  # atno 17371 bound_to 10713
  140.2275  134.8710  157.3442 LP  0  0  0  0  0  0  0  0  0  0  0  0  # atno 17394 bound_to 11000
  140.1924  134.4355  155.7708 LP  0  0  0  0  0  0  0  0  0  0  0  0  # atno 17395 bound_to 11000

$$$$
