AV-unprocessed.smi:3129|AV-procd|sdf|11923|dock3
  -GOLD-   2272017303D 1   1.00000     0.00000
 Structure written by MMmdl.
 40 40  0  0  0  0  0  0  0  0  2 V2000
  150.1729  136.7281  155.5903 C   0  0  0  0  0  0  0  0  0  0  0  0
  150.7805  137.9719  154.9182 C   0  0  0  0  0  0  0  0  0  0  0  0
  152.0203  138.4511  155.6877 C   0  0  0  0  0  0  0  0  0  0  0  0
  149.7585  139.1145  154.7633 C   0  0  0  0  0  0  0  0  0  0  0  0
  148.7004  138.7643  153.8241 N   0  0  0  0  0  0  0  0  0  0  0  0
  147.4094  138.6185  154.1551 C   0  0  0  0  0  0  0  0  0  0  0  0
  146.9866  138.7672  155.3023 O   0  0  0  0  0  0  0  0  0  0  0  0
  146.4522  138.2322  153.0183 C   0  0  1  0  0  0  0  0  0  0  0  0
  146.9850  138.7671  151.6803 C   0  0  0  0  0  0  0  0  0  0  0  0
  146.2672  136.7661  152.9313 N   0  3  0  0  0  0  0  0  0  0  0  0
  145.1038  136.3246  152.1307 C   0  0  0  0  0  0  0  0  0  0  0  0
  145.5487  135.5942  150.8515 C   0  0  0  0  0  0  0  0  0  0  0  0
  145.3324  134.1578  150.9125 N   0  0  0  0  0  0  0  0  0  0  0  0
  144.1418  133.4686  150.8127 C   0  0  0  0  0  0  0  0  0  0  0  0
  144.4269  132.1403  150.9485 C   0  0  0  0  0  0  0  0  0  0  0  0
  145.8357  132.1150  151.1454 C   0  0  0  0  0  0  0  0  0  0  0  0
  146.3728  133.3241  151.1325 N   0  0  0  0  0  0  0  0  0  0  0  0
  149.7979  136.9612  156.5874 H   0  0  0  0  0  0  0  0  0  0  0  0
  150.9162  135.9369  155.6930 H   0  0  0  0  0  0  0  0  0  0  0  0
  149.3454  136.3192  155.0104 H   0  0  0  0  0  0  0  0  0  0  0  0
  151.1116  137.6798  153.9207 H   0  0  0  0  0  0  0  0  0  0  0  0
  151.7626  138.7585  156.7018 H   0  0  0  0  0  0  0  0  0  0  0  0
  152.4885  139.3013  155.1907 H   0  0  0  0  0  0  0  0  0  0  0  0
  152.7685  137.6612  155.7593 H   0  0  0  0  0  0  0  0  0  0  0  0
  149.3172  139.3569  155.7316 H   0  0  0  0  0  0  0  0  0  0  0  0
  150.2599  140.0161  154.4074 H   0  0  0  0  0  0  0  0  0  0  0  0
  148.9723  138.6170  152.8628 H   0  0  0  0  0  0  0  0  0  0  0  0
  145.4778  138.6883  153.2025 H   0  0  0  0  0  0  0  0  0  0  0  0
  147.1026  139.8515  151.7035 H   0  0  0  0  0  0  0  0  0  0  0  0
  146.2999  138.5327  150.8648 H   0  0  0  0  0  0  0  0  0  0  0  0
  147.9548  138.3330  151.4325 H   0  0  0  0  0  0  0  0  0  0  0  0
  147.0964  136.3670  152.5159 H   0  0  0  0  0  0  0  0  0  0  0  0
  144.4607  135.6756  152.7263 H   0  0  0  0  0  0  0  0  0  0  0  0
  144.5057  137.1965  151.8644 H   0  0  0  0  0  0  0  0  0  0  0  0
  145.0026  135.9828  149.9910 H   0  0  0  0  0  0  0  0  0  0  0  0
  146.6064  135.7804  150.6615 H   0  0  0  0  0  0  0  0  0  0  0  0
  143.2005  133.9739  150.6525 H   0  0  0  0  0  0  0  0  0  0  0  0
  143.7339  131.3125  150.9177 H   0  0  0  0  0  0  0  0  0  0  0  0
  146.4787  131.2611  151.3004 H   0  0  0  0  0  0  0  0  0  0  0  0
  146.1702  136.4060  153.8704 H   0  0  0  0  0  0  0  0  0  0  0  0
  1  2  1  0  0  0  0
  1 18  1  0  0  0  0
  1 19  1  0  0  0  0
  1 20  1  0  0  0  0
  2  3  1  0  0  0  0
  2  4  1  0  0  0  0
  2 21  1  0  0  0  0
  3 22  1  0  0  0  0
  3 23  1  0  0  0  0
  3 24  1  0  0  0  0
  4  5  1  0  0  0  0
  4 25  1  0  0  0  0
  4 26  1  0  0  0  0
  5  6  1  0  0  0  0
  5 27  1  0  0  0  0
  6  7  2  0  0  0  0
  6  8  1  0  0  0  0
  8  9  1  0  0  0  0
  8 10  1  0  0  0  0
  8 28  1  0  0  0  0
  9 29  1  0  0  0  0
  9 30  1  0  0  0  0
  9 31  1  0  0  0  0
 10 11  1  0  0  0  0
 10 32  1  0  0  0  0
 10 40  1  0  0  0  0
 11 12  1  0  0  0  0
 11 33  1  0  0  0  0
 11 34  1  0  0  0  0
 12 13  1  0  0  0  0
 12 35  1  0  0  0  0
 12 36  1  0  0  0  0
 13 17  1  0  0  0  0
 13 14  1  0  0  0  0
 14 15  2  0  0  0  0
 14 37  1  0  0  0  0
 15 16  1  0  0  0  0
 15 38  1  0  0  0  0
 16 17  2  0  0  0  0
 16 39  1  0  0  0  0
M  CHG  1  10   1
M  END
> <s_m_source_file>
AV-unprocessed.smi

> <i_m_source_file_index>
3129

> <i_lp_mmshare_version>
43012

> <i_f3d_flags>
0

> <s_epik_input>
W0NIM11bQ0hdKFtDSDNdKVtDSDJdW05IXUMoPU8pW0NASF0oW0NIM10pW05IXVtDSDJdW0NIMl1uMVtjSF1bY0hdW2NIXW4x

> <s_epik_cmdline>
J2VwaWtfcHl0aG9uJywgJy1waCcsICc3LjAnLCAnLXRuJywgJzgnLCAnLW1hJywgJzIwMCcsICctbWV0YWxfYmluZGluZycsICctaW1hZScsICc8aW5maWxlLm1hZT4nLCAnLW9tYWUnLCAnPG91dGZpbGUubWFlPic=

> <r_lp_tautomer_probability>
1

> <r_epik_Ionization_Penalty>
0.20724

> <r_epik_Ionization_Penalty_Charging>
0.207237

> <r_epik_Ionization_Penalty_Neutral>
3.32432e-06

> <r_epik_State_Penalty>
0.197234

> <r_epik_Charging_Adjusted_Penalty>
0.404471

> <i_epik_Tot_Q>
1

> <i_epik_Tot_abs_Q>
1

> <r_epik_Metal_State_Penalty>
0.197522

> <b_epik_Metal_Only>
0

> <s_lp_Force_Field>
OPLS_2005

> <r_lp_Energy>
6.88256

> <b_lp_Chiralities_Consistent>
1

> <s_lp_Variant>
AV-unprocessed.smi:3129-2

> <Gold.Version>
5.8.1

> <Gold.Id.Protein>
6NUR|6NUR_protein|mol2

> <Gold.PLP.Fitness>
47.9895

> <Gold.PLP.PLP>
-37.4660

> <Gold.PLP.part.hbond>
-2.9634

> <Gold.PLP.part.metal>
0.0000

> <Gold.PLP.part.buried>
-4.2667

> <Gold.PLP.part.nonpolar>
-31.0129

> <Gold.PLP.part.repulsive>
0.3414

> <Gold.PLP.ligand.clash>
0.1583

> <Gold.PLP.ligand.torsion>
1.7841

> <Gold.PLP.Chemscore.Hbond>
2.6880

> <Gold.PLP.Chemscore.CHOScore>
2.0000

> <Gold.PLP.Chemscore.Metal>
0.0000

> <Gold.Chemscore.Hbonds>
donor molecule, donor type, donor heavy atom, donor atom, acceptor molecule, acceptor atom, score
      L1  H     5    27       P1  7957  0.23
      L1  H    10    32       P1  7948  2.00
      L1  C    14    37       P1 10186  1.00
      L1  C    16    39       P1 10747  0.48

> <Gold.PLP.Chemscore.Internal.Correction>
0.1860

> <Gold.Rescore>
     Score         DG    S(hbond)    S(metal)    S(lipo)     H(rot)  DE(clash)    DE(int)     intcor
     14.75     -16.37       1.95        0.00      86.06       2.22       0.07       1.55       ----

> <Gold.Chemscore.Fitness>
14.7517

> <Gold.Chemscore.DG>
-16.3691

> <Gold.Chemscore.ZeroCoef>
-5.4800

> <Gold.Chemscore.Hbond>
1.9508

> <Gold.Chemscore.Metal>
0.0000

> <Gold.Chemscore.Lipo>
86.0605

> <Gold.Chemscore.Internal_Hbond>
0.0000

> <Gold.Chemscore.DEClash>
0.0676

> <Gold.Chemscore.DEInternal>
1.5498

> <Gold.Chemscore.Rot>
2.2249

> <Gold.Chemscore.Internal.Correction>
   9.000000E+99

> <Gold.Chemscore.Hbonds>
donor molecule, donor type, donor heavy atom, donor atom, acceptor molecule, acceptor atom, score
      L1  H     5    27       P1  7957  0.23
      L1  H    10    32       P1  7948  0.98

> <Gold.Chemscore.Hbond.Weighted>
-6.5157

> <Gold.Chemscore.Metal.Weighted>
-0.0000

> <Gold.Chemscore.Lipo.Weighted>
-10.0691

> <Gold.Chemscore.Internal_Hbond.Weighted>
0.0000

> <Gold.Chemscore.DEClash.Weighted>
0.0676

> <Gold.Chemscore.DEInternal.Weighted>
1.5498

> <Gold.Chemscore.Rot.Weighted>
5.6957

> <Gold.Chemscore.Internal.Correction.Weighted>
   9.000000E+99

> <Gold.Protein.RotatedTorsions>
[ 6907 6896 6895 6894 ] final   86.13 input  -60.11 | X-H torsion
[ 7974 7965 7964 7962 ] final  117.14 input  175.53 | X-H torsion
[ 8008 7997 7996 7995 ] final  -81.54 input   59.86 | X-H torsion
[ 10167 10162 10161 10158 ] final  -15.97 input  -65.29 | X-H torsion
[ 10718 10713 10712 10709 ] final   25.42 input   66.30 | X-H torsion
[ 10763 10752 10751 10750 ] final  171.29 input  -60.55 | X-H torsion
[ 11005 11000 10999 10996 ] final   42.17 input  -57.11 | X-H torsion

> <Gold.Protein.ActiveResidues>
 VAL166  LYS551  ARG553  GLY616  TRP617  ASP618  TYR619  PRO620  LYS621  CYS622 
 ASP623  PHE694  ASN695  SER759  ASP760  ASP761  ALA762  ILE779  LEU786  VAL792 
 PHE793  MET794  SER795  GLU796  ALA797  LYS798  CYS799  TRP800  GLU811  SER814 

> <Gold.Protein.RotatedAtoms>
  152.5388  134.2479  159.8887 H   0  0  0  0  0  0  0  0  0  0  0  0  # atno 6907 bound_to 6896
  151.2444  133.4376  159.2616 H   0  0  0  0  0  0  0  0  0  0  0  0  # atno 6908 bound_to 6896
  151.0597  134.9742  159.8310 H   0  0  0  0  0  0  0  0  0  0  0  0  # atno 6909 bound_to 6896
  145.1710  139.3101  143.4467 H   0  0  0  0  0  0  0  0  0  0  0  0  # atno 7974 bound_to 7965
  154.5994  140.0646  156.9347 H   0  0  0  0  0  0  0  0  0  0  0  0  # atno 8008 bound_to 7997
  155.2159  140.3326  155.4304 H   0  0  0  0  0  0  0  0  0  0  0  0  # atno 8009 bound_to 7997
  156.2308  140.1840  156.7231 H   0  0  0  0  0  0  0  0  0  0  0  0  # atno 8010 bound_to 7997
  140.7227  143.5163  150.9688 H   0  0  0  0  0  0  0  0  0  0  0  0  # atno 10167 bound_to 10162
  157.1931  130.6855  149.6158 H   0  0  0  0  0  0  0  0  0  0  0  0  # atno 10718 bound_to 10713
  154.4098  135.2756  155.2044 H   0  0  0  0  0  0  0  0  0  0  0  0  # atno 10763 bound_to 10752
  154.4034  135.6039  153.5914 H   0  0  0  0  0  0  0  0  0  0  0  0  # atno 10764 bound_to 10752
  152.9831  135.5932  154.4378 H   0  0  0  0  0  0  0  0  0  0  0  0  # atno 10765 bound_to 10752
  140.1764  134.4158  155.8226 H   0  0  0  0  0  0  0  0  0  0  0  0  # atno 11005 bound_to 11000
  146.3468  140.1856  142.8589 LP  0  0  0  0  0  0  0  0  0  0  0  0  # atno 17320 bound_to 7965
  145.0232  140.8811  143.5154 LP  0  0  0  0  0  0  0  0  0  0  0  0  # atno 17321 bound_to 7965
  139.8879  143.6990  152.3149 LP  0  0  0  0  0  0  0  0  0  0  0  0  # atno 17342 bound_to 10162
  139.7295  144.7585  151.0824 LP  0  0  0  0  0  0  0  0  0  0  0  0  # atno 17343 bound_to 10162
  155.9709  130.4608  150.6086 LP  0  0  0  0  0  0  0  0  0  0  0  0  # atno 17370 bound_to 10713
  157.3841  131.0785  151.1451 LP  0  0  0  0  0  0  0  0  0  0  0  0  # atno 17371 bound_to 10713
  141.2220  133.6980  156.7854 LP  0  0  0  0  0  0  0  0  0  0  0  0  # atno 17394 bound_to 11000
  140.2318  134.8680  157.3484 LP  0  0  0  0  0  0  0  0  0  0  0  0  # atno 17395 bound_to 11000

$$$$
