AV-unprocessed.smi:1982|AV-procd|sdf|8026|dock3
  -GOLD-   2272010223D 1   1.00000     0.00000
 Structure written by MMmdl.
 36 37  0  0  0  0  0  0  0  0  1 V2000
  150.7263  145.2997  160.0870 C   0  0  0  0  0  0  0  0  0  0  0  0
  151.2657  143.8621  160.0031 C   0  0  2  0  0  0  0  0  0  0  0  0
  152.6848  143.7484  160.5957 C   0  0  0  0  0  0  0  0  0  0  0  0
  153.1749  142.2922  160.6059 C   0  0  0  0  0  0  0  0  0  0  0  0
  153.0982  141.6632  159.2072 C   0  0  0  0  0  0  0  0  0  0  0  0
  151.6784  141.7756  158.6194 C   0  0  2  0  0  0  0  0  0  0  0  0
  151.6432  141.1471  157.3019 N   0  0  0  0  0  0  0  0  0  0  0  0
  150.5502  141.0014  156.5357 C   0  0  0  0  0  0  0  0  0  0  0  0
  149.4211  141.3337  156.8943 O   0  0  0  0  0  0  0  0  0  0  0  0
  150.7636  140.3940  155.1480 C   0  0  0  0  0  0  0  0  0  0  0  0
  151.5136  139.1533  155.2245 N   0  0  0  0  0  0  0  0  0  0  0  0
  151.1820  137.9065  154.8830 C   0  0  0  0  0  0  0  0  0  0  0  0
  152.1607  137.0524  155.1392 N   0  0  0  0  0  0  0  0  0  0  0  0
  153.1516  137.8601  155.6720 N   0  0  0  0  0  0  0  0  0  0  0  0
  152.7738  139.1079  155.7247 N   0  0  0  0  0  0  0  0  0  0  0  0
  151.1885  143.2505  158.5787 C   0  0  2  0  0  0  0  0  0  0  0  0
  151.9000  144.1002  157.4989 C   0  0  0  0  0  0  0  0  0  0  0  0
  151.3730  146.0073  159.5684 H   0  0  0  0  0  0  0  0  0  0  0  0
  150.6561  145.6267  161.1248 H   0  0  0  0  0  0  0  0  0  0  0  0
  149.7290  145.3724  159.6523 H   0  0  0  0  0  0  0  0  0  0  0  0
  150.6111  143.2599  160.6353 H   0  0  0  0  0  0  0  0  0  0  0  0
  153.3809  144.3672  160.0289 H   0  0  0  0  0  0  0  0  0  0  0  0
  152.6933  144.1372  161.6145 H   0  0  0  0  0  0  0  0  0  0  0  0
  154.1985  142.2464  160.9791 H   0  0  0  0  0  0  0  0  0  0  0  0
  152.5678  141.7091  161.2995 H   0  0  0  0  0  0  0  0  0  0  0  0
  153.8200  142.1477  158.5486 H   0  0  0  0  0  0  0  0  0  0  0  0
  153.3947  140.6154  159.2656 H   0  0  0  0  0  0  0  0  0  0  0  0
  151.0121  141.2122  159.2757 H   0  0  0  0  0  0  0  0  0  0  0  0
  152.5283  140.8385  156.9270 H   0  0  0  0  0  0  0  0  0  0  0  0
  149.7980  140.1974  154.6809 H   0  0  0  0  0  0  0  0  0  0  0  0
  151.2995  141.0944  154.5056 H   0  0  0  0  0  0  0  0  0  0  0  0
  150.2292  137.6264  154.4584 H   0  0  0  0  0  0  0  0  0  0  0  0
  150.1333  143.2315  158.3012 H   0  0  0  0  0  0  0  0  0  0  0  0
  152.9675  144.1994  157.6922 H   0  0  0  0  0  0  0  0  0  0  0  0
  151.4810  145.1040  157.4397 H   0  0  0  0  0  0  0  0  0  0  0  0
  151.7857  143.6655  156.5057 H   0  0  0  0  0  0  0  0  0  0  0  0
  1  2  1  0  0  0  0
  1 18  1  0  0  0  0
  1 19  1  0  0  0  0
  1 20  1  0  0  0  0
  2 16  1  0  0  0  0
  2  3  1  0  0  0  0
  2 21  1  0  0  0  0
  3  4  1  0  0  0  0
  3 22  1  0  0  0  0
  3 23  1  0  0  0  0
  4  5  1  0  0  0  0
  4 24  1  0  0  0  0
  4 25  1  0  0  0  0
  5  6  1  0  0  0  0
  5 26  1  0  0  0  0
  5 27  1  0  0  0  0
  6  7  1  0  0  0  0
  6 16  1  0  0  0  0
  6 28  1  0  0  0  0
  7  8  1  0  0  0  0
  7 29  1  0  0  0  0
  8  9  2  0  0  0  0
  8 10  1  0  0  0  0
 10 11  1  0  0  0  0
 10 30  1  0  0  0  0
 10 31  1  0  0  0  0
 11 15  1  0  0  0  0
 11 12  1  0  0  0  0
 12 13  2  0  0  0  0
 12 32  1  0  0  0  0
 13 14  1  0  0  0  0
 14 15  2  0  0  0  0
 16 17  1  0  0  0  0
 16 33  1  0  0  0  0
 17 34  1  0  0  0  0
 17 35  1  0  0  0  0
 17 36  1  0  0  0  0
M  END
> <s_m_source_file>
AV-unprocessed.smi

> <i_m_source_file_index>
1982

> <i_lp_mmshare_version>
43012

> <i_f3d_flags>
0

> <s_epik_input>
W0NIM11bQ0BASF0xW0NIMl1bQ0gyXVtDSDJdW0NASF0oW0NASF0xW0NIM10pW05IXUMoPU8pW0NIMl1uMltjSF1ubm4y

> <s_epik_cmdline>
J2VwaWtfcHl0aG9uJywgJy1waCcsICc3LjAnLCAnLXRuJywgJzgnLCAnLW1hJywgJzIwMCcsICctbWV0YWxfYmluZGluZycsICctaW1hZScsICc8aW5maWxlLm1hZT4nLCAnLW9tYWUnLCAnPG91dGZpbGUubWFlPic=

> <r_lp_tautomer_probability>
1

> <r_epik_Ionization_Penalty>
5.03816e-07

> <r_epik_Ionization_Penalty_Charging>
0

> <r_epik_Ionization_Penalty_Neutral>
5.03816e-07

> <r_epik_State_Penalty>
-0

> <r_epik_Charging_Adjusted_Penalty>
0

> <i_epik_Tot_Q>
0

> <i_epik_Tot_abs_Q>
0

> <r_epik_Metal_State_Penalty>
-0

> <b_epik_Metal_Only>
0

> <s_lp_Force_Field>
OPLS_2005

> <r_lp_Energy>
15.5937

> <b_lp_Chiralities_Consistent>
1

> <s_lp_Variant>
AV-unprocessed.smi:1982-7

> <Gold.Version>
5.8.1

> <Gold.Id.Protein>
6NUR|6NUR_protein|mol2

> <Gold.PLP.Fitness>
42.4748

> <Gold.PLP.PLP>
-36.9443

> <Gold.PLP.part.hbond>
-3.0000

> <Gold.PLP.part.metal>
0.0000

> <Gold.PLP.part.buried>
-4.0142

> <Gold.PLP.part.nonpolar>
-30.3539

> <Gold.PLP.part.repulsive>
0.2406

> <Gold.PLP.ligand.clash>
0.0000

> <Gold.PLP.ligand.torsion>
0.0855

> <Gold.PLP.Chemscore.Hbond>
1.8960

> <Gold.PLP.Chemscore.CHOScore>
0.0000

> <Gold.PLP.Chemscore.Metal>
0.0000

> <Gold.Chemscore.Hbonds>
donor molecule, donor type, donor heavy atom, donor atom, acceptor molecule, acceptor atom, score
      P1  H  7997  8010       L1    15  1.00
      P1  H 10752 10765       L1    13  0.90

> <Gold.PLP.Chemscore.Internal.Correction>
0.0135

> <Gold.Rescore>
     Score         DG    S(hbond)    S(metal)    S(lipo)     H(rot)  DE(clash)    DE(int)     intcor
     15.07     -17.32       1.70        0.00      94.39       1.91       0.10       2.15       ----

> <Gold.Chemscore.Fitness>
15.0692

> <Gold.Chemscore.DG>
-17.3153

> <Gold.Chemscore.ZeroCoef>
-5.4800

> <Gold.Chemscore.Hbond>
1.6978

> <Gold.Chemscore.Metal>
0.0000

> <Gold.Chemscore.Lipo>
94.3877

> <Gold.Chemscore.Internal_Hbond>
0.0000

> <Gold.Chemscore.DEClash>
0.0965

> <Gold.Chemscore.DEInternal>
2.1496

> <Gold.Chemscore.Rot>
1.9058

> <Gold.Chemscore.Internal.Correction>
   9.000000E+99

> <Gold.Chemscore.Hbonds>
donor molecule, donor type, donor heavy atom, donor atom, acceptor molecule, acceptor atom, score
      P1  H  7997  8010       L1    15  0.55
      P1  H 10752 10765       L1    13  0.43

> <Gold.Chemscore.Hbond.Weighted>
-5.6708

> <Gold.Chemscore.Metal.Weighted>
-0.0000

> <Gold.Chemscore.Lipo.Weighted>
-11.0434

> <Gold.Chemscore.Internal_Hbond.Weighted>
0.0000

> <Gold.Chemscore.DEClash.Weighted>
0.0965

> <Gold.Chemscore.DEInternal.Weighted>
2.1496

> <Gold.Chemscore.Rot.Weighted>
4.8788

> <Gold.Chemscore.Internal.Correction.Weighted>
   9.000000E+99

> <Gold.Protein.RotatedTorsions>
[ 6907 6896 6895 6894 ] final   52.49 input  -60.11 | X-H torsion
[ 7974 7965 7964 7962 ] final  142.33 input  175.53 | X-H torsion
[ 8008 7997 7996 7995 ] final   78.00 input   59.86 | X-H torsion
[ 10167 10162 10161 10158 ] final  146.72 input  -65.29 | X-H torsion
[ 10718 10713 10712 10709 ] final  -42.85 input   66.30 | X-H torsion
[ 10763 10752 10751 10750 ] final -174.92 input  -60.55 | X-H torsion
[ 11005 11000 10999 10996 ] final   97.07 input  -57.11 | X-H torsion

> <Gold.Protein.ActiveResidues>
 VAL166  LYS551  ARG553  GLY616  TRP617  ASP618  TYR619  PRO620  LYS621  CYS622 
 ASP623  PHE694  ASN695  SER759  ASP760  ASP761  ALA762  ILE779  LEU786  VAL792 
 PHE793  MET794  SER795  GLU796  ALA797  LYS798  CYS799  TRP800  GLU811  SER814 

> <Gold.Protein.RotatedAtoms>
  152.3238  134.7347  160.0306 H   0  0  0  0  0  0  0  0  0  0  0  0  # atno 6907 bound_to 6896
  151.7786  133.3342  159.3473 H   0  0  0  0  0  0  0  0  0  0  0  0  # atno 6908 bound_to 6896
  150.7384  134.5883  159.6019 H   0  0  0  0  0  0  0  0  0  0  0  0  # atno 6909 bound_to 6896
  144.9017  139.5414  143.5750 H   0  0  0  0  0  0  0  0  0  0  0  0  # atno 7974 bound_to 7965
  155.8496  140.3458  155.5684 H   0  0  0  0  0  0  0  0  0  0  0  0  # atno 8008 bound_to 7997
  155.8052  140.0891  157.1954 H   0  0  0  0  0  0  0  0  0  0  0  0  # atno 8009 bound_to 7997
  154.4007  140.1458  156.3309 H   0  0  0  0  0  0  0  0  0  0  0  0  # atno 8010 bound_to 7997
  139.4902  144.5808  151.6875 H   0  0  0  0  0  0  0  0  0  0  0  0  # atno 10167 bound_to 10162
  156.2552  130.4191  149.8605 H   0  0  0  0  0  0  0  0  0  0  0  0  # atno 10718 bound_to 10713
  154.5905  135.2844  155.0640 H   0  0  0  0  0  0  0  0  0  0  0  0  # atno 10763 bound_to 10752
  154.1942  135.6435  153.5072 H   0  0  0  0  0  0  0  0  0  0  0  0  # atno 10764 bound_to 10752
  153.0120  135.5453  154.6590 H   0  0  0  0  0  0  0  0  0  0  0  0  # atno 10765 bound_to 10752
  139.8778  134.8983  156.4253 H   0  0  0  0  0  0  0  0  0  0  0  0  # atno 11005 bound_to 11000
  146.3112  139.7753  142.9018 LP  0  0  0  0  0  0  0  0  0  0  0  0  # atno 17320 bound_to 7965
  145.3605  141.0325  143.3287 LP  0  0  0  0  0  0  0  0  0  0  0  0  # atno 17321 bound_to 7965
  140.5414  144.0573  150.6090 LP  0  0  0  0  0  0  0  0  0  0  0  0  # atno 17342 bound_to 10162
  140.3596  143.2915  152.0398 LP  0  0  0  0  0  0  0  0  0  0  0  0  # atno 17343 bound_to 10162
  156.6139  130.8598  151.3460 LP  0  0  0  0  0  0  0  0  0  0  0  0  # atno 17370 bound_to 10713
  157.7230  130.9583  150.1515 LP  0  0  0  0  0  0  0  0  0  0  0  0  # atno 17371 bound_to 10713
  140.9105  133.7715  155.9786 LP  0  0  0  0  0  0  0  0  0  0  0  0  # atno 17394 bound_to 11000
  140.8551  134.2907  157.5258 LP  0  0  0  0  0  0  0  0  0  0  0  0  # atno 17395 bound_to 11000

$$$$
