AV-unprocessed.smi:52|AV-procd|sdf|508|dock6
  -GOLD-   2262016383D 1   1.00000     0.00000
 Structure written by MMmdl.
 27 28  0  0  0  0  0  0  0  0  3 V2000
  150.5122  133.5496  157.2289 O   0  0  0  0  0  0  0  0  0  0  0  0
  150.3308  134.4465  156.3765 C   0  0  0  0  0  0  0  0  0  0  0  0
  151.2817  135.0865  155.8763 O   0  5  0  0  0  0  0  0  0  0  0  0
  148.9444  134.7640  155.9489 C   0  0  0  0  0  0  0  0  0  0  0  0
  147.7883  134.1883  156.4122 C   0  0  0  0  0  0  0  0  0  0  0  0
  146.7165  134.7624  155.7832 O   0  0  0  0  0  0  0  0  0  0  0  0
  147.2729  135.6774  154.9441 C   0  0  0  0  0  0  0  0  0  0  0  0
  146.3788  136.5286  154.1051 C   0  0  0  0  0  0  0  0  0  0  0  0
  146.4646  135.9261  152.7528 N   0  3  1  0  0  0  0  0  0  0  0  0
  146.1861  134.4718  152.6840 C   0  0  0  0  0  0  0  0  0  0  0  0
  145.6790  134.2280  151.2665 C   0  0  0  0  0  0  0  0  0  0  0  0
  144.8578  135.4837  150.9961 C   0  0  2  0  0  0  0  0  0  0  0  0
  144.7388  135.7505  149.6152 O   0  0  0  0  0  0  0  0  0  0  0  0
  145.6150  136.5937  151.7380 C   0  0  0  0  0  0  0  0  0  0  0  0
  148.6014  135.7173  154.9990 N   0  0  0  0  0  0  0  0  0  0  0  0
  143.8633  135.3672  151.4296 H   0  0  0  0  0  0  0  0  0  0  0  0
  147.5757  133.4181  157.1390 H   0  0  0  0  0  0  0  0  0  0  0  0
  145.3590  136.5294  154.4922 H   0  0  0  0  0  0  0  0  0  0  0  0
  146.7560  137.5519  154.1034 H   0  0  0  0  0  0  0  0  0  0  0  0
  147.0707  133.8774  152.9155 H   0  0  0  0  0  0  0  0  0  0  0  0
  145.4061  134.2073  153.4000 H   0  0  0  0  0  0  0  0  0  0  0  0
  146.5252  134.1681  150.5799 H   0  0  0  0  0  0  0  0  0  0  0  0
  145.0992  133.3091  151.1724 H   0  0  0  0  0  0  0  0  0  0  0  0
  145.4240  135.2879  149.1567 H   0  0  0  0  0  0  0  0  0  0  0  0
  144.9199  137.3106  152.1776 H   0  0  0  0  0  0  0  0  0  0  0  0
  146.2732  137.1449  151.0649 H   0  0  0  0  0  0  0  0  0  0  0  0
  147.4161  136.0502  152.4373 H   0  0  0  0  0  0  0  0  0  0  0  0
  1  2  2  0  0  0  0
  2  3  1  0  0  0  0
  2  4  1  0  0  0  0
  4 15  1  0  0  0  0
  4  5  2  0  0  0  0
  5  6  1  0  0  0  0
  5 17  1  0  0  0  0
  6  7  1  0  0  0  0
  7  8  1  0  0  0  0
  7 15  2  0  0  0  0
  8  9  1  0  0  0  0
  8 18  1  0  0  0  0
  8 19  1  0  0  0  0
  9 14  1  0  0  0  0
  9 10  1  0  0  0  0
  9 27  1  0  0  0  0
 10 11  1  0  0  0  0
 10 20  1  0  0  0  0
 10 21  1  0  0  0  0
 11 12  1  0  0  0  0
 11 22  1  0  0  0  0
 11 23  1  0  0  0  0
 12 16  1  0  0  0  0
 12 13  1  0  0  0  0
 12 14  1  0  0  0  0
 13 24  1  0  0  0  0
 14 25  1  0  0  0  0
 14 26  1  0  0  0  0
M  CHG  1   3  -1
M  CHG  1   9   1
M  END
> <s_m_source_file>
AV-unprocessed.smi

> <i_m_source_file_index>
52

> <i_lp_mmshare_version>
43012

> <i_f3d_flags>
0

> <s_epik_input>
Tz1DKFtPSF0pYzFbY0hdb2MobjEpW0NIMl1OMltDSDJdW0NIMl1bQ0BIXShbT0hdKVtDSDJdMg==

> <s_epik_cmdline>
J2VwaWtfcHl0aG9uJywgJy1waCcsICc3LjAnLCAnLXRuJywgJzgnLCAnLW1hJywgJzIwMCcsICctbWV0YWxfYmluZGluZycsICctaW1hZScsICc8aW5maWxlLm1hZT4nLCAnLW9tYWUnLCAnPG91dGZpbGUubWFlPic=

> <r_epik_Ionization_Penalty>
0.0376014

> <r_epik_Ionization_Penalty_Charging>
0.0376013

> <r_epik_Ionization_Penalty_Neutral>
1.78687e-08

> <r_epik_State_Penalty>
0.0314164

> <r_epik_Charging_Adjusted_Penalty>
0.0690177

> <i_epik_Tot_Q>
0

> <i_epik_Tot_abs_Q>
2

> <r_epik_Metal_State_Penalty>
0.0314164

> <b_epik_Metal_Only>
0

> <s_lp_Force_Field>
OPLS_2005

> <r_lp_Energy>
18.2584

> <b_lp_Chiralities_Consistent>
1

> <s_lp_Variant>
AV-unprocessed.smi:52-2

> <Gold.Version>
5.8.1

> <Gold.Id.Protein>
6NUR|6NUR_protein|mol2

> <Gold.PLP.Fitness>
37.3207

> <Gold.PLP.PLP>
-17.6534

> <Gold.PLP.part.hbond>
-5.0000

> <Gold.PLP.part.metal>
0.0000

> <Gold.PLP.part.buried>
-3.6288

> <Gold.PLP.part.nonpolar>
-10.2239

> <Gold.PLP.part.repulsive>
0.1882

> <Gold.PLP.ligand.clash>
0.0000

> <Gold.PLP.ligand.torsion>
0.2514

> <Gold.PLP.Chemscore.Hbond>
6.7200

> <Gold.PLP.Chemscore.CHOScore>
0.0000

> <Gold.PLP.Chemscore.Metal>
0.0000

> <Gold.Chemscore.Hbonds>
donor molecule, donor type, donor heavy atom, donor atom, acceptor molecule, acceptor atom, score
      L1  H     9    27       P1  7948  2.00
      L1  H    13    24       P1  7921  0.96
      P1  H  6896  6908       L1     1  1.76
      P1  H 10752 10763       L1     3  1.95

> <Gold.PLP.Chemscore.Internal.Correction>
0.0102

> <Gold.Rescore>
     Score         DG    S(hbond)    S(metal)    S(lipo)     H(rot)  DE(clash)    DE(int)     intcor
     15.38     -15.64       3.62        0.00      26.96       1.99       0.03       0.23       ----

> <Gold.Chemscore.Fitness>
15.3818

> <Gold.Chemscore.DG>
-15.6417

> <Gold.Chemscore.ZeroCoef>
-5.4800

> <Gold.Chemscore.Hbond>
3.6246

> <Gold.Chemscore.Metal>
0.0000

> <Gold.Chemscore.Lipo>
26.9614

> <Gold.Chemscore.Internal_Hbond>
0.0000

> <Gold.Chemscore.DEClash>
0.0300

> <Gold.Chemscore.DEInternal>
0.2298

> <Gold.Chemscore.Rot>
1.9919

> <Gold.Chemscore.Internal.Correction>
   9.000000E+99

> <Gold.Chemscore.Hbonds>
donor molecule, donor type, donor heavy atom, donor atom, acceptor molecule, acceptor atom, score
      L1  H     9    27       P1  7948  1.00
      L1  H    13    24       P1  7921  0.92
      P1  H  6896  6908       L1     1  0.81
      P1  H 10752 10763       L1     3  0.87

> <Gold.Chemscore.Hbond.Weighted>
-12.1063

> <Gold.Chemscore.Metal.Weighted>
-0.0000

> <Gold.Chemscore.Lipo.Weighted>
-3.1545

> <Gold.Chemscore.Internal_Hbond.Weighted>
0.0000

> <Gold.Chemscore.DEClash.Weighted>
0.0300

> <Gold.Chemscore.DEInternal.Weighted>
0.2298

> <Gold.Chemscore.Rot.Weighted>
5.0991

> <Gold.Chemscore.Internal.Correction.Weighted>
   9.000000E+99

> <Gold.Protein.RotatedTorsions>
[ 6907 6896 6895 6894 ] final  108.33 input  -60.11 | X-H torsion
[ 7974 7965 7964 7962 ] final   13.27 input  175.53 | X-H torsion
[ 8008 7997 7996 7995 ] final  118.10 input   59.86 | X-H torsion
[ 10167 10162 10161 10158 ] final  105.09 input  -65.29 | X-H torsion
[ 10718 10713 10712 10709 ] final  -56.81 input   66.30 | X-H torsion
[ 10763 10752 10751 10750 ] final   82.29 input  -60.55 | X-H torsion
[ 11005 11000 10999 10996 ] final -169.20 input  -57.11 | X-H torsion

> <Gold.Protein.ActiveResidues>
 VAL166  LYS551  ARG553  GLY616  TRP617  ASP618  TYR619  PRO620  LYS621  CYS622 
 ASP623  PHE694  ASN695  SER759  ASP760  ASP761  ALA762  ILE779  LEU786  VAL792 
 PHE793  MET794  SER795  GLU796  ALA797  LYS798  CYS799  TRP800  GLU811  SER814 

> <Gold.Protein.RotatedAtoms>
  152.5116  133.9104  159.7484 H   0  0  0  0  0  0  0  0  0  0  0  0  # atno 6907 bound_to 6896
  150.9499  133.6553  159.2781 H   0  0  0  0  0  0  0  0  0  0  0  0  # atno 6908 bound_to 6896
  151.3835  135.0949  159.9556 H   0  0  0  0  0  0  0  0  0  0  0  0  # atno 6909 bound_to 6896
  146.2333  139.9213  142.8509 H   0  0  0  0  0  0  0  0  0  0  0  0  # atno 7974 bound_to 7965
  156.2529  140.2882  156.0782 H   0  0  0  0  0  0  0  0  0  0  0  0  # atno 8008 bound_to 7997
  155.1596  140.0399  157.2857 H   0  0  0  0  0  0  0  0  0  0  0  0  # atno 8009 bound_to 7997
  154.6402  140.2520  155.7337 H   0  0  0  0  0  0  0  0  0  0  0  0  # atno 8010 bound_to 7997
  139.7122  144.7075  151.1008 H   0  0  0  0  0  0  0  0  0  0  0  0  # atno 10167 bound_to 10162
  156.1259  130.4162  150.0356 H   0  0  0  0  0  0  0  0  0  0  0  0  # atno 10718 bound_to 10713
  153.1190  135.4733  154.9164 H   0  0  0  0  0  0  0  0  0  0  0  0  # atno 10763 bound_to 10752
  154.7557  135.3118  154.8476 H   0  0  0  0  0  0  0  0  0  0  0  0  # atno 10764 bound_to 10752
  153.9046  135.6871  153.4807 H   0  0  0  0  0  0  0  0  0  0  0  0  # atno 10765 bound_to 10752
  140.5334  134.5594  157.5081 H   0  0  0  0  0  0  0  0  0  0  0  0  # atno 11005 bound_to 11000
  145.2134  140.9905  143.4087 LP  0  0  0  0  0  0  0  0  0  0  0  0  # atno 17320 bound_to 7965
  144.9672  139.3918  143.6327 LP  0  0  0  0  0  0  0  0  0  0  0  0  # atno 17321 bound_to 7965
  140.7736  143.5278  150.9460 LP  0  0  0  0  0  0  0  0  0  0  0  0  # atno 17342 bound_to 10162
  139.8963  143.6891  152.3138 LP  0  0  0  0  0  0  0  0  0  0  0  0  # atno 17343 bound_to 10162
  156.8281  130.9383  151.3638 LP  0  0  0  0  0  0  0  0  0  0  0  0  # atno 17370 bound_to 10713
  157.6441  130.8829  149.9504 LP  0  0  0  0  0  0  0  0  0  0  0  0  # atno 17371 bound_to 10713
  139.9542  134.7564  156.0379 LP  0  0  0  0  0  0  0  0  0  0  0  0  # atno 17394 bound_to 11000
  141.1269  133.6597  156.3359 LP  0  0  0  0  0  0  0  0  0  0  0  0  # atno 17395 bound_to 11000

$$$$
