AV-unprocessed.smi:2770|AV-procd|sdf|10658|dock2
  -GOLD-   2272015103D 1   1.00000     0.00000
 Structure written by MMmdl.
 34 35  0  0  0  0  0  0  0  0  1 V2000
  146.6232  142.5765  154.2783 C   0  0  0  0  0  0  0  0  0  0  0  0
  147.6271  141.8664  155.0557 N   0  0  0  0  0  0  0  0  0  0  0  0
  148.7288  141.3058  154.5364 C   0  0  0  0  0  0  0  0  0  0  0  0
  148.9930  141.3324  153.3338 O   0  0  0  0  0  0  0  0  0  0  0  0
  149.6657  140.6146  155.5336 C   0  0  2  0  0  0  0  0  0  0  0  0
  150.3026  141.6006  156.5380 C   0  0  0  0  0  0  0  0  0  0  0  0
  151.2465  140.8956  157.3964 N   0  0  0  0  0  0  0  0  0  0  0  0
  151.7769  141.6917  158.4213 C   0  0  0  0  0  0  0  0  0  0  0  0
  152.5406  141.0799  159.4374 C   0  0  0  0  0  0  0  0  0  0  0  0
  153.0691  141.8850  160.4648 C   0  0  0  0  0  0  0  0  0  0  0  0
  152.8172  143.2698  160.4404 C   0  0  0  0  0  0  0  0  0  0  0  0
  152.0430  143.7906  159.3827 C   0  0  0  0  0  0  0  0  0  0  0  0
  151.7368  145.2709  159.2974 C   0  0  0  0  0  0  0  0  0  0  0  0
  151.5331  143.0242  158.3938 N   0  0  0  0  0  0  0  0  0  0  0  0
  152.2600  140.1772  156.6348 C   0  0  0  0  0  0  0  0  0  0  0  0
  151.5851  139.2282  155.6300 C   0  0  0  0  0  0  0  0  0  0  0  0
  150.6989  139.9669  154.7931 O   0  0  0  0  0  0  0  0  0  0  0  0
  145.8416  142.9543  154.9372 H   0  0  0  0  0  0  0  0  0  0  0  0
  146.1611  141.9152  153.5445 H   0  0  0  0  0  0  0  0  0  0  0  0
  147.0662  143.4241  153.7535 H   0  0  0  0  0  0  0  0  0  0  0  0
  147.4779  141.7970  156.0520 H   0  0  0  0  0  0  0  0  0  0  0  0
  149.0916  139.8627  156.0791 H   0  0  0  0  0  0  0  0  0  0  0  0
  150.8228  142.4011  156.0090 H   0  0  0  0  0  0  0  0  0  0  0  0
  149.5298  142.0661  157.1512 H   0  0  0  0  0  0  0  0  0  0  0  0
  152.7179  140.0144  159.4316 H   0  0  0  0  0  0  0  0  0  0  0  0
  153.6576  141.4477  161.2580 H   0  0  0  0  0  0  0  0  0  0  0  0
  153.2097  143.9129  161.2144 H   0  0  0  0  0  0  0  0  0  0  0  0
  152.1702  145.8141  160.1375 H   0  0  0  0  0  0  0  0  0  0  0  0
  150.6591  145.4362  159.3047 H   0  0  0  0  0  0  0  0  0  0  0  0
  152.1432  145.6884  158.3758 H   0  0  0  0  0  0  0  0  0  0  0  0
  152.8959  140.8875  156.1042 H   0  0  0  0  0  0  0  0  0  0  0  0
  152.9018  139.6126  157.3120 H   0  0  0  0  0  0  0  0  0  0  0  0
  152.3370  138.7407  155.0095 H   0  0  0  0  0  0  0  0  0  0  0  0
  151.0385  138.4381  156.1475 H   0  0  0  0  0  0  0  0  0  0  0  0
  1  2  1  0  0  0  0
  1 18  1  0  0  0  0
  1 19  1  0  0  0  0
  1 20  1  0  0  0  0
  2  3  1  0  0  0  0
  2 21  1  0  0  0  0
  3  4  2  0  0  0  0
  3  5  1  0  0  0  0
  5 17  1  0  0  0  0
  5  6  1  0  0  0  0
  5 22  1  0  0  0  0
  6  7  1  0  0  0  0
  6 23  1  0  0  0  0
  6 24  1  0  0  0  0
  7  8  1  0  0  0  0
  7 15  1  0  0  0  0
  8 14  1  0  0  0  0
  8  9  2  0  0  0  0
  9 10  1  0  0  0  0
  9 25  1  0  0  0  0
 10 11  2  0  0  0  0
 10 26  1  0  0  0  0
 11 12  1  0  0  0  0
 11 27  1  0  0  0  0
 12 13  1  0  0  0  0
 12 14  2  0  0  0  0
 13 28  1  0  0  0  0
 13 29  1  0  0  0  0
 13 30  1  0  0  0  0
 15 16  1  0  0  0  0
 15 31  1  0  0  0  0
 15 32  1  0  0  0  0
 16 17  1  0  0  0  0
 16 33  1  0  0  0  0
 16 34  1  0  0  0  0
M  END
> <s_m_source_file>
AV-unprocessed.smi

> <i_m_source_file_index>
2770

> <i_lp_mmshare_version>
43012

> <i_f3d_flags>
0

> <s_epik_input>
W0NIM11bTkhdQyg9TylbQ0BASF0xW0NIMl1OKFtDSDJdW0NIMl1PMSljMltjSF1bY0hdW2NIXWMobjIpW0NIM10=

> <s_epik_cmdline>
J2VwaWtfcHl0aG9uJywgJy1waCcsICc3LjAnLCAnLXRuJywgJzgnLCAnLW1hJywgJzIwMCcsICctbWV0YWxfYmluZGluZycsICctaW1hZScsICc8aW5maWxlLm1hZT4nLCAnLW9tYWUnLCAnPG91dGZpbGUubWFlPic=

> <r_lp_tautomer_probability>
1

> <r_epik_Ionization_Penalty>
0.0115449

> <r_epik_Ionization_Penalty_Charging>
0

> <r_epik_Ionization_Penalty_Neutral>
0.0115449

> <r_epik_State_Penalty>
0.00889041

> <r_epik_Charging_Adjusted_Penalty>
0.00889041

> <i_epik_Tot_Q>
0

> <i_epik_Tot_abs_Q>
0

> <r_epik_Metal_State_Penalty>
0.00871946

> <b_epik_Metal_Only>
0

> <s_lp_Force_Field>
OPLS_2005

> <r_lp_Energy>
19.0153

> <b_lp_Chiralities_Consistent>
1

> <s_lp_Variant>
AV-unprocessed.smi:2770-1

> <Gold.Version>
5.8.1

> <Gold.Id.Protein>
6NUR|6NUR_protein|mol2

> <Gold.PLP.Fitness>
42.7857

> <Gold.PLP.PLP>
-36.9736

> <Gold.PLP.part.hbond>
-3.7860

> <Gold.PLP.part.metal>
0.0000

> <Gold.PLP.part.buried>
-3.8640

> <Gold.PLP.part.nonpolar>
-32.7644

> <Gold.PLP.part.repulsive>
4.1940

> <Gold.PLP.ligand.clash>
0.0000

> <Gold.PLP.ligand.torsion>
0.1454

> <Gold.PLP.Chemscore.Hbond>
2.0000

> <Gold.PLP.Chemscore.CHOScore>
0.0000

> <Gold.PLP.Chemscore.Metal>
0.0000

> <Gold.Chemscore.Hbonds>
donor molecule, donor type, donor heavy atom, donor atom, acceptor molecule, acceptor atom, score
      P1  H  7989  7998       L1    17  1.00
      P1  H  8011  8017       L1     4  0.98

> <Gold.PLP.Chemscore.Internal.Correction>
0.1029

> <Gold.Rescore>
     Score         DG    S(hbond)    S(metal)    S(lipo)     H(rot)  DE(clash)    DE(int)     intcor
     16.49     -18.63       1.75        0.00      90.17       1.27       2.06       0.08       ----

> <Gold.Chemscore.Fitness>
16.4860

> <Gold.Chemscore.DG>
-18.6264

> <Gold.Chemscore.ZeroCoef>
-5.4800

> <Gold.Chemscore.Hbond>
1.7535

> <Gold.Chemscore.Metal>
0.0000

> <Gold.Chemscore.Lipo>
90.1668

> <Gold.Chemscore.Internal_Hbond>
0.0000

> <Gold.Chemscore.DEClash>
2.0554

> <Gold.Chemscore.DEInternal>
0.0850

> <Gold.Chemscore.Rot>
1.2734

> <Gold.Chemscore.Internal.Correction>
   9.000000E+99

> <Gold.Chemscore.Hbonds>
donor molecule, donor type, donor heavy atom, donor atom, acceptor molecule, acceptor atom, score
      P1  H  7989  7998       L1    17  0.77
      P1  H  8011  8017       L1     4  0.93

> <Gold.Chemscore.Hbond.Weighted>
-5.8566

> <Gold.Chemscore.Metal.Weighted>
-0.0000

> <Gold.Chemscore.Lipo.Weighted>
-10.5495

> <Gold.Chemscore.Internal_Hbond.Weighted>
0.0000

> <Gold.Chemscore.DEClash.Weighted>
2.0554

> <Gold.Chemscore.DEInternal.Weighted>
0.0850

> <Gold.Chemscore.Rot.Weighted>
3.2598

> <Gold.Chemscore.Internal.Correction.Weighted>
   9.000000E+99

> <Gold.Protein.RotatedTorsions>
[ 6907 6896 6895 6894 ] final -126.37 input  -60.11 | X-H torsion
[ 7974 7965 7964 7962 ] final   80.57 input  175.53 | X-H torsion
[ 8008 7997 7996 7995 ] final   79.12 input   59.86 | X-H torsion
[ 10167 10162 10161 10158 ] final  -23.21 input  -65.29 | X-H torsion
[ 10718 10713 10712 10709 ] final  -23.35 input   66.30 | X-H torsion
[ 10763 10752 10751 10750 ] final   44.81 input  -60.55 | X-H torsion
[ 11005 11000 10999 10996 ] final  121.48 input  -57.11 | X-H torsion

> <Gold.Protein.ActiveResidues>
 VAL166  LYS551  ARG553  GLY616  TRP617  ASP618  TYR619  PRO620  LYS621  CYS622 
 ASP623  PHE694  ASN695  SER759  ASP760  ASP761  ALA762  ILE779  LEU786  VAL792 
 PHE793  MET794  SER795  GLU796  ALA797  LYS798  CYS799  TRP800  GLU811  SER814 

> <Gold.Protein.RotatedAtoms>
  150.8962  133.7177  159.2890 H   0  0  0  0  0  0  0  0  0  0  0  0  # atno 6907 bound_to 6896
  151.4711  135.1044  159.9761 H   0  0  0  0  0  0  0  0  0  0  0  0  # atno 6908 bound_to 6896
  152.4850  133.8302  159.7154 H   0  0  0  0  0  0  0  0  0  0  0  0  # atno 6909 bound_to 6896
  145.6494  139.2444  143.1985 H   0  0  0  0  0  0  0  0  0  0  0  0  # atno 7974 bound_to 7965
  155.8653  140.3452  155.5784 H   0  0  0  0  0  0  0  0  0  0  0  0  # atno 8008 bound_to 7997
  155.7888  140.0869  157.2039 H   0  0  0  0  0  0  0  0  0  0  0  0  # atno 8009 bound_to 7997
  154.4014  140.1487  156.3126 H   0  0  0  0  0  0  0  0  0  0  0  0  # atno 8010 bound_to 7997
  140.7287  143.4463  151.0581 H   0  0  0  0  0  0  0  0  0  0  0  0  # atno 10167 bound_to 10162
  156.4922  130.4569  149.6749 H   0  0  0  0  0  0  0  0  0  0  0  0  # atno 10718 bound_to 10713
  152.9834  135.6059  154.3335 H   0  0  0  0  0  0  0  0  0  0  0  0  # atno 10763 bound_to 10752
  154.3037  135.2772  155.2601 H   0  0  0  0  0  0  0  0  0  0  0  0  # atno 10764 bound_to 10752
  154.4842  135.5909  153.6467 H   0  0  0  0  0  0  0  0  0  0  0  0  # atno 10765 bound_to 10752
  139.9227  134.9639  156.7964 H   0  0  0  0  0  0  0  0  0  0  0  0  # atno 11005 bound_to 11000
  146.1216  140.7302  142.9455 LP  0  0  0  0  0  0  0  0  0  0  0  0  # atno 17320 bound_to 7965
  144.7128  140.4101  143.7067 LP  0  0  0  0  0  0  0  0  0  0  0  0  # atno 17321 bound_to 7965
  139.8135  143.7917  152.3173 LP  0  0  0  0  0  0  0  0  0  0  0  0  # atno 17342 bound_to 10162
  139.7975  144.7387  150.9870 LP  0  0  0  0  0  0  0  0  0  0  0  0  # atno 17343 bound_to 10162
  156.3415  130.7384  151.2330 LP  0  0  0  0  0  0  0  0  0  0  0  0  # atno 17370 bound_to 10713
  157.7472  131.0402  150.4588 LP  0  0  0  0  0  0  0  0  0  0  0  0  # atno 17371 bound_to 10713
  140.6425  133.9805  155.7714 LP  0  0  0  0  0  0  0  0  0  0  0  0  # atno 17394 bound_to 11000
  141.0762  134.0132  157.3455 LP  0  0  0  0  0  0  0  0  0  0  0  0  # atno 17395 bound_to 11000

$$$$
