AV-unprocessed.smi:486|AV-procd|sdf|2698|dock5
  -GOLD-   2262023133D 1   1.00000     0.00000
 Structure written by MMmdl.
 44 46  0  0  0  0  0  0  0  0  2 V2000
  145.3184  132.3752  161.8107 C   0  0  0  0  0  0  0  0  0  0  0  0
  145.8816  133.4712  162.5168 O   0  0  0  0  0  0  0  0  0  0  0  0
  146.6819  134.3503  161.8190 C   0  0  0  0  0  0  0  0  0  0  0  0
  147.2298  135.4298  162.5392 C   0  0  0  0  0  0  0  0  0  0  0  0
  148.0593  136.3730  161.9038 C   0  0  0  0  0  0  0  0  0  0  0  0
  148.3628  136.2593  160.5330 C   0  0  0  0  0  0  0  0  0  0  0  0
  149.1842  137.2243  159.9906 O   0  0  0  0  0  0  0  0  0  0  0  0
  149.5893  137.0803  158.6356 C   0  0  0  0  0  0  0  0  0  0  0  0
  149.5398  138.4570  157.9548 C   0  0  1  0  0  0  0  0  0  0  0  0
  148.5678  139.2463  158.6116 O   0  0  0  0  0  0  0  0  0  0  0  0
  150.9027  139.1753  158.0152 C   0  0  0  0  0  0  0  0  0  0  0  0
  150.8132  140.6047  157.6747 N   0  0  0  0  0  0  0  0  0  0  0  0
  150.0986  141.2253  156.6931 C   0  0  0  0  0  0  0  0  0  0  0  0
  149.2021  140.5719  155.6958 C   0  0  0  0  0  0  0  0  0  0  0  0
  150.3557  142.5601  156.7870 N   0  3  0  0  0  0  0  0  0  0  0  0
  151.2406  142.7972  157.8395 C   0  0  0  0  0  0  0  0  0  0  0  0
  151.7880  143.9836  158.3181 C   0  0  0  0  0  0  0  0  0  0  0  0
  152.6610  143.8781  159.4205 C   0  0  0  0  0  0  0  0  0  0  0  0
  152.9590  142.6296  160.0041 C   0  0  0  0  0  0  0  0  0  0  0  0
  152.3994  141.4334  159.5086 C   0  0  0  0  0  0  0  0  0  0  0  0
  151.5382  141.5454  158.4169 C   0  0  0  0  0  0  0  0  0  0  0  0
  147.8131  135.1761  159.8039 C   0  0  0  0  0  0  0  0  0  0  0  0
  146.9817  134.2331  160.4395 C   0  0  0  0  0  0  0  0  0  0  0  0
  144.7233  131.7732  162.4969 H   0  0  0  0  0  0  0  0  0  0  0  0
  146.0919  131.7297  161.3926 H   0  0  0  0  0  0  0  0  0  0  0  0
  144.6581  132.7135  161.0111 H   0  0  0  0  0  0  0  0  0  0  0  0
  147.0128  135.5365  163.5920 H   0  0  0  0  0  0  0  0  0  0  0  0
  148.4682  137.1924  162.4766 H   0  0  0  0  0  0  0  0  0  0  0  0
  150.5872  136.6445  158.5558 H   0  0  0  0  0  0  0  0  0  0  0  0
  148.8900  136.4067  158.1374 H   0  0  0  0  0  0  0  0  0  0  0  0
  149.2492  138.3370  156.9104 H   0  0  0  0  0  0  0  0  0  0  0  0
  148.9988  139.7491  159.2865 H   0  0  0  0  0  0  0  0  0  0  0  0
  151.3672  139.0638  158.9952 H   0  0  0  0  0  0  0  0  0  0  0  0
  151.5923  138.7209  157.3028 H   0  0  0  0  0  0  0  0  0  0  0  0
  148.7058  141.3201  155.0772 H   0  0  0  0  0  0  0  0  0  0  0  0
  148.4394  139.9818  156.2039 H   0  0  0  0  0  0  0  0  0  0  0  0
  149.7797  139.9126  155.0478 H   0  0  0  0  0  0  0  0  0  0  0  0
  151.5591  144.9411  157.8737 H   0  0  0  0  0  0  0  0  0  0  0  0
  153.1091  144.7728  159.8282 H   0  0  0  0  0  0  0  0  0  0  0  0
  153.6292  142.5880  160.8503 H   0  0  0  0  0  0  0  0  0  0  0  0
  152.6301  140.4839  159.9684 H   0  0  0  0  0  0  0  0  0  0  0  0
  148.0133  135.0443  158.7517 H   0  0  0  0  0  0  0  0  0  0  0  0
  146.5860  133.4250  159.8435 H   0  0  0  0  0  0  0  0  0  0  0  0
  149.9529  143.2573  156.1742 H   0  0  0  0  0  0  0  0  0  0  0  0
  1  2  1  0  0  0  0
  1 24  1  0  0  0  0
  1 25  1  0  0  0  0
  1 26  1  0  0  0  0
  2  3  1  0  0  0  0
  3 23  1  0  0  0  0
  3  4  2  0  0  0  0
  4  5  1  0  0  0  0
  4 27  1  0  0  0  0
  5  6  2  0  0  0  0
  5 28  1  0  0  0  0
  6  7  1  0  0  0  0
  6 22  1  0  0  0  0
  7  8  1  0  0  0  0
  8  9  1  0  0  0  0
  8 29  1  0  0  0  0
  8 30  1  0  0  0  0
  9 10  1  0  0  0  0
  9 11  1  0  0  0  0
  9 31  1  0  0  0  0
 10 32  1  0  0  0  0
 11 12  1  0  0  0  0
 11 33  1  0  0  0  0
 11 34  1  0  0  0  0
 12 21  1  0  0  0  0
 12 13  1  0  0  0  0
 13 14  1  0  0  0  0
 13 15  2  0  0  0  0
 14 35  1  0  0  0  0
 14 36  1  0  0  0  0
 14 37  1  0  0  0  0
 15 16  1  0  0  0  0
 15 44  1  0  0  0  0
 16 21  2  0  0  0  0
 16 17  1  0  0  0  0
 17 18  2  0  0  0  0
 17 38  1  0  0  0  0
 18 19  1  0  0  0  0
 18 39  1  0  0  0  0
 19 20  2  0  0  0  0
 19 40  1  0  0  0  0
 20 21  1  0  0  0  0
 20 41  1  0  0  0  0
 22 23  2  0  0  0  0
 22 42  1  0  0  0  0
 23 43  1  0  0  0  0
M  CHG  1  15   1
M  END
> <s_m_source_file>
AV-unprocessed.smi

> <i_m_source_file_index>
486

> <i_lp_mmshare_version>
43012

> <i_f3d_flags>
0

> <s_epik_input>
W0NIM11PYzFbY0hdW2NIXWMoW2NIXVtjSF0xKU9bQ0gyXVtDQEhdKFtPSF0pW0NIMl1uKGMobjIpW0NIM10pYyhjMjMpW2NIXVtjSF1bY0hdW2NIXTM=

> <s_epik_cmdline>
J2VwaWtfcHl0aG9uJywgJy1waCcsICc3LjAnLCAnLXRuJywgJzgnLCAnLW1hJywgJzIwMCcsICctbWV0YWxfYmluZGluZycsICctaW1hZScsICc8aW5maWxlLm1hZT4nLCAnLW9tYWUnLCAnPG91dGZpbGUubWFlPic=

> <r_lp_tautomer_probability>
1

> <r_epik_Ionization_Penalty>
1.03234

> <r_epik_Ionization_Penalty_Charging>
1.03234

> <r_epik_Ionization_Penalty_Neutral>
2.3993e-06

> <r_epik_State_Penalty>
1.0836

> <r_epik_Charging_Adjusted_Penalty>
2.11594

> <i_epik_Tot_Q>
1

> <i_epik_Tot_abs_Q>
1

> <r_epik_Metal_State_Penalty>
5.07275

> <b_epik_Metal_Only>
0

> <s_lp_Force_Field>
OPLS_2005

> <r_lp_Energy>
23.3843

> <b_lp_Chiralities_Consistent>
1

> <s_lp_Variant>
AV-unprocessed.smi:486-4

> <Gold.Version>
5.8.1

> <Gold.Id.Protein>
6NUR|6NUR_protein|mol2

> <Gold.PLP.Fitness>
52.1681

> <Gold.PLP.PLP>
-47.8892

> <Gold.PLP.part.hbond>
-3.0351

> <Gold.PLP.part.metal>
0.0000

> <Gold.PLP.part.buried>
-5.1028

> <Gold.PLP.part.nonpolar>
-41.3670

> <Gold.PLP.part.repulsive>
0.0971

> <Gold.PLP.ligand.clash>
0.0000

> <Gold.PLP.ligand.torsion>
1.0888

> <Gold.PLP.Chemscore.Hbond>
2.1142

> <Gold.PLP.Chemscore.CHOScore>
0.0000

> <Gold.PLP.Chemscore.Metal>
0.0000

> <Gold.Chemscore.Hbonds>
donor molecule, donor type, donor heavy atom, donor atom, acceptor molecule, acceptor atom, score
      L1  H    15    44       P1  8028  2.00
      P1  H  6931  6943       L1     7  0.12

> <Gold.PLP.Chemscore.Internal.Correction>
0.1139

> <Gold.Rescore>
     Score         DG    S(hbond)    S(metal)    S(lipo)     H(rot)  DE(clash)    DE(int)     intcor
     16.04     -17.26       0.99        0.00     124.81       2.40       0.05       1.17       ----

> <Gold.Chemscore.Fitness>
16.0441

> <Gold.Chemscore.DG>
-17.2601

> <Gold.Chemscore.ZeroCoef>
-5.4800

> <Gold.Chemscore.Hbond>
0.9908

> <Gold.Chemscore.Metal>
0.0000

> <Gold.Chemscore.Lipo>
124.8059

> <Gold.Chemscore.Internal_Hbond>
0.0000

> <Gold.Chemscore.DEClash>
0.0485

> <Gold.Chemscore.DEInternal>
1.1675

> <Gold.Chemscore.Rot>
2.3952

> <Gold.Chemscore.Internal.Correction>
   9.000000E+99

> <Gold.Chemscore.Hbonds>
donor molecule, donor type, donor heavy atom, donor atom, acceptor molecule, acceptor atom, score
      L1  H    15    44       P1  8028  0.99

> <Gold.Chemscore.Hbond.Weighted>
-3.3094

> <Gold.Chemscore.Metal.Weighted>
-0.0000

> <Gold.Chemscore.Lipo.Weighted>
-14.6023

> <Gold.Chemscore.Internal_Hbond.Weighted>
0.0000

> <Gold.Chemscore.DEClash.Weighted>
0.0485

> <Gold.Chemscore.DEInternal.Weighted>
1.1675

> <Gold.Chemscore.Rot.Weighted>
6.1316

> <Gold.Chemscore.Internal.Correction.Weighted>
   9.000000E+99

> <Gold.Protein.RotatedTorsions>
[ 6907 6896 6895 6894 ] final   90.99 input  -60.11 | X-H torsion
[ 7974 7965 7964 7962 ] final  124.45 input  175.53 | X-H torsion
[ 8008 7997 7996 7995 ] final  113.57 input   59.86 | X-H torsion
[ 10167 10162 10161 10158 ] final -129.00 input  -65.29 | X-H torsion
[ 10718 10713 10712 10709 ] final -104.47 input   66.30 | X-H torsion
[ 10763 10752 10751 10750 ] final  -47.31 input  -60.55 | X-H torsion
[ 11005 11000 10999 10996 ] final -110.48 input  -57.11 | X-H torsion

> <Gold.Protein.ActiveResidues>
 VAL166  LYS551  ARG553  GLY616  TRP617  ASP618  TYR619  PRO620  LYS621  CYS622 
 ASP623  PHE694  ASN695  SER759  ASP760  ASP761  ALA762  ILE779  LEU786  VAL792 
 PHE793  MET794  SER795  GLU796  ALA797  LYS798  CYS799  TRP800  GLU811  SER814 

> <Gold.Protein.RotatedAtoms>
  152.5448  134.1727  159.8602 H   0  0  0  0  0  0  0  0  0  0  0  0  # atno 6907 bound_to 6896
  151.1735  133.4762  159.2601 H   0  0  0  0  0  0  0  0  0  0  0  0  # atno 6908 bound_to 6896
  151.1250  135.0111  159.8611 H   0  0  0  0  0  0  0  0  0  0  0  0  # atno 6909 bound_to 6896
  145.0843  139.3634  143.4893 H   0  0  0  0  0  0  0  0  0  0  0  0  # atno 7974 bound_to 7965
  156.2266  140.2977  156.0083 H   0  0  0  0  0  0  0  0  0  0  0  0  # atno 8008 bound_to 7997
  155.2338  140.0420  157.2983 H   0  0  0  0  0  0  0  0  0  0  0  0  # atno 8009 bound_to 7997
  154.5926  140.2405  155.7907 H   0  0  0  0  0  0  0  0  0  0  0  0  # atno 8010 bound_to 7997
  139.9443  143.6127  152.2494 H   0  0  0  0  0  0  0  0  0  0  0  0  # atno 10167 bound_to 10162
  156.0306  130.5517  150.7401 H   0  0  0  0  0  0  0  0  0  0  0  0  # atno 10718 bound_to 10713
  154.0594  135.6620  153.4810 H   0  0  0  0  0  0  0  0  0  0  0  0  # atno 10763 bound_to 10752
  153.0433  135.5131  154.7674 H   0  0  0  0  0  0  0  0  0  0  0  0  # atno 10764 bound_to 10752
  154.6705  135.3029  154.9714 H   0  0  0  0  0  0  0  0  0  0  0  0  # atno 10765 bound_to 10752
  141.0789  133.9253  157.2330 H   0  0  0  0  0  0  0  0  0  0  0  0  # atno 11005 bound_to 11000
  146.3531  140.0648  142.8627 LP  0  0  0  0  0  0  0  0  0  0  0  0  # atno 17320 bound_to 7965
  145.1141  140.9423  143.4639 LP  0  0  0  0  0  0  0  0  0  0  0  0  # atno 17321 bound_to 7965
  139.6679  144.7662  151.1838 LP  0  0  0  0  0  0  0  0  0  0  0  0  # atno 17342 bound_to 10162
  140.7602  143.5910  150.8797 LP  0  0  0  0  0  0  0  0  0  0  0  0  # atno 17343 bound_to 10162
  157.4972  131.0915  151.0358 LP  0  0  0  0  0  0  0  0  0  0  0  0  # atno 17370 bound_to 10713
  157.0748  130.5879  149.5409 LP  0  0  0  0  0  0  0  0  0  0  0  0  # atno 17371 bound_to 10713
  139.9602  135.0156  156.9240 LP  0  0  0  0  0  0  0  0  0  0  0  0  # atno 17394 bound_to 11000
  140.5512  134.0626  155.7369 LP  0  0  0  0  0  0  0  0  0  0  0  0  # atno 17395 bound_to 11000

$$$$
