AV-unprocessed.smi:1858|AV-procd|sdf|7542|dock3
  -GOLD-   22720 9253D 1   1.00000     0.00000
 Structure written by MMmdl.
 48 49  0  0  0  0  0  0  0  0  1 V2000
  145.5228  135.3887  160.1765 C   0  0  0  0  0  0  0  0  0  0  0  0
  146.7729  135.6219  159.4707 N   0  0  0  0  0  0  0  0  0  0  0  0
  147.6793  136.5566  159.8070 C   0  0  0  0  0  0  0  0  0  0  0  0
  147.5161  137.2948  160.7792 O   0  0  0  0  0  0  0  0  0  0  0  0
  148.8386  136.6174  158.9122 C   0  0  0  0  0  0  0  0  0  0  0  0
  148.7784  135.9609  157.6209 C   0  0  0  0  0  0  0  0  0  0  0  0
  149.8464  135.9581  156.7987 C   0  0  0  0  0  0  0  0  0  0  0  0
  151.1058  136.6132  157.1664 C   0  0  0  0  0  0  0  0  0  0  0  0
  152.0932  136.5877  156.4318 O   0  0  0  0  0  0  0  0  0  0  0  0
  151.1107  137.2494  158.3765 N   0  0  0  0  0  0  0  0  0  0  0  0
  152.3150  137.9184  158.8916 C   0  0  0  0  0  0  0  0  0  0  0  0
  152.4861  139.2923  158.2370 C   0  0  0  0  0  0  0  0  0  0  0  0
  152.8364  139.3818  157.0609 O   0  0  0  0  0  0  0  0  0  0  0  0
  152.2523  140.3501  159.0285 N   0  0  0  0  0  0  0  0  0  0  0  0
  152.4758  141.7521  158.6868 C   0  0  0  0  0  0  0  0  0  0  0  0
  153.6465  142.3480  159.5090 C   0  0  0  0  0  0  0  0  0  0  0  0
  153.5397  142.2814  161.0457 C   0  0  0  0  0  0  0  0  0  0  0  0
  152.3889  143.0735  161.6924 C   0  0  0  0  0  0  0  0  0  0  0  0
  152.2080  144.5111  161.1639 C   0  0  0  0  0  0  0  0  0  0  0  0
  151.0455  144.6958  160.1664 C   0  0  0  0  0  0  0  0  0  0  0  0
  151.2021  144.0414  158.7774 C   0  0  0  0  0  0  0  0  0  0  0  0
  151.1275  142.5013  158.7869 C   0  0  0  0  0  0  0  0  0  0  0  0
  149.9904  137.2454  159.2314 C   0  0  0  0  0  0  0  0  0  0  0  0
  144.9647  134.5904  159.6873 H   0  0  0  0  0  0  0  0  0  0  0  0
  144.9034  136.2863  160.1754 H   0  0  0  0  0  0  0  0  0  0  0  0
  145.7086  135.0928  161.2096 H   0  0  0  0  0  0  0  0  0  0  0  0
  146.9579  135.0480  158.6608 H   0  0  0  0  0  0  0  0  0  0  0  0
  147.8735  135.4635  157.3024 H   0  0  0  0  0  0  0  0  0  0  0  0
  149.7746  135.4596  155.8432 H   0  0  0  0  0  0  0  0  0  0  0  0
  152.2878  138.0450  159.9750 H   0  0  0  0  0  0  0  0  0  0  0  0
  153.1915  137.2970  158.6987 H   0  0  0  0  0  0  0  0  0  0  0  0
  151.9507  140.1651  159.9738 H   0  0  0  0  0  0  0  0  0  0  0  0
  152.7779  141.7956  157.6387 H   0  0  0  0  0  0  0  0  0  0  0  0
  154.5566  141.8159  159.2302 H   0  0  0  0  0  0  0  0  0  0  0  0
  153.8448  143.3710  159.1946 H   0  0  0  0  0  0  0  0  0  0  0  0
  153.4852  141.2426  161.3692 H   0  0  0  0  0  0  0  0  0  0  0  0
  154.4775  142.6591  161.4545 H   0  0  0  0  0  0  0  0  0  0  0  0
  151.4543  142.5188  161.6275 H   0  0  0  0  0  0  0  0  0  0  0  0
  152.5979  143.1245  162.7617 H   0  0  0  0  0  0  0  0  0  0  0  0
  151.9918  145.1489  162.0219 H   0  0  0  0  0  0  0  0  0  0  0  0
  153.1394  144.9020  160.7538 H   0  0  0  0  0  0  0  0  0  0  0  0
  150.1165  144.3556  160.6259 H   0  0  0  0  0  0  0  0  0  0  0  0
  150.9127  145.7672  160.0121 H   0  0  0  0  0  0  0  0  0  0  0  0
  150.3734  144.4023  158.1671 H   0  0  0  0  0  0  0  0  0  0  0  0
  152.0965  144.3989  158.2681 H   0  0  0  0  0  0  0  0  0  0  0  0
  150.5260  142.1884  157.9323 H   0  0  0  0  0  0  0  0  0  0  0  0
  150.5550  142.1656  159.6509 H   0  0  0  0  0  0  0  0  0  0  0  0
  150.1582  137.7668  160.1631 H   0  0  0  0  0  0  0  0  0  0  0  0
  1  2  1  0  0  0  0
  1 24  1  0  0  0  0
  1 25  1  0  0  0  0
  1 26  1  0  0  0  0
  2  3  1  0  0  0  0
  2 27  1  0  0  0  0
  3  4  2  0  0  0  0
  3  5  1  0  0  0  0
  5 23  2  0  0  0  0
  5  6  1  0  0  0  0
  6  7  2  0  0  0  0
  6 28  1  0  0  0  0
  7  8  1  0  0  0  0
  7 29  1  0  0  0  0
  8  9  2  0  0  0  0
  8 10  1  0  0  0  0
 10 11  1  0  0  0  0
 10 23  1  0  0  0  0
 11 12  1  0  0  0  0
 11 30  1  0  0  0  0
 11 31  1  0  0  0  0
 12 13  2  0  0  0  0
 12 14  1  0  0  0  0
 14 15  1  0  0  0  0
 14 32  1  0  0  0  0
 15 22  1  0  0  0  0
 15 16  1  0  0  0  0
 15 33  1  0  0  0  0
 16 17  1  0  0  0  0
 16 34  1  0  0  0  0
 16 35  1  0  0  0  0
 17 18  1  0  0  0  0
 17 36  1  0  0  0  0
 17 37  1  0  0  0  0
 18 19  1  0  0  0  0
 18 38  1  0  0  0  0
 18 39  1  0  0  0  0
 19 20  1  0  0  0  0
 19 40  1  0  0  0  0
 19 41  1  0  0  0  0
 20 21  1  0  0  0  0
 20 42  1  0  0  0  0
 20 43  1  0  0  0  0
 21 22  1  0  0  0  0
 21 44  1  0  0  0  0
 21 45  1  0  0  0  0
 22 46  1  0  0  0  0
 22 47  1  0  0  0  0
 23 48  1  0  0  0  0
M  END
> <s_m_source_file>
AV-unprocessed.smi

> <i_m_source_file_index>
1858

> <i_lp_mmshare_version>
43012

> <i_f3d_flags>
0

> <s_epik_input>
W0NIM11bTkhdQyg9TyljMVtjSF1bY0hdYyg9TyluKFtjSF0xKVtDSDJdQyg9TylbTkhdW0NIXTJbQ0gyXVtDSDJdW0NIMl1bQ0gyXVtDSDJdW0NIMl1bQ0gyXTI=

> <s_epik_cmdline>
J2VwaWtfcHl0aG9uJywgJy1waCcsICc3LjAnLCAnLXRuJywgJzgnLCAnLW1hJywgJzIwMCcsICctbWV0YWxfYmluZGluZycsICctaW1hZScsICc8aW5maWxlLm1hZT4nLCAnLW9tYWUnLCAnPG91dGZpbGUubWFlPic=

> <r_lp_tautomer_probability>
1

> <r_epik_Ionization_Penalty>
3.70383e-07

> <r_epik_Ionization_Penalty_Charging>
5.00098e-08

> <r_epik_Ionization_Penalty_Neutral>
3.20374e-07

> <r_epik_State_Penalty>
-0

> <r_epik_Charging_Adjusted_Penalty>
5.00098e-08

> <i_epik_Tot_Q>
0

> <i_epik_Tot_abs_Q>
0

> <r_epik_Metal_State_Penalty>
-0

> <b_epik_Metal_Only>
0

> <s_lp_Force_Field>
OPLS_2005

> <r_lp_Energy>
33.6896

> <b_lp_Chiralities_Consistent>
1

> <s_lp_Variant>
AV-unprocessed.smi:1858-1

> <Gold.Version>
5.8.1

> <Gold.Id.Protein>
6NUR|6NUR_protein|mol2

> <Gold.PLP.Fitness>
49.9957

> <Gold.PLP.PLP>
-39.6749

> <Gold.PLP.part.hbond>
-4.0000

> <Gold.PLP.part.metal>
0.0000

> <Gold.PLP.part.buried>
-6.2732

> <Gold.PLP.part.nonpolar>
-28.5057

> <Gold.PLP.part.repulsive>
0.1497

> <Gold.PLP.ligand.clash>
0.0258

> <Gold.PLP.ligand.torsion>
0.5238

> <Gold.PLP.Chemscore.Hbond>
3.7760

> <Gold.PLP.Chemscore.CHOScore>
0.0000

> <Gold.PLP.Chemscore.Metal>
0.0000

> <Gold.Chemscore.Hbonds>
donor molecule, donor type, donor heavy atom, donor atom, acceptor molecule, acceptor atom, score
      P1  H  6931  6943       L1     4  0.61
      P1  H  6934  6947       L1     4  1.00
      P1  H  7997  8010       L1    13  1.00
      P1  H 10752 10764       L1     9  0.84

> <Gold.PLP.Chemscore.Internal.Correction>
0.0663

> <Gold.Rescore>
     Score         DG    S(hbond)    S(metal)    S(lipo)     H(rot)  DE(clash)    DE(int)     intcor
     25.33     -25.95       3.58        0.00     105.09       1.48       0.11       0.51       ----

> <Gold.Chemscore.Fitness>
25.3330

> <Gold.Chemscore.DG>
-25.9548

> <Gold.Chemscore.ZeroCoef>
-5.4800

> <Gold.Chemscore.Hbond>
3.5842

> <Gold.Chemscore.Metal>
0.0000

> <Gold.Chemscore.Lipo>
105.0887

> <Gold.Chemscore.Internal_Hbond>
0.0000

> <Gold.Chemscore.DEClash>
0.1117

> <Gold.Chemscore.DEInternal>
0.5101

> <Gold.Chemscore.Rot>
1.4812

> <Gold.Chemscore.Internal.Correction>
   9.000000E+99

> <Gold.Chemscore.Hbonds>
donor molecule, donor type, donor heavy atom, donor atom, acceptor molecule, acceptor atom, score
      P1  H  6931  6943       L1     4  0.60
      P1  H  6934  6947       L1     4  0.94
      P1  H  7997  8010       L1    13  0.99
      P1  H 10752 10764       L1     9  0.80

> <Gold.Chemscore.Hbond.Weighted>
-11.9714

> <Gold.Chemscore.Metal.Weighted>
-0.0000

> <Gold.Chemscore.Lipo.Weighted>
-12.2954

> <Gold.Chemscore.Internal_Hbond.Weighted>
0.0000

> <Gold.Chemscore.DEClash.Weighted>
0.1117

> <Gold.Chemscore.DEInternal.Weighted>
0.5101

> <Gold.Chemscore.Rot.Weighted>
3.7920

> <Gold.Chemscore.Internal.Correction.Weighted>
   9.000000E+99

> <Gold.Protein.RotatedTorsions>
[ 6907 6896 6895 6894 ] final   -1.08 input  -60.11 | X-H torsion
[ 7974 7965 7964 7962 ] final -126.53 input  175.53 | X-H torsion
[ 8008 7997 7996 7995 ] final   61.60 input   59.86 | X-H torsion
[ 10167 10162 10161 10158 ] final  112.60 input  -65.29 | X-H torsion
[ 10718 10713 10712 10709 ] final   52.37 input   66.30 | X-H torsion
[ 10763 10752 10751 10750 ] final  -12.13 input  -60.55 | X-H torsion
[ 11005 11000 10999 10996 ] final    7.90 input  -57.11 | X-H torsion

> <Gold.Protein.ActiveResidues>
 VAL166  LYS551  ARG553  GLY616  TRP617  ASP618  TYR619  PRO620  LYS621  CYS622 
 ASP623  PHE694  ASN695  SER759  ASP760  ASP761  ALA762  ILE779  LEU786  VAL792 
 PHE793  MET794  SER795  GLU796  ALA797  LYS798  CYS799  TRP800  GLU811  SER814 

> <Gold.Protein.RotatedAtoms>
  151.5518  135.1067  159.9951 H   0  0  0  0  0  0  0  0  0  0  0  0  # atno 6907 bound_to 6896
  152.4488  133.7583  159.6743 H   0  0  0  0  0  0  0  0  0  0  0  0  # atno 6908 bound_to 6896
  150.8410  133.7869  159.3085 H   0  0  0  0  0  0  0  0  0  0  0  0  # atno 6909 bound_to 6896
  144.9863  140.7689  143.4581 H   0  0  0  0  0  0  0  0  0  0  0  0  # atno 7974 bound_to 7965
  155.6010  140.3494  155.4594 H   0  0  0  0  0  0  0  0  0  0  0  0  # atno 8008 bound_to 7997
  156.0228  140.1257  157.0364 H   0  0  0  0  0  0  0  0  0  0  0  0  # atno 8009 bound_to 7997
  154.4322  140.1059  156.5974 H   0  0  0  0  0  0  0  0  0  0  0  0  # atno 8010 bound_to 7997
  139.6523  144.7128  151.2024 H   0  0  0  0  0  0  0  0  0  0  0  0  # atno 10167 bound_to 10162
  157.5068  130.8474  149.8385 H   0  0  0  0  0  0  0  0  0  0  0  0  # atno 10718 bound_to 10713
  153.4939  135.7017  153.5869 H   0  0  0  0  0  0  0  0  0  0  0  0  # atno 10763 bound_to 10752
  153.4029  135.3867  155.2000 H   0  0  0  0  0  0  0  0  0  0  0  0  # atno 10764 bound_to 10752
  154.8715  135.3886  154.4403 H   0  0  0  0  0  0  0  0  0  0  0  0  # atno 10765 bound_to 10752
  140.5431  134.0355  155.7911 H   0  0  0  0  0  0  0  0  0  0  0  0  # atno 11005 bound_to 11000
  145.2349  139.2098  143.5023 LP  0  0  0  0  0  0  0  0  0  0  0  0  # atno 17320 bound_to 7965
  146.3420  140.2233  142.8592 LP  0  0  0  0  0  0  0  0  0  0  0  0  # atno 17321 bound_to 7965
  140.7543  143.6129  150.8587 LP  0  0  0  0  0  0  0  0  0  0  0  0  # atno 17342 bound_to 10162
  139.9779  143.5984  152.2952 LP  0  0  0  0  0  0  0  0  0  0  0  0  # atno 17343 bound_to 10162
  156.0264  130.3778  150.1812 LP  0  0  0  0  0  0  0  0  0  0  0  0  # atno 17370 bound_to 10713
  157.0002  130.9920  151.3393 LP  0  0  0  0  0  0  0  0  0  0  0  0  # atno 17371 bound_to 10713
  141.1216  133.9452  157.2719 LP  0  0  0  0  0  0  0  0  0  0  0  0  # atno 17394 bound_to 11000
  139.9494  135.0178  156.8948 LP  0  0  0  0  0  0  0  0  0  0  0  0  # atno 17395 bound_to 11000

$$$$
