AV-unprocessed.smi:573|AV-procd|sdf|2970|dock2
  -GOLD-   2262023473D 1   1.00000     0.00000
 Structure written by MMmdl.
 45 47  0  0  0  0  0  0  0  0  2 V2000
  147.1140  140.6280  153.2239 C   0  0  0  0  0  0  0  0  0  0  0  0
  148.2162  140.1407  154.1784 C   0  0  1  0  0  0  0  0  0  0  0  0
  148.8999  139.0412  153.6140 O   0  0  0  0  0  0  0  0  0  0  0  0
  149.2218  141.2231  154.6322 C   0  0  0  0  0  0  0  0  0  0  0  0
  150.2713  140.7283  155.5143 N   0  0  0  0  0  0  0  0  0  0  0  0
  150.8011  141.5616  156.5064 C   0  0  0  0  0  0  0  0  0  0  0  0
  150.6777  142.9139  156.5713 N   0  3  0  0  0  0  0  0  0  0  0  0
  151.3313  143.3606  157.7227 C   0  0  0  0  0  0  0  0  0  0  0  0
  151.4815  144.6437  158.2400 C   0  0  0  0  0  0  0  0  0  0  0  0
  152.1998  144.7599  159.4481 C   0  0  0  0  0  0  0  0  0  0  0  0
  152.7360  143.6285  160.0962 C   0  0  0  0  0  0  0  0  0  0  0  0
  152.5814  142.3319  159.5636 C   0  0  0  0  0  0  0  0  0  0  0  0
  151.8734  142.2222  158.3669 C   0  0  0  0  0  0  0  0  0  0  0  0
  151.5286  141.1249  157.5662 N   0  0  0  0  0  0  0  0  0  0  0  0
  151.9353  139.7668  157.9555 C   0  0  0  0  0  0  0  0  0  0  0  0
  150.7771  138.7642  157.8309 C   0  0  1  0  0  0  0  0  0  0  0  0
  151.2600  137.3035  157.8940 C   0  0  0  0  0  0  0  0  0  0  0  0
  150.0679  136.3427  157.8169 C   0  0  0  0  0  0  0  0  0  0  0  0
  149.0323  136.7140  158.8839 C   0  0  0  0  0  0  0  0  0  0  0  0
  148.6662  138.2031  158.7799 C   0  0  0  0  0  0  0  0  0  0  0  0
  149.8429  138.9981  158.8833 O   0  0  0  0  0  0  0  0  0  0  0  0
  146.5868  141.4872  153.6388 H   0  0  0  0  0  0  0  0  0  0  0  0
  146.3775  139.8436  153.0468 H   0  0  0  0  0  0  0  0  0  0  0  0
  147.5194  140.9171  152.2543 H   0  0  0  0  0  0  0  0  0  0  0  0
  147.7315  139.7528  155.0749 H   0  0  0  0  0  0  0  0  0  0  0  0
  149.0814  139.2346  152.7070 H   0  0  0  0  0  0  0  0  0  0  0  0
  149.7299  141.6113  153.7491 H   0  0  0  0  0  0  0  0  0  0  0  0
  148.7088  142.0760  155.0783 H   0  0  0  0  0  0  0  0  0  0  0  0
  150.3873  139.7290  155.6047 H   0  0  0  0  0  0  0  0  0  0  0  0
  151.0676  145.5122  157.7490 H   0  0  0  0  0  0  0  0  0  0  0  0
  152.3395  145.7365  159.8887 H   0  0  0  0  0  0  0  0  0  0  0  0
  153.2763  143.7566  161.0229 H   0  0  0  0  0  0  0  0  0  0  0  0
  152.9906  141.4732  160.0747 H   0  0  0  0  0  0  0  0  0  0  0  0
  152.7613  139.4712  157.3077 H   0  0  0  0  0  0  0  0  0  0  0  0
  152.3333  139.7864  158.9697 H   0  0  0  0  0  0  0  0  0  0  0  0
  150.2788  138.9344  156.8753 H   0  0  0  0  0  0  0  0  0  0  0  0
  151.9563  137.0994  157.0802 H   0  0  0  0  0  0  0  0  0  0  0  0
  151.8053  137.1348  158.8235 H   0  0  0  0  0  0  0  0  0  0  0  0
  149.6120  136.4019  156.8276 H   0  0  0  0  0  0  0  0  0  0  0  0
  150.3995  135.3125  157.9494 H   0  0  0  0  0  0  0  0  0  0  0  0
  148.1399  136.0968  158.7757 H   0  0  0  0  0  0  0  0  0  0  0  0
  149.4377  136.5082  159.8752 H   0  0  0  0  0  0  0  0  0  0  0  0
  148.1527  138.4154  157.8408 H   0  0  0  0  0  0  0  0  0  0  0  0
  147.9839  138.4792  159.5839 H   0  0  0  0  0  0  0  0  0  0  0  0
  150.1776  143.4775  155.8965 H   0  0  0  0  0  0  0  0  0  0  0  0
  1  2  1  0  0  0  0
  1 22  1  0  0  0  0
  1 23  1  0  0  0  0
  1 24  1  0  0  0  0
  2  3  1  0  0  0  0
  2  4  1  0  0  0  0
  2 25  1  0  0  0  0
  3 26  1  0  0  0  0
  4  5  1  0  0  0  0
  4 27  1  0  0  0  0
  4 28  1  0  0  0  0
  5  6  1  0  0  0  0
  5 29  1  0  0  0  0
  6 14  1  0  0  0  0
  6  7  2  0  0  0  0
  7  8  1  0  0  0  0
  7 45  1  0  0  0  0
  8 13  2  0  0  0  0
  8  9  1  0  0  0  0
  9 10  2  0  0  0  0
  9 30  1  0  0  0  0
 10 11  1  0  0  0  0
 10 31  1  0  0  0  0
 11 12  2  0  0  0  0
 11 32  1  0  0  0  0
 12 13  1  0  0  0  0
 12 33  1  0  0  0  0
 13 14  1  0  0  0  0
 14 15  1  0  0  0  0
 15 16  1  0  0  0  0
 15 34  1  0  0  0  0
 15 35  1  0  0  0  0
 16 21  1  0  0  0  0
 16 17  1  0  0  0  0
 16 36  1  0  0  0  0
 17 18  1  0  0  0  0
 17 37  1  0  0  0  0
 17 38  1  0  0  0  0
 18 19  1  0  0  0  0
 18 39  1  0  0  0  0
 18 40  1  0  0  0  0
 19 20  1  0  0  0  0
 19 41  1  0  0  0  0
 19 42  1  0  0  0  0
 20 21  1  0  0  0  0
 20 43  1  0  0  0  0
 20 44  1  0  0  0  0
M  CHG  1   7   1
M  END
> <s_m_source_file>
AV-unprocessed.smi

> <i_m_source_file_index>
573

> <i_lp_mmshare_version>
43012

> <i_f3d_flags>
0

> <s_epik_input>
W0NIM11bQ0BIXShbT0hdKVtDSDJdW05IXWMobjEpbihjKGMxMilbY0hdW2NIXVtjSF1bY0hdMilbQ0gyXVtDQEBIXTNbQ0gyXVtDSDJdW0NIMl1bQ0gyXU8z

> <s_epik_cmdline>
J2VwaWtfcHl0aG9uJywgJy1waCcsICc3LjAnLCAnLXRuJywgJzgnLCAnLW1hJywgJzIwMCcsICctbWV0YWxfYmluZGluZycsICctaW1hZScsICc8aW5maWxlLm1hZT4nLCAnLW9tYWUnLCAnPG91dGZpbGUubWFlPic=

> <r_epik_Ionization_Penalty>
0.0692245

> <r_epik_Ionization_Penalty_Charging>
0.0692223

> <r_epik_Ionization_Penalty_Neutral>
2.1869e-06

> <r_epik_State_Penalty>
0.0606215

> <r_epik_Charging_Adjusted_Penalty>
0.129844

> <i_epik_Tot_Q>
1

> <i_epik_Tot_abs_Q>
1

> <r_epik_Metal_State_Penalty>
2.77811

> <b_epik_Metal_Only>
0

> <s_lp_Force_Field>
OPLS_2005

> <r_lp_Energy>
24.0167

> <b_lp_Chiralities_Consistent>
1

> <s_lp_Variant>
AV-unprocessed.smi:573-4

> <Gold.Version>
5.8.1

> <Gold.Id.Protein>
6NUR|6NUR_protein|mol2

> <Gold.PLP.Fitness>
51.9903

> <Gold.PLP.PLP>
-43.8828

> <Gold.PLP.part.hbond>
-2.0910

> <Gold.PLP.part.metal>
0.0000

> <Gold.PLP.part.buried>
-6.7002

> <Gold.PLP.part.nonpolar>
-35.2317

> <Gold.PLP.part.repulsive>
0.2044

> <Gold.PLP.ligand.clash>
0.0000

> <Gold.PLP.ligand.torsion>
0.4645

> <Gold.PLP.Chemscore.Hbond>
3.0000

> <Gold.PLP.Chemscore.CHOScore>
0.0000

> <Gold.PLP.Chemscore.Metal>
0.0000

> <Gold.Chemscore.Hbonds>
donor molecule, donor type, donor heavy atom, donor atom, acceptor molecule, acceptor atom, score
      L1  H     3    26       P1  7957  1.00
      L1  H     7    45       P1  8028  1.82

> <Gold.PLP.Chemscore.Internal.Correction>
0.0366

> <Gold.Rescore>
     Score         DG    S(hbond)    S(metal)    S(lipo)     H(rot)  DE(clash)    DE(int)     intcor
     20.00     -20.30       1.99        0.00     114.99       2.07       0.01       0.29       ----

> <Gold.Chemscore.Fitness>
19.9967

> <Gold.Chemscore.DG>
-20.2952

> <Gold.Chemscore.ZeroCoef>
-5.4800

> <Gold.Chemscore.Hbond>
1.9943

> <Gold.Chemscore.Metal>
0.0000

> <Gold.Chemscore.Lipo>
114.9857

> <Gold.Chemscore.Internal_Hbond>
0.0000

> <Gold.Chemscore.DEClash>
0.0052

> <Gold.Chemscore.DEInternal>
0.2933

> <Gold.Chemscore.Rot>
2.0699

> <Gold.Chemscore.Internal.Correction>
   9.000000E+99

> <Gold.Chemscore.Hbonds>
donor molecule, donor type, donor heavy atom, donor atom, acceptor molecule, acceptor atom, score
      L1  H     3    26       P1  7957  1.00
      L1  H     7    45       P1  8028  0.90

> <Gold.Chemscore.Hbond.Weighted>
-6.6609

> <Gold.Chemscore.Metal.Weighted>
-0.0000

> <Gold.Chemscore.Lipo.Weighted>
-13.4533

> <Gold.Chemscore.Internal_Hbond.Weighted>
0.0000

> <Gold.Chemscore.DEClash.Weighted>
0.0052

> <Gold.Chemscore.DEInternal.Weighted>
0.2933

> <Gold.Chemscore.Rot.Weighted>
5.2991

> <Gold.Chemscore.Internal.Correction.Weighted>
   9.000000E+99

> <Gold.Protein.RotatedTorsions>
[ 6907 6896 6895 6894 ] final -127.31 input  -60.11 | X-H torsion
[ 7974 7965 7964 7962 ] final   47.72 input  175.53 | X-H torsion
[ 8008 7997 7996 7995 ] final  123.83 input   59.86 | X-H torsion
[ 10167 10162 10161 10158 ] final -157.99 input  -65.29 | X-H torsion
[ 10718 10713 10712 10709 ] final  159.33 input   66.30 | X-H torsion
[ 10763 10752 10751 10750 ] final  -35.62 input  -60.55 | X-H torsion
[ 11005 11000 10999 10996 ] final  -21.17 input  -57.11 | X-H torsion

> <Gold.Protein.ActiveResidues>
 VAL166  LYS551  ARG553  GLY616  TRP617  ASP618  TYR619  PRO620  LYS621  CYS622 
 ASP623  PHE694  ASN695  SER759  ASP760  ASP761  ALA762  ILE779  LEU786  VAL792 
 PHE793  MET794  SER795  GLU796  ALA797  LYS798  CYS799  TRP800  GLU811  SER814 

> <Gold.Protein.RotatedAtoms>
  150.9060  133.7057  159.2866 H   0  0  0  0  0  0  0  0  0  0  0  0  # atno 6907 bound_to 6896
  151.4560  135.1033  159.9721 H   0  0  0  0  0  0  0  0  0  0  0  0  # atno 6908 bound_to 6896
  152.4903  133.8435  159.7220 H   0  0  0  0  0  0  0  0  0  0  0  0  # atno 6909 bound_to 6896
  146.0271  139.4719  142.9861 H   0  0  0  0  0  0  0  0  0  0  0  0  # atno 7974 bound_to 7965
  156.2780  140.2754  156.1690 H   0  0  0  0  0  0  0  0  0  0  0  0  # atno 8008 bound_to 7997
  155.0675  140.0387  157.2615 H   0  0  0  0  0  0  0  0  0  0  0  0  # atno 8009 bound_to 7997
  154.7067  140.2660  155.6673 H   0  0  0  0  0  0  0  0  0  0  0  0  # atno 8010 bound_to 7997
  139.6727  143.9717  152.2293 H   0  0  0  0  0  0  0  0  0  0  0  0  # atno 10167 bound_to 10162
  157.1656  131.0598  151.2209 H   0  0  0  0  0  0  0  0  0  0  0  0  # atno 10718 bound_to 10713
  153.8663  135.6835  153.4778 H   0  0  0  0  0  0  0  0  0  0  0  0  # atno 10763 bound_to 10752
  153.1313  135.4697  154.9350 H   0  0  0  0  0  0  0  0  0  0  0  0  # atno 10764 bound_to 10752
  154.7735  135.3246  154.8090 H   0  0  0  0  0  0  0  0  0  0  0  0  # atno 10765 bound_to 10752
  140.8535  133.7839  155.9993 H   0  0  0  0  0  0  0  0  0  0  0  0  # atno 11005 bound_to 11000
  145.7100  141.0109  143.1458 LP  0  0  0  0  0  0  0  0  0  0  0  0  # atno 17320 bound_to 7965
  144.7014  139.8746  143.7443 LP  0  0  0  0  0  0  0  0  0  0  0  0  # atno 17321 bound_to 7965
  139.9485  144.6635  150.8195 LP  0  0  0  0  0  0  0  0  0  0  0  0  # atno 17342 bound_to 10162
  140.7624  143.3197  151.2650 LP  0  0  0  0  0  0  0  0  0  0  0  0  # atno 17343 bound_to 10162
  157.4091  130.7375  149.6825 LP  0  0  0  0  0  0  0  0  0  0  0  0  # atno 17370 bound_to 10713
  155.9746  130.4100  150.3908 LP  0  0  0  0  0  0  0  0  0  0  0  0  # atno 17371 bound_to 10713
  140.8763  134.2665  157.5166 LP  0  0  0  0  0  0  0  0  0  0  0  0  # atno 17394 bound_to 11000
  139.8704  134.9592  156.4326 LP  0  0  0  0  0  0  0  0  0  0  0  0  # atno 17395 bound_to 11000

$$$$
