AV-unprocessed.smi:1352|AV-procd|sdf|5531|dock2
  -GOLD-   22720 5123D 1   1.00000     0.00000
 Structure written by MMmdl.
 47 48  0  0  0  0  0  0  0  0  2 V2000
  145.8263  136.2840  151.3201 C   0  0  0  0  0  0  0  0  0  0  0  0
  145.2667  135.0388  152.0300 C   0  0  1  0  0  0  0  0  0  0  0  0
  144.9689  133.8788  151.0620 C   0  0  0  0  0  0  0  0  0  0  0  0
  146.2601  133.1944  150.5793 C   0  0  2  0  0  0  0  0  0  0  0  0
  145.9512  131.9987  149.6672 C   0  0  0  0  0  0  0  0  0  0  0  0
  147.1253  132.7751  151.7836 C   0  0  0  0  0  0  0  0  0  0  0  0
  147.4241  133.9324  152.6661 N   0  3  2  0  0  0  0  0  0  0  0  0
  148.3908  133.5873  153.7387 C   0  0  0  0  0  0  0  0  0  0  0  0
  148.5093  134.6982  154.8002 C   0  0  0  0  0  0  0  0  0  0  0  0
  149.4929  135.7044  154.4178 N   0  0  0  0  0  0  0  0  0  0  0  0
  150.4770  136.1569  155.2095 C   0  0  0  0  0  0  0  0  0  0  0  0
  150.6312  135.7780  156.3714 O   0  0  0  0  0  0  0  0  0  0  0  0
  151.4081  137.2109  154.5929 C   0  0  0  0  0  0  0  0  0  0  0  0
  150.9281  138.5910  154.7762 N   0  0  0  0  0  0  0  0  0  0  0  0
  149.7372  138.9499  154.1141 C   0  0  0  0  0  0  0  0  0  0  0  0
  149.2114  140.1809  154.2161 C   0  0  0  0  0  0  0  0  0  0  0  0
  149.9010  141.1521  155.0318 C   0  0  0  0  0  0  0  0  0  0  0  0
  151.0391  140.8184  155.6721 C   0  0  0  0  0  0  0  0  0  0  0  0
  151.6156  139.4730  155.5660 C   0  0  0  0  0  0  0  0  0  0  0  0
  152.6522  139.1574  156.1509 O   0  0  0  0  0  0  0  0  0  0  0  0
  146.1782  134.5635  153.1788 C   0  0  0  0  0  0  0  0  0  0  0  0
  146.8000  136.0948  150.8683 H   0  0  0  0  0  0  0  0  0  0  0  0
  145.9456  137.1110  152.0206 H   0  0  0  0  0  0  0  0  0  0  0  0
  145.1539  136.6202  150.5305 H   0  0  0  0  0  0  0  0  0  0  0  0
  144.3166  135.3418  152.4720 H   0  0  0  0  0  0  0  0  0  0  0  0
  144.3421  133.1451  151.5711 H   0  0  0  0  0  0  0  0  0  0  0  0
  144.3866  134.2367  150.2117 H   0  0  0  0  0  0  0  0  0  0  0  0
  146.8293  133.9115  149.9870 H   0  0  0  0  0  0  0  0  0  0  0  0
  145.3863  131.2305  150.1959 H   0  0  0  0  0  0  0  0  0  0  0  0
  146.8682  131.5411  149.2951 H   0  0  0  0  0  0  0  0  0  0  0  0
  145.3637  132.3072  148.8019 H   0  0  0  0  0  0  0  0  0  0  0  0
  146.6246  131.9966  152.3618 H   0  0  0  0  0  0  0  0  0  0  0  0
  148.0593  132.3464  151.4175 H   0  0  0  0  0  0  0  0  0  0  0  0
  148.1123  132.6376  154.1982 H   0  0  0  0  0  0  0  0  0  0  0  0
  149.3745  133.4348  153.2925 H   0  0  0  0  0  0  0  0  0  0  0  0
  147.5401  135.1710  154.9695 H   0  0  0  0  0  0  0  0  0  0  0  0
  148.8252  134.2893  155.7589 H   0  0  0  0  0  0  0  0  0  0  0  0
  149.4339  136.0702  153.4781 H   0  0  0  0  0  0  0  0  0  0  0  0
  152.4084  137.1048  155.0172 H   0  0  0  0  0  0  0  0  0  0  0  0
  151.5227  136.9831  153.5325 H   0  0  0  0  0  0  0  0  0  0  0  0
  149.2799  138.1650  153.5295 H   0  0  0  0  0  0  0  0  0  0  0  0
  148.2951  140.4368  153.7045 H   0  0  0  0  0  0  0  0  0  0  0  0
  149.5013  142.1507  155.1300 H   0  0  0  0  0  0  0  0  0  0  0  0
  151.5410  141.5578  156.2786 H   0  0  0  0  0  0  0  0  0  0  0  0
  146.4113  135.4101  153.8236 H   0  0  0  0  0  0  0  0  0  0  0  0
  145.6442  133.8416  153.7989 H   0  0  0  0  0  0  0  0  0  0  0  0
  147.8828  134.6167  152.0814 H   0  0  0  0  0  0  0  0  0  0  0  0
  1  2  1  0  0  0  0
  1 22  1  0  0  0  0
  1 23  1  0  0  0  0
  1 24  1  0  0  0  0
  2 21  1  0  0  0  0
  2  3  1  0  0  0  0
  2 25  1  0  0  0  0
  3  4  1  0  0  0  0
  3 26  1  0  0  0  0
  3 27  1  0  0  0  0
  4  5  1  0  0  0  0
  4  6  1  0  0  0  0
  4 28  1  0  0  0  0
  5 29  1  0  0  0  0
  5 30  1  0  0  0  0
  5 31  1  0  0  0  0
  6  7  1  0  0  0  0
  6 32  1  0  0  0  0
  6 33  1  0  0  0  0
  7  8  1  0  0  0  0
  7 21  1  0  0  0  0
  7 47  1  0  0  0  0
  8  9  1  0  0  0  0
  8 34  1  0  0  0  0
  8 35  1  0  0  0  0
  9 10  1  0  0  0  0
  9 36  1  0  0  0  0
  9 37  1  0  0  0  0
 10 11  1  0  0  0  0
 10 38  1  0  0  0  0
 11 12  2  0  0  0  0
 11 13  1  0  0  0  0
 13 14  1  0  0  0  0
 13 39  1  0  0  0  0
 13 40  1  0  0  0  0
 14 19  1  0  0  0  0
 14 15  1  0  0  0  0
 15 16  2  0  0  0  0
 15 41  1  0  0  0  0
 16 17  1  0  0  0  0
 16 42  1  0  0  0  0
 17 18  2  0  0  0  0
 17 43  1  0  0  0  0
 18 19  1  0  0  0  0
 18 44  1  0  0  0  0
 19 20  2  0  0  0  0
 21 45  1  0  0  0  0
 21 46  1  0  0  0  0
M  CHG  1   7   1
M  END
> <s_m_source_file>
AV-unprocessed.smi

> <i_m_source_file_index>
1352

> <i_lp_mmshare_version>
43012

> <i_f3d_flags>
0

> <s_epik_input>
W0NIM11bQ0BASF0xW0NIMl1bQ0BASF0oW0NIM10pW0NIMl1OKFtDSDJdMSlbQ0gyXVtDSDJdW05IXUMoPU8pW0NIMl1uMltjSF1bY0hdW2NIXVtjSF1jMj1P

> <s_epik_cmdline>
J2VwaWtfcHl0aG9uJywgJy1waCcsICc3LjAnLCAnLXRuJywgJzgnLCAnLW1hJywgJzIwMCcsICctbWV0YWxfYmluZGluZycsICctaW1hZScsICc8aW5maWxlLm1hZT4nLCAnLW9tYWUnLCAnPG91dGZpbGUubWFlPic=

> <r_lp_tautomer_probability>
1

> <r_epik_Ionization_Penalty>
0.00156146

> <r_epik_Ionization_Penalty_Charging>
0.00156138

> <r_epik_Ionization_Penalty_Neutral>
8.12891e-08

> <r_epik_State_Penalty>
0.00104868

> <r_epik_Charging_Adjusted_Penalty>
0.00261006

> <i_epik_Tot_Q>
1

> <i_epik_Tot_abs_Q>
1

> <r_epik_Metal_State_Penalty>
-0

> <b_epik_Metal_Only>
0

> <s_lp_Force_Field>
OPLS_2005

> <r_lp_Energy>
27.867

> <b_lp_Chiralities_Consistent>
1

> <s_lp_Variant>
AV-unprocessed.smi:1352-4

> <Gold.Version>
5.8.1

> <Gold.Id.Protein>
6NUR|6NUR_protein|mol2

> <Gold.PLP.Fitness>
54.4553

> <Gold.PLP.PLP>
-41.3199

> <Gold.PLP.part.hbond>
-2.9646

> <Gold.PLP.part.metal>
0.0000

> <Gold.PLP.part.buried>
-0.4029

> <Gold.PLP.part.nonpolar>
-38.2938

> <Gold.PLP.part.repulsive>
0.0457

> <Gold.PLP.ligand.clash>
0.0000

> <Gold.PLP.ligand.torsion>
0.7240

> <Gold.PLP.Chemscore.Hbond>
3.9913

> <Gold.PLP.Chemscore.CHOScore>
0.8575

> <Gold.PLP.Chemscore.Metal>
0.0000

> <Gold.Chemscore.Hbonds>
donor molecule, donor type, donor heavy atom, donor atom, acceptor molecule, acceptor atom, score
      L1  H     7    47       P1  7948  2.00
      L1  H    10    38       P1  7948  1.00
      P1  H  7997  8009       L1    20  1.00
      L1  C    15    41       P1  7948  0.96

> <Gold.PLP.Chemscore.Internal.Correction>
0.0371

> <Gold.Rescore>
     Score         DG    S(hbond)    S(metal)    S(lipo)     H(rot)  DE(clash)    DE(int)     intcor
     19.68     -20.28       2.84        0.00      85.62       1.83       0.03       0.57       ----

> <Gold.Chemscore.Fitness>
19.6826

> <Gold.Chemscore.DG>
-20.2818

> <Gold.Chemscore.ZeroCoef>
-5.4800

> <Gold.Chemscore.Hbond>
2.8372

> <Gold.Chemscore.Metal>
0.0000

> <Gold.Chemscore.Lipo>
85.6209

> <Gold.Chemscore.Internal_Hbond>
0.0000

> <Gold.Chemscore.DEClash>
0.0299

> <Gold.Chemscore.DEInternal>
0.5693

> <Gold.Chemscore.Rot>
1.8329

> <Gold.Chemscore.Internal.Correction>
   9.000000E+99

> <Gold.Chemscore.Hbonds>
donor molecule, donor type, donor heavy atom, donor atom, acceptor molecule, acceptor atom, score
      L1  H     7    47       P1  7948  0.34
      L1  H    10    38       P1  7948  0.55
      P1  H  7997  8009       L1    20  0.99

> <Gold.Chemscore.Hbond.Weighted>
-9.4763

> <Gold.Chemscore.Metal.Weighted>
-0.0000

> <Gold.Chemscore.Lipo.Weighted>
-10.0176

> <Gold.Chemscore.Internal_Hbond.Weighted>
0.0000

> <Gold.Chemscore.DEClash.Weighted>
0.0299

> <Gold.Chemscore.DEInternal.Weighted>
0.5693

> <Gold.Chemscore.Rot.Weighted>
4.6922

> <Gold.Chemscore.Internal.Correction.Weighted>
   9.000000E+99

> <Gold.Protein.RotatedTorsions>
[ 6907 6896 6895 6894 ] final   43.93 input  -60.11 | X-H torsion
[ 7974 7965 7964 7962 ] final  -16.05 input  175.53 | X-H torsion
[ 8008 7997 7996 7995 ] final -164.88 input   59.86 | X-H torsion
[ 10167 10162 10161 10158 ] final  -75.68 input  -65.29 | X-H torsion
[ 10718 10713 10712 10709 ] final   54.50 input   66.30 | X-H torsion
[ 10763 10752 10751 10750 ] final    6.29 input  -60.55 | X-H torsion
[ 11005 11000 10999 10996 ] final -158.81 input  -57.11 | X-H torsion

> <Gold.Protein.ActiveResidues>
 VAL166  LYS551  ARG553  GLY616  TRP617  ASP618  TYR619  PRO620  LYS621  CYS622 
 ASP623  PHE694  ASN695  SER759  ASP760  ASP761  ALA762  ILE779  LEU786  VAL792 
 PHE793  MET794  SER795  GLU796  ALA797  LYS798  CYS799  TRP800  GLU811  SER814 

> <Gold.Protein.RotatedAtoms>
  152.2263  134.8365  160.0479 H   0  0  0  0  0  0  0  0  0  0  0  0  # atno 6907 bound_to 6896
  151.9130  133.3561  159.3878 H   0  0  0  0  0  0  0  0  0  0  0  0  # atno 6908 bound_to 6896
  150.7013  134.4638  159.5437 H   0  0  0  0  0  0  0  0  0  0  0  0  # atno 6909 bound_to 6896
  146.2005  140.3581  142.8425 H   0  0  0  0  0  0  0  0  0  0  0  0  # atno 7974 bound_to 7965
  155.8419  140.0949  157.1729 H   0  0  0  0  0  0  0  0  0  0  0  0  # atno 8008 bound_to 7997
  154.3982  140.1399  156.3801 H   0  0  0  0  0  0  0  0  0  0  0  0  # atno 8009 bound_to 7997
  155.8055  140.3451  155.5429 H   0  0  0  0  0  0  0  0  0  0  0  0  # atno 8010 bound_to 7997
  140.4922  143.2378  151.7888 H   0  0  0  0  0  0  0  0  0  0  0  0  # atno 10167 bound_to 10162
  157.5262  130.8599  149.8625 H   0  0  0  0  0  0  0  0  0  0  0  0  # atno 10718 bound_to 10713
  153.2494  135.6912  153.7696 H   0  0  0  0  0  0  0  0  0  0  0  0  # atno 10763 bound_to 10752
  153.6796  135.3330  155.3175 H   0  0  0  0  0  0  0  0  0  0  0  0  # atno 10764 bound_to 10752
  154.8388  135.4519  154.1445 H   0  0  0  0  0  0  0  0  0  0  0  0  # atno 10765 bound_to 10752
  140.6495  134.4465  157.5235 H   0  0  0  0  0  0  0  0  0  0  0  0  # atno 11005 bound_to 11000
  144.8673  140.7223  143.6069 LP  0  0  0  0  0  0  0  0  0  0  0  0  # atno 17320 bound_to 7965
  145.3500  139.1709  143.4439 LP  0  0  0  0  0  0  0  0  0  0  0  0  # atno 17321 bound_to 7965
  139.4853  144.4634  151.9513 LP  0  0  0  0  0  0  0  0  0  0  0  0  # atno 17342 bound_to 10162
  140.3721  144.2842  150.5918 LP  0  0  0  0  0  0  0  0  0  0  0  0  # atno 17343 bound_to 10162
  156.0389  130.3744  150.1487 LP  0  0  0  0  0  0  0  0  0  0  0  0  # atno 17370 bound_to 10713
  156.9674  130.9824  151.3466 LP  0  0  0  0  0  0  0  0  0  0  0  0  # atno 17371 bound_to 10713
  139.9051  134.8468  156.1740 LP  0  0  0  0  0  0  0  0  0  0  0  0  # atno 17394 bound_to 11000
  141.0547  133.6871  156.1838 LP  0  0  0  0  0  0  0  0  0  0  0  0  # atno 17395 bound_to 11000

$$$$
