AV-unprocessed.smi:2641|AV-procd|sdf|10273|dock8
  -GOLD-   2272014283D 1   1.00000     0.00000
 Structure written by MMmdl.
 40 41  0  0  0  0  0  0  0  0  3 V2000
  149.8655  132.9312  153.2936 C   0  0  0  0  0  0  0  0  0  0  0  0
  149.5051  133.8345  154.4541 C   0  0  0  0  0  0  0  0  0  0  0  0
  149.6517  133.4298  155.7983 C   0  0  0  0  0  0  0  0  0  0  0  0
  149.2932  134.3236  156.8289 C   0  0  0  0  0  0  0  0  0  0  0  0
  148.7964  135.6032  156.4957 C   0  0  0  0  0  0  0  0  0  0  0  0
  148.4003  136.5870  157.5821 C   0  0  0  0  0  0  0  0  0  0  0  0
  149.6378  137.2859  158.1485 C   0  0  0  0  0  0  0  0  0  0  0  0
  150.2487  136.7627  159.0793 O   0  0  0  0  0  0  0  0  0  0  0  0
  149.9636  138.4530  157.5621 N   0  0  0  0  0  0  0  0  0  0  0  0
  151.0689  139.3988  157.7873 C   0  0  0  0  0  0  0  0  0  0  0  0
  151.7706  139.5190  156.4100 C   0  0  0  0  0  0  0  0  0  0  0  0
  152.9651  139.1539  156.3298 O   0  0  0  0  0  0  0  0  0  0  0  0
  151.1245  140.0233  155.4645 O   0  5  0  0  0  0  0  0  0  0  0  0
  150.4296  140.7514  158.2144 C   0  0  0  0  0  0  0  0  0  0  0  0
  151.4665  141.8473  158.5322 C   0  0  0  0  0  0  0  0  0  0  0  0
  152.4560  141.3832  159.6106 C   0  0  0  0  0  0  0  0  0  0  0  0
  153.1291  140.0618  159.2132 C   0  0  0  0  0  0  0  0  0  0  0  0
  152.0806  138.9758  158.9007 C   0  0  0  0  0  0  0  0  0  0  0  0
  148.6714  135.9522  155.1335 C   0  0  0  0  0  0  0  0  0  0  0  0
  149.0248  135.0675  154.1758 N   0  3  0  0  0  0  0  0  0  0  0  0
  150.3153  132.0017  153.6440 H   0  0  0  0  0  0  0  0  0  0  0  0
  150.5781  133.4251  152.6323 H   0  0  0  0  0  0  0  0  0  0  0  0
  148.9743  132.6822  152.7167 H   0  0  0  0  0  0  0  0  0  0  0  0
  150.0319  132.4478  156.0402 H   0  0  0  0  0  0  0  0  0  0  0  0
  149.3957  134.0273  157.8629 H   0  0  0  0  0  0  0  0  0  0  0  0
  147.7198  137.3370  157.1772 H   0  0  0  0  0  0  0  0  0  0  0  0
  147.8565  136.0626  158.3697 H   0  0  0  0  0  0  0  0  0  0  0  0
  149.3621  138.7261  156.7985 H   0  0  0  0  0  0  0  0  0  0  0  0
  149.7378  141.1166  157.4539 H   0  0  0  0  0  0  0  0  0  0  0  0
  149.8176  140.5887  159.1028 H   0  0  0  0  0  0  0  0  0  0  0  0
  152.0117  142.1232  157.6289 H   0  0  0  0  0  0  0  0  0  0  0  0
  150.9563  142.7512  158.8657 H   0  0  0  0  0  0  0  0  0  0  0  0
  153.2116  142.1509  159.7789 H   0  0  0  0  0  0  0  0  0  0  0  0
  151.9295  141.2535  160.5569 H   0  0  0  0  0  0  0  0  0  0  0  0
  153.7766  140.2228  158.3508 H   0  0  0  0  0  0  0  0  0  0  0  0
  153.7787  139.7234  160.0207 H   0  0  0  0  0  0  0  0  0  0  0  0
  151.5399  138.7762  159.8266 H   0  0  0  0  0  0  0  0  0  0  0  0
  152.5897  138.0459  158.6429 H   0  0  0  0  0  0  0  0  0  0  0  0
  148.2984  136.9042  154.7840 H   0  0  0  0  0  0  0  0  0  0  0  0
  148.9234  135.3424  153.1986 H   0  0  0  0  0  0  0  0  0  0  0  0
  1  2  1  0  0  0  0
  1 21  1  0  0  0  0
  1 22  1  0  0  0  0
  1 23  1  0  0  0  0
  2 20  1  0  0  0  0
  2  3  2  0  0  0  0
  3  4  1  0  0  0  0
  3 24  1  0  0  0  0
  4  5  2  0  0  0  0
  4 25  1  0  0  0  0
  5  6  1  0  0  0  0
  5 19  1  0  0  0  0
  6  7  1  0  0  0  0
  6 26  1  0  0  0  0
  6 27  1  0  0  0  0
  7  8  2  0  0  0  0
  7  9  1  0  0  0  0
  9 10  1  0  0  0  0
  9 28  1  0  0  0  0
 10 18  1  0  0  0  0
 10 11  1  0  0  0  0
 10 14  1  0  0  0  0
 11 12  2  0  0  0  0
 11 13  1  0  0  0  0
 14 15  1  0  0  0  0
 14 29  1  0  0  0  0
 14 30  1  0  0  0  0
 15 16  1  0  0  0  0
 15 31  1  0  0  0  0
 15 32  1  0  0  0  0
 16 17  1  0  0  0  0
 16 33  1  0  0  0  0
 16 34  1  0  0  0  0
 17 18  1  0  0  0  0
 17 35  1  0  0  0  0
 17 36  1  0  0  0  0
 18 37  1  0  0  0  0
 18 38  1  0  0  0  0
 19 20  2  0  0  0  0
 19 39  1  0  0  0  0
 20 40  1  0  0  0  0
M  CHG  1  13  -1
M  CHG  1  20   1
M  END
> <s_m_source_file>
AV-unprocessed.smi

> <i_m_source_file_index>
2641

> <i_lp_mmshare_version>
43012

> <i_f3d_flags>
0

> <s_epik_input>
W0NIM11jMVtjSF1bY0hdYyhbY0hdbjEpW0NIMl1DKD1PKVtOSF1DMihDKD1PKVtPSF0pW0NIMl1bQ0gyXVtDSDJdW0NIMl1bQ0gyXTI=

> <s_epik_cmdline>
J2VwaWtfcHl0aG9uJywgJy1waCcsICc3LjAnLCAnLXRuJywgJzgnLCAnLW1hJywgJzIwMCcsICctbWV0YWxfYmluZGluZycsICctaW1hZScsICc8aW5maWxlLm1hZT4nLCAnLW9tYWUnLCAnPG91dGZpbGUubWFlPic=

> <r_epik_Ionization_Penalty>
2.05743

> <r_epik_Ionization_Penalty_Charging>
2.05743

> <r_epik_Ionization_Penalty_Neutral>
6.51537e-08

> <r_epik_State_Penalty>
2.19002

> <r_epik_Charging_Adjusted_Penalty>
4.24745

> <i_epik_Tot_Q>
0

> <i_epik_Tot_abs_Q>
2

> <r_epik_Metal_State_Penalty>
2.2083

> <b_epik_Metal_Only>
0

> <s_lp_Force_Field>
OPLS_2005

> <r_lp_Energy>
7.8147

> <b_lp_Chiralities_Consistent>
1

> <s_lp_Variant>
AV-unprocessed.smi:2641-2

> <Gold.Version>
5.8.1

> <Gold.Id.Protein>
6NUR|6NUR_protein|mol2

> <Gold.PLP.Fitness>
41.1057

> <Gold.PLP.PLP>
-25.4422

> <Gold.PLP.part.hbond>
-3.8010

> <Gold.PLP.part.metal>
0.0000

> <Gold.PLP.part.buried>
-4.6275

> <Gold.PLP.part.nonpolar>
-17.4009

> <Gold.PLP.part.repulsive>
0.0757

> <Gold.PLP.ligand.clash>
0.0000

> <Gold.PLP.ligand.torsion>
0.8026

> <Gold.PLP.Chemscore.Hbond>
5.7388

> <Gold.PLP.Chemscore.CHOScore>
0.0000

> <Gold.PLP.Chemscore.Metal>
0.0000

> <Gold.Chemscore.Hbonds>
donor molecule, donor type, donor heavy atom, donor atom, acceptor molecule, acceptor atom, score
      L1  H    20    40       P1  7948  2.00
      P1  H  6896  6908       L1     8  0.99
      P1  H  7989  7998       L1    13  0.59
      P1  H  7997  8009       L1    12  2.00

> <Gold.PLP.Chemscore.Internal.Correction>
0.0525

> <Gold.Rescore>
     Score         DG    S(hbond)    S(metal)    S(lipo)     H(rot)  DE(clash)    DE(int)     intcor
     16.68     -20.03       3.71        0.00      60.25       1.91       0.22       3.13       ----

> <Gold.Chemscore.Fitness>
16.6807

> <Gold.Chemscore.DG>
-20.0272

> <Gold.Chemscore.ZeroCoef>
-5.4800

> <Gold.Chemscore.Hbond>
3.7125

> <Gold.Chemscore.Metal>
0.0000

> <Gold.Chemscore.Lipo>
60.2546

> <Gold.Chemscore.Internal_Hbond>
0.0000

> <Gold.Chemscore.DEClash>
0.2213

> <Gold.Chemscore.DEInternal>
3.1251

> <Gold.Chemscore.Rot>
1.9149

> <Gold.Chemscore.Internal.Correction>
   9.000000E+99

> <Gold.Chemscore.Hbonds>
donor molecule, donor type, donor heavy atom, donor atom, acceptor molecule, acceptor atom, score
      L1  H    20    40       P1  7948  0.54
      P1  H  6896  6908       L1     8  0.92
      P1  H  7989  7998       L1    13  0.57
      P1  H  7997  8009       L1    12  1.00

> <Gold.Chemscore.Hbond.Weighted>
-12.3997

> <Gold.Chemscore.Metal.Weighted>
-0.0000

> <Gold.Chemscore.Lipo.Weighted>
-7.0498

> <Gold.Chemscore.Internal_Hbond.Weighted>
0.0000

> <Gold.Chemscore.DEClash.Weighted>
0.2213

> <Gold.Chemscore.DEInternal.Weighted>
3.1251

> <Gold.Chemscore.Rot.Weighted>
4.9023

> <Gold.Chemscore.Internal.Correction.Weighted>
   9.000000E+99

> <Gold.Protein.RotatedTorsions>
[ 6907 6896 6895 6894 ] final -156.28 input  -60.11 | X-H torsion
[ 7974 7965 7964 7962 ] final   55.13 input  175.53 | X-H torsion
[ 8008 7997 7996 7995 ] final -157.05 input   59.86 | X-H torsion
[ 10167 10162 10161 10158 ] final   38.57 input  -65.29 | X-H torsion
[ 10718 10713 10712 10709 ] final -171.09 input   66.30 | X-H torsion
[ 10763 10752 10751 10750 ] final  -89.05 input  -60.55 | X-H torsion
[ 11005 11000 10999 10996 ] final   38.47 input  -57.11 | X-H torsion

> <Gold.Protein.ActiveResidues>
 VAL166  LYS551  ARG553  GLY616  TRP617  ASP618  TYR619  PRO620  LYS621  CYS622 
 ASP623  PHE694  ASN695  SER759  ASP760  ASP761  ALA762  ILE779  LEU786  VAL792 
 PHE793  MET794  SER795  GLU796  ALA797  LYS798  CYS799  TRP800  GLU811  SER814 

> <Gold.Protein.RotatedAtoms>
  151.2853  133.4190  159.2629 H   0  0  0  0  0  0  0  0  0  0  0  0  # atno 6907 bound_to 6896
  151.0325  134.9550  159.8129 H   0  0  0  0  0  0  0  0  0  0  0  0  # atno 6908 bound_to 6896
  152.5348  134.2813  159.9061 H   0  0  0  0  0  0  0  0  0  0  0  0  # atno 6909 bound_to 6896
  145.9536  139.3994  143.0291 H   0  0  0  0  0  0  0  0  0  0  0  0  # atno 7974 bound_to 7965
  155.7266  140.0796  157.2307 H   0  0  0  0  0  0  0  0  0  0  0  0  # atno 8008 bound_to 7997
  154.4038  140.1603  156.2516 H   0  0  0  0  0  0  0  0  0  0  0  0  # atno 8009 bound_to 7997
  155.9148  140.3401  155.6129 H   0  0  0  0  0  0  0  0  0  0  0  0  # atno 8010 bound_to 7997
  140.3924  144.1834  150.6131 H   0  0  0  0  0  0  0  0  0  0  0  0  # atno 10167 bound_to 10162
  156.7357  130.9323  151.3107 H   0  0  0  0  0  0  0  0  0  0  0  0  # atno 10718 bound_to 10713
  154.6512  135.5355  153.7903 H   0  0  0  0  0  0  0  0  0  0  0  0  # atno 10763 bound_to 10752
  153.0387  135.6483  154.1014 H   0  0  0  0  0  0  0  0  0  0  0  0  # atno 10764 bound_to 10752
  154.0931  135.2938  155.3247 H   0  0  0  0  0  0  0  0  0  0  0  0  # atno 10765 bound_to 10752
  140.2123  134.3740  155.8043 H   0  0  0  0  0  0  0  0  0  0  0  0  # atno 11005 bound_to 11000
  145.8137  140.9713  143.0935 LP  0  0  0  0  0  0  0  0  0  0  0  0  # atno 17320 bound_to 7965
  144.6800  139.9954  143.7484 LP  0  0  0  0  0  0  0  0  0  0  0  0  # atno 17321 bound_to 7965
  140.4826  143.2374  151.8934 LP  0  0  0  0  0  0  0  0  0  0  0  0  # atno 17342 bound_to 10162
  139.4788  144.5253  151.8744 LP  0  0  0  0  0  0  0  0  0  0  0  0  # atno 17343 bound_to 10162
  157.6840  130.9167  150.0339 LP  0  0  0  0  0  0  0  0  0  0  0  0  # atno 17370 bound_to 10713
  156.1499  130.3642  149.9454 LP  0  0  0  0  0  0  0  0  0  0  0  0  # atno 17371 bound_to 10713
  141.2226  133.7149  156.8439 LP  0  0  0  0  0  0  0  0  0  0  0  0  # atno 17394 bound_to 11000
  140.1937  134.8947  157.3090 LP  0  0  0  0  0  0  0  0  0  0  0  0  # atno 17395 bound_to 11000

$$$$
