AV-unprocessed.smi:2797|AV-procd|sdf|10783|dock2
  -GOLD-   2272015213D 1   1.00000     0.00000
 Structure written by MMmdl.
 37 38  0  0  0  0  0  0  0  0  1 V2000
  149.7282  140.0865  154.3920 C   0  0  0  0  0  0  0  0  0  0  0  0
  148.4420  140.0126  154.9960 O   0  0  0  0  0  0  0  0  0  0  0  0
  147.3093  140.2709  154.1588 C   0  0  0  0  0  0  0  0  0  0  0  0
  147.0475  139.1129  153.1866 C   0  0  0  0  0  0  0  0  0  0  0  0
  145.6163  138.8791  153.0207 N   0  0  0  0  0  0  0  0  0  0  0  0
  144.9636  137.7558  153.3502 C   0  0  0  0  0  0  0  0  0  0  0  0
  145.5169  136.7529  153.8000 O   0  0  0  0  0  0  0  0  0  0  0  0
  143.6474  137.8742  153.1060 N   0  0  0  0  0  0  0  0  0  0  0  0
  142.6100  136.9237  153.3207 C   0  0  0  0  0  0  0  0  0  0  0  0
  142.8055  135.5237  153.2414 C   0  0  0  0  0  0  0  0  0  0  0  0
  141.7126  134.6724  153.4923 C   0  0  0  0  0  0  0  0  0  0  0  0
  140.4820  135.1199  153.8151 N   0  0  0  0  0  0  0  0  0  0  0  0
  140.2953  136.4547  153.9067 C   0  0  0  0  0  0  0  0  0  0  0  0
  138.8935  136.8969  154.2825 C   0  0  0  0  0  0  0  0  0  0  0  0
  141.3247  137.3973  153.6750 C   0  0  0  0  0  0  0  0  0  0  0  0
  141.0147  139.0957  153.8176 Cl  0  0  0  0  0  0  0  0  0  0  0  0
  146.1617  140.6978  155.0943 C   0  0  0  0  0  0  0  0  0  0  0  0
  146.6069  142.1522  154.9314 C   0  0  0  0  0  0  0  0  0  0  0  0
  147.2927  141.7236  153.6332 C   0  0  0  0  0  0  0  0  0  0  0  0
  150.4820  139.8479  155.1419 H   0  0  0  0  0  0  0  0  0  0  0  0
  149.9531  141.0834  154.0165 H   0  0  0  0  0  0  0  0  0  0  0  0
  149.8497  139.3741  153.5782 H   0  0  0  0  0  0  0  0  0  0  0  0
  147.4439  139.3621  152.2021 H   0  0  0  0  0  0  0  0  0  0  0  0
  147.5754  138.2064  153.4828 H   0  0  0  0  0  0  0  0  0  0  0  0
  145.0764  139.6472  152.6504 H   0  0  0  0  0  0  0  0  0  0  0  0
  143.3571  138.7294  152.6551 H   0  0  0  0  0  0  0  0  0  0  0  0
  143.7647  135.0877  153.0091 H   0  0  0  0  0  0  0  0  0  0  0  0
  141.8327  133.6005  153.4390 H   0  0  0  0  0  0  0  0  0  0  0  0
  138.4776  137.5404  153.5068 H   0  0  0  0  0  0  0  0  0  0  0  0
  138.9111  137.4531  155.2200 H   0  0  0  0  0  0  0  0  0  0  0  0
  138.2235  136.0450  154.4079 H   0  0  0  0  0  0  0  0  0  0  0  0
  145.1753  140.5149  154.6647 H   0  0  0  0  0  0  0  0  0  0  0  0
  146.2276  140.3112  156.1120 H   0  0  0  0  0  0  0  0  0  0  0  0
  145.7951  142.8691  154.8059 H   0  0  0  0  0  0  0  0  0  0  0  0
  147.3146  142.4675  155.6998 H   0  0  0  0  0  0  0  0  0  0  0  0
  148.2588  142.1952  153.4607 H   0  0  0  0  0  0  0  0  0  0  0  0
  146.6424  141.8458  152.7655 H   0  0  0  0  0  0  0  0  0  0  0  0
  1  2  1  0  0  0  0
  1 20  1  0  0  0  0
  1 21  1  0  0  0  0
  1 22  1  0  0  0  0
  2  3  1  0  0  0  0
  3 19  1  0  0  0  0
  3  4  1  0  0  0  0
  3 17  1  0  0  0  0
  4  5  1  0  0  0  0
  4 23  1  0  0  0  0
  4 24  1  0  0  0  0
  5  6  1  0  0  0  0
  5 25  1  0  0  0  0
  6  7  2  0  0  0  0
  6  8  1  0  0  0  0
  8  9  1  0  0  0  0
  8 26  1  0  0  0  0
  9 15  1  0  0  0  0
  9 10  2  0  0  0  0
 10 11  1  0  0  0  0
 10 27  1  0  0  0  0
 11 12  2  0  0  0  0
 11 28  1  0  0  0  0
 12 13  1  0  0  0  0
 13 14  1  0  0  0  0
 13 15  2  0  0  0  0
 14 29  1  0  0  0  0
 14 30  1  0  0  0  0
 14 31  1  0  0  0  0
 15 16  1  0  0  0  0
 17 18  1  0  0  0  0
 17 32  1  0  0  0  0
 17 33  1  0  0  0  0
 18 19  1  0  0  0  0
 18 34  1  0  0  0  0
 18 35  1  0  0  0  0
 19 36  1  0  0  0  0
 19 37  1  0  0  0  0
M  END
> <s_m_source_file>
AV-unprocessed.smi

> <i_m_source_file_index>
2797

> <i_lp_mmshare_version>
43012

> <i_f3d_flags>
0

> <s_epik_input>
W0NIMl0xW0NIMl1bQ0gyXUMxKE9bQ0gzXSlbQ0gyXVtOSF1DKD1PKVtOSF1jMltjSF1bY0hdbmMoW0NIM10pYzJDbA==

> <s_epik_cmdline>
J2VwaWtfcHl0aG9uJywgJy1waCcsICc3LjAnLCAnLXRuJywgJzgnLCAnLW1hJywgJzIwMCcsICctbWV0YWxfYmluZGluZycsICctaW1hZScsICc8aW5maWxlLm1hZT4nLCAnLW9tYWUnLCAnPG91dGZpbGUubWFlPic=

> <r_epik_Ionization_Penalty>
0.0099818

> <r_epik_Ionization_Penalty_Charging>
0

> <r_epik_Ionization_Penalty_Neutral>
0.0099818

> <r_epik_State_Penalty>
0.00758124

> <r_epik_Charging_Adjusted_Penalty>
0.00758124

> <i_epik_Tot_Q>
0

> <i_epik_Tot_abs_Q>
0

> <r_epik_Metal_State_Penalty>
0.00745574

> <b_epik_Metal_Only>
0

> <s_lp_Force_Field>
OPLS_2005

> <r_lp_Energy>
22.2651

> <b_lp_Chiralities_Consistent>
1

> <s_lp_Variant>
AV-unprocessed.smi:2797-1

> <Gold.Version>
5.8.1

> <Gold.Id.Protein>
6NUR|6NUR_protein|mol2

> <Gold.PLP.Fitness>
43.0808

> <Gold.PLP.PLP>
-33.5383

> <Gold.PLP.part.hbond>
-3.9548

> <Gold.PLP.part.metal>
0.0000

> <Gold.PLP.part.buried>
-3.7350

> <Gold.PLP.part.nonpolar>
-25.7680

> <Gold.PLP.part.repulsive>
0.3675

> <Gold.PLP.ligand.clash>
0.0000

> <Gold.PLP.ligand.torsion>
1.0764

> <Gold.PLP.Chemscore.Hbond>
2.8053

> <Gold.PLP.Chemscore.CHOScore>
1.0000

> <Gold.PLP.Chemscore.Metal>
0.0000

> <Gold.Chemscore.Hbonds>
donor molecule, donor type, donor heavy atom, donor atom, acceptor molecule, acceptor atom, score
      L1  H     5    25       P1 10175  1.00
      L1  H     8    26       P1 10175  0.94
      P1  H 11000 11005       L1    12  0.84
      L1  C    11    28       P1 10957  1.00

> <Gold.PLP.Chemscore.Internal.Correction>
0.2795

> <Gold.Rescore>
     Score         DG    S(hbond)    S(metal)    S(lipo)     H(rot)  DE(clash)    DE(int)     intcor
     15.19     -17.39       2.16        0.00      70.79       1.41       0.12       2.07       ----

> <Gold.Chemscore.Fitness>
15.1945

> <Gold.Chemscore.DG>
-17.3860

> <Gold.Chemscore.ZeroCoef>
-5.4800

> <Gold.Chemscore.Hbond>
2.1649

> <Gold.Chemscore.Metal>
0.0000

> <Gold.Chemscore.Lipo>
70.7934

> <Gold.Chemscore.Internal_Hbond>
0.0000

> <Gold.Chemscore.DEClash>
0.1223

> <Gold.Chemscore.DEInternal>
2.0692

> <Gold.Chemscore.Rot>
1.4092

> <Gold.Chemscore.Internal.Correction>
   9.000000E+99

> <Gold.Chemscore.Hbonds>
donor molecule, donor type, donor heavy atom, donor atom, acceptor molecule, acceptor atom, score
      L1  H     5    25       P1 10175  0.96
      L1  H     8    26       P1 10175  0.91
      P1  H 11000 11005       L1    12  0.17

> <Gold.Chemscore.Hbond.Weighted>
-7.2307

> <Gold.Chemscore.Metal.Weighted>
-0.0000

> <Gold.Chemscore.Lipo.Weighted>
-8.2828

> <Gold.Chemscore.Internal_Hbond.Weighted>
0.0000

> <Gold.Chemscore.DEClash.Weighted>
0.1223

> <Gold.Chemscore.DEInternal.Weighted>
2.0692

> <Gold.Chemscore.Rot.Weighted>
3.6075

> <Gold.Chemscore.Internal.Correction.Weighted>
   9.000000E+99

> <Gold.Protein.RotatedTorsions>
[ 6907 6896 6895 6894 ] final   50.24 input  -60.11 | X-H torsion
[ 7974 7965 7964 7962 ] final  -11.61 input  175.53 | X-H torsion
[ 8008 7997 7996 7995 ] final  138.55 input   59.86 | X-H torsion
[ 10167 10162 10161 10158 ] final   22.50 input  -65.29 | X-H torsion
[ 10718 10713 10712 10709 ] final  105.28 input   66.30 | X-H torsion
[ 10763 10752 10751 10750 ] final  132.55 input  -60.55 | X-H torsion
[ 11005 11000 10999 10996 ] final   45.14 input  -57.11 | X-H torsion

> <Gold.Protein.ActiveResidues>
 VAL166  LYS551  ARG553  GLY616  TRP617  ASP618  TYR619  PRO620  LYS621  CYS622 
 ASP623  PHE694  ASN695  SER759  ASP760  ASP761  ALA762  ILE779  LEU786  VAL792 
 PHE793  MET794  SER795  GLU796  ALA797  LYS798  CYS799  TRP800  GLU811  SER814 

> <Gold.Protein.RotatedAtoms>
  152.2997  134.7626  160.0360 H   0  0  0  0  0  0  0  0  0  0  0  0  # atno 6907 bound_to 6896
  151.8143  133.3380  159.3573 H   0  0  0  0  0  0  0  0  0  0  0  0  # atno 6908 bound_to 6896
  150.7268  134.5563  159.5864 H   0  0  0  0  0  0  0  0  0  0  0  0  # atno 6909 bound_to 6896
  146.2181  140.2936  142.8370 H   0  0  0  0  0  0  0  0  0  0  0  0  # atno 7974 bound_to 7965
  156.2996  140.2390  156.4092 H   0  0  0  0  0  0  0  0  0  0  0  0  # atno 8008 bound_to 7997
  154.8456  140.0426  157.1591 H   0  0  0  0  0  0  0  0  0  0  0  0  # atno 8009 bound_to 7997
  154.9054  140.2983  155.5298 H   0  0  0  0  0  0  0  0  0  0  0  0  # atno 8010 bound_to 7997
  140.5343  143.9787  150.6483 H   0  0  0  0  0  0  0  0  0  0  0  0  # atno 10167 bound_to 10162
  157.6711  131.0824  150.5834 H   0  0  0  0  0  0  0  0  0  0  0  0  # atno 10718 bound_to 10713
  153.7926  135.3153  155.3380 H   0  0  0  0  0  0  0  0  0  0  0  0  # atno 10763 bound_to 10752
  154.8120  135.4661  154.0544 H   0  0  0  0  0  0  0  0  0  0  0  0  # atno 10764 bound_to 10752
  153.1867  135.6902  153.8493 H   0  0  0  0  0  0  0  0  0  0  0  0  # atno 10765 bound_to 10752
  140.1487  134.4489  155.8397 H   0  0  0  0  0  0  0  0  0  0  0  0  # atno 11005 bound_to 11000
  144.9109  140.7755  143.5808 LP  0  0  0  0  0  0  0  0  0  0  0  0  # atno 17320 bound_to 7965
  145.2867  139.1898  143.4762 LP  0  0  0  0  0  0  0  0  0  0  0  0  # atno 17321 bound_to 7965
  140.3171  143.3161  152.0821 LP  0  0  0  0  0  0  0  0  0  0  0  0  # atno 17342 bound_to 10162
  139.4965  144.6598  151.6490 LP  0  0  0  0  0  0  0  0  0  0  0  0  # atno 17343 bound_to 10162
  156.6134  130.4386  149.5850 LP  0  0  0  0  0  0  0  0  0  0  0  0  # atno 17370 bound_to 10713
  156.2412  130.6852  151.1557 LP  0  0  0  0  0  0  0  0  0  0  0  0  # atno 17371 bound_to 10713
  141.2196  133.6863  156.7382 LP  0  0  0  0  0  0  0  0  0  0  0  0  # atno 17394 bound_to 11000
  140.2631  134.8451  157.3777 LP  0  0  0  0  0  0  0  0  0  0  0  0  # atno 17395 bound_to 11000

$$$$
