AV-unprocessed.smi:1809|AV-procd|sdf|7330|dock3
  -GOLD-   22720 8583D 1   1.00000     0.00000
 Structure written by MMmdl.
 38 40  0  0  0  0  0  0  0  0  2 V2000
  149.5041  140.8701  154.7125 C   0  0  0  0  0  0  0  0  0  0  0  0
  150.6273  140.1220  155.3446 C   0  0  0  0  0  0  0  0  0  0  0  0
  151.8095  139.9527  154.7475 N   0  0  0  0  0  0  0  0  0  0  0  0
  152.6910  139.2224  155.5315 N   0  0  0  0  0  0  0  0  0  0  0  0
  152.1608  138.8391  156.7017 C   0  0  0  0  0  0  0  0  0  0  0  0
  152.8516  138.1251  157.6060 N   0  5  0  0  0  0  0  0  0  0  0  0
  152.7357  138.4090  158.9232 C   0  0  0  0  0  0  0  0  0  0  0  0
  152.2126  137.6950  159.7821 O   0  0  0  0  0  0  0  0  0  0  0  0
  153.2560  139.5936  159.2689 N   0  0  0  0  0  0  0  0  0  0  0  0
  153.2687  140.1417  160.6189 C   0  0  0  0  0  0  0  0  0  0  0  0
  154.0698  141.4570  160.6680 C   0  0  1  0  0  0  0  0  0  0  0  0
  153.8591  142.3343  159.4110 C   0  0  0  0  0  0  0  0  0  0  0  0
  152.5600  142.9800  159.4472 N   0  0  0  0  0  0  0  0  0  0  0  0
  152.2637  143.9069  158.3802 C   0  0  0  0  0  0  0  0  0  0  0  0
  151.0561  144.7079  158.8966 C   0  0  0  0  0  0  0  0  0  0  0  0
  151.0933  144.5153  160.4288 C   0  0  0  0  0  0  0  0  0  0  0  0
  152.4061  143.7600  160.6448 C   0  0  1  0  0  0  0  0  0  0  0  0
  152.5134  142.8706  161.8907 C   0  0  0  0  0  0  0  0  0  0  0  0
  153.7809  142.2069  161.8596 O   0  0  0  0  0  0  0  0  0  0  0  0
  150.5003  139.3862  156.9333 S   0  0  0  0  0  0  0  0  0  0  0  0
  148.9596  140.2167  154.0309 H   0  0  0  0  0  0  0  0  0  0  0  0
  149.8851  141.7244  154.1525 H   0  0  0  0  0  0  0  0  0  0  0  0
  148.8155  141.2332  155.4755 H   0  0  0  0  0  0  0  0  0  0  0  0
  153.6818  140.1505  158.5424 H   0  0  0  0  0  0  0  0  0  0  0  0
  152.2409  140.3275  160.9341 H   0  0  0  0  0  0  0  0  0  0  0  0
  153.6796  139.4038  161.3088 H   0  0  0  0  0  0  0  0  0  0  0  0
  155.1269  141.1920  160.7137 H   0  0  0  0  0  0  0  0  0  0  0  0
  154.6421  143.0927  159.3693 H   0  0  0  0  0  0  0  0  0  0  0  0
  153.9569  141.7348  158.5055 H   0  0  0  0  0  0  0  0  0  0  0  0
  153.1098  144.5764  158.2174 H   0  0  0  0  0  0  0  0  0  0  0  0
  152.0561  143.3893  157.4434 H   0  0  0  0  0  0  0  0  0  0  0  0
  151.1311  145.7582  158.6137 H   0  0  0  0  0  0  0  0  0  0  0  0
  150.1240  144.3159  158.4880 H   0  0  0  0  0  0  0  0  0  0  0  0
  151.0676  145.4597  160.9730 H   0  0  0  0  0  0  0  0  0  0  0  0
  150.2432  143.9129  160.7524 H   0  0  0  0  0  0  0  0  0  0  0  0
  153.2094  144.4987  160.6887 H   0  0  0  0  0  0  0  0  0  0  0  0
  152.4467  143.4714  162.7978 H   0  0  0  0  0  0  0  0  0  0  0  0
  151.7027  142.1425  161.9291 H   0  0  0  0  0  0  0  0  0  0  0  0
  1  2  1  0  0  0  0
  1 21  1  0  0  0  0
  1 22  1  0  0  0  0
  1 23  1  0  0  0  0
  2 20  1  0  0  0  0
  2  3  2  0  0  0  0
  3  4  1  0  0  0  0
  4  5  2  0  0  0  0
  5  6  1  0  0  0  0
  5 20  1  0  0  0  0
  6  7  1  0  0  0  0
  7  8  2  0  0  0  0
  7  9  1  0  0  0  0
  9 10  1  0  0  0  0
  9 24  1  0  0  0  0
 10 11  1  0  0  0  0
 10 25  1  0  0  0  0
 10 26  1  0  0  0  0
 11 19  1  0  0  0  0
 11 12  1  0  0  0  0
 11 27  1  0  0  0  0
 12 13  1  0  0  0  0
 12 28  1  0  0  0  0
 12 29  1  0  0  0  0
 13 17  1  0  0  0  0
 13 14  1  0  0  0  0
 14 15  1  0  0  0  0
 14 30  1  0  0  0  0
 14 31  1  0  0  0  0
 15 16  1  0  0  0  0
 15 32  1  0  0  0  0
 15 33  1  0  0  0  0
 16 17  1  0  0  0  0
 16 34  1  0  0  0  0
 16 35  1  0  0  0  0
 17 18  1  0  0  0  0
 17 36  1  0  0  0  0
 18 19  1  0  0  0  0
 18 37  1  0  0  0  0
 18 38  1  0  0  0  0
M  CHG  1   6  -1
M  END
> <s_m_source_file>
AV-unprocessed.smi

> <i_m_source_file_index>
1809

> <i_lp_mmshare_version>
43012

> <i_f3d_flags>
0

> <s_epik_input>
W0NIM11jMW5uYyhzMSlbTkhdQyg9TylbTkhdW0NIMl1bQ0BIXShbQ0gyXTIpT1tDSDJdW0NAQEhdKE4yMylbQ0gyXVtDSDJdW0NIMl0z

> <s_epik_cmdline>
J2VwaWtfcHl0aG9uJywgJy1waCcsICc3LjAnLCAnLXRuJywgJzgnLCAnLW1hJywgJzIwMCcsICctbWV0YWxfYmluZGluZycsICctaW1hZScsICc8aW5maWxlLm1hZT4nLCAnLW9tYWUnLCAnPG91dGZpbGUubWFlPic=

> <r_lp_tautomer_probability>
1

> <r_epik_Ionization_Penalty>
4.48809

> <r_epik_Ionization_Penalty_Charging>
3.27284

> <r_epik_Ionization_Penalty_Neutral>
1.21525

> <r_epik_State_Penalty>
4.69427

> <r_epik_Charging_Adjusted_Penalty>
7.96711

> <i_epik_Tot_Q>
-1

> <i_epik_Tot_abs_Q>
1

> <r_epik_Metal_State_Penalty>
1.91976

> <b_epik_Metal_Only>
1

> <s_lp_Force_Field>
OPLS_2005

> <r_lp_Energy>
48.8238

> <b_lp_Chiralities_Consistent>
1

> <s_lp_Variant>
AV-unprocessed.smi:1809-22

> <Gold.Version>
5.8.1

> <Gold.Id.Protein>
6NUR|6NUR_protein|mol2

> <Gold.PLP.Fitness>
42.1772

> <Gold.PLP.PLP>
-38.4630

> <Gold.PLP.part.hbond>
-2.4212

> <Gold.PLP.part.metal>
0.0000

> <Gold.PLP.part.buried>
-5.5340

> <Gold.PLP.part.nonpolar>
-30.8495

> <Gold.PLP.part.repulsive>
0.1740

> <Gold.PLP.ligand.clash>
0.0000

> <Gold.PLP.ligand.torsion>
1.1461

> <Gold.PLP.Chemscore.Hbond>
1.9920

> <Gold.PLP.Chemscore.CHOScore>
0.0000

> <Gold.PLP.Chemscore.Metal>
0.0000

> <Gold.Chemscore.Hbonds>
donor molecule, donor type, donor heavy atom, donor atom, acceptor molecule, acceptor atom, score
      P1  H  7989  7998       L1     3  0.99
      P1  H  7997  8008       L1     4  1.00

> <Gold.PLP.Chemscore.Internal.Correction>
0.0304

> <Gold.Rescore>
     Score         DG    S(hbond)    S(metal)    S(lipo)     H(rot)  DE(clash)    DE(int)     intcor
     18.54     -20.34       1.81        0.00     103.95       1.31       0.39       1.42       ----

> <Gold.Chemscore.Fitness>
18.5388

> <Gold.Chemscore.DG>
-20.3409

> <Gold.Chemscore.ZeroCoef>
-5.4800

> <Gold.Chemscore.Hbond>
1.8085

> <Gold.Chemscore.Metal>
0.0000

> <Gold.Chemscore.Lipo>
103.9470

> <Gold.Chemscore.Internal_Hbond>
0.0000

> <Gold.Chemscore.DEClash>
0.3851

> <Gold.Chemscore.DEInternal>
1.4171

> <Gold.Chemscore.Rot>
1.3051

> <Gold.Chemscore.Internal.Correction>
   9.000000E+99

> <Gold.Chemscore.Hbonds>
donor molecule, donor type, donor heavy atom, donor atom, acceptor molecule, acceptor atom, score
      P1  H  7989  7998       L1     3  0.31
      P1  H  7997  8008       L1     4  0.28

> <Gold.Chemscore.Hbond.Weighted>
-6.0403

> <Gold.Chemscore.Metal.Weighted>
-0.0000

> <Gold.Chemscore.Lipo.Weighted>
-12.1618

> <Gold.Chemscore.Internal_Hbond.Weighted>
0.0000

> <Gold.Chemscore.DEClash.Weighted>
0.3851

> <Gold.Chemscore.DEInternal.Weighted>
1.4171

> <Gold.Chemscore.Rot.Weighted>
3.3412

> <Gold.Chemscore.Internal.Correction.Weighted>
   9.000000E+99

> <Gold.Protein.RotatedTorsions>
[ 6907 6896 6895 6894 ] final   50.03 input  -60.11 | X-H torsion
[ 7974 7965 7964 7962 ] final -153.67 input  175.53 | X-H torsion
[ 8008 7997 7996 7995 ] final  -32.55 input   59.86 | X-H torsion
[ 10167 10162 10161 10158 ] final  -36.10 input  -65.29 | X-H torsion
[ 10718 10713 10712 10709 ] final  -84.26 input   66.30 | X-H torsion
[ 10763 10752 10751 10750 ] final  -54.03 input  -60.55 | X-H torsion
[ 11005 11000 10999 10996 ] final  -52.38 input  -57.11 | X-H torsion

> <Gold.Protein.ActiveResidues>
 VAL166  LYS551  ARG553  GLY616  TRP617  ASP618  TYR619  PRO620  LYS621  CYS622 
 ASP623  PHE694  ASN695  SER759  ASP760  ASP761  ALA762  ILE779  LEU786  VAL792 
 PHE793  MET794  SER795  GLU796  ALA797  LYS798  CYS799  TRP800  GLU811  SER814 

> <Gold.Protein.RotatedAtoms>
  152.2974  134.7651  160.0364 H   0  0  0  0  0  0  0  0  0  0  0  0  # atno 6907 bound_to 6896
  151.8176  133.3385  159.3582 H   0  0  0  0  0  0  0  0  0  0  0  0  # atno 6908 bound_to 6896
  150.7257  134.5533  159.5850 H   0  0  0  0  0  0  0  0  0  0  0  0  # atno 6909 bound_to 6896
  144.7729  140.4494  143.5894 H   0  0  0  0  0  0  0  0  0  0  0  0  # atno 7974 bound_to 7965
  154.4176  140.1734  156.1745 H   0  0  0  0  0  0  0  0  0  0  0  0  # atno 8008 bound_to 7997
  155.9733  140.3384  155.6571 H   0  0  0  0  0  0  0  0  0  0  0  0  # atno 8009 bound_to 7997
  155.6597  140.0699  157.2549 H   0  0  0  0  0  0  0  0  0  0  0  0  # atno 8010 bound_to 7997
  140.7150  143.3432  151.2313 H   0  0  0  0  0  0  0  0  0  0  0  0  # atno 10167 bound_to 10162
  156.0008  130.4692  150.4382 H   0  0  0  0  0  0  0  0  0  0  0  0  # atno 10718 bound_to 10713
  154.1683  135.6463  153.5003 H   0  0  0  0  0  0  0  0  0  0  0  0  # atno 10763 bound_to 10752
  153.0091  135.5377  154.6640 H   0  0  0  0  0  0  0  0  0  0  0  0  # atno 10764 bound_to 10752
  154.5972  135.2940  155.0546 H   0  0  0  0  0  0  0  0  0  0  0  0  # atno 10765 bound_to 10752
  141.0921  133.6631  156.4016 H   0  0  0  0  0  0  0  0  0  0  0  0  # atno 11005 bound_to 11000
  145.6272  139.1531  143.2989 LP  0  0  0  0  0  0  0  0  0  0  0  0  # atno 17320 bound_to 7965
  146.1888  140.6378  142.9155 LP  0  0  0  0  0  0  0  0  0  0  0  0  # atno 17321 bound_to 7965
  139.6944  143.9637  152.2875 LP  0  0  0  0  0  0  0  0  0  0  0  0  # atno 17342 bound_to 10162
  139.9309  144.6741  150.8363 LP  0  0  0  0  0  0  0  0  0  0  0  0  # atno 17343 bound_to 10162
  157.2426  131.0528  151.2428 LP  0  0  0  0  0  0  0  0  0  0  0  0  # atno 17370 bound_to 10713
  157.3606  130.7129  149.6499 LP  0  0  0  0  0  0  0  0  0  0  0  0  # atno 17371 bound_to 10713
  140.5227  134.6289  157.5323 LP  0  0  0  0  0  0  0  0  0  0  0  0  # atno 17394 bound_to 11000
  139.9749  134.7231  155.9969 LP  0  0  0  0  0  0  0  0  0  0  0  0  # atno 17395 bound_to 11000

$$$$
