AV-unprocessed.smi:2190|AV-procd|sdf|8890|dock9
  -GOLD-   2272012 93D 1   1.00000     0.00000
 Structure written by MMmdl.
 47 49  0  0  0  0  0  0  0  0  2 V2000
  153.8962  141.9266  162.5112 C   0  0  0  0  0  0  0  0  0  0  0  0
  153.0248  142.5980  161.4697 C   0  0  0  0  0  0  0  0  0  0  0  0
  152.5327  143.9001  161.6845 C   0  0  0  0  0  0  0  0  0  0  0  0
  151.7220  144.5135  160.7126 C   0  0  0  0  0  0  0  0  0  0  0  0
  151.3989  143.8311  159.5213 C   0  0  0  0  0  0  0  0  0  0  0  0
  150.5218  144.5065  158.4834 C   0  0  0  0  0  0  0  0  0  0  0  0
  151.8885  142.5245  159.2924 C   0  0  0  0  0  0  0  0  0  0  0  0
  151.5344  141.9141  158.1075 O   0  0  0  0  0  0  0  0  0  0  0  0
  152.1899  140.7082  157.7398 C   0  0  0  0  0  0  0  0  0  0  0  0
  151.4914  140.1360  156.4984 C   0  0  2  0  0  0  0  0  0  0  0  0
  151.0962  141.2080  155.6663 O   0  0  0  0  0  0  0  0  0  0  0  0
  150.2697  139.2672  156.8598 C   0  0  0  0  0  0  0  0  0  0  0  0
  149.4831  138.8743  155.6804 N   0  0  0  0  0  0  0  0  0  0  0  0
  149.5496  137.7390  154.9272 C   0  0  0  0  0  0  0  0  0  0  0  0
  150.4724  136.5822  155.1303 C   0  0  0  0  0  0  0  0  0  0  0  0
  151.5000  136.5398  154.1652 O   0  0  0  0  0  0  0  0  0  0  0  0
  148.6054  137.8463  153.9506 N   0  3  0  0  0  0  0  0  0  0  0  0
  147.9315  139.0617  154.0767 C   0  0  0  0  0  0  0  0  0  0  0  0
  146.9004  139.6131  153.3222 C   0  0  0  0  0  0  0  0  0  0  0  0
  146.4360  140.8844  153.7184 C   0  0  0  0  0  0  0  0  0  0  0  0
  146.9927  141.5568  154.8256 C   0  0  0  0  0  0  0  0  0  0  0  0
  148.0360  140.9865  155.5845 C   0  0  0  0  0  0  0  0  0  0  0  0
  148.4904  139.7290  155.1863 C   0  0  0  0  0  0  0  0  0  0  0  0
  152.7044  141.9148  160.2793 C   0  0  0  0  0  0  0  0  0  0  0  0
  154.0399  142.5656  163.3831 H   0  0  0  0  0  0  0  0  0  0  0  0
  154.8763  141.6968  162.0925 H   0  0  0  0  0  0  0  0  0  0  0  0
  153.4374  140.9951  162.8439 H   0  0  0  0  0  0  0  0  0  0  0  0
  152.7730  144.4324  162.5932 H   0  0  0  0  0  0  0  0  0  0  0  0
  151.3485  145.5119  160.8869 H   0  0  0  0  0  0  0  0  0  0  0  0
  151.0259  144.5307  157.5164 H   0  0  0  0  0  0  0  0  0  0  0  0
  150.2846  145.5326  158.7665 H   0  0  0  0  0  0  0  0  0  0  0  0
  149.5851  143.9602  158.3689 H   0  0  0  0  0  0  0  0  0  0  0  0
  153.2453  140.8886  157.5272 H   0  0  0  0  0  0  0  0  0  0  0  0
  152.1246  139.9935  158.5621 H   0  0  0  0  0  0  0  0  0  0  0  0
  152.2105  139.5385  155.9372 H   0  0  0  0  0  0  0  0  0  0  0  0
  150.8311  141.9308  156.2139 H   0  0  0  0  0  0  0  0  0  0  0  0
  150.5974  138.3453  157.3418 H   0  0  0  0  0  0  0  0  0  0  0  0
  149.6231  139.7676  157.5804 H   0  0  0  0  0  0  0  0  0  0  0  0
  150.9180  136.6426  156.1235 H   0  0  0  0  0  0  0  0  0  0  0  0
  149.9066  135.6516  155.0893 H   0  0  0  0  0  0  0  0  0  0  0  0
  151.1107  136.6182  153.3074 H   0  0  0  0  0  0  0  0  0  0  0  0
  146.4721  139.0999  152.4738 H   0  0  0  0  0  0  0  0  0  0  0  0
  145.6372  141.3532  153.1621 H   0  0  0  0  0  0  0  0  0  0  0  0
  146.6122  142.5302  155.0990 H   0  0  0  0  0  0  0  0  0  0  0  0
  148.4551  141.5132  156.4287 H   0  0  0  0  0  0  0  0  0  0  0  0
  153.0957  140.9177  160.1461 H   0  0  0  0  0  0  0  0  0  0  0  0
  148.4350  137.1351  153.2512 H   0  0  0  0  0  0  0  0  0  0  0  0
  1  2  1  0  0  0  0
  1 25  1  0  0  0  0
  1 26  1  0  0  0  0
  1 27  1  0  0  0  0
  2 24  1  0  0  0  0
  2  3  2  0  0  0  0
  3  4  1  0  0  0  0
  3 28  1  0  0  0  0
  4  5  2  0  0  0  0
  4 29  1  0  0  0  0
  5  6  1  0  0  0  0
  5  7  1  0  0  0  0
  6 30  1  0  0  0  0
  6 31  1  0  0  0  0
  6 32  1  0  0  0  0
  7  8  1  0  0  0  0
  7 24  2  0  0  0  0
  8  9  1  0  0  0  0
  9 10  1  0  0  0  0
  9 33  1  0  0  0  0
  9 34  1  0  0  0  0
 10 11  1  0  0  0  0
 10 12  1  0  0  0  0
 10 35  1  0  0  0  0
 11 36  1  0  0  0  0
 12 13  1  0  0  0  0
 12 37  1  0  0  0  0
 12 38  1  0  0  0  0
 13 23  1  0  0  0  0
 13 14  1  0  0  0  0
 14 15  1  0  0  0  0
 14 17  2  0  0  0  0
 15 16  1  0  0  0  0
 15 39  1  0  0  0  0
 15 40  1  0  0  0  0
 16 41  1  0  0  0  0
 17 18  1  0  0  0  0
 17 47  1  0  0  0  0
 18 23  2  0  0  0  0
 18 19  1  0  0  0  0
 19 20  2  0  0  0  0
 19 42  1  0  0  0  0
 20 21  1  0  0  0  0
 20 43  1  0  0  0  0
 21 22  2  0  0  0  0
 21 44  1  0  0  0  0
 22 23  1  0  0  0  0
 22 45  1  0  0  0  0
 24 46  1  0  0  0  0
M  CHG  1  17   1
M  END
> <s_m_source_file>
AV-unprocessed.smi

> <i_m_source_file_index>
2190

> <i_lp_mmshare_version>
43012

> <i_f3d_flags>
0

> <s_epik_input>
W0NIM11jMVtjSF1bY0hdYyhbQ0gzXSljKFtjSF0xKU9bQ0gyXVtDQEhdKFtPSF0pW0NIMl1uKGMobjIpW0NIMl1bT0hdKWMoYzIzKVtjSF1bY0hdW2NIXVtjSF0z

> <s_epik_cmdline>
J2VwaWtfcHl0aG9uJywgJy1waCcsICc3LjAnLCAnLXRuJywgJzgnLCAnLW1hJywgJzIwMCcsICctbWV0YWxfYmluZGluZycsICctaW1hZScsICc8aW5maWxlLm1hZT4nLCAnLW9tYWUnLCAnPG91dGZpbGUubWFlPic=

> <r_lp_tautomer_probability>
1

> <r_epik_Ionization_Penalty>
1.43125

> <r_epik_Ionization_Penalty_Charging>
1.43039

> <r_epik_Ionization_Penalty_Neutral>
0.000858184

> <r_epik_State_Penalty>
1.51493

> <r_epik_Charging_Adjusted_Penalty>
2.94531

> <i_epik_Tot_Q>
1

> <i_epik_Tot_abs_Q>
1

> <r_epik_Metal_State_Penalty>
5.5599

> <b_epik_Metal_Only>
0

> <s_lp_Force_Field>
OPLS_2005

> <r_lp_Energy>
17.5717

> <b_lp_Chiralities_Consistent>
1

> <s_lp_Variant>
AV-unprocessed.smi:2190-3

> <Gold.Version>
5.8.1

> <Gold.Id.Protein>
6NUR|6NUR_protein|mol2

> <Gold.PLP.Fitness>
59.2253

> <Gold.PLP.PLP>
-48.1538

> <Gold.PLP.part.hbond>
-4.0000

> <Gold.PLP.part.metal>
0.0000

> <Gold.PLP.part.buried>
-2.3980

> <Gold.PLP.part.nonpolar>
-41.1941

> <Gold.PLP.part.repulsive>
0.0387

> <Gold.PLP.ligand.clash>
0.0000

> <Gold.PLP.ligand.torsion>
0.9506

> <Gold.PLP.Chemscore.Hbond>
4.2907

> <Gold.PLP.Chemscore.CHOScore>
0.0000

> <Gold.PLP.Chemscore.Metal>
0.0000

> <Gold.Chemscore.Hbonds>
donor molecule, donor type, donor heavy atom, donor atom, acceptor molecule, acceptor atom, score
      L1  H    16    41       P1  7949  0.90
      L1  H    17    47       P1  7948  1.98
      P1  H  7989  7998       L1    11  0.26
      P1  H 10752 10763       L1    16  1.00

> <Gold.PLP.Chemscore.Internal.Correction>
0.1006

> <Gold.Rescore>
     Score         DG    S(hbond)    S(metal)    S(lipo)     H(rot)  DE(clash)    DE(int)     intcor
     22.46     -23.79       2.87        0.00     141.19       3.05       0.52       0.82       ----

> <Gold.Chemscore.Fitness>
22.4564

> <Gold.Chemscore.DG>
-23.7895

> <Gold.Chemscore.ZeroCoef>
-5.4800

> <Gold.Chemscore.Hbond>
2.8720

> <Gold.Chemscore.Metal>
0.0000

> <Gold.Chemscore.Lipo>
141.1870

> <Gold.Chemscore.Internal_Hbond>
0.0000

> <Gold.Chemscore.DEClash>
0.5162

> <Gold.Chemscore.DEInternal>
0.8170

> <Gold.Chemscore.Rot>
3.0476

> <Gold.Chemscore.Internal.Correction>
   9.000000E+99

> <Gold.Chemscore.Hbonds>
donor molecule, donor type, donor heavy atom, donor atom, acceptor molecule, acceptor atom, score
      L1  H    16    41       P1  7949  0.35
      L1  H    17    47       P1  7948  0.93
      P1  H  7989  7998       L1    11  0.23
      P1  H 10752 10763       L1    16  0.96

> <Gold.Chemscore.Hbond.Weighted>
-9.5924

> <Gold.Chemscore.Metal.Weighted>
-0.0000

> <Gold.Chemscore.Lipo.Weighted>
-16.5189

> <Gold.Chemscore.Internal_Hbond.Weighted>
0.0000

> <Gold.Chemscore.DEClash.Weighted>
0.5162

> <Gold.Chemscore.DEInternal.Weighted>
0.8170

> <Gold.Chemscore.Rot.Weighted>
7.8018

> <Gold.Chemscore.Internal.Correction.Weighted>
   9.000000E+99

> <Gold.Protein.RotatedTorsions>
[ 6907 6896 6895 6894 ] final   35.16 input  -60.11 | X-H torsion
[ 7974 7965 7964 7962 ] final   56.21 input  175.53 | X-H torsion
[ 8008 7997 7996 7995 ] final  -37.86 input   59.86 | X-H torsion
[ 10167 10162 10161 10158 ] final  -75.83 input  -65.29 | X-H torsion
[ 10718 10713 10712 10709 ] final  126.11 input   66.30 | X-H torsion
[ 10763 10752 10751 10750 ] final   54.45 input  -60.55 | X-H torsion
[ 11005 11000 10999 10996 ] final -140.04 input  -57.11 | X-H torsion

> <Gold.Protein.ActiveResidues>
 VAL166  LYS551  ARG553  GLY616  TRP617  ASP618  TYR619  PRO620  LYS621  CYS622 
 ASP623  PHE694  ASN695  SER759  ASP760  ASP761  ALA762  ILE779  LEU786  VAL792 
 PHE793  MET794  SER795  GLU796  ALA797  LYS798  CYS799  TRP800  GLU811  SER814 

> <Gold.Protein.RotatedAtoms>
  152.1124  134.9265  160.0565 H   0  0  0  0  0  0  0  0  0  0  0  0  # atno 6907 bound_to 6896
  152.0437  133.3984  159.4356 H   0  0  0  0  0  0  0  0  0  0  0  0  # atno 6908 bound_to 6896
  150.6844  134.3306  159.4869 H   0  0  0  0  0  0  0  0  0  0  0  0  # atno 6909 bound_to 6896
  145.9422  139.3898  143.0356 H   0  0  0  0  0  0  0  0  0  0  0  0  # atno 7974 bound_to 7965
  154.4046  140.1593  156.2605 H   0  0  0  0  0  0  0  0  0  0  0  0  # atno 8008 bound_to 7997
  155.9040  140.3431  155.6026 H   0  0  0  0  0  0  0  0  0  0  0  0  # atno 8009 bound_to 7997
  155.7414  140.0793  157.2234 H   0  0  0  0  0  0  0  0  0  0  0  0  # atno 8010 bound_to 7997
  140.4909  143.2380  151.7909 H   0  0  0  0  0  0  0  0  0  0  0  0  # atno 10167 bound_to 10162
  157.5447  131.1096  150.8802 H   0  0  0  0  0  0  0  0  0  0  0  0  # atno 10718 bound_to 10713
  152.9805  135.5744  154.4906 H   0  0  0  0  0  0  0  0  0  0  0  0  # atno 10763 bound_to 10752
  154.4441  135.2776  155.1829 H   0  0  0  0  0  0  0  0  0  0  0  0  # atno 10764 bound_to 10752
  154.3484  135.6214  153.5684 H   0  0  0  0  0  0  0  0  0  0  0  0  # atno 10765 bound_to 10752
  140.8461  134.2342  157.4785 H   0  0  0  0  0  0  0  0  0  0  0  0  # atno 11005 bound_to 11000
  145.8284  140.9643  143.0862 LP  0  0  0  0  0  0  0  0  0  0  0  0  # atno 17320 bound_to 7965
  144.6781  140.0131  143.7484 LP  0  0  0  0  0  0  0  0  0  0  0  0  # atno 17321 bound_to 7965
  139.4851  144.4650  151.9494 LP  0  0  0  0  0  0  0  0  0  0  0  0  # atno 17342 bound_to 10162
  140.3737  144.2823  150.5916 LP  0  0  0  0  0  0  0  0  0  0  0  0  # atno 17343 bound_to 10162
  156.9344  130.5361  149.5279 LP  0  0  0  0  0  0  0  0  0  0  0  0  # atno 17370 bound_to 10713
  156.0525  130.5592  150.9021 LP  0  0  0  0  0  0  0  0  0  0  0  0  # atno 17371 bound_to 10713
  139.8703  134.9660  156.4548 LP  0  0  0  0  0  0  0  0  0  0  0  0  # atno 17394 bound_to 11000
  140.8841  133.7896  155.9499 LP  0  0  0  0  0  0  0  0  0  0  0  0  # atno 17395 bound_to 11000

$$$$
