AV-unprocessed.smi:3341|AV-procd|sdf|12886|dock2
  -GOLD-   2272019293D 1   1.00000     0.00000
 Structure written by MMmdl.
 46 47  0  0  0  0  0  0  0  0  2 V2000
  151.1196  141.6480  157.9557 C   0  0  0  0  0  0  0  0  0  0  0  0
  152.2535  140.7590  157.4321 C   0  0  0  0  0  0  0  0  0  0  0  0
  151.8233  139.9507  156.3081 N   0  0  0  0  0  0  0  0  0  0  0  0
  150.5585  139.8526  155.7632 C   0  0  0  0  0  0  0  0  0  0  0  0
  150.6684  138.9621  154.7328 C   0  0  0  0  0  0  0  0  0  0  0  0
  149.6739  138.4962  153.8359 N   0  0  0  0  0  0  0  0  0  0  0  0
  148.4485  139.0097  153.6398 C   0  0  0  0  0  0  0  0  0  0  0  0
  147.9827  139.9813  154.2355 O   0  0  0  0  0  0  0  0  0  0  0  0
  147.7780  138.3307  152.6980 N   0  0  0  0  0  0  0  0  0  0  0  0
  146.4236  138.6399  152.2539 C   0  0  0  0  0  0  0  0  0  0  0  0
  145.4529  137.4799  152.5509 C   0  0  0  0  0  0  0  0  0  0  0  0
  146.0772  136.1478  152.3501 N   0  3  2  0  0  0  0  0  0  0  0  0
  145.4116  135.3783  151.2669 C   0  0  0  0  0  0  0  0  0  0  0  0
  146.1515  134.0614  150.9843 C   0  0  0  0  0  0  0  0  0  0  0  0
  146.2696  133.2151  152.2578 C   0  0  0  0  0  0  0  0  0  0  0  0
  146.9363  134.0299  153.3785 C   0  0  2  0  0  0  0  0  0  0  0  0
  147.0453  133.2152  154.6754 C   0  0  0  0  0  0  0  0  0  0  0  0
  146.1745  135.3518  153.6042 C   0  0  0  0  0  0  0  0  0  0  0  0
  152.0293  138.5597  154.7124 C   0  0  0  0  0  0  0  0  0  0  0  0
  152.7210  139.1603  155.6690 N   0  0  0  0  0  0  0  0  0  0  0  0
  151.4595  142.2571  158.7932 H   0  0  0  0  0  0  0  0  0  0  0  0
  150.2757  141.0494  158.2999 H   0  0  0  0  0  0  0  0  0  0  0  0
  150.7583  142.3222  157.1785 H   0  0  0  0  0  0  0  0  0  0  0  0
  153.0982  141.3723  157.1162 H   0  0  0  0  0  0  0  0  0  0  0  0
  152.6173  140.1015  158.2230 H   0  0  0  0  0  0  0  0  0  0  0  0
  149.7216  140.4125  156.1538 H   0  0  0  0  0  0  0  0  0  0  0  0
  149.9263  137.6910  153.2817 H   0  0  0  0  0  0  0  0  0  0  0  0
  148.2353  137.5433  152.2613 H   0  0  0  0  0  0  0  0  0  0  0  0
  146.0948  139.5407  152.7725 H   0  0  0  0  0  0  0  0  0  0  0  0
  146.4470  138.8846  151.1916 H   0  0  0  0  0  0  0  0  0  0  0  0
  145.0567  137.5448  153.5655 H   0  0  0  0  0  0  0  0  0  0  0  0
  144.5973  137.5808  151.8813 H   0  0  0  0  0  0  0  0  0  0  0  0
  144.3760  135.1766  151.5459 H   0  0  0  0  0  0  0  0  0  0  0  0
  145.3846  135.9733  150.3531 H   0  0  0  0  0  0  0  0  0  0  0  0
  145.6281  133.4985  150.2109 H   0  0  0  0  0  0  0  0  0  0  0  0
  147.1462  134.2757  150.5908 H   0  0  0  0  0  0  0  0  0  0  0  0
  145.2780  132.8877  152.5737 H   0  0  0  0  0  0  0  0  0  0  0  0
  146.8449  132.3120  152.0508 H   0  0  0  0  0  0  0  0  0  0  0  0
  147.9506  134.2755  153.0598 H   0  0  0  0  0  0  0  0  0  0  0  0
  146.0608  132.9404  155.0557 H   0  0  0  0  0  0  0  0  0  0  0  0
  147.5565  133.7820  155.4542 H   0  0  0  0  0  0  0  0  0  0  0  0
  147.6085  132.2955  154.5152 H   0  0  0  0  0  0  0  0  0  0  0  0
  146.6889  135.9266  154.3734 H   0  0  0  0  0  0  0  0  0  0  0  0
  145.1714  135.1494  153.9837 H   0  0  0  0  0  0  0  0  0  0  0  0
  152.5279  137.8669  154.0507 H   0  0  0  0  0  0  0  0  0  0  0  0
  147.0214  136.3178  152.0340 H   0  0  0  0  0  0  0  0  0  0  0  0
  1  2  1  0  0  0  0
  1 21  1  0  0  0  0
  1 22  1  0  0  0  0
  1 23  1  0  0  0  0
  2  3  1  0  0  0  0
  2 24  1  0  0  0  0
  2 25  1  0  0  0  0
  3 20  1  0  0  0  0
  3  4  1  0  0  0  0
  4  5  2  0  0  0  0
  4 26  1  0  0  0  0
  5  6  1  0  0  0  0
  5 19  1  0  0  0  0
  6  7  1  0  0  0  0
  6 27  1  0  0  0  0
  7  8  2  0  0  0  0
  7  9  1  0  0  0  0
  9 10  1  0  0  0  0
  9 28  1  0  0  0  0
 10 11  1  0  0  0  0
 10 29  1  0  0  0  0
 10 30  1  0  0  0  0
 11 12  1  0  0  0  0
 11 31  1  0  0  0  0
 11 32  1  0  0  0  0
 12 18  1  0  0  0  0
 12 13  1  0  0  0  0
 12 46  1  0  0  0  0
 13 14  1  0  0  0  0
 13 33  1  0  0  0  0
 13 34  1  0  0  0  0
 14 15  1  0  0  0  0
 14 35  1  0  0  0  0
 14 36  1  0  0  0  0
 15 16  1  0  0  0  0
 15 37  1  0  0  0  0
 15 38  1  0  0  0  0
 16 17  1  0  0  0  0
 16 18  1  0  0  0  0
 16 39  1  0  0  0  0
 17 40  1  0  0  0  0
 17 41  1  0  0  0  0
 17 42  1  0  0  0  0
 18 43  1  0  0  0  0
 18 44  1  0  0  0  0
 19 20  2  0  0  0  0
 19 45  1  0  0  0  0
M  CHG  1  12   1
M  END
> <s_m_source_file>
AV-unprocessed.smi

> <i_m_source_file_index>
3341

> <i_lp_mmshare_version>
43012

> <i_f3d_flags>
0

> <s_epik_input>
W0NIM11bQ0gyXW4xW2NIXWMoW2NIXW4xKVtOSF1DKD1PKVtOSF1bQ0gyXVtDSDJdTjJbQ0gyXVtDSDJdW0NIMl1bQ0BASF0oW0NIM10pW0NIMl0y

> <s_epik_cmdline>
J2VwaWtfcHl0aG9uJywgJy1waCcsICc3LjAnLCAnLXRuJywgJzgnLCAnLW1hJywgJzIwMCcsICctbWV0YWxfYmluZGluZycsICctaW1hZScsICc8aW5maWxlLm1hZT4nLCAnLW9tYWUnLCAnPG91dGZpbGUubWFlPic=

> <r_lp_tautomer_probability>
1

> <r_epik_Ionization_Penalty>
0.00203389

> <r_epik_Ionization_Penalty_Charging>
0.00188267

> <r_epik_Ionization_Penalty_Neutral>
0.000151224

> <r_epik_State_Penalty>
0.0012808

> <r_epik_Charging_Adjusted_Penalty>
0.00316346

> <i_epik_Tot_Q>
1

> <i_epik_Tot_abs_Q>
1

> <r_epik_Metal_State_Penalty>
-0

> <b_epik_Metal_Only>
0

> <s_lp_Force_Field>
OPLS_2005

> <r_lp_Energy>
20.62

> <b_lp_Chiralities_Consistent>
1

> <s_lp_Variant>
AV-unprocessed.smi:3341-4

> <Gold.Version>
5.8.1

> <Gold.Id.Protein>
6NUR|6NUR_protein|mol2

> <Gold.PLP.Fitness>
46.3586

> <Gold.PLP.PLP>
-34.6057

> <Gold.PLP.part.hbond>
-5.9541

> <Gold.PLP.part.metal>
0.0000

> <Gold.PLP.part.buried>
-2.2577

> <Gold.PLP.part.nonpolar>
-27.1415

> <Gold.PLP.part.repulsive>
0.2805

> <Gold.PLP.ligand.clash>
0.0000

> <Gold.PLP.ligand.torsion>
0.9174

> <Gold.PLP.Chemscore.Hbond>
4.4983

> <Gold.PLP.Chemscore.CHOScore>
0.0000

> <Gold.PLP.Chemscore.Metal>
0.0000

> <Gold.Chemscore.Hbonds>
donor molecule, donor type, donor heavy atom, donor atom, acceptor molecule, acceptor atom, score
      L1  H     6    27       P1  7948  0.43
      L1  H     9    28       P1  7948  0.99
      L1  H    12    46       P1  7948  2.00
      P1  H  7997  8008       L1    20  0.95

> <Gold.PLP.Chemscore.Internal.Correction>
0.0929

> <Gold.Rescore>
     Score         DG    S(hbond)    S(metal)    S(lipo)     H(rot)  DE(clash)    DE(int)     intcor
     17.80     -19.78       3.02        0.00      70.95       1.59       0.00       1.98       ----

> <Gold.Chemscore.Fitness>
17.7981

> <Gold.Chemscore.DG>
-19.7829

> <Gold.Chemscore.ZeroCoef>
-5.4800

> <Gold.Chemscore.Hbond>
3.0164

> <Gold.Chemscore.Metal>
0.0000

> <Gold.Chemscore.Lipo>
70.9484

> <Gold.Chemscore.Internal_Hbond>
0.0000

> <Gold.Chemscore.DEClash>
0.0000

> <Gold.Chemscore.DEInternal>
1.9847

> <Gold.Chemscore.Rot>
1.5909

> <Gold.Chemscore.Internal.Correction>
   9.000000E+99

> <Gold.Chemscore.Hbonds>
donor molecule, donor type, donor heavy atom, donor atom, acceptor molecule, acceptor atom, score
      L1  H     6    27       P1  7948  0.22
      L1  H     9    28       P1  7948  0.92
      L1  H    12    46       P1  7948  1.00
      P1  H  7997  8008       L1    20  0.21

> <Gold.Chemscore.Hbond.Weighted>
-10.0747

> <Gold.Chemscore.Metal.Weighted>
-0.0000

> <Gold.Chemscore.Lipo.Weighted>
-8.3010

> <Gold.Chemscore.Internal_Hbond.Weighted>
0.0000

> <Gold.Chemscore.DEClash.Weighted>
0.0000

> <Gold.Chemscore.DEInternal.Weighted>
1.9847

> <Gold.Chemscore.Rot.Weighted>
4.0728

> <Gold.Chemscore.Internal.Correction.Weighted>
   9.000000E+99

> <Gold.Protein.RotatedTorsions>
[ 6907 6896 6895 6894 ] final  -85.43 input  -60.11 | X-H torsion
[ 7974 7965 7964 7962 ] final   80.26 input  175.53 | X-H torsion
[ 8008 7997 7996 7995 ] final  -30.03 input   59.86 | X-H torsion
[ 10167 10162 10161 10158 ] final   77.45 input  -65.29 | X-H torsion
[ 10718 10713 10712 10709 ] final  -40.34 input   66.30 | X-H torsion
[ 10763 10752 10751 10750 ] final  -80.35 input  -60.55 | X-H torsion
[ 11005 11000 10999 10996 ] final   89.09 input  -57.11 | X-H torsion

> <Gold.Protein.ActiveResidues>
 VAL166  LYS551  ARG553  GLY616  TRP617  ASP618  TYR619  PRO620  LYS621  CYS622 
 ASP623  PHE694  ASN695  SER759  ASP760  ASP761  ALA762  ILE779  LEU786  VAL792 
 PHE793  MET794  SER795  GLU796  ALA797  LYS798  CYS799  TRP800  GLU811  SER814 

> <Gold.Protein.RotatedAtoms>
  150.6870  134.3206  159.4784 H   0  0  0  0  0  0  0  0  0  0  0  0  # atno 6907 bound_to 6896
  152.1082  134.9291  160.0577 H   0  0  0  0  0  0  0  0  0  0  0  0  # atno 6908 bound_to 6896
  152.0544  133.3999  159.4428 H   0  0  0  0  0  0  0  0  0  0  0  0  # atno 6909 bound_to 6896
  145.6535  139.2453  143.1963 H   0  0  0  0  0  0  0  0  0  0  0  0  # atno 7974 bound_to 7965
  154.4266  140.1802  156.1342 H   0  0  0  0  0  0  0  0  0  0  0  0  # atno 8008 bound_to 7997
  156.0043  140.3357  155.6852 H   0  0  0  0  0  0  0  0  0  0  0  0  # atno 8009 bound_to 7997
  155.6199  140.0659  157.2672 H   0  0  0  0  0  0  0  0  0  0  0  0  # atno 8010 bound_to 7997
  139.9814  144.5823  150.7897 H   0  0  0  0  0  0  0  0  0  0  0  0  # atno 10167 bound_to 10162
  156.2824  130.4218  149.8323 H   0  0  0  0  0  0  0  0  0  0  0  0  # atno 10718 bound_to 10713
  154.5500  135.5664  153.6914 H   0  0  0  0  0  0  0  0  0  0  0  0  # atno 10763 bound_to 10752
  152.9987  135.6248  154.2386 H   0  0  0  0  0  0  0  0  0  0  0  0  # atno 10764 bound_to 10752
  154.2321  135.2865  155.2866 H   0  0  0  0  0  0  0  0  0  0  0  0  # atno 10765 bound_to 10752
  139.8882  134.8529  156.3092 H   0  0  0  0  0  0  0  0  0  0  0  0  # atno 11005 bound_to 11000
  146.1184  140.7340  142.9469 LP  0  0  0  0  0  0  0  0  0  0  0  0  # atno 17320 bound_to 7965
  144.7114  140.4052  143.7077 LP  0  0  0  0  0  0  0  0  0  0  0  0  # atno 17321 bound_to 7965
  140.7487  143.2927  151.3286 LP  0  0  0  0  0  0  0  0  0  0  0  0  # atno 17342 bound_to 10162
  139.6407  144.0545  152.2552 LP  0  0  0  0  0  0  0  0  0  0  0  0  # atno 17343 bound_to 10162
  156.5766  130.8447  151.3371 LP  0  0  0  0  0  0  0  0  0  0  0  0  # atno 17370 bound_to 10713
  157.7318  130.9706  150.1898 LP  0  0  0  0  0  0  0  0  0  0  0  0  # atno 17371 bound_to 10713
  140.9861  133.7237  156.0744 LP  0  0  0  0  0  0  0  0  0  0  0  0  # atno 17394 bound_to 11000
  140.7686  134.3858  157.5512 LP  0  0  0  0  0  0  0  0  0  0  0  0  # atno 17395 bound_to 11000

$$$$
