AV-unprocessed.smi:3|AV-procd|sdf|27|dock6
  -GOLD-   2262015143D 1   1.00000     0.00000
 Structure written by MMmdl.
 33 35  0  0  0  0  0  0  0  0  1 V2000
  150.3754  141.7673  156.9194 C   0  0  0  0  0  0  0  0  0  0  0  0
  151.5227  141.0160  157.4080 N   0  0  0  0  0  0  0  0  0  0  0  0
  152.0831  141.3960  158.7068 C   0  0  0  0  0  0  0  0  0  0  0  0
  152.5427  142.8534  158.7385 C   0  0  1  0  0  0  0  0  0  0  0  0
  151.5150  143.9917  158.6471 C   0  0  0  0  0  0  0  0  0  0  0  0
  152.3838  144.8053  159.6114 C   0  0  1  0  0  0  0  0  0  0  0  0
  151.7179  145.5837  160.5804 O   0  0  0  0  0  0  0  0  0  0  0  0
  152.9798  143.4714  160.0740 C   0  0  0  0  0  0  0  0  0  0  0  0
  151.8782  139.7900  156.7919 C   0  0  0  0  0  0  0  0  0  0  0  0
  152.9677  139.1367  157.2751 N   0  0  0  0  0  0  0  0  0  0  0  0
  153.3571  137.9762  156.7439 C   0  0  0  0  0  0  0  0  0  0  0  0
  152.8119  137.2999  155.7332 N   0  0  0  0  0  0  0  0  0  0  0  0
  151.7238  137.9496  155.2353 C   0  0  0  0  0  0  0  0  0  0  0  0
  150.9297  137.5340  154.1877 N   0  0  0  0  0  0  0  0  0  0  0  0
  149.9201  138.4488  153.9593 C   0  0  0  0  0  0  0  0  0  0  0  0
  150.0404  139.4779  154.8572 C   0  0  0  0  0  0  0  0  0  0  0  0
  151.1842  139.1902  155.6926 C   0  0  0  0  0  0  0  0  0  0  0  0
  153.3359  143.0317  158.0093 H   0  0  0  0  0  0  0  0  0  0  0  0
  153.1182  145.4150  159.0823 H   0  0  0  0  0  0  0  0  0  0  0  0
  151.0489  136.6889  153.6480 H   0  0  0  0  0  0  0  0  0  0  0  0
  150.5806  142.1760  155.9302 H   0  0  0  0  0  0  0  0  0  0  0  0
  150.1477  142.6056  157.5784 H   0  0  0  0  0  0  0  0  0  0  0  0
  149.4882  141.1356  156.8746 H   0  0  0  0  0  0  0  0  0  0  0  0
  151.3870  141.1894  159.5197 H   0  0  0  0  0  0  0  0  0  0  0  0
  152.9350  140.7438  158.9018 H   0  0  0  0  0  0  0  0  0  0  0  0
  151.4096  144.4221  157.6507 H   0  0  0  0  0  0  0  0  0  0  0  0
  150.5452  143.7298  159.0736 H   0  0  0  0  0  0  0  0  0  0  0  0
  152.1889  146.4000  160.6504 H   0  0  0  0  0  0  0  0  0  0  0  0
  152.4562  143.0463  160.9324 H   0  0  0  0  0  0  0  0  0  0  0  0
  154.0587  143.4851  160.2320 H   0  0  0  0  0  0  0  0  0  0  0  0
  154.2301  137.5260  157.1928 H   0  0  0  0  0  0  0  0  0  0  0  0
  149.1954  138.2935  153.1732 H   0  0  0  0  0  0  0  0  0  0  0  0
  149.3924  140.3382  154.9174 H   0  0  0  0  0  0  0  0  0  0  0  0
  1  2  1  0  0  0  0
  1 21  1  0  0  0  0
  1 22  1  0  0  0  0
  1 23  1  0  0  0  0
  2  3  1  0  0  0  0
  2  9  1  0  0  0  0
  3  4  1  0  0  0  0
  3 24  1  0  0  0  0
  3 25  1  0  0  0  0
  4 18  1  0  0  0  0
  4  8  1  0  0  0  0
  4  5  1  0  0  0  0
  5  6  1  0  0  0  0
  5 26  1  0  0  0  0
  5 27  1  0  0  0  0
  6 19  1  0  0  0  0
  6  7  1  0  0  0  0
  6  8  1  0  0  0  0
  7 28  1  0  0  0  0
  8 29  1  0  0  0  0
  8 30  1  0  0  0  0
  9 17  1  0  0  0  0
  9 10  2  0  0  0  0
 10 11  1  0  0  0  0
 11 12  2  0  0  0  0
 11 31  1  0  0  0  0
 12 13  1  0  0  0  0
 13 17  2  0  0  0  0
 13 14  1  0  0  0  0
 14 20  1  0  0  0  0
 14 15  1  0  0  0  0
 15 16  2  0  0  0  0
 15 32  1  0  0  0  0
 16 17  1  0  0  0  0
 16 33  1  0  0  0  0
M  END
> <s_m_source_file>
AV-unprocessed.smi

> <i_m_source_file_index>
3

> <i_lp_mmshare_version>
43012

> <i_f3d_flags>
0

> <s_epik_input>
W25IXTFbY0hdW2NIXWMoYzEyKWMobltjSF1uMilOKFtDSDNdKVtDSDJdW0NASF0zW0NIMl1bQ0BASF0oW09IXSlbQ0gyXTM=

> <s_epik_cmdline>
J2VwaWtfcHl0aG9uJywgJy1waCcsICc3LjAnLCAnLXRuJywgJzgnLCAnLW1hJywgJzIwMCcsICctbWV0YWxfYmluZGluZycsICctaW1hZScsICc8aW5maWxlLm1hZT4nLCAnLW9tYWUnLCAnPG91dGZpbGUubWFlPic=

> <r_lp_tautomer_probability>
0.999998

> <r_epik_Ionization_Penalty>
0.0134605

> <r_epik_Ionization_Penalty_Charging>
0

> <r_epik_Ionization_Penalty_Neutral>
0.0134605

> <r_epik_State_Penalty>
0.00982199

> <r_epik_Charging_Adjusted_Penalty>
0.00982199

> <i_epik_Tot_Q>
0

> <i_epik_Tot_abs_Q>
0

> <r_epik_Metal_State_Penalty>
0.00963912

> <b_epik_Metal_Only>
0

> <s_lp_Force_Field>
OPLS_2005

> <r_lp_Energy>
10.8509

> <b_lp_Chiralities_Consistent>
1

> <s_lp_Variant>
AV-unprocessed.smi:3-1

> <Gold.Version>
5.8.1

> <Gold.Id.Protein>
6NUR|6NUR_protein|mol2

> <Gold.PLP.Fitness>
47.5335

> <Gold.PLP.PLP>
-37.4401

> <Gold.PLP.part.hbond>
-3.7093

> <Gold.PLP.part.metal>
0.0000

> <Gold.PLP.part.buried>
-2.7508

> <Gold.PLP.part.nonpolar>
-31.3971

> <Gold.PLP.part.repulsive>
0.1212

> <Gold.PLP.ligand.clash>
0.0000

> <Gold.PLP.ligand.torsion>
0.1750

> <Gold.PLP.Chemscore.Hbond>
1.6578

> <Gold.PLP.Chemscore.CHOScore>
1.7560

> <Gold.PLP.Chemscore.Metal>
0.0000

> <Gold.Chemscore.Hbonds>
donor molecule, donor type, donor heavy atom, donor atom, acceptor molecule, acceptor atom, score
      L1  H    14    20       P1  7949  0.33
      P1  H  7997  8010       L1    10  0.75
      P1  H 10752 10765       L1    12  0.56
      L1  C    15    32       P1  7948  0.90
      L1  C    15    32       P1  7957  0.38

> <Gold.PLP.Chemscore.Internal.Correction>
0.2019

> <Gold.Rescore>
     Score         DG    S(hbond)    S(metal)    S(lipo)     H(rot)  DE(clash)    DE(int)     intcor
     13.58     -13.92       0.89        0.00      86.87       1.84       0.14       0.20       ----

> <Gold.Chemscore.Fitness>
13.5821

> <Gold.Chemscore.DG>
-13.9217

> <Gold.Chemscore.ZeroCoef>
-5.4800

> <Gold.Chemscore.Hbond>
0.8946

> <Gold.Chemscore.Metal>
0.0000

> <Gold.Chemscore.Lipo>
86.8661

> <Gold.Chemscore.Internal_Hbond>
0.0000

> <Gold.Chemscore.DEClash>
0.1384

> <Gold.Chemscore.DEInternal>
0.2012

> <Gold.Chemscore.Rot>
1.8396

> <Gold.Chemscore.Internal.Correction>
   9.000000E+99

> <Gold.Chemscore.Hbonds>
donor molecule, donor type, donor heavy atom, donor atom, acceptor molecule, acceptor atom, score
      L1  H    14    20       P1  7949  0.11
      P1  H  7997  8010       L1    10  0.05
      P1  H 10752 10765       L1    12  0.54

> <Gold.Chemscore.Hbond.Weighted>
-2.9879

> <Gold.Chemscore.Metal.Weighted>
-0.0000

> <Gold.Chemscore.Lipo.Weighted>
-10.1633

> <Gold.Chemscore.Internal_Hbond.Weighted>
0.0000

> <Gold.Chemscore.DEClash.Weighted>
0.1384

> <Gold.Chemscore.DEInternal.Weighted>
0.2012

> <Gold.Chemscore.Rot.Weighted>
4.7095

> <Gold.Chemscore.Internal.Correction.Weighted>
   9.000000E+99

> <Gold.Protein.RotatedTorsions>
[ 6907 6896 6895 6894 ] final   12.60 input  -60.11 | X-H torsion
[ 7974 7965 7964 7962 ] final -156.56 input  175.53 | X-H torsion
[ 8008 7997 7996 7995 ] final   57.87 input   59.86 | X-H torsion
[ 10167 10162 10161 10158 ] final  -74.95 input  -65.29 | X-H torsion
[ 10718 10713 10712 10709 ] final  130.77 input   66.30 | X-H torsion
[ 10763 10752 10751 10750 ] final -142.12 input  -60.55 | X-H torsion
[ 11005 11000 10999 10996 ] final -161.79 input  -57.11 | X-H torsion

> <Gold.Protein.ActiveResidues>
 VAL166  LYS551  ARG553  GLY616  TRP617  ASP618  TYR619  PRO620  LYS621  CYS622 
 ASP623  PHE694  ASN695  SER759  ASP760  ASP761  ALA762  ILE779  LEU786  VAL792 
 PHE793  MET794  SER795  GLU796  ALA797  LYS798  CYS799  TRP800  GLU811  SER814 

> <Gold.Protein.RotatedAtoms>
  151.7729  135.0782  160.0362 H   0  0  0  0  0  0  0  0  0  0  0  0  # atno 6907 bound_to 6896
  152.3276  133.5918  159.5796 H   0  0  0  0  0  0  0  0  0  0  0  0  # atno 6908 bound_to 6896
  150.7404  133.9832  159.3625 H   0  0  0  0  0  0  0  0  0  0  0  0  # atno 6909 bound_to 6896
  144.7588  140.4093  143.5992 H   0  0  0  0  0  0  0  0  0  0  0  0  # atno 7974 bound_to 7965
  155.5408  140.3484  155.4446 H   0  0  0  0  0  0  0  0  0  0  0  0  # atno 8008 bound_to 7997
  156.0652  140.1350  156.9920 H   0  0  0  0  0  0  0  0  0  0  0  0  # atno 8009 bound_to 7997
  154.4500  140.0977  156.6562 H   0  0  0  0  0  0  0  0  0  0  0  0  # atno 8010 bound_to 7997
  140.4984  143.2366  151.7793 H   0  0  0  0  0  0  0  0  0  0  0  0  # atno 10167 bound_to 10162
  157.5030  131.1095  150.9400 H   0  0  0  0  0  0  0  0  0  0  0  0  # atno 10718 bound_to 10713
  154.8521  135.3505  154.5977 H   0  0  0  0  0  0  0  0  0  0  0  0  # atno 10763 bound_to 10752
  153.6586  135.6991  153.5189 H   0  0  0  0  0  0  0  0  0  0  0  0  # atno 10764 bound_to 10752
  153.2836  135.4256  155.1059 H   0  0  0  0  0  0  0  0  0  0  0  0  # atno 10765 bound_to 10752
  140.6165  134.4795  157.5220 H   0  0  0  0  0  0  0  0  0  0  0  0  # atno 11005 bound_to 11000
  145.6690  139.1595  143.2765 LP  0  0  0  0  0  0  0  0  0  0  0  0  # atno 17320 bound_to 7965
  146.1628  140.6763  142.9269 LP  0  0  0  0  0  0  0  0  0  0  0  0  # atno 17321 bound_to 7965
  139.4866  144.4555  151.9603 LP  0  0  0  0  0  0  0  0  0  0  0  0  # atno 17342 bound_to 10162
  140.3644  144.2933  150.5929 LP  0  0  0  0  0  0  0  0  0  0  0  0  # atno 17343 bound_to 10162
  157.0064  130.5620  149.5316 LP  0  0  0  0  0  0  0  0  0  0  0  0  # atno 17370 bound_to 10713
  156.0241  130.5335  150.8358 LP  0  0  0  0  0  0  0  0  0  0  0  0  # atno 17371 bound_to 10713
  139.9171  134.8225  156.1332 LP  0  0  0  0  0  0  0  0  0  0  0  0  # atno 17394 bound_to 11000
  141.0772  133.6770  156.2261 LP  0  0  0  0  0  0  0  0  0  0  0  0  # atno 17395 bound_to 11000

$$$$
