AV-unprocessed.smi:2750|AV-procd|sdf|10594|dock9
  -GOLD-   2272015 43D 1   1.00000     0.00000
 Structure written by MMmdl.
 24 25  0  0  0  0  0  0  0  0  3 V2000
  147.8808  136.8366  162.4076 O   0  0  0  0  0  0  0  0  0  0  0  0
  147.3160  136.6287  161.3109 C   0  0  0  0  0  0  0  0  0  0  0  0
  146.3511  137.2817  160.8558 O   0  5  0  0  0  0  0  0  0  0  0  0
  147.8693  135.5026  160.4351 C   0  0  0  0  0  0  0  0  0  0  0  0
  148.6907  135.9894  159.3404 N   0  0  0  0  0  0  0  0  0  0  0  0
  148.8585  137.2878  158.9038 C   0  0  0  0  0  0  0  0  0  0  0  0
  149.7493  137.1654  157.8755 C   0  0  0  0  0  0  0  0  0  0  0  0
  150.3483  138.2297  157.0038 C   0  0  0  0  0  0  0  0  0  0  0  0
  150.2375  137.9139  155.4963 C   0  0  1  0  0  0  0  0  0  0  0  0
  148.8537  137.7588  155.0784 N   0  5  0  0  0  0  0  0  0  0  0  0
  148.5930  138.6666  154.1087 C   0  0  0  0  0  0  0  0  0  0  0  0
  147.5382  138.8372  153.5014 O   0  0  0  0  0  0  0  0  0  0  0  0
  149.6713  139.4172  153.8611 N   0  0  0  0  0  0  0  0  0  0  0  0
  150.6974  139.0722  154.6322 C   0  0  0  0  0  0  0  0  0  0  0  0
  151.8173  139.5809  154.6567 O   0  0  0  0  0  0  0  0  0  0  0  0
  150.0757  135.8176  157.7249 N   0  0  0  0  0  0  0  0  0  0  0  0
  149.4324  135.1219  158.6095 N   0  0  0  0  0  0  0  0  0  0  0  0
  148.4681  134.8194  161.0390 H   0  0  0  0  0  0  0  0  0  0  0  0
  147.0394  134.9217  160.0300 H   0  0  0  0  0  0  0  0  0  0  0  0
  148.3580  138.1392  159.3402 H   0  0  0  0  0  0  0  0  0  0  0  0
  149.8826  139.1927  157.2198 H   0  0  0  0  0  0  0  0  0  0  0  0
  151.3988  138.3516  157.2716 H   0  0  0  0  0  0  0  0  0  0  0  0
  150.8505  137.0456  155.2503 H   0  0  0  0  0  0  0  0  0  0  0  0
  149.6984  140.1609  153.1800 H   0  0  0  0  0  0  0  0  0  0  0  0
  1  2  2  0  0  0  0
  2  3  1  0  0  0  0
  2  4  1  0  0  0  0
  4  5  1  0  0  0  0
  4 18  1  0  0  0  0
  4 19  1  0  0  0  0
  5 17  1  0  0  0  0
  5  6  1  0  0  0  0
  6  7  2  0  0  0  0
  6 20  1  0  0  0  0
  7  8  1  0  0  0  0
  7 16  1  0  0  0  0
  8  9  1  0  0  0  0
  8 21  1  0  0  0  0
  8 22  1  0  0  0  0
  9 14  1  0  0  0  0
  9 10  1  0  0  0  0
  9 23  1  0  0  0  0
 10 11  1  0  0  0  0
 11 12  2  0  0  0  0
 11 13  1  0  0  0  0
 13 14  1  0  0  0  0
 13 24  1  0  0  0  0
 14 15  2  0  0  0  0
 16 17  2  0  0  0  0
M  CHG  1   3  -1
M  CHG  1  10  -1
M  END
> <s_m_source_file>
AV-unprocessed.smi

> <i_m_source_file_index>
2750

> <i_lp_mmshare_version>
43012

> <i_f3d_flags>
0

> <s_epik_input>
Tz1DKFtPSF0pW0NIMl1uMVtjSF1jKG5uMSlbQ0gyXVtDQEBIXTJbTkhdQyg9TylbTkhdQzI9Tw==

> <s_epik_cmdline>
J2VwaWtfcHl0aG9uJywgJy1waCcsICc3LjAnLCAnLXRuJywgJzgnLCAnLW1hJywgJzIwMCcsICctbWV0YWxfYmluZGluZycsICctaW1hZScsICc8aW5maWxlLm1hZT4nLCAnLW9tYWUnLCAnPG91dGZpbGUubWFlPic=

> <r_lp_tautomer_probability>
1

> <r_epik_Ionization_Penalty>
5.10791

> <r_epik_Ionization_Penalty_Charging>
5.10788

> <r_epik_Ionization_Penalty_Neutral>
2.55687e-05

> <r_epik_State_Penalty>
5.12334

> <r_epik_Charging_Adjusted_Penalty>
10.2312

> <i_epik_Tot_Q>
-2

> <i_epik_Tot_abs_Q>
2

> <r_epik_Metal_State_Penalty>
1.50935

> <b_epik_Metal_Only>
1

> <s_lp_Force_Field>
OPLS_2005

> <r_lp_Energy>
16.7857

> <b_lp_Chiralities_Consistent>
1

> <s_lp_Variant>
AV-unprocessed.smi:2750-6

> <Gold.Version>
5.8.1

> <Gold.Id.Protein>
6NUR|6NUR_protein|mol2

> <Gold.PLP.Fitness>
40.6637

> <Gold.PLP.PLP>
-21.8925

> <Gold.PLP.part.hbond>
-5.7356

> <Gold.PLP.part.metal>
0.0000

> <Gold.PLP.part.buried>
-5.3056

> <Gold.PLP.part.nonpolar>
-12.0406

> <Gold.PLP.part.repulsive>
0.5107

> <Gold.PLP.ligand.clash>
0.0000

> <Gold.PLP.ligand.torsion>
0.4367

> <Gold.PLP.Chemscore.Hbond>
6.5442

> <Gold.PLP.Chemscore.CHOScore>
0.0000

> <Gold.PLP.Chemscore.Metal>
0.0000

> <Gold.Chemscore.Hbonds>
donor molecule, donor type, donor heavy atom, donor atom, acceptor molecule, acceptor atom, score
      L1  H    13    24       P1  7957  0.58
      P1  H  6896  6909       L1    17  0.98
      P1  H  6931  6943       L1     1  2.00
      P1  H  6934  6947       L1     3  1.80
      P1  H  7989  7998       L1    15  1.00

> <Gold.PLP.Chemscore.Internal.Correction>
0.0118

> <Gold.Rescore>
     Score         DG    S(hbond)    S(metal)    S(lipo)     H(rot)  DE(clash)    DE(int)     intcor
     10.51     -11.79       3.36        0.00      19.18       2.80       0.67       0.61       ----

> <Gold.Chemscore.Fitness>
10.5059

> <Gold.Chemscore.DG>
-11.7887

> <Gold.Chemscore.ZeroCoef>
-5.4800

> <Gold.Chemscore.Hbond>
3.3611

> <Gold.Chemscore.Metal>
0.0000

> <Gold.Chemscore.Lipo>
19.1766

> <Gold.Chemscore.Internal_Hbond>
0.0000

> <Gold.Chemscore.DEClash>
0.6694

> <Gold.Chemscore.DEInternal>
0.6134

> <Gold.Chemscore.Rot>
2.7973

> <Gold.Chemscore.Internal.Correction>
   9.000000E+99

> <Gold.Chemscore.Hbonds>
donor molecule, donor type, donor heavy atom, donor atom, acceptor molecule, acceptor atom, score
      L1  H    13    24       P1  7957  0.54
      P1  H  6896  6909       L1    17  0.41
      P1  H  6931  6943       L1     1  0.29
      P1  H  6934  6947       L1     3  0.18
      P1  H  7989  7998       L1    15  0.33

> <Gold.Chemscore.Hbond.Weighted>
-11.2262

> <Gold.Chemscore.Metal.Weighted>
-0.0000

> <Gold.Chemscore.Lipo.Weighted>
-2.2437

> <Gold.Chemscore.Internal_Hbond.Weighted>
0.0000

> <Gold.Chemscore.DEClash.Weighted>
0.6694

> <Gold.Chemscore.DEInternal.Weighted>
0.6134

> <Gold.Chemscore.Rot.Weighted>
7.1611

> <Gold.Chemscore.Internal.Correction.Weighted>
   9.000000E+99

> <Gold.Protein.RotatedTorsions>
[ 6907 6896 6895 6894 ] final   22.64 input  -60.11 | X-H torsion
[ 7974 7965 7964 7962 ] final  -70.22 input  175.53 | X-H torsion
[ 8008 7997 7996 7995 ] final  129.98 input   59.86 | X-H torsion
[ 10167 10162 10161 10158 ] final -152.77 input  -65.29 | X-H torsion
[ 10718 10713 10712 10709 ] final  150.76 input   66.30 | X-H torsion
[ 10763 10752 10751 10750 ] final  172.14 input  -60.55 | X-H torsion
[ 11005 11000 10999 10996 ] final  -18.71 input  -57.11 | X-H torsion

> <Gold.Protein.ActiveResidues>
 VAL166  LYS551  ARG553  GLY616  TRP617  ASP618  TYR619  PRO620  LYS621  CYS622 
 ASP623  PHE694  ASN695  SER759  ASP760  ASP761  ALA762  ILE779  LEU786  VAL792 
 PHE793  MET794  SER795  GLU796  ALA797  LYS798  CYS799  TRP800  GLU811  SER814 

> <Gold.Protein.RotatedAtoms>
  151.9302  135.0260  160.0528 H   0  0  0  0  0  0  0  0  0  0  0  0  # atno 6907 bound_to 6896
  152.2125  133.4917  159.5126 H   0  0  0  0  0  0  0  0  0  0  0  0  # atno 6908 bound_to 6896
  150.6979  134.1365  159.4132 H   0  0  0  0  0  0  0  0  0  0  0  0  # atno 6909 bound_to 6896
  145.6938  140.9143  143.0767 H   0  0  0  0  0  0  0  0  0  0  0  0  # atno 7974 bound_to 7965
  156.2946  140.2607  156.2687 H   0  0  0  0  0  0  0  0  0  0  0  0  # atno 8008 bound_to 7997
  154.9716  140.0391  157.2255 H   0  0  0  0  0  0  0  0  0  0  0  0  # atno 8009 bound_to 7997
  154.7853  140.2802  155.6037 H   0  0  0  0  0  0  0  0  0  0  0  0  # atno 8010 bound_to 7997
  139.7153  143.9042  152.2484 H   0  0  0  0  0  0  0  0  0  0  0  0  # atno 10167 bound_to 10162
  157.2794  131.0832  151.1543 H   0  0  0  0  0  0  0  0  0  0  0  0  # atno 10718 bound_to 10713
  154.4219  135.2758  155.1970 H   0  0  0  0  0  0  0  0  0  0  0  0  # atno 10763 bound_to 10752
  154.3912  135.6065  153.5848 H   0  0  0  0  0  0  0  0  0  0  0  0  # atno 10764 bound_to 10752
  152.9833  135.5904  154.4516 H   0  0  0  0  0  0  0  0  0  0  0  0  # atno 10765 bound_to 10752
  140.8294  133.8008  155.9743 H   0  0  0  0  0  0  0  0  0  0  0  0  # atno 11005 bound_to 11000
  144.6989  139.8856  143.7450 LP  0  0  0  0  0  0  0  0  0  0  0  0  # atno 17320 bound_to 7965
  146.0858  139.3847  143.0436 LP  0  0  0  0  0  0  0  0  0  0  0  0  # atno 17321 bound_to 7965
  139.8923  144.6958  150.8756 LP  0  0  0  0  0  0  0  0  0  0  0  0  # atno 17342 bound_to 10162
  140.7742  143.3577  151.1890 LP  0  0  0  0  0  0  0  0  0  0  0  0  # atno 17343 bound_to 10162
  157.2983  130.6830  149.6150 LP  0  0  0  0  0  0  0  0  0  0  0  0  # atno 17370 bound_to 10713
  155.9664  130.4400  150.5281 LP  0  0  0  0  0  0  0  0  0  0  0  0  # atno 17371 bound_to 10713
  140.9014  134.2374  157.5039 LP  0  0  0  0  0  0  0  0  0  0  0  0  # atno 17394 bound_to 11000
  139.8705  134.9708  156.4714 LP  0  0  0  0  0  0  0  0  0  0  0  0  # atno 17395 bound_to 11000

$$$$
