AV-unprocessed.smi:2233|AV-procd|sdf|9040|dock7
  -GOLD-   2272012243D 1   1.00000     0.00000
 Structure written by MMmdl.
 43 44  0  0  0  0  0  0  0  0  2 V2000
  153.4130  142.7150  162.7264 C   0  0  0  0  0  0  0  0  0  0  0  0
  153.2250  142.2221  161.6251 C   0  0  0  0  0  0  0  0  0  0  0  0
  153.0003  141.6425  160.2893 C   0  0  0  0  0  0  0  0  0  0  0  0
  151.9992  142.4163  159.4119 C   0  0  0  0  0  0  0  0  0  0  0  0
  151.7724  141.8016  158.0186 C   0  0  0  0  0  0  0  0  0  0  0  0
  150.4046  142.1857  157.4263 C   0  0  0  0  0  0  0  0  0  0  0  0
  150.0654  141.4062  156.1518 C   0  0  0  0  0  0  0  0  0  0  0  0
  150.9694  140.9875  155.4293 O   0  0  0  0  0  0  0  0  0  0  0  0
  148.7532  141.2265  155.9155 N   0  0  0  0  0  0  0  0  0  0  0  0
  148.1189  140.5342  154.8432 C   0  0  0  0  0  0  0  0  0  0  0  0
  146.9391  141.0032  154.2119 C   0  0  0  0  0  0  0  0  0  0  0  0
  146.3769  140.2960  153.2088 N   0  3  0  0  0  0  0  0  0  0  0  0
  146.8840  139.1292  152.7607 C   0  0  0  0  0  0  0  0  0  0  0  0
  148.0456  138.5988  153.3533 C   0  0  0  0  0  0  0  0  0  0  0  0
  148.6732  139.3009  154.4104 C   0  0  0  0  0  0  0  0  0  0  0  0
  149.8301  138.7914  155.0227 N   0  0  0  0  0  0  0  0  0  0  0  0
  149.5818  137.6567  155.9028 C   0  0  0  0  0  0  0  0  0  0  0  0
  150.8772  137.2718  156.6379 C   0  0  0  0  0  0  0  0  0  0  0  0
  151.9050  137.0107  155.6861 O   0  0  0  0  0  0  0  0  0  0  0  0
  152.1935  138.1508  154.8811 C   0  0  0  0  0  0  0  0  0  0  0  0
  150.9337  138.5612  154.0992 C   0  0  0  0  0  0  0  0  0  0  0  0
  153.5739  143.1467  163.6889 H   0  0  0  0  0  0  0  0  0  0  0  0
  153.9669  141.5746  159.7894 H   0  0  0  0  0  0  0  0  0  0  0  0
  152.6492  140.6207  160.4356 H   0  0  0  0  0  0  0  0  0  0  0  0
  151.0446  142.4600  159.9376 H   0  0  0  0  0  0  0  0  0  0  0  0
  152.3302  143.4506  159.3056 H   0  0  0  0  0  0  0  0  0  0  0  0
  152.5647  142.1237  157.3418 H   0  0  0  0  0  0  0  0  0  0  0  0
  151.8486  140.7155  158.0891 H   0  0  0  0  0  0  0  0  0  0  0  0
  149.6257  142.0162  158.1717 H   0  0  0  0  0  0  0  0  0  0  0  0
  150.3864  143.2508  157.1931 H   0  0  0  0  0  0  0  0  0  0  0  0
  148.1286  141.5662  156.6332 H   0  0  0  0  0  0  0  0  0  0  0  0
  146.4113  141.9078  154.4723 H   0  0  0  0  0  0  0  0  0  0  0  0
  146.3461  138.6555  151.9523 H   0  0  0  0  0  0  0  0  0  0  0  0
  148.4469  137.6609  152.9976 H   0  0  0  0  0  0  0  0  0  0  0  0
  148.8032  137.9097  156.6236 H   0  0  0  0  0  0  0  0  0  0  0  0
  149.2217  136.8069  155.3216 H   0  0  0  0  0  0  0  0  0  0  0  0
  151.1896  138.0657  157.3182 H   0  0  0  0  0  0  0  0  0  0  0  0
  150.7157  136.3789  157.2421 H   0  0  0  0  0  0  0  0  0  0  0  0
  152.5476  138.9712  155.5074 H   0  0  0  0  0  0  0  0  0  0  0  0
  153.0009  137.9045  154.1914 H   0  0  0  0  0  0  0  0  0  0  0  0
  150.6674  137.7758  153.3906 H   0  0  0  0  0  0  0  0  0  0  0  0
  151.1294  139.4658  153.5220 H   0  0  0  0  0  0  0  0  0  0  0  0
  145.5290  140.6596  152.7728 H   0  0  0  0  0  0  0  0  0  0  0  0
  1  2  3  0  0  0  0
  1 22  1  0  0  0  0
  2  3  1  0  0  0  0
  3  4  1  0  0  0  0
  3 23  1  0  0  0  0
  3 24  1  0  0  0  0
  4  5  1  0  0  0  0
  4 25  1  0  0  0  0
  4 26  1  0  0  0  0
  5  6  1  0  0  0  0
  5 27  1  0  0  0  0
  5 28  1  0  0  0  0
  6  7  1  0  0  0  0
  6 29  1  0  0  0  0
  6 30  1  0  0  0  0
  7  8  2  0  0  0  0
  7  9  1  0  0  0  0
  9 10  1  0  0  0  0
  9 31  1  0  0  0  0
 10 15  1  0  0  0  0
 10 11  2  0  0  0  0
 11 12  1  0  0  0  0
 11 32  1  0  0  0  0
 12 13  2  0  0  0  0
 12 43  1  0  0  0  0
 13 14  1  0  0  0  0
 13 33  1  0  0  0  0
 14 15  2  0  0  0  0
 14 34  1  0  0  0  0
 15 16  1  0  0  0  0
 16 21  1  0  0  0  0
 16 17  1  0  0  0  0
 17 18  1  0  0  0  0
 17 35  1  0  0  0  0
 17 36  1  0  0  0  0
 18 19  1  0  0  0  0
 18 37  1  0  0  0  0
 18 38  1  0  0  0  0
 19 20  1  0  0  0  0
 20 21  1  0  0  0  0
 20 39  1  0  0  0  0
 20 40  1  0  0  0  0
 21 41  1  0  0  0  0
 21 42  1  0  0  0  0
M  CHG  1  12   1
M  END
> <s_m_source_file>
AV-unprocessed.smi

> <i_m_source_file_index>
2233

> <i_lp_mmshare_version>
43012

> <i_f3d_flags>
0

> <s_epik_input>
W0NIXSNDW0NIMl1bQ0gyXVtDSDJdW0NIMl1DKD1PKVtOSF1jMVtjSF1uW2NIXVtjSF1jMU4yW0NIMl1bQ0gyXU9bQ0gyXVtDSDJdMg==

> <s_epik_cmdline>
J2VwaWtfcHl0aG9uJywgJy1waCcsICc3LjAnLCAnLXRuJywgJzgnLCAnLW1hJywgJzIwMCcsICctbWV0YWxfYmluZGluZycsICctaW1hZScsICc8aW5maWxlLm1hZT4nLCAnLW9tYWUnLCAnPG91dGZpbGUubWFlPic=

> <r_lp_tautomer_probability>
1

> <r_epik_Ionization_Penalty>
0.153155

> <r_epik_Ionization_Penalty_Charging>
0.153154

> <r_epik_Ionization_Penalty_Neutral>
1.2848e-06

> <r_epik_State_Penalty>
0.142445

> <r_epik_Charging_Adjusted_Penalty>
0.295599

> <i_epik_Tot_Q>
1

> <i_epik_Tot_abs_Q>
1

> <r_epik_Metal_State_Penalty>
0.464899

> <b_epik_Metal_Only>
0

> <s_lp_Force_Field>
OPLS_2005

> <r_lp_Energy>
30.3927

> <b_lp_Chiralities_Consistent>
1

> <s_lp_Variant>
AV-unprocessed.smi:2233-1

> <Gold.Version>
5.8.1

> <Gold.Id.Protein>
6NUR|6NUR_protein|mol2

> <Gold.PLP.Fitness>
46.0734

> <Gold.PLP.PLP>
-36.9317

> <Gold.PLP.part.hbond>
-3.0000

> <Gold.PLP.part.metal>
0.0000

> <Gold.PLP.part.buried>
-2.1091

> <Gold.PLP.part.nonpolar>
-31.9393

> <Gold.PLP.part.repulsive>
0.2447

> <Gold.PLP.ligand.clash>
0.0000

> <Gold.PLP.ligand.torsion>
1.0138

> <Gold.PLP.Chemscore.Hbond>
3.6731

> <Gold.PLP.Chemscore.CHOScore>
0.0000

> <Gold.PLP.Chemscore.Metal>
0.0000

> <Gold.Chemscore.Hbonds>
donor molecule, donor type, donor heavy atom, donor atom, acceptor molecule, acceptor atom, score
      L1  H    12    43       P1 10175  1.98
      P1  H  7989  7998       L1     8  0.70
      P1  H 10752 10763       L1    19  0.99

> <Gold.PLP.Chemscore.Internal.Correction>
0.1501

> <Gold.Rescore>
     Score         DG    S(hbond)    S(metal)    S(lipo)     H(rot)  DE(clash)    DE(int)     intcor
     15.20     -22.49       2.49        0.00     107.80       1.54       0.82       6.46       ----

> <Gold.Chemscore.Fitness>
15.2033

> <Gold.Chemscore.DG>
-22.4874

> <Gold.Chemscore.ZeroCoef>
-5.4800

> <Gold.Chemscore.Hbond>
2.4948

> <Gold.Chemscore.Metal>
0.0000

> <Gold.Chemscore.Lipo>
107.7957

> <Gold.Chemscore.Internal_Hbond>
0.0000

> <Gold.Chemscore.DEClash>
0.8206

> <Gold.Chemscore.DEInternal>
6.4634

> <Gold.Chemscore.Rot>
1.5380

> <Gold.Chemscore.Internal.Correction>
   9.000000E+99

> <Gold.Chemscore.Hbonds>
donor molecule, donor type, donor heavy atom, donor atom, acceptor molecule, acceptor atom, score
      L1  H    12    43       P1 10175  0.52
      P1  H  7989  7998       L1     8  0.65
      P1  H 10752 10763       L1    19  0.26

> <Gold.Chemscore.Hbond.Weighted>
-8.3326

> <Gold.Chemscore.Metal.Weighted>
-0.0000

> <Gold.Chemscore.Lipo.Weighted>
-12.6121

> <Gold.Chemscore.Internal_Hbond.Weighted>
0.0000

> <Gold.Chemscore.DEClash.Weighted>
0.8206

> <Gold.Chemscore.DEInternal.Weighted>
6.4634

> <Gold.Chemscore.Rot.Weighted>
3.9373

> <Gold.Chemscore.Internal.Correction.Weighted>
   9.000000E+99

> <Gold.Protein.RotatedTorsions>
[ 6907 6896 6895 6894 ] final  149.46 input  -60.11 | X-H torsion
[ 7974 7965 7964 7962 ] final   86.60 input  175.53 | X-H torsion
[ 8008 7997 7996 7995 ] final   88.20 input   59.86 | X-H torsion
[ 10167 10162 10161 10158 ] final  -41.79 input  -65.29 | X-H torsion
[ 10718 10713 10712 10709 ] final  125.72 input   66.30 | X-H torsion
[ 10763 10752 10751 10750 ] final   66.86 input  -60.55 | X-H torsion
[ 11005 11000 10999 10996 ] final -102.39 input  -57.11 | X-H torsion

> <Gold.Protein.ActiveResidues>
 VAL166  LYS551  ARG553  GLY616  TRP617  ASP618  TYR619  PRO620  LYS621  CYS622 
 ASP623  PHE694  ASN695  SER759  ASP760  ASP761  ALA762  ILE779  LEU786  VAL792 
 PHE793  MET794  SER795  GLU796  ALA797  LYS798  CYS799  TRP800  GLU811  SER814 

> <Gold.Protein.RotatedAtoms>
  152.1277  133.4390  159.4705 H   0  0  0  0  0  0  0  0  0  0  0  0  # atno 6907 bound_to 6896
  150.6876  134.2458  159.4500 H   0  0  0  0  0  0  0  0  0  0  0  0  # atno 6908 bound_to 6896
  152.0339  134.9751  160.0623 H   0  0  0  0  0  0  0  0  0  0  0  0  # atno 6909 bound_to 6896
  145.5701  139.2313  143.2411 H   0  0  0  0  0  0  0  0  0  0  0  0  # atno 7974 bound_to 7965
  155.9848  140.3374  155.6697 H   0  0  0  0  0  0  0  0  0  0  0  0  # atno 8008 bound_to 7997
  155.6500  140.0704  157.2608 H   0  0  0  0  0  0  0  0  0  0  0  0  # atno 8009 bound_to 7997
  154.4202  140.1727  156.1652 H   0  0  0  0  0  0  0  0  0  0  0  0  # atno 8010 bound_to 7997
  140.6991  143.3074  151.3116 H   0  0  0  0  0  0  0  0  0  0  0  0  # atno 10167 bound_to 10162
  157.5480  131.1095  150.8750 H   0  0  0  0  0  0  0  0  0  0  0  0  # atno 10718 bound_to 10713
  153.0159  135.5305  154.6890 H   0  0  0  0  0  0  0  0  0  0  0  0  # atno 10763 bound_to 10752
  154.6030  135.2870  155.0517 H   0  0  0  0  0  0  0  0  0  0  0  0  # atno 10764 bound_to 10752
  154.1568  135.6554  153.5029 H   0  0  0  0  0  0  0  0  0  0  0  0  # atno 10765 bound_to 10752
  141.1191  133.8554  157.1353 H   0  0  0  0  0  0  0  0  0  0  0  0  # atno 11005 bound_to 11000
  146.1790  140.6527  142.9198 LP  0  0  0  0  0  0  0  0  0  0  0  0  # atno 17320 bound_to 7965
  144.7442  140.5023  143.6848 LP  0  0  0  0  0  0  0  0  0  0  0  0  # atno 17321 bound_to 7965
  139.6485  144.0406  152.2609 LP  0  0  0  0  0  0  0  0  0  0  0  0  # atno 17342 bound_to 10162
  139.9935  144.6345  150.7793 LP  0  0  0  0  0  0  0  0  0  0  0  0  # atno 17343 bound_to 10162
  156.9283  130.5340  149.5279 LP  0  0  0  0  0  0  0  0  0  0  0  0  # atno 17370 bound_to 10713
  156.0552  130.5614  150.9075 LP  0  0  0  0  0  0  0  0  0  0  0  0  # atno 17371 bound_to 10713
  140.0135  134.9978  157.0444 LP  0  0  0  0  0  0  0  0  0  0  0  0  # atno 17394 bound_to 11000
  140.4560  134.1533  155.7186 LP  0  0  0  0  0  0  0  0  0  0  0  0  # atno 17395 bound_to 11000

$$$$
