AV-unprocessed.smi:971|AV-procd|sdf|4295|dock4
  -GOLD-   22720 2203D 1   1.00000     0.00000
 Structure written by MMmdl.
 34 35  0  0  0  0  0  0  0  0  1 V2000
  151.3173  145.4865  159.8125 C   0  0  0  0  0  0  0  0  0  0  0  0
  152.4914  144.6822  159.2441 C   0  0  0  0  0  0  0  0  0  0  0  0
  152.1276  143.2490  158.9892 C   0  0  0  0  0  0  0  0  0  0  0  0
  151.1798  142.9477  158.0064 N   0  0  0  0  0  0  0  0  0  0  0  0
  150.9677  141.6365  157.8783 C   0  0  0  0  0  0  0  0  0  0  0  0
  149.9825  141.0514  156.9235 C   0  0  0  0  0  0  0  0  0  0  0  0
  150.1197  141.6333  155.5074 C   0  0  0  0  0  0  0  0  0  0  0  0
  148.8216  141.9791  154.9396 N   0  0  0  0  0  0  0  0  0  0  0  0
  148.0158  141.1309  154.2824 C   0  0  0  0  0  0  0  0  0  0  0  0
  148.3019  139.9486  154.0876 O   0  0  0  0  0  0  0  0  0  0  0  0
  146.7394  141.7481  153.8125 C   0  0  0  0  0  0  0  0  0  0  0  0
  146.5161  143.2158  154.1161 C   0  0  0  0  0  0  0  0  0  0  0  0
  145.7312  142.1674  154.8634 C   0  0  0  0  0  0  0  0  0  0  0  0
  151.9193  140.6708  158.9971 S   0  0  0  0  0  0  0  0  0  0  0  0
  152.6337  142.1363  159.6202 C   0  0  0  0  0  0  0  0  0  0  0  0
  153.6573  142.0856  160.7056 C   0  0  0  0  0  0  0  0  0  0  0  0
  151.6050  146.5231  159.9882 H   0  0  0  0  0  0  0  0  0  0  0  0
  150.9765  145.0705  160.7612 H   0  0  0  0  0  0  0  0  0  0  0  0
  150.4723  145.4868  159.1234 H   0  0  0  0  0  0  0  0  0  0  0  0
  152.8382  145.1552  158.3251 H   0  0  0  0  0  0  0  0  0  0  0  0
  153.3310  144.7355  159.9380 H   0  0  0  0  0  0  0  0  0  0  0  0
  150.1177  139.9691  156.9060 H   0  0  0  0  0  0  0  0  0  0  0  0
  148.9781  141.2337  157.3075 H   0  0  0  0  0  0  0  0  0  0  0  0
  150.7273  142.5381  155.5362 H   0  0  0  0  0  0  0  0  0  0  0  0
  150.6389  140.9308  154.8531 H   0  0  0  0  0  0  0  0  0  0  0  0
  148.5121  142.9333  155.0557 H   0  0  0  0  0  0  0  0  0  0  0  0
  146.3383  141.3789  152.8696 H   0  0  0  0  0  0  0  0  0  0  0  0
  147.2828  143.7556  154.6693 H   0  0  0  0  0  0  0  0  0  0  0  0
  145.9962  143.8022  153.3613 H   0  0  0  0  0  0  0  0  0  0  0  0
  144.6792  142.0436  154.6153 H   0  0  0  0  0  0  0  0  0  0  0  0
  145.9768  142.0126  155.9128 H   0  0  0  0  0  0  0  0  0  0  0  0
  154.5358  142.6732  160.4373 H   0  0  0  0  0  0  0  0  0  0  0  0
  153.9838  141.0628  160.8942 H   0  0  0  0  0  0  0  0  0  0  0  0
  153.2537  142.4868  161.6352 H   0  0  0  0  0  0  0  0  0  0  0  0
  1  2  1  0  0  0  0
  1 17  1  0  0  0  0
  1 18  1  0  0  0  0
  1 19  1  0  0  0  0
  2  3  1  0  0  0  0
  2 20  1  0  0  0  0
  2 21  1  0  0  0  0
  3 15  2  0  0  0  0
  3  4  1  0  0  0  0
  4  5  2  0  0  0  0
  5  6  1  0  0  0  0
  5 14  1  0  0  0  0
  6  7  1  0  0  0  0
  6 22  1  0  0  0  0
  6 23  1  0  0  0  0
  7  8  1  0  0  0  0
  7 24  1  0  0  0  0
  7 25  1  0  0  0  0
  8  9  1  0  0  0  0
  8 26  1  0  0  0  0
  9 10  2  0  0  0  0
  9 11  1  0  0  0  0
 11 13  1  0  0  0  0
 11 12  1  0  0  0  0
 11 27  1  0  0  0  0
 12 13  1  0  0  0  0
 12 28  1  0  0  0  0
 12 29  1  0  0  0  0
 13 30  1  0  0  0  0
 13 31  1  0  0  0  0
 14 15  1  0  0  0  0
 15 16  1  0  0  0  0
 16 32  1  0  0  0  0
 16 33  1  0  0  0  0
 16 34  1  0  0  0  0
M  END
> <s_m_source_file>
AV-unprocessed.smi

> <i_m_source_file_index>
971

> <i_lp_mmshare_version>
43012

> <i_f3d_flags>
0

> <s_epik_input>
W0NIM11bQ0gyXWMxbmMoc2MxW0NIM10pW0NIMl1bQ0gyXVtOSF1DKD1PKVtDSF0yW0NIMl1bQ0gyXTI=

> <s_epik_cmdline>
J2VwaWtfcHl0aG9uJywgJy1waCcsICc3LjAnLCAnLXRuJywgJzgnLCAnLW1hJywgJzIwMCcsICctbWV0YWxfYmluZGluZycsICctaW1hZScsICc8aW5maWxlLm1hZT4nLCAnLW9tYWUnLCAnPG91dGZpbGUubWFlPic=

> <r_epik_Ionization_Penalty>
0.00242093

> <r_epik_Ionization_Penalty_Charging>
0

> <r_epik_Ionization_Penalty_Neutral>
0.00242093

> <r_epik_State_Penalty>
0.00167523

> <r_epik_Charging_Adjusted_Penalty>
0.00167523

> <i_epik_Tot_Q>
0

> <i_epik_Tot_abs_Q>
0

> <r_epik_Metal_State_Penalty>
-0

> <b_epik_Metal_Only>
0

> <s_lp_Force_Field>
OPLS_2005

> <r_lp_Energy>
-4.35298

> <b_lp_Chiralities_Consistent>
1

> <s_lp_Variant>
AV-unprocessed.smi:971-1

> <Gold.Version>
5.8.1

> <Gold.Id.Protein>
6NUR|6NUR_protein|mol2

> <Gold.PLP.Fitness>
41.4531

> <Gold.PLP.PLP>
-40.1060

> <Gold.PLP.part.hbond>
-1.0000

> <Gold.PLP.part.metal>
0.0000

> <Gold.PLP.part.buried>
-4.7411

> <Gold.PLP.part.nonpolar>
-33.6035

> <Gold.PLP.part.repulsive>
0.4198

> <Gold.PLP.ligand.clash>
0.2644

> <Gold.PLP.ligand.torsion>
0.7386

> <Gold.PLP.Chemscore.Hbond>
0.9920

> <Gold.PLP.Chemscore.CHOScore>
0.0000

> <Gold.PLP.Chemscore.Metal>
0.0000

> <Gold.Chemscore.Hbonds>
donor molecule, donor type, donor heavy atom, donor atom, acceptor molecule, acceptor atom, score
      L1  H     8    26       P1  8028  0.99

> <Gold.PLP.Chemscore.Internal.Correction>
0.1127

> <Gold.Rescore>
     Score         DG    S(hbond)    S(metal)    S(lipo)     H(rot)  DE(clash)    DE(int)     intcor
     15.95     -16.72       0.93        0.00     103.33       1.54       0.05       0.72       ----

> <Gold.Chemscore.Fitness>
15.9473

> <Gold.Chemscore.DG>
-16.7205

> <Gold.Chemscore.ZeroCoef>
-5.4800

> <Gold.Chemscore.Hbond>
0.9294

> <Gold.Chemscore.Metal>
0.0000

> <Gold.Chemscore.Lipo>
103.3278

> <Gold.Chemscore.Internal_Hbond>
0.0000

> <Gold.Chemscore.DEClash>
0.0494

> <Gold.Chemscore.DEInternal>
0.7238

> <Gold.Chemscore.Rot>
1.5441

> <Gold.Chemscore.Internal.Correction>
   9.000000E+99

> <Gold.Chemscore.Hbonds>
donor molecule, donor type, donor heavy atom, donor atom, acceptor molecule, acceptor atom, score
      L1  H     8    26       P1  8028  0.94

> <Gold.Chemscore.Hbond.Weighted>
-3.1041

> <Gold.Chemscore.Metal.Weighted>
-0.0000

> <Gold.Chemscore.Lipo.Weighted>
-12.0893

> <Gold.Chemscore.Internal_Hbond.Weighted>
0.0000

> <Gold.Chemscore.DEClash.Weighted>
0.0494

> <Gold.Chemscore.DEInternal.Weighted>
0.7238

> <Gold.Chemscore.Rot.Weighted>
3.9529

> <Gold.Chemscore.Internal.Correction.Weighted>
   9.000000E+99

> <Gold.Protein.RotatedTorsions>
[ 6907 6896 6895 6894 ] final -140.78 input  -60.11 | X-H torsion
[ 7974 7965 7964 7962 ] final   55.45 input  175.53 | X-H torsion
[ 8008 7997 7996 7995 ] final  -48.97 input   59.86 | X-H torsion
[ 10167 10162 10161 10158 ] final  125.75 input  -65.29 | X-H torsion
[ 10718 10713 10712 10709 ] final   15.52 input   66.30 | X-H torsion
[ 10763 10752 10751 10750 ] final  -29.29 input  -60.55 | X-H torsion
[ 11005 11000 10999 10996 ] final   28.25 input  -57.11 | X-H torsion

> <Gold.Protein.ActiveResidues>
 VAL166  LYS551  ARG553  GLY616  TRP617  ASP618  TYR619  PRO620  LYS621  CYS622 
 ASP623  PHE694  ASN695  SER759  ASP760  ASP761  ALA762  ILE779  LEU786  VAL792 
 PHE793  MET794  SER795  GLU796  ALA797  LYS798  CYS799  TRP800  GLU811  SER814 

> <Gold.Protein.RotatedAtoms>
  151.0652  133.5511  159.2630 H   0  0  0  0  0  0  0  0  0  0  0  0  # atno 6907 bound_to 6896
  151.2471  135.0608  159.9057 H   0  0  0  0  0  0  0  0  0  0  0  0  # atno 6908 bound_to 6896
  152.5403  134.0418  159.8125 H   0  0  0  0  0  0  0  0  0  0  0  0  # atno 6909 bound_to 6896
  145.9503  139.3966  143.0310 H   0  0  0  0  0  0  0  0  0  0  0  0  # atno 7974 bound_to 7965
  154.4037  140.1308  156.4426 H   0  0  0  0  0  0  0  0  0  0  0  0  # atno 8008 bound_to 7997
  155.7444  140.3489  155.5100 H   0  0  0  0  0  0  0  0  0  0  0  0  # atno 8009 bound_to 7997
  155.9009  140.1019  157.1341 H   0  0  0  0  0  0  0  0  0  0  0  0  # atno 8010 bound_to 7997
  139.5668  144.6916  151.3887 H   0  0  0  0  0  0  0  0  0  0  0  0  # atno 10167 bound_to 10162
  157.0548  130.6284  149.5774 H   0  0  0  0  0  0  0  0  0  0  0  0  # atno 10718 bound_to 10713
  153.7622  135.6918  153.4923 H   0  0  0  0  0  0  0  0  0  0  0  0  # atno 10763 bound_to 10752
  153.1930  135.4464  155.0172 H   0  0  0  0  0  0  0  0  0  0  0  0  # atno 10764 bound_to 10752
  154.8149  135.3394  154.7137 H   0  0  0  0  0  0  0  0  0  0  0  0  # atno 10765 bound_to 10752
  140.3176  134.2579  155.7723 H   0  0  0  0  0  0  0  0  0  0  0  0  # atno 11005 bound_to 11000
  145.8180  140.9693  143.0914 LP  0  0  0  0  0  0  0  0  0  0  0  0  # atno 17320 bound_to 7965
  144.6794  140.0005  143.7484 LP  0  0  0  0  0  0  0  0  0  0  0  0  # atno 17321 bound_to 7965
  140.6952  143.7766  150.7315 LP  0  0  0  0  0  0  0  0  0  0  0  0  # atno 17342 bound_to 10162
  140.1260  143.4568  152.2284 LP  0  0  0  0  0  0  0  0  0  0  0  0  # atno 17343 bound_to 10162
  155.9996  130.5073  150.7615 LP  0  0  0  0  0  0  0  0  0  0  0  0  # atno 17370 bound_to 10713
  157.5002  131.0918  151.0323 LP  0  0  0  0  0  0  0  0  0  0  0  0  # atno 17371 bound_to 10713
  141.2094  133.7750  156.9999 LP  0  0  0  0  0  0  0  0  0  0  0  0  # atno 17394 bound_to 11000
  140.0970  134.9558  157.1864 LP  0  0  0  0  0  0  0  0  0  0  0  0  # atno 17395 bound_to 11000

$$$$
