AV-unprocessed.smi:1965|AV-procd|sdf|7943|dock7
  -GOLD-   2272010113D 1   1.00000     0.00000
 Structure written by MMmdl.
 36 38  0  0  0  0  0  0  0  0  3 V2000
  149.1448  141.4010  153.8716 O   0  0  0  0  0  0  0  0  0  0  0  0
  149.5081  140.3077  154.3029 C   0  0  0  0  0  0  0  0  0  0  0  0
  150.7202  140.0907  154.8767 N   0  5  0  0  0  0  0  0  0  0  0  0
  150.9964  140.4572  156.1423 C   0  0  0  0  0  0  0  0  0  0  0  0
  152.1880  140.2594  156.7176 N   0  0  0  0  0  0  0  0  0  0  0  0
  152.2488  140.7089  158.0379 C   0  0  0  0  0  0  0  0  0  0  0  0
  151.0758  141.2621  158.4781 C   0  0  0  0  0  0  0  0  0  0  0  0
  149.8546  141.2412  157.2380 S   0  0  0  0  0  0  0  0  0  0  0  0
  148.6705  139.2593  154.2059 N   0  0  0  0  0  0  0  0  0  0  0  0
  147.3258  139.2692  153.6407 C   0  0  1  0  0  0  0  0  0  0  0  0
  147.2911  139.6037  152.1336 C   0  0  0  0  0  0  0  0  0  0  0  0
  146.3622  138.5541  151.5150 C   0  0  0  0  0  0  0  0  0  0  0  0
  146.5534  137.3855  152.3826 N   0  3  2  0  0  0  0  0  0  0  0  0
  145.6146  136.2527  152.2472 C   0  0  0  0  0  0  0  0  0  0  0  0
  146.1038  135.0953  153.1444 C   0  0  0  0  0  0  0  0  0  0  0  0
  146.3439  135.5473  154.6025 C   0  0  0  0  0  0  0  0  0  0  0  0
  147.2390  136.8024  154.6671 C   0  0  0  0  0  0  0  0  0  0  0  0
  146.6372  137.8938  153.7619 C   0  0  1  0  0  0  0  0  0  0  0  0
  153.1693  140.5949  158.5906 H   0  0  0  0  0  0  0  0  0  0  0  0
  150.8577  141.6832  159.4480 H   0  0  0  0  0  0  0  0  0  0  0  0
  149.0022  138.3771  154.5675 H   0  0  0  0  0  0  0  0  0  0  0  0
  146.7303  139.9991  154.1923 H   0  0  0  0  0  0  0  0  0  0  0  0
  146.9531  140.6219  151.9397 H   0  0  0  0  0  0  0  0  0  0  0  0
  148.2873  139.5024  151.6997 H   0  0  0  0  0  0  0  0  0  0  0  0
  145.3234  138.8845  151.5653 H   0  0  0  0  0  0  0  0  0  0  0  0
  146.6072  138.3359  150.4751 H   0  0  0  0  0  0  0  0  0  0  0  0
  144.6078  136.5642  152.5295 H   0  0  0  0  0  0  0  0  0  0  0  0
  145.5749  135.9308  151.2061 H   0  0  0  0  0  0  0  0  0  0  0  0
  145.3861  134.2748  153.1209 H   0  0  0  0  0  0  0  0  0  0  0  0
  147.0355  134.6987  152.7384 H   0  0  0  0  0  0  0  0  0  0  0  0
  145.3847  135.7638  155.0743 H   0  0  0  0  0  0  0  0  0  0  0  0
  146.7931  134.7370  155.1774 H   0  0  0  0  0  0  0  0  0  0  0  0
  147.3139  137.1575  155.6956 H   0  0  0  0  0  0  0  0  0  0  0  0
  148.2505  136.5512  154.3441 H   0  0  0  0  0  0  0  0  0  0  0  0
  145.6171  138.0882  154.1007 H   0  0  0  0  0  0  0  0  0  0  0  0
  147.4728  137.0309  152.1603 H   0  0  0  0  0  0  0  0  0  0  0  0
  1  2  2  0  0  0  0
  2  3  1  0  0  0  0
  2  9  1  0  0  0  0
  3  4  1  0  0  0  0
  4  8  1  0  0  0  0
  4  5  2  0  0  0  0
  5  6  1  0  0  0  0
  6  7  2  0  0  0  0
  6 19  1  0  0  0  0
  7  8  1  0  0  0  0
  7 20  1  0  0  0  0
  9 10  1  0  0  0  0
  9 21  1  0  0  0  0
 10 18  1  0  0  0  0
 10 11  1  0  0  0  0
 10 22  1  0  0  0  0
 11 12  1  0  0  0  0
 11 23  1  0  0  0  0
 11 24  1  0  0  0  0
 12 13  1  0  0  0  0
 12 25  1  0  0  0  0
 12 26  1  0  0  0  0
 13 18  1  0  0  0  0
 13 14  1  0  0  0  0
 13 36  1  0  0  0  0
 14 15  1  0  0  0  0
 14 27  1  0  0  0  0
 14 28  1  0  0  0  0
 15 16  1  0  0  0  0
 15 29  1  0  0  0  0
 15 30  1  0  0  0  0
 16 17  1  0  0  0  0
 16 31  1  0  0  0  0
 16 32  1  0  0  0  0
 17 18  1  0  0  0  0
 17 33  1  0  0  0  0
 17 34  1  0  0  0  0
 18 35  1  0  0  0  0
M  CHG  1   3  -1
M  CHG  1  13   1
M  END
> <s_m_source_file>
AV-unprocessed.smi

> <i_m_source_file_index>
1965

> <i_lp_mmshare_version>
43012

> <i_f3d_flags>
0

> <s_epik_input>
czFbY0hdW2NIXW5jMVtOSF1DKD1PKVtOSF1bQ0BIXShbQ0gyXVtDSDJdMilbQ0BASF0oTjIzKVtDSDJdW0NIMl1bQ0gyXVtDSDJdMw==

> <s_epik_cmdline>
J2VwaWtfcHl0aG9uJywgJy1waCcsICc3LjAnLCAnLXRuJywgJzgnLCAnLW1hJywgJzIwMCcsICctbWV0YWxfYmluZGluZycsICctaW1hZScsICc8aW5maWxlLm1hZT4nLCAnLW9tYWUnLCAnPG91dGZpbGUubWFlPic=

> <r_lp_tautomer_probability>
1

> <r_epik_Ionization_Penalty>
7.4116

> <r_epik_Ionization_Penalty_Charging>
6.13869

> <r_epik_Ionization_Penalty_Neutral>
1.27291

> <r_epik_State_Penalty>
6.13761

> <r_epik_Charging_Adjusted_Penalty>
12.2763

> <i_epik_Tot_Q>
0

> <i_epik_Tot_abs_Q>
2

> <r_epik_Metal_State_Penalty>
2.08142

> <b_epik_Metal_Only>
1

> <s_lp_Force_Field>
OPLS_2005

> <r_lp_Energy>
32.5812

> <b_lp_Chiralities_Consistent>
1

> <s_lp_Variant>
AV-unprocessed.smi:1965-12

> <Gold.Version>
5.8.1

> <Gold.Id.Protein>
6NUR|6NUR_protein|mol2

> <Gold.PLP.Fitness>
34.6461

> <Gold.PLP.PLP>
-23.8844

> <Gold.PLP.part.hbond>
-5.0481

> <Gold.PLP.part.metal>
0.0000

> <Gold.PLP.part.buried>
3.4669

> <Gold.PLP.part.nonpolar>
-23.5492

> <Gold.PLP.part.repulsive>
0.9421

> <Gold.PLP.ligand.clash>
0.0000

> <Gold.PLP.ligand.torsion>
0.7278

> <Gold.PLP.Chemscore.Hbond>
4.0716

> <Gold.PLP.Chemscore.CHOScore>
0.0000

> <Gold.PLP.Chemscore.Metal>
0.0000

> <Gold.Chemscore.Hbonds>
donor molecule, donor type, donor heavy atom, donor atom, acceptor molecule, acceptor atom, score
      L1  H    13    36       P1  7948  2.00
      P1  H  7989  7998       L1     3  0.65
      P1  H  7997  8010       L1     5  0.56
      P1  H  8011  8017       L1     1  0.77

> <Gold.PLP.Chemscore.Internal.Correction>
0.0025

> <Gold.Rescore>
     Score         DG    S(hbond)    S(metal)    S(lipo)     H(rot)  DE(clash)    DE(int)     intcor
     13.18     -15.68       1.91        0.00      54.49       1.00       1.76       0.74       ----

> <Gold.Chemscore.Fitness>
13.1826

> <Gold.Chemscore.DG>
-15.6846

> <Gold.Chemscore.ZeroCoef>
-5.4800

> <Gold.Chemscore.Hbond>
1.9131

> <Gold.Chemscore.Metal>
0.0000

> <Gold.Chemscore.Lipo>
54.4866

> <Gold.Chemscore.Internal_Hbond>
0.0000

> <Gold.Chemscore.DEClash>
1.7601

> <Gold.Chemscore.DEInternal>
0.7419

> <Gold.Chemscore.Rot>
1.0000

> <Gold.Chemscore.Internal.Correction>
   9.000000E+99

> <Gold.Chemscore.Hbonds>
donor molecule, donor type, donor heavy atom, donor atom, acceptor molecule, acceptor atom, score
      L1  H    13    36       P1  7948  1.00
      P1  H  7989  7998       L1     3  0.05
      P1  H  7997  8010       L1     5  0.12
      P1  H  8011  8017       L1     1  0.77

> <Gold.Chemscore.Hbond.Weighted>
-6.3897

> <Gold.Chemscore.Metal.Weighted>
-0.0000

> <Gold.Chemscore.Lipo.Weighted>
-6.3749

> <Gold.Chemscore.Internal_Hbond.Weighted>
0.0000

> <Gold.Chemscore.DEClash.Weighted>
1.7601

> <Gold.Chemscore.DEInternal.Weighted>
0.7419

> <Gold.Chemscore.Rot.Weighted>
2.5600

> <Gold.Chemscore.Internal.Correction.Weighted>
   9.000000E+99

> <Gold.Protein.RotatedTorsions>
[ 6907 6896 6895 6894 ] final   78.64 input  -60.11 | X-H torsion
[ 7974 7965 7964 7962 ] final  -18.59 input  175.53 | X-H torsion
[ 8008 7997 7996 7995 ] final   81.16 input   59.86 | X-H torsion
[ 10167 10162 10161 10158 ] final  124.52 input  -65.29 | X-H torsion
[ 10718 10713 10712 10709 ] final  122.64 input   66.30 | X-H torsion
[ 10763 10752 10751 10750 ] final  117.77 input  -60.55 | X-H torsion
[ 11005 11000 10999 10996 ] final -127.43 input  -57.11 | X-H torsion

> <Gold.Protein.ActiveResidues>
 VAL166  LYS551  ARG553  GLY616  TRP617  ASP618  TYR619  PRO620  LYS621  CYS622 
 ASP623  PHE694  ASN695  SER759  ASP760  ASP761  ALA762  ILE779  LEU786  VAL792 
 PHE793  MET794  SER795  GLU796  ALA797  LYS798  CYS799  TRP800  GLU811  SER814 

> <Gold.Protein.RotatedAtoms>
  152.5167  134.3634  159.9292 H   0  0  0  0  0  0  0  0  0  0  0  0  # atno 6907 bound_to 6896
  151.3587  133.3891  159.2695 H   0  0  0  0  0  0  0  0  0  0  0  0  # atno 6908 bound_to 6896
  150.9669  134.9067  159.7823 H   0  0  0  0  0  0  0  0  0  0  0  0  # atno 6909 bound_to 6896
  146.1884  140.3942  142.8467 H   0  0  0  0  0  0  0  0  0  0  0  0  # atno 7974 bound_to 7965
  155.8933  140.3437  155.5972 H   0  0  0  0  0  0  0  0  0  0  0  0  # atno 8008 bound_to 7997
  155.7585  140.0829  157.2186 H   0  0  0  0  0  0  0  0  0  0  0  0  # atno 8009 bound_to 7997
  154.4035  140.1540  156.2793 H   0  0  0  0  0  0  0  0  0  0  0  0  # atno 8010 bound_to 7997
  139.5737  144.6952  151.3711 H   0  0  0  0  0  0  0  0  0  0  0  0  # atno 10167 bound_to 10162
  157.5727  131.1082  150.8337 H   0  0  0  0  0  0  0  0  0  0  0  0  # atno 10718 bound_to 10713
  153.5574  135.3527  155.2785 H   0  0  0  0  0  0  0  0  0  0  0  0  # atno 10763 bound_to 10752
  154.8699  135.4128  154.2869 H   0  0  0  0  0  0  0  0  0  0  0  0  # atno 10764 bound_to 10752
  153.3607  135.7059  153.6783 H   0  0  0  0  0  0  0  0  0  0  0  0  # atno 10765 bound_to 10752
  140.9600  134.0949  157.3978 H   0  0  0  0  0  0  0  0  0  0  0  0  # atno 11005 bound_to 11000
  144.8441  140.6902  143.6210 LP  0  0  0  0  0  0  0  0  0  0  0  0  # atno 17320 bound_to 7965
  145.3867  139.1625  143.4251 LP  0  0  0  0  0  0  0  0  0  0  0  0  # atno 17321 bound_to 7965
  140.7020  143.7607  150.7419 LP  0  0  0  0  0  0  0  0  0  0  0  0  # atno 17342 bound_to 10162
  140.1121  143.4690  152.2364 LP  0  0  0  0  0  0  0  0  0  0  0  0  # atno 17343 bound_to 10162
  156.8805  130.5177  149.5291 LP  0  0  0  0  0  0  0  0  0  0  0  0  # atno 17370 bound_to 10713
  156.0772  130.5791  150.9495 LP  0  0  0  0  0  0  0  0  0  0  0  0  # atno 17371 bound_to 10713
  139.8875  135.0090  156.6563 LP  0  0  0  0  0  0  0  0  0  0  0  0  # atno 17394 bound_to 11000
  140.7481  133.8920  155.8327 LP  0  0  0  0  0  0  0  0  0  0  0  0  # atno 17395 bound_to 11000

$$$$
