AV-unprocessed.smi:2345|AV-procd|sdf|9362|dock8
  -GOLD-   2272012583D 1   1.00000     0.00000
 Structure written by MMmdl.
 37 38  0  0  0  0  0  0  0  0  1 V2000
  152.1892  139.1353  155.0695 C   0  0  0  0  0  0  0  0  0  0  0  0
  150.7397  139.6007  155.2264 C   0  0  0  0  0  0  0  0  0  0  0  0
  149.6323  138.7086  154.0996 S   0  0  0  0  0  0  0  0  0  0  0  0
  148.0038  139.2414  154.7348 C   0  0  1  0  0  0  0  0  0  0  0  0
  147.9410  140.7696  154.7823 C   0  0  0  0  0  0  0  0  0  0  0  0
  147.5210  141.1813  153.3726 C   0  0  0  0  0  0  0  0  0  0  0  0
  146.5769  140.0730  152.8951 C   0  0  0  0  0  0  0  0  0  0  0  0
  146.8156  138.8605  153.8169 C   0  0  1  0  0  0  0  0  0  0  0  0
  147.0247  137.6385  153.0417 N   0  0  0  0  0  0  0  0  0  0  0  0
  146.0610  136.7865  152.6654 C   0  0  0  0  0  0  0  0  0  0  0  0
  144.8697  136.9513  152.9273 O   0  0  0  0  0  0  0  0  0  0  0  0
  146.5762  135.7352  152.0061 N   0  0  0  0  0  0  0  0  0  0  0  0
  145.9018  134.6049  151.4690 C   0  0  0  0  0  0  0  0  0  0  0  0
  144.6471  134.6656  150.8154 C   0  0  0  0  0  0  0  0  0  0  0  0
  144.0911  133.4729  150.3103 C   0  0  0  0  0  0  0  0  0  0  0  0
  144.6955  132.2699  150.4082 N   0  0  0  0  0  0  0  0  0  0  0  0
  145.8981  132.2183  151.0192 C   0  0  0  0  0  0  0  0  0  0  0  0
  146.5415  133.3503  151.5587 C   0  0  0  0  0  0  0  0  0  0  0  0
  147.7515  133.2290  152.1566 F   0  0  0  0  0  0  0  0  0  0  0  0
  152.8467  139.6758  155.7507 H   0  0  0  0  0  0  0  0  0  0  0  0
  152.5494  139.3026  154.0541 H   0  0  0  0  0  0  0  0  0  0  0  0
  152.2843  138.0714  155.2894 H   0  0  0  0  0  0  0  0  0  0  0  0
  150.4147  139.4444  156.2540 H   0  0  0  0  0  0  0  0  0  0  0  0
  150.6608  140.6694  155.0255 H   0  0  0  0  0  0  0  0  0  0  0  0
  147.8760  138.8287  155.7361 H   0  0  0  0  0  0  0  0  0  0  0  0
  147.1744  141.0798  155.4937 H   0  0  0  0  0  0  0  0  0  0  0  0
  148.8800  141.2291  155.0932 H   0  0  0  0  0  0  0  0  0  0  0  0
  147.0547  142.1665  153.3479 H   0  0  0  0  0  0  0  0  0  0  0  0
  148.3992  141.2174  152.7265 H   0  0  0  0  0  0  0  0  0  0  0  0
  145.5387  140.3978  152.9717 H   0  0  0  0  0  0  0  0  0  0  0  0
  146.7627  139.8438  151.8448 H   0  0  0  0  0  0  0  0  0  0  0  0
  145.9263  138.7494  154.4404 H   0  0  0  0  0  0  0  0  0  0  0  0
  147.9786  137.4173  152.7960 H   0  0  0  0  0  0  0  0  0  0  0  0
  147.5833  135.7030  151.9432 H   0  0  0  0  0  0  0  0  0  0  0  0
  144.1111  135.5926  150.6812 H   0  0  0  0  0  0  0  0  0  0  0  0
  143.1353  133.4873  149.8073 H   0  0  0  0  0  0  0  0  0  0  0  0
  146.3629  131.2453  151.0790 H   0  0  0  0  0  0  0  0  0  0  0  0
  1  2  1  0  0  0  0
  1 20  1  0  0  0  0
  1 21  1  0  0  0  0
  1 22  1  0  0  0  0
  2  3  1  0  0  0  0
  2 23  1  0  0  0  0
  2 24  1  0  0  0  0
  3  4  1  0  0  0  0
  4  8  1  0  0  0  0
  4  5  1  0  0  0  0
  4 25  1  0  0  0  0
  5  6  1  0  0  0  0
  5 26  1  0  0  0  0
  5 27  1  0  0  0  0
  6  7  1  0  0  0  0
  6 28  1  0  0  0  0
  6 29  1  0  0  0  0
  7  8  1  0  0  0  0
  7 30  1  0  0  0  0
  7 31  1  0  0  0  0
  8  9  1  0  0  0  0
  8 32  1  0  0  0  0
  9 10  1  0  0  0  0
  9 33  1  0  0  0  0
 10 11  2  0  0  0  0
 10 12  1  0  0  0  0
 12 13  1  0  0  0  0
 12 34  1  0  0  0  0
 13 18  1  0  0  0  0
 13 14  2  0  0  0  0
 14 15  1  0  0  0  0
 14 35  1  0  0  0  0
 15 16  2  0  0  0  0
 15 36  1  0  0  0  0
 16 17  1  0  0  0  0
 17 18  2  0  0  0  0
 17 37  1  0  0  0  0
 18 19  1  0  0  0  0
M  END
> <s_m_source_file>
AV-unprocessed.smi

> <i_m_source_file_index>
2345

> <i_lp_mmshare_version>
43012

> <i_f3d_flags>
0

> <s_epik_input>
W0NIM11bQ0gyXVNbQ0BASF0xW0NIMl1bQ0gyXVtDSDJdW0NASF0xW05IXUMoPU8pW05IXWMyW2NIXVtjSF1uW2NIXWMyRg==

> <s_epik_cmdline>
J2VwaWtfcHl0aG9uJywgJy1waCcsICc3LjAnLCAnLXRuJywgJzgnLCAnLW1hJywgJzIwMCcsICctbWV0YWxfYmluZGluZycsICctaW1hZScsICc8aW5maWxlLm1hZT4nLCAnLW9tYWUnLCAnPG91dGZpbGUubWFlPic=

> <r_epik_Ionization_Penalty>
0.00333745

> <r_epik_Ionization_Penalty_Charging>
0

> <r_epik_Ionization_Penalty_Neutral>
0.00333745

> <r_epik_State_Penalty>
0.00233401

> <r_epik_Charging_Adjusted_Penalty>
0.00233401

> <i_epik_Tot_Q>
0

> <i_epik_Tot_abs_Q>
0

> <r_epik_Metal_State_Penalty>
-0

> <b_epik_Metal_Only>
0

> <s_lp_Force_Field>
OPLS_2005

> <r_lp_Energy>
24.8038

> <b_lp_Chiralities_Consistent>
1

> <s_lp_Variant>
AV-unprocessed.smi:2345-2

> <Gold.Version>
5.8.1

> <Gold.Id.Protein>
6NUR|6NUR_protein|mol2

> <Gold.PLP.Fitness>
38.5097

> <Gold.PLP.PLP>
-31.0186

> <Gold.PLP.part.hbond>
-1.5846

> <Gold.PLP.part.metal>
0.0000

> <Gold.PLP.part.buried>
-0.5697

> <Gold.PLP.part.nonpolar>
-28.9747

> <Gold.PLP.part.repulsive>
0.4057

> <Gold.PLP.ligand.clash>
0.0000

> <Gold.PLP.ligand.torsion>
0.7304

> <Gold.PLP.Chemscore.Hbond>
1.6280

> <Gold.PLP.Chemscore.CHOScore>
1.3513

> <Gold.PLP.Chemscore.Metal>
0.0000

> <Gold.Chemscore.Hbonds>
donor molecule, donor type, donor heavy atom, donor atom, acceptor molecule, acceptor atom, score
      L1  H     9    33       P1  7948  0.85
      L1  H    12    34       P1  7948  0.78
      L1  C    15    36       P1 10186  1.00
      L1  C    17    37       P1 10747  0.36

> <Gold.PLP.Chemscore.Internal.Correction>
0.0140

> <Gold.Rescore>
     Score         DG    S(hbond)    S(metal)    S(lipo)     H(rot)  DE(clash)    DE(int)     intcor
     16.58     -18.31       1.88        0.00      85.33       1.35       1.02       0.70       ----

> <Gold.Chemscore.Fitness>
16.5804

> <Gold.Chemscore.DG>
-18.3069

> <Gold.Chemscore.ZeroCoef>
-5.4800

> <Gold.Chemscore.Hbond>
1.8843

> <Gold.Chemscore.Metal>
0.0000

> <Gold.Chemscore.Lipo>
85.3258

> <Gold.Chemscore.Internal_Hbond>
0.0000

> <Gold.Chemscore.DEClash>
1.0250

> <Gold.Chemscore.DEInternal>
0.7016

> <Gold.Chemscore.Rot>
1.3475

> <Gold.Chemscore.Internal.Correction>
   9.000000E+99

> <Gold.Chemscore.Hbonds>
donor molecule, donor type, donor heavy atom, donor atom, acceptor molecule, acceptor atom, score
      L1  H     9    33       P1  7948  0.83
      L1  H    12    34       P1  7948  0.76

> <Gold.Chemscore.Hbond.Weighted>
-6.2934

> <Gold.Chemscore.Metal.Weighted>
-0.0000

> <Gold.Chemscore.Lipo.Weighted>
-9.9831

> <Gold.Chemscore.Internal_Hbond.Weighted>
0.0000

> <Gold.Chemscore.DEClash.Weighted>
1.0250

> <Gold.Chemscore.DEInternal.Weighted>
0.7016

> <Gold.Chemscore.Rot.Weighted>
3.4496

> <Gold.Chemscore.Internal.Correction.Weighted>
   9.000000E+99

> <Gold.Protein.RotatedTorsions>
[ 6907 6896 6895 6894 ] final  157.69 input  -60.11 | X-H torsion
[ 7974 7965 7964 7962 ] final   30.82 input  175.53 | X-H torsion
[ 8008 7997 7996 7995 ] final  -33.85 input   59.86 | X-H torsion
[ 10167 10162 10161 10158 ] final  -35.75 input  -65.29 | X-H torsion
[ 10718 10713 10712 10709 ] final   71.41 input   66.30 | X-H torsion
[ 10763 10752 10751 10750 ] final   67.64 input  -60.55 | X-H torsion
[ 11005 11000 10999 10996 ] final -158.34 input  -57.11 | X-H torsion

> <Gold.Protein.ActiveResidues>
 VAL166  LYS551  ARG553  GLY616  TRP617  ASP618  TYR619  PRO620  LYS621  CYS622 
 ASP623  PHE694  ASN695  SER759  ASP760  ASP761  ALA762  ILE779  LEU786  VAL792 
 PHE793  MET794  SER795  GLU796  ALA797  LYS798  CYS799  TRP800  GLU811  SER814 

> <Gold.Protein.RotatedAtoms>
  152.0114  133.3863  159.4221 H   0  0  0  0  0  0  0  0  0  0  0  0  # atno 6907 bound_to 6896
  150.6899  134.3726  159.5008 H   0  0  0  0  0  0  0  0  0  0  0  0  # atno 6908 bound_to 6896
  152.1487  134.9005  160.0600 H   0  0  0  0  0  0  0  0  0  0  0  0  # atno 6909 bound_to 6896
  146.1588  139.6738  142.9048 H   0  0  0  0  0  0  0  0  0  0  0  0  # atno 7974 bound_to 7965
  154.4137  140.1699  156.1955 H   0  0  0  0  0  0  0  0  0  0  0  0  # atno 8008 bound_to 7997
  155.9568  140.3396  155.6432 H   0  0  0  0  0  0  0  0  0  0  0  0  # atno 8009 bound_to 7997
  155.6800  140.0721  157.2479 H   0  0  0  0  0  0  0  0  0  0  0  0  # atno 8010 bound_to 7997
  140.7158  143.3455  151.2265 H   0  0  0  0  0  0  0  0  0  0  0  0  # atno 10167 bound_to 10162
  157.6450  130.9527  150.0786 H   0  0  0  0  0  0  0  0  0  0  0  0  # atno 10718 bound_to 10713
  153.0196  135.5276  154.7011 H   0  0  0  0  0  0  0  0  0  0  0  0  # atno 10763 bound_to 10752
  154.6120  135.2879  155.0424 H   0  0  0  0  0  0  0  0  0  0  0  0  # atno 10764 bound_to 10752
  154.1443  135.6573  153.5001 H   0  0  0  0  0  0  0  0  0  0  0  0  # atno 10765 bound_to 10752
  140.6547  134.4413  157.5235 H   0  0  0  0  0  0  0  0  0  0  0  0  # atno 11005 bound_to 11000
  145.4640  141.0434  143.2736 LP  0  0  0  0  0  0  0  0  0  0  0  0  # atno 17320 bound_to 7965
  144.7999  139.6160  143.7076 LP  0  0  0  0  0  0  0  0  0  0  0  0  # atno 17321 bound_to 7965
  139.6974  143.9590  152.2889 LP  0  0  0  0  0  0  0  0  0  0  0  0  # atno 17342 bound_to 10162
  139.9272  144.6764  150.8400 LP  0  0  0  0  0  0  0  0  0  0  0  0  # atno 17343 bound_to 10162
  156.1769  130.3648  149.9088 LP  0  0  0  0  0  0  0  0  0  0  0  0  # atno 17370 bound_to 10713
  156.7050  130.8948  151.3603 LP  0  0  0  0  0  0  0  0  0  0  0  0  # atno 17371 bound_to 10713
  139.9033  134.8505  156.1805 LP  0  0  0  0  0  0  0  0  0  0  0  0  # atno 17394 bound_to 11000
  141.0510  133.6889  156.1772 LP  0  0  0  0  0  0  0  0  0  0  0  0  # atno 17395 bound_to 11000

$$$$
