AV-unprocessed.smi:2060|AV-procd|sdf|8354|dock4
  -GOLD-   2272011 23D 1   1.00000     0.00000
 Structure written by MMmdl.
 45 46  0  0  0  0  0  0  0  0  1 V2000
  146.7605  142.5358  155.0898 C   0  0  0  0  0  0  0  0  0  0  0  0
  146.5800  141.1759  155.7891 C   0  0  0  0  0  0  0  0  0  0  0  0
  147.2311  139.9530  155.0675 C   0  0  1  0  0  0  0  0  0  0  0  0
  146.7849  138.6921  155.8560 C   0  0  0  0  0  0  0  0  0  0  0  0
  146.6473  139.8700  153.6189 C   0  0  0  0  0  0  0  0  0  0  0  0
  146.6711  138.5254  153.0426 N   0  0  0  0  0  0  0  0  0  0  0  0
  145.6170  137.7055  152.9193 C   0  0  0  0  0  0  0  0  0  0  0  0
  144.4800  137.9990  153.2882 O   0  0  0  0  0  0  0  0  0  0  0  0
  145.9726  136.5447  152.3438 N   0  0  0  0  0  0  0  0  0  0  0  0
  145.1515  135.4358  152.0135 C   0  0  0  0  0  0  0  0  0  0  0  0
  145.4818  134.3761  151.1189 C   0  0  0  0  0  0  0  0  0  0  0  0
  144.3727  133.5796  151.1649 C   0  0  0  0  0  0  0  0  0  0  0  0
  144.0151  132.2988  150.4919 C   0  0  0  0  0  0  0  0  0  0  0  0
  143.4461  134.1053  152.0108 O   0  0  0  0  0  0  0  0  0  0  0  0
  143.9533  135.2934  152.5499 N   0  0  0  0  0  0  0  0  0  0  0  0
  148.7179  140.0629  155.0643 N   0  0  0  0  0  0  0  0  0  0  0  0
  149.4337  138.8523  154.6432 C   0  0  0  0  0  0  0  0  0  0  0  0
  150.9490  139.0888  154.5264 C   0  0  0  0  0  0  0  0  0  0  0  0
  151.4572  139.5630  155.7674 O   0  0  0  0  0  0  0  0  0  0  0  0
  150.8287  140.7683  156.1866 C   0  0  0  0  0  0  0  0  0  0  0  0
  149.3124  140.5452  156.3168 C   0  0  0  0  0  0  0  0  0  0  0  0
  146.2714  143.3252  155.6605 H   0  0  0  0  0  0  0  0  0  0  0  0
  146.3243  142.5408  154.0909 H   0  0  0  0  0  0  0  0  0  0  0  0
  147.8115  142.8077  154.9982 H   0  0  0  0  0  0  0  0  0  0  0  0
  146.9872  141.2736  156.7959 H   0  0  0  0  0  0  0  0  0  0  0  0
  145.5153  141.0010  155.9441 H   0  0  0  0  0  0  0  0  0  0  0  0
  145.7198  138.7090  156.0882 H   0  0  0  0  0  0  0  0  0  0  0  0
  147.3169  138.5989  156.8032 H   0  0  0  0  0  0  0  0  0  0  0  0
  146.9618  137.7754  155.2931 H   0  0  0  0  0  0  0  0  0  0  0  0
  145.6017  140.1760  153.6135 H   0  0  0  0  0  0  0  0  0  0  0  0
  147.1589  140.5620  152.9496 H   0  0  0  0  0  0  0  0  0  0  0  0
  147.5658  138.1960  152.7104 H   0  0  0  0  0  0  0  0  0  0  0  0
  146.9483  136.4430  152.1063 H   0  0  0  0  0  0  0  0  0  0  0  0
  146.3755  134.2100  150.5371 H   0  0  0  0  0  0  0  0  0  0  0  0
  144.7320  132.0582  149.7067 H   0  0  0  0  0  0  0  0  0  0  0  0
  143.0258  132.3618  150.0384 H   0  0  0  0  0  0  0  0  0  0  0  0
  144.0085  131.4766  151.2075 H   0  0  0  0  0  0  0  0  0  0  0  0
  149.2635  138.0455  155.3559 H   0  0  0  0  0  0  0  0  0  0  0  0
  149.0756  138.5017  153.6772 H   0  0  0  0  0  0  0  0  0  0  0  0
  151.4578  138.1607  154.2655 H   0  0  0  0  0  0  0  0  0  0  0  0
  151.1677  139.8074  153.7351 H   0  0  0  0  0  0  0  0  0  0  0  0
  151.2496  141.0747  157.1441 H   0  0  0  0  0  0  0  0  0  0  0  0
  151.0415  141.5663  155.4735 H   0  0  0  0  0  0  0  0  0  0  0  0
  148.8647  141.4891  156.6233 H   0  0  0  0  0  0  0  0  0  0  0  0
  149.1329  139.8326  157.1215 H   0  0  0  0  0  0  0  0  0  0  0  0
  1  2  1  0  0  0  0
  1 22  1  0  0  0  0
  1 23  1  0  0  0  0
  1 24  1  0  0  0  0
  2  3  1  0  0  0  0
  2 25  1  0  0  0  0
  2 26  1  0  0  0  0
  3  4  1  0  0  0  0
  3  5  1  0  0  0  0
  3 16  1  0  0  0  0
  4 27  1  0  0  0  0
  4 28  1  0  0  0  0
  4 29  1  0  0  0  0
  5  6  1  0  0  0  0
  5 30  1  0  0  0  0
  5 31  1  0  0  0  0
  6  7  1  0  0  0  0
  6 32  1  0  0  0  0
  7  8  2  0  0  0  0
  7  9  1  0  0  0  0
  9 10  1  0  0  0  0
  9 33  1  0  0  0  0
 10 15  2  0  0  0  0
 10 11  1  0  0  0  0
 11 12  2  0  0  0  0
 11 34  1  0  0  0  0
 12 13  1  0  0  0  0
 12 14  1  0  0  0  0
 13 35  1  0  0  0  0
 13 36  1  0  0  0  0
 13 37  1  0  0  0  0
 14 15  1  0  0  0  0
 16 21  1  0  0  0  0
 16 17  1  0  0  0  0
 17 18  1  0  0  0  0
 17 38  1  0  0  0  0
 17 39  1  0  0  0  0
 18 19  1  0  0  0  0
 18 40  1  0  0  0  0
 18 41  1  0  0  0  0
 19 20  1  0  0  0  0
 20 21  1  0  0  0  0
 20 42  1  0  0  0  0
 20 43  1  0  0  0  0
 21 44  1  0  0  0  0
 21 45  1  0  0  0  0
M  END
> <s_m_source_file>
AV-unprocessed.smi

> <i_m_source_file_index>
2060

> <i_lp_mmshare_version>
43012

> <i_f3d_flags>
0

> <s_epik_input>
W0NIMl0xW0NIMl1PW0NIMl1bQ0gyXU4xW0NAQF0oW0NIM10pKFtDSDJdW0NIM10pW0NIMl1bTkhdQyg9TylbTkhdYzJbY0hdYyhbQ0gzXSlvbjI=

> <s_epik_cmdline>
J2VwaWtfcHl0aG9uJywgJy1waCcsICc3LjAnLCAnLXRuJywgJzgnLCAnLW1hJywgJzIwMCcsICctbWV0YWxfYmluZGluZycsICctaW1hZScsICc8aW5maWxlLm1hZT4nLCAnLW9tYWUnLCAnPG91dGZpbGUubWFlPic=

> <r_epik_Ionization_Penalty>
0.289127

> <r_epik_Ionization_Penalty_Charging>
0

> <r_epik_Ionization_Penalty_Neutral>
0.289127

> <r_epik_State_Penalty>
0.282056

> <r_epik_Charging_Adjusted_Penalty>
0.282056

> <i_epik_Tot_Q>
0

> <i_epik_Tot_abs_Q>
0

> <r_epik_Metal_State_Penalty>
0.284526

> <b_epik_Metal_Only>
0

> <s_lp_Force_Field>
OPLS_2005

> <r_lp_Energy>
41.8264

> <b_lp_Chiralities_Consistent>
1

> <s_lp_Variant>
AV-unprocessed.smi:2060-1

> <Gold.Version>
5.8.1

> <Gold.Id.Protein>
6NUR|6NUR_protein|mol2

> <Gold.PLP.Fitness>
36.0480

> <Gold.PLP.PLP>
-31.6732

> <Gold.PLP.part.hbond>
-2.0000

> <Gold.PLP.part.metal>
0.0000

> <Gold.PLP.part.buried>
-7.3145

> <Gold.PLP.part.nonpolar>
-25.5464

> <Gold.PLP.part.repulsive>
2.9046

> <Gold.PLP.ligand.clash>
0.0000

> <Gold.PLP.ligand.torsion>
0.8675

> <Gold.PLP.Chemscore.Hbond>
1.9920

> <Gold.PLP.Chemscore.CHOScore>
0.0000

> <Gold.PLP.Chemscore.Metal>
0.0000

> <Gold.Chemscore.Hbonds>
donor molecule, donor type, donor heavy atom, donor atom, acceptor molecule, acceptor atom, score
      L1  H     9    33       P1  7948  1.00

> <Gold.PLP.Chemscore.Internal.Correction>
0.1339

> <Gold.Rescore>
     Score         DG    S(hbond)    S(metal)    S(lipo)     H(rot)  DE(clash)    DE(int)     intcor
     13.66     -16.02       1.96        0.00      71.78       1.71       0.23       2.14       ----

> <Gold.Chemscore.Fitness>
13.6580

> <Gold.Chemscore.DG>
-16.0236

> <Gold.Chemscore.ZeroCoef>
-5.4800

> <Gold.Chemscore.Hbond>
1.9564

> <Gold.Chemscore.Metal>
0.0000

> <Gold.Chemscore.Lipo>
71.7754

> <Gold.Chemscore.Internal_Hbond>
0.0000

> <Gold.Chemscore.DEClash>
0.2265

> <Gold.Chemscore.DEInternal>
2.1390

> <Gold.Chemscore.Rot>
1.7143

> <Gold.Chemscore.Internal.Correction>
   9.000000E+99

> <Gold.Chemscore.Hbonds>
donor molecule, donor type, donor heavy atom, donor atom, acceptor molecule, acceptor atom, score
      L1  H     9    33       P1  7948  0.95

> <Gold.Chemscore.Hbond.Weighted>
-6.5344

> <Gold.Chemscore.Metal.Weighted>
-0.0000

> <Gold.Chemscore.Lipo.Weighted>
-8.3977

> <Gold.Chemscore.Internal_Hbond.Weighted>
0.0000

> <Gold.Chemscore.DEClash.Weighted>
0.2265

> <Gold.Chemscore.DEInternal.Weighted>
2.1390

> <Gold.Chemscore.Rot.Weighted>
4.3885

> <Gold.Chemscore.Internal.Correction.Weighted>
   9.000000E+99

> <Gold.Protein.RotatedTorsions>
[ 6907 6896 6895 6894 ] final  -74.13 input  -60.11 | X-H torsion
[ 7974 7965 7964 7962 ] final  114.79 input  175.53 | X-H torsion
[ 8008 7997 7996 7995 ] final  143.77 input   59.86 | X-H torsion
[ 10167 10162 10161 10158 ] final  125.64 input  -65.29 | X-H torsion
[ 10718 10713 10712 10709 ] final   36.18 input   66.30 | X-H torsion
[ 10763 10752 10751 10750 ] final  157.48 input  -60.55 | X-H torsion
[ 11005 11000 10999 10996 ] final  -88.14 input  -57.11 | X-H torsion

> <Gold.Protein.ActiveResidues>
 VAL166  LYS551  ARG553  GLY616  TRP617  ASP618  TYR619  PRO620  LYS621  CYS622 
 ASP623  PHE694  ASN695  SER759  ASP760  ASP761  ALA762  ILE779  LEU786  VAL792 
 PHE793  MET794  SER795  GLU796  ALA797  LYS798  CYS799  TRP800  GLU811  SER814 

> <Gold.Protein.RotatedAtoms>
  150.7104  134.4915  159.5517 H   0  0  0  0  0  0  0  0  0  0  0  0  # atno 6907 bound_to 6896
  152.2531  134.8109  160.0452 H   0  0  0  0  0  0  0  0  0  0  0  0  # atno 6908 bound_to 6896
  151.8849  133.3468  159.3815 H   0  0  0  0  0  0  0  0  0  0  0  0  # atno 6909 bound_to 6896
  145.2000  139.2957  143.4323 H   0  0  0  0  0  0  0  0  0  0  0  0  # atno 7974 bound_to 7965
  156.2923  140.2253  156.4944 H   0  0  0  0  0  0  0  0  0  0  0  0  # atno 8008 bound_to 7997
  154.7743  140.0464  157.1098 H   0  0  0  0  0  0  0  0  0  0  0  0  # atno 8009 bound_to 7997
  154.9836  140.3081  155.4939 H   0  0  0  0  0  0  0  0  0  0  0  0  # atno 8010 bound_to 7997
  139.5674  144.6919  151.3872 H   0  0  0  0  0  0  0  0  0  0  0  0  # atno 10167 bound_to 10162
  157.3317  130.7501  149.6852 H   0  0  0  0  0  0  0  0  0  0  0  0  # atno 10718 bound_to 10713
  154.2009  135.2790  155.2991 H   0  0  0  0  0  0  0  0  0  0  0  0  # atno 10763 bound_to 10752
  154.5855  135.5576  153.7230 H   0  0  0  0  0  0  0  0  0  0  0  0  # atno 10764 bound_to 10752
  153.0088  135.6355  154.2147 H   0  0  0  0  0  0  0  0  0  0  0  0  # atno 10765 bound_to 10752
  141.1606  133.7552  156.9409 H   0  0  0  0  0  0  0  0  0  0  0  0  # atno 11005 bound_to 11000
  146.3419  140.2241  142.8592 LP  0  0  0  0  0  0  0  0  0  0  0  0  # atno 17320 bound_to 7965
  144.9957  140.8587  143.5312 LP  0  0  0  0  0  0  0  0  0  0  0  0  # atno 17321 bound_to 7965
  140.6958  143.7752  150.7324 LP  0  0  0  0  0  0  0  0  0  0  0  0  # atno 17342 bound_to 10162
  140.1248  143.4579  152.2291 LP  0  0  0  0  0  0  0  0  0  0  0  0  # atno 17343 bound_to 10162
  155.9696  130.4193  150.4370 LP  0  0  0  0  0  0  0  0  0  0  0  0  # atno 17370 bound_to 10713
  157.2403  131.0524  151.2441 LP  0  0  0  0  0  0  0  0  0  0  0  0  # atno 17371 bound_to 10713
  140.1322  134.9348  157.2353 LP  0  0  0  0  0  0  0  0  0  0  0  0  # atno 17394 bound_to 11000
  140.2938  134.3209  155.7308 LP  0  0  0  0  0  0  0  0  0  0  0  0  # atno 17395 bound_to 11000

$$$$
