AV-unprocessed.smi:229|AV-procd|sdf|1754|dock2
  -GOLD-   2262020273D 1   1.00000     0.00000
 Structure written by MMmdl.
 58 62  0  0  0  0  0  0  0  0  1 V2000
  143.9275  134.3311  158.2236 C   0  0  0  0  0  0  0  0  0  0  0  0
  144.8929  135.4942  157.9626 C   0  0  0  0  0  0  0  0  0  0  0  0
  146.2342  135.3326  158.6931 C   0  0  1  0  0  0  0  0  0  0  0  0
  147.1729  136.5231  158.4377 C   0  0  0  0  0  0  0  0  0  0  0  0
  148.3841  136.3674  159.2297 N   0  0  0  0  0  0  0  0  0  0  0  0
  149.3850  137.2249  158.9397 C   0  0  0  0  0  0  0  0  0  0  0  0
  150.6080  136.9313  159.4449 N   0  0  0  0  0  0  0  0  0  0  0  0
  151.6437  137.7397  159.1998 C   0  0  0  0  0  0  0  0  0  0  0  0
  151.6707  138.8717  158.4930 N   0  0  0  0  0  0  0  0  0  0  0  0
  150.4377  139.1751  157.9942 C   0  0  0  0  0  0  0  0  0  0  0  0
  149.2475  138.4140  158.1683 C   0  0  0  0  0  0  0  0  0  0  0  0
  148.1870  139.0411  157.5243 N   0  0  0  0  0  0  0  0  0  0  0  0
  148.7212  140.1074  156.9942 C   0  0  0  0  0  0  0  0  0  0  0  0
  150.0676  140.2667  157.2285 N   0  0  0  0  0  0  0  0  0  0  0  0
  150.9049  141.3597  156.7662 C   0  0  0  0  0  0  0  0  0  0  0  0
  150.6173  142.6760  157.5148 C   0  0  1  0  0  0  0  0  0  0  0  0
  149.7017  142.4642  158.5737 O   0  0  0  0  0  0  0  0  0  0  0  0
  151.8953  143.3640  158.0382 C   0  0  1  0  0  0  0  0  0  0  0  0
  151.6969  144.7653  158.6415 C   0  0  0  0  0  0  0  0  0  0  0  0
  152.1301  144.5962  160.0853 C   0  0  0  0  0  0  0  0  0  0  0  0
  153.1185  143.4413  159.9958 C   0  0  0  0  0  0  0  0  0  0  0  0
  152.5161  142.5735  159.0492 O   0  0  0  0  0  0  0  0  0  0  0  0
  148.1101  136.2619  160.6548 C   0  0  0  0  0  0  0  0  0  0  0  0
  147.1296  135.1019  160.9338 C   0  0  1  0  0  0  0  0  0  0  0  0
  147.7536  133.7133  160.8373 C   0  0  0  0  0  0  0  0  0  0  0  0
  146.8162  132.8841  161.7015 C   0  0  0  0  0  0  0  0  0  0  0  0
  146.5179  133.7376  162.7956 O   0  0  0  0  0  0  0  0  0  0  0  0
  146.6231  135.0995  162.3850 C   0  0  0  0  0  0  0  0  0  0  0  0
  145.9740  135.2356  160.0955 O   0  0  0  0  0  0  0  0  0  0  0  0
  142.9959  134.4706  157.6747 H   0  0  0  0  0  0  0  0  0  0  0  0
  143.6799  134.2512  159.2825 H   0  0  0  0  0  0  0  0  0  0  0  0
  144.3600  133.3813  157.9079 H   0  0  0  0  0  0  0  0  0  0  0  0
  145.0732  135.5648  156.8893 H   0  0  0  0  0  0  0  0  0  0  0  0
  144.4227  136.4329  158.2576 H   0  0  0  0  0  0  0  0  0  0  0  0
  146.7094  134.4205  158.3335 H   0  0  0  0  0  0  0  0  0  0  0  0
  147.4269  136.5852  157.3786 H   0  0  0  0  0  0  0  0  0  0  0  0
  146.6667  137.4503  158.7062 H   0  0  0  0  0  0  0  0  0  0  0  0
  152.5859  137.4363  159.6319 H   0  0  0  0  0  0  0  0  0  0  0  0
  148.1434  140.8150  156.4173 H   0  0  0  0  0  0  0  0  0  0  0  0
  151.9502  141.0709  156.8820 H   0  0  0  0  0  0  0  0  0  0  0  0
  150.7356  141.4903  155.6968 H   0  0  0  0  0  0  0  0  0  0  0  0
  150.1310  143.3640  156.8221 H   0  0  0  0  0  0  0  0  0  0  0  0
  148.9510  142.0021  158.2338 H   0  0  0  0  0  0  0  0  0  0  0  0
  152.6078  143.4437  157.2155 H   0  0  0  0  0  0  0  0  0  0  0  0
  152.3500  145.4791  158.1378 H   0  0  0  0  0  0  0  0  0  0  0  0
  150.6768  145.1409  158.5580 H   0  0  0  0  0  0  0  0  0  0  0  0
  152.5653  145.5005  160.5112 H   0  0  0  0  0  0  0  0  0  0  0  0
  151.2761  144.3056  160.6985 H   0  0  0  0  0  0  0  0  0  0  0  0
  154.0834  143.7822  159.6172 H   0  0  0  0  0  0  0  0  0  0  0  0
  153.2767  142.9448  160.9533 H   0  0  0  0  0  0  0  0  0  0  0  0
  149.0384  136.1197  161.2102 H   0  0  0  0  0  0  0  0  0  0  0  0
  147.6760  137.2021  160.9987 H   0  0  0  0  0  0  0  0  0  0  0  0
  147.8566  133.3228  159.8265 H   0  0  0  0  0  0  0  0  0  0  0  0
  148.7478  133.7176  161.2864 H   0  0  0  0  0  0  0  0  0  0  0  0
  145.8962  132.6548  161.1620 H   0  0  0  0  0  0  0  0  0  0  0  0
  147.2633  131.9470  162.0329 H   0  0  0  0  0  0  0  0  0  0  0  0
  147.3350  135.5884  163.0512 H   0  0  0  0  0  0  0  0  0  0  0  0
  145.6682  135.6159  162.4907 H   0  0  0  0  0  0  0  0  0  0  0  0
  1  2  1  0  0  0  0
  1 30  1  0  0  0  0
  1 31  1  0  0  0  0
  1 32  1  0  0  0  0
  2  3  1  0  0  0  0
  2 33  1  0  0  0  0
  2 34  1  0  0  0  0
  3 29  1  0  0  0  0
  3  4  1  0  0  0  0
  3 35  1  0  0  0  0
  4  5  1  0  0  0  0
  4 36  1  0  0  0  0
  4 37  1  0  0  0  0
  5  6  1  0  0  0  0
  5 23  1  0  0  0  0
  6 11  1  0  0  0  0
  6  7  2  0  0  0  0
  7  8  1  0  0  0  0
  8  9  2  0  0  0  0
  8 38  1  0  0  0  0
  9 10  1  0  0  0  0
 10 14  1  0  0  0  0
 10 11  2  0  0  0  0
 11 12  1  0  0  0  0
 12 13  2  0  0  0  0
 13 14  1  0  0  0  0
 13 39  1  0  0  0  0
 14 15  1  0  0  0  0
 15 16  1  0  0  0  0
 15 40  1  0  0  0  0
 15 41  1  0  0  0  0
 16 17  1  0  0  0  0
 16 18  1  0  0  0  0
 16 42  1  0  0  0  0
 17 43  1  0  0  0  0
 18 22  1  0  0  0  0
 18 19  1  0  0  0  0
 18 44  1  0  0  0  0
 19 20  1  0  0  0  0
 19 45  1  0  0  0  0
 19 46  1  0  0  0  0
 20 21  1  0  0  0  0
 20 47  1  0  0  0  0
 20 48  1  0  0  0  0
 21 22  1  0  0  0  0
 21 49  1  0  0  0  0
 21 50  1  0  0  0  0
 23 24  1  0  0  0  0
 23 51  1  0  0  0  0
 23 52  1  0  0  0  0
 24 28  1  0  0  0  0
 24 25  1  0  0  0  0
 24 29  1  0  0  0  0
 25 26  1  0  0  0  0
 25 53  1  0  0  0  0
 25 54  1  0  0  0  0
 26 27  1  0  0  0  0
 26 55  1  0  0  0  0
 26 56  1  0  0  0  0
 27 28  1  0  0  0  0
 28 57  1  0  0  0  0
 28 58  1  0  0  0  0
M  END
> <s_m_source_file>
AV-unprocessed.smi

> <i_m_source_file_index>
229

> <i_lp_mmshare_version>
43012

> <i_f3d_flags>
0

> <s_epik_input>
W0NIMl0xT1tDSDJdW0NIMl1bQ0BdMTJbQ0gyXU4oW0NIMl1bQ0BIXShPMilbQ0gyXVtDSDNdKWMobltjSF1uMyljKGMzNCluW2NIXW40W0NIMl1bQ0BIXShbT0hdKVtDQEBIXTVbQ0gyXVtDSDJdW0NIMl1PNQ==

> <s_epik_cmdline>
J2VwaWtfcHl0aG9uJywgJy1waCcsICc3LjAnLCAnLXRuJywgJzgnLCAnLW1hJywgJzIwMCcsICctbWV0YWxfYmluZGluZycsICctaW1hZScsICc8aW5maWxlLm1hZT4nLCAnLW9tYWUnLCAnPG91dGZpbGUubWFlPic=

> <r_lp_tautomer_probability>
1

> <r_epik_Ionization_Penalty>
0.00318402

> <r_epik_Ionization_Penalty_Charging>
0

> <r_epik_Ionization_Penalty_Neutral>
0.00318402

> <r_epik_State_Penalty>
0.00215642

> <r_epik_Charging_Adjusted_Penalty>
0.00215642

> <i_epik_Tot_Q>
0

> <i_epik_Tot_abs_Q>
0

> <r_epik_Metal_State_Penalty>
-0

> <b_epik_Metal_Only>
0

> <s_lp_Force_Field>
OPLS_2005

> <r_lp_Energy>
59.0026

> <b_lp_Chiralities_Consistent>
1

> <s_lp_Variant>
AV-unprocessed.smi:229-8

> <Gold.Version>
5.8.1

> <Gold.Id.Protein>
6NUR|6NUR_protein|mol2

> <Gold.PLP.Fitness>
45.3893

> <Gold.PLP.PLP>
-44.2993

> <Gold.PLP.part.hbond>
-2.0000

> <Gold.PLP.part.metal>
0.0000

> <Gold.PLP.part.buried>
-8.3010

> <Gold.PLP.part.nonpolar>
-34.7864

> <Gold.PLP.part.repulsive>
0.0193

> <Gold.PLP.ligand.clash>
0.0000

> <Gold.PLP.ligand.torsion>
1.0503

> <Gold.PLP.Chemscore.Hbond>
1.0000

> <Gold.PLP.Chemscore.CHOScore>
0.0000

> <Gold.PLP.Chemscore.Metal>
0.0000

> <Gold.Chemscore.Hbonds>
donor molecule, donor type, donor heavy atom, donor atom, acceptor molecule, acceptor atom, score
      P1  H  6896  6909       L1     7  1.00

> <Gold.PLP.Chemscore.Internal.Correction>
0.1907

> <Gold.Rescore>
     Score         DG    S(hbond)    S(metal)    S(lipo)     H(rot)  DE(clash)    DE(int)     intcor
     12.03     -14.46       0.85        0.00     106.25       2.46       0.22       2.20       ----

> <Gold.Chemscore.Fitness>
12.0322

> <Gold.Chemscore.DG>
-14.4560

> <Gold.Chemscore.ZeroCoef>
-5.4800

> <Gold.Chemscore.Hbond>
0.8502

> <Gold.Chemscore.Metal>
0.0000

> <Gold.Chemscore.Lipo>
106.2538

> <Gold.Chemscore.Internal_Hbond>
0.0000

> <Gold.Chemscore.DEClash>
0.2230

> <Gold.Chemscore.DEInternal>
2.2009

> <Gold.Chemscore.Rot>
2.4591

> <Gold.Chemscore.Internal.Correction>
   9.000000E+99

> <Gold.Chemscore.Hbonds>
donor molecule, donor type, donor heavy atom, donor atom, acceptor molecule, acceptor atom, score
      P1  H  6896  6909       L1     7  0.87

> <Gold.Chemscore.Hbond.Weighted>
-2.8397

> <Gold.Chemscore.Metal.Weighted>
-0.0000

> <Gold.Chemscore.Lipo.Weighted>
-12.4317

> <Gold.Chemscore.Internal_Hbond.Weighted>
0.0000

> <Gold.Chemscore.DEClash.Weighted>
0.2230

> <Gold.Chemscore.DEInternal.Weighted>
2.2009

> <Gold.Chemscore.Rot.Weighted>
6.2953

> <Gold.Chemscore.Internal.Correction.Weighted>
   9.000000E+99

> <Gold.Protein.RotatedTorsions>
[ 6907 6896 6895 6894 ] final   88.49 input  -60.11 | X-H torsion
[ 7974 7965 7964 7962 ] final  135.06 input  175.53 | X-H torsion
[ 8008 7997 7996 7995 ] final  -52.00 input   59.86 | X-H torsion
[ 10167 10162 10161 10158 ] final  145.09 input  -65.29 | X-H torsion
[ 10718 10713 10712 10709 ] final  132.78 input   66.30 | X-H torsion
[ 10763 10752 10751 10750 ] final   73.24 input  -60.55 | X-H torsion
[ 11005 11000 10999 10996 ] final -106.97 input  -57.11 | X-H torsion

> <Gold.Protein.ActiveResidues>
 VAL166  LYS551  ARG553  GLY616  TRP617  ASP618  TYR619  PRO620  LYS621  CYS622 
 ASP623  PHE694  ASN695  SER759  ASP760  ASP761  ALA762  ILE779  LEU786  VAL792 
 PHE793  MET794  SER795  GLU796  ALA797  LYS798  CYS799  TRP800  GLU811  SER814 

> <Gold.Protein.RotatedAtoms>
  152.5425  134.2113  159.8750 H   0  0  0  0  0  0  0  0  0  0  0  0  # atno 6907 bound_to 6896
  151.2095  133.4557  159.2605 H   0  0  0  0  0  0  0  0  0  0  0  0  # atno 6908 bound_to 6896
  151.0910  134.9929  159.8458 H   0  0  0  0  0  0  0  0  0  0  0  0  # atno 6909 bound_to 6896
  144.9701  139.4615  143.5437 H   0  0  0  0  0  0  0  0  0  0  0  0  # atno 7974 bound_to 7965
  154.4096  140.1234  156.4920 H   0  0  0  0  0  0  0  0  0  0  0  0  # atno 8008 bound_to 7997
  155.6980  140.3495  155.4902 H   0  0  0  0  0  0  0  0  0  0  0  0  # atno 8009 bound_to 7997
  155.9410  140.1087  157.1046 H   0  0  0  0  0  0  0  0  0  0  0  0  # atno 8010 bound_to 7997
  139.4933  144.5926  151.6649 H   0  0  0  0  0  0  0  0  0  0  0  0  # atno 10167 bound_to 10162
  157.4837  131.1087  150.9648 H   0  0  0  0  0  0  0  0  0  0  0  0  # atno 10718 bound_to 10713
  153.0509  135.5070  154.7864 H   0  0  0  0  0  0  0  0  0  0  0  0  # atno 10763 bound_to 10752
  154.6727  135.2955  154.9722 H   0  0  0  0  0  0  0  0  0  0  0  0  # atno 10764 bound_to 10752
  154.0535  135.6700  153.4856 H   0  0  0  0  0  0  0  0  0  0  0  0  # atno 10765 bound_to 10752
  141.0978  133.8940  157.1920 H   0  0  0  0  0  0  0  0  0  0  0  0  # atno 11005 bound_to 11000
  146.3379  139.8908  142.8809 LP  0  0  0  0  0  0  0  0  0  0  0  0  # atno 17320 bound_to 7965
  145.2571  141.0064  143.3847 LP  0  0  0  0  0  0  0  0  0  0  0  0  # atno 17321 bound_to 7965
  140.5557  144.0352  150.6146 LP  0  0  0  0  0  0  0  0  0  0  0  0  # atno 17342 bound_to 10162
  140.3421  143.3013  152.0577 LP  0  0  0  0  0  0  0  0  0  0  0  0  # atno 17343 bound_to 10162
  157.0372  130.5735  149.5351 LP  0  0  0  0  0  0  0  0  0  0  0  0  # atno 17370 bound_to 10713
  156.0135  130.5228  150.8064 LP  0  0  0  0  0  0  0  0  0  0  0  0  # atno 17371 bound_to 10713
  139.9820  135.0095  156.9771 LP  0  0  0  0  0  0  0  0  0  0  0  0  # atno 17394 bound_to 11000
  140.5097  134.1014  155.7268 LP  0  0  0  0  0  0  0  0  0  0  0  0  # atno 17395 bound_to 11000

$$$$
