AV-unprocessed.smi:2310|AV-procd|sdf|9256|dock1
  -GOLD-   2272012473D 1   1.00000     0.00000
 Structure written by MMmdl.
 45 46  0  0  0  0  0  0  0  0  1 V2000
  145.6495  134.8597  151.7349 C   0  0  0  0  0  0  0  0  0  0  0  0
  145.4712  136.2290  151.0633 C   0  0  0  0  0  0  0  0  0  0  0  0
  145.4727  137.4111  152.0508 C   0  0  1  0  0  0  0  0  0  0  0  0
  144.6009  137.1111  153.2800 C   0  0  0  0  0  0  0  0  0  0  0  0
  143.1694  137.3682  153.0551 C   0  0  0  0  0  0  0  0  0  0  0  0
  142.0440  137.5693  152.8782 N   0  0  0  0  0  0  0  0  0  0  0  0
  146.8387  137.7138  152.4809 N   0  0  0  0  0  0  0  0  0  0  0  0
  147.1962  138.6834  153.3361 C   0  0  0  0  0  0  0  0  0  0  0  0
  146.3976  139.4618  153.8565 O   0  0  0  0  0  0  0  0  0  0  0  0
  148.5275  138.6979  153.5221 N   0  0  0  0  0  0  0  0  0  0  0  0
  149.2976  139.5679  154.3447 C   0  0  0  0  0  0  0  0  0  0  0  0
  148.8279  140.8349  154.7681 C   0  0  0  0  0  0  0  0  0  0  0  0
  149.6395  141.6281  155.5995 C   0  0  0  0  0  0  0  0  0  0  0  0
  150.8950  141.1306  155.9980 C   0  0  0  0  0  0  0  0  0  0  0  0
  151.7034  141.9205  156.8295 N   0  0  0  0  0  0  0  0  0  0  0  0
  151.3623  143.3330  156.8724 C   0  0  0  0  0  0  0  0  0  0  0  0
  152.0945  143.8913  158.0950 C   0  0  0  0  0  0  0  0  0  0  0  0
  152.3507  142.6724  158.9898 C   0  0  0  0  0  0  0  0  0  0  0  0
  151.7719  141.4854  158.2147 C   0  0  0  0  0  0  0  0  0  0  0  0
  151.3479  139.9152  155.6118 N   0  0  0  0  0  0  0  0  0  0  0  0
  150.5711  139.1521  154.8118 C   0  0  0  0  0  0  0  0  0  0  0  0
  151.1848  137.8086  154.4503 C   0  0  0  0  0  0  0  0  0  0  0  0
  145.6957  134.0662  150.9888 H   0  0  0  0  0  0  0  0  0  0  0  0
  144.8227  134.6307  152.4074 H   0  0  0  0  0  0  0  0  0  0  0  0
  146.5723  134.8244  152.3146 H   0  0  0  0  0  0  0  0  0  0  0  0
  146.2777  136.3678  150.3423 H   0  0  0  0  0  0  0  0  0  0  0  0
  144.5463  136.2310  150.4851 H   0  0  0  0  0  0  0  0  0  0  0  0
  145.0331  138.2711  151.5423 H   0  0  0  0  0  0  0  0  0  0  0  0
  144.6979  136.0628  153.5636 H   0  0  0  0  0  0  0  0  0  0  0  0
  144.9220  137.7055  154.1359 H   0  0  0  0  0  0  0  0  0  0  0  0
  147.5699  137.1317  152.0993 H   0  0  0  0  0  0  0  0  0  0  0  0
  149.0616  138.0568  152.9541 H   0  0  0  0  0  0  0  0  0  0  0  0
  147.8558  141.2079  154.4853 H   0  0  0  0  0  0  0  0  0  0  0  0
  149.2978  142.5982  155.9298 H   0  0  0  0  0  0  0  0  0  0  0  0
  151.6673  143.8387  155.9559 H   0  0  0  0  0  0  0  0  0  0  0  0
  150.2857  143.4663  156.9893 H   0  0  0  0  0  0  0  0  0  0  0  0
  153.0437  144.3376  157.7959 H   0  0  0  0  0  0  0  0  0  0  0  0
  151.5088  144.6615  158.5977 H   0  0  0  0  0  0  0  0  0  0  0  0
  153.4228  142.5416  159.1415 H   0  0  0  0  0  0  0  0  0  0  0  0
  151.8864  142.7735  159.9711 H   0  0  0  0  0  0  0  0  0  0  0  0
  150.7767  141.2423  158.5898 H   0  0  0  0  0  0  0  0  0  0  0  0
  152.3959  140.5969  158.3167 H   0  0  0  0  0  0  0  0  0  0  0  0
  150.5764  137.2232  153.7625 H   0  0  0  0  0  0  0  0  0  0  0  0
  151.3340  137.2139  155.3518 H   0  0  0  0  0  0  0  0  0  0  0  0
  152.1579  137.9586  153.9811 H   0  0  0  0  0  0  0  0  0  0  0  0
  1  2  1  0  0  0  0
  1 23  1  0  0  0  0
  1 24  1  0  0  0  0
  1 25  1  0  0  0  0
  2  3  1  0  0  0  0
  2 26  1  0  0  0  0
  2 27  1  0  0  0  0
  3  4  1  0  0  0  0
  3  7  1  0  0  0  0
  3 28  1  0  0  0  0
  4  5  1  0  0  0  0
  4 29  1  0  0  0  0
  4 30  1  0  0  0  0
  5  6  3  0  0  0  0
  7  8  1  0  0  0  0
  7 31  1  0  0  0  0
  8  9  2  0  0  0  0
  8 10  1  0  0  0  0
 10 11  1  0  0  0  0
 10 32  1  0  0  0  0
 11 21  1  0  0  0  0
 11 12  2  0  0  0  0
 12 13  1  0  0  0  0
 12 33  1  0  0  0  0
 13 14  2  0  0  0  0
 13 34  1  0  0  0  0
 14 15  1  0  0  0  0
 14 20  1  0  0  0  0
 15 19  1  0  0  0  0
 15 16  1  0  0  0  0
 16 17  1  0  0  0  0
 16 35  1  0  0  0  0
 16 36  1  0  0  0  0
 17 18  1  0  0  0  0
 17 37  1  0  0  0  0
 17 38  1  0  0  0  0
 18 19  1  0  0  0  0
 18 39  1  0  0  0  0
 18 40  1  0  0  0  0
 19 41  1  0  0  0  0
 19 42  1  0  0  0  0
 20 21  2  0  0  0  0
 21 22  1  0  0  0  0
 22 43  1  0  0  0  0
 22 44  1  0  0  0  0
 22 45  1  0  0  0  0
M  END
> <s_m_source_file>
AV-unprocessed.smi

> <i_m_source_file_index>
2310

> <i_lp_mmshare_version>
43012

> <i_f3d_flags>
0

> <s_epik_input>
TiNDW0NIMl1bQ0BASF0oW0NIMl1bQ0gzXSlbTkhdQyg9TylbTkhdYzFbY0hdW2NIXWMobmMxW0NIM10pTjJbQ0gyXVtDSDJdW0NIMl1bQ0gyXTI=

> <s_epik_cmdline>
J2VwaWtfcHl0aG9uJywgJy1waCcsICc3LjAnLCAnLXRuJywgJzgnLCAnLW1hJywgJzIwMCcsICctbWV0YWxfYmluZGluZycsICctaW1hZScsICc8aW5maWxlLm1hZT4nLCAnLW9tYWUnLCAnPG91dGZpbGUubWFlPic=

> <r_lp_tautomer_probability>
1

> <r_epik_Ionization_Penalty>
0.281354

> <r_epik_Ionization_Penalty_Charging>
0

> <r_epik_Ionization_Penalty_Neutral>
0.281354

> <r_epik_State_Penalty>
0.273364

> <r_epik_Charging_Adjusted_Penalty>
0.273364

> <i_epik_Tot_Q>
0

> <i_epik_Tot_abs_Q>
0

> <r_epik_Metal_State_Penalty>
0.18752

> <b_epik_Metal_Only>
0

> <s_lp_Force_Field>
OPLS_2005

> <r_lp_Energy>
36.0303

> <b_lp_Chiralities_Consistent>
1

> <s_lp_Variant>
AV-unprocessed.smi:2310-2

> <Gold.Version>
5.8.1

> <Gold.Id.Protein>
6NUR|6NUR_protein|mol2

> <Gold.PLP.Fitness>
41.0804

> <Gold.PLP.PLP>
-38.4672

> <Gold.PLP.part.hbond>
-3.6293

> <Gold.PLP.part.metal>
0.0000

> <Gold.PLP.part.buried>
-0.3072

> <Gold.PLP.part.nonpolar>
-36.3595

> <Gold.PLP.part.repulsive>
0.5180

> <Gold.PLP.ligand.clash>
0.4477

> <Gold.PLP.ligand.torsion>
0.9210

> <Gold.PLP.Chemscore.Hbond>
1.5850

> <Gold.PLP.Chemscore.CHOScore>
0.0000

> <Gold.PLP.Chemscore.Metal>
0.0000

> <Gold.Chemscore.Hbonds>
donor molecule, donor type, donor heavy atom, donor atom, acceptor molecule, acceptor atom, score
      L1  H     7    31       P1  7948  1.00
      L1  H    10    32       P1  7948  0.74

> <Gold.PLP.Chemscore.Internal.Correction>
0.1479

> <Gold.Rescore>
     Score         DG    S(hbond)    S(metal)    S(lipo)     H(rot)  DE(clash)    DE(int)     intcor
     14.66     -18.41       1.57        0.00     101.78       1.65       1.88       1.87       ----

> <Gold.Chemscore.Fitness>
14.6640

> <Gold.Chemscore.DG>
-18.4079

> <Gold.Chemscore.ZeroCoef>
-5.4800

> <Gold.Chemscore.Hbond>
1.5711

> <Gold.Chemscore.Metal>
0.0000

> <Gold.Chemscore.Lipo>
101.7792

> <Gold.Chemscore.Internal_Hbond>
0.0000

> <Gold.Chemscore.DEClash>
1.8770

> <Gold.Chemscore.DEInternal>
1.8670

> <Gold.Chemscore.Rot>
1.6514

> <Gold.Chemscore.Internal.Correction>
   9.000000E+99

> <Gold.Chemscore.Hbonds>
donor molecule, donor type, donor heavy atom, donor atom, acceptor molecule, acceptor atom, score
      L1  H     7    31       P1  7948  1.00
      L1  H    10    32       P1  7948  0.71

> <Gold.Chemscore.Hbond.Weighted>
-5.2474

> <Gold.Chemscore.Metal.Weighted>
-0.0000

> <Gold.Chemscore.Lipo.Weighted>
-11.9082

> <Gold.Chemscore.Internal_Hbond.Weighted>
0.0000

> <Gold.Chemscore.DEClash.Weighted>
1.8770

> <Gold.Chemscore.DEInternal.Weighted>
1.8670

> <Gold.Chemscore.Rot.Weighted>
4.2276

> <Gold.Chemscore.Internal.Correction.Weighted>
   9.000000E+99

> <Gold.Protein.RotatedTorsions>
[ 6907 6896 6895 6894 ] final -162.05 input  -60.11 | X-H torsion
[ 7974 7965 7964 7962 ] final -164.60 input  175.53 | X-H torsion
[ 8008 7997 7996 7995 ] final  -34.17 input   59.86 | X-H torsion
[ 10167 10162 10161 10158 ] final   22.53 input  -65.29 | X-H torsion
[ 10718 10713 10712 10709 ] final   77.97 input   66.30 | X-H torsion
[ 10763 10752 10751 10750 ] final  -60.73 input  -60.55 | X-H torsion
[ 11005 11000 10999 10996 ] final  158.78 input  -57.11 | X-H torsion

> <Gold.Protein.ActiveResidues>
 VAL166  LYS551  ARG553  GLY616  TRP617  ASP618  TYR619  PRO620  LYS621  CYS622 
 ASP623  PHE694  ASN695  SER759  ASP760  ASP761  ALA762  ILE779  LEU786  VAL792 
 PHE793  MET794  SER795  GLU796  ALA797  LYS798  CYS799  TRP800  GLU811  SER814 

> <Gold.Protein.RotatedAtoms>
  151.3742  133.3844  159.2702 H   0  0  0  0  0  0  0  0  0  0  0  0  # atno 6907 bound_to 6896
  150.9628  134.9014  159.7751 H   0  0  0  0  0  0  0  0  0  0  0  0  # atno 6908 bound_to 6896
  152.5156  134.3701  159.9367 H   0  0  0  0  0  0  0  0  0  0  0  0  # atno 6909 bound_to 6896
  144.7292  140.2937  143.6216 H   0  0  0  0  0  0  0  0  0  0  0  0  # atno 7974 bound_to 7965
  154.4128  140.1691  156.2007 H   0  0  0  0  0  0  0  0  0  0  0  0  # atno 8008 bound_to 7997
  155.9527  140.3399  155.6398 H   0  0  0  0  0  0  0  0  0  0  0  0  # atno 8009 bound_to 7997
  155.6850  140.0727  157.2461 H   0  0  0  0  0  0  0  0  0  0  0  0  # atno 8010 bound_to 7997
  140.5341  143.9791  150.6482 H   0  0  0  0  0  0  0  0  0  0  0  0  # atno 10167 bound_to 10162
  157.6729  130.9846  150.1719 H   0  0  0  0  0  0  0  0  0  0  0  0  # atno 10718 bound_to 10713
  154.2737  135.6285  153.5320 H   0  0  0  0  0  0  0  0  0  0  0  0  # atno 10763 bound_to 10752
  152.9876  135.5616  154.5572 H   0  0  0  0  0  0  0  0  0  0  0  0  # atno 10764 bound_to 10752
  154.5148  135.2879  155.1288 H   0  0  0  0  0  0  0  0  0  0  0  0  # atno 10765 bound_to 10752
  140.1898  134.8415  157.2899 H   0  0  0  0  0  0  0  0  0  0  0  0  # atno 11005 bound_to 11000
  145.7829  139.1898  143.2147 LP  0  0  0  0  0  0  0  0  0  0  0  0  # atno 17320 bound_to 7965
  146.0819  140.7754  142.9637 LP  0  0  0  0  0  0  0  0  0  0  0  0  # atno 17321 bound_to 7965
  140.3174  143.3159  152.0819 LP  0  0  0  0  0  0  0  0  0  0  0  0  # atno 17342 bound_to 10162
  139.4964  144.6596  151.6494 LP  0  0  0  0  0  0  0  0  0  0  0  0  # atno 17343 bound_to 10162
  156.2471  130.3696  149.8273 LP  0  0  0  0  0  0  0  0  0  0  0  0  # atno 17370 bound_to 10713
  156.6056  130.8565  151.3442 LP  0  0  0  0  0  0  0  0  0  0  0  0  # atno 17371 bound_to 10713
  140.2172  134.4067  155.7583 LP  0  0  0  0  0  0  0  0  0  0  0  0  # atno 17394 bound_to 11000
  141.2226  133.7148  156.8433 LP  0  0  0  0  0  0  0  0  0  0  0  0  # atno 17395 bound_to 11000

$$$$
