AV-unprocessed.smi:1116|AV-procd|sdf|4808|dock3
  -GOLD-   22720 3353D 1   1.00000     0.00000
 Structure written by MMmdl.
 36 37  0  0  0  0  0  0  0  0  1 V2000
  152.4324  143.7338  162.1238 C   0  0  0  0  0  0  0  0  0  0  0  0
  151.8497  143.7246  160.7520 C   0  0  0  0  0  0  0  0  0  0  0  0
  151.5201  142.6092  160.0956 N   0  0  0  0  0  0  0  0  0  0  0  0
  150.9894  142.8668  158.8276 C   0  0  0  0  0  0  0  0  0  0  0  0
  150.5641  141.7299  157.9484 C   0  0  0  0  0  0  0  0  0  0  0  0
  150.7826  142.0324  156.4563 C   0  0  0  0  0  0  0  0  0  0  0  0
  149.5166  142.1982  155.7509 N   0  0  0  0  0  0  0  0  0  0  0  0
  149.1262  141.4807  154.6864 C   0  0  0  0  0  0  0  0  0  0  0  0
  149.8180  140.5970  154.1799 O   0  0  0  0  0  0  0  0  0  0  0  0
  147.7390  141.8097  154.1245 C   0  0  0  0  0  0  0  0  0  0  0  0
  147.2214  140.7603  153.1208 C   0  0  0  0  0  0  0  0  0  0  0  0
  146.5820  139.5351  153.8030 C   0  0  1  0  0  0  0  0  0  0  0  0
  145.6116  138.8592  152.9584 N   0  0  0  0  0  0  0  0  0  0  0  0
  145.9410  137.5824  152.7198 C   0  0  0  0  0  0  0  0  0  0  0  0
  145.2959  136.7854  152.0430 O   0  0  0  0  0  0  0  0  0  0  0  0
  147.0944  137.3294  153.3474 N   0  0  0  0  0  0  0  0  0  0  0  0
  147.5628  138.3924  153.9990 C   0  0  0  0  0  0  0  0  0  0  0  0
  148.6036  138.4623  154.6497 O   0  0  0  0  0  0  0  0  0  0  0  0
  150.9230  144.2056  158.5312 C   0  0  0  0  0  0  0  0  0  0  0  0
  151.5255  145.1909  159.8356 S   0  0  0  0  0  0  0  0  0  0  0  0
  152.5644  142.7163  162.4929 H   0  0  0  0  0  0  0  0  0  0  0  0
  151.7716  144.2700  162.8051 H   0  0  0  0  0  0  0  0  0  0  0  0
  153.4029  144.2300  162.1128 H   0  0  0  0  0  0  0  0  0  0  0  0
  151.1110  140.8276  158.2254 H   0  0  0  0  0  0  0  0  0  0  0  0
  149.5112  141.5041  158.1209 H   0  0  0  0  0  0  0  0  0  0  0  0
  151.3519  142.9557  156.3458 H   0  0  0  0  0  0  0  0  0  0  0  0
  151.3744  141.2449  155.9862 H   0  0  0  0  0  0  0  0  0  0  0  0
  148.8879  142.9056  156.1027 H   0  0  0  0  0  0  0  0  0  0  0  0
  147.0448  141.8949  154.9611 H   0  0  0  0  0  0  0  0  0  0  0  0
  147.7759  142.7899  153.6471 H   0  0  0  0  0  0  0  0  0  0  0  0
  146.5028  141.2268  152.4441 H   0  0  0  0  0  0  0  0  0  0  0  0
  148.0480  140.4166  152.4967 H   0  0  0  0  0  0  0  0  0  0  0  0
  146.1257  139.8034  154.7567 H   0  0  0  0  0  0  0  0  0  0  0  0
  144.7797  139.3101  152.6061 H   0  0  0  0  0  0  0  0  0  0  0  0
  147.5624  136.4355  153.3229 H   0  0  0  0  0  0  0  0  0  0  0  0
  150.5575  144.6705  157.6277 H   0  0  0  0  0  0  0  0  0  0  0  0
  1  2  1  0  0  0  0
  1 21  1  0  0  0  0
  1 22  1  0  0  0  0
  1 23  1  0  0  0  0
  2 20  1  0  0  0  0
  2  3  2  0  0  0  0
  3  4  1  0  0  0  0
  4  5  1  0  0  0  0
  4 19  2  0  0  0  0
  5  6  1  0  0  0  0
  5 24  1  0  0  0  0
  5 25  1  0  0  0  0
  6  7  1  0  0  0  0
  6 26  1  0  0  0  0
  6 27  1  0  0  0  0
  7  8  1  0  0  0  0
  7 28  1  0  0  0  0
  8  9  2  0  0  0  0
  8 10  1  0  0  0  0
 10 11  1  0  0  0  0
 10 29  1  0  0  0  0
 10 30  1  0  0  0  0
 11 12  1  0  0  0  0
 11 31  1  0  0  0  0
 11 32  1  0  0  0  0
 12 17  1  0  0  0  0
 12 13  1  0  0  0  0
 12 33  1  0  0  0  0
 13 14  1  0  0  0  0
 13 34  1  0  0  0  0
 14 15  2  0  0  0  0
 14 16  1  0  0  0  0
 16 17  1  0  0  0  0
 16 35  1  0  0  0  0
 17 18  2  0  0  0  0
 19 20  1  0  0  0  0
 19 36  1  0  0  0  0
M  END
> <s_m_source_file>
AV-unprocessed.smi

> <i_m_source_file_index>
1116

> <i_lp_mmshare_version>
43012

> <i_f3d_flags>
0

> <s_epik_input>
W0NIM11jMW5jKFtjSF1zMSlbQ0gyXVtDSDJdW05IXUMoPU8pW0NIMl1bQ0gyXVtDQEBIXTJbTkhdQyg9TylbTkhdQzI9Tw==

> <s_epik_cmdline>
J2VwaWtfcHl0aG9uJywgJy1waCcsICc3LjAnLCAnLXRuJywgJzgnLCAnLW1hJywgJzIwMCcsICctbWV0YWxfYmluZGluZycsICctaW1hZScsICc8aW5maWxlLm1hZT4nLCAnLW9tYWUnLCAnPG91dGZpbGUubWFlPic=

> <r_lp_tautomer_probability>
1

> <r_epik_Ionization_Penalty>
0.00889251

> <r_epik_Ionization_Penalty_Charging>
0

> <r_epik_Ionization_Penalty_Neutral>
0.00889251

> <r_epik_State_Penalty>
0.00583796

> <r_epik_Charging_Adjusted_Penalty>
0.00583796

> <i_epik_Tot_Q>
0

> <i_epik_Tot_abs_Q>
0

> <r_epik_Metal_State_Penalty>
0.408839

> <b_epik_Metal_Only>
0

> <s_lp_Force_Field>
OPLS_2005

> <r_lp_Energy>
13.0769

> <b_lp_Chiralities_Consistent>
1

> <s_lp_Variant>
AV-unprocessed.smi:1116-2

> <Gold.Version>
5.8.1

> <Gold.Id.Protein>
6NUR|6NUR_protein|mol2

> <Gold.PLP.Fitness>
48.3791

> <Gold.PLP.PLP>
-40.2678

> <Gold.PLP.part.hbond>
-4.5677

> <Gold.PLP.part.metal>
0.0000

> <Gold.PLP.part.buried>
-7.4777

> <Gold.PLP.part.nonpolar>
-30.4326

> <Gold.PLP.part.repulsive>
1.1579

> <Gold.PLP.ligand.clash>
0.0000

> <Gold.PLP.ligand.torsion>
1.3444

> <Gold.PLP.Chemscore.Hbond>
2.5665

> <Gold.PLP.Chemscore.CHOScore>
0.9987

> <Gold.PLP.Chemscore.Metal>
0.0000

> <Gold.Chemscore.Hbonds>
donor molecule, donor type, donor heavy atom, donor atom, acceptor molecule, acceptor atom, score
      L1  H     7    28       P1  8028  0.54
      L1  H    13    34       P1 10175  1.00
      L1  H    16    35       P1  7948  0.30
      P1  H  7989  7998       L1     9  0.70
      L1  C    19    36       P1  8028  0.97

> <Gold.PLP.Chemscore.Internal.Correction>
0.1046

> <Gold.Rescore>
     Score         DG    S(hbond)    S(metal)    S(lipo)     H(rot)  DE(clash)    DE(int)     intcor
     14.07     -17.45       2.61        0.00      89.70       2.83       0.27       3.12       ----

> <Gold.Chemscore.Fitness>
14.0677

> <Gold.Chemscore.DG>
-17.4522

> <Gold.Chemscore.ZeroCoef>
-5.4800

> <Gold.Chemscore.Hbond>
2.6132

> <Gold.Chemscore.Metal>
0.0000

> <Gold.Chemscore.Lipo>
89.7017

> <Gold.Chemscore.Internal_Hbond>
0.0000

> <Gold.Chemscore.DEClash>
0.2685

> <Gold.Chemscore.DEInternal>
3.1159

> <Gold.Chemscore.Rot>
2.8324

> <Gold.Chemscore.Internal.Correction>
   9.000000E+99

> <Gold.Chemscore.Hbonds>
donor molecule, donor type, donor heavy atom, donor atom, acceptor molecule, acceptor atom, score
      L1  H     7    28       P1  8028  0.54
      L1  H    13    34       P1 10175  0.97
      L1  H    16    35       P1  7948  0.28
      P1  H  7989  7998       L1     9  0.69

> <Gold.Chemscore.Hbond.Weighted>
-8.7280

> <Gold.Chemscore.Metal.Weighted>
-0.0000

> <Gold.Chemscore.Lipo.Weighted>
-10.4951

> <Gold.Chemscore.Internal_Hbond.Weighted>
0.0000

> <Gold.Chemscore.DEClash.Weighted>
0.2685

> <Gold.Chemscore.DEInternal.Weighted>
3.1159

> <Gold.Chemscore.Rot.Weighted>
7.2510

> <Gold.Chemscore.Internal.Correction.Weighted>
   9.000000E+99

> <Gold.Protein.RotatedTorsions>
[ 6907 6896 6895 6894 ] final  -20.41 input  -60.11 | X-H torsion
[ 7974 7965 7964 7962 ] final  139.31 input  175.53 | X-H torsion
[ 8008 7997 7996 7995 ] final  114.94 input   59.86 | X-H torsion
[ 10167 10162 10161 10158 ] final  124.21 input  -65.29 | X-H torsion
[ 10718 10713 10712 10709 ] final -126.26 input   66.30 | X-H torsion
[ 10763 10752 10751 10750 ] final   94.42 input  -60.55 | X-H torsion
[ 11005 11000 10999 10996 ] final   75.23 input  -57.11 | X-H torsion

> <Gold.Protein.ActiveResidues>
 VAL166  LYS551  ARG553  GLY616  TRP617  ASP618  TYR619  PRO620  LYS621  CYS622 
 ASP623  PHE694  ASN695  SER759  ASP760  ASP761  ALA762  ILE779  LEU786  VAL792 
 PHE793  MET794  SER795  GLU796  ALA797  LYS798  CYS799  TRP800  GLU811  SER814 

> <Gold.Protein.RotatedAtoms>
  151.2486  135.0614  159.9052 H   0  0  0  0  0  0  0  0  0  0  0  0  # atno 6907 bound_to 6896
  152.5383  134.0356  159.8055 H   0  0  0  0  0  0  0  0  0  0  0  0  # atno 6908 bound_to 6896
  151.0561  133.5534  159.2669 H   0  0  0  0  0  0  0  0  0  0  0  0  # atno 6909 bound_to 6896
  144.9290  139.5070  143.5627 H   0  0  0  0  0  0  0  0  0  0  0  0  # atno 7974 bound_to 7965
  156.2352  140.2949  156.0292 H   0  0  0  0  0  0  0  0  0  0  0  0  # atno 8008 bound_to 7997
  155.2113  140.0412  157.2951 H   0  0  0  0  0  0  0  0  0  0  0  0  # atno 8009 bound_to 7997
  154.6065  140.2440  155.7731 H   0  0  0  0  0  0  0  0  0  0  0  0  # atno 8010 bound_to 7997
  139.5755  144.6961  151.3665 H   0  0  0  0  0  0  0  0  0  0  0  0  # atno 10167 bound_to 10162
  156.1750  130.6693  151.0229 H   0  0  0  0  0  0  0  0  0  0  0  0  # atno 10718 bound_to 10713
  153.2414  135.4290  155.0702 H   0  0  0  0  0  0  0  0  0  0  0  0  # atno 10763 bound_to 10752
  154.8342  135.3403  154.6643 H   0  0  0  0  0  0  0  0  0  0  0  0  # atno 10764 bound_to 10752
  153.7067  135.7025  153.5105 H   0  0  0  0  0  0  0  0  0  0  0  0  # atno 10765 bound_to 10752
  139.9353  134.7500  156.1246 H   0  0  0  0  0  0  0  0  0  0  0  0  # atno 11005 bound_to 11000
  146.3239  139.8227  142.8923 LP  0  0  0  0  0  0  0  0  0  0  0  0  # atno 17320 bound_to 7965
  145.3172  141.0235  143.3521 LP  0  0  0  0  0  0  0  0  0  0  0  0  # atno 17321 bound_to 7965
  140.7037  143.7566  150.7446 LP  0  0  0  0  0  0  0  0  0  0  0  0  # atno 17342 bound_to 10162
  140.1085  143.4721  152.2384 LP  0  0  0  0  0  0  0  0  0  0  0  0  # atno 17343 bound_to 10162
  157.6829  131.0833  150.7322 LP  0  0  0  0  0  0  0  0  0  0  0  0  # atno 17370 bound_to 10713
  156.7380  130.4730  149.5484 LP  0  0  0  0  0  0  0  0  0  0  0  0  # atno 17371 bound_to 10713
  141.0964  133.6694  156.2654 LP  0  0  0  0  0  0  0  0  0  0  0  0  # atno 17394 bound_to 11000
  140.6092  134.5476  157.5531 LP  0  0  0  0  0  0  0  0  0  0  0  0  # atno 17395 bound_to 11000

$$$$
