AV-unprocessed.smi:320|AV-procd|sdf|2332|dock7
  -GOLD-   2262022233D 1   1.00000     0.00000
 Structure written by MMmdl.
 49 52  0  0  0  0  0  0  0  0  1 V2000
  147.2071  137.1098  156.6461 C   0  0  0  0  0  0  0  0  0  0  0  0
  148.6093  137.1696  157.2859 C   0  0  2  0  0  0  0  0  0  0  0  0
  148.4547  137.2264  158.7404 N   0  0  0  0  0  0  0  0  0  0  0  0
  148.5582  136.1887  159.5845 C   0  0  0  0  0  0  0  0  0  0  0  0
  148.8180  135.0416  159.2181 O   0  0  0  0  0  0  0  0  0  0  0  0
  148.3452  136.5146  161.0699 C   0  0  0  0  0  0  0  0  0  0  0  0
  147.1698  135.8468  161.6537 N   0  0  0  0  0  0  0  0  0  0  0  0
  147.2749  134.4627  161.8963 C   0  0  0  0  0  0  0  0  0  0  0  0
  146.2617  133.7545  162.4195 C   0  0  0  0  0  0  0  0  0  0  0  0
  145.0362  134.4486  162.7369 C   0  0  0  0  0  0  0  0  0  0  0  0
  144.9234  135.7717  162.5052 C   0  0  0  0  0  0  0  0  0  0  0  0
  146.0278  136.5493  161.9308 C   0  0  0  0  0  0  0  0  0  0  0  0
  145.9320  137.7574  161.7118 O   0  0  0  0  0  0  0  0  0  0  0  0
  149.5281  138.3259  156.7767 C   0  0  0  0  0  0  0  0  0  0  0  0
  149.6626  138.2395  155.2271 C   0  0  0  0  0  0  0  0  0  0  0  0
  150.5465  139.3810  154.6833 C   0  0  2  0  0  0  0  0  0  0  0  0
  151.9535  139.2821  155.3075 C   0  0  0  0  0  0  0  0  0  0  0  0
  151.8373  139.4045  156.8406 C   0  0  1  0  0  0  0  0  0  0  0  0
  151.2060  140.7644  157.2035 C   0  0  0  0  0  0  0  0  0  0  0  0
  149.8013  140.8562  156.5722 C   0  0  1  0  0  0  0  0  0  0  0  0
  149.9118  140.7397  155.0395 C   0  0  0  0  0  0  0  0  0  0  0  0
  148.9161  139.7152  157.1176 C   0  0  0  0  0  0  0  0  0  0  0  0
  150.9576  138.2597  157.3893 C   0  0  0  0  0  0  0  0  0  0  0  0
  147.2549  136.9467  155.5703 H   0  0  0  0  0  0  0  0  0  0  0  0
  146.6367  138.0205  156.8259 H   0  0  0  0  0  0  0  0  0  0  0  0
  146.6295  136.2820  157.0590 H   0  0  0  0  0  0  0  0  0  0  0  0
  149.1106  136.2348  157.0278 H   0  0  0  0  0  0  0  0  0  0  0  0
  148.2451  138.1320  159.1345 H   0  0  0  0  0  0  0  0  0  0  0  0
  149.2502  136.2373  161.6122 H   0  0  0  0  0  0  0  0  0  0  0  0
  148.2602  137.5963  161.1918 H   0  0  0  0  0  0  0  0  0  0  0  0
  148.2213  134.0183  161.6243 H   0  0  0  0  0  0  0  0  0  0  0  0
  146.3595  132.6931  162.5942 H   0  0  0  0  0  0  0  0  0  0  0  0
  144.2053  133.9043  163.1611 H   0  0  0  0  0  0  0  0  0  0  0  0
  143.9982  136.2739  162.7471 H   0  0  0  0  0  0  0  0  0  0  0  0
  150.0955  137.2852  154.9257 H   0  0  0  0  0  0  0  0  0  0  0  0
  148.6773  138.2840  154.7610 H   0  0  0  0  0  0  0  0  0  0  0  0
  150.6249  139.2929  153.5992 H   0  0  0  0  0  0  0  0  0  0  0  0
  152.4213  138.3343  155.0380 H   0  0  0  0  0  0  0  0  0  0  0  0
  152.5983  140.0681  154.9124 H   0  0  0  0  0  0  0  0  0  0  0  0
  152.8315  139.3390  157.2836 H   0  0  0  0  0  0  0  0  0  0  0  0
  151.1428  140.8753  158.2867 H   0  0  0  0  0  0  0  0  0  0  0  0
  151.8351  141.5806  156.8460 H   0  0  0  0  0  0  0  0  0  0  0  0
  149.3524  141.8162  156.8293 H   0  0  0  0  0  0  0  0  0  0  0  0
  150.5148  141.5559  154.6396 H   0  0  0  0  0  0  0  0  0  0  0  0
  148.9260  140.8298  154.5811 H   0  0  0  0  0  0  0  0  0  0  0  0
  147.9093  139.7966  156.7054 H   0  0  0  0  0  0  0  0  0  0  0  0
  148.8169  139.8425  158.1952 H   0  0  0  0  0  0  0  0  0  0  0  0
  150.9137  138.3323  158.4761 H   0  0  0  0  0  0  0  0  0  0  0  0
  151.4315  137.3031  157.1668 H   0  0  0  0  0  0  0  0  0  0  0  0
  1  2  1  0  0  0  0
  1 24  1  0  0  0  0
  1 25  1  0  0  0  0
  1 26  1  0  0  0  0
  2  3  1  0  0  0  0
  2 14  1  0  0  0  0
  2 27  1  0  0  0  0
  3  4  1  0  0  0  0
  3 28  1  0  0  0  0
  4  5  2  0  0  0  0
  4  6  1  0  0  0  0
  6  7  1  0  0  0  0
  6 29  1  0  0  0  0
  6 30  1  0  0  0  0
  7 12  1  0  0  0  0
  7  8  1  0  0  0  0
  8  9  2  0  0  0  0
  8 31  1  0  0  0  0
  9 10  1  0  0  0  0
  9 32  1  0  0  0  0
 10 11  2  0  0  0  0
 10 33  1  0  0  0  0
 11 12  1  0  0  0  0
 11 34  1  0  0  0  0
 12 13  2  0  0  0  0
 14 22  1  0  0  0  0
 14 23  1  0  0  0  0
 14 15  1  0  0  0  0
 15 16  1  0  0  0  0
 15 35  1  0  0  0  0
 15 36  1  0  0  0  0
 16 21  1  0  0  0  0
 16 17  1  0  0  0  0
 16 37  1  0  0  0  0
 17 18  1  0  0  0  0
 17 38  1  0  0  0  0
 17 39  1  0  0  0  0
 18 19  1  0  0  0  0
 18 23  1  0  0  0  0
 18 40  1  0  0  0  0
 19 20  1  0  0  0  0
 19 41  1  0  0  0  0
 19 42  1  0  0  0  0
 20 21  1  0  0  0  0
 20 22  1  0  0  0  0
 20 43  1  0  0  0  0
 21 44  1  0  0  0  0
 21 45  1  0  0  0  0
 22 46  1  0  0  0  0
 22 47  1  0  0  0  0
 23 48  1  0  0  0  0
 23 49  1  0  0  0  0
M  END
> <s_m_source_file>
AV-unprocessed.smi

> <i_m_source_file_index>
320

> <i_lp_mmshare_version>
43012

> <i_f3d_flags>
0

> <s_epik_input>
W0NIMl0xW0NAQEhdKFtDSDJdMilbQ0gyXVtDQEBIXShbQ0gyXTMpW0NIMl1bQ0BIXTFbQ0gyXUMyM1tDQEhdKFtDSDNdKVtOSF1DKD1PKVtDSDJdbjRbY0hdW2NIXVtjSF1bY0hdYzQ9Tw==

> <s_epik_cmdline>
J2VwaWtfcHl0aG9uJywgJy1waCcsICc3LjAnLCAnLXRuJywgJzgnLCAnLW1hJywgJzIwMCcsICctbWV0YWxfYmluZGluZycsICctaW1hZScsICc8aW5maWxlLm1hZT4nLCAnLW9tYWUnLCAnPG91dGZpbGUubWFlPic=

> <r_lp_tautomer_probability>
1

> <r_epik_Ionization_Penalty>
4.15949e-07

> <r_epik_Ionization_Penalty_Charging>
3.97363e-07

> <r_epik_Ionization_Penalty_Neutral>
1.85865e-08

> <r_epik_State_Penalty>
-0

> <r_epik_Charging_Adjusted_Penalty>
3.97363e-07

> <i_epik_Tot_Q>
0

> <i_epik_Tot_abs_Q>
0

> <r_epik_Metal_State_Penalty>
-0

> <b_epik_Metal_Only>
0

> <s_lp_Force_Field>
OPLS_2005

> <r_lp_Energy>
45.4177

> <b_lp_Chiralities_Consistent>
1

> <s_lp_Variant>
AV-unprocessed.smi:320-1

> <Gold.Version>
5.8.1

> <Gold.Id.Protein>
6NUR|6NUR_protein|mol2

> <Gold.PLP.Fitness>
41.8684

> <Gold.PLP.PLP>
-37.1928

> <Gold.PLP.part.hbond>
-2.0000

> <Gold.PLP.part.metal>
0.0000

> <Gold.PLP.part.buried>
-2.3477

> <Gold.PLP.part.nonpolar>
-32.7814

> <Gold.PLP.part.repulsive>
0.1521

> <Gold.PLP.ligand.clash>
0.0000

> <Gold.PLP.ligand.torsion>
0.4241

> <Gold.PLP.Chemscore.Hbond>
1.8240

> <Gold.PLP.Chemscore.CHOScore>
0.0000

> <Gold.PLP.Chemscore.Metal>
0.0000

> <Gold.Chemscore.Hbonds>
donor molecule, donor type, donor heavy atom, donor atom, acceptor molecule, acceptor atom, score
      P1  H  6896  6907       L1     5  1.00
      P1  H  6934  6947       L1    13  0.82

> <Gold.PLP.Chemscore.Internal.Correction>
0.0516

> <Gold.Rescore>
     Score         DG    S(hbond)    S(metal)    S(lipo)     H(rot)  DE(clash)    DE(int)     intcor
     17.61     -18.21       1.90        0.00      87.67       1.52       0.10       0.50       ----

> <Gold.Chemscore.Fitness>
17.6105

> <Gold.Chemscore.DG>
-18.2065

> <Gold.Chemscore.ZeroCoef>
-5.4800

> <Gold.Chemscore.Hbond>
1.9043

> <Gold.Chemscore.Metal>
0.0000

> <Gold.Chemscore.Lipo>
87.6736

> <Gold.Chemscore.Internal_Hbond>
0.0000

> <Gold.Chemscore.DEClash>
0.0994

> <Gold.Chemscore.DEInternal>
0.4967

> <Gold.Chemscore.Rot>
1.5202

> <Gold.Chemscore.Internal.Correction>
   9.000000E+99

> <Gold.Chemscore.Hbonds>
donor molecule, donor type, donor heavy atom, donor atom, acceptor molecule, acceptor atom, score
      P1  H  6896  6907       L1     5  0.94
      P1  H  6934  6947       L1    13  0.81

> <Gold.Chemscore.Hbond.Weighted>
-6.3604

> <Gold.Chemscore.Metal.Weighted>
-0.0000

> <Gold.Chemscore.Lipo.Weighted>
-10.2578

> <Gold.Chemscore.Internal_Hbond.Weighted>
0.0000

> <Gold.Chemscore.DEClash.Weighted>
0.0994

> <Gold.Chemscore.DEInternal.Weighted>
0.4967

> <Gold.Chemscore.Rot.Weighted>
3.8916

> <Gold.Chemscore.Internal.Correction.Weighted>
   9.000000E+99

> <Gold.Protein.RotatedTorsions>
[ 6907 6896 6895 6894 ] final  -90.47 input  -60.11 | X-H torsion
[ 7974 7965 7964 7962 ] final -175.39 input  175.53 | X-H torsion
[ 8008 7997 7996 7995 ] final   24.33 input   59.86 | X-H torsion
[ 10167 10162 10161 10158 ] final  159.69 input  -65.29 | X-H torsion
[ 10718 10713 10712 10709 ] final  168.56 input   66.30 | X-H torsion
[ 10763 10752 10751 10750 ] final   31.69 input  -60.55 | X-H torsion
[ 11005 11000 10999 10996 ] final  -53.73 input  -57.11 | X-H torsion

> <Gold.Protein.ActiveResidues>
 VAL166  LYS551  ARG553  GLY616  TRP617  ASP618  TYR619  PRO620  LYS621  CYS622 
 ASP623  PHE694  ASN695  SER759  ASP760  ASP761  ALA762  ILE779  LEU786  VAL792 
 PHE793  MET794  SER795  GLU796  ALA797  LYS798  CYS799  TRP800  GLU811  SER814 

> <Gold.Protein.RotatedAtoms>
  150.6882  134.2426  159.4478 H   0  0  0  0  0  0  0  0  0  0  0  0  # atno 6907 bound_to 6896
  152.0369  134.9732  160.0582 H   0  0  0  0  0  0  0  0  0  0  0  0  # atno 6908 bound_to 6896
  152.1249  133.4339  159.4730 H   0  0  0  0  0  0  0  0  0  0  0  0  # atno 6909 bound_to 6896
  144.7128  140.1328  143.6397 H   0  0  0  0  0  0  0  0  0  0  0  0  # atno 7974 bound_to 7965
  154.9947  140.3118  155.4892 H   0  0  0  0  0  0  0  0  0  0  0  0  # atno 8008 bound_to 7997
  156.2934  140.2243  156.4994 H   0  0  0  0  0  0  0  0  0  0  0  0  # atno 8009 bound_to 7997
  154.7672  140.0455  157.1010 H   0  0  0  0  0  0  0  0  0  0  0  0  # atno 8010 bound_to 7997
  139.4834  144.4706  151.8581 H   0  0  0  0  0  0  0  0  0  0  0  0  # atno 10167 bound_to 10162
  157.0354  131.0271  151.2731 H   0  0  0  0  0  0  0  0  0  0  0  0  # atno 10718 bound_to 10713
  153.0302  135.6432  154.1239 H   0  0  0  0  0  0  0  0  0  0  0  0  # atno 10763 bound_to 10752
  154.0962  135.2863  155.3263 H   0  0  0  0  0  0  0  0  0  0  0  0  # atno 10764 bound_to 10752
  154.6430  135.5453  153.7875 H   0  0  0  0  0  0  0  0  0  0  0  0  # atno 10765 bound_to 10752
  141.0991  133.6620  156.4216 H   0  0  0  0  0  0  0  0  0  0  0  0  # atno 11005 bound_to 11000
  145.9271  139.2583  143.1347 LP  0  0  0  0  0  0  0  0  0  0  0  0  # atno 17320 bound_to 7965
  145.9560  140.8872  143.0235 LP  0  0  0  0  0  0  0  0  0  0  0  0  # atno 17321 bound_to 7965
  140.4174  144.2288  150.5887 LP  0  0  0  0  0  0  0  0  0  0  0  0  # atno 17342 bound_to 10162
  140.4907  143.2348  151.8823 LP  0  0  0  0  0  0  0  0  0  0  0  0  # atno 17343 bound_to 10162
  157.5146  130.7960  149.7742 LP  0  0  0  0  0  0  0  0  0  0  0  0  # atno 17370 bound_to 10713
  156.0056  130.3857  150.2445 LP  0  0  0  0  0  0  0  0  0  0  0  0  # atno 17371 bound_to 10713
  140.5067  134.6434  157.5269 LP  0  0  0  0  0  0  0  0  0  0  0  0  # atno 17394 bound_to 11000
  139.9836  134.7097  155.9814 LP  0  0  0  0  0  0  0  0  0  0  0  0  # atno 17395 bound_to 11000

$$$$
