AV-unprocessed.smi:2986|AV-procd|sdf|11383|dock6
  -GOLD-   2272016303D 1   1.00000     0.00000
 Structure written by MMmdl.
 41 43  0  0  0  0  0  0  0  0  2 V2000
  147.7844  141.9828  154.1070 C   0  0  0  0  0  0  0  0  0  0  0  0
  149.1366  141.6321  154.3401 O   0  0  0  0  0  0  0  0  0  0  0  0
  149.3748  141.2454  155.6842 C   0  0  0  0  0  0  0  0  0  0  0  0
  150.7830  140.6488  155.8108 C   0  0  0  0  0  0  0  0  0  0  0  0
  151.3080  140.7723  157.1626 N   0  0  0  0  0  0  0  0  0  0  0  0
  151.6098  139.7819  158.0387 C   0  0  0  0  0  0  0  0  0  0  0  0
  151.3573  138.0731  157.6731 S   0  0  0  0  0  0  0  0  0  0  0  0
  150.5153  137.5572  159.2068 C   0  0  0  0  0  0  0  0  0  0  0  0
  148.9898  137.4806  159.0823 C   0  0  0  0  0  0  0  0  0  0  0  0
  148.4751  137.5423  157.9651 O   0  0  0  0  0  0  0  0  0  0  0  0
  148.3930  137.3259  160.2896 N   0  5  0  0  0  0  0  0  0  0  0  0
  147.8479  136.1459  160.6174 C   0  0  0  0  0  0  0  0  0  0  0  0
  147.1295  135.8556  161.8091 C   0  0  0  0  0  0  0  0  0  0  0  0
  146.8048  134.5368  161.6634 C   0  0  0  0  0  0  0  0  0  0  0  0
  146.0536  133.5778  162.5213 C   0  0  0  0  0  0  0  0  0  0  0  0
  147.2931  134.0572  160.4879 O   0  0  0  0  0  0  0  0  0  0  0  0
  147.9645  135.0925  159.8267 N   0  0  0  0  0  0  0  0  0  0  0  0
  152.1216  140.1774  159.2045 N   0  0  0  0  0  0  0  0  0  0  0  0
  152.1140  141.5527  159.0902 C   0  0  0  0  0  0  0  0  0  0  0  0
  152.5167  142.5515  160.0052 C   0  0  0  0  0  0  0  0  0  0  0  0
  152.4221  143.9155  159.6598 C   0  0  0  0  0  0  0  0  0  0  0  0
  151.9281  144.2991  158.3962 C   0  0  0  0  0  0  0  0  0  0  0  0
  151.5228  143.3194  157.4695 C   0  0  0  0  0  0  0  0  0  0  0  0
  151.6139  141.9591  157.8213 C   0  0  0  0  0  0  0  0  0  0  0  0
  147.6561  142.2732  153.0644 H   0  0  0  0  0  0  0  0  0  0  0  0
  147.4820  142.8248  154.7305 H   0  0  0  0  0  0  0  0  0  0  0  0
  147.1187  141.1422  154.3066 H   0  0  0  0  0  0  0  0  0  0  0  0
  149.2801  142.1100  156.3426 H   0  0  0  0  0  0  0  0  0  0  0  0
  148.6300  140.5129  155.9999 H   0  0  0  0  0  0  0  0  0  0  0  0
  150.7677  139.5938  155.5368 H   0  0  0  0  0  0  0  0  0  0  0  0
  151.4614  141.1322  155.1104 H   0  0  0  0  0  0  0  0  0  0  0  0
  150.9322  136.6087  159.5468 H   0  0  0  0  0  0  0  0  0  0  0  0
  150.7588  138.2833  159.9824 H   0  0  0  0  0  0  0  0  0  0  0  0
  146.8879  136.5103  162.6328 H   0  0  0  0  0  0  0  0  0  0  0  0
  146.7327  133.0380  163.1812 H   0  0  0  0  0  0  0  0  0  0  0  0
  145.5183  132.8477  161.9139 H   0  0  0  0  0  0  0  0  0  0  0  0
  145.3242  134.1008  163.1401 H   0  0  0  0  0  0  0  0  0  0  0  0
  152.8953  142.2658  160.9753 H   0  0  0  0  0  0  0  0  0  0  0  0
  152.7302  144.6703  160.3682 H   0  0  0  0  0  0  0  0  0  0  0  0
  151.8598  145.3457  158.1386 H   0  0  0  0  0  0  0  0  0  0  0  0
  151.1450  143.6093  156.5005 H   0  0  0  0  0  0  0  0  0  0  0  0
  1  2  1  0  0  0  0
  1 25  1  0  0  0  0
  1 26  1  0  0  0  0
  1 27  1  0  0  0  0
  2  3  1  0  0  0  0
  3  4  1  0  0  0  0
  3 28  1  0  0  0  0
  3 29  1  0  0  0  0
  4  5  1  0  0  0  0
  4 30  1  0  0  0  0
  4 31  1  0  0  0  0
  5 24  1  0  0  0  0
  5  6  1  0  0  0  0
  6  7  1  0  0  0  0
  6 18  2  0  0  0  0
  7  8  1  0  0  0  0
  8  9  1  0  0  0  0
  8 32  1  0  0  0  0
  8 33  1  0  0  0  0
  9 10  2  0  0  0  0
  9 11  1  0  0  0  0
 11 12  1  0  0  0  0
 12 17  2  0  0  0  0
 12 13  1  0  0  0  0
 13 14  2  0  0  0  0
 13 34  1  0  0  0  0
 14 15  1  0  0  0  0
 14 16  1  0  0  0  0
 15 35  1  0  0  0  0
 15 36  1  0  0  0  0
 15 37  1  0  0  0  0
 16 17  1  0  0  0  0
 18 19  1  0  0  0  0
 19 24  2  0  0  0  0
 19 20  1  0  0  0  0
 20 21  2  0  0  0  0
 20 38  1  0  0  0  0
 21 22  1  0  0  0  0
 21 39  1  0  0  0  0
 22 23  2  0  0  0  0
 22 40  1  0  0  0  0
 23 24  1  0  0  0  0
 23 41  1  0  0  0  0
M  CHG  1  11  -1
M  END
> <s_m_source_file>
AV-unprocessed.smi

> <i_m_source_file_index>
2986

> <i_lp_mmshare_version>
43012

> <i_f3d_flags>
0

> <s_epik_input>
W2NIXTFbY0hdW2NIXVtjSF1jKGMxMiluKFtDSDJdW0NIMl1PW0NIM10pYyhuMilTW0NIMl1DKD1PKVtOSF1jM1tjSF1jKFtDSDNdKW9uMw==

> <s_epik_cmdline>
J2VwaWtfcHl0aG9uJywgJy1waCcsICc3LjAnLCAnLXRuJywgJzgnLCAnLW1hJywgJzIwMCcsICctbWV0YWxfYmluZGluZycsICctaW1hZScsICc8aW5maWxlLm1hZT4nLCAnLW9tYWUnLCAnPG91dGZpbGUubWFlPic=

> <r_epik_Ionization_Penalty>
4.21562

> <r_epik_Ionization_Penalty_Charging>
4.18608

> <r_epik_Ionization_Penalty_Neutral>
0.0295463

> <r_epik_State_Penalty>
4.20602

> <r_epik_Charging_Adjusted_Penalty>
8.3921

> <i_epik_Tot_Q>
-1

> <i_epik_Tot_abs_Q>
1

> <r_epik_Metal_State_Penalty>
0.721027

> <b_epik_Metal_Only>
1

> <s_lp_Force_Field>
OPLS_2005

> <r_lp_Energy>
2.9865

> <b_lp_Chiralities_Consistent>
1

> <s_lp_Variant>
AV-unprocessed.smi:2986-3

> <Gold.Version>
5.8.1

> <Gold.Id.Protein>
6NUR|6NUR_protein|mol2

> <Gold.PLP.Fitness>
53.3590

> <Gold.PLP.PLP>
-49.4887

> <Gold.PLP.part.hbond>
-3.3041

> <Gold.PLP.part.metal>
0.0000

> <Gold.PLP.part.buried>
-6.4990

> <Gold.PLP.part.nonpolar>
-41.1389

> <Gold.PLP.part.repulsive>
0.1809

> <Gold.PLP.ligand.clash>
0.0000

> <Gold.PLP.ligand.torsion>
1.3887

> <Gold.PLP.Chemscore.Hbond>
2.1133

> <Gold.PLP.Chemscore.CHOScore>
0.0000

> <Gold.PLP.Chemscore.Metal>
0.0000

> <Gold.Chemscore.Hbonds>
donor molecule, donor type, donor heavy atom, donor atom, acceptor molecule, acceptor atom, score
      P1  H  6931  6943       L1    11  1.22
      P1  H  6934  6947       L1    11  0.72
      P1  H  8011  8017       L1     2  0.16

> <Gold.PLP.Chemscore.Internal.Correction>
0.3079

> <Gold.Rescore>
     Score         DG    S(hbond)    S(metal)    S(lipo)     H(rot)  DE(clash)    DE(int)     intcor
     15.02     -16.44       0.87        0.00     117.08       2.21       0.02       1.40       ----

> <Gold.Chemscore.Fitness>
15.0167

> <Gold.Chemscore.DG>
-16.4372

> <Gold.Chemscore.ZeroCoef>
-5.4800

> <Gold.Chemscore.Hbond>
0.8712

> <Gold.Chemscore.Metal>
0.0000

> <Gold.Chemscore.Lipo>
117.0795

> <Gold.Chemscore.Internal_Hbond>
0.0000

> <Gold.Chemscore.DEClash>
0.0205

> <Gold.Chemscore.DEInternal>
1.4000

> <Gold.Chemscore.Rot>
2.2073

> <Gold.Chemscore.Internal.Correction>
   9.000000E+99

> <Gold.Chemscore.Hbonds>
donor molecule, donor type, donor heavy atom, donor atom, acceptor molecule, acceptor atom, score
      P1  H  6931  6943       L1    11  0.46
      P1  H  6934  6947       L1    11  0.28
      P1  H  8011  8017       L1     2  0.01

> <Gold.Chemscore.Hbond.Weighted>
-2.9097

> <Gold.Chemscore.Metal.Weighted>
-0.0000

> <Gold.Chemscore.Lipo.Weighted>
-13.6983

> <Gold.Chemscore.Internal_Hbond.Weighted>
0.0000

> <Gold.Chemscore.DEClash.Weighted>
0.0205

> <Gold.Chemscore.DEInternal.Weighted>
1.4000

> <Gold.Chemscore.Rot.Weighted>
5.6508

> <Gold.Chemscore.Internal.Correction.Weighted>
   9.000000E+99

> <Gold.Protein.RotatedTorsions>
[ 6907 6896 6895 6894 ] final  -86.86 input  -60.11 | X-H torsion
[ 7974 7965 7964 7962 ] final  101.44 input  175.53 | X-H torsion
[ 8008 7997 7996 7995 ] final  -47.92 input   59.86 | X-H torsion
[ 10167 10162 10161 10158 ] final -141.27 input  -65.29 | X-H torsion
[ 10718 10713 10712 10709 ] final -136.94 input   66.30 | X-H torsion
[ 10763 10752 10751 10750 ] final -131.60 input  -60.55 | X-H torsion
[ 11005 11000 10999 10996 ] final  102.16 input  -57.11 | X-H torsion

> <Gold.Protein.ActiveResidues>
 VAL166  LYS551  ARG553  GLY616  TRP617  ASP618  TYR619  PRO620  LYS621  CYS622 
 ASP623  PHE694  ASN695  SER759  ASP760  ASP761  ALA762  ILE779  LEU786  VAL792 
 PHE793  MET794  SER795  GLU796  ALA797  LYS798  CYS799  TRP800  GLU811  SER814 

> <Gold.Protein.RotatedAtoms>
  150.6866  134.2985  159.4696 H   0  0  0  0  0  0  0  0  0  0  0  0  # atno 6907 bound_to 6896
  152.0883  134.9422  160.0581 H   0  0  0  0  0  0  0  0  0  0  0  0  # atno 6908 bound_to 6896
  152.0747  133.4089  159.4512 H   0  0  0  0  0  0  0  0  0  0  0  0  # atno 6909 bound_to 6896
  145.3722  139.2396  143.3449 H   0  0  0  0  0  0  0  0  0  0  0  0  # atno 7974 bound_to 7965
  154.4022  140.1334  156.4255 H   0  0  0  0  0  0  0  0  0  0  0  0  # atno 8008 bound_to 7997
  155.7602  140.3486  155.5174 H   0  0  0  0  0  0  0  0  0  0  0  0  # atno 8009 bound_to 7997
  155.8866  140.0996  157.1438 H   0  0  0  0  0  0  0  0  0  0  0  0  # atno 8010 bound_to 7997
  139.8201  143.7586  152.2666 H   0  0  0  0  0  0  0  0  0  0  0  0  # atno 10167 bound_to 10162
  156.2826  130.7329  151.1331 H   0  0  0  0  0  0  0  0  0  0  0  0  # atno 10718 bound_to 10713
  154.8749  135.3825  154.4273 H   0  0  0  0  0  0  0  0  0  0  0  0  # atno 10763 bound_to 10752
  153.4970  135.7030  153.5857 H   0  0  0  0  0  0  0  0  0  0  0  0  # atno 10764 bound_to 10752
  153.4206  135.3902  155.2075 H   0  0  0  0  0  0  0  0  0  0  0  0  # atno 10765 bound_to 10752
  139.8776  134.9213  156.5016 H   0  0  0  0  0  0  0  0  0  0  0  0  # atno 11005 bound_to 11000
  146.2880  140.4376  142.8750 LP  0  0  0  0  0  0  0  0  0  0  0  0  # atno 17320 bound_to 7965
  144.8568  140.7081  143.6133 LP  0  0  0  0  0  0  0  0  0  0  0  0  # atno 17321 bound_to 7965
  139.7761  144.7460  151.0154 LP  0  0  0  0  0  0  0  0  0  0  0  0  # atno 17342 bound_to 10162
  140.7814  143.4592  151.0302 LP  0  0  0  0  0  0  0  0  0  0  0  0  # atno 17343 bound_to 10162
  157.7319  131.0604  150.5656 LP  0  0  0  0  0  0  0  0  0  0  0  0  # atno 17370 bound_to 10713
  156.5763  130.4293  149.5997 LP  0  0  0  0  0  0  0  0  0  0  0  0  # atno 17371 bound_to 10713
  140.8585  133.8078  155.9241 LP  0  0  0  0  0  0  0  0  0  0  0  0  # atno 17394 bound_to 11000
  140.9073  134.2304  157.5006 LP  0  0  0  0  0  0  0  0  0  0  0  0  # atno 17395 bound_to 11000

$$$$
