AV-unprocessed.smi:1602|AV-procd|sdf|6439|dock10
  -GOLD-   22720 7 83D 1   1.00000     0.00000
 Structure written by MMmdl.
 36 37  0  0  0  0  0  0  0  0  1 V2000
  147.5029  135.3129  158.8108 C   0  0  0  0  0  0  0  0  0  0  0  0
  148.9534  135.8049  158.8917 C   0  0  2  0  0  0  0  0  0  0  0  0
  149.0941  137.0834  159.7399 C   0  0  0  0  0  0  0  0  0  0  0  0
  148.9037  136.8279  161.1568 N   0  0  0  0  0  0  0  0  0  0  0  0
  148.7593  135.6152  161.7972 C   0  0  0  0  0  0  0  0  0  0  0  0
  148.5837  135.8756  163.1259 C   0  0  0  0  0  0  0  0  0  0  0  0
  148.6398  137.2956  163.2016 C   0  0  0  0  0  0  0  0  0  0  0  0
  148.8350  137.8626  162.0219 N   0  0  0  0  0  0  0  0  0  0  0  0
  149.4594  136.0454  157.5380 N   0  0  0  0  0  0  0  0  0  0  0  0
  151.0670  136.6340  157.3372 S   0  0  0  0  0  0  0  0  0  0  0  0
  151.6194  136.9662  158.6593 O   0  0  0  0  0  0  0  0  0  0  0  0
  151.7740  135.7187  156.4283 O   0  0  0  0  0  0  0  0  0  0  0  0
  150.7262  138.1092  156.4991 N   0  0  0  0  0  0  0  0  0  0  0  0
  151.7818  139.1387  156.4875 C   0  0  0  0  0  0  0  0  0  0  0  0
  151.2638  140.4603  155.8976 C   0  0  0  0  0  0  0  0  0  0  0  0
  150.6999  140.2351  154.6150 O   0  0  0  0  0  0  0  0  0  0  0  0
  149.5809  139.3653  154.6881 C   0  0  0  0  0  0  0  0  0  0  0  0
  150.0145  137.9881  155.2162 C   0  0  0  0  0  0  0  0  0  0  0  0
  147.1086  135.0936  159.8034 H   0  0  0  0  0  0  0  0  0  0  0  0
  147.4305  134.3995  158.2192 H   0  0  0  0  0  0  0  0  0  0  0  0
  146.8542  136.0605  158.3530 H   0  0  0  0  0  0  0  0  0  0  0  0
  149.5485  135.0149  159.3529 H   0  0  0  0  0  0  0  0  0  0  0  0
  150.0764  137.5348  159.5947 H   0  0  0  0  0  0  0  0  0  0  0  0
  148.3598  137.8268  159.4258 H   0  0  0  0  0  0  0  0  0  0  0  0
  148.7857  134.6794  161.2587 H   0  0  0  0  0  0  0  0  0  0  0  0
  148.4351  135.1615  163.9220 H   0  0  0  0  0  0  0  0  0  0  0  0
  148.5448  137.9267  164.0728 H   0  0  0  0  0  0  0  0  0  0  0  0
  149.2429  135.2860  156.8930 H   0  0  0  0  0  0  0  0  0  0  0  0
  152.1512  139.3097  157.4980 H   0  0  0  0  0  0  0  0  0  0  0  0
  152.6240  138.7728  155.8990 H   0  0  0  0  0  0  0  0  0  0  0  0
  150.5245  140.9161  156.5586 H   0  0  0  0  0  0  0  0  0  0  0  0
  152.0832  141.1727  155.8021 H   0  0  0  0  0  0  0  0  0  0  0  0
  148.8087  139.7994  155.3254 H   0  0  0  0  0  0  0  0  0  0  0  0
  149.1480  139.2636  153.6928 H   0  0  0  0  0  0  0  0  0  0  0  0
  150.6708  137.4996  154.4949 H   0  0  0  0  0  0  0  0  0  0  0  0
  149.1403  137.3484  155.3387 H   0  0  0  0  0  0  0  0  0  0  0  0
  1  2  1  0  0  0  0
  1 19  1  0  0  0  0
  1 20  1  0  0  0  0
  1 21  1  0  0  0  0
  2  3  1  0  0  0  0
  2  9  1  0  0  0  0
  2 22  1  0  0  0  0
  3  4  1  0  0  0  0
  3 23  1  0  0  0  0
  3 24  1  0  0  0  0
  4  8  1  0  0  0  0
  4  5  1  0  0  0  0
  5  6  2  0  0  0  0
  5 25  1  0  0  0  0
  6  7  1  0  0  0  0
  6 26  1  0  0  0  0
  7  8  2  0  0  0  0
  7 27  1  0  0  0  0
  9 10  1  0  0  0  0
  9 28  1  0  0  0  0
 10 11  2  0  0  0  0
 10 12  2  0  0  0  0
 10 13  1  0  0  0  0
 13 18  1  0  0  0  0
 13 14  1  0  0  0  0
 14 15  1  0  0  0  0
 14 29  1  0  0  0  0
 14 30  1  0  0  0  0
 15 16  1  0  0  0  0
 15 31  1  0  0  0  0
 15 32  1  0  0  0  0
 16 17  1  0  0  0  0
 17 18  1  0  0  0  0
 17 33  1  0  0  0  0
 17 34  1  0  0  0  0
 18 35  1  0  0  0  0
 18 36  1  0  0  0  0
M  END
> <s_m_source_file>
AV-unprocessed.smi

> <i_m_source_file_index>
1602

> <i_lp_mmshare_version>
43012

> <i_f3d_flags>
0

> <s_epik_input>
bjFbY0hdW2NIXVtjSF1uMVtDSDJdW0NAQEhdKFtDSDNdKVtOSF1TKD1PKSg9TylOMltDSDJdW0NIMl1PW0NIMl1bQ0gyXTI=

> <s_epik_cmdline>
J2VwaWtfcHl0aG9uJywgJy1waCcsICc3LjAnLCAnLXRuJywgJzgnLCAnLW1hJywgJzIwMCcsICctbWV0YWxfYmluZGluZycsICctaW1hZScsICc8aW5maWxlLm1hZT4nLCAnLW9tYWUnLCAnPG91dGZpbGUubWFlPic=

> <r_lp_tautomer_probability>
1

> <r_epik_Ionization_Penalty>
0.114248

> <r_epik_Ionization_Penalty_Charging>
0

> <r_epik_Ionization_Penalty_Neutral>
0.114248

> <r_epik_State_Penalty>
0.103909

> <r_epik_Charging_Adjusted_Penalty>
0.103909

> <i_epik_Tot_Q>
0

> <i_epik_Tot_abs_Q>
0

> <r_epik_Metal_State_Penalty>
0.436178

> <b_epik_Metal_Only>
0

> <s_lp_Force_Field>
OPLS_2005

> <r_lp_Energy>
7.48288

> <b_lp_Chiralities_Consistent>
1

> <s_lp_Variant>
AV-unprocessed.smi:1602-1

> <Gold.Version>
5.8.1

> <Gold.Id.Protein>
6NUR|6NUR_protein|mol2

> <Gold.PLP.Fitness>
42.8279

> <Gold.PLP.PLP>
-28.9020

> <Gold.PLP.part.hbond>
-5.0000

> <Gold.PLP.part.metal>
0.0000

> <Gold.PLP.part.buried>
-4.1302

> <Gold.PLP.part.nonpolar>
-20.7874

> <Gold.PLP.part.repulsive>
0.0903

> <Gold.PLP.ligand.clash>
0.0268

> <Gold.PLP.ligand.torsion>
0.5948

> <Gold.PLP.Chemscore.Hbond>
4.8000

> <Gold.PLP.Chemscore.CHOScore>
0.0000

> <Gold.PLP.Chemscore.Metal>
0.0000

> <Gold.Chemscore.Hbonds>
donor molecule, donor type, donor heavy atom, donor atom, acceptor molecule, acceptor atom, score
      P1  H  6896  6907       L1    11  0.42
      P1  H  6934  6947       L1     8  0.01
      P1  H  7989  7998       L1    16  1.00
      P1  H 10752 10763       L1    12  1.00

> <Gold.PLP.Chemscore.Internal.Correction>
0.7424

> <Gold.Rescore>
     Score         DG    S(hbond)    S(metal)    S(lipo)     H(rot)  DE(clash)    DE(int)     intcor
     18.90     -20.81       4.14        0.00      55.73       1.97       0.11       1.80       ----

> <Gold.Chemscore.Fitness>
18.9021

> <Gold.Chemscore.DG>
-20.8097

> <Gold.Chemscore.ZeroCoef>
-5.4800

> <Gold.Chemscore.Hbond>
4.1441

> <Gold.Chemscore.Metal>
0.0000

> <Gold.Chemscore.Lipo>
55.7256

> <Gold.Chemscore.Internal_Hbond>
0.0000

> <Gold.Chemscore.DEClash>
0.1103

> <Gold.Chemscore.DEInternal>
1.7974

> <Gold.Chemscore.Rot>
1.9654

> <Gold.Chemscore.Internal.Correction>
   9.000000E+99

> <Gold.Chemscore.Hbonds>
donor molecule, donor type, donor heavy atom, donor atom, acceptor molecule, acceptor atom, score
      P1  H  6896  6907       L1    11  0.21
      P1  H  6934  6947       L1     8  0.01
      P1  H  7989  7998       L1    16  0.73
      P1  H 10752 10763       L1    12  0.99

> <Gold.Chemscore.Hbond.Weighted>
-13.8413

> <Gold.Chemscore.Metal.Weighted>
-0.0000

> <Gold.Chemscore.Lipo.Weighted>
-6.5199

> <Gold.Chemscore.Internal_Hbond.Weighted>
0.0000

> <Gold.Chemscore.DEClash.Weighted>
0.1103

> <Gold.Chemscore.DEInternal.Weighted>
1.7974

> <Gold.Chemscore.Rot.Weighted>
5.0315

> <Gold.Chemscore.Internal.Correction.Weighted>
   9.000000E+99

> <Gold.Protein.RotatedTorsions>
[ 6907 6896 6895 6894 ] final  -17.68 input  -60.11 | X-H torsion
[ 7974 7965 7964 7962 ] final  -66.99 input  175.53 | X-H torsion
[ 8008 7997 7996 7995 ] final   73.48 input   59.86 | X-H torsion
[ 10167 10162 10161 10158 ] final   13.79 input  -65.29 | X-H torsion
[ 10718 10713 10712 10709 ] final   51.87 input   66.30 | X-H torsion
[ 10763 10752 10751 10750 ] final   99.86 input  -60.55 | X-H torsion
[ 11005 11000 10999 10996 ] final  110.83 input  -57.11 | X-H torsion

> <Gold.Protein.ActiveResidues>
 VAL166  LYS551  ARG553  GLY616  TRP617  ASP618  TYR619  PRO620  LYS621  CYS622 
 ASP623  PHE694  ASN695  SER759  ASP760  ASP761  ALA762  ILE779  LEU786  VAL792 
 PHE793  MET794  SER795  GLU796  ALA797  LYS798  CYS799  TRP800  GLU811  SER814 

> <Gold.Protein.RotatedAtoms>
  151.2896  135.0738  159.9199 H   0  0  0  0  0  0  0  0  0  0  0  0  # atno 6907 bound_to 6896
  152.5319  133.9945  159.7876 H   0  0  0  0  0  0  0  0  0  0  0  0  # atno 6908 bound_to 6896
  151.0213  133.5823  159.2701 H   0  0  0  0  0  0  0  0  0  0  0  0  # atno 6909 bound_to 6896
  145.7348  140.8980  143.0561 H   0  0  0  0  0  0  0  0  0  0  0  0  # atno 7974 bound_to 7965
  155.7842  140.3481  155.5314 H   0  0  0  0  0  0  0  0  0  0  0  0  # atno 8008 bound_to 7997
  155.8698  140.0984  157.1578 H   0  0  0  0  0  0  0  0  0  0  0  0  # atno 8009 bound_to 7997
  154.4017  140.1342  156.4051 H   0  0  0  0  0  0  0  0  0  0  0  0  # atno 8010 bound_to 7997
  140.5979  143.8664  150.6936 H   0  0  0  0  0  0  0  0  0  0  0  0  # atno 10167 bound_to 10162
  157.5022  130.8445  149.8330 H   0  0  0  0  0  0  0  0  0  0  0  0  # atno 10718 bound_to 10713
  153.3066  135.4099  155.1300 H   0  0  0  0  0  0  0  0  0  0  0  0  # atno 10763 bound_to 10752
  154.8564  135.3554  154.5779 H   0  0  0  0  0  0  0  0  0  0  0  0  # atno 10764 bound_to 10752
  153.6206  135.7064  153.5370 H   0  0  0  0  0  0  0  0  0  0  0  0  # atno 10765 bound_to 10752
  139.8890  134.9493  156.6339 H   0  0  0  0  0  0  0  0  0  0  0  0  # atno 11005 bound_to 11000
  144.6884  139.9380  143.7474 LP  0  0  0  0  0  0  0  0  0  0  0  0  # atno 17320 bound_to 7965
  146.0503  139.3505  143.0643 LP  0  0  0  0  0  0  0  0  0  0  0  0  # atno 17321 bound_to 7965
  140.2203  143.3814  152.1648 LP  0  0  0  0  0  0  0  0  0  0  0  0  # atno 17342 bound_to 10162
  139.5271  144.7115  151.5191 LP  0  0  0  0  0  0  0  0  0  0  0  0  # atno 17343 bound_to 10162
  156.0236  130.3787  150.1889 LP  0  0  0  0  0  0  0  0  0  0  0  0  # atno 17370 bound_to 10713
  157.0078  130.9942  151.3374 LP  0  0  0  0  0  0  0  0  0  0  0  0  # atno 17371 bound_to 10713
  140.7645  133.8789  155.8444 LP  0  0  0  0  0  0  0  0  0  0  0  0  # atno 17394 bound_to 11000
  140.9894  134.1299  157.4422 LP  0  0  0  0  0  0  0  0  0  0  0  0  # atno 17395 bound_to 11000

$$$$
