AV-unprocessed.smi:1749|AV-procd|sdf|7044|dock6
  -GOLD-   22720 8263D 1   1.00000     0.00000
 Structure written by MMmdl.
 32 33  0  0  0  0  0  0  0  0  1 V2000
  146.3575  139.0975  156.9265 C   0  0  0  0  0  0  0  0  0  0  0  0
  146.9811  140.2558  156.1355 C   0  0  2  0  0  0  0  0  0  0  0  0
  146.0054  140.8047  155.0768 C   0  0  0  0  0  0  0  0  0  0  0  0
  146.6270  141.9621  154.2793 C   0  0  0  0  0  0  0  0  0  0  0  0
  147.9587  141.5445  153.6313 C   0  0  0  0  0  0  0  0  0  0  0  0
  148.9544  140.9807  154.6630 C   0  0  1  0  0  0  0  0  0  0  0  0
  149.4229  142.0486  155.5427 N   0  0  0  0  0  0  0  0  0  0  0  0
  150.1941  141.8961  156.6315 C   0  0  0  0  0  0  0  0  0  0  0  0
  150.6494  140.8081  156.9793 O   0  0  0  0  0  0  0  0  0  0  0  0
  150.4551  143.0189  157.3338 N   0  0  0  0  0  0  0  0  0  0  0  0
  151.2208  143.2286  158.5177 C   0  0  0  0  0  0  0  0  0  0  0  0
  151.3181  142.3446  159.5249 N   0  0  0  0  0  0  0  0  0  0  0  0
  152.1490  142.7974  160.5403 N   0  0  0  0  0  0  0  0  0  0  0  0
  152.6588  143.9988  160.2559 C   0  0  0  0  0  0  0  0  0  0  0  0
  152.1720  144.6936  158.7194 S   0  0  0  0  0  0  0  0  0  0  0  0
  148.3119  139.8359  155.4759 C   0  0  0  0  0  0  0  0  0  0  0  0
  146.1192  138.2556  156.2760 H   0  0  0  0  0  0  0  0  0  0  0  0
  145.4361  139.4096  157.4187 H   0  0  0  0  0  0  0  0  0  0  0  0
  147.0381  138.7395  157.6994 H   0  0  0  0  0  0  0  0  0  0  0  0
  147.1905  141.0565  156.8465 H   0  0  0  0  0  0  0  0  0  0  0  0
  145.7175  140.0061  154.3916 H   0  0  0  0  0  0  0  0  0  0  0  0
  145.0871  141.1449  155.5568 H   0  0  0  0  0  0  0  0  0  0  0  0
  145.9308  142.2963  153.5099 H   0  0  0  0  0  0  0  0  0  0  0  0
  146.7874  142.8159  154.9387 H   0  0  0  0  0  0  0  0  0  0  0  0
  147.7618  140.7850  152.8737 H   0  0  0  0  0  0  0  0  0  0  0  0
  148.3995  142.3914  153.1037 H   0  0  0  0  0  0  0  0  0  0  0  0
  149.8133  140.5850  154.1181 H   0  0  0  0  0  0  0  0  0  0  0  0
  149.0990  142.9809  155.3279 H   0  0  0  0  0  0  0  0  0  0  0  0
  150.1036  143.8661  156.9123 H   0  0  0  0  0  0  0  0  0  0  0  0
  153.3290  144.4779  160.9540 H   0  0  0  0  0  0  0  0  0  0  0  0
  149.0094  139.4776  156.2343 H   0  0  0  0  0  0  0  0  0  0  0  0
  148.1318  138.9892  154.8120 H   0  0  0  0  0  0  0  0  0  0  0  0
  1  2  1  0  0  0  0
  1 17  1  0  0  0  0
  1 18  1  0  0  0  0
  1 19  1  0  0  0  0
  2 16  1  0  0  0  0
  2  3  1  0  0  0  0
  2 20  1  0  0  0  0
  3  4  1  0  0  0  0
  3 21  1  0  0  0  0
  3 22  1  0  0  0  0
  4  5  1  0  0  0  0
  4 23  1  0  0  0  0
  4 24  1  0  0  0  0
  5  6  1  0  0  0  0
  5 25  1  0  0  0  0
  5 26  1  0  0  0  0
  6  7  1  0  0  0  0
  6 16  1  0  0  0  0
  6 27  1  0  0  0  0
  7  8  1  0  0  0  0
  7 28  1  0  0  0  0
  8  9  2  0  0  0  0
  8 10  1  0  0  0  0
 10 11  1  0  0  0  0
 10 29  1  0  0  0  0
 11 15  1  0  0  0  0
 11 12  2  0  0  0  0
 12 13  1  0  0  0  0
 13 14  2  0  0  0  0
 14 15  1  0  0  0  0
 14 30  1  0  0  0  0
 16 31  1  0  0  0  0
 16 32  1  0  0  0  0
M  END
> <s_m_source_file>
AV-unprocessed.smi

> <i_m_source_file_index>
1749

> <i_lp_mmshare_version>
43012

> <i_f3d_flags>
0

> <s_epik_input>
W0NIM11bQ0BASF0xW0NIMl1bQ0gyXVtDSDJdW0NASF0oW0NIMl0xKVtOSF1DKD1PKVtOSF1jMm5uW2NIXXMy

> <s_epik_cmdline>
J2VwaWtfcHl0aG9uJywgJy1waCcsICc3LjAnLCAnLXRuJywgJzgnLCAnLW1hJywgJzIwMCcsICctbWV0YWxfYmluZGluZycsICctaW1hZScsICc8aW5maWxlLm1hZT4nLCAnLW9tYWUnLCAnPG91dGZpbGUubWFlPic=

> <r_lp_tautomer_probability>
1

> <r_epik_Ionization_Penalty>
0.000318591

> <r_epik_Ionization_Penalty_Charging>
0

> <r_epik_Ionization_Penalty_Neutral>
0.000318591

> <r_epik_State_Penalty>
-0

> <r_epik_Charging_Adjusted_Penalty>
0

> <i_epik_Tot_Q>
0

> <i_epik_Tot_abs_Q>
0

> <r_epik_Metal_State_Penalty>
0.169791

> <b_epik_Metal_Only>
0

> <s_lp_Force_Field>
OPLS_2005

> <r_lp_Energy>
10.2552

> <b_lp_Chiralities_Consistent>
1

> <s_lp_Variant>
AV-unprocessed.smi:1749-1

> <Gold.Version>
5.8.1

> <Gold.Id.Protein>
6NUR|6NUR_protein|mol2

> <Gold.PLP.Fitness>
32.9407

> <Gold.PLP.PLP>
-27.5715

> <Gold.PLP.part.hbond>
-3.3768

> <Gold.PLP.part.metal>
0.0000

> <Gold.PLP.part.buried>
-4.6448

> <Gold.PLP.part.nonpolar>
-19.3030

> <Gold.PLP.part.repulsive>
0.2431

> <Gold.PLP.ligand.clash>
0.0000

> <Gold.PLP.ligand.torsion>
0.3181

> <Gold.PLP.Chemscore.Hbond>
2.0000

> <Gold.PLP.Chemscore.CHOScore>
0.0000

> <Gold.PLP.Chemscore.Metal>
0.0000

> <Gold.Chemscore.Hbonds>
donor molecule, donor type, donor heavy atom, donor atom, acceptor molecule, acceptor atom, score
      L1  H     7    28       P1  8028  1.00
      L1  H    10    29       P1  8028  1.00

> <Gold.PLP.Chemscore.Internal.Correction>
0.0053

> <Gold.Rescore>
     Score         DG    S(hbond)    S(metal)    S(lipo)     H(rot)  DE(clash)    DE(int)     intcor
     14.57     -15.95       1.93        0.00      56.21       1.00       0.06       1.32       ----

> <Gold.Chemscore.Fitness>
14.5715

> <Gold.Chemscore.DG>
-15.9523

> <Gold.Chemscore.ZeroCoef>
-5.4800

> <Gold.Chemscore.Hbond>
1.9330

> <Gold.Chemscore.Metal>
0.0000

> <Gold.Chemscore.Lipo>
56.2056

> <Gold.Chemscore.Internal_Hbond>
0.0000

> <Gold.Chemscore.DEClash>
0.0574

> <Gold.Chemscore.DEInternal>
1.3235

> <Gold.Chemscore.Rot>
1.0000

> <Gold.Chemscore.Internal.Correction>
   9.000000E+99

> <Gold.Chemscore.Hbonds>
donor molecule, donor type, donor heavy atom, donor atom, acceptor molecule, acceptor atom, score
      L1  H     7    28       P1  8028  0.98
      L1  H    10    29       P1  8028  0.93

> <Gold.Chemscore.Hbond.Weighted>
-6.4563

> <Gold.Chemscore.Metal.Weighted>
-0.0000

> <Gold.Chemscore.Lipo.Weighted>
-6.5761

> <Gold.Chemscore.Internal_Hbond.Weighted>
0.0000

> <Gold.Chemscore.DEClash.Weighted>
0.0574

> <Gold.Chemscore.DEInternal.Weighted>
1.3235

> <Gold.Chemscore.Rot.Weighted>
2.5600

> <Gold.Chemscore.Internal.Correction.Weighted>
   9.000000E+99

> <Gold.Protein.RotatedTorsions>
[ 6907 6896 6895 6894 ] final    3.19 input  -60.11 | X-H torsion
[ 7974 7965 7964 7962 ] final  -37.55 input  175.53 | X-H torsion
[ 8008 7997 7996 7995 ] final -126.71 input   59.86 | X-H torsion
[ 10167 10162 10161 10158 ] final -103.60 input  -65.29 | X-H torsion
[ 10718 10713 10712 10709 ] final   43.66 input   66.30 | X-H torsion
[ 10763 10752 10751 10750 ] final  -13.52 input  -60.55 | X-H torsion
[ 11005 11000 10999 10996 ] final  120.02 input  -57.11 | X-H torsion

> <Gold.Protein.ActiveResidues>
 VAL166  LYS551  ARG553  GLY616  TRP617  ASP618  TYR619  PRO620  LYS621  CYS622 
 ASP623  PHE694  ASN695  SER759  ASP760  ASP761  ALA762  ILE779  LEU786  VAL792 
 PHE793  MET794  SER795  GLU796  ALA797  LYS798  CYS799  TRP800  GLU811  SER814 

> <Gold.Protein.RotatedAtoms>
  151.6211  135.1032  160.0101 H   0  0  0  0  0  0  0  0  0  0  0  0  # atno 6907 bound_to 6896
  152.4157  133.7031  159.6446 H   0  0  0  0  0  0  0  0  0  0  0  0  # atno 6908 bound_to 6896
  150.8046  133.8461  159.3233 H   0  0  0  0  0  0  0  0  0  0  0  0  # atno 6909 bound_to 6896
  146.0565  140.6409  142.9017 H   0  0  0  0  0  0  0  0  0  0  0  0  # atno 7974 bound_to 7965
  155.2341  140.0426  157.2966 H   0  0  0  0  0  0  0  0  0  0  0  0  # atno 8008 bound_to 7997
  154.5869  140.2416  155.7944 H   0  0  0  0  0  0  0  0  0  0  0  0  # atno 8009 bound_to 7997
  156.2232  140.2963  156.0012 H   0  0  0  0  0  0  0  0  0  0  0  0  # atno 8010 bound_to 7997
  140.2182  143.3695  152.0992 H   0  0  0  0  0  0  0  0  0  0  0  0  # atno 10167 bound_to 10162
  157.4183  130.7954  149.7492 H   0  0  0  0  0  0  0  0  0  0  0  0  # atno 10718 bound_to 10713
  153.5146  135.7016  153.5763 H   0  0  0  0  0  0  0  0  0  0  0  0  # atno 10763 bound_to 10752
  153.3839  135.3913  155.1876 H   0  0  0  0  0  0  0  0  0  0  0  0  # atno 10764 bound_to 10752
  154.8700  135.3841  154.4629 H   0  0  0  0  0  0  0  0  0  0  0  0  # atno 10765 bound_to 10752
  139.9169  134.9632  156.7743 H   0  0  0  0  0  0  0  0  0  0  0  0  # atno 11005 bound_to 11000
  144.7150  140.4179  143.7051 LP  0  0  0  0  0  0  0  0  0  0  0  0  # atno 17320 bound_to 7965
  145.6635  139.1586  143.2795 LP  0  0  0  0  0  0  0  0  0  0  0  0  # atno 17321 bound_to 7965
  139.5154  144.6962  151.5623 LP  0  0  0  0  0  0  0  0  0  0  0  0  # atno 17342 bound_to 10162
  140.6274  143.9142  150.6576 LP  0  0  0  0  0  0  0  0  0  0  0  0  # atno 17343 bound_to 10162
  155.9872  130.3968  150.3174 LP  0  0  0  0  0  0  0  0  0  0  0  0  # atno 17370 bound_to 10713
  157.1320  131.0274  151.2965 LP  0  0  0  0  0  0  0  0  0  0  0  0  # atno 17371 bound_to 10713
  140.6596  133.9657  155.7797 LP  0  0  0  0  0  0  0  0  0  0  0  0  # atno 17394 bound_to 11000
  141.0653  134.0286  157.3603 LP  0  0  0  0  0  0  0  0  0  0  0  0  # atno 17395 bound_to 11000

$$$$
