AV-unprocessed.smi:36|AV-procd|sdf|299|dock6
  -GOLD-   2262016103D 1   1.00000     0.00000
 Structure written by MMmdl.
 63 66  0  0  0  0  0  0  0  0  2 V2000
  142.8138  137.5433  152.9867 C   0  0  0  0  0  0  0  0  0  0  0  0
  142.9918  136.1610  153.6362 C   0  0  0  0  0  0  0  0  0  0  0  0
  141.6255  135.4637  153.7484 C   0  0  0  0  0  0  0  0  0  0  0  0
  143.9484  135.3045  152.7904 C   0  0  0  0  0  0  0  0  0  0  0  0
  143.7205  136.3824  155.3884 Si  0  0  0  0  0  0  0  0  0  0  0  0
  142.4806  137.2673  156.5273 C   0  0  0  0  0  0  0  0  0  0  0  0
  144.1948  134.7088  156.1511 C   0  0  0  0  0  0  0  0  0  0  0  0
  145.1310  137.3114  155.2496 O   0  0  0  0  0  0  0  0  0  0  0  0
  145.1534  138.7025  154.9954 C   0  0  0  0  0  0  0  0  0  0  0  0
  146.5408  139.0926  154.4635 C   0  0  2  0  0  0  0  0  0  0  0  0
  146.7698  140.4905  154.5764 O   0  0  0  0  0  0  0  0  0  0  0  0
  147.8847  140.8229  153.8070 C   0  0  1  0  0  0  0  0  0  0  0  0
  149.1067  140.7273  154.6726 N   0  0  0  0  0  0  0  0  0  0  0  0
  149.6070  141.6291  155.5448 C   0  0  0  0  0  0  0  0  0  0  0  0
  150.7337  141.3124  156.1793 N   0  0  0  0  0  0  0  0  0  0  0  0
  151.0160  140.0659  155.6408 C   0  0  0  0  0  0  0  0  0  0  0  0
  152.0820  139.1494  155.8529 C   0  0  0  0  0  0  0  0  0  0  0  0
  153.0808  139.3867  156.7166 N   0  5  0  0  0  0  0  0  0  0  0  0
  152.9558  139.0051  158.0132 C   0  0  0  0  0  0  0  0  0  0  0  0
  152.5951  137.9095  158.4490 O   0  0  0  0  0  0  0  0  0  0  0  0
  153.2401  140.1149  158.9892 C   0  0  0  0  0  0  0  0  0  0  0  0
  152.8195  141.4316  158.6929 C   0  0  0  0  0  0  0  0  0  0  0  0
  153.0552  142.4806  159.6028 C   0  0  0  0  0  0  0  0  0  0  0  0
  153.7052  142.2218  160.8239 C   0  0  0  0  0  0  0  0  0  0  0  0
  154.1152  140.9121  161.1366 C   0  0  0  0  0  0  0  0  0  0  0  0
  153.8809  139.8627  160.2265 C   0  0  0  0  0  0  0  0  0  0  0  0
  152.0463  137.9907  155.1459 N   0  0  0  0  0  0  0  0  0  0  0  0
  151.0516  137.7561  154.2817 C   0  0  0  0  0  0  0  0  0  0  0  0
  150.0016  138.5258  153.9787 N   0  0  0  0  0  0  0  0  0  0  0  0
  150.0195  139.6873  154.6952 C   0  0  0  0  0  0  0  0  0  0  0  0
  147.9478  139.7948  152.6611 C   0  0  0  0  0  0  0  0  0  0  0  0
  146.8080  138.8335  152.9781 C   0  0  2  0  0  0  0  0  0  0  0  0
  145.6741  139.1220  152.1819 O   0  0  0  0  0  0  0  0  0  0  0  0
  142.3804  137.4600  151.9895 H   0  0  0  0  0  0  0  0  0  0  0  0
  143.7669  138.0630  152.8875 H   0  0  0  0  0  0  0  0  0  0  0  0
  142.1539  138.1769  153.5803 H   0  0  0  0  0  0  0  0  0  0  0  0
  140.9310  136.0512  154.3496 H   0  0  0  0  0  0  0  0  0  0  0  0
  141.7139  134.4818  154.2141 H   0  0  0  0  0  0  0  0  0  0  0  0
  141.1705  135.3205  152.7677 H   0  0  0  0  0  0  0  0  0  0  0  0
  143.5614  135.1577  151.7814 H   0  0  0  0  0  0  0  0  0  0  0  0
  144.0953  134.3184  153.2320 H   0  0  0  0  0  0  0  0  0  0  0  0
  144.9281  135.7744  152.7004 H   0  0  0  0  0  0  0  0  0  0  0  0
  141.5765  136.6755  156.6683 H   0  0  0  0  0  0  0  0  0  0  0  0
  142.1737  138.2307  156.1204 H   0  0  0  0  0  0  0  0  0  0  0  0
  142.9028  137.4497  157.5150 H   0  0  0  0  0  0  0  0  0  0  0  0
  143.3292  134.0543  156.2513 H   0  0  0  0  0  0  0  0  0  0  0  0
  144.6256  134.8304  157.1448 H   0  0  0  0  0  0  0  0  0  0  0  0
  144.9305  134.1846  155.5418 H   0  0  0  0  0  0  0  0  0  0  0  0
  144.3825  138.9473  154.2637 H   0  0  0  0  0  0  0  0  0  0  0  0
  144.9148  139.2432  155.9115 H   0  0  0  0  0  0  0  0  0  0  0  0
  147.3066  138.5692  155.0348 H   0  0  0  0  0  0  0  0  0  0  0  0
  147.8602  141.8632  153.4809 H   0  0  0  0  0  0  0  0  0  0  0  0
  149.1184  142.5739  155.7304 H   0  0  0  0  0  0  0  0  0  0  0  0
  152.3178  141.6461  157.7602 H   0  0  0  0  0  0  0  0  0  0  0  0
  152.7357  143.4839  159.3630 H   0  0  0  0  0  0  0  0  0  0  0  0
  153.8853  143.0259  161.5217 H   0  0  0  0  0  0  0  0  0  0  0  0
  154.6076  140.7103  162.0764 H   0  0  0  0  0  0  0  0  0  0  0  0
  154.1940  138.8624  160.4893 H   0  0  0  0  0  0  0  0  0  0  0  0
  151.1041  136.8134  153.7576 H   0  0  0  0  0  0  0  0  0  0  0  0
  147.8305  140.2921  151.6973 H   0  0  0  0  0  0  0  0  0  0  0  0
  148.9070  139.2756  152.6633 H   0  0  0  0  0  0  0  0  0  0  0  0
  147.0945  137.7964  152.8007 H   0  0  0  0  0  0  0  0  0  0  0  0
  145.0968  139.6869  152.6724 H   0  0  0  0  0  0  0  0  0  0  0  0
  1  2  1  0  0  0  0
  1 34  1  0  0  0  0
  1 35  1  0  0  0  0
  1 36  1  0  0  0  0
  2  3  1  0  0  0  0
  2  4  1  0  0  0  0
  2  5  1  0  0  0  0
  3 37  1  0  0  0  0
  3 38  1  0  0  0  0
  3 39  1  0  0  0  0
  4 40  1  0  0  0  0
  4 41  1  0  0  0  0
  4 42  1  0  0  0  0
  5  6  1  0  0  0  0
  5  7  1  0  0  0  0
  5  8  1  0  0  0  0
  6 43  1  0  0  0  0
  6 44  1  0  0  0  0
  6 45  1  0  0  0  0
  7 46  1  0  0  0  0
  7 47  1  0  0  0  0
  7 48  1  0  0  0  0
  8  9  1  0  0  0  0
  9 10  1  0  0  0  0
  9 49  1  0  0  0  0
  9 50  1  0  0  0  0
 10 32  1  0  0  0  0
 10 11  1  0  0  0  0
 10 51  1  0  0  0  0
 11 12  1  0  0  0  0
 12 13  1  0  0  0  0
 12 31  1  0  0  0  0
 12 52  1  0  0  0  0
 13 30  1  0  0  0  0
 13 14  1  0  0  0  0
 14 15  2  0  0  0  0
 14 53  1  0  0  0  0
 15 16  1  0  0  0  0
 16 30  2  0  0  0  0
 16 17  1  0  0  0  0
 17 18  1  0  0  0  0
 17 27  2  0  0  0  0
 18 19  1  0  0  0  0
 19 20  2  0  0  0  0
 19 21  1  0  0  0  0
 21 26  1  0  0  0  0
 21 22  2  0  0  0  0
 22 23  1  0  0  0  0
 22 54  1  0  0  0  0
 23 24  2  0  0  0  0
 23 55  1  0  0  0  0
 24 25  1  0  0  0  0
 24 56  1  0  0  0  0
 25 26  2  0  0  0  0
 25 57  1  0  0  0  0
 26 58  1  0  0  0  0
 27 28  1  0  0  0  0
 28 29  2  0  0  0  0
 28 59  1  0  0  0  0
 29 30  1  0  0  0  0
 31 32  1  0  0  0  0
 31 60  1  0  0  0  0
 31 61  1  0  0  0  0
 32 33  1  0  0  0  0
 32 62  1  0  0  0  0
 33 63  1  0  0  0  0
M  CHG  1  18  -1
M  END
> <s_m_source_file>
AV-unprocessed.smi

> <i_m_source_file_index>
36

> <i_lp_mmshare_version>
43012

> <i_f3d_flags>
0

> <s_epik_input>
W0NIM11DKFtDSDNdKShbQ0gzXSlbU2ldKFtDSDNdKShbQ0gzXSlPW0NIMl1bQ0BASF0xT1tDQEhdKFtDSDJdW0NASF0xW09IXSluKFtjSF1uMiljKGMyMyluW2NIXW5jM1tOSF1DKD1PKWM0W2NIXVtjSF1bY0hdW2NIXVtjSF00

> <s_epik_cmdline>
J2VwaWtfcHl0aG9uJywgJy1waCcsICc3LjAnLCAnLXRuJywgJzgnLCAnLW1hJywgJzIwMCcsICctbWV0YWxfYmluZGluZycsICctaW1hZScsICc8aW5maWxlLm1hZT4nLCAnLW9tYWUnLCAnPG91dGZpbGUubWFlPic=

> <r_lp_tautomer_probability>
1

> <r_epik_Ionization_Penalty>
4.75685

> <r_epik_Ionization_Penalty_Charging>
3.55822

> <r_epik_Ionization_Penalty_Neutral>
1.19863

> <r_epik_State_Penalty>
3.564

> <r_epik_Charging_Adjusted_Penalty>
7.12222

> <i_epik_Tot_Q>
-1

> <i_epik_Tot_abs_Q>
1

> <r_epik_Metal_State_Penalty>
0.523258

> <b_epik_Metal_Only>
1

> <s_epik_Chemistry_Notes>
This compound contains an acetal/aminal-like group ( X-CH(R)-Y where X, Y are N, S, or O) that may be acid/base labile, releasing an aldehyde.

> <s_lp_Force_Field>
OPLS_2005

> <r_lp_Energy>
31.8214

> <b_lp_Chiralities_Consistent>
1

> <s_lp_Variant>
AV-unprocessed.smi:36-21

> <Gold.Version>
5.8.1

> <Gold.Id.Protein>
6NUR|6NUR_protein|mol2

> <Gold.PLP.Fitness>
61.3310

> <Gold.PLP.PLP>
-51.5780

> <Gold.PLP.part.hbond>
-3.0000

> <Gold.PLP.part.metal>
0.0000

> <Gold.PLP.part.buried>
-0.4776

> <Gold.PLP.part.nonpolar>
-49.2371

> <Gold.PLP.part.repulsive>
0.5000

> <Gold.PLP.ligand.clash>
0.0000

> <Gold.PLP.ligand.torsion>
2.7986

> <Gold.PLP.Chemscore.Hbond>
3.0000

> <Gold.PLP.Chemscore.CHOScore>
2.0000

> <Gold.PLP.Chemscore.Metal>
0.0000

> <Gold.Chemscore.Hbonds>
donor molecule, donor type, donor heavy atom, donor atom, acceptor molecule, acceptor atom, score
      L1  H    33    63       P1 10175  0.77
      P1  H  7997  8008       L1    18  1.82
      L1  C    14    53       P1  8028  1.00
      L1  C    28    59       P1  7948  0.01
      L1  C    28    59       P1  7949  1.00

> <Gold.PLP.Chemscore.Internal.Correction>
0.3503

> <Gold.Rescore>
     Score         DG    S(hbond)    S(metal)    S(lipo)     H(rot)  DE(clash)    DE(int)     intcor
     11.09     -17.11       1.89        0.00     103.96       2.67       2.18       3.84       ----

> <Gold.Chemscore.Fitness>
11.0886

> <Gold.Chemscore.DG>
-17.1089

> <Gold.Chemscore.ZeroCoef>
-5.4800

> <Gold.Chemscore.Hbond>
1.8866

> <Gold.Chemscore.Metal>
0.0000

> <Gold.Chemscore.Lipo>
103.9603

> <Gold.Chemscore.Internal_Hbond>
0.0000

> <Gold.Chemscore.DEClash>
2.1819

> <Gold.Chemscore.DEInternal>
3.8384

> <Gold.Chemscore.Rot>
2.6702

> <Gold.Chemscore.Internal.Correction>
   9.000000E+99

> <Gold.Chemscore.Hbonds>
donor molecule, donor type, donor heavy atom, donor atom, acceptor molecule, acceptor atom, score
      L1  H    33    63       P1 10175  0.75
      P1  H  7997  8008       L1    18  0.26

> <Gold.Chemscore.Hbond.Weighted>
-6.3013

> <Gold.Chemscore.Metal.Weighted>
-0.0000

> <Gold.Chemscore.Lipo.Weighted>
-12.1634

> <Gold.Chemscore.Internal_Hbond.Weighted>
0.0000

> <Gold.Chemscore.DEClash.Weighted>
2.1819

> <Gold.Chemscore.DEInternal.Weighted>
3.8384

> <Gold.Chemscore.Rot.Weighted>
6.8358

> <Gold.Chemscore.Internal.Correction.Weighted>
   9.000000E+99

> <Gold.Protein.RotatedTorsions>
[ 6907 6896 6895 6894 ] final   48.12 input  -60.11 | X-H torsion
[ 7974 7965 7964 7962 ] final -120.83 input  175.53 | X-H torsion
[ 8008 7997 7996 7995 ] final  -67.33 input   59.86 | X-H torsion
[ 10167 10162 10161 10158 ] final   33.64 input  -65.29 | X-H torsion
[ 10718 10713 10712 10709 ] final   94.36 input   66.30 | X-H torsion
[ 10763 10752 10751 10750 ] final  -71.79 input  -60.55 | X-H torsion
[ 11005 11000 10999 10996 ] final   12.59 input  -57.11 | X-H torsion

> <Gold.Protein.ActiveResidues>
 VAL166  LYS551  ARG553  GLY616  TRP617  ASP618  TYR619  PRO620  LYS621  CYS622 
 ASP623  PHE694  ASN695  SER759  ASP760  ASP761  ALA762  ILE779  LEU786  VAL792 
 PHE793  MET794  SER795  GLU796  ALA797  LYS798  CYS799  TRP800  GLU811  SER814 

> <Gold.Protein.RotatedAtoms>
  152.2758  134.7883  160.0405 H   0  0  0  0  0  0  0  0  0  0  0  0  # atno 6907 bound_to 6896
  151.8479  133.3429  159.3672 H   0  0  0  0  0  0  0  0  0  0  0  0  # atno 6908 bound_to 6896
  150.7170  134.5256  159.5719 H   0  0  0  0  0  0  0  0  0  0  0  0  # atno 6909 bound_to 6896
  145.0471  140.8189  143.4232 H   0  0  0  0  0  0  0  0  0  0  0  0  # atno 7974 bound_to 7965
  154.4793  140.0895  156.7338 H   0  0  0  0  0  0  0  0  0  0  0  0  # atno 8008 bound_to 7997
  155.4514  140.3457  155.4283 H   0  0  0  0  0  0  0  0  0  0  0  0  # atno 8009 bound_to 7997
  156.1166  140.1462  156.9253 H   0  0  0  0  0  0  0  0  0  0  0  0  # atno 8010 bound_to 7997
  140.4388  144.1217  150.6170 H   0  0  0  0  0  0  0  0  0  0  0  0  # atno 10167 bound_to 10162
  157.6948  131.0510  150.4175 H   0  0  0  0  0  0  0  0  0  0  0  0  # atno 10718 bound_to 10713
  154.4366  135.5951  153.6103 H   0  0  0  0  0  0  0  0  0  0  0  0  # atno 10763 bound_to 10752
  152.9802  135.5988  154.3773 H   0  0  0  0  0  0  0  0  0  0  0  0  # atno 10764 bound_to 10752
  154.3618  135.2841  155.2294 H   0  0  0  0  0  0  0  0  0  0  0  0  # atno 10765 bound_to 10752
  140.4903  134.0847  155.7770 H   0  0  0  0  0  0  0  0  0  0  0  0  # atno 11005 bound_to 11000
  145.1574  139.2478  143.5409 LP  0  0  0  0  0  0  0  0  0  0  0  0  # atno 17320 bound_to 7965
  146.3515  140.1293  142.8597 LP  0  0  0  0  0  0  0  0  0  0  0  0  # atno 17321 bound_to 7965
  140.4342  143.2554  151.9556 LP  0  0  0  0  0  0  0  0  0  0  0  0  # atno 17342 bound_to 10162
  139.4788  144.5715  151.8080 LP  0  0  0  0  0  0  0  0  0  0  0  0  # atno 17343 bound_to 10162
  156.4553  130.4020  149.6610 LP  0  0  0  0  0  0  0  0  0  0  0  0  # atno 17370 bound_to 10713
  156.3744  130.7547  151.2534 LP  0  0  0  0  0  0  0  0  0  0  0  0  # atno 17371 bound_to 10713
  141.1487  133.9007  157.2151 LP  0  0  0  0  0  0  0  0  0  0  0  0  # atno 17394 bound_to 11000
  139.9773  135.0109  156.9663 LP  0  0  0  0  0  0  0  0  0  0  0  0  # atno 17395 bound_to 11000

$$$$
