AV-unprocessed.smi:2529|AV-procd|sdf|9960|dock4
  -GOLD-   2272014 03D 1   1.00000     0.00000
 Structure written by MMmdl.
 44 46  0  0  0  0  0  0  0  0  1 V2000
  145.5525  138.4996  154.9583 C   0  0  0  0  0  0  0  0  0  0  0  0
  146.9743  139.0301  155.1916 C   0  0  2  0  0  0  0  0  0  0  0  0
  147.4858  139.8254  153.9780 C   0  0  0  0  0  0  0  0  0  0  0  0
  148.9075  140.3685  154.2087 C   0  0  0  0  0  0  0  0  0  0  0  0
  149.9266  139.2646  154.5896 C   0  0  1  0  0  0  0  0  0  0  0  0
  150.0835  138.3806  153.4932 O   0  0  0  0  0  0  0  0  0  0  0  0
  151.3443  139.7971  154.9537 C   0  0  0  0  0  0  0  0  0  0  0  0
  151.4074  140.6167  156.1802 N   0  0  0  0  0  0  0  0  0  0  0  0
  150.6769  141.8206  156.1574 C   0  0  0  0  0  0  0  0  0  0  0  0
  150.6646  142.6333  157.1650 N   0  0  0  0  0  0  0  0  0  0  0  0
  151.3964  142.3241  158.3167 C   0  0  0  0  0  0  0  0  0  0  0  0
  151.3198  143.3011  159.4816 C   0  0  0  0  0  0  0  0  0  0  0  0
  150.9150  144.7412  159.1267 C   0  0  0  0  0  0  0  0  0  0  0  0
  151.9338  145.2156  160.1689 C   0  0  0  0  0  0  0  0  0  0  0  0
  152.6585  143.8798  159.9704 C   0  0  0  0  0  0  0  0  0  0  0  0
  152.1181  141.1805  158.3874 C   0  0  0  0  0  0  0  0  0  0  0  0
  152.1577  140.2474  157.2610 C   0  0  0  0  0  0  0  0  0  0  0  0
  152.8138  139.2063  157.2906 O   0  0  0  0  0  0  0  0  0  0  0  0
  149.3784  138.4208  155.7659 C   0  0  0  0  0  0  0  0  0  0  0  0
  147.9530  137.8914  155.5260 C   0  0  0  0  0  0  0  0  0  0  0  0
  145.5185  137.8137  154.1112 H   0  0  0  0  0  0  0  0  0  0  0  0
  144.8582  139.3151  154.7537 H   0  0  0  0  0  0  0  0  0  0  0  0
  145.1836  137.9658  155.8345 H   0  0  0  0  0  0  0  0  0  0  0  0
  146.9370  139.7062  156.0472 H   0  0  0  0  0  0  0  0  0  0  0  0
  147.4744  139.1922  153.0898 H   0  0  0  0  0  0  0  0  0  0  0  0
  146.8115  140.6564  153.7680 H   0  0  0  0  0  0  0  0  0  0  0  0
  149.2313  140.8986  153.3125 H   0  0  0  0  0  0  0  0  0  0  0  0
  148.8677  141.1106  155.0068 H   0  0  0  0  0  0  0  0  0  0  0  0
  150.2530  138.8911  152.7164 H   0  0  0  0  0  0  0  0  0  0  0  0
  152.0205  138.9479  155.0636 H   0  0  0  0  0  0  0  0  0  0  0  0
  151.7663  140.3476  154.1099 H   0  0  0  0  0  0  0  0  0  0  0  0
  150.1269  142.0158  155.2352 H   0  0  0  0  0  0  0  0  0  0  0  0
  150.7250  142.9025  160.3054 H   0  0  0  0  0  0  0  0  0  0  0  0
  151.1905  145.0338  158.1117 H   0  0  0  0  0  0  0  0  0  0  0  0
  149.8786  144.9933  159.3526 H   0  0  0  0  0  0  0  0  0  0  0  0
  152.5095  146.0956  159.8803 H   0  0  0  0  0  0  0  0  0  0  0  0
  151.5030  145.3205  161.1660 H   0  0  0  0  0  0  0  0  0  0  0  0
  153.0447  143.4279  160.8841 H   0  0  0  0  0  0  0  0  0  0  0  0
  153.4226  143.9350  159.1925 H   0  0  0  0  0  0  0  0  0  0  0  0
  152.6747  140.9456  159.2828 H   0  0  0  0  0  0  0  0  0  0  0  0
  150.0474  137.5854  155.9774 H   0  0  0  0  0  0  0  0  0  0  0  0
  149.3669  139.0310  156.6703 H   0  0  0  0  0  0  0  0  0  0  0  0
  147.6114  137.3580  156.4137 H   0  0  0  0  0  0  0  0  0  0  0  0
  147.9616  137.1604  154.7165 H   0  0  0  0  0  0  0  0  0  0  0  0
  1  2  1  0  0  0  0
  1 21  1  0  0  0  0
  1 22  1  0  0  0  0
  1 23  1  0  0  0  0
  2 20  1  0  0  0  0
  2  3  1  0  0  0  0
  2 24  1  0  0  0  0
  3  4  1  0  0  0  0
  3 25  1  0  0  0  0
  3 26  1  0  0  0  0
  4  5  1  0  0  0  0
  4 27  1  0  0  0  0
  4 28  1  0  0  0  0
  5  6  1  0  0  0  0
  5  7  1  0  0  0  0
  5 19  1  0  0  0  0
  6 29  1  0  0  0  0
  7  8  1  0  0  0  0
  7 30  1  0  0  0  0
  7 31  1  0  0  0  0
  8 17  1  0  0  0  0
  8  9  1  0  0  0  0
  9 10  2  0  0  0  0
  9 32  1  0  0  0  0
 10 11  1  0  0  0  0
 11 12  1  0  0  0  0
 11 16  2  0  0  0  0
 12 15  1  0  0  0  0
 12 13  1  0  0  0  0
 12 33  1  0  0  0  0
 13 14  1  0  0  0  0
 13 34  1  0  0  0  0
 13 35  1  0  0  0  0
 14 15  1  0  0  0  0
 14 36  1  0  0  0  0
 14 37  1  0  0  0  0
 15 38  1  0  0  0  0
 15 39  1  0  0  0  0
 16 17  1  0  0  0  0
 16 40  1  0  0  0  0
 17 18  2  0  0  0  0
 19 20  1  0  0  0  0
 19 41  1  0  0  0  0
 19 42  1  0  0  0  0
 20 43  1  0  0  0  0
 20 44  1  0  0  0  0
M  END
> <s_m_source_file>
AV-unprocessed.smi

> <i_m_source_file_index>
2529

> <i_lp_mmshare_version>
43012

> <i_f3d_flags>
0

> <s_epik_input>
W0NIMl0xW0NIMl1bQ0BIXShbQ0gzXSlbQ0gyXVtDSDJdW0NAQF0xKFtPSF0pW0NIMl1uMltjSF1uYyhbY0hdYzI9TylbQ0hdM1tDSDJdW0NIMl1bQ0gyXTM=

> <s_epik_cmdline>
J2VwaWtfcHl0aG9uJywgJy1waCcsICc3LjAnLCAnLXRuJywgJzgnLCAnLW1hJywgJzIwMCcsICctbWV0YWxfYmluZGluZycsICctaW1hZScsICc8aW5maWxlLm1hZT4nLCAnLW9tYWUnLCAnPG91dGZpbGUubWFlPic=

> <r_lp_tautomer_probability>
1

> <r_epik_Ionization_Penalty>
9.15498e-05

> <r_epik_Ionization_Penalty_Charging>
1.67865e-07

> <r_epik_Ionization_Penalty_Neutral>
9.13819e-05

> <r_epik_State_Penalty>
-0

> <r_epik_Charging_Adjusted_Penalty>
1.67865e-07

> <i_epik_Tot_Q>
0

> <i_epik_Tot_abs_Q>
0

> <r_epik_Metal_State_Penalty>
-0

> <b_epik_Metal_Only>
0

> <s_lp_Force_Field>
OPLS_2005

> <r_lp_Energy>
32.8679

> <b_lp_Chiralities_Consistent>
1

> <s_lp_Variant>
AV-unprocessed.smi:2529-1

> <Gold.Version>
5.8.1

> <Gold.Id.Protein>
6NUR|6NUR_protein|mol2

> <Gold.PLP.Fitness>
42.3097

> <Gold.PLP.PLP>
-36.7148

> <Gold.PLP.part.hbond>
-3.1192

> <Gold.PLP.part.metal>
0.0000

> <Gold.PLP.part.buried>
-1.7078

> <Gold.PLP.part.nonpolar>
-31.6765

> <Gold.PLP.part.repulsive>
0.2330

> <Gold.PLP.ligand.clash>
0.0000

> <Gold.PLP.ligand.torsion>
0.3434

> <Gold.PLP.Chemscore.Hbond>
1.9500

> <Gold.PLP.Chemscore.CHOScore>
0.0000

> <Gold.PLP.Chemscore.Metal>
0.0000

> <Gold.Chemscore.Hbonds>
donor molecule, donor type, donor heavy atom, donor atom, acceptor molecule, acceptor atom, score
      L1  H     6    29       P1  7957  1.00
      P1  H  7997  8010       L1    18  0.85

> <Gold.PLP.Chemscore.Internal.Correction>
0.4317

> <Gold.Rescore>
     Score         DG    S(hbond)    S(metal)    S(lipo)     H(rot)  DE(clash)    DE(int)     intcor
     13.96     -16.84       1.63        0.00      89.72       1.80       1.39       1.48       ----

> <Gold.Chemscore.Fitness>
13.9598

> <Gold.Chemscore.DG>
-16.8386

> <Gold.Chemscore.ZeroCoef>
-5.4800

> <Gold.Chemscore.Hbond>
1.6350

> <Gold.Chemscore.Metal>
0.0000

> <Gold.Chemscore.Lipo>
89.7225

> <Gold.Chemscore.Internal_Hbond>
0.0000

> <Gold.Chemscore.DEClash>
1.3939

> <Gold.Chemscore.DEInternal>
1.4849

> <Gold.Chemscore.Rot>
1.7968

> <Gold.Chemscore.Internal.Correction>
   9.000000E+99

> <Gold.Chemscore.Hbonds>
donor molecule, donor type, donor heavy atom, donor atom, acceptor molecule, acceptor atom, score
      L1  H     6    29       P1  7957  0.41
      P1  H  7997  8010       L1    18  0.14

> <Gold.Chemscore.Hbond.Weighted>
-5.4608

> <Gold.Chemscore.Metal.Weighted>
-0.0000

> <Gold.Chemscore.Lipo.Weighted>
-10.4975

> <Gold.Chemscore.Internal_Hbond.Weighted>
0.0000

> <Gold.Chemscore.DEClash.Weighted>
1.3939

> <Gold.Chemscore.DEInternal.Weighted>
1.4849

> <Gold.Chemscore.Rot.Weighted>
4.5997

> <Gold.Chemscore.Internal.Correction.Weighted>
   9.000000E+99

> <Gold.Protein.RotatedTorsions>
[ 6907 6896 6895 6894 ] final  -40.22 input  -60.11 | X-H torsion
[ 7974 7965 7964 7962 ] final  -71.01 input  175.53 | X-H torsion
[ 8008 7997 7996 7995 ] final   33.90 input   59.86 | X-H torsion
[ 10167 10162 10161 10158 ] final  -44.75 input  -65.29 | X-H torsion
[ 10718 10713 10712 10709 ] final  -77.30 input   66.30 | X-H torsion
[ 10763 10752 10751 10750 ] final  -65.98 input  -60.55 | X-H torsion
[ 11005 11000 10999 10996 ] final -123.55 input  -57.11 | X-H torsion

> <Gold.Protein.ActiveResidues>
 VAL166  LYS551  ARG553  GLY616  TRP617  ASP618  TYR619  PRO620  LYS621  CYS622 
 ASP623  PHE694  ASN695  SER759  ASP760  ASP761  ALA762  ILE779  LEU786  VAL792 
 PHE793  MET794  SER795  GLU796  ALA797  LYS798  CYS799  TRP800  GLU811  SER814 

> <Gold.Protein.RotatedAtoms>
  150.9810  134.9165  159.7844 H   0  0  0  0  0  0  0  0  0  0  0  0  # atno 6907 bound_to 6896
  152.5222  134.3410  159.9227 H   0  0  0  0  0  0  0  0  0  0  0  0  # atno 6908 bound_to 6896
  151.3417  133.3919  159.2706 H   0  0  0  0  0  0  0  0  0  0  0  0  # atno 6909 bound_to 6896
  145.6836  140.9179  143.0819 H   0  0  0  0  0  0  0  0  0  0  0  0  # atno 7974 bound_to 7965
  155.1461  140.3270  155.4441 H   0  0  0  0  0  0  0  0  0  0  0  0  # atno 8008 bound_to 7997
  156.2589  140.1985  156.6524 H   0  0  0  0  0  0  0  0  0  0  0  0  # atno 8009 bound_to 7997
  154.6507  140.0559  156.9939 H   0  0  0  0  0  0  0  0  0  0  0  0  # atno 8010 bound_to 7997
  140.6885  143.2914  151.3540 H   0  0  0  0  0  0  0  0  0  0  0  0  # atno 10167 bound_to 10162
  156.0149  130.4488  150.3324 H   0  0  0  0  0  0  0  0  0  0  0  0  # atno 10718 bound_to 10713
  154.3531  135.6132  153.5652 H   0  0  0  0  0  0  0  0  0  0  0  0  # atno 10763 bound_to 10752
  152.9797  135.5797  154.4720 H   0  0  0  0  0  0  0  0  0  0  0  0  # atno 10764 bound_to 10752
  154.4445  135.2851  155.1802 H   0  0  0  0  0  0  0  0  0  0  0  0  # atno 10765 bound_to 10752
  140.9910  134.0538  157.3654 H   0  0  0  0  0  0  0  0  0  0  0  0  # atno 11005 bound_to 11000
  144.7018  139.8729  143.7442 LP  0  0  0  0  0  0  0  0  0  0  0  0  # atno 17320 bound_to 7965
  146.0942  139.3934  143.0386 LP  0  0  0  0  0  0  0  0  0  0  0  0  # atno 17321 bound_to 7965
  139.6264  144.0805  152.2438 LP  0  0  0  0  0  0  0  0  0  0  0  0  # atno 17342 bound_to 10162
  140.0266  144.6113  150.7522 LP  0  0  0  0  0  0  0  0  0  0  0  0  # atno 17343 bound_to 10162
  157.1422  131.0299  151.2923 LP  0  0  0  0  0  0  0  0  0  0  0  0  # atno 17370 bound_to 10713
  157.4462  130.7572  149.7112 LP  0  0  0  0  0  0  0  0  0  0  0  0  # atno 17371 bound_to 10713
  139.8992  135.0158  156.7186 LP  0  0  0  0  0  0  0  0  0  0  0  0  # atno 17394 bound_to 11000
  140.7039  133.9282  155.8042 LP  0  0  0  0  0  0  0  0  0  0  0  0  # atno 17395 bound_to 11000

$$$$
