AV-unprocessed.smi:3303|AV-procd|sdf|12691|dock3
  -GOLD-   2272019 23D 1   1.00000     0.00000
 Structure written by MMmdl.
 44 45  0  0  0  0  0  0  0  0  2 V2000
  151.0748  139.6975  154.6404 C   0  0  0  0  0  0  0  0  0  0  0  0
  149.7999  139.9664  155.4673 C   0  0  2  0  0  0  0  0  0  0  0  0
  148.6003  139.1701  154.9139 C   0  0  0  0  0  0  0  0  0  0  0  0
  148.1183  139.7308  153.6248 N   0  3  1  0  0  0  0  0  0  0  0  0
  147.1192  138.8644  152.9596 C   0  0  0  0  0  0  0  0  0  0  0  0
  147.7234  141.1666  153.7083 C   0  0  1  0  0  0  0  0  0  0  0  0
  146.4170  141.4048  154.4964 C   0  0  0  0  0  0  0  0  0  0  0  0
  148.8958  142.0086  154.2508 C   0  0  0  0  0  0  0  0  0  0  0  0
  149.4248  141.4671  155.5923 C   0  0  2  0  0  0  0  0  0  0  0  0
  150.5396  142.3026  156.0267 N   0  0  0  0  0  0  0  0  0  0  0  0
  151.0014  141.9528  157.3624 C   0  0  0  0  0  0  0  0  0  0  0  0
  151.8554  143.0958  157.9270 C   0  0  0  0  0  0  0  0  0  0  0  0
  152.3729  142.7848  159.3185 C   0  0  0  0  0  0  0  0  0  0  0  0
  152.1047  143.6544  160.3974 C   0  0  0  0  0  0  0  0  0  0  0  0
  152.6166  143.3255  161.6673 C   0  0  0  0  0  0  0  0  0  0  0  0
  153.3743  142.1470  161.8088 C   0  0  0  0  0  0  0  0  0  0  0  0
  153.5870  141.3461  160.6689 C   0  0  0  0  0  0  0  0  0  0  0  0
  153.1010  141.6524  159.4464 N   0  0  0  0  0  0  0  0  0  0  0  0
  150.9766  140.0426  153.6116 H   0  0  0  0  0  0  0  0  0  0  0  0
  151.2980  138.6310  154.6071 H   0  0  0  0  0  0  0  0  0  0  0  0
  151.9453  140.1907  155.0736 H   0  0  0  0  0  0  0  0  0  0  0  0
  149.9904  139.5778  156.4677 H   0  0  0  0  0  0  0  0  0  0  0  0
  148.8878  138.1272  154.7726 H   0  0  0  0  0  0  0  0  0  0  0  0
  147.7868  139.1627  155.6397 H   0  0  0  0  0  0  0  0  0  0  0  0
  146.2396  138.7137  153.5860 H   0  0  0  0  0  0  0  0  0  0  0  0
  147.5501  137.8857  152.7472 H   0  0  0  0  0  0  0  0  0  0  0  0
  146.7995  139.2975  152.0113 H   0  0  0  0  0  0  0  0  0  0  0  0
  147.5403  141.5034  152.6869 H   0  0  0  0  0  0  0  0  0  0  0  0
  146.1786  142.4682  154.5308 H   0  0  0  0  0  0  0  0  0  0  0  0
  146.4819  141.0559  155.5264 H   0  0  0  0  0  0  0  0  0  0  0  0
  145.5664  140.9081  154.0297 H   0  0  0  0  0  0  0  0  0  0  0  0
  149.6994  142.0187  153.5132 H   0  0  0  0  0  0  0  0  0  0  0  0
  148.5832  143.0479  154.3618 H   0  0  0  0  0  0  0  0  0  0  0  0
  148.6267  141.5692  156.3290 H   0  0  0  0  0  0  0  0  0  0  0  0
  150.2495  143.2705  156.0285 H   0  0  0  0  0  0  0  0  0  0  0  0
  150.1448  141.7709  158.0130 H   0  0  0  0  0  0  0  0  0  0  0  0
  151.5932  141.0382  157.3322 H   0  0  0  0  0  0  0  0  0  0  0  0
  152.7019  143.2920  157.2671 H   0  0  0  0  0  0  0  0  0  0  0  0
  151.2744  144.0188  157.9642 H   0  0  0  0  0  0  0  0  0  0  0  0
  151.5228  144.5535  160.2570 H   0  0  0  0  0  0  0  0  0  0  0  0
  152.4324  143.9663  162.5169 H   0  0  0  0  0  0  0  0  0  0  0  0
  153.7830  141.8635  162.7673 H   0  0  0  0  0  0  0  0  0  0  0  0
  154.1639  140.4359  160.7404 H   0  0  0  0  0  0  0  0  0  0  0  0
  148.9239  139.7184  153.0153 H   0  0  0  0  0  0  0  0  0  0  0  0
  1  2  1  0  0  0  0
  1 19  1  0  0  0  0
  1 20  1  0  0  0  0
  1 21  1  0  0  0  0
  2  9  1  0  0  0  0
  2  3  1  0  0  0  0
  2 22  1  0  0  0  0
  3  4  1  0  0  0  0
  3 23  1  0  0  0  0
  3 24  1  0  0  0  0
  4  5  1  0  0  0  0
  4  6  1  0  0  0  0
  4 44  1  0  0  0  0
  5 25  1  0  0  0  0
  5 26  1  0  0  0  0
  5 27  1  0  0  0  0
  6  7  1  0  0  0  0
  6  8  1  0  0  0  0
  6 28  1  0  0  0  0
  7 29  1  0  0  0  0
  7 30  1  0  0  0  0
  7 31  1  0  0  0  0
  8  9  1  0  0  0  0
  8 32  1  0  0  0  0
  8 33  1  0  0  0  0
  9 10  1  0  0  0  0
  9 34  1  0  0  0  0
 10 11  1  0  0  0  0
 10 35  1  0  0  0  0
 11 12  1  0  0  0  0
 11 36  1  0  0  0  0
 11 37  1  0  0  0  0
 12 13  1  0  0  0  0
 12 38  1  0  0  0  0
 12 39  1  0  0  0  0
 13 18  1  0  0  0  0
 13 14  2  0  0  0  0
 14 15  1  0  0  0  0
 14 40  1  0  0  0  0
 15 16  2  0  0  0  0
 15 41  1  0  0  0  0
 16 17  1  0  0  0  0
 16 42  1  0  0  0  0
 17 18  2  0  0  0  0
 17 43  1  0  0  0  0
M  CHG  1   4   1
M  END
> <s_m_source_file>
AV-unprocessed.smi

> <i_m_source_file_index>
3303

> <i_lp_mmshare_version>
43012

> <i_f3d_flags>
0

> <s_epik_input>
W0NIM11bQ0BASF0xW0NIMl1OKFtDSDNdKVtDQEBIXShbQ0gzXSlbQ0gyXVtDQEhdMVtOSF1bQ0gyXVtDSDJdYzJbY0hdW2NIXVtjSF1bY0hdbjI=

> <s_epik_cmdline>
J2VwaWtfcHl0aG9uJywgJy1waCcsICc3LjAnLCAnLXRuJywgJzgnLCAnLW1hJywgJzIwMCcsICctbWV0YWxfYmluZGluZycsICctaW1hZScsICc8aW5maWxlLm1hZT4nLCAnLW9tYWUnLCAnPG91dGZpbGUubWFlPic=

> <r_epik_Ionization_Penalty>
2.31085

> <r_epik_Ionization_Penalty_Charging>
0.000313057

> <r_epik_Ionization_Penalty_Neutral>
2.31054

> <r_epik_State_Penalty>
2.4087

> <r_epik_Charging_Adjusted_Penalty>
2.40902

> <i_epik_Tot_Q>
1

> <i_epik_Tot_abs_Q>
1

> <r_epik_Metal_State_Penalty>
2.30979

> <b_epik_Metal_Only>
0

> <s_lp_Force_Field>
OPLS_2005

> <r_lp_Energy>
26.3276

> <b_lp_Chiralities_Consistent>
1

> <s_lp_Variant>
AV-unprocessed.smi:3303-35

> <Gold.Version>
5.8.1

> <Gold.Id.Protein>
6NUR|6NUR_protein|mol2

> <Gold.PLP.Fitness>
44.9481

> <Gold.PLP.PLP>
-39.4359

> <Gold.PLP.part.hbond>
-2.0000

> <Gold.PLP.part.metal>
0.0000

> <Gold.PLP.part.buried>
2.1090

> <Gold.PLP.part.nonpolar>
-39.2080

> <Gold.PLP.part.repulsive>
0.0623

> <Gold.PLP.ligand.clash>
0.0000

> <Gold.PLP.ligand.torsion>
0.0954

> <Gold.PLP.Chemscore.Hbond>
1.8960

> <Gold.PLP.Chemscore.CHOScore>
0.0000

> <Gold.PLP.Chemscore.Metal>
0.0000

> <Gold.Chemscore.Hbonds>
donor molecule, donor type, donor heavy atom, donor atom, acceptor molecule, acceptor atom, score
      L1  H     4    44       P1  7957  0.91
      L1  H    10    35       P1  8028  1.00

> <Gold.PLP.Chemscore.Internal.Correction>
0.0150

> <Gold.Rescore>
     Score         DG    S(hbond)    S(metal)    S(lipo)     H(rot)  DE(clash)    DE(int)     intcor
     20.55     -22.52       1.70        0.00     126.16       1.33       1.91       0.07       ----

> <Gold.Chemscore.Fitness>
20.5477

> <Gold.Chemscore.DG>
-22.5193

> <Gold.Chemscore.ZeroCoef>
-5.4800

> <Gold.Chemscore.Hbond>
1.6996

> <Gold.Chemscore.Metal>
0.0000

> <Gold.Chemscore.Lipo>
126.1560

> <Gold.Chemscore.Internal_Hbond>
0.0000

> <Gold.Chemscore.DEClash>
1.9063

> <Gold.Chemscore.DEInternal>
0.0653

> <Gold.Chemscore.Rot>
1.3272

> <Gold.Chemscore.Internal.Correction>
   9.000000E+99

> <Gold.Chemscore.Hbonds>
donor molecule, donor type, donor heavy atom, donor atom, acceptor molecule, acceptor atom, score
      L1  H     4    44       P1  7957  0.86
      L1  H    10    35       P1  8028  0.91

> <Gold.Chemscore.Hbond.Weighted>
-5.6767

> <Gold.Chemscore.Metal.Weighted>
-0.0000

> <Gold.Chemscore.Lipo.Weighted>
-14.7603

> <Gold.Chemscore.Internal_Hbond.Weighted>
0.0000

> <Gold.Chemscore.DEClash.Weighted>
1.9063

> <Gold.Chemscore.DEInternal.Weighted>
0.0653

> <Gold.Chemscore.Rot.Weighted>
3.3976

> <Gold.Chemscore.Internal.Correction.Weighted>
   9.000000E+99

> <Gold.Protein.RotatedTorsions>
[ 6907 6896 6895 6894 ] final  -28.33 input  -60.11 | X-H torsion
[ 7974 7965 7964 7962 ] final   59.64 input  175.53 | X-H torsion
[ 8008 7997 7996 7995 ] final   65.12 input   59.86 | X-H torsion
[ 10167 10162 10161 10158 ] final   39.52 input  -65.29 | X-H torsion
[ 10718 10713 10712 10709 ] final   42.30 input   66.30 | X-H torsion
[ 10763 10752 10751 10750 ] final   13.80 input  -60.55 | X-H torsion
[ 11005 11000 10999 10996 ] final   13.53 input  -57.11 | X-H torsion

> <Gold.Protein.ActiveResidues>
 VAL166  LYS551  ARG553  GLY616  TRP617  ASP618  TYR619  PRO620  LYS621  CYS622 
 ASP623  PHE694  ASN695  SER759  ASP760  ASP761  ALA762  ILE779  LEU786  VAL792 
 PHE793  MET794  SER795  GLU796  ALA797  LYS798  CYS799  TRP800  GLU811  SER814 

> <Gold.Protein.RotatedAtoms>
  151.1344  135.0147  159.8596 H   0  0  0  0  0  0  0  0  0  0  0  0  # atno 6907 bound_to 6896
  152.5451  134.1572  159.8553 H   0  0  0  0  0  0  0  0  0  0  0  0  # atno 6908 bound_to 6896
  151.1642  133.4780  159.2627 H   0  0  0  0  0  0  0  0  0  0  0  0  # atno 6909 bound_to 6896
  145.9049  139.3609  143.0570 H   0  0  0  0  0  0  0  0  0  0  0  0  # atno 7974 bound_to 7965
  155.6568  140.3497  155.4768 H   0  0  0  0  0  0  0  0  0  0  0  0  # atno 8008 bound_to 7997
  155.9802  140.1173  157.0756 H   0  0  0  0  0  0  0  0  0  0  0  0  # atno 8009 bound_to 7997
  154.4189  140.1139  156.5411 H   0  0  0  0  0  0  0  0  0  0  0  0  # atno 8010 bound_to 7997
  140.3832  144.1952  150.6130 H   0  0  0  0  0  0  0  0  0  0  0  0  # atno 10167 bound_to 10162
  157.4033  130.7872  149.7367 H   0  0  0  0  0  0  0  0  0  0  0  0  # atno 10718 bound_to 10713
  153.1685  135.6808  153.8641 H   0  0  0  0  0  0  0  0  0  0  0  0  # atno 10763 bound_to 10752
  153.8013  135.3155  155.3391 H   0  0  0  0  0  0  0  0  0  0  0  0  # atno 10764 bound_to 10752
  154.7982  135.4794  154.0302 H   0  0  0  0  0  0  0  0  0  0  0  0  # atno 10765 bound_to 10752
  140.4797  134.0948  155.7748 H   0  0  0  0  0  0  0  0  0  0  0  0  # atno 11005 bound_to 11000
  145.8744  140.9400  143.0634 LP  0  0  0  0  0  0  0  0  0  0  0  0  # atno 17320 bound_to 7965
  144.6738  140.0697  143.7473 LP  0  0  0  0  0  0  0  0  0  0  0  0  # atno 17321 bound_to 7965
  140.4916  143.2345  151.8809 LP  0  0  0  0  0  0  0  0  0  0  0  0  # atno 17342 bound_to 10162
  139.4794  144.5159  151.8869 LP  0  0  0  0  0  0  0  0  0  0  0  0  # atno 17343 bound_to 10162
  155.9829  130.4005  150.3391 LP  0  0  0  0  0  0  0  0  0  0  0  0  # atno 17370 bound_to 10713
  157.1521  131.0323  151.2880 LP  0  0  0  0  0  0  0  0  0  0  0  0  # atno 17371 bound_to 10713
  141.1537  133.8921  157.2032 LP  0  0  0  0  0  0  0  0  0  0  0  0  # atno 17394 bound_to 11000
  139.9834  135.0090  156.9805 LP  0  0  0  0  0  0  0  0  0  0  0  0  # atno 17395 bound_to 11000

$$$$
