AV-unprocessed.smi:293|AV-procd|sdf|2251|dock7
  -GOLD-   2262022133D 1   1.00000     0.00000
 Structure written by MMmdl.
 32 33  0  0  0  0  0  0  0  0  1 V2000
  154.5473  138.3146  154.6981 N   0  0  0  0  0  0  0  0  0  0  0  0
  153.4093  138.4892  154.5800 C   0  0  0  0  0  0  0  0  0  0  0  0
  151.9805  138.7082  154.4316 C   0  0  0  0  0  0  0  0  0  0  0  0
  151.1416  137.7044  154.0427 N   0  0  0  0  0  0  0  0  0  0  0  0
  149.9959  138.3746  154.0609 C   0  0  0  0  0  0  0  0  0  0  0  0
  150.1217  139.6557  154.4233 N   0  0  0  0  0  0  0  0  0  0  0  0
  149.1193  140.6947  154.5768 C   0  0  0  0  0  0  0  0  0  0  0  0
  149.2950  141.4368  155.9024 C   0  0  0  0  0  0  0  0  0  0  0  0
  148.3103  141.8702  156.4999 O   0  0  0  0  0  0  0  0  0  0  0  0
  150.5534  141.5705  156.3500 N   0  0  0  0  0  0  0  0  0  0  0  0
  150.9443  142.2123  157.6007 C   0  0  0  0  0  0  0  0  0  0  0  0
  151.6080  143.5688  157.2954 C   0  0  0  0  0  0  0  0  0  0  0  0
  152.1010  144.2584  158.5778 C   0  0  0  0  0  0  0  0  0  0  0  0
  153.0535  143.3483  159.3686 C   0  0  0  0  0  0  0  0  0  0  0  0
  152.3940  141.9964  159.6829 C   0  0  0  0  0  0  0  0  0  0  0  0
  151.9009  141.3039  158.4020 C   0  0  0  0  0  0  0  0  0  0  0  0
  151.4322  139.8971  154.6730 N   0  0  0  0  0  0  0  0  0  0  0  0
  149.0465  137.9233  153.8111 H   0  0  0  0  0  0  0  0  0  0  0  0
  149.1879  141.3963  153.7440 H   0  0  0  0  0  0  0  0  0  0  0  0
  148.1307  140.2357  154.5319 H   0  0  0  0  0  0  0  0  0  0  0  0
  151.2970  141.1813  155.7880 H   0  0  0  0  0  0  0  0  0  0  0  0
  150.0494  142.3986  158.1980 H   0  0  0  0  0  0  0  0  0  0  0  0
  152.4517  143.4230  156.6190 H   0  0  0  0  0  0  0  0  0  0  0  0
  150.9050  144.2210  156.7758 H   0  0  0  0  0  0  0  0  0  0  0  0
  152.6030  145.1932  158.3273 H   0  0  0  0  0  0  0  0  0  0  0  0
  151.2463  144.5235  159.2014 H   0  0  0  0  0  0  0  0  0  0  0  0
  153.9656  143.1851  158.7931 H   0  0  0  0  0  0  0  0  0  0  0  0
  153.3552  143.8394  160.2942 H   0  0  0  0  0  0  0  0  0  0  0  0
  153.1001  141.3509  160.2060 H   0  0  0  0  0  0  0  0  0  0  0  0
  151.5536  142.1489  160.3614 H   0  0  0  0  0  0  0  0  0  0  0  0
  151.4044  140.3688  158.6637 H   0  0  0  0  0  0  0  0  0  0  0  0
  152.7585  141.0343  157.7838 H   0  0  0  0  0  0  0  0  0  0  0  0
  1  2  3  0  0  0  0
  2  3  1  0  0  0  0
  3 17  2  0  0  0  0
  3  4  1  0  0  0  0
  4  5  2  0  0  0  0
  5  6  1  0  0  0  0
  5 18  1  0  0  0  0
  6  7  1  0  0  0  0
  6 17  1  0  0  0  0
  7  8  1  0  0  0  0
  7 19  1  0  0  0  0
  7 20  1  0  0  0  0
  8  9  2  0  0  0  0
  8 10  1  0  0  0  0
 10 11  1  0  0  0  0
 10 21  1  0  0  0  0
 11 16  1  0  0  0  0
 11 12  1  0  0  0  0
 11 22  1  0  0  0  0
 12 13  1  0  0  0  0
 12 23  1  0  0  0  0
 12 24  1  0  0  0  0
 13 14  1  0  0  0  0
 13 25  1  0  0  0  0
 13 26  1  0  0  0  0
 14 15  1  0  0  0  0
 14 27  1  0  0  0  0
 14 28  1  0  0  0  0
 15 16  1  0  0  0  0
 15 29  1  0  0  0  0
 15 30  1  0  0  0  0
 16 31  1  0  0  0  0
 16 32  1  0  0  0  0
M  END
> <s_m_source_file>
AV-unprocessed.smi

> <i_m_source_file_index>
293

> <i_lp_mmshare_version>
43012

> <i_f3d_flags>
0

> <s_epik_input>
TiNDYzFuW2NIXW4objEpW0NIMl1DKD1PKVtOSF1bQ0hdMltDSDJdW0NIMl1bQ0gyXVtDSDJdW0NIMl0y

> <s_epik_cmdline>
J2VwaWtfcHl0aG9uJywgJy1waCcsICc3LjAnLCAnLXRuJywgJzgnLCAnLW1hJywgJzIwMCcsICctbWV0YWxfYmluZGluZycsICctaW1hZScsICc8aW5maWxlLm1hZT4nLCAnLW9tYWUnLCAnPG91dGZpbGUubWFlPic=

> <r_lp_tautomer_probability>
1

> <r_epik_Ionization_Penalty>
5.31112e-08

> <r_epik_Ionization_Penalty_Charging>
0

> <r_epik_Ionization_Penalty_Neutral>
5.31112e-08

> <r_epik_State_Penalty>
-0

> <r_epik_Charging_Adjusted_Penalty>
0

> <i_epik_Tot_Q>
0

> <i_epik_Tot_abs_Q>
0

> <r_epik_Metal_State_Penalty>
-0

> <b_epik_Metal_Only>
0

> <s_lp_Force_Field>
OPLS_2005

> <r_lp_Energy>
12.166

> <b_lp_Chiralities_Consistent>
1

> <s_lp_Variant>
AV-unprocessed.smi:293-1

> <Gold.Version>
5.8.1

> <Gold.Id.Protein>
6NUR|6NUR_protein|mol2

> <Gold.PLP.Fitness>
42.7859

> <Gold.PLP.PLP>
-37.7105

> <Gold.PLP.part.hbond>
-2.1747

> <Gold.PLP.part.metal>
0.0000

> <Gold.PLP.part.buried>
-4.2754

> <Gold.PLP.part.nonpolar>
-31.8222

> <Gold.PLP.part.repulsive>
0.6940

> <Gold.PLP.ligand.clash>
0.0000

> <Gold.PLP.ligand.torsion>
0.6244

> <Gold.PLP.Chemscore.Hbond>
1.5187

> <Gold.PLP.Chemscore.CHOScore>
0.5877

> <Gold.PLP.Chemscore.Metal>
0.0000

> <Gold.Chemscore.Hbonds>
donor molecule, donor type, donor heavy atom, donor atom, acceptor molecule, acceptor atom, score
      P1  H  7989  7998       L1    17  0.80
      P1  H  7997  8010       L1     1  0.33
      L1  C     5    18       P1  7948  0.69

> <Gold.PLP.Chemscore.Internal.Correction>
0.0051

> <Gold.Rescore>
     Score         DG    S(hbond)    S(metal)    S(lipo)     H(rot)  DE(clash)    DE(int)     intcor
     10.14     -12.18       1.03        0.00      70.81       1.96       0.07       1.97       ----

> <Gold.Chemscore.Fitness>
10.1368

> <Gold.Chemscore.DG>
-12.1818

> <Gold.Chemscore.ZeroCoef>
-5.4800

> <Gold.Chemscore.Hbond>
1.0296

> <Gold.Chemscore.Metal>
0.0000

> <Gold.Chemscore.Lipo>
70.8072

> <Gold.Chemscore.Internal_Hbond>
0.0000

> <Gold.Chemscore.DEClash>
0.0703

> <Gold.Chemscore.DEInternal>
1.9748

> <Gold.Chemscore.Rot>
1.9615

> <Gold.Chemscore.Internal.Correction>
   9.000000E+99

> <Gold.Chemscore.Hbonds>
donor molecule, donor type, donor heavy atom, donor atom, acceptor molecule, acceptor atom, score
      P1  H  7989  7998       L1    17  0.09
      P1  H  7997  8010       L1     1  0.05

> <Gold.Chemscore.Hbond.Weighted>
-3.4388

> <Gold.Chemscore.Metal.Weighted>
-0.0000

> <Gold.Chemscore.Lipo.Weighted>
-8.2844

> <Gold.Chemscore.Internal_Hbond.Weighted>
0.0000

> <Gold.Chemscore.DEClash.Weighted>
0.0703

> <Gold.Chemscore.DEInternal.Weighted>
1.9748

> <Gold.Chemscore.Rot.Weighted>
5.0214

> <Gold.Chemscore.Internal.Correction.Weighted>
   9.000000E+99

> <Gold.Protein.RotatedTorsions>
[ 6907 6896 6895 6894 ] final -122.03 input  -60.11 | X-H torsion
[ 7974 7965 7964 7962 ] final   25.24 input  175.53 | X-H torsion
[ 8008 7997 7996 7995 ] final  148.36 input   59.86 | X-H torsion
[ 10167 10162 10161 10158 ] final -102.06 input  -65.29 | X-H torsion
[ 10718 10713 10712 10709 ] final  -61.59 input   66.30 | X-H torsion
[ 10763 10752 10751 10750 ] final   28.17 input  -60.55 | X-H torsion
[ 11005 11000 10999 10996 ] final    2.64 input  -57.11 | X-H torsion

> <Gold.Protein.ActiveResidues>
 VAL166  LYS551  ARG553  GLY616  TRP617  ASP618  TYR619  PRO620  LYS621  CYS622 
 ASP623  PHE694  ASN695  SER759  ASP760  ASP761  ALA762  ILE779  LEU786  VAL792 
 PHE793  MET794  SER795  GLU796  ALA797  LYS798  CYS799  TRP800  GLU811  SER814 

> <Gold.Protein.RotatedAtoms>
  150.8538  133.7746  159.3015 H   0  0  0  0  0  0  0  0  0  0  0  0  # atno 6907 bound_to 6896
  151.5410  135.1067  159.9936 H   0  0  0  0  0  0  0  0  0  0  0  0  # atno 6908 bound_to 6896
  152.4574  133.7707  159.6853 H   0  0  0  0  0  0  0  0  0  0  0  0  # atno 6909 bound_to 6896
  146.1898  139.7494  142.8840 H   0  0  0  0  0  0  0  0  0  0  0  0  # atno 7974 bound_to 7965
  156.2794  140.2131  156.5685 H   0  0  0  0  0  0  0  0  0  0  0  0  # atno 8008 bound_to 7997
  154.7155  140.0508  157.0613 H   0  0  0  0  0  0  0  0  0  0  0  0  # atno 8009 bound_to 7997
  155.0548  140.3160  155.4683 H   0  0  0  0  0  0  0  0  0  0  0  0  # atno 8010 bound_to 7997
  140.2346  143.3582  152.0856 H   0  0  0  0  0  0  0  0  0  0  0  0  # atno 10167 bound_to 10162
  156.0911  130.4200  150.1015 H   0  0  0  0  0  0  0  0  0  0  0  0  # atno 10718 bound_to 10713
  153.0508  135.6519  154.0698 H   0  0  0  0  0  0  0  0  0  0  0  0  # atno 10763 bound_to 10752
  154.0386  135.2905  155.3360 H   0  0  0  0  0  0  0  0  0  0  0  0  # atno 10764 bound_to 10752
  154.6796  135.5325  153.8311 H   0  0  0  0  0  0  0  0  0  0  0  0  # atno 10765 bound_to 10752
  140.6021  133.9827  155.8137 H   0  0  0  0  0  0  0  0  0  0  0  0  # atno 11005 bound_to 11000
  145.3826  141.0360  143.3169 LP  0  0  0  0  0  0  0  0  0  0  0  0  # atno 17320 bound_to 7965
  144.8466  139.5388  143.6876 LP  0  0  0  0  0  0  0  0  0  0  0  0  # atno 17321 bound_to 7965
  139.5098  144.6873  151.5853 LP  0  0  0  0  0  0  0  0  0  0  0  0  # atno 17342 bound_to 10162
  140.6159  143.9349  150.6488 LP  0  0  0  0  0  0  0  0  0  0  0  0  # atno 17343 bound_to 10162
  156.9025  130.9625  151.3574 LP  0  0  0  0  0  0  0  0  0  0  0  0  # atno 17370 bound_to 10713
  157.6061  130.8548  149.8877 LP  0  0  0  0  0  0  0  0  0  0  0  0  # atno 17371 bound_to 10713
  141.0865  133.9982  157.3304 LP  0  0  0  0  0  0  0  0  0  0  0  0  # atno 17394 bound_to 11000
  139.9228  135.0201  156.8127 LP  0  0  0  0  0  0  0  0  0  0  0  0  # atno 17395 bound_to 11000

$$$$
