AV-unprocessed.smi:265|AV-procd|sdf|2026|dock3
  -GOLD-   2262021233D 1   1.00000     0.00000
 Structure written by MMmdl.
 52 56  0  0  0  0  0  0  0  0  1 V2000
  144.2068  133.6076  160.8440 C   0  0  0  0  0  0  0  0  0  0  0  0
  145.2498  134.0809  161.8675 C   0  0  1  0  0  0  0  0  0  0  0  0
  146.1631  133.0323  162.1796 O   0  0  0  0  0  0  0  0  0  0  0  0
  147.4574  133.5685  162.4399 C   0  0  0  0  0  0  0  0  0  0  0  0
  147.2878  135.0848  162.4260 C   0  0  0  0  0  0  0  0  0  0  0  0
  146.1252  135.2816  161.4611 C   0  0  2  0  0  0  0  0  0  0  0  0
  145.4719  136.4964  161.7770 O   0  0  0  0  0  0  0  0  0  0  0  0
  146.5413  135.2824  159.9641 C   0  0  0  0  0  0  0  0  0  0  0  0
  147.5290  136.2938  159.6229 N   0  0  0  0  0  0  0  0  0  0  0  0
  148.7773  136.4488  160.1823 C   0  0  0  0  0  0  0  0  0  0  0  0
  149.4828  137.4368  159.7039 N   0  0  0  0  0  0  0  0  0  0  0  0
  148.6673  137.9948  158.7261 C   0  0  0  0  0  0  0  0  0  0  0  0
  148.8073  139.0865  157.8231 C   0  0  0  0  0  0  0  0  0  0  0  0
  149.9299  139.8471  157.7618 N   0  0  0  0  0  0  0  0  0  0  0  0
  151.1023  139.3914  158.5084 C   0  0  0  0  0  0  0  0  0  0  0  0
  152.3696  140.1125  158.0239 C   0  0  0  0  0  0  0  0  0  0  0  0
  152.2056  141.6408  158.0538 C   0  0  2  0  0  0  0  0  0  0  0  0
  152.1246  142.1013  159.3965 O   0  0  0  0  0  0  0  0  0  0  0  0
  152.1524  143.5242  159.5207 C   0  0  0  0  0  0  0  0  0  0  0  0
  151.1581  144.2155  158.5689 C   0  0  0  0  0  0  0  0  0  0  0  0
  150.8520  145.3914  158.7510 O   0  0  0  0  0  0  0  0  0  0  0  0
  150.6825  143.5105  157.5300 N   0  0  0  0  0  0  0  0  0  0  0  0
  150.9155  142.0840  157.3301 C   0  0  2  0  0  0  0  0  0  0  0  0
  149.6891  141.2876  157.8204 C   0  0  0  0  0  0  0  0  0  0  0  0
  147.7595  139.3523  156.9973 N   0  0  0  0  0  0  0  0  0  0  0  0
  146.6568  138.5990  157.0409 C   0  0  0  0  0  0  0  0  0  0  0  0
  146.3930  137.5507  157.8229 N   0  0  0  0  0  0  0  0  0  0  0  0
  147.4342  137.2860  158.6628 C   0  0  0  0  0  0  0  0  0  0  0  0
  153.0792  142.0925  157.5797 H   0  0  0  0  0  0  0  0  0  0  0  0
  151.0365  141.9113  156.2601 H   0  0  0  0  0  0  0  0  0  0  0  0
  143.5272  134.4162  160.5742 H   0  0  0  0  0  0  0  0  0  0  0  0
  143.6075  132.7946  161.2539 H   0  0  0  0  0  0  0  0  0  0  0  0
  144.6741  133.2379  159.9313 H   0  0  0  0  0  0  0  0  0  0  0  0
  144.7348  134.3211  162.8000 H   0  0  0  0  0  0  0  0  0  0  0  0
  147.8546  133.2054  163.3879 H   0  0  0  0  0  0  0  0  0  0  0  0
  148.1336  133.2503  161.6458 H   0  0  0  0  0  0  0  0  0  0  0  0
  147.0054  135.4146  163.4276 H   0  0  0  0  0  0  0  0  0  0  0  0
  148.1998  135.6173  162.1599 H   0  0  0  0  0  0  0  0  0  0  0  0
  144.9096  136.3503  162.5225 H   0  0  0  0  0  0  0  0  0  0  0  0
  146.9460  134.3098  159.6822 H   0  0  0  0  0  0  0  0  0  0  0  0
  145.6702  135.4426  159.3279 H   0  0  0  0  0  0  0  0  0  0  0  0
  149.1469  135.8069  160.9688 H   0  0  0  0  0  0  0  0  0  0  0  0
  150.9489  139.5810  159.5718 H   0  0  0  0  0  0  0  0  0  0  0  0
  151.2319  138.3150  158.3879 H   0  0  0  0  0  0  0  0  0  0  0  0
  153.2264  139.8139  158.6284 H   0  0  0  0  0  0  0  0  0  0  0  0
  152.5884  139.7974  157.0029 H   0  0  0  0  0  0  0  0  0  0  0  0
  151.9243  143.7954  160.5516 H   0  0  0  0  0  0  0  0  0  0  0  0
  153.1581  143.8874  159.3057 H   0  0  0  0  0  0  0  0  0  0  0  0
  150.0598  143.9728  156.8835 H   0  0  0  0  0  0  0  0  0  0  0  0
  148.8170  141.5711  157.2320 H   0  0  0  0  0  0  0  0  0  0  0  0
  149.4611  141.5515  158.8543 H   0  0  0  0  0  0  0  0  0  0  0  0
  145.8738  138.8759  156.3505 H   0  0  0  0  0  0  0  0  0  0  0  0
  1  2  1  0  0  0  0
  1 31  1  0  0  0  0
  1 32  1  0  0  0  0
  1 33  1  0  0  0  0
  2  6  1  0  0  0  0
  2  3  1  0  0  0  0
  2 34  1  0  0  0  0
  3  4  1  0  0  0  0
  4  5  1  0  0  0  0
  4 35  1  0  0  0  0
  4 36  1  0  0  0  0
  5  6  1  0  0  0  0
  5 37  1  0  0  0  0
  5 38  1  0  0  0  0
  6  7  1  0  0  0  0
  6  8  1  0  0  0  0
  7 39  1  0  0  0  0
  8  9  1  0  0  0  0
  8 40  1  0  0  0  0
  8 41  1  0  0  0  0
  9 28  1  0  0  0  0
  9 10  1  0  0  0  0
 10 11  2  0  0  0  0
 10 42  1  0  0  0  0
 11 12  1  0  0  0  0
 12 28  2  0  0  0  0
 12 13  1  0  0  0  0
 13 14  1  0  0  0  0
 13 25  2  0  0  0  0
 14 24  1  0  0  0  0
 14 15  1  0  0  0  0
 15 16  1  0  0  0  0
 15 43  1  0  0  0  0
 15 44  1  0  0  0  0
 16 17  1  0  0  0  0
 16 45  1  0  0  0  0
 16 46  1  0  0  0  0
 17 29  1  0  0  0  0
 17 23  1  0  0  0  0
 17 18  1  0  0  0  0
 18 19  1  0  0  0  0
 19 20  1  0  0  0  0
 19 47  1  0  0  0  0
 19 48  1  0  0  0  0
 20 21  2  0  0  0  0
 20 22  1  0  0  0  0
 22 23  1  0  0  0  0
 22 49  1  0  0  0  0
 23 30  1  0  0  0  0
 23 24  1  0  0  0  0
 24 50  1  0  0  0  0
 24 51  1  0  0  0  0
 25 26  1  0  0  0  0
 26 27  2  0  0  0  0
 26 52  1  0  0  0  0
 27 28  1  0  0  0  0
M  END
> <s_m_source_file>
AV-unprocessed.smi

> <i_m_source_file_index>
265

> <i_lp_mmshare_version>
43012

> <i_f3d_flags>
0

> <s_epik_input>
W0NIMl0xW0NIMl1PW0NAQEhdKFtDSDNdKVtDQEBdMShbT0hdKVtDSDJdbihbY0hdbjIpYyhjMjMpbltjSF1uYzNOKFtDSDJdW0NIMl00KVtDSDJdW0NAQEhdKFtDQEhdNDUpW05IXUMoPU8pW0NIMl1PNQ==

> <s_epik_cmdline>
J2VwaWtfcHl0aG9uJywgJy1waCcsICc3LjAnLCAnLXRuJywgJzgnLCAnLW1hJywgJzIwMCcsICctbWV0YWxfYmluZGluZycsICctaW1hZScsICc8aW5maWxlLm1hZT4nLCAnLW9tYWUnLCAnPG91dGZpbGUubWFlPic=

> <r_lp_tautomer_probability>
1

> <r_epik_Ionization_Penalty>
0.00221504

> <r_epik_Ionization_Penalty_Charging>
0

> <r_epik_Ionization_Penalty_Neutral>
0.00221504

> <r_epik_State_Penalty>
-0

> <r_epik_Charging_Adjusted_Penalty>
0

> <i_epik_Tot_Q>
0

> <i_epik_Tot_abs_Q>
0

> <r_epik_Metal_State_Penalty>
-0

> <b_epik_Metal_Only>
0

> <s_lp_Force_Field>
OPLS_2005

> <r_lp_Energy>
44.4274

> <b_lp_Chiralities_Consistent>
1

> <s_lp_Variant>
AV-unprocessed.smi:265-12

> <Gold.Version>
5.8.1

> <Gold.Id.Protein>
6NUR|6NUR_protein|mol2

> <Gold.PLP.Fitness>
38.2332

> <Gold.PLP.PLP>
-35.2845

> <Gold.PLP.part.hbond>
-2.5343

> <Gold.PLP.part.metal>
0.0000

> <Gold.PLP.part.buried>
-7.3574

> <Gold.PLP.part.nonpolar>
-26.8517

> <Gold.PLP.part.repulsive>
0.2098

> <Gold.PLP.ligand.clash>
0.0000

> <Gold.PLP.ligand.torsion>
0.2135

> <Gold.PLP.Chemscore.Hbond>
1.0020

> <Gold.PLP.Chemscore.CHOScore>
0.0000

> <Gold.PLP.Chemscore.Metal>
0.0000

> <Gold.Chemscore.Hbonds>
donor molecule, donor type, donor heavy atom, donor atom, acceptor molecule, acceptor atom, score
      L1  H    22    49       P1  8028  1.00

> <Gold.PLP.Chemscore.Internal.Correction>
0.3697

> <Gold.Rescore>
     Score         DG    S(hbond)    S(metal)    S(lipo)     H(rot)  DE(clash)    DE(int)     intcor
     10.39     -12.73       0.98        0.00      83.01       2.25       0.08       2.26       ----

> <Gold.Chemscore.Fitness>
10.3873

> <Gold.Chemscore.DG>
-12.7307

> <Gold.Chemscore.ZeroCoef>
-5.4800

> <Gold.Chemscore.Hbond>
0.9840

> <Gold.Chemscore.Metal>
0.0000

> <Gold.Chemscore.Lipo>
83.0079

> <Gold.Chemscore.Internal_Hbond>
0.0000

> <Gold.Chemscore.DEClash>
0.0847

> <Gold.Chemscore.DEInternal>
2.2587

> <Gold.Chemscore.Rot>
2.2453

> <Gold.Chemscore.Internal.Correction>
   9.000000E+99

> <Gold.Chemscore.Hbonds>
donor molecule, donor type, donor heavy atom, donor atom, acceptor molecule, acceptor atom, score
      L1  H    22    49       P1  8028  0.98

> <Gold.Chemscore.Hbond.Weighted>
-3.2867

> <Gold.Chemscore.Metal.Weighted>
-0.0000

> <Gold.Chemscore.Lipo.Weighted>
-9.7119

> <Gold.Chemscore.Internal_Hbond.Weighted>
0.0000

> <Gold.Chemscore.DEClash.Weighted>
0.0847

> <Gold.Chemscore.DEInternal.Weighted>
2.2587

> <Gold.Chemscore.Rot.Weighted>
5.7479

> <Gold.Chemscore.Internal.Correction.Weighted>
   9.000000E+99

> <Gold.Protein.RotatedTorsions>
[ 6907 6896 6895 6894 ] final  -39.03 input  -60.11 | X-H torsion
[ 7974 7965 7964 7962 ] final   47.21 input  175.53 | X-H torsion
[ 8008 7997 7996 7995 ] final   26.06 input   59.86 | X-H torsion
[ 10167 10162 10161 10158 ] final -145.53 input  -65.29 | X-H torsion
[ 10718 10713 10712 10709 ] final  -19.90 input   66.30 | X-H torsion
[ 10763 10752 10751 10750 ] final   66.95 input  -60.55 | X-H torsion
[ 11005 11000 10999 10996 ] final -177.72 input  -57.11 | X-H torsion

> <Gold.Protein.ActiveResidues>
 VAL166  LYS551  ARG553  GLY616  TRP617  ASP618  TYR619  PRO620  LYS621  CYS622 
 ASP623  PHE694  ASN695  SER759  ASP760  ASP761  ALA762  ILE779  LEU786  VAL792 
 PHE793  MET794  SER795  GLU796  ALA797  LYS798  CYS799  TRP800  GLU811  SER814 

> <Gold.Protein.RotatedAtoms>
  150.9952  134.9277  159.7922 H   0  0  0  0  0  0  0  0  0  0  0  0  # atno 6907 bound_to 6896
  152.5262  134.3228  159.9164 H   0  0  0  0  0  0  0  0  0  0  0  0  # atno 6908 bound_to 6896
  151.3234  133.3989  159.2691 H   0  0  0  0  0  0  0  0  0  0  0  0  # atno 6909 bound_to 6896
  146.0319  139.4773  142.9832 H   0  0  0  0  0  0  0  0  0  0  0  0  # atno 7974 bound_to 7965
  155.0214  140.3148  155.4792 H   0  0  0  0  0  0  0  0  0  0  0  0  # atno 8008 bound_to 7997
  156.2891  140.2197  156.5274 H   0  0  0  0  0  0  0  0  0  0  0  0  # atno 8009 bound_to 7997
  154.7449  140.0470  157.0831 H   0  0  0  0  0  0  0  0  0  0  0  0  # atno 8010 bound_to 7997
  139.7797  143.8119  152.2637 H   0  0  0  0  0  0  0  0  0  0  0  0  # atno 10167 bound_to 10162
  156.5393  130.4674  149.6507 H   0  0  0  0  0  0  0  0  0  0  0  0  # atno 10718 bound_to 10713
  153.0163  135.5302  154.6904 H   0  0  0  0  0  0  0  0  0  0  0  0  # atno 10763 bound_to 10752
  154.6040  135.2871  155.0507 H   0  0  0  0  0  0  0  0  0  0  0  0  # atno 10764 bound_to 10752
  154.1553  135.6556  153.5025 H   0  0  0  0  0  0  0  0  0  0  0  0  # atno 10765 bound_to 10752
  140.4377  134.6460  157.4743 H   0  0  0  0  0  0  0  0  0  0  0  0  # atno 11005 bound_to 11000
  145.7027  141.0131  143.1495 LP  0  0  0  0  0  0  0  0  0  0  0  0  # atno 17320 bound_to 7965
  144.7034  139.8664  143.7437 LP  0  0  0  0  0  0  0  0  0  0  0  0  # atno 17321 bound_to 7965
  139.8178  144.7309  150.9612 LP  0  0  0  0  0  0  0  0  0  0  0  0  # atno 17342 bound_to 10162
  140.7818  143.4188  151.0874 LP  0  0  0  0  0  0  0  0  0  0  0  0  # atno 17343 bound_to 10162
  156.2986  130.7164  151.2030 LP  0  0  0  0  0  0  0  0  0  0  0  0  # atno 17370 bound_to 10713
  157.7408  131.0512  150.5141 LP  0  0  0  0  0  0  0  0  0  0  0  0  # atno 17371 bound_to 10713
  140.0091  134.6719  155.9409 LP  0  0  0  0  0  0  0  0  0  0  0  0  # atno 17394 bound_to 11000
  141.1719  133.6538  156.4682 LP  0  0  0  0  0  0  0  0  0  0  0  0  # atno 17395 bound_to 11000

$$$$
