AV-unprocessed.smi:1593|AV-procd|sdf|6411|dock9
  -GOLD-   22720 7 43D 1   1.00000     0.00000
 Structure written by MMmdl.
 35 36  0  0  0  0  0  0  0  0  2 V2000
  151.0968  141.2433  155.9544 C   0  0  0  0  0  0  0  0  0  0  0  0
  151.4018  139.8409  155.5517 C   0  0  0  0  0  0  0  0  0  0  0  0
  150.6392  138.8442  155.0122 C   0  0  0  0  0  0  0  0  0  0  0  0
  151.5559  137.7645  154.8881 C   0  0  0  0  0  0  0  0  0  0  0  0
  151.2840  136.5491  154.3886 N   0  5  0  0  0  0  0  0  0  0  0  0
  150.4876  135.6936  155.0707 C   0  0  0  0  0  0  0  0  0  0  0  0
  150.6229  135.3472  156.2467 O   0  0  0  0  0  0  0  0  0  0  0  0
  149.4715  135.2075  154.3461 N   0  0  0  0  0  0  0  0  0  0  0  0
  148.4780  134.2532  154.8229 C   0  0  0  0  0  0  0  0  0  0  0  0
  148.4310  133.0079  153.9198 C   0  0  0  0  0  0  0  0  0  0  0  0
  149.0484  131.8029  154.4763 N   0  0  0  0  0  0  0  0  0  0  0  0
  149.1326  130.7122  153.5078 C   0  0  0  0  0  0  0  0  0  0  0  0
  149.8035  129.4640  154.1076 C   0  0  0  0  0  0  0  0  0  0  0  0
  151.0926  129.8047  154.6080 O   0  0  0  0  0  0  0  0  0  0  0  0
  151.0435  130.8328  155.5919 C   0  0  0  0  0  0  0  0  0  0  0  0
  150.3827  132.0861  154.9926 C   0  0  0  0  0  0  0  0  0  0  0  0
  152.7717  138.0841  155.2993 N   0  0  0  0  0  0  0  0  0  0  0  0
  152.6798  139.4121  155.7328 O   0  0  0  0  0  0  0  0  0  0  0  0
  150.6549  141.7951  155.1247 H   0  0  0  0  0  0  0  0  0  0  0  0
  151.9998  141.7686  156.2662 H   0  0  0  0  0  0  0  0  0  0  0  0
  150.3922  141.2596  156.7859 H   0  0  0  0  0  0  0  0  0  0  0  0
  149.5920  138.8787  154.7519 H   0  0  0  0  0  0  0  0  0  0  0  0
  149.3958  135.5065  153.3848 H   0  0  0  0  0  0  0  0  0  0  0  0
  148.6883  133.9772  155.8567 H   0  0  0  0  0  0  0  0  0  0  0  0
  147.5004  134.7369  154.8250 H   0  0  0  0  0  0  0  0  0  0  0  0
  147.3941  132.7978  153.6541 H   0  0  0  0  0  0  0  0  0  0  0  0
  148.9317  133.2603  152.9842 H   0  0  0  0  0  0  0  0  0  0  0  0
  148.1372  130.4367  153.1602 H   0  0  0  0  0  0  0  0  0  0  0  0
  149.6932  131.0382  152.6304 H   0  0  0  0  0  0  0  0  0  0  0  0
  149.1931  129.0466  154.9098 H   0  0  0  0  0  0  0  0  0  0  0  0
  149.9086  128.6885  153.3489 H   0  0  0  0  0  0  0  0  0  0  0  0
  150.4902  130.4848  156.4656 H   0  0  0  0  0  0  0  0  0  0  0  0
  152.0571  131.0590  155.9228 H   0  0  0  0  0  0  0  0  0  0  0  0
  151.0129  132.4781  154.1928 H   0  0  0  0  0  0  0  0  0  0  0  0
  150.3270  132.8629  155.7560 H   0  0  0  0  0  0  0  0  0  0  0  0
  1  2  1  0  0  0  0
  1 19  1  0  0  0  0
  1 20  1  0  0  0  0
  1 21  1  0  0  0  0
  2 18  1  0  0  0  0
  2  3  2  0  0  0  0
  3  4  1  0  0  0  0
  3 22  1  0  0  0  0
  4  5  1  0  0  0  0
  4 17  2  0  0  0  0
  5  6  1  0  0  0  0
  6  7  2  0  0  0  0
  6  8  1  0  0  0  0
  8  9  1  0  0  0  0
  8 23  1  0  0  0  0
  9 10  1  0  0  0  0
  9 24  1  0  0  0  0
  9 25  1  0  0  0  0
 10 11  1  0  0  0  0
 10 26  1  0  0  0  0
 10 27  1  0  0  0  0
 11 16  1  0  0  0  0
 11 12  1  0  0  0  0
 12 13  1  0  0  0  0
 12 28  1  0  0  0  0
 12 29  1  0  0  0  0
 13 14  1  0  0  0  0
 13 30  1  0  0  0  0
 13 31  1  0  0  0  0
 14 15  1  0  0  0  0
 15 16  1  0  0  0  0
 15 32  1  0  0  0  0
 15 33  1  0  0  0  0
 16 34  1  0  0  0  0
 16 35  1  0  0  0  0
 17 18  1  0  0  0  0
M  CHG  1   5  -1
M  END
> <s_m_source_file>
AV-unprocessed.smi

> <i_m_source_file_index>
1593

> <i_lp_mmshare_version>
43012

> <i_f3d_flags>
0

> <s_epik_input>
W0NIM11jMVtjSF1jKG5vMSlbTkhdQyg9TylbTkhdW0NIMl1bQ0gyXU4yW0NIMl1bQ0gyXU9bQ0gyXVtDSDJdMg==

> <s_epik_cmdline>
J2VwaWtfcHl0aG9uJywgJy1waCcsICc3LjAnLCAnLXRuJywgJzgnLCAnLW1hJywgJzIwMCcsICctbWV0YWxfYmluZGluZycsICctaW1hZScsICc8aW5maWxlLm1hZT4nLCAnLW9tYWUnLCAnPG91dGZpbGUubWFlPic=

> <r_epik_Ionization_Penalty>
6.88366

> <r_epik_Ionization_Penalty_Charging>
6.57198

> <r_epik_Ionization_Penalty_Neutral>
0.311678

> <r_epik_State_Penalty>
6.77619

> <r_epik_Charging_Adjusted_Penalty>
13.3482

> <i_epik_Tot_Q>
-1

> <i_epik_Tot_abs_Q>
1

> <r_epik_Metal_State_Penalty>
2.70533

> <b_epik_Metal_Only>
1

> <s_lp_Force_Field>
OPLS_2005

> <r_lp_Energy>
18.6523

> <b_lp_Chiralities_Consistent>
1

> <s_lp_Variant>
AV-unprocessed.smi:1593-3

> <Gold.Version>
5.8.1

> <Gold.Id.Protein>
6NUR|6NUR_protein|mol2

> <Gold.PLP.Fitness>
38.2885

> <Gold.PLP.PLP>
-29.2549

> <Gold.PLP.part.hbond>
-3.1071

> <Gold.PLP.part.metal>
0.0000

> <Gold.PLP.part.buried>
-4.9883

> <Gold.PLP.part.nonpolar>
-20.8495

> <Gold.PLP.part.repulsive>
1.1843

> <Gold.PLP.ligand.clash>
0.0000

> <Gold.PLP.ligand.torsion>
1.4978

> <Gold.PLP.Chemscore.Hbond>
4.0000

> <Gold.PLP.Chemscore.CHOScore>
0.0000

> <Gold.PLP.Chemscore.Metal>
0.0000

> <Gold.Chemscore.Hbonds>
donor molecule, donor type, donor heavy atom, donor atom, acceptor molecule, acceptor atom, score
      L1  H     8    23       P1  7948  0.90
      P1  H  7997  8009       L1    18  1.00
      P1  H 10752 10763       L1     5  2.00

> <Gold.PLP.Chemscore.Internal.Correction>
0.0292

> <Gold.Rescore>
     Score         DG    S(hbond)    S(metal)    S(lipo)     H(rot)  DE(clash)    DE(int)     intcor
     12.12     -13.66       1.98        0.00      47.92       1.57       0.01       1.53       ----

> <Gold.Chemscore.Fitness>
12.1218

> <Gold.Chemscore.DG>
-13.6622

> <Gold.Chemscore.ZeroCoef>
-5.4800

> <Gold.Chemscore.Hbond>
1.9770

> <Gold.Chemscore.Metal>
0.0000

> <Gold.Chemscore.Lipo>
47.9163

> <Gold.Chemscore.Internal_Hbond>
0.0000

> <Gold.Chemscore.DEClash>
0.0128

> <Gold.Chemscore.DEInternal>
1.5277

> <Gold.Chemscore.Rot>
1.5731

> <Gold.Chemscore.Internal.Correction>
   9.000000E+99

> <Gold.Chemscore.Hbonds>
donor molecule, donor type, donor heavy atom, donor atom, acceptor molecule, acceptor atom, score
      L1  H     8    23       P1  7948  0.18
      P1  H  7997  8009       L1    18  0.85
      P1  H 10752 10763       L1     5  0.15

> <Gold.Chemscore.Hbond.Weighted>
-6.6031

> <Gold.Chemscore.Metal.Weighted>
-0.0000

> <Gold.Chemscore.Lipo.Weighted>
-5.6062

> <Gold.Chemscore.Internal_Hbond.Weighted>
0.0000

> <Gold.Chemscore.DEClash.Weighted>
0.0128

> <Gold.Chemscore.DEInternal.Weighted>
1.5277

> <Gold.Chemscore.Rot.Weighted>
4.0271

> <Gold.Chemscore.Internal.Correction.Weighted>
   9.000000E+99

> <Gold.Protein.RotatedTorsions>
[ 6907 6896 6895 6894 ] final -130.40 input  -60.11 | X-H torsion
[ 7974 7965 7964 7962 ] final  110.82 input  175.53 | X-H torsion
[ 8008 7997 7996 7995 ] final -153.96 input   59.86 | X-H torsion
[ 10167 10162 10161 10158 ] final   -8.64 input  -65.29 | X-H torsion
[ 10718 10713 10712 10709 ] final  -87.05 input   66.30 | X-H torsion
[ 10763 10752 10751 10750 ] final   51.23 input  -60.55 | X-H torsion
[ 11005 11000 10999 10996 ] final  -69.30 input  -57.11 | X-H torsion

> <Gold.Protein.ActiveResidues>
 VAL166  LYS551  ARG553  GLY616  TRP617  ASP618  TYR619  PRO620  LYS621  CYS622 
 ASP623  PHE694  ASN695  SER759  ASP760  ASP761  ALA762  ILE779  LEU786  VAL792 
 PHE793  MET794  SER795  GLU796  ALA797  LYS798  CYS799  TRP800  GLU811  SER814 

> <Gold.Protein.RotatedAtoms>
  150.9393  133.6675  159.2793 H   0  0  0  0  0  0  0  0  0  0  0  0  # atno 6907 bound_to 6896
  151.4070  135.0978  159.9583 H   0  0  0  0  0  0  0  0  0  0  0  0  # atno 6908 bound_to 6896
  152.5062  133.8874  159.7432 H   0  0  0  0  0  0  0  0  0  0  0  0  # atno 6909 bound_to 6896
  145.2501  139.2743  143.4072 H   0  0  0  0  0  0  0  0  0  0  0  0  # atno 7974 bound_to 7965
  155.6789  140.0742  157.2492 H   0  0  0  0  0  0  0  0  0  0  0  0  # atno 8008 bound_to 7997
  154.4109  140.1685  156.2012 H   0  0  0  0  0  0  0  0  0  0  0  0  # atno 8009 bound_to 7997
  155.9552  140.3374  155.6445 H   0  0  0  0  0  0  0  0  0  0  0  0  # atno 8010 bound_to 7997
  140.7065  143.5947  150.8858 H   0  0  0  0  0  0  0  0  0  0  0  0  # atno 10167 bound_to 10162
  155.9987  130.4786  150.4808 H   0  0  0  0  0  0  0  0  0  0  0  0  # atno 10718 bound_to 10713
  152.9785  135.5852  154.4382 H   0  0  0  0  0  0  0  0  0  0  0  0  # atno 10763 bound_to 10752
  154.3986  135.2768  155.2112 H   0  0  0  0  0  0  0  0  0  0  0  0  # atno 10764 bound_to 10752
  154.3953  135.6116  153.5920 H   0  0  0  0  0  0  0  0  0  0  0  0  # atno 10765 bound_to 10752
  141.1551  133.6761  156.6577 H   0  0  0  0  0  0  0  0  0  0  0  0  # atno 11005 bound_to 11000
  146.3305  140.2890  142.8614 LP  0  0  0  0  0  0  0  0  0  0  0  0  # atno 17320 bound_to 7965
  144.9510  140.8178  143.5572 LP  0  0  0  0  0  0  0  0  0  0  0  0  # atno 17321 bound_to 7965
  139.9672  143.6098  152.2985 LP  0  0  0  0  0  0  0  0  0  0  0  0  # atno 17342 bound_to 10162
  139.6671  144.7662  151.1852 LP  0  0  0  0  0  0  0  0  0  0  0  0  # atno 17343 bound_to 10162
  157.2813  131.0607  151.2195 LP  0  0  0  0  0  0  0  0  0  0  0  0  # atno 17370 bound_to 10713
  157.3241  130.6952  149.6286 LP  0  0  0  0  0  0  0  0  0  0  0  0  # atno 17371 bound_to 10713
  140.3271  134.7960  157.4297 LP  0  0  0  0  0  0  0  0  0  0  0  0  # atno 17394 bound_to 11000
  140.1048  134.5424  155.8320 LP  0  0  0  0  0  0  0  0  0  0  0  0  # atno 17395 bound_to 11000

$$$$
