AV-unprocessed.smi:37|AV-procd|sdf|304|dock5
  -GOLD-   2262016113D 1   1.00000     0.00000
 Structure written by MMmdl.
 44 45  0  0  0  0  0  0  0  0  1 V2000
  146.0343  134.2102  162.1225 C   0  0  0  0  0  0  0  0  0  0  0  0
  146.8374  135.5165  162.1873 C   0  0  0  0  0  0  0  0  0  0  0  0
  147.3433  135.9534  160.8142 C   0  0  0  0  0  0  0  0  0  0  0  0
  147.0473  137.0495  160.3384 O   0  0  0  0  0  0  0  0  0  0  0  0
  148.1043  135.0198  160.2262 O   0  0  0  0  0  0  0  0  0  0  0  0
  148.3782  135.0994  158.8374 C   0  0  0  0  0  0  0  0  0  0  0  0
  149.0043  136.4602  158.4862 C   0  0  1  0  0  0  0  0  0  0  0  0
  149.9356  136.8431  159.4949 O   0  0  0  0  0  0  0  0  0  0  0  0
  150.8816  137.6755  158.9009 C   0  0  1  0  0  0  0  0  0  0  0  0
  152.0654  137.8669  159.8337 N   0  0  0  0  0  0  0  0  0  0  0  0
  152.0321  137.4428  161.1583 C   0  0  0  0  0  0  0  0  0  0  0  0
  153.0883  137.5468  161.9992 C   0  0  0  0  0  0  0  0  0  0  0  0
  152.9725  137.1152  163.2665 F   0  0  0  0  0  0  0  0  0  0  0  0
  154.3577  138.0955  161.5350 C   0  0  0  0  0  0  0  0  0  0  0  0
  155.3652  138.2448  162.2232 O   0  0  0  0  0  0  0  0  0  0  0  0
  154.3712  138.4442  160.1823 N   0  0  0  0  0  0  0  0  0  0  0  0
  153.2934  138.3291  159.3023 C   0  0  0  0  0  0  0  0  0  0  0  0
  153.4472  138.6188  158.1167 O   0  0  0  0  0  0  0  0  0  0  0  0
  151.1903  136.9259  157.5962 C   0  0  1  0  0  0  0  0  0  0  0  0
  152.2385  135.2513  157.9374 Br  0  0  0  0  0  0  0  0  0  0  0  0
  149.7726  136.5687  157.1509 C   0  0  1  0  0  0  0  0  0  0  0  0
  149.7086  135.3998  156.3394 O   0  0  0  0  0  0  0  0  0  0  0  0
  150.6207  135.1888  155.3755 C   0  0  0  0  0  0  0  0  0  0  0  0
  151.4972  135.9834  155.0302 O   0  0  0  0  0  0  0  0  0  0  0  0
  150.4628  133.8089  154.7340 C   0  0  0  0  0  0  0  0  0  0  0  0
  150.6567  132.6476  155.7204 C   0  0  0  0  0  0  0  0  0  0  0  0
  155.2395  138.7960  159.8055 H   0  0  0  0  0  0  0  0  0  0  0  0
  145.7180  133.9054  163.1200 H   0  0  0  0  0  0  0  0  0  0  0  0
  146.6305  133.3995  161.7025 H   0  0  0  0  0  0  0  0  0  0  0  0
  145.1370  134.3200  161.5122 H   0  0  0  0  0  0  0  0  0  0  0  0
  146.2211  136.3133  162.6046 H   0  0  0  0  0  0  0  0  0  0  0  0
  147.6907  135.3932  162.8545 H   0  0  0  0  0  0  0  0  0  0  0  0
  149.0565  134.2961  158.5459 H   0  0  0  0  0  0  0  0  0  0  0  0
  147.4524  134.9600  158.2781 H   0  0  0  0  0  0  0  0  0  0  0  0
  148.2084  137.2061  158.4768 H   0  0  0  0  0  0  0  0  0  0  0  0
  150.4808  138.6789  158.7405 H   0  0  0  0  0  0  0  0  0  0  0  0
  151.1358  136.9935  161.5574 H   0  0  0  0  0  0  0  0  0  0  0  0
  151.7256  137.5473  156.8782 H   0  0  0  0  0  0  0  0  0  0  0  0
  149.3502  137.4159  156.6077 H   0  0  0  0  0  0  0  0  0  0  0  0
  149.4702  133.7487  154.2873 H   0  0  0  0  0  0  0  0  0  0  0  0
  151.1806  133.7219  153.9180 H   0  0  0  0  0  0  0  0  0  0  0  0
  150.5259  131.6904  155.2157 H   0  0  0  0  0  0  0  0  0  0  0  0
  149.9330  132.6923  156.5352 H   0  0  0  0  0  0  0  0  0  0  0  0
  151.6571  132.6568  156.1546 H   0  0  0  0  0  0  0  0  0  0  0  0
  1  2  1  0  0  0  0
  1 28  1  0  0  0  0
  1 29  1  0  0  0  0
  1 30  1  0  0  0  0
  2  3  1  0  0  0  0
  2 31  1  0  0  0  0
  2 32  1  0  0  0  0
  3  4  2  0  0  0  0
  3  5  1  0  0  0  0
  5  6  1  0  0  0  0
  6  7  1  0  0  0  0
  6 33  1  0  0  0  0
  6 34  1  0  0  0  0
  7 21  1  0  0  0  0
  7  8  1  0  0  0  0
  7 35  1  0  0  0  0
  8  9  1  0  0  0  0
  9 10  1  0  0  0  0
  9 19  1  0  0  0  0
  9 36  1  0  0  0  0
 10 17  1  0  0  0  0
 10 11  1  0  0  0  0
 11 12  2  0  0  0  0
 11 37  1  0  0  0  0
 12 13  1  0  0  0  0
 12 14  1  0  0  0  0
 14 15  2  0  0  0  0
 14 16  1  0  0  0  0
 16 27  1  0  0  0  0
 16 17  1  0  0  0  0
 17 18  2  0  0  0  0
 19 20  1  0  0  0  0
 19 21  1  0  0  0  0
 19 38  1  0  0  0  0
 21 22  1  0  0  0  0
 21 39  1  0  0  0  0
 22 23  1  0  0  0  0
 23 24  2  0  0  0  0
 23 25  1  0  0  0  0
 25 26  1  0  0  0  0
 25 40  1  0  0  0  0
 25 41  1  0  0  0  0
 26 42  1  0  0  0  0
 26 43  1  0  0  0  0
 26 44  1  0  0  0  0
M  END
> <s_m_source_file>
AV-unprocessed.smi

> <i_m_source_file_index>
37

> <i_lp_mmshare_version>
43012

> <i_f3d_flags>
0

> <s_epik_input>
W0NIM11bQ0gyXUMoPU8pT1tDSDJdW0NAQEhdMU9bQ0BASF0objJbY0hdYyhGKWMoPU8pW25IXWMyPU8pW0NAQEhdKEJyKVtDQEhdMU9DKD1PKVtDSDJdW0NIM10=

> <s_epik_cmdline>
J2VwaWtfcHl0aG9uJywgJy1waCcsICc3LjAnLCAnLXRuJywgJzgnLCAnLW1hJywgJzIwMCcsICctbWV0YWxfYmluZGluZycsICctaW1hZScsICc8aW5maWxlLm1hZT4nLCAnLW9tYWUnLCAnPG91dGZpbGUubWFlPic=

> <r_lp_tautomer_probability>
0.999537

> <r_epik_Ionization_Penalty>
0.104106

> <r_epik_Ionization_Penalty_Charging>
0.104106

> <r_epik_Ionization_Penalty_Neutral>
3.94675e-16

> <r_epik_State_Penalty>
0.0940182

> <r_epik_Charging_Adjusted_Penalty>
0.198124

> <i_epik_Tot_Q>
0

> <i_epik_Tot_abs_Q>
0

> <r_epik_Metal_State_Penalty>
3.05314

> <b_epik_Metal_Only>
0

> <s_epik_Chemistry_Notes>
This compound has an ester and may undergo hydrolysis at high or low pH. This compound contains an acetal/aminal-like group ( X-CH(R)-Y where X, Y are N, S, or O) that may be acid/base labile, releasing an aldehyde.

> <s_lp_Force_Field>
OPLS_2005

> <r_lp_Energy>
30.4871

> <b_lp_Chiralities_Consistent>
1

> <s_lp_Variant>
AV-unprocessed.smi:37-2

> <Gold.Version>
5.8.1

> <Gold.Id.Protein>
6NUR|6NUR_protein|mol2

> <Gold.PLP.Fitness>
46.5600

> <Gold.PLP.PLP>
-33.8925

> <Gold.PLP.part.hbond>
-5.7045

> <Gold.PLP.part.metal>
0.0000

> <Gold.PLP.part.buried>
-0.4934

> <Gold.PLP.part.nonpolar>
-29.3884

> <Gold.PLP.part.repulsive>
0.2733

> <Gold.PLP.ligand.clash>
0.0000

> <Gold.PLP.ligand.torsion>
0.8678

> <Gold.PLP.Chemscore.Hbond>
4.7280

> <Gold.PLP.Chemscore.CHOScore>
0.0000

> <Gold.PLP.Chemscore.Metal>
0.0000

> <Gold.Chemscore.Hbonds>
donor molecule, donor type, donor heavy atom, donor atom, acceptor molecule, acceptor atom, score
      P1  H  6896  6907       L1     8  0.73
      P1  H  6934  6947       L1     4  0.93
      P1  H  7997  8008       L1    18  0.78
      P1  H 10752 10764       L1    24  1.00

> <Gold.PLP.Chemscore.Internal.Correction>
0.2190

> <Gold.Rescore>
     Score         DG    S(hbond)    S(metal)    S(lipo)     H(rot)  DE(clash)    DE(int)     intcor
     10.92     -15.09       3.40        0.00      57.86       3.33       1.43       2.73       ----

> <Gold.Chemscore.Fitness>
10.9247

> <Gold.Chemscore.DG>
-15.0895

> <Gold.Chemscore.ZeroCoef>
-5.4800

> <Gold.Chemscore.Hbond>
3.4030

> <Gold.Chemscore.Metal>
0.0000

> <Gold.Chemscore.Lipo>
57.8565

> <Gold.Chemscore.Internal_Hbond>
0.0000

> <Gold.Chemscore.DEClash>
1.4320

> <Gold.Chemscore.DEInternal>
2.7328

> <Gold.Chemscore.Rot>
3.3303

> <Gold.Chemscore.Internal.Correction>
   9.000000E+99

> <Gold.Chemscore.Hbonds>
donor molecule, donor type, donor heavy atom, donor atom, acceptor molecule, acceptor atom, score
      P1  H  6896  6907       L1     8  0.10
      P1  H  6934  6947       L1     4  0.88
      P1  H  7997  8008       L1    18  0.77
      P1  H 10752 10764       L1    24  0.97

> <Gold.Chemscore.Hbond.Weighted>
-11.3659

> <Gold.Chemscore.Metal.Weighted>
-0.0000

> <Gold.Chemscore.Lipo.Weighted>
-6.7692

> <Gold.Chemscore.Internal_Hbond.Weighted>
0.0000

> <Gold.Chemscore.DEClash.Weighted>
1.4320

> <Gold.Chemscore.DEInternal.Weighted>
2.7328

> <Gold.Chemscore.Rot.Weighted>
8.5256

> <Gold.Chemscore.Internal.Correction.Weighted>
   9.000000E+99

> <Gold.Protein.RotatedTorsions>
[ 6907 6896 6895 6894 ] final  -33.18 input  -60.11 | X-H torsion
[ 7974 7965 7964 7962 ] final  -78.36 input  175.53 | X-H torsion
[ 8008 7997 7996 7995 ] final  -84.88 input   59.86 | X-H torsion
[ 10167 10162 10161 10158 ] final  -79.48 input  -65.29 | X-H torsion
[ 10718 10713 10712 10709 ] final  158.81 input   66.30 | X-H torsion
[ 10763 10752 10751 10750 ] final  -65.97 input  -60.55 | X-H torsion
[ 11005 11000 10999 10996 ] final    3.45 input  -57.11 | X-H torsion

> <Gold.Protein.ActiveResidues>
 VAL166  LYS551  ARG553  GLY616  TRP617  ASP618  TYR619  PRO620  LYS621  CYS622 
 ASP623  PHE694  ASN695  SER759  ASP760  ASP761  ALA762  ILE779  LEU786  VAL792 
 PHE793  MET794  SER795  GLU796  ALA797  LYS798  CYS799  TRP800  GLU811  SER814 

> <Gold.Protein.RotatedAtoms>
  151.0690  134.9786  159.8298 H   0  0  0  0  0  0  0  0  0  0  0  0  # atno 6907 bound_to 6896
  152.5406  134.2323  159.8839 H   0  0  0  0  0  0  0  0  0  0  0  0  # atno 6908 bound_to 6896
  151.2346  133.4388  159.2638 H   0  0  0  0  0  0  0  0  0  0  0  0  # atno 6909 bound_to 6896
  145.5875  140.9436  143.1310 H   0  0  0  0  0  0  0  0  0  0  0  0  # atno 7974 bound_to 7965
  154.6346  140.0599  156.9773 H   0  0  0  0  0  0  0  0  0  0  0  0  # atno 8008 bound_to 7997
  155.1611  140.3283  155.4392 H   0  0  0  0  0  0  0  0  0  0  0  0  # atno 8009 bound_to 7997
  156.2500  140.1930  156.6719 H   0  0  0  0  0  0  0  0  0  0  0  0  # atno 8010 bound_to 7997
  140.4590  143.2459  151.8377 H   0  0  0  0  0  0  0  0  0  0  0  0  # atno 10167 bound_to 10162
  157.1728  131.0614  151.2173 H   0  0  0  0  0  0  0  0  0  0  0  0  # atno 10718 bound_to 10713
  154.3529  135.6132  153.5652 H   0  0  0  0  0  0  0  0  0  0  0  0  # atno 10763 bound_to 10752
  152.9797  135.5797  154.4722 H   0  0  0  0  0  0  0  0  0  0  0  0  # atno 10764 bound_to 10752
  154.4446  135.2851  155.1801 H   0  0  0  0  0  0  0  0  0  0  0  0  # atno 10765 bound_to 10752
  140.5930  133.9906  155.8097 H   0  0  0  0  0  0  0  0  0  0  0  0  # atno 11005 bound_to 11000
  144.7366  139.7568  143.7327 LP  0  0  0  0  0  0  0  0  0  0  0  0  # atno 17320 bound_to 7965
  146.1671  139.4807  142.9951 LP  0  0  0  0  0  0  0  0  0  0  0  0  # atno 17321 bound_to 7965
  139.4804  144.5031  151.9034 LP  0  0  0  0  0  0  0  0  0  0  0  0  # atno 17342 bound_to 10162
  140.4117  144.2361  150.5889 LP  0  0  0  0  0  0  0  0  0  0  0  0  # atno 17343 bound_to 10162
  157.4027  130.7342  149.6779 LP  0  0  0  0  0  0  0  0  0  0  0  0  # atno 17370 bound_to 10713
  155.9736  130.4116  150.3991 LP  0  0  0  0  0  0  0  0  0  0  0  0  # atno 17371 bound_to 10713
  141.0922  133.9898  157.3218 LP  0  0  0  0  0  0  0  0  0  0  0  0  # atno 17394 bound_to 11000
  139.9266  135.0201  156.8254 LP  0  0  0  0  0  0  0  0  0  0  0  0  # atno 17395 bound_to 11000

$$$$
