AV-unprocessed.smi:2098|AV-procd|sdf|8567|dock1
  -GOLD-   2272011293D 1   1.00000     0.00000
 Structure written by MMmdl.
 37 39  0  0  0  0  0  0  0  0  2 V2000
  151.8532  137.8537  159.2095 O   0  0  0  0  0  0  0  0  0  0  0  0
  150.6431  138.5152  158.8967 C   0  0  2  0  0  0  0  0  0  0  0  0
  149.4786  137.5459  159.1542 C   0  0  0  0  0  0  0  0  0  0  0  0
  149.2209  137.4962  160.5514 O   0  0  0  0  0  0  0  0  0  0  0  0
  148.6716  136.3447  161.0735 C   0  0  0  0  0  0  0  0  0  0  0  0
  148.4533  136.3147  162.4667 C   0  0  0  0  0  0  0  0  0  0  0  0
  147.8937  135.1798  163.0849 C   0  0  0  0  0  0  0  0  0  0  0  0
  147.5462  134.0573  162.3111 C   0  0  0  0  0  0  0  0  0  0  0  0
  147.0082  132.9652  162.9034 F   0  0  0  0  0  0  0  0  0  0  0  0
  147.7591  134.0726  160.9204 C   0  0  0  0  0  0  0  0  0  0  0  0
  148.3180  135.2082  160.3020 C   0  0  0  0  0  0  0  0  0  0  0  0
  150.6833  138.9824  157.4280 C   0  0  0  0  0  0  0  0  0  0  0  0
  150.6451  140.4456  157.2903 N   0  0  0  0  0  0  0  0  0  0  0  0
  149.8159  141.2242  156.5437 C   0  0  0  0  0  0  0  0  0  0  0  0
  150.1784  142.5215  156.7426 N   0  3  0  0  0  0  0  0  0  0  0  0
  151.2545  142.5741  157.6310 C   0  0  0  0  0  0  0  0  0  0  0  0
  151.9661  143.6582  158.1357 C   0  0  0  0  0  0  0  0  0  0  0  0
  153.0139  143.3650  159.0331 C   0  0  0  0  0  0  0  0  0  0  0  0
  153.3191  142.0374  159.3973 C   0  0  0  0  0  0  0  0  0  0  0  0
  152.5922  140.9461  158.8778 C   0  0  0  0  0  0  0  0  0  0  0  0
  151.5589  141.2435  157.9895 C   0  0  0  0  0  0  0  0  0  0  0  0
  151.8630  137.6731  160.1374 H   0  0  0  0  0  0  0  0  0  0  0  0
  150.5412  139.3888  159.5419 H   0  0  0  0  0  0  0  0  0  0  0  0
  148.5840  137.9195  158.6532 H   0  0  0  0  0  0  0  0  0  0  0  0
  149.6999  136.5568  158.7487 H   0  0  0  0  0  0  0  0  0  0  0  0
  148.7170  137.1720  163.0686 H   0  0  0  0  0  0  0  0  0  0  0  0
  147.7308  135.1713  164.1525 H   0  0  0  0  0  0  0  0  0  0  0  0
  147.4926  133.2117  160.3252 H   0  0  0  0  0  0  0  0  0  0  0  0
  148.4643  135.1817  159.2331 H   0  0  0  0  0  0  0  0  0  0  0  0
  151.5599  138.5925  156.9101 H   0  0  0  0  0  0  0  0  0  0  0  0
  149.8165  138.5927  156.8926 H   0  0  0  0  0  0  0  0  0  0  0  0
  149.0157  140.8758  155.9069 H   0  0  0  0  0  0  0  0  0  0  0  0
  151.7331  144.6762  157.8597 H   0  0  0  0  0  0  0  0  0  0  0  0
  153.5936  144.1745  159.4523 H   0  0  0  0  0  0  0  0  0  0  0  0
  154.1268  141.8517  160.0904 H   0  0  0  0  0  0  0  0  0  0  0  0
  152.8312  139.9339  159.1687 H   0  0  0  0  0  0  0  0  0  0  0  0
  149.7229  143.3110  156.3031 H   0  0  0  0  0  0  0  0  0  0  0  0
  1  2  1  0  0  0  0
  1 22  1  0  0  0  0
  2  3  1  0  0  0  0
  2 12  1  0  0  0  0
  2 23  1  0  0  0  0
  3  4  1  0  0  0  0
  3 24  1  0  0  0  0
  3 25  1  0  0  0  0
  4  5  1  0  0  0  0
  5 11  1  0  0  0  0
  5  6  2  0  0  0  0
  6  7  1  0  0  0  0
  6 26  1  0  0  0  0
  7  8  2  0  0  0  0
  7 27  1  0  0  0  0
  8  9  1  0  0  0  0
  8 10  1  0  0  0  0
 10 11  2  0  0  0  0
 10 28  1  0  0  0  0
 11 29  1  0  0  0  0
 12 13  1  0  0  0  0
 12 30  1  0  0  0  0
 12 31  1  0  0  0  0
 13 21  1  0  0  0  0
 13 14  1  0  0  0  0
 14 15  2  0  0  0  0
 14 32  1  0  0  0  0
 15 16  1  0  0  0  0
 15 37  1  0  0  0  0
 16 21  2  0  0  0  0
 16 17  1  0  0  0  0
 17 18  2  0  0  0  0
 17 33  1  0  0  0  0
 18 19  1  0  0  0  0
 18 34  1  0  0  0  0
 19 20  2  0  0  0  0
 19 35  1  0  0  0  0
 20 21  1  0  0  0  0
 20 36  1  0  0  0  0
M  CHG  1  15   1
M  END
> <s_m_source_file>
AV-unprocessed.smi

> <i_m_source_file_index>
2098

> <i_lp_mmshare_version>
43012

> <i_f3d_flags>
0

> <s_epik_input>
W2NIXTFbY0hdW2NIXVtjSF1jKGMxMiluKFtjSF1uMilbQ0gyXVtDQEhdKFtPSF0pW0NIMl1PYzNbY0hdW2NIXWMoRilbY0hdW2NIXTM=

> <s_epik_cmdline>
J2VwaWtfcHl0aG9uJywgJy1waCcsICc3LjAnLCAnLXRuJywgJzgnLCAnLW1hJywgJzIwMCcsICctbWV0YWxfYmluZGluZycsICctaW1hZScsICc8aW5maWxlLm1hZT4nLCAnLW9tYWUnLCAnPG91dGZpbGUubWFlPic=

> <r_lp_tautomer_probability>
1

> <r_epik_Ionization_Penalty>
1.3832

> <r_epik_Ionization_Penalty_Charging>
1.38319

> <r_epik_Ionization_Penalty_Neutral>
2.3993e-06

> <r_epik_State_Penalty>
1.46389

> <r_epik_Charging_Adjusted_Penalty>
2.84709

> <i_epik_Tot_Q>
1

> <i_epik_Tot_abs_Q>
1

> <r_epik_Metal_State_Penalty>
5.50438

> <b_epik_Metal_Only>
0

> <s_lp_Force_Field>
OPLS_2005

> <r_lp_Energy>
20.4389

> <b_lp_Chiralities_Consistent>
1

> <s_lp_Variant>
AV-unprocessed.smi:2098-3

> <Gold.Version>
5.8.1

> <Gold.Id.Protein>
6NUR|6NUR_protein|mol2

> <Gold.PLP.Fitness>
50.2401

> <Gold.PLP.PLP>
-44.6202

> <Gold.PLP.part.hbond>
-2.9881

> <Gold.PLP.part.metal>
0.0000

> <Gold.PLP.part.buried>
-4.9907

> <Gold.PLP.part.nonpolar>
-37.9561

> <Gold.PLP.part.repulsive>
0.0535

> <Gold.PLP.ligand.clash>
0.0000

> <Gold.PLP.ligand.torsion>
1.1230

> <Gold.PLP.Chemscore.Hbond>
2.5784

> <Gold.PLP.Chemscore.CHOScore>
0.0000

> <Gold.PLP.Chemscore.Metal>
0.0000

> <Gold.Chemscore.Hbonds>
donor molecule, donor type, donor heavy atom, donor atom, acceptor molecule, acceptor atom, score
      L1  H    15    37       P1  8028  2.00
      P1  H  6931  6943       L1     4  0.27

> <Gold.PLP.Chemscore.Internal.Correction>
0.1307

> <Gold.Rescore>
     Score         DG    S(hbond)    S(metal)    S(lipo)     H(rot)  DE(clash)    DE(int)     intcor
     14.97     -16.41       1.10        0.00     115.91       2.46       0.03       1.41       ----

> <Gold.Chemscore.Fitness>
14.9689

> <Gold.Chemscore.DG>
-16.4073

> <Gold.Chemscore.ZeroCoef>
-5.4800

> <Gold.Chemscore.Hbond>
1.0958

> <Gold.Chemscore.Metal>
0.0000

> <Gold.Chemscore.Lipo>
115.9062

> <Gold.Chemscore.Internal_Hbond>
0.0000

> <Gold.Chemscore.DEClash>
0.0300

> <Gold.Chemscore.DEInternal>
1.4084

> <Gold.Chemscore.Rot>
2.4584

> <Gold.Chemscore.Internal.Correction>
   9.000000E+99

> <Gold.Chemscore.Hbonds>
donor molecule, donor type, donor heavy atom, donor atom, acceptor molecule, acceptor atom, score
      L1  H    15    37       P1  8028  1.00
      P1  H  6931  6943       L1     4  0.02

> <Gold.Chemscore.Hbond.Weighted>
-3.6598

> <Gold.Chemscore.Metal.Weighted>
-0.0000

> <Gold.Chemscore.Lipo.Weighted>
-13.5610

> <Gold.Chemscore.Internal_Hbond.Weighted>
0.0000

> <Gold.Chemscore.DEClash.Weighted>
0.0300

> <Gold.Chemscore.DEInternal.Weighted>
1.4084

> <Gold.Chemscore.Rot.Weighted>
6.2936

> <Gold.Chemscore.Internal.Correction.Weighted>
   9.000000E+99

> <Gold.Protein.RotatedTorsions>
[ 6907 6896 6895 6894 ] final   70.50 input  -60.11 | X-H torsion
[ 7974 7965 7964 7962 ] final  -53.63 input  175.53 | X-H torsion
[ 8008 7997 7996 7995 ] final   64.84 input   59.86 | X-H torsion
[ 10167 10162 10161 10158 ] final  -46.99 input  -65.29 | X-H torsion
[ 10718 10713 10712 10709 ] final  -33.52 input   66.30 | X-H torsion
[ 10763 10752 10751 10750 ] final -163.25 input  -60.55 | X-H torsion
[ 11005 11000 10999 10996 ] final  125.90 input  -57.11 | X-H torsion

> <Gold.Protein.ActiveResidues>
 VAL166  LYS551  ARG553  GLY616  TRP617  ASP618  TYR619  PRO620  LYS621  CYS622 
 ASP623  PHE694  ASN695  SER759  ASP760  ASP761  ALA762  ILE779  LEU786  VAL792 
 PHE793  MET794  SER795  GLU796  ALA797  LYS798  CYS799  TRP800  GLU811  SER814 

> <Gold.Protein.RotatedAtoms>
  152.4753  134.4860  159.9680 H   0  0  0  0  0  0  0  0  0  0  0  0  # atno 6907 bound_to 6896
  151.4877  133.3526  159.2856 H   0  0  0  0  0  0  0  0  0  0  0  0  # atno 6908 bound_to 6896
  150.8787  134.8202  159.7270 H   0  0  0  0  0  0  0  0  0  0  0  0  # atno 6909 bound_to 6896
  145.8947  140.8043  142.9774 H   0  0  0  0  0  0  0  0  0  0  0  0  # atno 7974 bound_to 7965
  155.6524  140.3497  155.4753 H   0  0  0  0  0  0  0  0  0  0  0  0  # atno 8008 bound_to 7997
  155.9837  140.1179  157.0726 H   0  0  0  0  0  0  0  0  0  0  0  0  # atno 8009 bound_to 7997
  154.4199  140.1133  156.5456 H   0  0  0  0  0  0  0  0  0  0  0  0  # atno 8010 bound_to 7997
  140.6794  143.2805  151.3862 H   0  0  0  0  0  0  0  0  0  0  0  0  # atno 10167 bound_to 10162
  156.3617  130.4325  149.7618 H   0  0  0  0  0  0  0  0  0  0  0  0  # atno 10718 bound_to 10713
  154.7139  135.3012  154.9154 H   0  0  0  0  0  0  0  0  0  0  0  0  # atno 10763 bound_to 10752
  154.0047  135.6702  153.4765 H   0  0  0  0  0  0  0  0  0  0  0  0  # atno 10764 bound_to 10752
  153.0778  135.5025  154.8354 H   0  0  0  0  0  0  0  0  0  0  0  0  # atno 10765 bound_to 10752
  139.9429  134.9633  156.8627 H   0  0  0  0  0  0  0  0  0  0  0  0  # atno 11005 bound_to 11000
  144.6732  140.1583  143.7424 LP  0  0  0  0  0  0  0  0  0  0  0  0  # atno 17320 bound_to 7965
  145.8865  139.2352  143.1574 LP  0  0  0  0  0  0  0  0  0  0  0  0  # atno 17321 bound_to 7965
  139.6107  144.1105  152.2295 LP  0  0  0  0  0  0  0  0  0  0  0  0  # atno 17342 bound_to 10162
  140.0518  144.5927  150.7330 LP  0  0  0  0  0  0  0  0  0  0  0  0  # atno 17343 bound_to 10162
  156.4779  130.8027  151.3043 LP  0  0  0  0  0  0  0  0  0  0  0  0  # atno 17370 bound_to 10713
  157.7474  131.0015  150.2965 LP  0  0  0  0  0  0  0  0  0  0  0  0  # atno 17371 bound_to 10713
  140.5906  134.0265  155.7498 LP  0  0  0  0  0  0  0  0  0  0  0  0  # atno 17394 bound_to 11000
  141.1070  133.9678  157.2979 LP  0  0  0  0  0  0  0  0  0  0  0  0  # atno 17395 bound_to 11000

$$$$
