AV-unprocessed.smi:1997|AV-procd|sdf|8086|dock8
  -GOLD-   2272010303D 1   1.00000     0.00000
 Structure written by MMmdl.
 37 39  0  0  0  0  0  0  0  0  1 V2000
  144.8656  136.5817  153.5760 O   0  0  0  0  0  0  0  0  0  0  0  0
  146.0190  136.4660  153.1601 C   0  0  0  0  0  0  0  0  0  0  0  0
  147.0047  137.3625  153.3396 N   0  0  0  0  0  0  0  0  0  0  0  0
  146.9503  138.6054  154.0243 C   0  0  0  0  0  0  0  0  0  0  0  0
  146.8808  138.7195  155.3577 N   0  0  0  0  0  0  0  0  0  0  0  0
  146.8410  140.0466  155.7623 N   0  0  0  0  0  0  0  0  0  0  0  0
  146.8831  140.8949  154.7282 C   0  0  0  0  0  0  0  0  0  0  0  0
  146.8535  142.3760  154.9108 C   0  0  0  0  0  0  0  0  0  0  0  0
  145.7543  143.0556  155.6983 C   0  0  0  0  0  0  0  0  0  0  0  0
  145.8211  143.2224  154.2018 C   0  0  0  0  0  0  0  0  0  0  0  0
  146.9746  140.1253  153.1471 S   0  0  0  0  0  0  0  0  0  0  0  0
  146.4481  135.4085  152.4542 N   0  0  0  0  0  0  0  0  0  0  0  0
  145.6221  134.2695  152.0466 C   0  0  2  0  0  0  0  0  0  0  0  0
  146.5277  133.2900  151.2654 C   0  0  0  0  0  0  0  0  0  0  0  0
  145.9965  131.8462  151.2341 C   0  0  0  0  0  0  0  0  0  0  0  0
  144.6705  131.6577  150.4812 C   0  0  0  0  0  0  0  0  0  0  0  0
  143.4917  132.4276  151.1008 C   0  0  0  0  0  0  0  0  0  0  0  0
  143.5279  133.8457  150.7684 N   0  0  0  0  0  0  0  0  0  0  0  0
  144.4665  134.7338  151.1295 C   0  0  0  0  0  0  0  0  0  0  0  0
  144.4082  135.8970  150.7304 O   0  0  0  0  0  0  0  0  0  0  0  0
  147.8988  137.1319  152.9319 H   0  0  0  0  0  0  0  0  0  0  0  0
  147.8629  142.7724  155.0006 H   0  0  0  0  0  0  0  0  0  0  0  0
  144.9472  142.4418  156.0936 H   0  0  0  0  0  0  0  0  0  0  0  0
  146.0318  143.9103  156.3118 H   0  0  0  0  0  0  0  0  0  0  0  0
  146.1436  144.1873  153.8164 H   0  0  0  0  0  0  0  0  0  0  0  0
  145.0689  142.7092  153.6058 H   0  0  0  0  0  0  0  0  0  0  0  0
  147.4102  135.3994  152.1493 H   0  0  0  0  0  0  0  0  0  0  0  0
  145.2218  133.7826  152.9379 H   0  0  0  0  0  0  0  0  0  0  0  0
  146.7085  133.6479  150.2503 H   0  0  0  0  0  0  0  0  0  0  0  0
  147.5092  133.2576  151.7411 H   0  0  0  0  0  0  0  0  0  0  0  0
  146.7499  131.2096  150.7691 H   0  0  0  0  0  0  0  0  0  0  0  0
  145.8887  131.4788  152.2554 H   0  0  0  0  0  0  0  0  0  0  0  0
  144.7895  131.9317  149.4320 H   0  0  0  0  0  0  0  0  0  0  0  0
  144.4281  130.5946  150.4860 H   0  0  0  0  0  0  0  0  0  0  0  0
  142.5572  132.0292  150.7052 H   0  0  0  0  0  0  0  0  0  0  0  0
  143.4511  132.2881  152.1821 H   0  0  0  0  0  0  0  0  0  0  0  0
  142.7802  134.1842  150.1800 H   0  0  0  0  0  0  0  0  0  0  0  0
  1  2  2  0  0  0  0
  2  3  1  0  0  0  0
  2 12  1  0  0  0  0
  3  4  1  0  0  0  0
  3 21  1  0  0  0  0
  4 11  1  0  0  0  0
  4  5  2  0  0  0  0
  5  6  1  0  0  0  0
  6  7  2  0  0  0  0
  7  8  1  0  0  0  0
  7 11  1  0  0  0  0
  8 10  1  0  0  0  0
  8  9  1  0  0  0  0
  8 22  1  0  0  0  0
  9 10  1  0  0  0  0
  9 23  1  0  0  0  0
  9 24  1  0  0  0  0
 10 25  1  0  0  0  0
 10 26  1  0  0  0  0
 12 13  1  0  0  0  0
 12 27  1  0  0  0  0
 13 19  1  0  0  0  0
 13 14  1  0  0  0  0
 13 28  1  0  0  0  0
 14 15  1  0  0  0  0
 14 29  1  0  0  0  0
 14 30  1  0  0  0  0
 15 16  1  0  0  0  0
 15 31  1  0  0  0  0
 15 32  1  0  0  0  0
 16 17  1  0  0  0  0
 16 33  1  0  0  0  0
 16 34  1  0  0  0  0
 17 18  1  0  0  0  0
 17 35  1  0  0  0  0
 17 36  1  0  0  0  0
 18 19  1  0  0  0  0
 18 37  1  0  0  0  0
 19 20  2  0  0  0  0
M  END
> <s_m_source_file>
AV-unprocessed.smi

> <i_m_source_file_index>
1997

> <i_lp_mmshare_version>
43012

> <i_f3d_flags>
0

> <s_epik_input>
W0NIMl0xW0NIMl1bQ0hdMWMoczIpbm5jMltOSF1DKD1PKVtOSF1bQ0BASF0zW0NIMl1bQ0gyXVtDSDJdW0NIMl1bTkhdQzM9Tw==

> <s_epik_cmdline>
J2VwaWtfcHl0aG9uJywgJy1waCcsICc3LjAnLCAnLXRuJywgJzgnLCAnLW1hJywgJzIwMCcsICctbWV0YWxfYmluZGluZycsICctaW1hZScsICc8aW5maWxlLm1hZT4nLCAnLW9tYWUnLCAnPG91dGZpbGUubWFlPic=

> <r_lp_tautomer_probability>
1

> <r_epik_Ionization_Penalty>
0.000421558

> <r_epik_Ionization_Penalty_Charging>
0

> <r_epik_Ionization_Penalty_Neutral>
0.000421558

> <r_epik_State_Penalty>
-0

> <r_epik_Charging_Adjusted_Penalty>
0

> <i_epik_Tot_Q>
0

> <i_epik_Tot_abs_Q>
0

> <r_epik_Metal_State_Penalty>
0.200761

> <b_epik_Metal_Only>
0

> <s_lp_Force_Field>
OPLS_2005

> <r_lp_Energy>
8.57521

> <b_lp_Chiralities_Consistent>
1

> <s_lp_Variant>
AV-unprocessed.smi:1997-1

> <Gold.Version>
5.8.1

> <Gold.Id.Protein>
6NUR|6NUR_protein|mol2

> <Gold.PLP.Fitness>
40.4459

> <Gold.PLP.PLP>
-32.8371

> <Gold.PLP.part.hbond>
-3.0000

> <Gold.PLP.part.metal>
0.0000

> <Gold.PLP.part.buried>
-5.1663

> <Gold.PLP.part.nonpolar>
-27.3313

> <Gold.PLP.part.repulsive>
2.1503

> <Gold.PLP.ligand.clash>
0.0000

> <Gold.PLP.ligand.torsion>
0.7469

> <Gold.PLP.Chemscore.Hbond>
2.9920

> <Gold.PLP.Chemscore.CHOScore>
0.0000

> <Gold.PLP.Chemscore.Metal>
0.0000

> <Gold.Chemscore.Hbonds>
donor molecule, donor type, donor heavy atom, donor atom, acceptor molecule, acceptor atom, score
      L1  H     3    21       P1  7948  1.00
      L1  H    12    27       P1  7948  1.00
      L1  H    18    37       P1 10186  1.00

> <Gold.PLP.Chemscore.Internal.Correction>
0.1265

> <Gold.Rescore>
     Score         DG    S(hbond)    S(metal)    S(lipo)     H(rot)  DE(clash)    DE(int)     intcor
     17.67     -19.85       2.81        0.00      70.69       1.29       1.28       0.90       ----

> <Gold.Chemscore.Fitness>
17.6720

> <Gold.Chemscore.DG>
-19.8492

> <Gold.Chemscore.ZeroCoef>
-5.4800

> <Gold.Chemscore.Hbond>
2.8117

> <Gold.Chemscore.Metal>
0.0000

> <Gold.Chemscore.Lipo>
70.6864

> <Gold.Chemscore.Internal_Hbond>
0.0000

> <Gold.Chemscore.DEClash>
1.2758

> <Gold.Chemscore.DEInternal>
0.9014

> <Gold.Chemscore.Rot>
1.2860

> <Gold.Chemscore.Internal.Correction>
   9.000000E+99

> <Gold.Chemscore.Hbonds>
donor molecule, donor type, donor heavy atom, donor atom, acceptor molecule, acceptor atom, score
      L1  H     3    21       P1  7948  0.98
      L1  H    12    27       P1  7948  0.96
      L1  H    18    37       P1 10186  0.93

> <Gold.Chemscore.Hbond.Weighted>
-9.3911

> <Gold.Chemscore.Metal.Weighted>
-0.0000

> <Gold.Chemscore.Lipo.Weighted>
-8.2703

> <Gold.Chemscore.Internal_Hbond.Weighted>
0.0000

> <Gold.Chemscore.DEClash.Weighted>
1.2758

> <Gold.Chemscore.DEInternal.Weighted>
0.9014

> <Gold.Chemscore.Rot.Weighted>
3.2923

> <Gold.Chemscore.Internal.Correction.Weighted>
   9.000000E+99

> <Gold.Protein.RotatedTorsions>
[ 6907 6896 6895 6894 ] final -150.49 input  -60.11 | X-H torsion
[ 7974 7965 7964 7962 ] final   13.65 input  175.53 | X-H torsion
[ 8008 7997 7996 7995 ] final  101.50 input   59.86 | X-H torsion
[ 10167 10162 10161 10158 ] final   16.34 input  -65.29 | X-H torsion
[ 10718 10713 10712 10709 ] final  140.82 input   66.30 | X-H torsion
[ 10763 10752 10751 10750 ] final  -31.17 input  -60.55 | X-H torsion
[ 11005 11000 10999 10996 ] final -161.69 input  -57.11 | X-H torsion

> <Gold.Protein.ActiveResidues>
 VAL166  LYS551  ARG553  GLY616  TRP617  ASP618  TYR619  PRO620  LYS621  CYS622 
 ASP623  PHE694  ASN695  SER759  ASP760  ASP761  ALA762  ILE779  LEU786  VAL792 
 PHE793  MET794  SER795  GLU796  ALA797  LYS798  CYS799  TRP800  GLU811  SER814 

> <Gold.Protein.RotatedAtoms>
  151.1993  133.4620  159.2595 H   0  0  0  0  0  0  0  0  0  0  0  0  # atno 6907 bound_to 6896
  151.1085  135.0013  159.8493 H   0  0  0  0  0  0  0  0  0  0  0  0  # atno 6908 bound_to 6896
  152.5449  134.1914  159.8728 H   0  0  0  0  0  0  0  0  0  0  0  0  # atno 6909 bound_to 6896
  146.2324  139.9157  142.8517 H   0  0  0  0  0  0  0  0  0  0  0  0  # atno 7974 bound_to 7965
  156.1305  140.3196  155.8342 H   0  0  0  0  0  0  0  0  0  0  0  0  # atno 8008 bound_to 7997
  155.4340  140.0521  157.3033 H   0  0  0  0  0  0  0  0  0  0  0  0  # atno 8009 bound_to 7997
  154.4896  140.2086  155.9591 H   0  0  0  0  0  0  0  0  0  0  0  0  # atno 8010 bound_to 7997
  140.5804  143.8992  150.6785 H   0  0  0  0  0  0  0  0  0  0  0  0  # atno 10167 bound_to 10162
  157.3990  131.1014  151.0571 H   0  0  0  0  0  0  0  0  0  0  0  0  # atno 10718 bound_to 10713
  153.7930  135.6896  153.4868 H   0  0  0  0  0  0  0  0  0  0  0  0  # atno 10763 bound_to 10752
  153.1737  135.4532  154.9935 H   0  0  0  0  0  0  0  0  0  0  0  0  # atno 10764 bound_to 10752
  154.8037  135.3348  154.7424 H   0  0  0  0  0  0  0  0  0  0  0  0  # atno 10765 bound_to 10752
  140.6176  134.4784  157.5221 H   0  0  0  0  0  0  0  0  0  0  0  0  # atno 11005 bound_to 11000
  145.2185  140.9925  143.4059 LP  0  0  0  0  0  0  0  0  0  0  0  0  # atno 17320 bound_to 7965
  144.9630  139.3960  143.6346 LP  0  0  0  0  0  0  0  0  0  0  0  0  # atno 17321 bound_to 7965
  140.2490  143.3607  152.1422 LP  0  0  0  0  0  0  0  0  0  0  0  0  # atno 17342 bound_to 10162
  139.5166  144.6980  151.5574 LP  0  0  0  0  0  0  0  0  0  0  0  0  # atno 17343 bound_to 10162
  157.1577  130.6212  149.5601 LP  0  0  0  0  0  0  0  0  0  0  0  0  # atno 17370 bound_to 10713
  155.9818  130.4827  150.6847 LP  0  0  0  0  0  0  0  0  0  0  0  0  # atno 17371 bound_to 10713
  139.9166  134.8233  156.1345 LP  0  0  0  0  0  0  0  0  0  0  0  0  # atno 17394 bound_to 11000
  141.0765  133.6773  156.2247 LP  0  0  0  0  0  0  0  0  0  0  0  0  # atno 17395 bound_to 11000

$$$$
