AV-unprocessed.smi:3208|AV-procd|sdf|12265|dock2
  -GOLD-   2272018103D 1   1.00000     0.00000
 Structure written by MMmdl.
 29 29  0  0  0  0  0  0  0  0  2 V2000
  153.1015  142.8534  162.8066 C   0  0  0  0  0  0  0  0  0  0  0  0
  152.5275  143.1744  161.6373 C   0  0  0  0  0  0  0  0  0  0  0  0
  153.0947  142.8254  160.2794 C   0  0  0  0  0  0  0  0  0  0  0  0
  152.0729  142.3080  159.4372 O   0  0  0  0  0  0  0  0  0  0  0  0
  151.1428  143.2707  158.9446 C   0  0  1  0  0  0  0  0  0  0  0  0
  151.8858  144.1509  157.9304 C   0  0  0  0  0  0  0  0  0  0  0  0
  149.9375  142.5757  158.2744 C   0  0  0  0  0  0  0  0  0  0  0  0
  148.8172  142.6735  158.7744 O   0  0  0  0  0  0  0  0  0  0  0  0
  150.2487  141.7778  157.1844 N   0  0  0  0  0  0  0  0  0  0  0  0
  149.4081  141.6690  156.1923 C   0  0  0  0  0  0  0  0  0  0  0  0
  148.1372  142.2751  156.2050 N   0  0  0  0  0  0  0  0  0  0  0  0
  147.2464  142.1703  155.1583 C   0  0  0  0  0  0  0  0  0  0  0  0
  147.5384  141.4692  154.0613 C   0  0  0  0  0  0  0  0  0  0  0  0
  148.8226  140.8035  153.9758 C   0  0  0  0  0  0  0  0  0  0  0  0
  149.7695  140.8759  155.0044 C   0  0  0  0  0  0  0  0  0  0  0  0
  150.8685  140.2859  154.8885 O   0  5  0  0  0  0  0  0  0  0  0  0
  154.0340  142.3090  162.8435 H   0  0  0  0  0  0  0  0  0  0  0  0
  152.6441  143.1326  163.7444 H   0  0  0  0  0  0  0  0  0  0  0  0
  151.5953  143.7202  161.6384 H   0  0  0  0  0  0  0  0  0  0  0  0
  153.5537  143.7117  159.8400 H   0  0  0  0  0  0  0  0  0  0  0  0
  153.8803  142.0812  160.4162 H   0  0  0  0  0  0  0  0  0  0  0  0
  150.8175  143.9065  159.7696 H   0  0  0  0  0  0  0  0  0  0  0  0
  151.2351  144.9289  157.5293 H   0  0  0  0  0  0  0  0  0  0  0  0
  152.2629  143.5635  157.0924 H   0  0  0  0  0  0  0  0  0  0  0  0
  152.7378  144.6448  158.3980 H   0  0  0  0  0  0  0  0  0  0  0  0
  146.3134  142.6945  155.3028 H   0  0  0  0  0  0  0  0  0  0  0  0
  146.8290  141.3974  153.2501 H   0  0  0  0  0  0  0  0  0  0  0  0
  149.0450  140.2348  153.0843 H   0  0  0  0  0  0  0  0  0  0  0  0
  147.8295  142.8172  156.9980 H   0  0  0  0  0  0  0  0  0  0  0  0
  1  2  2  0  0  0  0
  1 17  1  0  0  0  0
  1 18  1  0  0  0  0
  2  3  1  0  0  0  0
  2 19  1  0  0  0  0
  3  4  1  0  0  0  0
  3 20  1  0  0  0  0
  3 21  1  0  0  0  0
  4  5  1  0  0  0  0
  5  6  1  0  0  0  0
  5  7  1  0  0  0  0
  5 22  1  0  0  0  0
  6 23  1  0  0  0  0
  6 24  1  0  0  0  0
  6 25  1  0  0  0  0
  7  8  2  0  0  0  0
  7  9  1  0  0  0  0
  9 10  2  0  0  0  0
 10 15  1  0  0  0  0
 10 11  1  0  0  0  0
 11 29  1  0  0  0  0
 11 12  1  0  0  0  0
 12 26  1  0  0  0  0
 12 13  2  0  0  0  0
 13 27  1  0  0  0  0
 13 14  1  0  0  0  0
 14 15  2  0  0  0  0
 14 28  1  0  0  0  0
 15 16  1  0  0  0  0
M  CHG  1  16  -1
M  END
> <s_m_source_file>
AV-unprocessed.smi

> <i_m_source_file_index>
3208

> <i_lp_mmshare_version>
43012

> <i_f3d_flags>
0

> <s_epik_input>
W0NIMl09W0NIXVtDSDJdT1tDQEhdKFtDSDNdKUMoPU8pW05IXWMxbltjSF1bY0hdW2NIXWMxW09IXQ==

> <s_epik_cmdline>
J2VwaWtfcHl0aG9uJywgJy1waCcsICc3LjAnLCAnLXRuJywgJzgnLCAnLW1hJywgJzIwMCcsICctbWV0YWxfYmluZGluZycsICctaW1hZScsICc8aW5maWxlLm1hZT4nLCAnLW9tYWUnLCAnPG91dGZpbGUubWFlPic=

> <r_epik_Ionization_Penalty>
0.613767

> <r_epik_Ionization_Penalty_Charging>
0.613767

> <r_epik_Ionization_Penalty_Neutral>
1.14324e-13

> <r_epik_State_Penalty>
1.22258

> <r_epik_Charging_Adjusted_Penalty>
1.83635

> <i_epik_Tot_Q>
-1

> <i_epik_Tot_abs_Q>
1

> <r_epik_Metal_State_Penalty>
1.18528

> <b_epik_Metal_Only>
0

> <s_lp_Force_Field>
OPLS_2005

> <r_lp_Energy>
40.4661

> <b_lp_Chiralities_Consistent>
1

> <s_lp_Variant>
AV-unprocessed.smi:3208-6

> <Gold.Version>
5.8.1

> <Gold.Id.Protein>
6NUR|6NUR_protein|mol2

> <Gold.PLP.Fitness>
38.6987

> <Gold.PLP.PLP>
-36.6182

> <Gold.PLP.part.hbond>
-2.5806

> <Gold.PLP.part.metal>
0.0000

> <Gold.PLP.part.buried>
-2.1818

> <Gold.PLP.part.nonpolar>
-31.2766

> <Gold.PLP.part.repulsive>
0.3018

> <Gold.PLP.ligand.clash>
0.0000

> <Gold.PLP.ligand.torsion>
0.4920

> <Gold.PLP.Chemscore.Hbond>
1.0000

> <Gold.PLP.Chemscore.CHOScore>
0.0000

> <Gold.PLP.Chemscore.Metal>
0.0000

> <Gold.Chemscore.Hbonds>
donor molecule, donor type, donor heavy atom, donor atom, acceptor molecule, acceptor atom, score
      P1  H  7989  7998       L1    16  1.00

> <Gold.PLP.Chemscore.Internal.Correction>
0.0644

> <Gold.Rescore>
     Score         DG    S(hbond)    S(metal)    S(lipo)     H(rot)  DE(clash)    DE(int)     intcor
     13.88     -14.42       0.98        0.00      84.55       1.65       0.06       0.47       ----

> <Gold.Chemscore.Fitness>
13.8848

> <Gold.Chemscore.DG>
-14.4204

> <Gold.Chemscore.ZeroCoef>
-5.4800

> <Gold.Chemscore.Hbond>
0.9822

> <Gold.Chemscore.Metal>
0.0000

> <Gold.Chemscore.Lipo>
84.5494

> <Gold.Chemscore.Internal_Hbond>
0.0000

> <Gold.Chemscore.DEClash>
0.0650

> <Gold.Chemscore.DEInternal>
0.4706

> <Gold.Chemscore.Rot>
1.6533

> <Gold.Chemscore.Internal.Correction>
   9.000000E+99

> <Gold.Chemscore.Hbonds>
donor molecule, donor type, donor heavy atom, donor atom, acceptor molecule, acceptor atom, score
      P1  H  7989  7998       L1    16  0.65

> <Gold.Chemscore.Hbond.Weighted>
-3.2805

> <Gold.Chemscore.Metal.Weighted>
-0.0000

> <Gold.Chemscore.Lipo.Weighted>
-9.8923

> <Gold.Chemscore.Internal_Hbond.Weighted>
0.0000

> <Gold.Chemscore.DEClash.Weighted>
0.0650

> <Gold.Chemscore.DEInternal.Weighted>
0.4706

> <Gold.Chemscore.Rot.Weighted>
4.2324

> <Gold.Chemscore.Internal.Correction.Weighted>
   9.000000E+99

> <Gold.Protein.RotatedTorsions>
[ 6907 6896 6895 6894 ] final -121.74 input  -60.11 | X-H torsion
[ 7974 7965 7964 7962 ] final    8.61 input  175.53 | X-H torsion
[ 8008 7997 7996 7995 ] final   31.35 input   59.86 | X-H torsion
[ 10167 10162 10161 10158 ] final   37.90 input  -65.29 | X-H torsion
[ 10718 10713 10712 10709 ] final   88.84 input   66.30 | X-H torsion
[ 10763 10752 10751 10750 ] final  -77.12 input  -60.55 | X-H torsion
[ 11005 11000 10999 10996 ] final   61.91 input  -57.11 | X-H torsion

> <Gold.Protein.ActiveResidues>
 VAL166  LYS551  ARG553  GLY616  TRP617  ASP618  TYR619  PRO620  LYS621  CYS622 
 ASP623  PHE694  ASN695  SER759  ASP760  ASP761  ALA762  ILE779  LEU786  VAL792 
 PHE793  MET794  SER795  GLU796  ALA797  LYS798  CYS799  TRP800  GLU811  SER814 

> <Gold.Protein.RotatedAtoms>
  150.8511  133.7786  159.3025 H   0  0  0  0  0  0  0  0  0  0  0  0  # atno 6907 bound_to 6896
  151.5458  135.1066  159.9947 H   0  0  0  0  0  0  0  0  0  0  0  0  # atno 6908 bound_to 6896
  152.4553  133.7667  159.6833 H   0  0  0  0  0  0  0  0  0  0  0  0  # atno 6909 bound_to 6896
  146.2414  139.9907  142.8426 H   0  0  0  0  0  0  0  0  0  0  0  0  # atno 7974 bound_to 7965
  155.1050  140.3233  155.4537 H   0  0  0  0  0  0  0  0  0  0  0  0  # atno 8008 bound_to 7997
  156.2706  140.2054  156.6122 H   0  0  0  0  0  0  0  0  0  0  0  0  # atno 8009 bound_to 7997
  154.6800  140.0527  157.0243 H   0  0  0  0  0  0  0  0  0  0  0  0  # atno 8010 bound_to 7997
  140.3988  144.1752  150.6133 H   0  0  0  0  0  0  0  0  0  0  0  0  # atno 10167 bound_to 10162
  157.6952  131.0310  150.3336 H   0  0  0  0  0  0  0  0  0  0  0  0  # atno 10718 bound_to 10713
  154.5088  135.5774  153.6588 H   0  0  0  0  0  0  0  0  0  0  0  0  # atno 10763 bound_to 10752
  152.9893  135.6153  154.2906 H   0  0  0  0  0  0  0  0  0  0  0  0  # atno 10764 bound_to 10752
  154.2819  135.2850  155.2673 H   0  0  0  0  0  0  0  0  0  0  0  0  # atno 10765 bound_to 10752
  140.0129  134.6269  155.9754 H   0  0  0  0  0  0  0  0  0  0  0  0  # atno 11005 bound_to 11000
  145.1506  140.9621  143.4435 LP  0  0  0  0  0  0  0  0  0  0  0  0  # atno 17320 bound_to 7965
  145.0209  139.3425  143.6073 LP  0  0  0  0  0  0  0  0  0  0  0  0  # atno 17321 bound_to 7965
  140.4762  143.2395  151.9020 LP  0  0  0  0  0  0  0  0  0  0  0  0  # atno 17342 bound_to 10162
  139.4785  144.5318  151.8656 LP  0  0  0  0  0  0  0  0  0  0  0  0  # atno 17343 bound_to 10162
  156.3806  130.3880  149.7105 LP  0  0  0  0  0  0  0  0  0  0  0  0  # atno 17370 bound_to 10713
  156.4488  130.7896  151.2918 LP  0  0  0  0  0  0  0  0  0  0  0  0  # atno 17371 bound_to 10713
  141.1723  133.6538  156.4697 LP  0  0  0  0  0  0  0  0  0  0  0  0  # atno 17394 bound_to 11000
  140.4523  134.6917  157.5045 LP  0  0  0  0  0  0  0  0  0  0  0  0  # atno 17395 bound_to 11000

$$$$
