AV-unprocessed.smi:218|AV-procd|sdf|1670|dock8
  -GOLD-   2262020 83D 1   1.00000     0.00000
 Structure written by MMmdl.
 54 57  0  0  0  0  0  0  0  0  1 V2000
  152.1848  145.1943  159.0203 C   0  0  0  0  0  0  0  0  0  0  0  0
  151.9206  143.7233  159.3634 C   0  0  0  0  0  0  0  0  0  0  0  0
  153.0542  143.1404  160.2248 C   0  0  0  0  0  0  0  0  0  0  0  0
  151.8253  143.0200  158.1232 O   0  0  0  0  0  0  0  0  0  0  0  0
  151.5347  141.6693  158.1106 C   0  0  0  0  0  0  0  0  0  0  0  0
  150.2278  141.2713  157.7630 C   0  0  0  0  0  0  0  0  0  0  0  0
  149.9129  139.8967  157.7527 C   0  0  0  0  0  0  0  0  0  0  0  0
  148.5188  139.4267  157.3913 C   0  0  0  0  0  0  0  0  0  0  0  0
  148.4963  138.5417  156.2346 N   0  0  0  0  0  0  0  0  0  0  0  0
  147.3347  138.2980  155.5920 C   0  0  0  0  0  0  0  0  0  0  0  0
  146.3436  139.2272  155.5608 N   0  0  0  0  0  0  0  0  0  0  0  0
  145.2035  138.9661  154.9141 C   0  0  0  0  0  0  0  0  0  0  0  0
  144.8549  137.8615  154.2506 N   0  0  0  0  0  0  0  0  0  0  0  0
  145.8474  136.9250  154.2809 C   0  0  0  0  0  0  0  0  0  0  0  0
  147.1072  137.0661  154.9258 C   0  0  0  0  0  0  0  0  0  0  0  0
  147.8588  135.9117  154.7481 N   0  0  0  0  0  0  0  0  0  0  0  0
  147.0821  135.1346  154.0413 C   0  0  0  0  0  0  0  0  0  0  0  0
  145.8511  135.6633  153.7215 N   0  0  0  0  0  0  0  0  0  0  0  0
  144.7555  135.0247  152.9246 C   0  0  2  0  0  0  0  0  0  0  0  0
  145.1268  133.7038  152.6903 O   0  0  0  0  0  0  0  0  0  0  0  0
  144.7175  133.3211  151.3857 C   0  0  2  0  0  0  0  0  0  0  0  0
  145.5747  132.1430  150.8987 C   0  0  0  0  0  0  0  0  0  0  0  0
  146.9232  132.5425  150.7760 O   0  0  0  0  0  0  0  0  0  0  0  0
  144.9216  134.6029  150.5723 C   0  0  1  0  0  0  0  0  0  0  0  0
  144.0741  134.6119  149.4408 O   0  0  0  0  0  0  0  0  0  0  0  0
  144.5219  135.6989  151.5528 C   0  0  2  0  0  0  0  0  0  0  0  0
  145.2773  136.8773  151.3348 O   0  0  0  0  0  0  0  0  0  0  0  0
  150.9197  138.9714  158.0930 C   0  0  0  0  0  0  0  0  0  0  0  0
  152.1964  139.4640  158.4262 C   0  0  0  0  0  0  0  0  0  0  0  0
  152.5037  140.7784  158.4381 N   0  0  0  0  0  0  0  0  0  0  0  0
  143.8779  135.0667  153.5710 H   0  0  0  0  0  0  0  0  0  0  0  0
  143.6569  133.0603  151.4080 H   0  0  0  0  0  0  0  0  0  0  0  0
  145.9663  134.7027  150.2732 H   0  0  0  0  0  0  0  0  0  0  0  0
  143.4574  135.9261  151.4746 H   0  0  0  0  0  0  0  0  0  0  0  0
  152.2587  145.8017  159.9228 H   0  0  0  0  0  0  0  0  0  0  0  0
  151.3779  145.6032  158.4114 H   0  0  0  0  0  0  0  0  0  0  0  0
  153.1140  145.3103  158.4616 H   0  0  0  0  0  0  0  0  0  0  0  0
  150.9779  143.6849  159.9114 H   0  0  0  0  0  0  0  0  0  0  0  0
  153.1654  143.7004  161.1536 H   0  0  0  0  0  0  0  0  0  0  0  0
  154.0074  143.1783  159.6970 H   0  0  0  0  0  0  0  0  0  0  0  0
  152.8665  142.1009  160.4922 H   0  0  0  0  0  0  0  0  0  0  0  0
  149.4807  142.0104  157.5135 H   0  0  0  0  0  0  0  0  0  0  0  0
  148.0750  138.9128  158.2451 H   0  0  0  0  0  0  0  0  0  0  0  0
  147.9063  140.3063  157.1898 H   0  0  0  0  0  0  0  0  0  0  0  0
  149.3801  138.1311  155.9691 H   0  0  0  0  0  0  0  0  0  0  0  0
  144.4651  139.7540  154.9311 H   0  0  0  0  0  0  0  0  0  0  0  0
  147.3877  134.1451  153.7341 H   0  0  0  0  0  0  0  0  0  0  0  0
  145.5408  131.3291  151.6233 H   0  0  0  0  0  0  0  0  0  0  0  0
  145.2050  131.7491  149.9514 H   0  0  0  0  0  0  0  0  0  0  0  0
  147.4510  131.7743  150.6188 H   0  0  0  0  0  0  0  0  0  0  0  0
  144.6087  134.5089  148.6681 H   0  0  0  0  0  0  0  0  0  0  0  0
  144.8480  137.3844  150.6619 H   0  0  0  0  0  0  0  0  0  0  0  0
  150.7231  137.9093  158.0995 H   0  0  0  0  0  0  0  0  0  0  0  0
  152.9920  138.7837  158.6911 H   0  0  0  0  0  0  0  0  0  0  0  0
  1  2  1  0  0  0  0
  1 35  1  0  0  0  0
  1 36  1  0  0  0  0
  1 37  1  0  0  0  0
  2  3  1  0  0  0  0
  2  4  1  0  0  0  0
  2 38  1  0  0  0  0
  3 39  1  0  0  0  0
  3 40  1  0  0  0  0
  3 41  1  0  0  0  0
  4  5  1  0  0  0  0
  5 30  1  0  0  0  0
  5  6  2  0  0  0  0
  6  7  1  0  0  0  0
  6 42  1  0  0  0  0
  7  8  1  0  0  0  0
  7 28  2  0  0  0  0
  8  9  1  0  0  0  0
  8 43  1  0  0  0  0
  8 44  1  0  0  0  0
  9 10  1  0  0  0  0
  9 45  1  0  0  0  0
 10 15  1  0  0  0  0
 10 11  2  0  0  0  0
 11 12  1  0  0  0  0
 12 13  2  0  0  0  0
 12 46  1  0  0  0  0
 13 14  1  0  0  0  0
 14 18  1  0  0  0  0
 14 15  2  0  0  0  0
 15 16  1  0  0  0  0
 16 17  2  0  0  0  0
 17 18  1  0  0  0  0
 17 47  1  0  0  0  0
 18 19  1  0  0  0  0
 19 31  1  0  0  0  0
 19 26  1  0  0  0  0
 19 20  1  0  0  0  0
 20 21  1  0  0  0  0
 21 32  1  0  0  0  0
 21 22  1  0  0  0  0
 21 24  1  0  0  0  0
 22 23  1  0  0  0  0
 22 48  1  0  0  0  0
 22 49  1  0  0  0  0
 23 50  1  0  0  0  0
 24 33  1  0  0  0  0
 24 25  1  0  0  0  0
 24 26  1  0  0  0  0
 25 51  1  0  0  0  0
 26 34  1  0  0  0  0
 26 27  1  0  0  0  0
 27 52  1  0  0  0  0
 28 29  1  0  0  0  0
 28 53  1  0  0  0  0
 29 30  2  0  0  0  0
 29 54  1  0  0  0  0
M  END
> <s_m_source_file>
AV-unprocessed.smi

> <i_m_source_file_index>
218

> <i_lp_mmshare_version>
43012

> <i_f3d_flags>
0

> <s_epik_input>
W0NIM11bQ0hdKFtDSDNdKU9jMVtjSF1jKFtjSF1bY0hdbjEpW0NIMl1bTkhdYyhuW2NIXW4yKWMoYzIzKW5bY0hdbjNbQ0BASF00T1tDQEhdKFtDSDJdW09IXSlbQ0BASF0oW09IXSlbQ0BIXTRbT0hd

> <s_epik_cmdline>
J2VwaWtfcHl0aG9uJywgJy1waCcsICc3LjAnLCAnLXRuJywgJzgnLCAnLW1hJywgJzIwMCcsICctbWV0YWxfYmluZGluZycsICctaW1hZScsICc8aW5maWxlLm1hZT4nLCAnLW9tYWUnLCAnPG91dGZpbGUubWFlPic=

> <r_lp_tautomer_probability>
1

> <r_epik_Ionization_Penalty>
0.00457014

> <r_epik_Ionization_Penalty_Charging>
0

> <r_epik_Ionization_Penalty_Neutral>
0.00457014

> <r_epik_State_Penalty>
-0

> <r_epik_Charging_Adjusted_Penalty>
0

> <i_epik_Tot_Q>
0

> <i_epik_Tot_abs_Q>
0

> <r_epik_Metal_State_Penalty>
-0

> <b_epik_Metal_Only>
0

> <s_epik_Chemistry_Notes>
This compound contains an acetal/aminal-like group ( X-CH(R)-Y where X, Y are N, S, or O) that may be acid/base labile, releasing an aldehyde.

> <s_lp_Force_Field>
OPLS_2005

> <r_lp_Energy>
38.9245

> <b_lp_Chiralities_Consistent>
1

> <s_lp_Variant>
AV-unprocessed.smi:218-9

> <Gold.Version>
5.8.1

> <Gold.Id.Protein>
6NUR|6NUR_protein|mol2

> <Gold.PLP.Fitness>
48.4781

> <Gold.PLP.PLP>
-38.3789

> <Gold.PLP.part.hbond>
-3.7741

> <Gold.PLP.part.metal>
0.0000

> <Gold.PLP.part.buried>
-6.2066

> <Gold.PLP.part.nonpolar>
-27.5084

> <Gold.PLP.part.repulsive>
0.3967

> <Gold.PLP.ligand.clash>
0.0000

> <Gold.PLP.ligand.torsion>
0.6404

> <Gold.PLP.Chemscore.Hbond>
3.0000

> <Gold.PLP.Chemscore.CHOScore>
0.7102

> <Gold.PLP.Chemscore.Metal>
0.0000

> <Gold.Chemscore.Hbonds>
donor molecule, donor type, donor heavy atom, donor atom, acceptor molecule, acceptor atom, score
      L1  H    23    50       P1 10747  1.00
      L1  H    25    51       P1  7921  1.00
      L1  H    27    52       P1 10171  1.00
      L1  C    12    46       P1 10175  0.45

> <Gold.PLP.Chemscore.Internal.Correction>
0.2495

> <Gold.Rescore>
     Score         DG    S(hbond)    S(metal)    S(lipo)     H(rot)  DE(clash)    DE(int)     intcor
     10.62     -12.44       3.00        0.00      81.25       4.90       0.03       1.79       ----

> <Gold.Chemscore.Fitness>
10.6177

> <Gold.Chemscore.DG>
-12.4393

> <Gold.Chemscore.ZeroCoef>
-5.4800

> <Gold.Chemscore.Hbond>
2.9954

> <Gold.Chemscore.Metal>
0.0000

> <Gold.Chemscore.Lipo>
81.2511

> <Gold.Chemscore.Internal_Hbond>
0.0000

> <Gold.Chemscore.DEClash>
0.0285

> <Gold.Chemscore.DEInternal>
1.7931

> <Gold.Chemscore.Rot>
4.9029

> <Gold.Chemscore.Internal.Correction>
   9.000000E+99

> <Gold.Chemscore.Hbonds>
donor molecule, donor type, donor heavy atom, donor atom, acceptor molecule, acceptor atom, score
      L1  H    23    50       P1 10747  0.99
      L1  H    25    51       P1  7921  0.98
      L1  H    27    52       P1 10171  1.00

> <Gold.Chemscore.Hbond.Weighted>
-10.0045

> <Gold.Chemscore.Metal.Weighted>
-0.0000

> <Gold.Chemscore.Lipo.Weighted>
-9.5064

> <Gold.Chemscore.Internal_Hbond.Weighted>
0.0000

> <Gold.Chemscore.DEClash.Weighted>
0.0285

> <Gold.Chemscore.DEInternal.Weighted>
1.7931

> <Gold.Chemscore.Rot.Weighted>
12.5515

> <Gold.Chemscore.Internal.Correction.Weighted>
   9.000000E+99

> <Gold.Protein.RotatedTorsions>
[ 6907 6896 6895 6894 ] final   -0.71 input  -60.11 | X-H torsion
[ 7974 7965 7964 7962 ] final  -29.11 input  175.53 | X-H torsion
[ 8008 7997 7996 7995 ] final -116.73 input   59.86 | X-H torsion
[ 10167 10162 10161 10158 ] final  101.32 input  -65.29 | X-H torsion
[ 10718 10713 10712 10709 ] final  -15.05 input   66.30 | X-H torsion
[ 10763 10752 10751 10750 ] final  -59.14 input  -60.55 | X-H torsion
[ 11005 11000 10999 10996 ] final  -53.90 input  -57.11 | X-H torsion

> <Gold.Protein.ActiveResidues>
 VAL166  LYS551  ARG553  GLY616  TRP617  ASP618  TYR619  PRO620  LYS621  CYS622 
 ASP623  PHE694  ASN695  SER759  ASP760  ASP761  ALA762  ILE779  LEU786  VAL792 
 PHE793  MET794  SER795  GLU796  ALA797  LYS798  CYS799  TRP800  GLU811  SER814 

> <Gold.Protein.RotatedAtoms>
  151.5578  135.1066  159.9965 H   0  0  0  0  0  0  0  0  0  0  0  0  # atno 6907 bound_to 6896
  152.4461  133.7535  159.6717 H   0  0  0  0  0  0  0  0  0  0  0  0  # atno 6908 bound_to 6896
  150.8377  133.7919  159.3097 H   0  0  0  0  0  0  0  0  0  0  0  0  # atno 6909 bound_to 6896
  146.1240  140.5370  142.8723 H   0  0  0  0  0  0  0  0  0  0  0  0  # atno 7974 bound_to 7965
  155.0724  140.0393  157.2613 H   0  0  0  0  0  0  0  0  0  0  0  0  # atno 8008 bound_to 7997
  154.6971  140.2665  155.6730 H   0  0  0  0  0  0  0  0  0  0  0  0  # atno 8009 bound_to 7997
  156.2748  140.2748  156.1570 H   0  0  0  0  0  0  0  0  0  0  0  0  # atno 8010 bound_to 7997
  139.7448  144.7001  151.0520 H   0  0  0  0  0  0  0  0  0  0  0  0  # atno 10167 bound_to 10162
  156.6073  130.4840  149.6215 H   0  0  0  0  0  0  0  0  0  0  0  0  # atno 10718 bound_to 10713
  154.2491  135.6329  153.5234 H   0  0  0  0  0  0  0  0  0  0  0  0  # atno 10763 bound_to 10752
  152.9915  135.5560  154.5827 H   0  0  0  0  0  0  0  0  0  0  0  0  # atno 10764 bound_to 10752
  154.5350  135.2891  155.1121 H   0  0  0  0  0  0  0  0  0  0  0  0  # atno 10765 bound_to 10752
  141.0999  133.6619  156.4241 H   0  0  0  0  0  0  0  0  0  0  0  0  # atno 11005 bound_to 11000
  144.7624  140.5453  143.6726 LP  0  0  0  0  0  0  0  0  0  0  0  0  # atno 17320 bound_to 7965
  145.5405  139.1475  143.3449 LP  0  0  0  0  0  0  0  0  0  0  0  0  # atno 17321 bound_to 7965
  140.7791  143.4880  150.9931 LP  0  0  0  0  0  0  0  0  0  0  0  0  # atno 17342 bound_to 10162
  139.8568  143.7367  152.3175 LP  0  0  0  0  0  0  0  0  0  0  0  0  # atno 17343 bound_to 10162
  156.2419  130.6856  151.1564 LP  0  0  0  0  0  0  0  0  0  0  0  0  # atno 17370 bound_to 10713
  157.7264  131.0647  150.5913 LP  0  0  0  0  0  0  0  0  0  0  0  0  # atno 17371 bound_to 10713
  140.5047  134.6452  157.5262 LP  0  0  0  0  0  0  0  0  0  0  0  0  # atno 17394 bound_to 11000
  139.9847  134.7080  155.9795 LP  0  0  0  0  0  0  0  0  0  0  0  0  # atno 17395 bound_to 11000

$$$$
