AV-unprocessed.smi:278|AV-procd|sdf|2087|dock2
  -GOLD-   2262021363D 1   1.00000     0.00000
 Structure written by MMmdl.
 50 54  0  0  0  0  0  0  0  0  1 V2000
  150.5772  138.0834  155.0289 O   0  0  0  0  0  0  0  0  0  0  0  0
  151.3673  139.2138  155.5409 S   0  0  0  0  0  0  0  0  0  0  0  0
  152.5162  139.7317  154.7827 O   0  0  0  0  0  0  0  0  0  0  0  0
  150.2366  140.6047  155.9317 C   0  0  0  0  0  0  0  0  0  0  0  0
  150.5027  140.9761  157.3963 C   0  0  0  0  0  0  0  0  0  0  0  0
  150.9676  139.7217  158.1584 C   0  0  1  0  0  0  0  0  0  0  0  0
  149.8390  138.7383  158.4859 C   0  0  0  0  0  0  0  0  0  0  0  0
  150.4743  137.4287  158.5133 N   0  0  0  0  0  0  0  0  0  0  0  0
  149.7480  136.2928  158.6836 C   0  0  0  0  0  0  0  0  0  0  0  0
  149.6393  135.4283  157.6394 N   0  0  0  0  0  0  0  0  0  0  0  0
  148.9307  134.3022  157.7588 C   0  0  0  0  0  0  0  0  0  0  0  0
  148.2530  133.8520  158.8151 N   0  0  0  0  0  0  0  0  0  0  0  0
  148.3478  134.7155  159.8659 C   0  0  0  0  0  0  0  0  0  0  0  0
  149.0656  135.9466  159.8882 C   0  0  0  0  0  0  0  0  0  0  0  0
  148.9144  136.5492  161.1334 N   0  0  0  0  0  0  0  0  0  0  0  0
  148.1665  135.7196  161.8078 C   0  0  0  0  0  0  0  0  0  0  0  0
  147.7796  134.5928  161.1214 N   0  0  0  0  0  0  0  0  0  0  0  0
  146.9498  133.5129  161.6254 C   0  0  0  0  0  0  0  0  0  0  0  0
  146.0181  133.9680  162.7654 C   0  0  2  0  0  0  0  0  0  0  0  0
  145.4618  132.8533  163.4361 O   0  0  0  0  0  0  0  0  0  0  0  0
  144.9057  134.9202  162.2811 C   0  0  2  0  0  0  0  0  0  0  0  0
  144.0396  135.5680  163.3647 C   0  0  0  0  0  0  0  0  0  0  0  0
  142.7989  135.9206  162.5750 C   0  0  0  0  0  0  0  0  0  0  0  0
  142.6718  134.7200  161.6397 C   0  0  0  0  0  0  0  0  0  0  0  0
  144.0023  134.2763  161.3857 O   0  0  0  0  0  0  0  0  0  0  0  0
  151.6935  137.4366  157.7164 C   0  0  0  0  0  0  0  0  0  0  0  0
  151.9035  138.8930  157.2757 C   0  0  1  0  0  0  0  0  0  0  0  0
  151.4758  139.9959  159.0839 H   0  0  0  0  0  0  0  0  0  0  0  0
  152.9427  139.2087  157.3710 H   0  0  0  0  0  0  0  0  0  0  0  0
  150.4058  141.4332  155.2439 H   0  0  0  0  0  0  0  0  0  0  0  0
  149.2136  140.2512  155.8018 H   0  0  0  0  0  0  0  0  0  0  0  0
  151.3035  141.7157  157.4278 H   0  0  0  0  0  0  0  0  0  0  0  0
  149.6302  141.4365  157.8608 H   0  0  0  0  0  0  0  0  0  0  0  0
  149.3686  138.9759  159.4408 H   0  0  0  0  0  0  0  0  0  0  0  0
  149.0688  138.7471  157.7136 H   0  0  0  0  0  0  0  0  0  0  0  0
  148.9023  133.6725  156.8819 H   0  0  0  0  0  0  0  0  0  0  0  0
  147.8738  135.9086  162.8304 H   0  0  0  0  0  0  0  0  0  0  0  0
  146.3622  133.1191  160.7953 H   0  0  0  0  0  0  0  0  0  0  0  0
  147.5990  132.7021  161.9581 H   0  0  0  0  0  0  0  0  0  0  0  0
  146.6153  134.5038  163.5043 H   0  0  0  0  0  0  0  0  0  0  0  0
  145.3130  132.1682  162.8022 H   0  0  0  0  0  0  0  0  0  0  0  0
  145.3708  135.7229  161.7064 H   0  0  0  0  0  0  0  0  0  0  0  0
  143.7807  134.8597  164.1523 H   0  0  0  0  0  0  0  0  0  0  0  0
  144.5141  136.4339  163.8270 H   0  0  0  0  0  0  0  0  0  0  0  0
  141.9183  136.0694  163.2001 H   0  0  0  0  0  0  0  0  0  0  0  0
  142.9679  136.8310  161.9983 H   0  0  0  0  0  0  0  0  0  0  0  0
  142.1274  133.9129  162.1314 H   0  0  0  0  0  0  0  0  0  0  0  0
  142.1496  134.9657  160.7148 H   0  0  0  0  0  0  0  0  0  0  0  0
  152.5207  137.1152  158.3496 H   0  0  0  0  0  0  0  0  0  0  0  0
  151.6397  136.7548  156.8677 H   0  0  0  0  0  0  0  0  0  0  0  0
  1  2  2  0  0  0  0
  2 27  1  0  0  0  0
  2  3  2  0  0  0  0
  2  4  1  0  0  0  0
  4  5  1  0  0  0  0
  4 30  1  0  0  0  0
  4 31  1  0  0  0  0
  5  6  1  0  0  0  0
  5 32  1  0  0  0  0
  5 33  1  0  0  0  0
  6 28  1  0  0  0  0
  6 27  1  0  0  0  0
  6  7  1  0  0  0  0
  7  8  1  0  0  0  0
  7 34  1  0  0  0  0
  7 35  1  0  0  0  0
  8  9  1  0  0  0  0
  8 26  1  0  0  0  0
  9 14  1  0  0  0  0
  9 10  2  0  0  0  0
 10 11  1  0  0  0  0
 11 12  2  0  0  0  0
 11 36  1  0  0  0  0
 12 13  1  0  0  0  0
 13 17  1  0  0  0  0
 13 14  2  0  0  0  0
 14 15  1  0  0  0  0
 15 16  2  0  0  0  0
 16 17  1  0  0  0  0
 16 37  1  0  0  0  0
 17 18  1  0  0  0  0
 18 19  1  0  0  0  0
 18 38  1  0  0  0  0
 18 39  1  0  0  0  0
 19 20  1  0  0  0  0
 19 21  1  0  0  0  0
 19 40  1  0  0  0  0
 20 41  1  0  0  0  0
 21 25  1  0  0  0  0
 21 22  1  0  0  0  0
 21 42  1  0  0  0  0
 22 23  1  0  0  0  0
 22 43  1  0  0  0  0
 22 44  1  0  0  0  0
 23 24  1  0  0  0  0
 23 45  1  0  0  0  0
 23 46  1  0  0  0  0
 24 25  1  0  0  0  0
 24 47  1  0  0  0  0
 24 48  1  0  0  0  0
 26 27  1  0  0  0  0
 26 49  1  0  0  0  0
 26 50  1  0  0  0  0
 27 29  1  0  0  0  0
M  END
> <s_m_source_file>
AV-unprocessed.smi

> <i_m_source_file_index>
278

> <i_lp_mmshare_version>
43012

> <i_f3d_flags>
0

> <s_epik_input>
W0NIMl0xW0NIMl1TKD1PKSg9TylbQ0BASF0oW0NAQEhdMTIpW0NIMl1OKFtDSDJdMiljKG5bY0hdbjMpYyhjMzQpbltjSF1uNFtDSDJdW0NASF0oW09IXSlbQ0BASF01W0NIMl1bQ0gyXVtDSDJdTzU=

> <s_epik_cmdline>
J2VwaWtfcHl0aG9uJywgJy1waCcsICc3LjAnLCAnLXRuJywgJzgnLCAnLW1hJywgJzIwMCcsICctbWV0YWxfYmluZGluZycsICctaW1hZScsICc8aW5maWxlLm1hZT4nLCAnLW9tYWUnLCAnPG91dGZpbGUubWFlPic=

> <r_lp_tautomer_probability>
1

> <r_epik_Ionization_Penalty>
0.000636766

> <r_epik_Ionization_Penalty_Charging>
0

> <r_epik_Ionization_Penalty_Neutral>
0.000636766

> <r_epik_State_Penalty>
0.000329976

> <r_epik_Charging_Adjusted_Penalty>
0.000329976

> <i_epik_Tot_Q>
0

> <i_epik_Tot_abs_Q>
0

> <r_epik_Metal_State_Penalty>
-0

> <b_epik_Metal_Only>
0

> <s_lp_Force_Field>
OPLS_2005

> <r_lp_Energy>
50.3002

> <b_lp_Chiralities_Consistent>
1

> <s_lp_Variant>
AV-unprocessed.smi:278-1

> <Gold.Version>
5.8.1

> <Gold.Id.Protein>
6NUR|6NUR_protein|mol2

> <Gold.PLP.Fitness>
43.8870

> <Gold.PLP.PLP>
-39.7277

> <Gold.PLP.part.hbond>
-5.0965

> <Gold.PLP.part.metal>
0.0000

> <Gold.PLP.part.buried>
-7.3599

> <Gold.PLP.part.nonpolar>
-29.6389

> <Gold.PLP.part.repulsive>
0.1256

> <Gold.PLP.ligand.clash>
0.0000

> <Gold.PLP.ligand.torsion>
1.3525

> <Gold.PLP.Chemscore.Hbond>
2.1913

> <Gold.PLP.Chemscore.CHOScore>
0.0000

> <Gold.PLP.Chemscore.Metal>
0.0000

> <Gold.Chemscore.Hbonds>
donor molecule, donor type, donor heavy atom, donor atom, acceptor molecule, acceptor atom, score
      P1  H  6931  6943       L1    15  1.00
      P1  H  7989  7998       L1     3  0.61
      P1  H  7997  8009       L1     3  0.39

> <Gold.PLP.Chemscore.Internal.Correction>
0.2903

> <Gold.Rescore>
     Score         DG    S(hbond)    S(metal)    S(lipo)     H(rot)  DE(clash)    DE(int)     intcor
     12.61     -13.92       2.04        0.00      60.69       2.13       0.11       1.20       ----

> <Gold.Chemscore.Fitness>
12.6136

> <Gold.Chemscore.DG>
-13.9165

> <Gold.Chemscore.ZeroCoef>
-5.4800

> <Gold.Chemscore.Hbond>
2.0360

> <Gold.Chemscore.Metal>
0.0000

> <Gold.Chemscore.Lipo>
60.6917

> <Gold.Chemscore.Internal_Hbond>
0.0000

> <Gold.Chemscore.DEClash>
0.1064

> <Gold.Chemscore.DEInternal>
1.1965

> <Gold.Chemscore.Rot>
2.1346

> <Gold.Chemscore.Internal.Correction>
   9.000000E+99

> <Gold.Chemscore.Hbonds>
donor molecule, donor type, donor heavy atom, donor atom, acceptor molecule, acceptor atom, score
      P1  H  6931  6943       L1    15  0.86
      P1  H  7989  7998       L1     3  0.24
      P1  H  7997  8009       L1     3  0.38

> <Gold.Chemscore.Hbond.Weighted>
-6.8002

> <Gold.Chemscore.Metal.Weighted>
-0.0000

> <Gold.Chemscore.Lipo.Weighted>
-7.1009

> <Gold.Chemscore.Internal_Hbond.Weighted>
0.0000

> <Gold.Chemscore.DEClash.Weighted>
0.1064

> <Gold.Chemscore.DEInternal.Weighted>
1.1965

> <Gold.Chemscore.Rot.Weighted>
5.4646

> <Gold.Chemscore.Internal.Correction.Weighted>
   9.000000E+99

> <Gold.Protein.RotatedTorsions>
[ 6907 6896 6895 6894 ] final  144.32 input  -60.11 | X-H torsion
[ 7974 7965 7964 7962 ] final  138.74 input  175.53 | X-H torsion
[ 8008 7997 7996 7995 ] final -133.56 input   59.86 | X-H torsion
[ 10167 10162 10161 10158 ] final   69.26 input  -65.29 | X-H torsion
[ 10718 10713 10712 10709 ] final -168.94 input   66.30 | X-H torsion
[ 10763 10752 10751 10750 ] final  178.93 input  -60.55 | X-H torsion
[ 11005 11000 10999 10996 ] final   46.82 input  -57.11 | X-H torsion

> <Gold.Protein.ActiveResidues>
 VAL166  LYS551  ARG553  GLY616  TRP617  ASP618  TYR619  PRO620  LYS621  CYS622 
 ASP623  PHE694  ASN695  SER759  ASP760  ASP761  ALA762  ILE779  LEU786  VAL792 
 PHE793  MET794  SER795  GLU796  ALA797  LYS798  CYS799  TRP800  GLU811  SER814 

> <Gold.Protein.RotatedAtoms>
  152.1951  133.4800  159.5028 H   0  0  0  0  0  0  0  0  0  0  0  0  # atno 6907 bound_to 6896
  150.6958  134.1663  159.4204 H   0  0  0  0  0  0  0  0  0  0  0  0  # atno 6908 bound_to 6896
  151.9578  135.0138  160.0596 H   0  0  0  0  0  0  0  0  0  0  0  0  # atno 6909 bound_to 6896
  144.9344  139.5007  143.5602 H   0  0  0  0  0  0  0  0  0  0  0  0  # atno 7974 bound_to 7965
  155.3476  140.0475  157.3046 H   0  0  0  0  0  0  0  0  0  0  0  0  # atno 8008 bound_to 7997
  154.5244  140.2236  155.8881 H   0  0  0  0  0  0  0  0  0  0  0  0  # atno 8009 bound_to 7997
  156.1724  140.3093  155.9003 H   0  0  0  0  0  0  0  0  0  0  0  0  # atno 8010 bound_to 7997
  140.0697  144.5163  150.7236 H   0  0  0  0  0  0  0  0  0  0  0  0  # atno 10167 bound_to 10162
  156.7043  130.9209  151.3083 H   0  0  0  0  0  0  0  0  0  0  0  0  # atno 10718 bound_to 10713
  154.5141  135.2790  155.1318 H   0  0  0  0  0  0  0  0  0  0  0  0  # atno 10763 bound_to 10752
  154.2901  135.6268  153.5385 H   0  0  0  0  0  0  0  0  0  0  0  0  # atno 10764 bound_to 10752
  152.9924  135.5672  154.5614 H   0  0  0  0  0  0  0  0  0  0  0  0  # atno 10765 bound_to 10752
  140.1335  134.4675  155.8503 H   0  0  0  0  0  0  0  0  0  0  0  0  # atno 11005 bound_to 11000
  146.3260  139.8318  142.8907 LP  0  0  0  0  0  0  0  0  0  0  0  0  # atno 17320 bound_to 7965
  145.3090  141.0214  143.3565 LP  0  0  0  0  0  0  0  0  0  0  0  0  # atno 17321 bound_to 7965
  140.7132  143.2522  151.4517 LP  0  0  0  0  0  0  0  0  0  0  0  0  # atno 17342 bound_to 10162
  139.5843  144.1639  152.2009 LP  0  0  0  0  0  0  0  0  0  0  0  0  # atno 17343 bound_to 10162
  157.6961  130.9283  150.0648 LP  0  0  0  0  0  0  0  0  0  0  0  0  # atno 17370 bound_to 10713
  156.1706  130.3646  149.9170 LP  0  0  0  0  0  0  0  0  0  0  0  0  # atno 17371 bound_to 10713
  141.2174  133.6805  156.7113 LP  0  0  0  0  0  0  0  0  0  0  0  0  # atno 17394 bound_to 11000
  140.2812  134.8315  157.3935 LP  0  0  0  0  0  0  0  0  0  0  0  0  # atno 17395 bound_to 11000

$$$$
