AV-unprocessed.smi:2880|AV-procd|sdf|11052|dock8
  -GOLD-   2272015523D 1   1.00000     0.00000
 Structure written by MMmdl.
 47 48  0  0  0  0  0  0  0  0  1 V2000
  141.4846  135.1846  160.5926 C   0  0  0  0  0  0  0  0  0  0  0  0
  142.3455  133.9647  160.2082 C   0  0  0  0  0  0  0  0  0  0  0  0
  143.2340  133.5981  161.4211 C   0  0  0  0  0  0  0  0  0  0  0  0
  141.4319  132.7683  159.8828 C   0  0  0  0  0  0  0  0  0  0  0  0
  143.1422  134.2899  159.0169 N   0  0  0  0  0  0  0  0  0  0  0  0
  144.0386  135.3327  158.8490 C   0  0  0  0  0  0  0  0  0  0  0  0
  144.5236  135.2754  157.5734 C   0  0  0  0  0  0  0  0  0  0  0  0
  143.8455  134.1578  157.0189 C   0  0  0  0  0  0  0  0  0  0  0  0
  144.0757  133.7615  155.6767 N   0  0  0  0  0  0  0  0  0  0  0  0
  144.9798  134.2628  154.8177 C   0  0  0  0  0  0  0  0  0  0  0  0
  145.7628  135.1799  155.0676 O   0  0  0  0  0  0  0  0  0  0  0  0
  144.9193  133.6381  153.6321 N   0  0  0  0  0  0  0  0  0  0  0  0
  145.7647  133.9109  152.4669 C   0  0  1  0  0  0  0  0  0  0  0  0
  146.5700  132.6471  152.1026 C   0  0  0  0  0  0  0  0  0  0  0  0
  145.6780  131.5351  151.5238 C   0  0  0  0  0  0  0  0  0  0  0  0
  144.8657  132.0428  150.3238 C   0  0  0  0  0  0  0  0  0  0  0  0
  144.0443  133.2895  150.6895 C   0  0  0  0  0  0  0  0  0  0  0  0
  144.9399  134.4159  151.2534 C   0  0  1  0  0  0  0  0  0  0  0  0
  144.1381  135.6954  151.5706 C   0  0  0  0  0  0  0  0  0  0  0  0
  145.0005  136.8038  151.7215 O   0  0  0  0  0  0  0  0  0  0  0  0
  143.0147  133.5774  157.8714 N   0  0  0  0  0  0  0  0  0  0  0  0
  140.8930  134.9851  161.4868 H   0  0  0  0  0  0  0  0  0  0  0  0
  140.7866  135.4569  159.8005 H   0  0  0  0  0  0  0  0  0  0  0  0
  142.1060  136.0570  160.7988 H   0  0  0  0  0  0  0  0  0  0  0  0
  143.9108  134.4126  161.6830 H   0  0  0  0  0  0  0  0  0  0  0  0
  143.8385  132.7109  161.2274 H   0  0  0  0  0  0  0  0  0  0  0  0
  142.6290  133.3849  162.3029 H   0  0  0  0  0  0  0  0  0  0  0  0
  140.8248  132.4874  160.7439 H   0  0  0  0  0  0  0  0  0  0  0  0
  142.0148  131.8937  159.5918 H   0  0  0  0  0  0  0  0  0  0  0  0
  140.7492  132.9959  159.0634 H   0  0  0  0  0  0  0  0  0  0  0  0
  144.2574  136.0280  159.6458 H   0  0  0  0  0  0  0  0  0  0  0  0
  145.2447  135.9333  157.1114 H   0  0  0  0  0  0  0  0  0  0  0  0
  143.4895  133.0147  155.3345 H   0  0  0  0  0  0  0  0  0  0  0  0
  144.2387  132.9005  153.5252 H   0  0  0  0  0  0  0  0  0  0  0  0
  146.4895  134.6843  152.7268 H   0  0  0  0  0  0  0  0  0  0  0  0
  147.3328  132.9093  151.3682 H   0  0  0  0  0  0  0  0  0  0  0  0
  147.1079  132.2772  152.9764 H   0  0  0  0  0  0  0  0  0  0  0  0
  146.2924  130.6861  151.2230 H   0  0  0  0  0  0  0  0  0  0  0  0
  145.0002  131.1644  152.2937 H   0  0  0  0  0  0  0  0  0  0  0  0
  145.5409  132.2807  149.5009 H   0  0  0  0  0  0  0  0  0  0  0  0
  144.2047  131.2546  149.9628 H   0  0  0  0  0  0  0  0  0  0  0  0
  143.5138  133.6378  149.8029 H   0  0  0  0  0  0  0  0  0  0  0  0
  143.2775  133.0218  151.4175 H   0  0  0  0  0  0  0  0  0  0  0  0
  145.6610  134.6780  150.4769 H   0  0  0  0  0  0  0  0  0  0  0  0
  143.4128  135.9117  150.7856 H   0  0  0  0  0  0  0  0  0  0  0  0
  143.5804  135.5724  152.4995 H   0  0  0  0  0  0  0  0  0  0  0  0
  144.5671  137.5702  151.3781 H   0  0  0  0  0  0  0  0  0  0  0  0
  1  2  1  0  0  0  0
  1 22  1  0  0  0  0
  1 23  1  0  0  0  0
  1 24  1  0  0  0  0
  2  3  1  0  0  0  0
  2  4  1  0  0  0  0
  2  5  1  0  0  0  0
  3 25  1  0  0  0  0
  3 26  1  0  0  0  0
  3 27  1  0  0  0  0
  4 28  1  0  0  0  0
  4 29  1  0  0  0  0
  4 30  1  0  0  0  0
  5 21  1  0  0  0  0
  5  6  1  0  0  0  0
  6  7  2  0  0  0  0
  6 31  1  0  0  0  0
  7  8  1  0  0  0  0
  7 32  1  0  0  0  0
  8  9  1  0  0  0  0
  8 21  2  0  0  0  0
  9 10  1  0  0  0  0
  9 33  1  0  0  0  0
 10 11  2  0  0  0  0
 10 12  1  0  0  0  0
 12 13  1  0  0  0  0
 12 34  1  0  0  0  0
 13 18  1  0  0  0  0
 13 14  1  0  0  0  0
 13 35  1  0  0  0  0
 14 15  1  0  0  0  0
 14 36  1  0  0  0  0
 14 37  1  0  0  0  0
 15 16  1  0  0  0  0
 15 38  1  0  0  0  0
 15 39  1  0  0  0  0
 16 17  1  0  0  0  0
 16 40  1  0  0  0  0
 16 41  1  0  0  0  0
 17 18  1  0  0  0  0
 17 42  1  0  0  0  0
 17 43  1  0  0  0  0
 18 19  1  0  0  0  0
 18 44  1  0  0  0  0
 19 20  1  0  0  0  0
 19 45  1  0  0  0  0
 19 46  1  0  0  0  0
 20 47  1  0  0  0  0
M  END
> <s_m_source_file>
AV-unprocessed.smi

> <i_m_source_file_index>
2880

> <i_lp_mmshare_version>
43012

> <i_f3d_flags>
0

> <s_epik_input>
W0NIM11DKFtDSDNdKShbQ0gzXSluMVtjSF1bY0hdYyhuMSlbTkhdQyg9TylbTkhdW0NAQEhdMltDSDJdW0NIMl1bQ0gyXVtDSDJdW0NASF0yW0NIMl1bT0hd

> <s_epik_cmdline>
J2VwaWtfcHl0aG9uJywgJy1waCcsICc3LjAnLCAnLXRuJywgJzgnLCAnLW1hJywgJzIwMCcsICctbWV0YWxfYmluZGluZycsICctaW1hZScsICc8aW5maWxlLm1hZT4nLCAnLW9tYWUnLCAnPG91dGZpbGUubWFlPic=

> <r_lp_tautomer_probability>
1

> <r_epik_Ionization_Penalty>
3.89283e-05

> <r_epik_Ionization_Penalty_Charging>
0

> <r_epik_Ionization_Penalty_Neutral>
3.89283e-05

> <r_epik_State_Penalty>
-0

> <r_epik_Charging_Adjusted_Penalty>
0

> <i_epik_Tot_Q>
0

> <i_epik_Tot_abs_Q>
0

> <r_epik_Metal_State_Penalty>
-0

> <b_epik_Metal_Only>
0

> <s_lp_Force_Field>
OPLS_2005

> <r_lp_Energy>
20.5246

> <b_lp_Chiralities_Consistent>
1

> <s_lp_Variant>
AV-unprocessed.smi:2880-2

> <Gold.Version>
5.8.1

> <Gold.Id.Protein>
6NUR|6NUR_protein|mol2

> <Gold.PLP.Fitness>
37.0080

> <Gold.PLP.PLP>
-27.4244

> <Gold.PLP.part.hbond>
-3.6215

> <Gold.PLP.part.metal>
0.0000

> <Gold.PLP.part.buried>
-6.0381

> <Gold.PLP.part.nonpolar>
-18.7740

> <Gold.PLP.part.repulsive>
0.1104

> <Gold.PLP.ligand.clash>
0.0000

> <Gold.PLP.ligand.torsion>
0.1181

> <Gold.PLP.Chemscore.Hbond>
3.2600

> <Gold.PLP.Chemscore.CHOScore>
0.0000

> <Gold.PLP.Chemscore.Metal>
0.0000

> <Gold.Chemscore.Hbonds>
donor molecule, donor type, donor heavy atom, donor atom, acceptor molecule, acceptor atom, score
      L1  H     9    33       P1 10957  1.00
      L1  H    12    34       P1 10957  0.25
      L1  H    20    47       P1 10171  0.99
      P1  H 11000 11005       L1    21  1.00

> <Gold.PLP.Chemscore.Internal.Correction>
0.0397

> <Gold.Rescore>
     Score         DG    S(hbond)    S(metal)    S(lipo)     H(rot)  DE(clash)    DE(int)     intcor
     17.56     -19.16       3.55        0.00      58.72       1.97       0.00       1.61       ----

> <Gold.Chemscore.Fitness>
17.5559

> <Gold.Chemscore.DG>
-19.1613

> <Gold.Chemscore.ZeroCoef>
-5.4800

> <Gold.Chemscore.Hbond>
3.5470

> <Gold.Chemscore.Metal>
0.0000

> <Gold.Chemscore.Lipo>
58.7223

> <Gold.Chemscore.Internal_Hbond>
0.0000

> <Gold.Chemscore.DEClash>
0.0000

> <Gold.Chemscore.DEInternal>
1.6054

> <Gold.Chemscore.Rot>
1.9672

> <Gold.Chemscore.Internal.Correction>
   9.000000E+99

> <Gold.Chemscore.Hbonds>
donor molecule, donor type, donor heavy atom, donor atom, acceptor molecule, acceptor atom, score
      L1  H     9    33       P1 10957  0.98
      L1  H    12    34       P1 10957  0.17
      L1  H    20    47       P1 10171  0.90
      P1  H 11000 11005       L1    21  0.40

> <Gold.Chemscore.Hbond.Weighted>
-11.8468

> <Gold.Chemscore.Metal.Weighted>
-0.0000

> <Gold.Chemscore.Lipo.Weighted>
-6.8705

> <Gold.Chemscore.Internal_Hbond.Weighted>
0.0000

> <Gold.Chemscore.DEClash.Weighted>
0.0000

> <Gold.Chemscore.DEInternal.Weighted>
1.6054

> <Gold.Chemscore.Rot.Weighted>
5.0360

> <Gold.Chemscore.Internal.Correction.Weighted>
   9.000000E+99

> <Gold.Protein.RotatedTorsions>
[ 6907 6896 6895 6894 ] final -179.63 input  -60.11 | X-H torsion
[ 7974 7965 7964 7962 ] final  102.18 input  175.53 | X-H torsion
[ 8008 7997 7996 7995 ] final -151.76 input   59.86 | X-H torsion
[ 10167 10162 10161 10158 ] final   61.32 input  -65.29 | X-H torsion
[ 10718 10713 10712 10709 ] final   89.79 input   66.30 | X-H torsion
[ 10763 10752 10751 10750 ] final  157.07 input  -60.55 | X-H torsion
[ 11005 11000 10999 10996 ] final  -94.69 input  -57.11 | X-H torsion

> <Gold.Protein.ActiveResidues>
 VAL166  LYS551  ARG553  GLY616  TRP617  ASP618  TYR619  PRO620  LYS621  CYS622 
 ASP623  PHE694  ASN695  SER759  ASP760  ASP761  ALA762  ILE779  LEU786  VAL792 
 PHE793  MET794  SER795  GLU796  ALA797  LYS798  CYS799  TRP800  GLU811  SER814 

> <Gold.Protein.RotatedAtoms>
  151.6566  133.3318  159.3163 H   0  0  0  0  0  0  0  0  0  0  0  0  # atno 6907 bound_to 6896
  150.7934  134.6979  159.6543 H   0  0  0  0  0  0  0  0  0  0  0  0  # atno 6908 bound_to 6896
  152.4017  134.6278  160.0119 H   0  0  0  0  0  0  0  0  0  0  0  0  # atno 6909 bound_to 6896
  145.3625  139.2415  143.3499 H   0  0  0  0  0  0  0  0  0  0  0  0  # atno 7974 bound_to 7965
  155.6445  140.0705  157.2607 H   0  0  0  0  0  0  0  0  0  0  0  0  # atno 8008 bound_to 7997
  154.4176  140.1744  156.1658 H   0  0  0  0  0  0  0  0  0  0  0  0  # atno 8009 bound_to 7997
  155.9828  140.3352  155.6682 H   0  0  0  0  0  0  0  0  0  0  0  0  # atno 8010 bound_to 7997
  140.1560  144.4416  150.6734 H   0  0  0  0  0  0  0  0  0  0  0  0  # atno 10167 bound_to 10162
  157.6957  131.0346  150.3479 H   0  0  0  0  0  0  0  0  0  0  0  0  # atno 10718 bound_to 10713
  154.1944  135.2793  155.3011 H   0  0  0  0  0  0  0  0  0  0  0  0  # atno 10763 bound_to 10752
  154.5904  135.5561  153.7276 H   0  0  0  0  0  0  0  0  0  0  0  0  # atno 10764 bound_to 10752
  153.0104  135.6367  154.2082 H   0  0  0  0  0  0  0  0  0  0  0  0  # atno 10765 bound_to 10752
  141.1463  133.7973  157.0332 H   0  0  0  0  0  0  0  0  0  0  0  0  # atno 11005 bound_to 11000
  146.2921  140.4261  142.8735 LP  0  0  0  0  0  0  0  0  0  0  0  0  # atno 17320 bound_to 7965
  144.8636  140.7174  143.6091 LP  0  0  0  0  0  0  0  0  0  0  0  0  # atno 17321 bound_to 7965
  140.6673  143.2272  151.5712 LP  0  0  0  0  0  0  0  0  0  0  0  0  # atno 17342 bound_to 10162
  139.5403  144.2665  152.1337 LP  0  0  0  0  0  0  0  0  0  0  0  0  # atno 17343 bound_to 10162
  156.3931  130.3902  149.7015 LP  0  0  0  0  0  0  0  0  0  0  0  0  # atno 17370 bound_to 10713
  156.4357  130.7837  151.2857 LP  0  0  0  0  0  0  0  0  0  0  0  0  # atno 17371 bound_to 10713
  140.0740  134.9686  157.1515 LP  0  0  0  0  0  0  0  0  0  0  0  0  # atno 17394 bound_to 11000
  140.3670  134.2432  155.7181 LP  0  0  0  0  0  0  0  0  0  0  0  0  # atno 17395 bound_to 11000

$$$$
