AV-unprocessed.smi:1572|AV-procd|sdf|6330|dock2
  -GOLD-   22720 6543D 1   1.00000     0.00000
 Structure written by MMmdl.
 42 43  0  0  0  0  0  0  0  0  3 V2000
  151.5825  143.4240  157.9034 C   0  0  0  0  0  0  0  0  0  0  0  0
  150.5008  143.0191  156.9762 N   0  3  0  0  0  0  0  0  0  0  0  0
  149.3297  142.4132  157.6511 C   0  0  0  0  0  0  0  0  0  0  0  0
  149.6009  140.9526  158.0692 C   0  0  0  0  0  0  0  0  0  0  0  0
  149.9508  140.1541  156.8847 N   0  0  0  0  0  0  0  0  0  0  0  0
  149.9576  138.6790  157.0648 C   0  0  0  0  0  0  0  0  0  0  0  0
  150.2327  137.9485  155.7296 C   0  0  0  0  0  0  0  0  0  0  0  0
  151.0485  138.2633  158.0851 C   0  0  0  0  0  0  0  0  0  0  0  0
  148.5828  138.2167  157.6358 C   0  0  0  0  0  0  0  0  0  0  0  0
  148.6134  136.8395  158.1321 N   0  0  0  0  0  0  0  0  0  0  0  0
  148.4661  136.4447  159.4052 C   0  0  0  0  0  0  0  0  0  0  0  0
  148.1984  137.2679  160.2833 O   0  0  0  0  0  0  0  0  0  0  0  0
  148.6571  135.1188  159.5879 N   0  5  0  0  0  0  0  0  0  0  0  0
  147.9223  134.4562  160.4962 C   0  0  0  0  0  0  0  0  0  0  0  0
  147.7878  133.1207  160.4783 N   0  0  0  0  0  0  0  0  0  0  0  0
  146.9894  132.6389  161.5069 N   0  0  0  0  0  0  0  0  0  0  0  0
  146.5471  133.6282  162.2827 C   0  0  0  0  0  0  0  0  0  0  0  0
  147.0627  135.2381  161.8262 S   0  0  0  0  0  0  0  0  0  0  0  0
  151.1976  140.7117  156.3373 C   0  0  0  0  0  0  0  0  0  0  0  0
  150.9571  142.1569  155.8617 C   0  0  0  0  0  0  0  0  0  0  0  0
  152.0159  142.5688  158.4222 H   0  0  0  0  0  0  0  0  0  0  0  0
  151.2016  144.1172  158.6539 H   0  0  0  0  0  0  0  0  0  0  0  0
  152.3804  143.9313  157.3604 H   0  0  0  0  0  0  0  0  0  0  0  0
  149.0456  143.0130  158.5165 H   0  0  0  0  0  0  0  0  0  0  0  0
  148.4813  142.4431  156.9656 H   0  0  0  0  0  0  0  0  0  0  0  0
  150.3890  140.8971  158.8205 H   0  0  0  0  0  0  0  0  0  0  0  0
  148.6896  140.5891  158.5393 H   0  0  0  0  0  0  0  0  0  0  0  0
  150.2985  136.8713  155.8859 H   0  0  0  0  0  0  0  0  0  0  0  0
  151.1733  138.2632  155.2775 H   0  0  0  0  0  0  0  0  0  0  0  0
  149.4399  138.1090  154.9987 H   0  0  0  0  0  0  0  0  0  0  0  0
  150.9288  137.2216  158.3848 H   0  0  0  0  0  0  0  0  0  0  0  0
  151.0092  138.8668  158.9930 H   0  0  0  0  0  0  0  0  0  0  0  0
  152.0544  138.3427  157.6725 H   0  0  0  0  0  0  0  0  0  0  0  0
  148.1967  138.9019  158.3903 H   0  0  0  0  0  0  0  0  0  0  0  0
  147.8358  138.2461  156.8419 H   0  0  0  0  0  0  0  0  0  0  0  0
  148.8233  136.1221  157.4536 H   0  0  0  0  0  0  0  0  0  0  0  0
  145.9136  133.4082  163.1290 H   0  0  0  0  0  0  0  0  0  0  0  0
  151.9927  140.6814  157.0826 H   0  0  0  0  0  0  0  0  0  0  0  0
  151.5552  140.1361  155.4876 H   0  0  0  0  0  0  0  0  0  0  0  0
  150.1975  142.1635  155.0781 H   0  0  0  0  0  0  0  0  0  0  0  0
  151.8625  142.5696  155.4156 H   0  0  0  0  0  0  0  0  0  0  0  0
  150.1736  143.8767  156.5546 H   0  0  0  0  0  0  0  0  0  0  0  0
  1  2  1  0  0  0  0
  1 21  1  0  0  0  0
  1 22  1  0  0  0  0
  1 23  1  0  0  0  0
  2 20  1  0  0  0  0
  2  3  1  0  0  0  0
  2 42  1  0  0  0  0
  3  4  1  0  0  0  0
  3 24  1  0  0  0  0
  3 25  1  0  0  0  0
  4  5  1  0  0  0  0
  4 26  1  0  0  0  0
  4 27  1  0  0  0  0
  5  6  1  0  0  0  0
  5 19  1  0  0  0  0
  6  7  1  0  0  0  0
  6  8  1  0  0  0  0
  6  9  1  0  0  0  0
  7 28  1  0  0  0  0
  7 29  1  0  0  0  0
  7 30  1  0  0  0  0
  8 31  1  0  0  0  0
  8 32  1  0  0  0  0
  8 33  1  0  0  0  0
  9 10  1  0  0  0  0
  9 34  1  0  0  0  0
  9 35  1  0  0  0  0
 10 11  1  0  0  0  0
 10 36  1  0  0  0  0
 11 12  2  0  0  0  0
 11 13  1  0  0  0  0
 13 14  1  0  0  0  0
 14 18  1  0  0  0  0
 14 15  2  0  0  0  0
 15 16  1  0  0  0  0
 16 17  2  0  0  0  0
 17 18  1  0  0  0  0
 17 37  1  0  0  0  0
 19 20  1  0  0  0  0
 19 38  1  0  0  0  0
 19 39  1  0  0  0  0
 20 40  1  0  0  0  0
 20 41  1  0  0  0  0
M  CHG  1   2   1
M  CHG  1  13  -1
M  END
> <s_m_source_file>
AV-unprocessed.smi

> <i_m_source_file_index>
1572

> <i_lp_mmshare_version>
43012

> <i_f3d_flags>
0

> <s_epik_input>
W0NIM11OMVtDSDJdW0NIMl1OKFtDSDJdW0NIMl0xKUMoW0NIM10pKFtDSDNdKVtDSDJdW05IXUMoPU8pW05IXWMybm5bY0hdczI=

> <s_epik_cmdline>
J2VwaWtfcHl0aG9uJywgJy1waCcsICc3LjAnLCAnLXRuJywgJzgnLCAnLW1hJywgJzIwMCcsICctbWV0YWxfYmluZGluZycsICctaW1hZScsICc8aW5maWxlLm1hZT4nLCAnLW9tYWUnLCAnPG91dGZpbGUubWFlPic=

> <r_lp_tautomer_probability>
1

> <r_epik_Ionization_Penalty>
3.56565

> <r_epik_Ionization_Penalty_Charging>
3.52353

> <r_epik_Ionization_Penalty_Neutral>
0.0421115

> <r_epik_State_Penalty>
3.62656

> <r_epik_Charging_Adjusted_Penalty>
7.1501

> <i_epik_Tot_Q>
0

> <i_epik_Tot_abs_Q>
2

> <r_epik_Metal_State_Penalty>
0.645945

> <b_epik_Metal_Only>
1

> <s_lp_Force_Field>
OPLS_2005

> <r_lp_Energy>
17.8403

> <b_lp_Chiralities_Consistent>
1

> <s_lp_Variant>
AV-unprocessed.smi:1572-4

> <Gold.Version>
5.8.1

> <Gold.Id.Protein>
6NUR|6NUR_protein|mol2

> <Gold.PLP.Fitness>
40.0785

> <Gold.PLP.PLP>
-25.4195

> <Gold.PLP.part.hbond>
-4.0000

> <Gold.PLP.part.metal>
0.0000

> <Gold.PLP.part.buried>
-4.2356

> <Gold.PLP.part.nonpolar>
-16.7500

> <Gold.PLP.part.repulsive>
0.1101

> <Gold.PLP.ligand.clash>
0.0000

> <Gold.PLP.ligand.torsion>
0.4936

> <Gold.PLP.Chemscore.Hbond>
5.1954

> <Gold.PLP.Chemscore.CHOScore>
0.0000

> <Gold.PLP.Chemscore.Metal>
0.0000

> <Gold.Chemscore.Hbonds>
donor molecule, donor type, donor heavy atom, donor atom, acceptor molecule, acceptor atom, score
      L1  H     2    42       P1  8028  1.95
      P1  H  6896  6907       L1    13  1.76
      P1  H  6931  6943       L1    12  0.61
      P1  H  6934  6947       L1    12  0.50

> <Gold.PLP.Chemscore.Internal.Correction>
0.0600

> <Gold.Rescore>
     Score         DG    S(hbond)    S(metal)    S(lipo)     H(rot)  DE(clash)    DE(int)     intcor
     15.51     -17.92       2.88        0.00      60.67       1.67       0.55       1.86       ----

> <Gold.Chemscore.Fitness>
15.5087

> <Gold.Chemscore.DG>
-17.9241

> <Gold.Chemscore.ZeroCoef>
-5.4800

> <Gold.Chemscore.Hbond>
2.8801

> <Gold.Chemscore.Metal>
0.0000

> <Gold.Chemscore.Lipo>
60.6692

> <Gold.Chemscore.Internal_Hbond>
0.0000

> <Gold.Chemscore.DEClash>
0.5513

> <Gold.Chemscore.DEInternal>
1.8642

> <Gold.Chemscore.Rot>
1.6694

> <Gold.Chemscore.Internal.Correction>
   9.000000E+99

> <Gold.Chemscore.Hbonds>
donor molecule, donor type, donor heavy atom, donor atom, acceptor molecule, acceptor atom, score
      L1  H     2    42       P1  8028  0.93
      P1  H  6896  6907       L1    13  0.63
      P1  H  6931  6943       L1    12  0.57
      P1  H  6934  6947       L1    12  0.49

> <Gold.Chemscore.Hbond.Weighted>
-9.6196

> <Gold.Chemscore.Metal.Weighted>
-0.0000

> <Gold.Chemscore.Lipo.Weighted>
-7.0983

> <Gold.Chemscore.Internal_Hbond.Weighted>
0.0000

> <Gold.Chemscore.DEClash.Weighted>
0.5513

> <Gold.Chemscore.DEInternal.Weighted>
1.8642

> <Gold.Chemscore.Rot.Weighted>
4.2738

> <Gold.Chemscore.Internal.Correction.Weighted>
   9.000000E+99

> <Gold.Protein.RotatedTorsions>
[ 6907 6896 6895 6894 ] final  -72.64 input  -60.11 | X-H torsion
[ 7974 7965 7964 7962 ] final  -11.31 input  175.53 | X-H torsion
[ 8008 7997 7996 7995 ] final  125.81 input   59.86 | X-H torsion
[ 10167 10162 10161 10158 ] final -150.44 input  -65.29 | X-H torsion
[ 10718 10713 10712 10709 ] final  174.41 input   66.30 | X-H torsion
[ 10763 10752 10751 10750 ] final  -35.67 input  -60.55 | X-H torsion
[ 11005 11000 10999 10996 ] final  139.12 input  -57.11 | X-H torsion

> <Gold.Protein.ActiveResidues>
 VAL166  LYS551  ARG553  GLY616  TRP617  ASP618  TYR619  PRO620  LYS621  CYS622 
 ASP623  PHE694  ASN695  SER759  ASP760  ASP761  ALA762  ILE779  LEU786  VAL792 
 PHE793  MET794  SER795  GLU796  ALA797  LYS798  CYS799  TRP800  GLU811  SER814 

> <Gold.Protein.RotatedAtoms>
  150.7161  134.5133  159.5617 H   0  0  0  0  0  0  0  0  0  0  0  0  # atno 6907 bound_to 6896
  152.2704  134.7936  160.0424 H   0  0  0  0  0  0  0  0  0  0  0  0  # atno 6908 bound_to 6896
  151.8617  133.3423  159.3743 H   0  0  0  0  0  0  0  0  0  0  0  0  # atno 6909 bound_to 6896
  146.2192  140.2892  142.8367 H   0  0  0  0  0  0  0  0  0  0  0  0  # atno 7974 bound_to 7965
  156.2845  140.2707  156.2010 H   0  0  0  0  0  0  0  0  0  0  0  0  # atno 8008 bound_to 7997
  155.0361  140.0386  157.2510 H   0  0  0  0  0  0  0  0  0  0  0  0  # atno 8009 bound_to 7997
  154.7313  140.2707  155.6458 H   0  0  0  0  0  0  0  0  0  0  0  0  # atno 8010 bound_to 7997
  139.7354  143.8744  152.2547 H   0  0  0  0  0  0  0  0  0  0  0  0  # atno 10167 bound_to 10162
  156.9500  131.0028  151.2950 H   0  0  0  0  0  0  0  0  0  0  0  0  # atno 10718 bound_to 10713
  153.8670  135.6834  153.4777 H   0  0  0  0  0  0  0  0  0  0  0  0  # atno 10763 bound_to 10752
  153.1309  135.4698  154.9345 H   0  0  0  0  0  0  0  0  0  0  0  0  # atno 10764 bound_to 10752
  154.7732  135.3245  154.8096 H   0  0  0  0  0  0  0  0  0  0  0  0  # atno 10765 bound_to 10752
  140.0232  134.9387  157.0516 H   0  0  0  0  0  0  0  0  0  0  0  0  # atno 11005 bound_to 11000
  144.9139  140.7790  143.5790 LP  0  0  0  0  0  0  0  0  0  0  0  0  # atno 17320 bound_to 7965
  145.2825  139.1913  143.4783 LP  0  0  0  0  0  0  0  0  0  0  0  0  # atno 17321 bound_to 7965
  139.8679  144.7083  150.9022 LP  0  0  0  0  0  0  0  0  0  0  0  0  # atno 17342 bound_to 10162
  140.7778  143.3762  151.1558 LP  0  0  0  0  0  0  0  0  0  0  0  0  # atno 17343 bound_to 10162
  157.5728  130.8322  149.8415 LP  0  0  0  0  0  0  0  0  0  0  0  0  # atno 17370 bound_to 10713
  156.0367  130.3749  150.1542 LP  0  0  0  0  0  0  0  0  0  0  0  0  # atno 17371 bound_to 10713
  140.4351  134.1740  155.7170 LP  0  0  0  0  0  0  0  0  0  0  0  0  # atno 17394 bound_to 11000
  141.1787  133.8460  157.1334 LP  0  0  0  0  0  0  0  0  0  0  0  0  # atno 17395 bound_to 11000

$$$$
