AV-unprocessed.smi:896|AV-procd|sdf|4077|dock8
  -GOLD-   22720 1563D 1   1.00000     0.00000
 Structure written by MMmdl.
 49 50  0  0  0  0  0  0  0  0  2 V2000
  151.2123  142.7615  157.8742 C   0  0  0  0  0  0  0  0  0  0  0  0
  151.6000  141.4692  157.4209 O   0  0  0  0  0  0  0  0  0  0  0  0
  150.8622  140.8797  156.4150 C   0  0  0  0  0  0  0  0  0  0  0  0
  149.5943  141.4094  156.1090 C   0  0  0  0  0  0  0  0  0  0  0  0
  148.8397  140.8161  155.0798 C   0  0  0  0  0  0  0  0  0  0  0  0
  149.3790  139.7109  154.3787 C   0  0  0  0  0  0  0  0  0  0  0  0
  148.6820  139.0351  153.3379 N   0  0  0  0  0  0  0  0  0  0  0  0
  147.3547  138.8944  153.1812 C   0  0  0  0  0  0  0  0  0  0  0  0
  146.4964  139.3507  153.9369 O   0  0  0  0  0  0  0  0  0  0  0  0
  147.0668  138.2027  152.0693 N   0  0  0  0  0  0  0  0  0  0  0  0
  145.7197  137.8871  151.6082 C   0  0  0  0  0  0  0  0  0  0  0  0
  145.0033  136.9268  152.5759 C   0  0  0  0  0  0  0  0  0  0  0  0
  144.9028  135.4771  152.0607 C   0  0  2  0  0  0  0  0  0  0  0  0
  146.2883  134.9412  151.6539 C   0  0  0  0  0  0  0  0  0  0  0  0
  146.2030  133.5038  151.1147 C   0  0  0  0  0  0  0  0  0  0  0  0
  145.2653  133.4222  149.9683 N   0  3  1  0  0  0  0  0  0  0  0  0
  145.2500  132.0802  149.3477 C   0  0  0  0  0  0  0  0  0  0  0  0
  143.9064  133.8934  150.3313 C   0  0  0  0  0  0  0  0  0  0  0  0
  143.9430  135.3370  150.8613 C   0  0  0  0  0  0  0  0  0  0  0  0
  150.6538  139.2398  154.7757 C   0  0  0  0  0  0  0  0  0  0  0  0
  151.3024  138.0438  154.1011 C   0  0  0  0  0  0  0  0  0  0  0  0
  151.3797  139.8105  155.7621 N   0  0  0  0  0  0  0  0  0  0  0  0
  151.8899  143.0843  158.6643 H   0  0  0  0  0  0  0  0  0  0  0  0
  150.2028  142.7522  158.2879 H   0  0  0  0  0  0  0  0  0  0  0  0
  151.2646  143.4989  157.0719 H   0  0  0  0  0  0  0  0  0  0  0  0
  149.2051  142.2551  156.6566 H   0  0  0  0  0  0  0  0  0  0  0  0
  147.8593  141.2092  154.8587 H   0  0  0  0  0  0  0  0  0  0  0  0
  149.2584  138.6851  152.5869 H   0  0  0  0  0  0  0  0  0  0  0  0
  147.8332  137.8691  151.5031 H   0  0  0  0  0  0  0  0  0  0  0  0
  145.1618  138.8206  151.5297 H   0  0  0  0  0  0  0  0  0  0  0  0
  145.7693  137.4703  150.6017 H   0  0  0  0  0  0  0  0  0  0  0  0
  145.5015  136.9334  153.5465 H   0  0  0  0  0  0  0  0  0  0  0  0
  143.9970  137.3096  152.7534 H   0  0  0  0  0  0  0  0  0  0  0  0
  144.5299  134.8533  152.8746 H   0  0  0  0  0  0  0  0  0  0  0  0
  146.7272  135.5892  150.8937 H   0  0  0  0  0  0  0  0  0  0  0  0
  146.9651  134.9677  152.5087 H   0  0  0  0  0  0  0  0  0  0  0  0
  147.1942  133.1747  150.8005 H   0  0  0  0  0  0  0  0  0  0  0  0
  145.8778  132.8241  151.9040 H   0  0  0  0  0  0  0  0  0  0  0  0
  144.8870  131.3285  150.0497 H   0  0  0  0  0  0  0  0  0  0  0  0
  146.2517  131.7929  149.0264 H   0  0  0  0  0  0  0  0  0  0  0  0
  144.6036  132.0694  148.4695 H   0  0  0  0  0  0  0  0  0  0  0  0
  143.2577  133.8450  149.4557 H   0  0  0  0  0  0  0  0  0  0  0  0
  143.4763  133.2282  151.0819 H   0  0  0  0  0  0  0  0  0  0  0  0
  142.9329  135.6341  151.1420 H   0  0  0  0  0  0  0  0  0  0  0  0
  144.2508  136.0112  150.0606 H   0  0  0  0  0  0  0  0  0  0  0  0
  151.4042  138.2200  153.0299 H   0  0  0  0  0  0  0  0  0  0  0  0
  150.6954  137.1502  154.2491 H   0  0  0  0  0  0  0  0  0  0  0  0
  152.2964  137.8459  154.5046 H   0  0  0  0  0  0  0  0  0  0  0  0
  145.6129  134.0592  149.2657 H   0  0  0  0  0  0  0  0  0  0  0  0
  1  2  1  0  0  0  0
  1 23  1  0  0  0  0
  1 24  1  0  0  0  0
  1 25  1  0  0  0  0
  2  3  1  0  0  0  0
  3 22  1  0  0  0  0
  3  4  2  0  0  0  0
  4  5  1  0  0  0  0
  4 26  1  0  0  0  0
  5  6  2  0  0  0  0
  5 27  1  0  0  0  0
  6  7  1  0  0  0  0
  6 20  1  0  0  0  0
  7  8  1  0  0  0  0
  7 28  1  0  0  0  0
  8  9  2  0  0  0  0
  8 10  1  0  0  0  0
 10 11  1  0  0  0  0
 10 29  1  0  0  0  0
 11 12  1  0  0  0  0
 11 30  1  0  0  0  0
 11 31  1  0  0  0  0
 12 13  1  0  0  0  0
 12 32  1  0  0  0  0
 12 33  1  0  0  0  0
 13 19  1  0  0  0  0
 13 14  1  0  0  0  0
 13 34  1  0  0  0  0
 14 15  1  0  0  0  0
 14 35  1  0  0  0  0
 14 36  1  0  0  0  0
 15 16  1  0  0  0  0
 15 37  1  0  0  0  0
 15 38  1  0  0  0  0
 16 17  1  0  0  0  0
 16 18  1  0  0  0  0
 16 49  1  0  0  0  0
 17 39  1  0  0  0  0
 17 40  1  0  0  0  0
 17 41  1  0  0  0  0
 18 19  1  0  0  0  0
 18 42  1  0  0  0  0
 18 43  1  0  0  0  0
 19 44  1  0  0  0  0
 19 45  1  0  0  0  0
 20 21  1  0  0  0  0
 20 22  2  0  0  0  0
 21 46  1  0  0  0  0
 21 47  1  0  0  0  0
 21 48  1  0  0  0  0
M  CHG  1  16   1
M  END
> <s_m_source_file>
AV-unprocessed.smi

> <i_m_source_file_index>
896

> <i_lp_mmshare_version>
43012

> <i_f3d_flags>
0

> <s_epik_input>
W0NIM11PYzFbY0hdW2NIXWMoYyhuMSlbQ0gzXSlbTkhdQyg9TylbTkhdW0NIMl1bQ0gyXVtDSF0yW0NIMl1bQ0gyXU4oW0NIM10pW0NIMl1bQ0gyXTI=

> <s_epik_cmdline>
J2VwaWtfcHl0aG9uJywgJy1waCcsICc3LjAnLCAnLXRuJywgJzgnLCAnLW1hJywgJzIwMCcsICctbWV0YWxfYmluZGluZycsICctaW1hZScsICc8aW5maWxlLm1hZT4nLCAnLW9tYWUnLCAnPG91dGZpbGUubWFlPic=

> <r_lp_tautomer_probability>
1

> <r_epik_Ionization_Penalty>
0.000968128

> <r_epik_Ionization_Penalty_Charging>
0.000718523

> <r_epik_Ionization_Penalty_Neutral>
0.000249604

> <r_epik_State_Penalty>
0.00045807

> <r_epik_Charging_Adjusted_Penalty>
0.00117659

> <i_epik_Tot_Q>
1

> <i_epik_Tot_abs_Q>
1

> <r_epik_Metal_State_Penalty>
-0

> <b_epik_Metal_Only>
0

> <s_lp_Force_Field>
OPLS_2005

> <r_lp_Energy>
19.0488

> <b_lp_Chiralities_Consistent>
1

> <s_lp_Variant>
AV-unprocessed.smi:896-1

> <Gold.Version>
5.8.1

> <Gold.Id.Protein>
6NUR|6NUR_protein|mol2

> <Gold.PLP.Fitness>
42.8931

> <Gold.PLP.PLP>
-39.2155

> <Gold.PLP.part.hbond>
-4.2823

> <Gold.PLP.part.metal>
0.0000

> <Gold.PLP.part.buried>
2.2153

> <Gold.PLP.part.nonpolar>
-37.5908

> <Gold.PLP.part.repulsive>
0.5008

> <Gold.PLP.ligand.clash>
0.0025

> <Gold.PLP.ligand.torsion>
0.7536

> <Gold.PLP.Chemscore.Hbond>
1.7200

> <Gold.PLP.Chemscore.CHOScore>
0.0000

> <Gold.PLP.Chemscore.Metal>
0.0000

> <Gold.Chemscore.Hbonds>
donor molecule, donor type, donor heavy atom, donor atom, acceptor molecule, acceptor atom, score
      L1  H     7    28       P1  7957  0.29
      L1  H    10    29       P1  7948  0.56
      L1  H    16    49       P1  7921  1.00

> <Gold.PLP.Chemscore.Internal.Correction>
0.0274

> <Gold.Rescore>
     Score         DG    S(hbond)    S(metal)    S(lipo)     H(rot)  DE(clash)    DE(int)     intcor
     13.96     -18.12       1.75        0.00      94.17       1.65       2.35       1.81       ----

> <Gold.Chemscore.Fitness>
13.9627

> <Gold.Chemscore.DG>
-18.1227

> <Gold.Chemscore.ZeroCoef>
-5.4800

> <Gold.Chemscore.Hbond>
1.7527

> <Gold.Chemscore.Metal>
0.0000

> <Gold.Chemscore.Lipo>
94.1709

> <Gold.Chemscore.Internal_Hbond>
0.0000

> <Gold.Chemscore.DEClash>
2.3496

> <Gold.Chemscore.DEInternal>
1.8104

> <Gold.Chemscore.Rot>
1.6521

> <Gold.Chemscore.Internal.Correction>
   9.000000E+99

> <Gold.Chemscore.Hbonds>
donor molecule, donor type, donor heavy atom, donor atom, acceptor molecule, acceptor atom, score
      L1  H     7    28       P1  7957  0.23
      L1  H    10    29       P1  7948  0.55
      L1  H    16    49       P1  7921  0.65

> <Gold.Chemscore.Hbond.Weighted>
-5.8541

> <Gold.Chemscore.Metal.Weighted>
-0.0000

> <Gold.Chemscore.Lipo.Weighted>
-11.0180

> <Gold.Chemscore.Internal_Hbond.Weighted>
0.0000

> <Gold.Chemscore.DEClash.Weighted>
2.3496

> <Gold.Chemscore.DEInternal.Weighted>
1.8104

> <Gold.Chemscore.Rot.Weighted>
4.2294

> <Gold.Chemscore.Internal.Correction.Weighted>
   9.000000E+99

> <Gold.Protein.RotatedTorsions>
[ 6907 6896 6895 6894 ] final  145.92 input  -60.11 | X-H torsion
[ 7974 7965 7964 7962 ] final  105.00 input  175.53 | X-H torsion
[ 8008 7997 7996 7995 ] final -153.18 input   59.86 | X-H torsion
[ 10167 10162 10161 10158 ] final   75.31 input  -65.29 | X-H torsion
[ 10718 10713 10712 10709 ] final  -15.46 input   66.30 | X-H torsion
[ 10763 10752 10751 10750 ] final -177.12 input  -60.55 | X-H torsion
[ 11005 11000 10999 10996 ] final  -98.49 input  -57.11 | X-H torsion

> <Gold.Protein.ActiveResidues>
 VAL166  LYS551  ARG553  GLY616  TRP617  ASP618  TYR619  PRO620  LYS621  CYS622 
 ASP623  PHE694  ASN695  SER759  ASP760  ASP761  ALA762  ILE779  LEU786  VAL792 
 PHE793  MET794  SER795  GLU796  ALA797  LYS798  CYS799  TRP800  GLU811  SER814 

> <Gold.Protein.RotatedAtoms>
  152.1747  133.4667  159.4926 H   0  0  0  0  0  0  0  0  0  0  0  0  # atno 6907 bound_to 6896
  150.6925  134.1909  159.4294 H   0  0  0  0  0  0  0  0  0  0  0  0  # atno 6908 bound_to 6896
  151.9818  135.0024  160.0608 H   0  0  0  0  0  0  0  0  0  0  0  0  # atno 6909 bound_to 6896
  145.3254  139.2501  143.3689 H   0  0  0  0  0  0  0  0  0  0  0  0  # atno 7974 bound_to 7965
  155.6668  140.0729  157.2534 H   0  0  0  0  0  0  0  0  0  0  0  0  # atno 8008 bound_to 7997
  154.4131  140.1706  156.1887 H   0  0  0  0  0  0  0  0  0  0  0  0  # atno 8009 bound_to 7997
  155.9650  140.3366  155.6528 H   0  0  0  0  0  0  0  0  0  0  0  0  # atno 8010 bound_to 7997
  140.0044  144.5662  150.7710 H   0  0  0  0  0  0  0  0  0  0  0  0  # atno 10167 bound_to 10162
  156.6014  130.4825  149.6238 H   0  0  0  0  0  0  0  0  0  0  0  0  # atno 10718 bound_to 10713
  154.5641  135.2822  155.0891 H   0  0  0  0  0  0  0  0  0  0  0  0  # atno 10763 bound_to 10752
  154.2289  135.6378  153.5172 H   0  0  0  0  0  0  0  0  0  0  0  0  # atno 10764 bound_to 10752
  153.0037  135.5532  154.6244 H   0  0  0  0  0  0  0  0  0  0  0  0  # atno 10765 bound_to 10752
  141.1343  133.8249  157.0846 H   0  0  0  0  0  0  0  0  0  0  0  0  # atno 11005 bound_to 11000
  146.3066  140.3820  142.8685 LP  0  0  0  0  0  0  0  0  0  0  0  0  # atno 17320 bound_to 7965
  144.8906  140.7519  143.5929 LP  0  0  0  0  0  0  0  0  0  0  0  0  # atno 17321 bound_to 7965
  140.7406  143.2807  151.3607 LP  0  0  0  0  0  0  0  0  0  0  0  0  # atno 17342 bound_to 10162
  139.6249  144.0834  152.2425 LP  0  0  0  0  0  0  0  0  0  0  0  0  # atno 17343 bound_to 10162
  156.2466  130.6882  151.1605 LP  0  0  0  0  0  0  0  0  0  0  0  0  # atno 17370 bound_to 10713
  157.7278  131.0636  150.5847 LP  0  0  0  0  0  0  0  0  0  0  0  0  # atno 17371 bound_to 10713
  140.0430  134.9844  157.0997 LP  0  0  0  0  0  0  0  0  0  0  0  0  # atno 17394 bound_to 11000
  140.4106  134.1985  155.7163 LP  0  0  0  0  0  0  0  0  0  0  0  0  # atno 17395 bound_to 11000

$$$$
