AV-unprocessed.smi:1677|AV-procd|sdf|6724|dock8
  -GOLD-   22720 7463D 1   1.00000     0.00000
 Structure written by MMmdl.
 36 37  0  0  0  0  0  0  0  0  1 V2000
  149.9524  140.1537  154.4024 C   0  0  0  0  0  0  0  0  0  0  0  0
  148.8823  141.0696  155.0119 C   0  0  2  0  0  0  0  0  0  0  0  0
  148.1074  141.8347  153.9187 C   0  0  0  0  0  0  0  0  0  0  0  0
  146.8604  142.3957  154.4065 N   0  0  0  0  0  0  0  0  0  0  0  0
  146.3525  142.3134  155.6961 C   0  0  0  0  0  0  0  0  0  0  0  0
  145.1602  143.0012  155.6933 C   0  0  0  0  0  0  0  0  0  0  0  0
  144.9133  143.5074  154.4193 N   0  0  0  0  0  0  0  0  0  0  0  0
  145.9611  143.1061  153.7115 C   0  0  0  0  0  0  0  0  0  0  0  0
  149.5240  142.0006  155.9396 N   0  0  0  0  0  0  0  0  0  0  0  0
  150.4205  141.6726  156.8842 C   0  0  0  0  0  0  0  0  0  0  0  0
  150.8388  140.5267  157.0522 O   0  0  0  0  0  0  0  0  0  0  0  0
  150.8998  142.8093  157.7953 C   0  0  2  0  0  0  0  0  0  0  0  0
  151.5248  143.9619  156.9760 C   0  0  0  0  0  0  0  0  0  0  0  0
  152.2368  144.9712  157.8592 C   0  0  0  0  0  0  0  0  0  0  0  0
  152.5813  144.7243  159.1347 C   0  0  0  0  0  0  0  0  0  0  0  0
  152.3010  143.4070  159.8364 C   0  0  0  0  0  0  0  0  0  0  0  0
  151.9003  142.2941  158.8497 C   0  0  0  0  0  0  0  0  0  0  0  0
  149.5050  139.4226  153.7285 H   0  0  0  0  0  0  0  0  0  0  0  0
  150.4846  139.6018  155.1782 H   0  0  0  0  0  0  0  0  0  0  0  0
  150.6879  140.7238  153.8334 H   0  0  0  0  0  0  0  0  0  0  0  0
  148.1823  140.4291  155.5517 H   0  0  0  0  0  0  0  0  0  0  0  0
  148.7184  142.6388  153.5054 H   0  0  0  0  0  0  0  0  0  0  0  0
  147.8699  141.1660  153.0904 H   0  0  0  0  0  0  0  0  0  0  0  0
  146.8709  141.7933  156.4879 H   0  0  0  0  0  0  0  0  0  0  0  0
  144.4669  143.1696  156.5040 H   0  0  0  0  0  0  0  0  0  0  0  0
  146.0826  143.3439  152.6648 H   0  0  0  0  0  0  0  0  0  0  0  0
  149.2420  142.9680  155.8770 H   0  0  0  0  0  0  0  0  0  0  0  0
  150.0342  143.2062  158.3294 H   0  0  0  0  0  0  0  0  0  0  0  0
  152.2464  143.5869  156.2489 H   0  0  0  0  0  0  0  0  0  0  0  0
  150.7467  144.4792  156.4137 H   0  0  0  0  0  0  0  0  0  0  0  0
  152.4801  145.9237  157.4119 H   0  0  0  0  0  0  0  0  0  0  0  0
  153.0760  145.4894  159.7148 H   0  0  0  0  0  0  0  0  0  0  0  0
  153.1838  143.1035  160.3995 H   0  0  0  0  0  0  0  0  0  0  0  0
  151.5031  143.5735  160.5609 H   0  0  0  0  0  0  0  0  0  0  0  0
  151.4850  141.4476  159.3993 H   0  0  0  0  0  0  0  0  0  0  0  0
  152.7963  141.9232  158.3490 H   0  0  0  0  0  0  0  0  0  0  0  0
  1  2  1  0  0  0  0
  1 18  1  0  0  0  0
  1 19  1  0  0  0  0
  1 20  1  0  0  0  0
  2  3  1  0  0  0  0
  2  9  1  0  0  0  0
  2 21  1  0  0  0  0
  3  4  1  0  0  0  0
  3 22  1  0  0  0  0
  3 23  1  0  0  0  0
  4  8  1  0  0  0  0
  4  5  1  0  0  0  0
  5  6  2  0  0  0  0
  5 24  1  0  0  0  0
  6  7  1  0  0  0  0
  6 25  1  0  0  0  0
  7  8  2  0  0  0  0
  8 26  1  0  0  0  0
  9 10  1  0  0  0  0
  9 27  1  0  0  0  0
 10 11  2  0  0  0  0
 10 12  1  0  0  0  0
 12 17  1  0  0  0  0
 12 13  1  0  0  0  0
 12 28  1  0  0  0  0
 13 14  1  0  0  0  0
 13 29  1  0  0  0  0
 13 30  1  0  0  0  0
 14 15  2  0  0  0  0
 14 31  1  0  0  0  0
 15 16  1  0  0  0  0
 15 32  1  0  0  0  0
 16 17  1  0  0  0  0
 16 33  1  0  0  0  0
 16 34  1  0  0  0  0
 17 35  1  0  0  0  0
 17 36  1  0  0  0  0
M  END
> <s_m_source_file>
AV-unprocessed.smi

> <i_m_source_file_index>
1677

> <i_lp_mmshare_version>
43012

> <i_f3d_flags>
0

> <s_epik_input>
W2NIXTFuW2NIXVtjSF1uMVtDSDJdW0NAQEhdKFtDSDNdKVtOSF1DKD1PKVtDQEBIXTJbQ0gyXVtDSF09W0NIXVtDSDJdW0NIMl0y

> <s_epik_cmdline>
J2VwaWtfcHl0aG9uJywgJy1waCcsICc3LjAnLCAnLXRuJywgJzgnLCAnLW1hJywgJzIwMCcsICctbWV0YWxfYmluZGluZycsICctaW1hZScsICc8aW5maWxlLm1hZT4nLCAnLW9tYWUnLCAnPG91dGZpbGUubWFlPic=

> <r_lp_tautomer_probability>
1

> <r_epik_Ionization_Penalty>
0.640435

> <r_epik_Ionization_Penalty_Charging>
0.640435

> <r_epik_Ionization_Penalty_Neutral>
2.11108e-08

> <r_epik_State_Penalty>
0.658069

> <r_epik_Charging_Adjusted_Penalty>
1.2985

> <i_epik_Tot_Q>
0

> <i_epik_Tot_abs_Q>
0

> <r_epik_Metal_State_Penalty>
0.311689

> <b_epik_Metal_Only>
0

> <s_lp_Force_Field>
OPLS_2005

> <r_lp_Energy>
9.8402

> <b_lp_Chiralities_Consistent>
1

> <s_lp_Variant>
AV-unprocessed.smi:1677-5

> <Gold.Version>
5.8.1

> <Gold.Id.Protein>
6NUR|6NUR_protein|mol2

> <Gold.PLP.Fitness>
42.9184

> <Gold.PLP.PLP>
-40.4040

> <Gold.PLP.part.hbond>
-1.0000

> <Gold.PLP.part.metal>
0.0000

> <Gold.PLP.part.buried>
-4.3379

> <Gold.PLP.part.nonpolar>
-35.6755

> <Gold.PLP.part.repulsive>
0.2766

> <Gold.PLP.ligand.clash>
0.0000

> <Gold.PLP.ligand.torsion>
0.2552

> <Gold.PLP.Chemscore.Hbond>
1.0000

> <Gold.PLP.Chemscore.CHOScore>
0.0000

> <Gold.PLP.Chemscore.Metal>
0.0000

> <Gold.Chemscore.Hbonds>
donor molecule, donor type, donor heavy atom, donor atom, acceptor molecule, acceptor atom, score
      L1  H     9    27       P1  8028  1.00

> <Gold.PLP.Chemscore.Internal.Correction>
0.0248

> <Gold.Rescore>
     Score         DG    S(hbond)    S(metal)    S(lipo)     H(rot)  DE(clash)    DE(int)     intcor
     14.06     -15.48       0.99        0.00      95.43       1.75       0.07       1.35       ----

> <Gold.Chemscore.Fitness>
14.0551

> <Gold.Chemscore.DG>
-15.4836

> <Gold.Chemscore.ZeroCoef>
-5.4800

> <Gold.Chemscore.Hbond>
0.9917

> <Gold.Chemscore.Metal>
0.0000

> <Gold.Chemscore.Lipo>
95.4260

> <Gold.Chemscore.Internal_Hbond>
0.0000

> <Gold.Chemscore.DEClash>
0.0745

> <Gold.Chemscore.DEInternal>
1.3540

> <Gold.Chemscore.Rot>
1.7475

> <Gold.Chemscore.Internal.Correction>
   9.000000E+99

> <Gold.Chemscore.Hbonds>
donor molecule, donor type, donor heavy atom, donor atom, acceptor molecule, acceptor atom, score
      L1  H     9    27       P1  8028  1.00

> <Gold.Chemscore.Hbond.Weighted>
-3.3123

> <Gold.Chemscore.Metal.Weighted>
-0.0000

> <Gold.Chemscore.Lipo.Weighted>
-11.1648

> <Gold.Chemscore.Internal_Hbond.Weighted>
0.0000

> <Gold.Chemscore.DEClash.Weighted>
0.0745

> <Gold.Chemscore.DEInternal.Weighted>
1.3540

> <Gold.Chemscore.Rot.Weighted>
4.4735

> <Gold.Chemscore.Internal.Correction.Weighted>
   9.000000E+99

> <Gold.Protein.RotatedTorsions>
[ 6907 6896 6895 6894 ] final   -1.32 input  -60.11 | X-H torsion
[ 7974 7965 7964 7962 ] final  104.38 input  175.53 | X-H torsion
[ 8008 7997 7996 7995 ] final  -66.37 input   59.86 | X-H torsion
[ 10167 10162 10161 10158 ] final   -8.19 input  -65.29 | X-H torsion
[ 10718 10713 10712 10709 ] final   18.27 input   66.30 | X-H torsion
[ 10763 10752 10751 10750 ] final  -26.46 input  -60.55 | X-H torsion
[ 11005 11000 10999 10996 ] final  133.97 input  -57.11 | X-H torsion

> <Gold.Protein.ActiveResidues>
 VAL166  LYS551  ARG553  GLY616  TRP617  ASP618  TYR619  PRO620  LYS621  CYS622 
 ASP623  PHE694  ASN695  SER759  ASP760  ASP761  ALA762  ILE779  LEU786  VAL792 
 PHE793  MET794  SER795  GLU796  ALA797  LYS798  CYS799  TRP800  GLU811  SER814 

> <Gold.Protein.RotatedAtoms>
  151.5480  135.1068  159.9942 H   0  0  0  0  0  0  0  0  0  0  0  0  # atno 6907 bound_to 6896
  152.4505  133.7615  159.6760 H   0  0  0  0  0  0  0  0  0  0  0  0  # atno 6908 bound_to 6896
  150.8432  133.7837  159.3077 H   0  0  0  0  0  0  0  0  0  0  0  0  # atno 6909 bound_to 6896
  145.3336  139.2480  143.3647 H   0  0  0  0  0  0  0  0  0  0  0  0  # atno 7974 bound_to 7965
  154.4730  140.0914  156.7192 H   0  0  0  0  0  0  0  0  0  0  0  0  # atno 8008 bound_to 7997
  155.4673  140.3463  155.4302 H   0  0  0  0  0  0  0  0  0  0  0  0  # atno 8009 bound_to 7997
  156.1070  140.1437  156.9379 H   0  0  0  0  0  0  0  0  0  0  0  0  # atno 8010 bound_to 7997
  140.7052  143.5996  150.8811 H   0  0  0  0  0  0  0  0  0  0  0  0  # atno 10167 bound_to 10162
  157.0940  130.6440  149.5856 H   0  0  0  0  0  0  0  0  0  0  0  0  # atno 10718 bound_to 10713
  153.7163  135.6947  153.5024 H   0  0  0  0  0  0  0  0  0  0  0  0  # atno 10763 bound_to 10752
  153.2236  135.4361  155.0516 H   0  0  0  0  0  0  0  0  0  0  0  0  # atno 10764 bound_to 10752
  154.8299  135.3466  154.6698 H   0  0  0  0  0  0  0  0  0  0  0  0  # atno 10765 bound_to 10752
  139.9885  134.9523  156.9800 H   0  0  0  0  0  0  0  0  0  0  0  0  # atno 11005 bound_to 11000
  146.3036  140.3919  142.8695 LP  0  0  0  0  0  0  0  0  0  0  0  0  # atno 17320 bound_to 7965
  144.8845  140.7444  143.5966 LP  0  0  0  0  0  0  0  0  0  0  0  0  # atno 17321 bound_to 7965
  139.9720  143.6046  152.2970 LP  0  0  0  0  0  0  0  0  0  0  0  0  # atno 17342 bound_to 10162
  139.6636  144.7662  151.1916 LP  0  0  0  0  0  0  0  0  0  0  0  0  # atno 17343 bound_to 10162
  155.9890  130.4936  150.7197 LP  0  0  0  0  0  0  0  0  0  0  0  0  # atno 17370 bound_to 10713
  157.4697  131.0892  151.0656 LP  0  0  0  0  0  0  0  0  0  0  0  0  # atno 17371 bound_to 10713
  140.4955  134.1150  155.7240 LP  0  0  0  0  0  0  0  0  0  0  0  0  # atno 17394 bound_to 11000
  141.1545  133.8907  157.2012 LP  0  0  0  0  0  0  0  0  0  0  0  0  # atno 17395 bound_to 11000

$$$$
