AV-unprocessed.smi:160|AV-procd|sdf|1345|dock3
  -GOLD-   2262019 43D 1   1.00000     0.00000
 Structure written by MMmdl.
 29 30  0  0  0  0  0  0  0  0  1 V2000
  149.5458  133.3925  155.5828 N   0  0  0  0  0  0  0  0  0  0  0  0
  150.3795  133.9157  156.4877 C   0  0  0  0  0  0  0  0  0  0  0  0
  150.8242  133.2613  157.4293 O   0  0  0  0  0  0  0  0  0  0  0  0
  150.7478  135.3608  156.2940 C   0  0  0  0  0  0  0  0  0  0  0  0
  151.4484  136.0444  157.2467 N   0  0  0  0  0  0  0  0  0  0  0  0
  151.5176  137.2256  156.6465 C   0  0  0  0  0  0  0  0  0  0  0  0
  150.9359  137.2655  155.4434 N   0  0  0  0  0  0  0  0  0  0  0  0
  150.7846  138.4156  154.4953 C   0  0  2  0  0  0  0  0  0  0  0  0
  151.4006  139.5273  155.0743 O   0  0  0  0  0  0  0  0  0  0  0  0
  150.4178  140.3747  155.6621 C   0  0  1  0  0  0  0  0  0  0  0  0
  150.9645  141.7962  155.8831 C   0  0  0  0  0  0  0  0  0  0  0  0
  150.0891  142.5284  156.7143 O   0  0  0  0  0  0  0  0  0  0  0  0
  149.2555  140.2552  154.6678 C   0  0  1  0  0  0  0  0  0  0  0  0
  149.4604  141.1187  153.5605 O   0  0  0  0  0  0  0  0  0  0  0  0
  149.3019  138.7771  154.2769 C   0  0  1  0  0  0  0  0  0  0  0  0
  148.8605  138.5552  152.9499 O   0  0  0  0  0  0  0  0  0  0  0  0
  150.4107  136.0387  155.1954 N   0  0  0  0  0  0  0  0  0  0  0  0
  151.3128  138.1090  153.5914 H   0  0  0  0  0  0  0  0  0  0  0  0
  150.0968  139.9523  156.6157 H   0  0  0  0  0  0  0  0  0  0  0  0
  148.3022  140.5169  155.1280 H   0  0  0  0  0  0  0  0  0  0  0  0
  148.6718  138.1994  154.9540 H   0  0  0  0  0  0  0  0  0  0  0  0
  149.2573  132.4285  155.6619 H   0  0  0  0  0  0  0  0  0  0  0  0
  149.2058  133.9695  154.8273 H   0  0  0  0  0  0  0  0  0  0  0  0
  152.0022  138.0809  157.0943 H   0  0  0  0  0  0  0  0  0  0  0  0
  151.9660  141.7768  156.3140 H   0  0  0  0  0  0  0  0  0  0  0  0
  151.0281  142.3255  154.9320 H   0  0  0  0  0  0  0  0  0  0  0  0
  149.5361  143.0660  156.1683 H   0  0  0  0  0  0  0  0  0  0  0  0
  149.5073  140.5908  152.7776 H   0  0  0  0  0  0  0  0  0  0  0  0
  149.0891  139.3085  152.4271 H   0  0  0  0  0  0  0  0  0  0  0  0
  1  2  1  0  0  0  0
  1 22  1  0  0  0  0
  1 23  1  0  0  0  0
  2  3  2  0  0  0  0
  2  4  1  0  0  0  0
  4 17  2  0  0  0  0
  4  5  1  0  0  0  0
  5  6  2  0  0  0  0
  6  7  1  0  0  0  0
  6 24  1  0  0  0  0
  7  8  1  0  0  0  0
  7 17  1  0  0  0  0
  8 18  1  0  0  0  0
  8 15  1  0  0  0  0
  8  9  1  0  0  0  0
  9 10  1  0  0  0  0
 10 19  1  0  0  0  0
 10 11  1  0  0  0  0
 10 13  1  0  0  0  0
 11 12  1  0  0  0  0
 11 25  1  0  0  0  0
 11 26  1  0  0  0  0
 12 27  1  0  0  0  0
 13 20  1  0  0  0  0
 13 14  1  0  0  0  0
 13 15  1  0  0  0  0
 14 28  1  0  0  0  0
 15 21  1  0  0  0  0
 15 16  1  0  0  0  0
 16 29  1  0  0  0  0
M  END
> <s_m_source_file>
AV-unprocessed.smi

> <i_m_source_file_index>
160

> <i_lp_mmshare_version>
43012

> <i_f3d_flags>
0

> <s_epik_input>
W05IMl1DKD1PKWMxbltjSF1uKG4xKVtDQEBIXTJPW0NASF0oW0NIMl1bT0hdKVtDQEBIXShbT0hdKVtDQEhdMltPSF0=

> <s_epik_cmdline>
J2VwaWtfcHl0aG9uJywgJy1waCcsICc3LjAnLCAnLXRuJywgJzgnLCAnLW1hJywgJzIwMCcsICctbWV0YWxfYmluZGluZycsICctaW1hZScsICc8aW5maWxlLm1hZT4nLCAnLW9tYWUnLCAnPG91dGZpbGUubWFlPic=

> <r_lp_tautomer_probability>
1

> <r_epik_Ionization_Penalty>
1.06932e-05

> <r_epik_Ionization_Penalty_Charging>
0

> <r_epik_Ionization_Penalty_Neutral>
1.06932e-05

> <r_epik_State_Penalty>
-0

> <r_epik_Charging_Adjusted_Penalty>
0

> <i_epik_Tot_Q>
0

> <i_epik_Tot_abs_Q>
0

> <r_epik_Metal_State_Penalty>
0.0142097

> <b_epik_Metal_Only>
0

> <s_epik_Chemistry_Notes>
This compound contains an acetal/aminal-like group ( X-CH(R)-Y where X, Y are N, S, or O) that may be acid/base labile, releasing an aldehyde.

> <s_lp_Force_Field>
OPLS_2005

> <r_lp_Energy>
41.9483

> <b_lp_Chiralities_Consistent>
1

> <s_lp_Variant>
AV-unprocessed.smi:160-3

> <Gold.Version>
5.8.1

> <Gold.Id.Protein>
6NUR|6NUR_protein|mol2

> <Gold.PLP.Fitness>
41.3802

> <Gold.PLP.PLP>
-28.1491

> <Gold.PLP.part.hbond>
-7.6348

> <Gold.PLP.part.metal>
0.0000

> <Gold.PLP.part.buried>
-6.1333

> <Gold.PLP.part.nonpolar>
-14.1071

> <Gold.PLP.part.repulsive>
0.2096

> <Gold.PLP.ligand.clash>
0.0000

> <Gold.PLP.ligand.torsion>
0.1448

> <Gold.PLP.Chemscore.Hbond>
4.5000

> <Gold.PLP.Chemscore.CHOScore>
0.0000

> <Gold.PLP.Chemscore.Metal>
0.0000

> <Gold.Chemscore.Hbonds>
donor molecule, donor type, donor heavy atom, donor atom, acceptor molecule, acceptor atom, score
      L1  H    12    27       P1  8028  1.00
      L1  H    14    28       P1  7957  1.00
      L1  H    16    29       P1  7957  1.00
      P1  H  6896  6909       L1     3  0.78
      P1  H  7989  7998       L1     9  0.48

> <Gold.PLP.Chemscore.Internal.Correction>
0.0207

> <Gold.Rescore>
     Score         DG    S(hbond)    S(metal)    S(lipo)     H(rot)  DE(clash)    DE(int)     intcor
     10.94     -11.07       3.87        0.00      26.16       4.06       0.01       0.12       ----

> <Gold.Chemscore.Fitness>
10.9389

> <Gold.Chemscore.DG>
-11.0737

> <Gold.Chemscore.ZeroCoef>
-5.4800

> <Gold.Chemscore.Hbond>
3.8703

> <Gold.Chemscore.Metal>
0.0000

> <Gold.Chemscore.Lipo>
26.1582

> <Gold.Chemscore.Internal_Hbond>
0.0000

> <Gold.Chemscore.DEClash>
0.0149

> <Gold.Chemscore.DEInternal>
0.1199

> <Gold.Chemscore.Rot>
4.0600

> <Gold.Chemscore.Internal.Correction>
   9.000000E+99

> <Gold.Chemscore.Hbonds>
donor molecule, donor type, donor heavy atom, donor atom, acceptor molecule, acceptor atom, score
      L1  H    12    27       P1  8028  0.95
      L1  H    14    28       P1  7957  1.00
      L1  H    16    29       P1  7957  0.92
      P1  H  6896  6909       L1     3  0.78
      P1  H  7989  7998       L1     9  0.01

> <Gold.Chemscore.Hbond.Weighted>
-12.9268

> <Gold.Chemscore.Metal.Weighted>
-0.0000

> <Gold.Chemscore.Lipo.Weighted>
-3.0605

> <Gold.Chemscore.Internal_Hbond.Weighted>
0.0000

> <Gold.Chemscore.DEClash.Weighted>
0.0149

> <Gold.Chemscore.DEInternal.Weighted>
0.1199

> <Gold.Chemscore.Rot.Weighted>
10.3936

> <Gold.Chemscore.Internal.Correction.Weighted>
   9.000000E+99

> <Gold.Protein.RotatedTorsions>
[ 6907 6896 6895 6894 ] final  -41.26 input  -60.11 | X-H torsion
[ 7974 7965 7964 7962 ] final   27.32 input  175.53 | X-H torsion
[ 8008 7997 7996 7995 ] final  128.08 input   59.86 | X-H torsion
[ 10167 10162 10161 10158 ] final  171.40 input  -65.29 | X-H torsion
[ 10718 10713 10712 10709 ] final -129.86 input   66.30 | X-H torsion
[ 10763 10752 10751 10750 ] final -141.99 input  -60.55 | X-H torsion
[ 11005 11000 10999 10996 ] final  -61.43 input  -57.11 | X-H torsion

> <Gold.Protein.ActiveResidues>
 VAL166  LYS551  ARG553  GLY616  TRP617  ASP618  TYR619  PRO620  LYS621  CYS622 
 ASP623  PHE694  ASN695  SER759  ASP760  ASP761  ALA762  ILE779  LEU786  VAL792 
 PHE793  MET794  SER795  GLU796  ALA797  LYS798  CYS799  TRP800  GLU811  SER814 

> <Gold.Protein.RotatedAtoms>
  150.9688  134.9064  159.7774 H   0  0  0  0  0  0  0  0  0  0  0  0  # atno 6907 bound_to 6896
  152.5183  134.3570  159.9281 H   0  0  0  0  0  0  0  0  0  0  0  0  # atno 6908 bound_to 6896
  151.3580  133.3859  159.2721 H   0  0  0  0  0  0  0  0  0  0  0  0  # atno 6909 bound_to 6896
  146.1791  139.7208  142.8913 H   0  0  0  0  0  0  0  0  0  0  0  0  # atno 7974 bound_to 7965
  156.2906  140.2653  156.2378 H   0  0  0  0  0  0  0  0  0  0  0  0  # atno 8008 bound_to 7997
  155.0007  140.0388  157.2377 H   0  0  0  0  0  0  0  0  0  0  0  0  # atno 8009 bound_to 7997
  154.7604  140.2759  155.6224 H   0  0  0  0  0  0  0  0  0  0  0  0  # atno 8010 bound_to 7997
  139.5046  144.3489  151.9942 H   0  0  0  0  0  0  0  0  0  0  0  0  # atno 10167 bound_to 10162
  156.2088  130.6905  151.0625 H   0  0  0  0  0  0  0  0  0  0  0  0  # atno 10718 bound_to 10713
  154.8525  135.3509  154.5956 H   0  0  0  0  0  0  0  0  0  0  0  0  # atno 10763 bound_to 10752
  153.6565  135.6991  153.5196 H   0  0  0  0  0  0  0  0  0  0  0  0  # atno 10764 bound_to 10752
  153.2852  135.4251  155.1073 H   0  0  0  0  0  0  0  0  0  0  0  0  # atno 10765 bound_to 10752
  141.1324  133.6630  156.5375 H   0  0  0  0  0  0  0  0  0  0  0  0  # atno 11005 bound_to 11000
  145.4128  141.0398  143.3007 LP  0  0  0  0  0  0  0  0  0  0  0  0  # atno 17320 bound_to 7965
  144.8284  139.5670  143.6955 LP  0  0  0  0  0  0  0  0  0  0  0  0  # atno 17321 bound_to 7965
  140.2926  144.3736  150.6084 LP  0  0  0  0  0  0  0  0  0  0  0  0  # atno 17342 bound_to 10162
  140.5935  143.2167  151.7209 LP  0  0  0  0  0  0  0  0  0  0  0  0  # atno 17343 bound_to 10162
  157.7027  131.0769  150.6769 LP  0  0  0  0  0  0  0  0  0  0  0  0  # atno 17370 bound_to 10713
  156.6828  130.4572  149.5623 LP  0  0  0  0  0  0  0  0  0  0  0  0  # atno 17371 bound_to 10713
  140.4166  134.7224  157.4866 LP  0  0  0  0  0  0  0  0  0  0  0  0  # atno 17394 bound_to 11000
  140.0389  134.6296  155.9007 LP  0  0  0  0  0  0  0  0  0  0  0  0  # atno 17395 bound_to 11000

$$$$
