AV-unprocessed.smi:2742|AV-procd|sdf|10565|dock8
  -GOLD-   2272015 13D 1   1.00000     0.00000
 Structure written by MMmdl.
 37 38  0  0  0  0  0  0  0  0  1 V2000
  144.7422  131.5710  151.2771 C   0  0  0  0  0  0  0  0  0  0  0  0
  146.3921  132.0029  151.8919 S   0  0  0  0  0  0  0  0  0  0  0  0
  146.2781  133.8156  151.9348 C   0  0  1  0  0  0  0  0  0  0  0  0
  145.3645  134.3195  150.8036 C   0  0  0  0  0  0  0  0  0  0  0  0
  145.2320  135.8501  150.8259 C   0  0  0  0  0  0  0  0  0  0  0  0
  144.7227  136.3440  152.1902 C   0  0  0  0  0  0  0  0  0  0  0  0
  145.6064  135.8466  153.3534 C   0  0  2  0  0  0  0  0  0  0  0  0
  146.9148  136.4998  153.3445 N   0  0  0  0  0  0  0  0  0  0  0  0
  147.2828  137.5168  154.1370 C   0  0  0  0  0  0  0  0  0  0  0  0
  146.5446  138.0138  154.9868 O   0  0  0  0  0  0  0  0  0  0  0  0
  148.5464  137.8956  153.8784 N   0  0  0  0  0  0  0  0  0  0  0  0
  149.3207  138.9256  154.4814 C   0  0  0  0  0  0  0  0  0  0  0  0
  148.8172  140.1965  154.8528 C   0  0  0  0  0  0  0  0  0  0  0  0
  149.7002  141.1299  155.4320 C   0  0  0  0  0  0  0  0  0  0  0  0
  151.0092  140.8820  155.6481 N   0  0  0  0  0  0  0  0  0  0  0  0
  151.4886  139.6745  155.2828 C   0  0  0  0  0  0  0  0  0  0  0  0
  150.6919  138.6704  154.6969 C   0  0  0  0  0  0  0  0  0  0  0  0
  151.2389  137.4799  154.3503 F   0  0  0  0  0  0  0  0  0  0  0  0
  145.7735  134.3147  153.3053 C   0  0  0  0  0  0  0  0  0  0  0  0
  144.6299  130.4873  151.2453 H   0  0  0  0  0  0  0  0  0  0  0  0
  144.5872  131.9595  150.2712 H   0  0  0  0  0  0  0  0  0  0  0  0
  143.9720  131.9777  151.9322 H   0  0  0  0  0  0  0  0  0  0  0  0
  147.2816  134.2047  151.7580 H   0  0  0  0  0  0  0  0  0  0  0  0
  145.7570  134.0004  149.8375 H   0  0  0  0  0  0  0  0  0  0  0  0
  144.3758  133.8684  150.8995 H   0  0  0  0  0  0  0  0  0  0  0  0
  146.1979  136.3054  150.6047 H   0  0  0  0  0  0  0  0  0  0  0  0
  144.5517  136.1749  150.0382 H   0  0  0  0  0  0  0  0  0  0  0  0
  144.6595  137.4329  152.1948 H   0  0  0  0  0  0  0  0  0  0  0  0
  143.7038  135.9840  152.3388 H   0  0  0  0  0  0  0  0  0  0  0  0
  145.1113  136.0939  154.2942 H   0  0  0  0  0  0  0  0  0  0  0  0
  147.5879  136.1523  152.6772 H   0  0  0  0  0  0  0  0  0  0  0  0
  149.0357  137.3483  153.1856 H   0  0  0  0  0  0  0  0  0  0  0  0
  147.7881  140.4810  154.7010 H   0  0  0  0  0  0  0  0  0  0  0  0
  149.3446  142.1065  155.7256 H   0  0  0  0  0  0  0  0  0  0  0  0
  152.5398  139.5032  155.4610 H   0  0  0  0  0  0  0  0  0  0  0  0
  144.8113  133.8484  153.5213 H   0  0  0  0  0  0  0  0  0  0  0  0
  146.4472  133.9958  154.1008 H   0  0  0  0  0  0  0  0  0  0  0  0
  1  2  1  0  0  0  0
  1 20  1  0  0  0  0
  1 21  1  0  0  0  0
  1 22  1  0  0  0  0
  2  3  1  0  0  0  0
  3 19  1  0  0  0  0
  3  4  1  0  0  0  0
  3 23  1  0  0  0  0
  4  5  1  0  0  0  0
  4 24  1  0  0  0  0
  4 25  1  0  0  0  0
  5  6  1  0  0  0  0
  5 26  1  0  0  0  0
  5 27  1  0  0  0  0
  6  7  1  0  0  0  0
  6 28  1  0  0  0  0
  6 29  1  0  0  0  0
  7  8  1  0  0  0  0
  7 19  1  0  0  0  0
  7 30  1  0  0  0  0
  8  9  1  0  0  0  0
  8 31  1  0  0  0  0
  9 10  2  0  0  0  0
  9 11  1  0  0  0  0
 11 12  1  0  0  0  0
 11 32  1  0  0  0  0
 12 17  1  0  0  0  0
 12 13  2  0  0  0  0
 13 14  1  0  0  0  0
 13 33  1  0  0  0  0
 14 15  2  0  0  0  0
 14 34  1  0  0  0  0
 15 16  1  0  0  0  0
 16 17  2  0  0  0  0
 16 35  1  0  0  0  0
 17 18  1  0  0  0  0
 19 36  1  0  0  0  0
 19 37  1  0  0  0  0
M  END
> <s_m_source_file>
AV-unprocessed.smi

> <i_m_source_file_index>
2742

> <i_lp_mmshare_version>
43012

> <i_f3d_flags>
0

> <s_epik_input>
W0NIM11TW0NAQEhdMVtDSDJdW0NIMl1bQ0gyXVtDQEhdKFtDSDJdMSlbTkhdQyg9TylbTkhdYzJbY0hdW2NIXW5bY0hdYzJG

> <s_epik_cmdline>
J2VwaWtfcHl0aG9uJywgJy1waCcsICc3LjAnLCAnLXRuJywgJzgnLCAnLW1hJywgJzIwMCcsICctbWV0YWxfYmluZGluZycsICctaW1hZScsICc8aW5maWxlLm1hZT4nLCAnLW9tYWUnLCAnPG91dGZpbGUubWFlPic=

> <r_epik_Ionization_Penalty>
0.00344009

> <r_epik_Ionization_Penalty_Charging>
0

> <r_epik_Ionization_Penalty_Neutral>
0.00344009

> <r_epik_State_Penalty>
0.0024078

> <r_epik_Charging_Adjusted_Penalty>
0.0024078

> <i_epik_Tot_Q>
0

> <i_epik_Tot_abs_Q>
0

> <r_epik_Metal_State_Penalty>
-0

> <b_epik_Metal_Only>
0

> <s_lp_Force_Field>
OPLS_2005

> <r_lp_Energy>
13.9364

> <b_lp_Chiralities_Consistent>
1

> <s_lp_Variant>
AV-unprocessed.smi:2742-4

> <Gold.Version>
5.8.1

> <Gold.Id.Protein>
6NUR|6NUR_protein|mol2

> <Gold.PLP.Fitness>
40.4276

> <Gold.PLP.PLP>
-33.1991

> <Gold.PLP.part.hbond>
-3.0000

> <Gold.PLP.part.metal>
0.0000

> <Gold.PLP.part.buried>
-1.7923

> <Gold.PLP.part.nonpolar>
-29.0193

> <Gold.PLP.part.repulsive>
0.1338

> <Gold.PLP.ligand.clash>
0.0000

> <Gold.PLP.ligand.torsion>
0.8791

> <Gold.PLP.Chemscore.Hbond>
1.9920

> <Gold.PLP.Chemscore.CHOScore>
1.0000

> <Gold.PLP.Chemscore.Metal>
0.0000

> <Gold.Chemscore.Hbonds>
donor molecule, donor type, donor heavy atom, donor atom, acceptor molecule, acceptor atom, score
      L1  H     8    31       P1  7948  1.00
      L1  H    11    32       P1  7948  0.99
      L1  C    14    34       P1  8028  0.70

> <Gold.PLP.Chemscore.Internal.Correction>
0.0108

> <Gold.Rescore>
     Score         DG    S(hbond)    S(metal)    S(lipo)     H(rot)  DE(clash)    DE(int)     intcor
     16.88     -17.42       1.92        0.00      73.19       1.19       0.02       0.52       ----

> <Gold.Chemscore.Fitness>
16.8779

> <Gold.Chemscore.DG>
-17.4218

> <Gold.Chemscore.ZeroCoef>
-5.4800

> <Gold.Chemscore.Hbond>
1.9217

> <Gold.Chemscore.Metal>
0.0000

> <Gold.Chemscore.Lipo>
73.1916

> <Gold.Chemscore.Internal_Hbond>
0.0000

> <Gold.Chemscore.DEClash>
0.0205

> <Gold.Chemscore.DEInternal>
0.5234

> <Gold.Chemscore.Rot>
1.1875

> <Gold.Chemscore.Internal.Correction>
   9.000000E+99

> <Gold.Chemscore.Hbonds>
donor molecule, donor type, donor heavy atom, donor atom, acceptor molecule, acceptor atom, score
      L1  H     8    31       P1  7948  0.95
      L1  H    11    32       P1  7948  0.94

> <Gold.Chemscore.Hbond.Weighted>
-6.4184

> <Gold.Chemscore.Metal.Weighted>
-0.0000

> <Gold.Chemscore.Lipo.Weighted>
-8.5634

> <Gold.Chemscore.Internal_Hbond.Weighted>
0.0000

> <Gold.Chemscore.DEClash.Weighted>
0.0205

> <Gold.Chemscore.DEInternal.Weighted>
0.5234

> <Gold.Chemscore.Rot.Weighted>
3.0400

> <Gold.Chemscore.Internal.Correction.Weighted>
   9.000000E+99

> <Gold.Protein.RotatedTorsions>
[ 6907 6896 6895 6894 ] final  -36.54 input  -60.11 | X-H torsion
[ 7974 7965 7964 7962 ] final  -99.15 input  175.53 | X-H torsion
[ 8008 7997 7996 7995 ] final -163.71 input   59.86 | X-H torsion
[ 10167 10162 10161 10158 ] final   -9.51 input  -65.29 | X-H torsion
[ 10718 10713 10712 10709 ] final   19.27 input   66.30 | X-H torsion
[ 10763 10752 10751 10750 ] final -128.84 input  -60.55 | X-H torsion
[ 11005 11000 10999 10996 ] final -154.01 input  -57.11 | X-H torsion

> <Gold.Protein.ActiveResidues>
 VAL166  LYS551  ARG553  GLY616  TRP617  ASP618  TYR619  PRO620  LYS621  CYS622 
 ASP623  PHE694  ASN695  SER759  ASP760  ASP761  ALA762  ILE779  LEU786  VAL792 
 PHE793  MET794  SER795  GLU796  ALA797  LYS798  CYS799  TRP800  GLU811  SER814 

> <Gold.Protein.RotatedAtoms>
  151.0259  134.9503  159.8084 H   0  0  0  0  0  0  0  0  0  0  0  0  # atno 6907 bound_to 6896
  152.5335  134.2843  159.9029 H   0  0  0  0  0  0  0  0  0  0  0  0  # atno 6908 bound_to 6896
  151.2852  133.4149  159.2663 H   0  0  0  0  0  0  0  0  0  0  0  0  # atno 6909 bound_to 6896
  145.3113  140.9401  143.2768 H   0  0  0  0  0  0  0  0  0  0  0  0  # atno 7974 bound_to 7965
  155.8252  140.0925  157.1825 H   0  0  0  0  0  0  0  0  0  0  0  0  # atno 8008 bound_to 7997
  154.3979  140.1429  156.3608 H   0  0  0  0  0  0  0  0  0  0  0  0  # atno 8009 bound_to 7997
  155.8224  140.3446  155.5525 H   0  0  0  0  0  0  0  0  0  0  0  0  # atno 8010 bound_to 7997
  140.7089  143.5849  150.8953 H   0  0  0  0  0  0  0  0  0  0  0  0  # atno 10167 bound_to 10162
  157.1081  130.6497  149.5890 H   0  0  0  0  0  0  0  0  0  0  0  0  # atno 10718 bound_to 10713
  154.8757  135.3915  154.3822 H   0  0  0  0  0  0  0  0  0  0  0  0  # atno 10763 bound_to 10752
  153.4568  135.7029  153.6080 H   0  0  0  0  0  0  0  0  0  0  0  0  # atno 10764 bound_to 10752
  153.4596  135.3815  155.2299 H   0  0  0  0  0  0  0  0  0  0  0  0  # atno 10765 bound_to 10752
  140.7020  134.3927  157.5208 H   0  0  0  0  0  0  0  0  0  0  0  0  # atno 11005 bound_to 11000
  144.9013  139.4646  143.6631 LP  0  0  0  0  0  0  0  0  0  0  0  0  # atno 17320 bound_to 7965
  146.3117  139.7769  142.9015 LP  0  0  0  0  0  0  0  0  0  0  0  0  # atno 17321 bound_to 7965
  139.9575  143.6201  152.3012 LP  0  0  0  0  0  0  0  0  0  0  0  0  # atno 17342 bound_to 10162
  139.6742  144.7659  151.1727 LP  0  0  0  0  0  0  0  0  0  0  0  0  # atno 17343 bound_to 10162
  155.9857  130.4888  150.7044 LP  0  0  0  0  0  0  0  0  0  0  0  0  # atno 17370 bound_to 10713
  157.4583  131.0880  151.0773 LP  0  0  0  0  0  0  0  0  0  0  0  0  # atno 17371 bound_to 10713
  139.8894  134.8831  156.2422 LP  0  0  0  0  0  0  0  0  0  0  0  0  # atno 17394 bound_to 11000
  141.0156  133.7071  156.1182 LP  0  0  0  0  0  0  0  0  0  0  0  0  # atno 17395 bound_to 11000

$$$$
