AV-unprocessed.smi:2355|AV-procd|sdf|9387|dock4
  -GOLD-   2272013 23D 1   1.00000     0.00000
 Structure written by MMmdl.
 48 49  0  0  0  0  0  0  0  0  1 V2000
  153.7658  141.8172  162.2321 C   0  0  0  0  0  0  0  0  0  0  0  0
  152.9290  142.3596  161.0925 C   0  0  0  0  0  0  0  0  0  0  0  0
  152.4969  143.6996  161.0871 C   0  0  0  0  0  0  0  0  0  0  0  0
  151.7208  144.1436  159.9988 C   0  0  0  0  0  0  0  0  0  0  0  0
  151.2188  145.5706  159.9320 C   0  0  0  0  0  0  0  0  0  0  0  0
  151.3740  143.3450  158.9668 N   0  0  0  0  0  0  0  0  0  0  0  0
  151.7853  142.0528  158.9609 C   0  0  0  0  0  0  0  0  0  0  0  0
  151.4753  141.1328  157.9245 N   0  0  0  0  0  0  0  0  0  0  0  0
  152.1194  139.9976  157.6016 C   0  0  0  0  0  0  0  0  0  0  0  0
  153.1140  139.5532  158.1760 O   0  0  0  0  0  0  0  0  0  0  0  0
  151.5355  139.3905  156.5577 N   0  0  0  0  0  0  0  0  0  0  0  0
  151.9761  138.1334  155.9543 C   0  0  2  0  0  0  0  0  0  0  0  0
  153.0596  138.4382  154.9048 C   0  0  0  0  0  0  0  0  0  0  0  0
  150.7763  137.3060  155.3866 C   0  0  1  0  0  0  0  0  0  0  0  0
  150.2945  137.9222  154.0469 C   0  0  0  0  0  0  0  0  0  0  0  0
  151.0397  135.8502  155.2928 N   0  0  0  0  0  0  0  0  0  0  0  0
  149.9089  135.1077  154.7243 C   0  0  0  0  0  0  0  0  0  0  0  0
  150.1700  133.5938  154.6437 C   0  0  0  0  0  0  0  0  0  0  0  0
  150.4793  133.0926  155.9369 O   0  0  0  0  0  0  0  0  0  0  0  0
  151.6168  133.7322  156.4987 C   0  0  0  0  0  0  0  0  0  0  0  0
  151.3696  135.2478  156.5896 C   0  0  0  0  0  0  0  0  0  0  0  0
  152.5683  141.5276  160.0135 C   0  0  0  0  0  0  0  0  0  0  0  0
  153.8896  142.5597  163.0209 H   0  0  0  0  0  0  0  0  0  0  0  0
  154.7548  141.5329  161.8722 H   0  0  0  0  0  0  0  0  0  0  0  0
  153.2903  140.9371  162.6655 H   0  0  0  0  0  0  0  0  0  0  0  0
  152.7520  144.3690  161.8957 H   0  0  0  0  0  0  0  0  0  0  0  0
  151.7563  146.2095  160.6333 H   0  0  0  0  0  0  0  0  0  0  0  0
  150.1575  145.6078  160.1788 H   0  0  0  0  0  0  0  0  0  0  0  0
  151.3538  145.9792  158.9299 H   0  0  0  0  0  0  0  0  0  0  0  0
  150.6713  141.3684  157.3622 H   0  0  0  0  0  0  0  0  0  0  0  0
  150.7228  139.8271  156.1482 H   0  0  0  0  0  0  0  0  0  0  0  0
  152.4581  137.5830  156.7613 H   0  0  0  0  0  0  0  0  0  0  0  0
  153.4530  137.5223  154.4637 H   0  0  0  0  0  0  0  0  0  0  0  0
  153.8998  138.9674  155.3556 H   0  0  0  0  0  0  0  0  0  0  0  0
  152.6779  139.0608  154.0955 H   0  0  0  0  0  0  0  0  0  0  0  0
  149.9530  137.4367  156.0907 H   0  0  0  0  0  0  0  0  0  0  0  0
  150.1948  139.0059  154.0958 H   0  0  0  0  0  0  0  0  0  0  0  0
  149.3082  137.5565  153.7642 H   0  0  0  0  0  0  0  0  0  0  0  0
  150.9811  137.6923  153.2320 H   0  0  0  0  0  0  0  0  0  0  0  0
  149.0113  135.2887  155.3175 H   0  0  0  0  0  0  0  0  0  0  0  0
  149.6944  135.4501  153.7133 H   0  0  0  0  0  0  0  0  0  0  0  0
  149.2884  133.0772  154.2641 H   0  0  0  0  0  0  0  0  0  0  0  0
  150.9889  133.3788  153.9552 H   0  0  0  0  0  0  0  0  0  0  0  0
  151.8033  133.3198  157.4904 H   0  0  0  0  0  0  0  0  0  0  0  0
  152.4997  133.5209  155.8934 H   0  0  0  0  0  0  0  0  0  0  0  0
  152.2748  135.6885  157.0018 H   0  0  0  0  0  0  0  0  0  0  0  0
  150.5671  135.4423  157.3026 H   0  0  0  0  0  0  0  0  0  0  0  0
  152.8895  140.4959  159.9963 H   0  0  0  0  0  0  0  0  0  0  0  0
  1  2  1  0  0  0  0
  1 23  1  0  0  0  0
  1 24  1  0  0  0  0
  1 25  1  0  0  0  0
  2 22  1  0  0  0  0
  2  3  2  0  0  0  0
  3  4  1  0  0  0  0
  3 26  1  0  0  0  0
  4  5  1  0  0  0  0
  4  6  2  0  0  0  0
  5 27  1  0  0  0  0
  5 28  1  0  0  0  0
  5 29  1  0  0  0  0
  6  7  1  0  0  0  0
  7  8  1  0  0  0  0
  7 22  2  0  0  0  0
  8  9  1  0  0  0  0
  8 30  1  0  0  0  0
  9 10  2  0  0  0  0
  9 11  1  0  0  0  0
 11 12  1  0  0  0  0
 11 31  1  0  0  0  0
 12 13  1  0  0  0  0
 12 14  1  0  0  0  0
 12 32  1  0  0  0  0
 13 33  1  0  0  0  0
 13 34  1  0  0  0  0
 13 35  1  0  0  0  0
 14 15  1  0  0  0  0
 14 16  1  0  0  0  0
 14 36  1  0  0  0  0
 15 37  1  0  0  0  0
 15 38  1  0  0  0  0
 15 39  1  0  0  0  0
 16 21  1  0  0  0  0
 16 17  1  0  0  0  0
 17 18  1  0  0  0  0
 17 40  1  0  0  0  0
 17 41  1  0  0  0  0
 18 19  1  0  0  0  0
 18 42  1  0  0  0  0
 18 43  1  0  0  0  0
 19 20  1  0  0  0  0
 20 21  1  0  0  0  0
 20 44  1  0  0  0  0
 20 45  1  0  0  0  0
 21 46  1  0  0  0  0
 21 47  1  0  0  0  0
 22 48  1  0  0  0  0
M  END
> <s_m_source_file>
AV-unprocessed.smi

> <i_m_source_file_index>
2355

> <i_lp_mmshare_version>
43012

> <i_f3d_flags>
0

> <s_epik_input>
W0NIM11jMVtjSF1jKFtDSDNdKW5jKFtjSF0xKVtOSF1DKD1PKVtOSF1bQ0BIXShbQ0gzXSlbQ0BIXShbQ0gzXSlOMltDSDJdW0NIMl1PW0NIMl1bQ0gyXTI=

> <s_epik_cmdline>
J2VwaWtfcHl0aG9uJywgJy1waCcsICc3LjAnLCAnLXRuJywgJzgnLCAnLW1hJywgJzIwMCcsICctbWV0YWxfYmluZGluZycsICctaW1hZScsICc8aW5maWxlLm1hZT4nLCAnLW9tYWUnLCAnPG91dGZpbGUubWFlPic=

> <r_epik_Ionization_Penalty>
0.266238

> <r_epik_Ionization_Penalty_Charging>
0

> <r_epik_Ionization_Penalty_Neutral>
0.266238

> <r_epik_State_Penalty>
0.257924

> <r_epik_Charging_Adjusted_Penalty>
0.257924

> <i_epik_Tot_Q>
0

> <i_epik_Tot_abs_Q>
0

> <r_epik_Metal_State_Penalty>
0.257904

> <b_epik_Metal_Only>
0

> <s_lp_Force_Field>
OPLS_2005

> <r_lp_Energy>
33.2304

> <b_lp_Chiralities_Consistent>
1

> <s_lp_Variant>
AV-unprocessed.smi:2355-3

> <Gold.Version>
5.8.1

> <Gold.Id.Protein>
6NUR|6NUR_protein|mol2

> <Gold.PLP.Fitness>
43.5583

> <Gold.PLP.PLP>
-39.9679

> <Gold.PLP.part.hbond>
-1.9597

> <Gold.PLP.part.metal>
0.0000

> <Gold.PLP.part.buried>
-3.5333

> <Gold.PLP.part.nonpolar>
-35.3031

> <Gold.PLP.part.repulsive>
0.3300

> <Gold.PLP.ligand.clash>
0.0000

> <Gold.PLP.ligand.torsion>
0.8267

> <Gold.PLP.Chemscore.Hbond>
1.7182

> <Gold.PLP.Chemscore.CHOScore>
0.0000

> <Gold.PLP.Chemscore.Metal>
0.0000

> <Gold.Chemscore.Hbonds>
donor molecule, donor type, donor heavy atom, donor atom, acceptor molecule, acceptor atom, score
      P1  H  7997  8010       L1    10  1.00
      P1  H 10752 10764       L1    16  0.73

> <Gold.PLP.Chemscore.Internal.Correction>
0.0891

> <Gold.Rescore>
     Score         DG    S(hbond)    S(metal)    S(lipo)     H(rot)  DE(clash)    DE(int)     intcor
     15.59     -18.57       1.01        0.00     113.82       1.40       0.65       2.32       ----

> <Gold.Chemscore.Fitness>
15.5913

> <Gold.Chemscore.DG>
-18.5685

> <Gold.Chemscore.ZeroCoef>
-5.4800

> <Gold.Chemscore.Hbond>
1.0056

> <Gold.Chemscore.Metal>
0.0000

> <Gold.Chemscore.Lipo>
113.8248

> <Gold.Chemscore.Internal_Hbond>
0.0000

> <Gold.Chemscore.DEClash>
0.6527

> <Gold.Chemscore.DEInternal>
2.3244

> <Gold.Chemscore.Rot>
1.4015

> <Gold.Chemscore.Internal.Correction>
   9.000000E+99

> <Gold.Chemscore.Hbonds>
donor molecule, donor type, donor heavy atom, donor atom, acceptor molecule, acceptor atom, score
      P1  H  7997  8010       L1    10  0.30
      P1  H 10752 10764       L1    16  0.06

> <Gold.Chemscore.Hbond.Weighted>
-3.3587

> <Gold.Chemscore.Metal.Weighted>
-0.0000

> <Gold.Chemscore.Lipo.Weighted>
-13.3175

> <Gold.Chemscore.Internal_Hbond.Weighted>
0.0000

> <Gold.Chemscore.DEClash.Weighted>
0.6527

> <Gold.Chemscore.DEInternal.Weighted>
2.3244

> <Gold.Chemscore.Rot.Weighted>
3.5878

> <Gold.Chemscore.Internal.Correction.Weighted>
   9.000000E+99

> <Gold.Protein.RotatedTorsions>
[ 6907 6896 6895 6894 ] final   59.69 input  -60.11 | X-H torsion
[ 7974 7965 7964 7962 ] final   75.06 input  175.53 | X-H torsion
[ 8008 7997 7996 7995 ] final   42.49 input   59.86 | X-H torsion
[ 10167 10162 10161 10158 ] final -104.94 input  -65.29 | X-H torsion
[ 10718 10713 10712 10709 ] final  153.34 input   66.30 | X-H torsion
[ 10763 10752 10751 10750 ] final  -68.08 input  -60.55 | X-H torsion
[ 11005 11000 10999 10996 ] final -167.50 input  -57.11 | X-H torsion

> <Gold.Protein.ActiveResidues>
 VAL166  LYS551  ARG553  GLY616  TRP617  ASP618  TYR619  PRO620  LYS621  CYS622 
 ASP623  PHE694  ASN695  SER759  ASP760  ASP761  ALA762  ILE779  LEU786  VAL792 
 PHE793  MET794  SER795  GLU796  ALA797  LYS798  CYS799  TRP800  GLU811  SER814 

> <Gold.Protein.RotatedAtoms>
  152.3937  134.6400  160.0097 H   0  0  0  0  0  0  0  0  0  0  0  0  # atno 6907 bound_to 6896
  151.6626  133.3311  159.3185 H   0  0  0  0  0  0  0  0  0  0  0  0  # atno 6908 bound_to 6896
  150.7848  134.6867  159.6519 H   0  0  0  0  0  0  0  0  0  0  0  0  # atno 6909 bound_to 6896
  145.7203  139.2646  143.1599 H   0  0  0  0  0  0  0  0  0  0  0  0  # atno 7974 bound_to 7965
  155.2870  140.3376  155.4254 H   0  0  0  0  0  0  0  0  0  0  0  0  # atno 8008 bound_to 7997
  156.2063  140.1752  156.7832 H   0  0  0  0  0  0  0  0  0  0  0  0  # atno 8009 bound_to 7997
  154.5626  140.0684  156.8826 H   0  0  0  0  0  0  0  0  0  0  0  0  # atno 8010 bound_to 7997
  140.2038  143.3798  152.1107 H   0  0  0  0  0  0  0  0  0  0  0  0  # atno 10167 bound_to 10162
  157.2460  131.0769  151.1761 H   0  0  0  0  0  0  0  0  0  0  0  0  # atno 10718 bound_to 10713
  154.3839  135.6068  153.5806 H   0  0  0  0  0  0  0  0  0  0  0  0  # atno 10763 bound_to 10752
  152.9788  135.5867  154.4378 H   0  0  0  0  0  0  0  0  0  0  0  0  # atno 10764 bound_to 10752
  154.4151  135.2845  155.1989 H   0  0  0  0  0  0  0  0  0  0  0  0  # atno 10765 bound_to 10752
  140.5525  134.5414  157.5125 H   0  0  0  0  0  0  0  0  0  0  0  0  # atno 11005 bound_to 11000
  146.0631  140.7949  142.9725 LP  0  0  0  0  0  0  0  0  0  0  0  0  # atno 17320 bound_to 7965
  144.6918  140.3227  143.7229 LP  0  0  0  0  0  0  0  0  0  0  0  0  # atno 17321 bound_to 7965
  139.5206  144.7036  151.5422 LP  0  0  0  0  0  0  0  0  0  0  0  0  # atno 17342 bound_to 10162
  140.6371  143.8962  150.6658 LP  0  0  0  0  0  0  0  0  0  0  0  0  # atno 17343 bound_to 10162
  157.3329  130.6994  149.6335 LP  0  0  0  0  0  0  0  0  0  0  0  0  # atno 17370 bound_to 10713
  155.9668  130.4302  150.4867 LP  0  0  0  0  0  0  0  0  0  0  0  0  # atno 17371 bound_to 10713
  139.9448  134.7722  156.0589 LP  0  0  0  0  0  0  0  0  0  0  0  0  # atno 17394 bound_to 11000
  141.1163  133.6627  156.3102 LP  0  0  0  0  0  0  0  0  0  0  0  0  # atno 17395 bound_to 11000

$$$$
