AV-unprocessed.smi:3105|AV-procd|sdf|11821|dock1
  -GOLD-   2272017193D 1   1.00000     0.00000
 Structure written by MMmdl.
 34 34  0  0  0  0  0  0  0  0  2 V2000
  147.6173  137.9256  155.0599 C   0  0  0  0  0  0  0  0  0  0  0  0
  146.7932  139.1186  154.5304 C   0  0  2  0  0  0  0  0  0  0  0  0
  145.7700  138.6418  153.5717 N   0  3  0  0  0  0  0  0  0  0  0  0
  146.2960  137.9872  152.3525 C   0  0  0  0  0  0  0  0  0  0  0  0
  145.4824  136.7335  151.9736 C   0  0  0  0  0  0  0  0  0  0  0  0
  145.8930  136.0841  150.6448 C   0  0  0  0  0  0  0  0  0  0  0  0
  145.6586  136.7912  149.5370 N   0  0  0  0  0  0  0  0  0  0  0  0
  146.4120  134.9695  150.6086 O   0  0  0  0  0  0  0  0  0  0  0  0
  147.6728  140.2061  153.8566 C   0  0  1  0  0  0  0  0  0  0  0  0
  146.9327  141.5485  153.6952 C   0  0  0  0  0  0  0  0  0  0  0  0
  148.9338  140.4122  154.5589 N   0  0  0  0  0  0  0  0  0  0  0  0
  149.3527  141.5303  155.2505 C   0  0  0  0  0  0  0  0  0  0  0  0
  150.6003  141.2658  155.7382 C   0  0  0  0  0  0  0  0  0  0  0  0
  150.8654  139.9422  155.2894 C   0  0  0  0  0  0  0  0  0  0  0  0
  149.8680  139.4341  154.5839 N   0  0  0  0  0  0  0  0  0  0  0  0
  148.3343  138.2337  155.8209 H   0  0  0  0  0  0  0  0  0  0  0  0
  148.1745  137.4449  154.2551 H   0  0  0  0  0  0  0  0  0  0  0  0
  146.9858  137.1674  155.5216 H   0  0  0  0  0  0  0  0  0  0  0  0
  146.2787  139.5799  155.3750 H   0  0  0  0  0  0  0  0  0  0  0  0
  145.1935  137.9641  154.0498 H   0  0  0  0  0  0  0  0  0  0  0  0
  146.3042  138.6874  151.5169 H   0  0  0  0  0  0  0  0  0  0  0  0
  147.3338  137.7026  152.5297 H   0  0  0  0  0  0  0  0  0  0  0  0
  145.5987  135.9878  152.7610 H   0  0  0  0  0  0  0  0  0  0  0  0
  144.4197  136.9765  151.9345 H   0  0  0  0  0  0  0  0  0  0  0  0
  145.9122  136.4194  148.6328 H   0  0  0  0  0  0  0  0  0  0  0  0
  145.2311  137.7038  149.6068 H   0  0  0  0  0  0  0  0  0  0  0  0
  147.9311  139.8535  152.8566 H   0  0  0  0  0  0  0  0  0  0  0  0
  146.0484  141.4469  153.0663 H   0  0  0  0  0  0  0  0  0  0  0  0
  147.5762  142.2950  153.2282 H   0  0  0  0  0  0  0  0  0  0  0  0
  146.6098  141.9469  154.6577 H   0  0  0  0  0  0  0  0  0  0  0  0
  148.7362  142.4131  155.3365 H   0  0  0  0  0  0  0  0  0  0  0  0
  151.2282  141.9186  156.3264 H   0  0  0  0  0  0  0  0  0  0  0  0
  151.7470  139.3400  155.4535 H   0  0  0  0  0  0  0  0  0  0  0  0
  145.1888  139.4232  153.3027 H   0  0  0  0  0  0  0  0  0  0  0  0
  1  2  1  0  0  0  0
  1 16  1  0  0  0  0
  1 17  1  0  0  0  0
  1 18  1  0  0  0  0
  2  3  1  0  0  0  0
  2  9  1  0  0  0  0
  2 19  1  0  0  0  0
  3  4  1  0  0  0  0
  3 20  1  0  0  0  0
  3 34  1  0  0  0  0
  4  5  1  0  0  0  0
  4 21  1  0  0  0  0
  4 22  1  0  0  0  0
  5  6  1  0  0  0  0
  5 23  1  0  0  0  0
  5 24  1  0  0  0  0
  6  7  1  0  0  0  0
  6  8  2  0  0  0  0
  7 25  1  0  0  0  0
  7 26  1  0  0  0  0
  9 10  1  0  0  0  0
  9 11  1  0  0  0  0
  9 27  1  0  0  0  0
 10 28  1  0  0  0  0
 10 29  1  0  0  0  0
 10 30  1  0  0  0  0
 11 15  1  0  0  0  0
 11 12  1  0  0  0  0
 12 13  2  0  0  0  0
 12 31  1  0  0  0  0
 13 14  1  0  0  0  0
 13 32  1  0  0  0  0
 14 15  2  0  0  0  0
 14 33  1  0  0  0  0
M  CHG  1   3   1
M  END
> <s_m_source_file>
AV-unprocessed.smi

> <i_m_source_file_index>
3105

> <i_lp_mmshare_version>
43012

> <i_f3d_flags>
0

> <s_epik_input>
W05IMl1DKD1PKVtDSDJdW0NIMl1bTkhdW0NAQEhdKFtDSDNdKVtDQEhdKFtDSDNdKW4xW2NIXVtjSF1bY0hdbjE=

> <s_epik_cmdline>
J2VwaWtfcHl0aG9uJywgJy1waCcsICc3LjAnLCAnLXRuJywgJzgnLCAnLW1hJywgJzIwMCcsICctbWV0YWxfYmluZGluZycsICctaW1hZScsICc8aW5maWxlLm1hZT4nLCAnLW9tYWUnLCAnPG91dGZpbGUubWFlPic=

> <r_lp_tautomer_probability>
1

> <r_epik_Ionization_Penalty>
0.00475669

> <r_epik_Ionization_Penalty_Charging>
0.00474654

> <r_epik_Ionization_Penalty_Neutral>
1.01546e-05

> <r_epik_State_Penalty>
-0

> <r_epik_Charging_Adjusted_Penalty>
0.00474654

> <i_epik_Tot_Q>
1

> <i_epik_Tot_abs_Q>
1

> <r_epik_Metal_State_Penalty>
-0

> <b_epik_Metal_Only>
0

> <s_lp_Force_Field>
OPLS_2005

> <r_lp_Energy>
6.92169

> <b_lp_Chiralities_Consistent>
1

> <s_lp_Variant>
AV-unprocessed.smi:3105-3

> <Gold.Version>
5.8.1

> <Gold.Id.Protein>
6NUR|6NUR_protein|mol2

> <Gold.PLP.Fitness>
40.7041

> <Gold.PLP.PLP>
-27.1802

> <Gold.PLP.part.hbond>
-3.0000

> <Gold.PLP.part.metal>
0.0000

> <Gold.PLP.part.buried>
-3.3348

> <Gold.PLP.part.nonpolar>
-21.2392

> <Gold.PLP.part.repulsive>
0.5041

> <Gold.PLP.ligand.clash>
0.0000

> <Gold.PLP.ligand.torsion>
0.8357

> <Gold.PLP.Chemscore.Hbond>
4.0000

> <Gold.PLP.Chemscore.CHOScore>
1.0000

> <Gold.PLP.Chemscore.Metal>
0.0000

> <Gold.Chemscore.Hbonds>
donor molecule, donor type, donor heavy atom, donor atom, acceptor molecule, acceptor atom, score
      L1  H     3    34       P1 10175  2.00
      L1  H     7    25       P1  7921  0.91
      L1  H     7    26       P1 10171  0.98
      L1  C    12    31       P1  8028  1.00

> <Gold.PLP.Chemscore.Internal.Correction>
0.1953

> <Gold.Rescore>
     Score         DG    S(hbond)    S(metal)    S(lipo)     H(rot)  DE(clash)    DE(int)     intcor
     11.67     -14.20       2.99        0.00      51.42       2.85       0.08       2.45       ----

> <Gold.Chemscore.Fitness>
11.6686

> <Gold.Chemscore.DG>
-14.2009

> <Gold.Chemscore.ZeroCoef>
-5.4800

> <Gold.Chemscore.Hbond>
2.9924

> <Gold.Chemscore.Metal>
0.0000

> <Gold.Chemscore.Lipo>
51.4157

> <Gold.Chemscore.Internal_Hbond>
0.0000

> <Gold.Chemscore.DEClash>
0.0841

> <Gold.Chemscore.DEInternal>
2.4482

> <Gold.Chemscore.Rot>
2.8473

> <Gold.Chemscore.Internal.Correction>
   9.000000E+99

> <Gold.Chemscore.Hbonds>
donor molecule, donor type, donor heavy atom, donor atom, acceptor molecule, acceptor atom, score
      L1  H     3    34       P1 10175  0.94
      L1  H     7    25       P1  7921  0.89
      L1  H     7    26       P1 10171  0.92

> <Gold.Chemscore.Hbond.Weighted>
-9.9944

> <Gold.Chemscore.Metal.Weighted>
-0.0000

> <Gold.Chemscore.Lipo.Weighted>
-6.0156

> <Gold.Chemscore.Internal_Hbond.Weighted>
0.0000

> <Gold.Chemscore.DEClash.Weighted>
0.0841

> <Gold.Chemscore.DEInternal.Weighted>
2.4482

> <Gold.Chemscore.Rot.Weighted>
7.2892

> <Gold.Chemscore.Internal.Correction.Weighted>
   9.000000E+99

> <Gold.Protein.RotatedTorsions>
[ 6907 6896 6895 6894 ] final  -50.91 input  -60.11 | X-H torsion
[ 7974 7965 7964 7962 ] final  174.33 input  175.53 | X-H torsion
[ 8008 7997 7996 7995 ] final  -12.72 input   59.86 | X-H torsion
[ 10167 10162 10161 10158 ] final  -29.20 input  -65.29 | X-H torsion
[ 10718 10713 10712 10709 ] final -126.24 input   66.30 | X-H torsion
[ 10763 10752 10751 10750 ] final   77.50 input  -60.55 | X-H torsion
[ 11005 11000 10999 10996 ] final  -10.51 input  -57.11 | X-H torsion

> <Gold.Protein.ActiveResidues>
 VAL166  LYS551  ARG553  GLY616  TRP617  ASP618  TYR619  PRO620  LYS621  CYS622 
 ASP623  PHE694  ASN695  SER759  ASP760  ASP761  ALA762  ILE779  LEU786  VAL792 
 PHE793  MET794  SER795  GLU796  ALA797  LYS798  CYS799  TRP800  GLU811  SER814 

> <Gold.Protein.RotatedAtoms>
  150.8662  134.8026  159.7120 H   0  0  0  0  0  0  0  0  0  0  0  0  # atno 6907 bound_to 6896
  152.4683  134.5020  159.9737 H   0  0  0  0  0  0  0  0  0  0  0  0  # atno 6908 bound_to 6896
  151.5116  133.3445  159.2921 H   0  0  0  0  0  0  0  0  0  0  0  0  # atno 6909 bound_to 6896
  144.7224  139.9781  143.6438 H   0  0  0  0  0  0  0  0  0  0  0  0  # atno 7974 bound_to 7965
  154.5353  140.2268  155.8733 H   0  0  0  0  0  0  0  0  0  0  0  0  # atno 8008 bound_to 7997
  156.1805  140.3101  155.9103 H   0  0  0  0  0  0  0  0  0  0  0  0  # atno 8009 bound_to 7997
  155.3367  140.0448  157.3034 H   0  0  0  0  0  0  0  0  0  0  0  0  # atno 8010 bound_to 7997
  140.7263  143.3948  151.1367 H   0  0  0  0  0  0  0  0  0  0  0  0  # atno 10167 bound_to 10162
  156.1747  130.6691  151.0226 H   0  0  0  0  0  0  0  0  0  0  0  0  # atno 10718 bound_to 10713
  153.0803  135.4912  154.8489 H   0  0  0  0  0  0  0  0  0  0  0  0  # atno 10763 bound_to 10752
  154.7142  135.3026  154.9152 H   0  0  0  0  0  0  0  0  0  0  0  0  # atno 10764 bound_to 10752
  153.9836  135.6787  153.4804 H   0  0  0  0  0  0  0  0  0  0  0  0  # atno 10765 bound_to 10752
  140.7455  133.8635  155.9002 H   0  0  0  0  0  0  0  0  0  0  0  0  # atno 11005 bound_to 11000
  146.0509  139.3510  143.0640 LP  0  0  0  0  0  0  0  0  0  0  0  0  # atno 17320 bound_to 7965
  145.8216  140.9676  143.0896 LP  0  0  0  0  0  0  0  0  0  0  0  0  # atno 17321 bound_to 7965
  139.7559  143.8708  152.3088 LP  0  0  0  0  0  0  0  0  0  0  0  0  # atno 17342 bound_to 10162
  139.8578  144.7132  150.9136 LP  0  0  0  0  0  0  0  0  0  0  0  0  # atno 17343 bound_to 10162
  157.6827  131.0833  150.7326 LP  0  0  0  0  0  0  0  0  0  0  0  0  # atno 17370 bound_to 10713
  156.7384  130.4731  149.5483 LP  0  0  0  0  0  0  0  0  0  0  0  0  # atno 17371 bound_to 10713
  140.9798  134.1420  157.4504 LP  0  0  0  0  0  0  0  0  0  0  0  0  # atno 17394 bound_to 11000
  139.8797  135.0007  156.6024 LP  0  0  0  0  0  0  0  0  0  0  0  0  # atno 17395 bound_to 11000

$$$$
