AV-unprocessed.smi:786|AV-procd|sdf|3723|dock9
  -GOLD-   22720 1153D 1   1.00000     0.00000
 Structure written by MMmdl.
 38 39  0  0  0  0  0  0  0  0  2 V2000
  155.6452  137.6717  159.0729 O   0  0  0  0  0  0  0  0  0  0  0  0
  154.8363  138.6005  159.8804 S   0  0  0  0  0  0  0  0  0  0  0  0
  153.5119  138.1222  160.3027 O   0  0  0  0  0  0  0  0  0  0  0  0
  155.8056  138.8952  161.4397 C   0  0  0  0  0  0  0  0  0  0  0  0
  155.0850  138.4243  162.7229 C   0  0  0  0  0  0  0  0  0  0  0  0
  156.0051  138.5547  163.9481 C   0  0  0  0  0  0  0  0  0  0  0  0
  155.3123  138.0346  165.2182 C   0  0  0  0  0  0  0  0  0  0  0  0
  154.9067  136.6836  165.0334 O   0  0  0  0  0  0  0  0  0  0  0  0
  153.9587  136.5339  163.9824 C   0  0  0  0  0  0  0  0  0  0  0  0
  154.5800  136.9706  162.6455 C   0  0  0  0  0  0  0  0  0  0  0  0
  154.7325  140.0924  159.2392 N   0  5  0  0  0  0  0  0  0  0  0  0
  154.3687  141.2467  160.0506 C   0  0  0  0  0  0  0  0  0  0  0  0
  152.8323  141.4004  160.1304 C   0  0  0  0  0  0  0  0  0  0  0  0
  152.2952  142.7885  159.7865 C   0  0  0  0  0  0  0  0  0  0  0  0
  152.3500  143.8381  160.7324 C   0  0  0  0  0  0  0  0  0  0  0  0
  151.8571  145.1050  160.3650 C   0  0  0  0  0  0  0  0  0  0  0  0
  151.3356  145.2804  159.0692 C   0  0  0  0  0  0  0  0  0  0  0  0
  151.3295  144.1756  158.1952 C   0  0  0  0  0  0  0  0  0  0  0  0
  151.7979  142.9571  158.5374 N   0  0  0  0  0  0  0  0  0  0  0  0
  156.7621  138.3829  161.3366 H   0  0  0  0  0  0  0  0  0  0  0  0
  156.0365  139.9586  161.4909 H   0  0  0  0  0  0  0  0  0  0  0  0
  154.2278  139.0763  162.8949 H   0  0  0  0  0  0  0  0  0  0  0  0
  156.9243  137.9912  163.7816 H   0  0  0  0  0  0  0  0  0  0  0  0
  156.2993  139.5949  164.0883 H   0  0  0  0  0  0  0  0  0  0  0  0
  155.9966  138.0854  166.0651 H   0  0  0  0  0  0  0  0  0  0  0  0
  154.4478  138.6492  165.4720 H   0  0  0  0  0  0  0  0  0  0  0  0
  153.6547  135.4885  163.9298 H   0  0  0  0  0  0  0  0  0  0  0  0
  153.0616  137.1152  164.2013 H   0  0  0  0  0  0  0  0  0  0  0  0
  153.8418  136.8506  161.8551 H   0  0  0  0  0  0  0  0  0  0  0  0
  155.4074  136.3040  162.3990 H   0  0  0  0  0  0  0  0  0  0  0  0
  154.7643  141.1819  161.0646 H   0  0  0  0  0  0  0  0  0  0  0  0
  154.7894  142.1612  159.6317 H   0  0  0  0  0  0  0  0  0  0  0  0
  152.3727  140.6865  159.4461 H   0  0  0  0  0  0  0  0  0  0  0  0
  152.4838  141.1168  161.1249 H   0  0  0  0  0  0  0  0  0  0  0  0
  152.7570  143.6734  161.7194 H   0  0  0  0  0  0  0  0  0  0  0  0
  151.8781  145.9271  161.0649 H   0  0  0  0  0  0  0  0  0  0  0  0
  150.9465  146.2368  158.7533 H   0  0  0  0  0  0  0  0  0  0  0  0
  150.9345  144.2722  157.1949 H   0  0  0  0  0  0  0  0  0  0  0  0
  1  2  2  0  0  0  0
  2  3  2  0  0  0  0
  2  4  1  0  0  0  0
  2 11  1  0  0  0  0
  4  5  1  0  0  0  0
  4 20  1  0  0  0  0
  4 21  1  0  0  0  0
  5 10  1  0  0  0  0
  5  6  1  0  0  0  0
  5 22  1  0  0  0  0
  6  7  1  0  0  0  0
  6 23  1  0  0  0  0
  6 24  1  0  0  0  0
  7  8  1  0  0  0  0
  7 25  1  0  0  0  0
  7 26  1  0  0  0  0
  8  9  1  0  0  0  0
  9 10  1  0  0  0  0
  9 27  1  0  0  0  0
  9 28  1  0  0  0  0
 10 29  1  0  0  0  0
 10 30  1  0  0  0  0
 11 12  1  0  0  0  0
 12 13  1  0  0  0  0
 12 31  1  0  0  0  0
 12 32  1  0  0  0  0
 13 14  1  0  0  0  0
 13 33  1  0  0  0  0
 13 34  1  0  0  0  0
 14 19  1  0  0  0  0
 14 15  2  0  0  0  0
 15 16  1  0  0  0  0
 15 35  1  0  0  0  0
 16 17  2  0  0  0  0
 16 36  1  0  0  0  0
 17 18  1  0  0  0  0
 17 37  1  0  0  0  0
 18 19  2  0  0  0  0
 18 38  1  0  0  0  0
M  CHG  1  11  -1
M  END
> <s_m_source_file>
AV-unprocessed.smi

> <i_m_source_file_index>
786

> <i_lp_mmshare_version>
43012

> <i_f3d_flags>
0

> <s_epik_input>
W0NIMl0xW0NIMl1PW0NIMl1bQ0gyXVtDSF0xW0NIMl1TKD1PKSg9TylbTkhdW0NIMl1bQ0gyXWMyW2NIXVtjSF1bY0hdW2NIXW4y

> <s_epik_cmdline>
J2VwaWtfcHl0aG9uJywgJy1waCcsICc3LjAnLCAnLXRuJywgJzgnLCAnLW1hJywgJzIwMCcsICctbWV0YWxfYmluZGluZycsICctaW1hZScsICc8aW5maWxlLm1hZT4nLCAnLW9tYWUnLCAnPG91dGZpbGUubWFlPic=

> <r_epik_Ionization_Penalty>
6.60618

> <r_epik_Ionization_Penalty_Charging>
6.53386

> <r_epik_Ionization_Penalty_Neutral>
0.0723214

> <r_epik_State_Penalty>
6.55045

> <r_epik_Charging_Adjusted_Penalty>
13.0843

> <i_epik_Tot_Q>
-1

> <i_epik_Tot_abs_Q>
1

> <r_epik_Metal_State_Penalty>
2.49618

> <b_epik_Metal_Only>
1

> <s_lp_Force_Field>
OPLS_2005

> <r_lp_Energy>
5.55421

> <b_lp_Chiralities_Consistent>
1

> <s_lp_Variant>
AV-unprocessed.smi:786-3

> <Gold.Version>
5.8.1

> <Gold.Id.Protein>
6NUR|6NUR_protein|mol2

> <Gold.PLP.Fitness>
47.5927

> <Gold.PLP.PLP>
-40.4054

> <Gold.PLP.part.hbond>
-1.0000

> <Gold.PLP.part.metal>
0.0000

> <Gold.PLP.part.buried>
-4.7624

> <Gold.PLP.part.nonpolar>
-36.0963

> <Gold.PLP.part.repulsive>
1.7228

> <Gold.PLP.ligand.clash>
0.0000

> <Gold.PLP.ligand.torsion>
1.4276

> <Gold.PLP.Chemscore.Hbond>
2.0000

> <Gold.PLP.Chemscore.CHOScore>
1.0000

> <Gold.PLP.Chemscore.Metal>
0.0000

> <Gold.Chemscore.Hbonds>
donor molecule, donor type, donor heavy atom, donor atom, acceptor molecule, acceptor atom, score
      P1  H  7997  8008       L1    11  1.98
      L1  C    18    38       P1  8028  0.90

> <Gold.PLP.Chemscore.Internal.Correction>
1.0425

> <Gold.Rescore>
     Score         DG    S(hbond)    S(metal)    S(lipo)     H(rot)  DE(clash)    DE(int)     intcor
     14.57     -18.41       0.92        0.00     118.76       1.57       1.09       2.75       ----

> <Gold.Chemscore.Fitness>
14.5712

> <Gold.Chemscore.DG>
-18.4097

> <Gold.Chemscore.ZeroCoef>
-5.4800

> <Gold.Chemscore.Hbond>
0.9174

> <Gold.Chemscore.Metal>
0.0000

> <Gold.Chemscore.Lipo>
118.7584

> <Gold.Chemscore.Internal_Hbond>
0.0000

> <Gold.Chemscore.DEClash>
1.0933

> <Gold.Chemscore.DEInternal>
2.7452

> <Gold.Chemscore.Rot>
1.5740

> <Gold.Chemscore.Internal.Correction>
   9.000000E+99

> <Gold.Chemscore.Hbonds>
donor molecule, donor type, donor heavy atom, donor atom, acceptor molecule, acceptor atom, score
      P1  H  7997  8008       L1    11  0.70

> <Gold.Chemscore.Hbond.Weighted>
-3.0643

> <Gold.Chemscore.Metal.Weighted>
-0.0000

> <Gold.Chemscore.Lipo.Weighted>
-13.8947

> <Gold.Chemscore.Internal_Hbond.Weighted>
0.0000

> <Gold.Chemscore.DEClash.Weighted>
1.0933

> <Gold.Chemscore.DEInternal.Weighted>
2.7452

> <Gold.Chemscore.Rot.Weighted>
4.0293

> <Gold.Chemscore.Internal.Correction.Weighted>
   9.000000E+99

> <Gold.Protein.RotatedTorsions>
[ 6907 6896 6895 6894 ] final  106.52 input  -60.11 | X-H torsion
[ 7974 7965 7964 7962 ] final -106.98 input  175.53 | X-H torsion
[ 8008 7997 7996 7995 ] final -121.55 input   59.86 | X-H torsion
[ 10167 10162 10161 10158 ] final   10.30 input  -65.29 | X-H torsion
[ 10718 10713 10712 10709 ] final   89.55 input   66.30 | X-H torsion
[ 10763 10752 10751 10750 ] final  110.26 input  -60.55 | X-H torsion
[ 11005 11000 10999 10996 ] final  -72.88 input  -57.11 | X-H torsion

> <Gold.Protein.ActiveResidues>
 VAL166  LYS551  ARG553  GLY616  TRP617  ASP618  TYR619  PRO620  LYS621  CYS622 
 ASP623  PHE694  ASN695  SER759  ASP760  ASP761  ALA762  ILE779  LEU786  VAL792 
 PHE793  MET794  SER795  GLU796  ALA797  LYS798  CYS799  TRP800  GLU811  SER814 

> <Gold.Protein.RotatedAtoms>
  152.5190  133.9369  159.7607 H   0  0  0  0  0  0  0  0  0  0  0  0  # atno 6907 bound_to 6896
  150.9707  133.6338  159.2745 H   0  0  0  0  0  0  0  0  0  0  0  0  # atno 6908 bound_to 6896
  151.3551  135.0898  159.9469 H   0  0  0  0  0  0  0  0  0  0  0  0  # atno 6909 bound_to 6896
  145.2110  140.9096  143.3314 H   0  0  0  0  0  0  0  0  0  0  0  0  # atno 7974 bound_to 7965
  155.1498  140.0403  157.2818 H   0  0  0  0  0  0  0  0  0  0  0  0  # atno 8008 bound_to 7997
  154.6412  140.2547  155.7293 H   0  0  0  0  0  0  0  0  0  0  0  0  # atno 8009 bound_to 7997
  156.2533  140.2855  156.0807 H   0  0  0  0  0  0  0  0  0  0  0  0  # atno 8010 bound_to 7997
  140.6203  143.8220  150.7166 H   0  0  0  0  0  0  0  0  0  0  0  0  # atno 10167 bound_to 10162
  157.6956  131.0337  150.3443 H   0  0  0  0  0  0  0  0  0  0  0  0  # atno 10718 bound_to 10713
  153.4465  135.3754  155.2259 H   0  0  0  0  0  0  0  0  0  0  0  0  # atno 10763 bound_to 10752
  154.8755  135.3875  154.4090 H   0  0  0  0  0  0  0  0  0  0  0  0  # atno 10764 bound_to 10752
  153.4643  135.7087  153.6095 H   0  0  0  0  0  0  0  0  0  0  0  0  # atno 10765 bound_to 10752
  141.1615  133.6860  156.7127 H   0  0  0  0  0  0  0  0  0  0  0  0  # atno 11005 bound_to 11000
  144.9856  139.3740  143.6240 LP  0  0  0  0  0  0  0  0  0  0  0  0  # atno 17320 bound_to 7965
  146.3397  139.9016  142.8793 LP  0  0  0  0  0  0  0  0  0  0  0  0  # atno 17321 bound_to 7965
  140.1808  143.4116  152.1934 LP  0  0  0  0  0  0  0  0  0  0  0  0  # atno 17342 bound_to 10162
  139.5433  144.7276  151.4665 LP  0  0  0  0  0  0  0  0  0  0  0  0  # atno 17343 bound_to 10162
  156.3900  130.3896  149.7037 LP  0  0  0  0  0  0  0  0  0  0  0  0  # atno 17370 bound_to 10713
  156.4390  130.7852  151.2873 LP  0  0  0  0  0  0  0  0  0  0  0  0  # atno 17371 bound_to 10713
  140.2875  134.8267  157.3988 LP  0  0  0  0  0  0  0  0  0  0  0  0  # atno 17394 bound_to 11000
  140.1377  134.5013  155.8056 LP  0  0  0  0  0  0  0  0  0  0  0  0  # atno 17395 bound_to 11000

$$$$
