AV-unprocessed.smi:1|AV-procd|sdf|10|dock10
  -GOLD-   2262015103D 1   1.00000     0.00000
 Structure written by MMmdl.
 57 62  0  0  0  0  0  0  0  0  1 V2000
  151.0108  140.8228  155.4947 O   0  0  0  0  0  0  0  0  0  0  0  0
  150.9251  140.7326  156.7224 C   0  0  0  0  0  0  0  0  0  0  0  0
  150.3779  139.7090  157.4842 N   0  0  0  0  0  0  0  0  0  0  0  0
  149.8572  138.6710  156.9034 C   0  0  0  0  0  0  0  0  0  0  0  0
  149.6956  138.3196  155.5572 N   0  0  0  0  0  0  0  0  0  0  0  0
  149.1047  137.1397  155.0797 C   0  0  0  0  0  0  0  0  0  0  0  0
  148.6207  136.1887  155.8333 N   0  0  0  0  0  0  0  0  0  0  0  0
  148.7713  136.4807  157.1816 C   0  0  0  0  0  0  0  0  0  0  0  0
  149.3238  137.5979  157.7687 C   0  0  0  0  0  0  0  0  0  0  0  0
  149.3024  137.4884  159.1531 N   0  0  0  0  0  0  0  0  0  0  0  0
  148.7405  136.2981  159.3415 C   0  0  0  0  0  0  0  0  0  0  0  0
  148.3892  135.6343  158.2185 N   0  0  0  0  0  0  0  0  0  0  0  0
  147.7372  134.2880  158.0604 C   0  0  1  0  0  0  0  0  0  0  0  0
  147.6045  134.0573  156.6884 O   0  0  0  0  0  0  0  0  0  0  0  0
  148.5947  133.1400  156.2238 C   0  0  1  0  0  0  0  0  0  0  0  0
  149.3088  133.6341  154.9551 C   0  0  0  0  0  0  0  0  0  0  0  0
  148.4772  133.5587  153.8035 O   0  0  0  0  0  0  0  0  0  0  0  0
  148.0409  132.3636  153.3441 C   0  0  0  0  0  0  0  0  0  0  0  0
  148.5009  131.2795  153.7074 O   0  0  0  0  0  0  0  0  0  0  0  0
  146.9356  132.4894  152.3523 C   0  0  0  0  0  0  0  0  0  0  0  0
  146.1795  131.3441  152.0106 C   0  0  0  0  0  0  0  0  0  0  0  0
  145.1191  131.4334  151.0885 C   0  0  0  0  0  0  0  0  0  0  0  0
  144.7994  132.6709  150.5003 C   0  0  0  0  0  0  0  0  0  0  0  0
  145.5444  133.8174  150.8317 C   0  0  0  0  0  0  0  0  0  0  0  0
  146.6091  133.7288  151.7493 C   0  0  0  0  0  0  0  0  0  0  0  0
  149.5043  132.8074  157.4142 C   0  0  2  0  0  0  0  0  0  0  0  0
  149.8063  131.4227  157.4859 O   0  0  0  0  0  0  0  0  0  0  0  0
  148.6312  130.6652  158.4058 S   0  0  0  0  0  0  0  0  0  0  0  0
  147.7565  129.8992  157.5048 O   0  0  0  0  0  0  0  0  0  0  0  0
  149.2842  130.0631  159.5781 O   0  0  0  0  0  0  0  0  0  0  0  0
  147.8042  132.0269  158.9070 O   0  0  0  0  0  0  0  0  0  0  0  0
  148.6071  133.1530  158.6074 C   0  0  2  0  0  0  0  0  0  0  0  0
  151.4937  141.8406  157.5471 C   0  0  0  0  0  0  0  0  0  0  0  0
  152.2117  141.5484  158.7260 C   0  0  0  0  0  0  0  0  0  0  0  0
  152.7568  142.5932  159.4977 C   0  0  0  0  0  0  0  0  0  0  0  0
  152.5899  143.9314  159.0911 C   0  0  0  0  0  0  0  0  0  0  0  0
  151.8753  144.2257  157.9135 C   0  0  0  0  0  0  0  0  0  0  0  0
  151.3271  143.1821  157.1426 C   0  0  0  0  0  0  0  0  0  0  0  0
  149.0742  137.0681  153.9917 H   0  0  0  0  0  0  0  0  0  0  0  0
  148.5930  135.9098  160.3373 H   0  0  0  0  0  0  0  0  0  0  0  0
  146.7749  134.3951  158.5621 H   0  0  0  0  0  0  0  0  0  0  0  0
  148.0404  132.2403  155.9550 H   0  0  0  0  0  0  0  0  0  0  0  0
  149.5921  134.6778  155.0916 H   0  0  0  0  0  0  0  0  0  0  0  0
  150.2419  133.0881  154.8094 H   0  0  0  0  0  0  0  0  0  0  0  0
  146.4004  130.3853  152.4570 H   0  0  0  0  0  0  0  0  0  0  0  0
  144.5452  130.5531  150.8393 H   0  0  0  0  0  0  0  0  0  0  0  0
  143.9822  132.7415  149.7977 H   0  0  0  0  0  0  0  0  0  0  0  0
  145.2973  134.7684  150.3831 H   0  0  0  0  0  0  0  0  0  0  0  0
  147.1557  134.6291  151.9876 H   0  0  0  0  0  0  0  0  0  0  0  0
  150.4103  133.4138  157.4153 H   0  0  0  0  0  0  0  0  0  0  0  0
  149.1470  133.4319  159.5118 H   0  0  0  0  0  0  0  0  0  0  0  0
  152.3473  140.5240  159.0422 H   0  0  0  0  0  0  0  0  0  0  0  0
  153.3047  142.3679  160.4007 H   0  0  0  0  0  0  0  0  0  0  0  0
  153.0099  144.7316  159.6825 H   0  0  0  0  0  0  0  0  0  0  0  0
  151.7477  145.2518  157.6015 H   0  0  0  0  0  0  0  0  0  0  0  0
  150.7809  143.4158  156.2404 H   0  0  0  0  0  0  0  0  0  0  0  0
  150.0334  138.9765  154.8688 H   0  0  0  0  0  0  0  0  0  0  0  0
  1  2  2  0  0  0  0
  2  3  1  0  0  0  0
  2 33  1  0  0  0  0
  3  4  2  0  0  0  0
  4  9  1  0  0  0  0
  4  5  1  0  0  0  0
  5  6  1  0  0  0  0
  5 57  1  0  0  0  0
  6  7  2  0  0  0  0
  6 39  1  0  0  0  0
  7  8  1  0  0  0  0
  8 12  1  0  0  0  0
  8  9  2  0  0  0  0
  9 10  1  0  0  0  0
 10 11  2  0  0  0  0
 11 12  1  0  0  0  0
 11 40  1  0  0  0  0
 12 13  1  0  0  0  0
 13 32  1  0  0  0  0
 13 14  1  0  0  0  0
 13 41  1  0  0  0  0
 14 15  1  0  0  0  0
 15 16  1  0  0  0  0
 15 26  1  0  0  0  0
 15 42  1  0  0  0  0
 16 17  1  0  0  0  0
 16 43  1  0  0  0  0
 16 44  1  0  0  0  0
 17 18  1  0  0  0  0
 18 19  2  0  0  0  0
 18 20  1  0  0  0  0
 20 25  1  0  0  0  0
 20 21  2  0  0  0  0
 21 22  1  0  0  0  0
 21 45  1  0  0  0  0
 22 23  2  0  0  0  0
 22 46  1  0  0  0  0
 23 24  1  0  0  0  0
 23 47  1  0  0  0  0
 24 25  2  0  0  0  0
 24 48  1  0  0  0  0
 25 49  1  0  0  0  0
 26 32  1  0  0  0  0
 26 27  1  0  0  0  0
 26 50  1  0  0  0  0
 27 28  1  0  0  0  0
 28 29  2  0  0  0  0
 28 30  2  0  0  0  0
 28 31  1  0  0  0  0
 31 32  1  0  0  0  0
 32 51  1  0  0  0  0
 33 38  1  0  0  0  0
 33 34  2  0  0  0  0
 34 35  1  0  0  0  0
 34 52  1  0  0  0  0
 35 36  2  0  0  0  0
 35 53  1  0  0  0  0
 36 37  1  0  0  0  0
 36 54  1  0  0  0  0
 37 38  2  0  0  0  0
 37 55  1  0  0  0  0
 38 56  1  0  0  0  0
M  END
> <s_m_source_file>
AV-unprocessed.smi

> <i_m_source_file_index>
1

> <i_lp_mmshare_version>
43012

> <i_f3d_flags>
0

> <s_epik_input>
W2NIXTFbY0hdW2NIXVtjSF1bY0hdYzFDKD1PKVtOSF1jKG5bY0hdbjIpYyhjMjMpbltjSF1uM1tDQEBIXShbQ0BIXShbQ0BIXTQ1KU9TKE81KSg9Tyk9TylPW0NASF00W0NIMl1PQyg9TyljNltjSF1bY0hdW2NIXVtjSF1bY0hdNg==

> <s_epik_cmdline>
J2VwaWtfcHl0aG9uJywgJy1waCcsICc3LjAnLCAnLXRuJywgJzgnLCAnLW1hJywgJzIwMCcsICctbWV0YWxfYmluZGluZycsICctaW1hZScsICc8aW5maWxlLm1hZT4nLCAnLW9tYWUnLCAnPG91dGZpbGUubWFlPic=

> <r_epik_Ionization_Penalty>
0.122545

> <r_epik_Ionization_Penalty_Charging>
0.122545

> <r_epik_Ionization_Penalty_Neutral>
7.8935e-16

> <r_epik_State_Penalty>
2.69178

> <r_epik_Charging_Adjusted_Penalty>
2.81433

> <i_epik_Tot_Q>
0

> <i_epik_Tot_abs_Q>
0

> <r_epik_Metal_State_Penalty>
3.02665

> <b_epik_Metal_Only>
0

> <s_epik_Chemistry_Notes>
This compound has an ester and may undergo hydrolysis at high or low pH. This compound contains an acetal/aminal-like group ( X-CH(R)-Y where X, Y are N, S, or O) that may be acid/base labile, releasing an aldehyde.

> <s_lp_Force_Field>
OPLS_2005

> <r_lp_Energy>
55.0636

> <b_lp_Chiralities_Consistent>
1

> <s_lp_Variant>
AV-unprocessed.smi:1-10

> <Gold.Version>
5.8.1

> <Gold.Id.Protein>
6NUR|6NUR_protein|mol2

> <Gold.PLP.Fitness>
51.5568

> <Gold.PLP.PLP>
-48.4125

> <Gold.PLP.part.hbond>
-1.1016

> <Gold.PLP.part.metal>
0.0000

> <Gold.PLP.part.buried>
-7.3953

> <Gold.PLP.part.nonpolar>
-40.4850

> <Gold.PLP.part.repulsive>
0.3503

> <Gold.PLP.ligand.clash>
0.0000

> <Gold.PLP.ligand.torsion>
0.9932

> <Gold.PLP.Chemscore.Hbond>
0.6864

> <Gold.PLP.Chemscore.CHOScore>
1.0000

> <Gold.PLP.Chemscore.Metal>
0.0000

> <Gold.Chemscore.Hbonds>
donor molecule, donor type, donor heavy atom, donor atom, acceptor molecule, acceptor atom, score
      P1  H  7989  7998       L1     1  0.67
      L1  C     6    39       P1  7948  1.00

> <Gold.PLP.Chemscore.Internal.Correction>
0.0715

> <Gold.Rescore>
     Score         DG    S(hbond)    S(metal)    S(lipo)     H(rot)  DE(clash)    DE(int)     intcor
     13.11     -17.36       0.73        0.00     127.28       2.13       0.10       4.15       ----

> <Gold.Chemscore.Fitness>
13.1117

> <Gold.Chemscore.DG>
-17.3649

> <Gold.Chemscore.ZeroCoef>
-5.4800

> <Gold.Chemscore.Hbond>
0.7350

> <Gold.Chemscore.Metal>
0.0000

> <Gold.Chemscore.Lipo>
127.2770

> <Gold.Chemscore.Internal_Hbond>
0.0000

> <Gold.Chemscore.DEClash>
0.1004

> <Gold.Chemscore.DEInternal>
4.1528

> <Gold.Chemscore.Rot>
2.1333

> <Gold.Chemscore.Internal.Correction>
   9.000000E+99

> <Gold.Chemscore.Hbonds>
donor molecule, donor type, donor heavy atom, donor atom, acceptor molecule, acceptor atom, score
      P1  H  7989  7998       L1     1  0.66

> <Gold.Chemscore.Hbond.Weighted>
-2.4548

> <Gold.Chemscore.Metal.Weighted>
-0.0000

> <Gold.Chemscore.Lipo.Weighted>
-14.8914

> <Gold.Chemscore.Internal_Hbond.Weighted>
0.0000

> <Gold.Chemscore.DEClash.Weighted>
0.1004

> <Gold.Chemscore.DEInternal.Weighted>
4.1528

> <Gold.Chemscore.Rot.Weighted>
5.4614

> <Gold.Chemscore.Internal.Correction.Weighted>
   9.000000E+99

> <Gold.Protein.RotatedTorsions>
[ 6907 6896 6895 6894 ] final  151.75 input  -60.11 | X-H torsion
[ 7974 7965 7964 7962 ] final -132.50 input  175.53 | X-H torsion
[ 8008 7997 7996 7995 ] final    7.82 input   59.86 | X-H torsion
[ 10167 10162 10161 10158 ] final -136.73 input  -65.29 | X-H torsion
[ 10718 10713 10712 10709 ] final   31.35 input   66.30 | X-H torsion
[ 10763 10752 10751 10750 ] final  -68.84 input  -60.55 | X-H torsion
[ 11005 11000 10999 10996 ] final -123.13 input  -57.11 | X-H torsion

> <Gold.Protein.ActiveResidues>
 VAL166  LYS551  ARG553  GLY616  TRP617  ASP618  TYR619  PRO620  LYS621  CYS622 
 ASP623  PHE694  ASN695  SER759  ASP760  ASP761  ALA762  ILE779  LEU786  VAL792 
 PHE793  MET794  SER795  GLU796  ALA797  LYS798  CYS799  TRP800  GLU811  SER814 

> <Gold.Protein.RotatedAtoms>
  152.0963  133.4226  159.4566 H   0  0  0  0  0  0  0  0  0  0  0  0  # atno 6907 bound_to 6896
  150.6863  134.2813  159.4637 H   0  0  0  0  0  0  0  0  0  0  0  0  # atno 6908 bound_to 6896
  152.0669  134.9558  160.0625 H   0  0  0  0  0  0  0  0  0  0  0  0  # atno 6909 bound_to 6896
  144.9280  140.7094  143.4924 H   0  0  0  0  0  0  0  0  0  0  0  0  # atno 7974 bound_to 7965
  154.7588  140.2780  155.6231 H   0  0  0  0  0  0  0  0  0  0  0  0  # atno 8008 bound_to 7997
  156.2911  140.2664  156.2288 H   0  0  0  0  0  0  0  0  0  0  0  0  # atno 8009 bound_to 7997
  155.0044  140.0372  157.2363 H   0  0  0  0  0  0  0  0  0  0  0  0  # atno 8010 bound_to 7997
  139.8648  143.7031  152.2646 H   0  0  0  0  0  0  0  0  0  0  0  0  # atno 10167 bound_to 10162
  157.2713  130.7209  149.6506 H   0  0  0  0  0  0  0  0  0  0  0  0  # atno 10718 bound_to 10713
  154.3949  135.6044  153.5864 H   0  0  0  0  0  0  0  0  0  0  0  0  # atno 10763 bound_to 10752
  152.9787  135.5892  154.4254 H   0  0  0  0  0  0  0  0  0  0  0  0  # atno 10764 bound_to 10752
  154.4044  135.2843  155.2055 H   0  0  0  0  0  0  0  0  0  0  0  0  # atno 10765 bound_to 10752
  140.9942  134.0495  157.3617 H   0  0  0  0  0  0  0  0  0  0  0  0  # atno 11005 bound_to 11000
  145.3188  139.1795  143.4599 LP  0  0  0  0  0  0  0  0  0  0  0  0  # atno 17320 bound_to 7965
  146.3234  140.3202  142.8633 LP  0  0  0  0  0  0  0  0  0  0  0  0  # atno 17321 bound_to 7965
  139.7339  144.7576  151.0758 LP  0  0  0  0  0  0  0  0  0  0  0  0  # atno 17342 bound_to 10162
  140.7770  143.5054  150.9719 LP  0  0  0  0  0  0  0  0  0  0  0  0  # atno 17343 bound_to 10162
  155.9663  130.4366  150.5143 LP  0  0  0  0  0  0  0  0  0  0  0  0  # atno 17370 bound_to 10713
  157.3068  131.0656  151.2029 LP  0  0  0  0  0  0  0  0  0  0  0  0  # atno 17371 bound_to 10713
  139.9007  135.0163  156.7252 LP  0  0  0  0  0  0  0  0  0  0  0  0  # atno 17394 bound_to 11000
  140.6992  133.9321  155.8014 LP  0  0  0  0  0  0  0  0  0  0  0  0  # atno 17395 bound_to 11000

$$$$
