AV-unprocessed.smi:2774|AV-procd|sdf|10685|dock3
  -GOLD-   2272015133D 1   1.00000     0.00000
 Structure written by MMmdl.
 34 35  0  0  0  0  0  0  0  0  1 V2000
  148.8417  141.2452  154.7959 O   0  0  0  0  0  0  0  0  0  0  0  0
  150.0750  141.1427  155.4764 C   0  0  1  0  0  0  0  0  0  0  0  0
  149.8379  141.5154  156.9512 C   0  0  0  0  0  0  0  0  0  0  0  0
  151.0949  141.5715  157.7003 N   0  0  0  0  0  0  0  0  0  0  0  0
  151.1558  142.5751  158.7669 C   0  0  2  0  0  0  0  0  0  0  0  0
  150.9985  143.9756  158.1429 C   0  0  0  0  0  0  0  0  0  0  0  0
  150.9377  145.0965  159.1920 C   0  0  0  0  0  0  0  0  0  0  0  0
  152.2215  145.1794  160.0265 C   0  0  0  0  0  0  0  0  0  0  0  0
  152.4853  143.6521  160.9643 S   0  0  0  0  0  0  0  0  0  0  0  0
  152.4611  142.4707  159.5869 C   0  0  0  0  0  0  0  0  0  0  0  0
  150.6953  139.7619  155.3167 C   0  0  0  0  0  0  0  0  0  0  0  0
  152.0335  139.5262  155.6966 C   0  0  0  0  0  0  0  0  0  0  0  0
  152.5620  138.2301  155.5336 C   0  0  0  0  0  0  0  0  0  0  0  0
  151.8526  137.1973  155.0302 N   0  0  0  0  0  0  0  0  0  0  0  0
  150.5719  137.4279  154.6697 C   0  0  0  0  0  0  0  0  0  0  0  0
  149.9484  138.6856  154.7910 C   0  0  0  0  0  0  0  0  0  0  0  0
  148.8458  142.0434  154.2901 H   0  0  0  0  0  0  0  0  0  0  0  0
  150.7419  141.8803  155.0276 H   0  0  0  0  0  0  0  0  0  0  0  0
  149.3432  142.4863  156.9999 H   0  0  0  0  0  0  0  0  0  0  0  0
  149.1540  140.7934  157.3963 H   0  0  0  0  0  0  0  0  0  0  0  0
  151.8652  141.7176  157.0558 H   0  0  0  0  0  0  0  0  0  0  0  0
  150.3136  142.4152  159.4417 H   0  0  0  0  0  0  0  0  0  0  0  0
  151.8195  144.1685  157.4506 H   0  0  0  0  0  0  0  0  0  0  0  0
  150.0853  144.0076  157.5470 H   0  0  0  0  0  0  0  0  0  0  0  0
  150.7744  146.0501  158.6897 H   0  0  0  0  0  0  0  0  0  0  0  0
  150.0794  144.9449  159.8475 H   0  0  0  0  0  0  0  0  0  0  0  0
  153.0842  145.3567  159.3833 H   0  0  0  0  0  0  0  0  0  0  0  0
  152.1654  146.0143  160.7252 H   0  0  0  0  0  0  0  0  0  0  0  0
  152.5816  141.4798  160.0224 H   0  0  0  0  0  0  0  0  0  0  0  0
  153.3288  142.6485  158.9504 H   0  0  0  0  0  0  0  0  0  0  0  0
  152.6439  140.3170  156.1073 H   0  0  0  0  0  0  0  0  0  0  0  0
  153.5824  138.0174  155.8159 H   0  0  0  0  0  0  0  0  0  0  0  0
  150.0269  136.5846  154.2723 H   0  0  0  0  0  0  0  0  0  0  0  0
  148.9195  138.8178  154.4896 H   0  0  0  0  0  0  0  0  0  0  0  0
  1  2  1  0  0  0  0
  1 17  1  0  0  0  0
  2  3  1  0  0  0  0
  2 11  1  0  0  0  0
  2 18  1  0  0  0  0
  3  4  1  0  0  0  0
  3 19  1  0  0  0  0
  3 20  1  0  0  0  0
  4  5  1  0  0  0  0
  4 21  1  0  0  0  0
  5 10  1  0  0  0  0
  5  6  1  0  0  0  0
  5 22  1  0  0  0  0
  6  7  1  0  0  0  0
  6 23  1  0  0  0  0
  6 24  1  0  0  0  0
  7  8  1  0  0  0  0
  7 25  1  0  0  0  0
  7 26  1  0  0  0  0
  8  9  1  0  0  0  0
  8 27  1  0  0  0  0
  8 28  1  0  0  0  0
  9 10  1  0  0  0  0
 10 29  1  0  0  0  0
 10 30  1  0  0  0  0
 11 16  1  0  0  0  0
 11 12  2  0  0  0  0
 12 13  1  0  0  0  0
 12 31  1  0  0  0  0
 13 14  2  0  0  0  0
 13 32  1  0  0  0  0
 14 15  1  0  0  0  0
 15 16  2  0  0  0  0
 15 33  1  0  0  0  0
 16 34  1  0  0  0  0
M  END
> <s_m_source_file>
AV-unprocessed.smi

> <i_m_source_file_index>
2774

> <i_lp_mmshare_version>
43012

> <i_f3d_flags>
0

> <s_epik_input>
W2NIXTFbY0hdbltjSF1bY0hdYzFbQ0BIXShbT0hdKVtDSDJdW05IXVtDQEBIXTJbQ0gyXVtDSDJdW0NIMl1TW0NIMl0y

> <s_epik_cmdline>
J2VwaWtfcHl0aG9uJywgJy1waCcsICc3LjAnLCAnLXRuJywgJzgnLCAnLW1hJywgJzIwMCcsICctbWV0YWxfYmluZGluZycsICctaW1hZScsICc8aW5maWxlLm1hZT4nLCAnLW9tYWUnLCAnPG91dGZpbGUubWFlPic=

> <r_epik_Ionization_Penalty>
2.08116

> <r_epik_Ionization_Penalty_Charging>
0

> <r_epik_Ionization_Penalty_Neutral>
2.08116

> <r_epik_State_Penalty>
2.1944

> <r_epik_Charging_Adjusted_Penalty>
2.1944

> <i_epik_Tot_Q>
0

> <i_epik_Tot_abs_Q>
0

> <r_epik_Metal_State_Penalty>
2.1769

> <b_epik_Metal_Only>
0

> <s_lp_Force_Field>
OPLS_2005

> <r_lp_Energy>
10.4712

> <b_lp_Chiralities_Consistent>
1

> <s_lp_Variant>
AV-unprocessed.smi:2774-6

> <Gold.Version>
5.8.1

> <Gold.Id.Protein>
6NUR|6NUR_protein|mol2

> <Gold.PLP.Fitness>
43.8239

> <Gold.PLP.PLP>
-39.0650

> <Gold.PLP.part.hbond>
-1.0000

> <Gold.PLP.part.metal>
0.0000

> <Gold.PLP.part.buried>
-4.9507

> <Gold.PLP.part.nonpolar>
-34.1884

> <Gold.PLP.part.repulsive>
0.1059

> <Gold.PLP.ligand.clash>
0.0000

> <Gold.PLP.ligand.torsion>
0.4826

> <Gold.PLP.Chemscore.Hbond>
0.8800

> <Gold.PLP.Chemscore.CHOScore>
1.0147

> <Gold.PLP.Chemscore.Metal>
0.0000

> <Gold.Chemscore.Hbonds>
donor molecule, donor type, donor heavy atom, donor atom, acceptor molecule, acceptor atom, score
      P1  H 10752 10765       L1    14  0.99
      L1  C    15    33       P1  7948  0.75

> <Gold.PLP.Chemscore.Internal.Correction>
0.0400

> <Gold.Rescore>
     Score         DG    S(hbond)    S(metal)    S(lipo)     H(rot)  DE(clash)    DE(int)     intcor
     15.54     -17.11       0.85        0.00     116.49       1.89       0.04       1.53       ----

> <Gold.Chemscore.Fitness>
15.5361

> <Gold.Chemscore.DG>
-17.1063

> <Gold.Chemscore.ZeroCoef>
-5.4800

> <Gold.Chemscore.Hbond>
0.8509

> <Gold.Chemscore.Metal>
0.0000

> <Gold.Chemscore.Lipo>
116.4928

> <Gold.Chemscore.Internal_Hbond>
0.0000

> <Gold.Chemscore.DEClash>
0.0421

> <Gold.Chemscore.DEInternal>
1.5280

> <Gold.Chemscore.Rot>
1.8928

> <Gold.Chemscore.Internal.Correction>
   9.000000E+99

> <Gold.Chemscore.Hbonds>
donor molecule, donor type, donor heavy atom, donor atom, acceptor molecule, acceptor atom, score
      P1  H 10752 10765       L1    14  0.80

> <Gold.Chemscore.Hbond.Weighted>
-2.8422

> <Gold.Chemscore.Metal.Weighted>
-0.0000

> <Gold.Chemscore.Lipo.Weighted>
-13.6297

> <Gold.Chemscore.Internal_Hbond.Weighted>
0.0000

> <Gold.Chemscore.DEClash.Weighted>
0.0421

> <Gold.Chemscore.DEInternal.Weighted>
1.5280

> <Gold.Chemscore.Rot.Weighted>
4.8455

> <Gold.Chemscore.Internal.Correction.Weighted>
   9.000000E+99

> <Gold.Protein.RotatedTorsions>
[ 6907 6896 6895 6894 ] final  -96.49 input  -60.11 | X-H torsion
[ 7974 7965 7964 7962 ] final -110.95 input  175.53 | X-H torsion
[ 8008 7997 7996 7995 ] final  142.86 input   59.86 | X-H torsion
[ 10167 10162 10161 10158 ] final  -83.60 input  -65.29 | X-H torsion
[ 10718 10713 10712 10709 ] final  -46.27 input   66.30 | X-H torsion
[ 10763 10752 10751 10750 ] final  172.89 input  -60.55 | X-H torsion
[ 11005 11000 10999 10996 ] final -128.30 input  -57.11 | X-H torsion

> <Gold.Protein.ActiveResidues>
 VAL166  LYS551  ARG553  GLY616  TRP617  ASP618  TYR619  PRO620  LYS621  CYS622 
 ASP623  PHE694  ASN695  SER759  ASP760  ASP761  ALA762  ILE779  LEU786  VAL792 
 PHE793  MET794  SER795  GLU796  ALA797  LYS798  CYS799  TRP800  GLU811  SER814 

> <Gold.Protein.RotatedAtoms>
  150.6990  134.1494  159.4134 H   0  0  0  0  0  0  0  0  0  0  0  0  # atno 6907 bound_to 6896
  151.9477  135.0181  160.0549 H   0  0  0  0  0  0  0  0  0  0  0  0  # atno 6908 bound_to 6896
  152.2038  133.4825  159.5109 H   0  0  0  0  0  0  0  0  0  0  0  0  # atno 6909 bound_to 6896
  145.1621  140.8883  143.3585 H   0  0  0  0  0  0  0  0  0  0  0  0  # atno 7974 bound_to 7965
  156.2941  140.2277  156.4796 H   0  0  0  0  0  0  0  0  0  0  0  0  # atno 8008 bound_to 7997
  154.7864  140.0457  157.1188 H   0  0  0  0  0  0  0  0  0  0  0  0  # atno 8009 bound_to 7997
  154.9697  140.3065  155.4997 H   0  0  0  0  0  0  0  0  0  0  0  0  # atno 8010 bound_to 7997
  140.4211  143.2584  151.8888 H   0  0  0  0  0  0  0  0  0  0  0  0  # atno 10167 bound_to 10162
  156.2200  130.4165  149.9005 H   0  0  0  0  0  0  0  0  0  0  0  0  # atno 10718 bound_to 10713
  154.4324  135.2760  155.1903 H   0  0  0  0  0  0  0  0  0  0  0  0  # atno 10763 bound_to 10752
  154.3804  135.6089  153.5791 H   0  0  0  0  0  0  0  0  0  0  0  0  # atno 10764 bound_to 10752
  152.9837  135.5879  154.4638 H   0  0  0  0  0  0  0  0  0  0  0  0  # atno 10765 bound_to 10752
  140.9527  134.1043  157.4046 H   0  0  0  0  0  0  0  0  0  0  0  0  # atno 11005 bound_to 11000
  145.0320  139.3332  143.6019 LP  0  0  0  0  0  0  0  0  0  0  0  0  # atno 17320 bound_to 7965
  146.3481  139.9662  142.8711 LP  0  0  0  0  0  0  0  0  0  0  0  0  # atno 17321 bound_to 7965
  139.4782  144.5436  151.8491 LP  0  0  0  0  0  0  0  0  0  0  0  0  # atno 17342 bound_to 10162
  140.4532  144.1825  150.5899 LP  0  0  0  0  0  0  0  0  0  0  0  0  # atno 17343 bound_to 10162
  156.6655  130.8799  151.3554 LP  0  0  0  0  0  0  0  0  0  0  0  0  # atno 17370 bound_to 10713
  157.7082  130.9410  150.1001 LP  0  0  0  0  0  0  0  0  0  0  0  0  # atno 17371 bound_to 10713
  139.8852  135.0070  156.6423 LP  0  0  0  0  0  0  0  0  0  0  0  0  # atno 17394 bound_to 11000
  140.7579  133.8842  155.8396 LP  0  0  0  0  0  0  0  0  0  0  0  0  # atno 17395 bound_to 11000

$$$$
