AV-unprocessed.smi:1005|AV-procd|sdf|4383|dock2
  -GOLD-   22720 2303D 1   1.00000     0.00000
 Structure written by MMmdl.
 58 60  0  0  0  0  0  0  0  0  4 V2000
  152.5830  143.4558  160.7583 C   0  0  0  0  0  0  0  0  0  0  0  0
  152.3207  142.5358  159.5780 C   0  0  0  0  0  0  0  0  0  0  0  0
  151.3512  142.9207  158.6249 C   0  0  0  0  0  0  0  0  0  0  0  0
  151.1350  142.0593  157.5561 C   0  0  0  0  0  0  0  0  0  0  0  0
  150.2648  142.1543  156.4686 N   0  3  0  0  0  0  0  0  0  0  0  0
  150.4112  141.0598  155.6721 C   0  0  0  0  0  0  0  0  0  0  0  0
  151.3634  140.2657  156.2337 N   0  0  0  0  0  0  0  0  0  0  0  0
  151.8975  138.9744  155.7746 C   0  0  0  0  0  0  0  0  0  0  0  0
  151.2345  138.4803  154.4727 C   0  0  1  0  0  0  0  0  0  0  0  0
  151.8248  137.2587  154.0723 O   0  0  0  0  0  0  0  0  0  0  0  0
  149.7169  138.2642  154.6432 C   0  0  0  0  0  0  0  0  0  0  0  0
  149.3977  137.3686  155.7884 N   0  3  1  0  0  0  0  0  0  0  0  0
  148.4531  137.9599  156.7669 C   0  0  0  0  0  0  0  0  0  0  0  0
  147.0029  137.8699  156.2632 C   0  0  0  0  0  0  0  0  0  0  0  0
  146.6827  136.5092  156.0005 O   0  0  0  0  0  0  0  0  0  0  0  0
  147.4900  135.9458  154.9712 C   0  0  2  0  0  0  0  0  0  0  0  0
  147.0218  134.4958  154.7401 C   0  0  0  0  0  0  0  0  0  0  0  0
  147.7598  133.8101  153.6474 N   0  3  0  0  0  0  0  0  0  0  0  0
  146.9280  132.7877  152.9744 C   0  0  0  0  0  0  0  0  0  0  0  0
  149.0649  133.2520  154.0714 C   0  0  0  0  0  0  0  0  0  0  0  0
  148.9714  135.9953  155.4126 C   0  0  0  0  0  0  0  0  0  0  0  0
  151.8419  140.8488  157.4145 C   0  0  0  0  0  0  0  0  0  0  0  0
  152.7990  140.4540  158.3471 C   0  0  0  0  0  0  0  0  0  0  0  0
  153.0357  141.3182  159.4402 C   0  0  0  0  0  0  0  0  0  0  0  0
  154.0775  140.9151  160.4699 C   0  0  0  0  0  0  0  0  0  0  0  0
  151.9605  144.3501  160.7137 H   0  0  0  0  0  0  0  0  0  0  0  0
  153.6249  143.7765  160.7713 H   0  0  0  0  0  0  0  0  0  0  0  0
  152.3656  142.9454  161.6969 H   0  0  0  0  0  0  0  0  0  0  0  0
  150.8029  143.8465  158.7228 H   0  0  0  0  0  0  0  0  0  0  0  0
  149.8693  140.8603  154.7589 H   0  0  0  0  0  0  0  0  0  0  0  0
  152.9801  139.0483  155.6695 H   0  0  0  0  0  0  0  0  0  0  0  0
  151.7191  138.2553  156.5750 H   0  0  0  0  0  0  0  0  0  0  0  0
  151.4246  139.2155  153.6913 H   0  0  0  0  0  0  0  0  0  0  0  0
  151.3626  136.9296  153.3163 H   0  0  0  0  0  0  0  0  0  0  0  0
  149.2490  139.2380  154.7968 H   0  0  0  0  0  0  0  0  0  0  0  0
  149.2841  137.8662  153.7253 H   0  0  0  0  0  0  0  0  0  0  0  0
  148.5421  137.4091  157.7044 H   0  0  0  0  0  0  0  0  0  0  0  0
  148.7239  138.9915  156.9943 H   0  0  0  0  0  0  0  0  0  0  0  0
  146.3196  138.2514  157.0221 H   0  0  0  0  0  0  0  0  0  0  0  0
  146.8541  138.4765  155.3686 H   0  0  0  0  0  0  0  0  0  0  0  0
  147.3668  136.5225  154.0550 H   0  0  0  0  0  0  0  0  0  0  0  0
  147.1121  133.9131  155.6581 H   0  0  0  0  0  0  0  0  0  0  0  0
  145.9589  134.5164  154.4943 H   0  0  0  0  0  0  0  0  0  0  0  0
  146.6613  131.9853  153.6634 H   0  0  0  0  0  0  0  0  0  0  0  0
  147.4611  132.3496  152.1299 H   0  0  0  0  0  0  0  0  0  0  0  0
  146.0083  133.2275  152.5876 H   0  0  0  0  0  0  0  0  0  0  0  0
  148.9369  132.5122  154.8623 H   0  0  0  0  0  0  0  0  0  0  0  0
  149.7359  134.0295  154.4337 H   0  0  0  0  0  0  0  0  0  0  0  0
  149.5635  132.7657  153.2322 H   0  0  0  0  0  0  0  0  0  0  0  0
  149.6162  135.5843  154.6366 H   0  0  0  0  0  0  0  0  0  0  0  0
  149.1084  135.3574  156.2869 H   0  0  0  0  0  0  0  0  0  0  0  0
  153.3466  139.5294  158.2454 H   0  0  0  0  0  0  0  0  0  0  0  0
  154.5390  139.9598  160.2186 H   0  0  0  0  0  0  0  0  0  0  0  0
  153.6228  140.8161  161.4558 H   0  0  0  0  0  0  0  0  0  0  0  0
  154.8696  141.6620  160.5266 H   0  0  0  0  0  0  0  0  0  0  0  0
  147.9544  134.5114  152.9466 H   0  0  0  0  0  0  0  0  0  0  0  0
  150.2735  137.2709  156.2833 H   0  0  0  0  0  0  0  0  0  0  0  0
  149.6178  142.9101  156.2819 H   0  0  0  0  0  0  0  0  0  0  0  0
  1  2  1  0  0  0  0
  1 26  1  0  0  0  0
  1 27  1  0  0  0  0
  1 28  1  0  0  0  0
  2 24  1  0  0  0  0
  2  3  2  0  0  0  0
  3  4  1  0  0  0  0
  3 29  1  0  0  0  0
  4 22  2  0  0  0  0
  4  5  1  0  0  0  0
  5  6  2  0  0  0  0
  5 58  1  0  0  0  0
  6  7  1  0  0  0  0
  6 30  1  0  0  0  0
  7  8  1  0  0  0  0
  7 22  1  0  0  0  0
  8  9  1  0  0  0  0
  8 31  1  0  0  0  0
  8 32  1  0  0  0  0
  9 10  1  0  0  0  0
  9 11  1  0  0  0  0
  9 33  1  0  0  0  0
 10 34  1  0  0  0  0
 11 12  1  0  0  0  0
 11 35  1  0  0  0  0
 11 36  1  0  0  0  0
 12 21  1  0  0  0  0
 12 13  1  0  0  0  0
 12 57  1  0  0  0  0
 13 14  1  0  0  0  0
 13 37  1  0  0  0  0
 13 38  1  0  0  0  0
 14 15  1  0  0  0  0
 14 39  1  0  0  0  0
 14 40  1  0  0  0  0
 15 16  1  0  0  0  0
 16 17  1  0  0  0  0
 16 21  1  0  0  0  0
 16 41  1  0  0  0  0
 17 18  1  0  0  0  0
 17 42  1  0  0  0  0
 17 43  1  0  0  0  0
 18 19  1  0  0  0  0
 18 20  1  0  0  0  0
 18 56  1  0  0  0  0
 19 44  1  0  0  0  0
 19 45  1  0  0  0  0
 19 46  1  0  0  0  0
 20 47  1  0  0  0  0
 20 48  1  0  0  0  0
 20 49  1  0  0  0  0
 21 50  1  0  0  0  0
 21 51  1  0  0  0  0
 22 23  1  0  0  0  0
 23 24  2  0  0  0  0
 23 52  1  0  0  0  0
 24 25  1  0  0  0  0
 25 53  1  0  0  0  0
 25 54  1  0  0  0  0
 25 55  1  0  0  0  0
M  CHG  1   5   1
M  CHG  1  12   1
M  CHG  1  18   1
M  END
> <s_m_source_file>
AV-unprocessed.smi

> <i_m_source_file_index>
1005

> <i_lp_mmshare_version>
43012

> <i_f3d_flags>
0

> <s_epik_input>
W0NIM11jKFtjSF0xKWMoW0NIM10pW2NIXWMoYzEyKW4oW2NIXW4yKVtDSDJdW0NASF0oW09IXSlbQ0gyXU4zW0NIMl1bQ0gyXU9bQ0BIXShbQ0gyXTMpW0NIMl1OKFtDSDNdKVtDSDNd

> <s_epik_cmdline>
J2VwaWtfcHl0aG9uJywgJy1waCcsICc3LjAnLCAnLXRuJywgJzgnLCAnLW1hJywgJzIwMCcsICctbWV0YWxfYmluZGluZycsICctaW1hZScsICc8aW5maWxlLm1hZT4nLCAnLW9tYWUnLCAnPG91dGZpbGUubWFlPic=

> <r_epik_Ionization_Penalty>
2.30802

> <r_epik_Ionization_Penalty_Charging>
2.30798

> <r_epik_Ionization_Penalty_Neutral>
3.4851e-05

> <r_epik_State_Penalty>
2.52618

> <r_epik_Charging_Adjusted_Penalty>
4.83416

> <i_epik_Tot_Q>
3

> <i_epik_Tot_abs_Q>
3

> <r_epik_Metal_State_Penalty>
6.53149

> <b_epik_Metal_Only>
0

> <s_lp_Force_Field>
OPLS_2005

> <r_lp_Energy>
46.6994

> <b_lp_Chiralities_Consistent>
1

> <s_lp_Variant>
AV-unprocessed.smi:1005-22

> <Gold.Version>
5.8.1

> <Gold.Id.Protein>
6NUR|6NUR_protein|mol2

> <Gold.PLP.Fitness>
60.0510

> <Gold.PLP.PLP>
-44.7439

> <Gold.PLP.part.hbond>
-4.0000

> <Gold.PLP.part.metal>
0.0000

> <Gold.PLP.part.buried>
-4.4327

> <Gold.PLP.part.nonpolar>
-36.2906

> <Gold.PLP.part.repulsive>
0.1036

> <Gold.PLP.ligand.clash>
0.0000

> <Gold.PLP.ligand.torsion>
1.0159

> <Gold.PLP.Chemscore.Hbond>
5.7200

> <Gold.PLP.Chemscore.CHOScore>
0.0000

> <Gold.PLP.Chemscore.Metal>
0.0000

> <Gold.Chemscore.Hbonds>
donor molecule, donor type, donor heavy atom, donor atom, acceptor molecule, acceptor atom, score
      L1  H     5    58       P1  8028  1.92
      L1  H    10    34       P1  7949  0.93
      L1  H    18    56       P1  7948  1.01
      P1  H 10752 10764       L1    10  0.81

> <Gold.PLP.Chemscore.Internal.Correction>
0.1790

> <Gold.Rescore>
     Score         DG    S(hbond)    S(metal)    S(lipo)     H(rot)  DE(clash)    DE(int)     intcor
     20.99     -22.29       3.02        0.00     113.30       2.56       0.17       1.13       ----

> <Gold.Chemscore.Fitness>
20.9924

> <Gold.Chemscore.DG>
-22.2894

> <Gold.Chemscore.ZeroCoef>
-5.4800

> <Gold.Chemscore.Hbond>
3.0236

> <Gold.Chemscore.Metal>
0.0000

> <Gold.Chemscore.Lipo>
113.2951

> <Gold.Chemscore.Internal_Hbond>
0.0000

> <Gold.Chemscore.DEClash>
0.1680

> <Gold.Chemscore.DEInternal>
1.1290

> <Gold.Chemscore.Rot>
2.5566

> <Gold.Chemscore.Internal.Correction>
   9.000000E+99

> <Gold.Chemscore.Hbonds>
donor molecule, donor type, donor heavy atom, donor atom, acceptor molecule, acceptor atom, score
      L1  H     5    58       P1  8028  0.90
      L1  H    10    34       P1  7949  0.65
      L1  H    18    56       P1  7948  0.37
      P1  H 10752 10764       L1    10  0.15

> <Gold.Chemscore.Hbond.Weighted>
-10.0989

> <Gold.Chemscore.Metal.Weighted>
-0.0000

> <Gold.Chemscore.Lipo.Weighted>
-13.2555

> <Gold.Chemscore.Internal_Hbond.Weighted>
0.0000

> <Gold.Chemscore.DEClash.Weighted>
0.1680

> <Gold.Chemscore.DEInternal.Weighted>
1.1290

> <Gold.Chemscore.Rot.Weighted>
6.5450

> <Gold.Chemscore.Internal.Correction.Weighted>
   9.000000E+99

> <Gold.Protein.RotatedTorsions>
[ 6907 6896 6895 6894 ] final    5.75 input  -60.11 | X-H torsion
[ 7974 7965 7964 7962 ] final  102.93 input  175.53 | X-H torsion
[ 8008 7997 7996 7995 ] final  -23.84 input   59.86 | X-H torsion
[ 10167 10162 10161 10158 ] final  -53.80 input  -65.29 | X-H torsion
[ 10718 10713 10712 10709 ] final  113.57 input   66.30 | X-H torsion
[ 10763 10752 10751 10750 ] final  -66.81 input  -60.55 | X-H torsion
[ 11005 11000 10999 10996 ] final  -46.28 input  -57.11 | X-H torsion

> <Gold.Protein.ActiveResidues>
 VAL166  LYS551  ARG553  GLY616  TRP617  ASP618  TYR619  PRO620  LYS621  CYS622 
 ASP623  PHE694  ASN695  SER759  ASP760  ASP761  ALA762  ILE779  LEU786  VAL792 
 PHE793  MET794  SER795  GLU796  ALA797  LYS798  CYS799  TRP800  GLU811  SER814 

> <Gold.Protein.RotatedAtoms>
  151.6625  135.0987  160.0182 H   0  0  0  0  0  0  0  0  0  0  0  0  # atno 6907 bound_to 6896
  152.3938  133.6713  159.6268 H   0  0  0  0  0  0  0  0  0  0  0  0  # atno 6908 bound_to 6896
  150.7849  133.8825  159.3331 H   0  0  0  0  0  0  0  0  0  0  0  0  # atno 6909 bound_to 6896
  145.3526  139.2436  143.3549 H   0  0  0  0  0  0  0  0  0  0  0  0  # atno 7974 bound_to 7965
  154.4562  140.1970  156.0372 H   0  0  0  0  0  0  0  0  0  0  0  0  # atno 8008 bound_to 7997
  156.0751  140.3279  155.7596 H   0  0  0  0  0  0  0  0  0  0  0  0  # atno 8009 bound_to 7997
  155.5201  140.0569  157.2899 H   0  0  0  0  0  0  0  0  0  0  0  0  # atno 8010 bound_to 7997
  140.6465  143.2539  151.4844 H   0  0  0  0  0  0  0  0  0  0  0  0  # atno 10167 bound_to 10162
  157.6330  131.0985  150.7060 H   0  0  0  0  0  0  0  0  0  0  0  0  # atno 10718 bound_to 10713
  154.3653  135.6107  153.5712 H   0  0  0  0  0  0  0  0  0  0  0  0  # atno 10763 bound_to 10752
  152.9792  135.5825  154.4585 H   0  0  0  0  0  0  0  0  0  0  0  0  # atno 10764 bound_to 10752
  154.4330  135.2848  155.1877 H   0  0  0  0  0  0  0  0  0  0  0  0  # atno 10765 bound_to 10752
  141.0569  133.6723  156.3132 H   0  0  0  0  0  0  0  0  0  0  0  0  # atno 11005 bound_to 11000
  146.2961  140.4145  142.8721 LP  0  0  0  0  0  0  0  0  0  0  0  0  # atno 17320 bound_to 7965
  144.8706  140.7267  143.6049 LP  0  0  0  0  0  0  0  0  0  0  0  0  # atno 17321 bound_to 7965
  139.5676  144.2004  152.1789 LP  0  0  0  0  0  0  0  0  0  0  0  0  # atno 17342 bound_to 10162
  140.1291  144.5305  150.6814 LP  0  0  0  0  0  0  0  0  0  0  0  0  # atno 17343 bound_to 10162
  156.7396  130.4735  149.5480 LP  0  0  0  0  0  0  0  0  0  0  0  0  # atno 17370 bound_to 10713
  156.1548  130.6334  151.0643 LP  0  0  0  0  0  0  0  0  0  0  0  0  # atno 17371 bound_to 10713
  140.5947  134.5615  157.5506 LP  0  0  0  0  0  0  0  0  0  0  0  0  # atno 17394 bound_to 11000
  139.9398  134.7809  156.0709 LP  0  0  0  0  0  0  0  0  0  0  0  0  # atno 17395 bound_to 11000

$$$$
