AV-unprocessed.smi:1629|AV-procd|sdf|6522|dock1
  -GOLD-   22720 7193D 1   1.00000     0.00000
 Structure written by MMmdl.
 45 46  0  0  0  0  0  0  0  0  2 V2000
  152.8065  138.9162  156.5768 C   0  0  0  0  0  0  0  0  0  0  0  0
  151.5362  139.9800  155.7817 S   0  0  0  0  0  0  0  0  0  0  0  0
  151.3712  141.2037  156.5805 O   0  0  0  0  0  0  0  0  0  0  0  0
  151.8400  140.0664  154.3450 O   0  0  0  0  0  0  0  0  0  0  0  0
  150.1004  139.0388  155.9690 N   0  0  0  0  0  0  0  0  0  0  0  0
  148.8302  139.5552  155.4513 C   0  0  0  0  0  0  0  0  0  0  0  0
  147.7381  138.4633  155.4896 C   0  0  0  0  0  0  0  0  0  0  0  0
  146.4561  138.9384  154.7819 C   0  0  0  0  0  0  0  0  0  0  0  0
  146.7880  139.3343  153.4022 N   0  0  0  0  0  0  0  0  0  0  0  0
  146.4872  138.6410  152.2750 C   0  0  0  0  0  0  0  0  0  0  0  0
  146.6453  139.0934  151.1401 O   0  0  0  0  0  0  0  0  0  0  0  0
  145.9503  137.4282  152.4863 N   0  0  0  0  0  0  0  0  0  0  0  0
  145.5054  136.5268  151.4326 C   0  0  0  0  0  0  0  0  0  0  0  0
  144.4010  135.5934  151.9469 C   0  0  0  0  0  0  0  0  0  0  0  0
  144.5728  134.1726  151.4447 C   0  0  0  0  0  0  0  0  0  0  0  0
  145.7980  133.4799  151.5576 C   0  0  0  0  0  0  0  0  0  0  0  0
  145.8879  132.1559  151.0792 C   0  0  0  0  0  0  0  0  0  0  0  0
  144.7523  131.5528  150.4997 C   0  0  0  0  0  0  0  0  0  0  0  0
  143.5533  132.2895  150.4147 C   0  0  0  0  0  0  0  0  0  0  0  0
  143.5068  133.5557  150.8847 N   0  3  0  0  0  0  0  0  0  0  0  0
  147.6926  140.4911  153.3836 C   0  0  0  0  0  0  0  0  0  0  0  0
  149.0356  140.0904  154.0198 C   0  0  0  0  0  0  0  0  0  0  0  0
  153.7789  139.4043  156.5141 H   0  0  0  0  0  0  0  0  0  0  0  0
  152.8502  137.9560  156.0627 H   0  0  0  0  0  0  0  0  0  0  0  0
  152.5473  138.7573  157.6233 H   0  0  0  0  0  0  0  0  0  0  0  0
  150.0002  138.7127  156.9300 H   0  0  0  0  0  0  0  0  0  0  0  0
  148.5132  140.3889  156.0788 H   0  0  0  0  0  0  0  0  0  0  0  0
  148.1020  137.5556  155.0060 H   0  0  0  0  0  0  0  0  0  0  0  0
  147.5081  138.1947  156.5212 H   0  0  0  0  0  0  0  0  0  0  0  0
  145.6938  138.1628  154.8505 H   0  0  0  0  0  0  0  0  0  0  0  0
  146.0402  139.7986  155.3085 H   0  0  0  0  0  0  0  0  0  0  0  0
  145.8321  137.1204  153.4407 H   0  0  0  0  0  0  0  0  0  0  0  0
  145.1333  137.1107  150.5890 H   0  0  0  0  0  0  0  0  0  0  0  0
  146.3568  135.9461  151.0740 H   0  0  0  0  0  0  0  0  0  0  0  0
  144.3941  135.5858  153.0380 H   0  0  0  0  0  0  0  0  0  0  0  0
  143.4235  135.9648  151.6354 H   0  0  0  0  0  0  0  0  0  0  0  0
  146.6583  133.9541  152.0073 H   0  0  0  0  0  0  0  0  0  0  0  0
  146.8162  131.6091  151.1567 H   0  0  0  0  0  0  0  0  0  0  0  0
  144.8007  130.5399  150.1270 H   0  0  0  0  0  0  0  0  0  0  0  0
  142.6372  131.9073  149.9885 H   0  0  0  0  0  0  0  0  0  0  0  0
  147.8579  140.8803  152.3779 H   0  0  0  0  0  0  0  0  0  0  0  0
  147.2420  141.3108  153.9450 H   0  0  0  0  0  0  0  0  0  0  0  0
  149.7111  140.9465  154.0327 H   0  0  0  0  0  0  0  0  0  0  0  0
  149.5124  139.3285  153.4009 H   0  0  0  0  0  0  0  0  0  0  0  0
  142.6281  134.0693  150.8134 H   0  0  0  0  0  0  0  0  0  0  0  0
  1  2  1  0  0  0  0
  1 23  1  0  0  0  0
  1 24  1  0  0  0  0
  1 25  1  0  0  0  0
  2  3  2  0  0  0  0
  2  4  2  0  0  0  0
  2  5  1  0  0  0  0
  5  6  1  0  0  0  0
  5 26  1  0  0  0  0
  6 22  1  0  0  0  0
  6  7  1  0  0  0  0
  6 27  1  0  0  0  0
  7  8  1  0  0  0  0
  7 28  1  0  0  0  0
  7 29  1  0  0  0  0
  8  9  1  0  0  0  0
  8 30  1  0  0  0  0
  8 31  1  0  0  0  0
  9 10  1  0  0  0  0
  9 21  1  0  0  0  0
 10 11  2  0  0  0  0
 10 12  1  0  0  0  0
 12 13  1  0  0  0  0
 12 32  1  0  0  0  0
 13 14  1  0  0  0  0
 13 33  1  0  0  0  0
 13 34  1  0  0  0  0
 14 15  1  0  0  0  0
 14 35  1  0  0  0  0
 14 36  1  0  0  0  0
 15 20  1  0  0  0  0
 15 16  2  0  0  0  0
 16 17  1  0  0  0  0
 16 37  1  0  0  0  0
 17 18  2  0  0  0  0
 17 38  1  0  0  0  0
 18 19  1  0  0  0  0
 18 39  1  0  0  0  0
 19 20  2  0  0  0  0
 19 40  1  0  0  0  0
 20 45  1  0  0  0  0
 21 22  1  0  0  0  0
 21 41  1  0  0  0  0
 21 42  1  0  0  0  0
 22 43  1  0  0  0  0
 22 44  1  0  0  0  0
M  CHG  1  20   1
M  END
> <s_m_source_file>
AV-unprocessed.smi

> <i_m_source_file_index>
1629

> <i_lp_mmshare_version>
43012

> <i_f3d_flags>
0

> <s_epik_input>
W0NIM11TKD1PKSg9TylbTkhdW0NIXTFbQ0gyXVtDSDJdTihbQ0gyXVtDSDJdMSlDKD1PKVtOSF1bQ0gyXVtDSDJdYzJbY0hdW2NIXVtjSF1bY0hdbjI=

> <s_epik_cmdline>
J2VwaWtfcHl0aG9uJywgJy1waCcsICc3LjAnLCAnLXRuJywgJzgnLCAnLW1hJywgJzIwMCcsICctbWV0YWxfYmluZGluZycsICctaW1hZScsICc8aW5maWxlLm1hZT4nLCAnLW9tYWUnLCAnPG91dGZpbGUubWFlPic=

> <r_epik_Ionization_Penalty>
1.55223

> <r_epik_Ionization_Penalty_Charging>
1.55216

> <r_epik_Ionization_Penalty_Neutral>
6.06433e-05

> <r_epik_State_Penalty>
1.64647

> <r_epik_Charging_Adjusted_Penalty>
3.19864

> <i_epik_Tot_Q>
1

> <i_epik_Tot_abs_Q>
1

> <r_epik_Metal_State_Penalty>
1.69511

> <b_epik_Metal_Only>
0

> <s_lp_Force_Field>
OPLS_2005

> <r_lp_Energy>
29.0489

> <b_lp_Chiralities_Consistent>
1

> <s_lp_Variant>
AV-unprocessed.smi:1629-2

> <Gold.Version>
5.8.1

> <Gold.Id.Protein>
6NUR|6NUR_protein|mol2

> <Gold.PLP.Fitness>
44.5406

> <Gold.PLP.PLP>
-34.3229

> <Gold.PLP.part.hbond>
-3.2479

> <Gold.PLP.part.metal>
0.0000

> <Gold.PLP.part.buried>
-3.2479

> <Gold.PLP.part.nonpolar>
-30.1954

> <Gold.PLP.part.repulsive>
2.1034

> <Gold.PLP.ligand.clash>
0.0000

> <Gold.PLP.ligand.torsion>
0.7554

> <Gold.PLP.Chemscore.Hbond>
3.8424

> <Gold.PLP.Chemscore.CHOScore>
0.0000

> <Gold.PLP.Chemscore.Metal>
0.0000

> <Gold.Chemscore.Hbonds>
donor molecule, donor type, donor heavy atom, donor atom, acceptor molecule, acceptor atom, score
      L1  H    20    45       P1 10186  1.54
      P1  H  7954  7966       L1    11  0.26
      P1  H  7989  7998       L1     4  0.09

> <Gold.PLP.Chemscore.Internal.Correction>
0.2013

> <Gold.Rescore>
     Score         DG    S(hbond)    S(metal)    S(lipo)     H(rot)  DE(clash)    DE(int)     intcor
     14.61     -18.40       2.70        0.00      80.06       2.13       1.77       2.02       ----

> <Gold.Chemscore.Fitness>
14.6053

> <Gold.Chemscore.DG>
-18.4007

> <Gold.Chemscore.ZeroCoef>
-5.4800

> <Gold.Chemscore.Hbond>
2.6986

> <Gold.Chemscore.Metal>
0.0000

> <Gold.Chemscore.Lipo>
80.0599

> <Gold.Chemscore.Internal_Hbond>
0.0000

> <Gold.Chemscore.DEClash>
1.7729

> <Gold.Chemscore.DEInternal>
2.0226

> <Gold.Chemscore.Rot>
2.1326

> <Gold.Chemscore.Internal.Correction>
   9.000000E+99

> <Gold.Chemscore.Hbonds>
donor molecule, donor type, donor heavy atom, donor atom, acceptor molecule, acceptor atom, score
      L1  H    20    45       P1 10186  0.45
      P1  H  7954  7966       L1    11  0.22
      P1  H  7989  7998       L1     4  0.12

> <Gold.Chemscore.Hbond.Weighted>
-9.0132

> <Gold.Chemscore.Metal.Weighted>
-0.0000

> <Gold.Chemscore.Lipo.Weighted>
-9.3670

> <Gold.Chemscore.Internal_Hbond.Weighted>
0.0000

> <Gold.Chemscore.DEClash.Weighted>
1.7729

> <Gold.Chemscore.DEInternal.Weighted>
2.0226

> <Gold.Chemscore.Rot.Weighted>
5.4595

> <Gold.Chemscore.Internal.Correction.Weighted>
   9.000000E+99

> <Gold.Protein.RotatedTorsions>
[ 6907 6896 6895 6894 ] final -107.47 input  -60.11 | X-H torsion
[ 7974 7965 7964 7962 ] final  136.55 input  175.53 | X-H torsion
[ 8008 7997 7996 7995 ] final  -64.96 input   59.86 | X-H torsion
[ 10167 10162 10161 10158 ] final   43.46 input  -65.29 | X-H torsion
[ 10718 10713 10712 10709 ] final   54.07 input   66.30 | X-H torsion
[ 10763 10752 10751 10750 ] final -174.78 input  -60.55 | X-H torsion
[ 11005 11000 10999 10996 ] final  145.11 input  -57.11 | X-H torsion

> <Gold.Protein.ActiveResidues>
 VAL166  LYS551  ARG553  GLY616  TRP617  ASP618  TYR619  PRO620  LYS621  CYS622 
 ASP623  PHE694  ASN695  SER759  ASP760  ASP761  ALA762  ILE779  LEU786  VAL792 
 PHE793  MET794  SER795  GLU796  ALA797  LYS798  CYS799  TRP800  GLU811  SER814 

> <Gold.Protein.RotatedAtoms>
  150.7446  133.9822  159.3579 H   0  0  0  0  0  0  0  0  0  0  0  0  # atno 6907 bound_to 6896
  151.7763  135.0771  160.0377 H   0  0  0  0  0  0  0  0  0  0  0  0  # atno 6908 bound_to 6896
  152.3304  133.5915  159.5842 H   0  0  0  0  0  0  0  0  0  0  0  0  # atno 6909 bound_to 6896
  144.9554  139.4771  143.5506 H   0  0  0  0  0  0  0  0  0  0  0  0  # atno 7974 bound_to 7965
  154.4642  140.0943  156.6977 H   0  0  0  0  0  0  0  0  0  0  0  0  # atno 8008 bound_to 7997
  155.4905  140.3470  155.4336 H   0  0  0  0  0  0  0  0  0  0  0  0  # atno 8009 bound_to 7997
  156.0927  140.1401  156.9560 H   0  0  0  0  0  0  0  0  0  0  0  0  # atno 8010 bound_to 7997
  140.3442  144.2432  150.6152 H   0  0  0  0  0  0  0  0  0  0  0  0  # atno 10167 bound_to 10162
  157.5224  130.8574  149.8577 H   0  0  0  0  0  0  0  0  0  0  0  0  # atno 10718 bound_to 10713
  154.5922  135.2846  155.0623 H   0  0  0  0  0  0  0  0  0  0  0  0  # atno 10763 bound_to 10752
  154.1920  135.6439  153.5066 H   0  0  0  0  0  0  0  0  0  0  0  0  # atno 10764 bound_to 10752
  153.0125  135.5448  154.6612 H   0  0  0  0  0  0  0  0  0  0  0  0  # atno 10765 bound_to 10752
  140.0686  134.9164  157.1306 H   0  0  0  0  0  0  0  0  0  0  0  0  # atno 11005 bound_to 11000
  146.3335  139.8667  142.8847 LP  0  0  0  0  0  0  0  0  0  0  0  0  # atno 17320 bound_to 7965
  145.2781  141.0130  143.3733 LP  0  0  0  0  0  0  0  0  0  0  0  0  # atno 17321 bound_to 7965
  140.5280  143.2250  151.8283 LP  0  0  0  0  0  0  0  0  0  0  0  0  # atno 17342 bound_to 10162
  139.4836  144.4755  151.9372 LP  0  0  0  0  0  0  0  0  0  0  0  0  # atno 17343 bound_to 10162
  156.0363  130.3750  150.1552 LP  0  0  0  0  0  0  0  0  0  0  0  0  # atno 17370 bound_to 10713
  156.9739  130.9843  151.3452 LP  0  0  0  0  0  0  0  0  0  0  0  0  # atno 17371 bound_to 10713
  140.3661  134.2441  155.7182 LP  0  0  0  0  0  0  0  0  0  0  0  0  # atno 17394 bound_to 11000
  141.2003  133.7991  157.0497 LP  0  0  0  0  0  0  0  0  0  0  0  0  # atno 17395 bound_to 11000

$$$$
