AV-unprocessed.smi:1383|AV-procd|sdf|5625|dock8
  -GOLD-   22720 5243D 1   1.00000     0.00000
 Structure written by MMmdl.
 30 30  0  0  0  0  0  0  0  0  2 V2000
  154.2626  140.7231  160.7186 C   0  0  0  0  0  0  0  0  0  0  0  0
  153.9839  142.0359  159.9699 C   0  0  0  0  0  0  0  0  0  0  0  0
  152.5251  142.1922  159.4842 C   0  0  1  0  0  0  0  0  0  0  0  0
  152.3083  143.5560  158.8063 C   0  0  0  0  0  0  0  0  0  0  0  0
  152.1125  141.0577  158.5266 C   0  0  0  0  0  0  0  0  0  0  0  0
  152.9533  140.2251  158.1808 O   0  0  0  0  0  0  0  0  0  0  0  0
  150.8057  141.1339  158.1762 N   0  5  0  0  0  0  0  0  0  0  0  0
  150.4189  140.7026  156.9659 C   0  0  0  0  0  0  0  0  0  0  0  0
  149.1660  140.8272  156.5148 N   0  0  0  0  0  0  0  0  0  0  0  0
  148.9818  140.3225  155.2241 C   0  0  0  0  0  0  0  0  0  0  0  0
  147.6265  140.3863  154.5804 C   0  0  0  0  0  0  0  0  0  0  0  0
  147.1602  138.9896  154.1622 C   0  0  0  0  0  0  0  0  0  0  0  0
  147.7979  138.4116  153.1401 N   0  0  0  0  0  0  0  0  0  0  0  0
  146.2274  138.4428  154.7474 O   0  0  0  0  0  0  0  0  0  0  0  0
  150.1291  139.8005  154.6841 C   0  0  0  0  0  0  0  0  0  0  0  0
  151.4760  139.9375  155.7779 S   0  0  0  0  0  0  0  0  0  0  0  0
  155.2896  140.6973  161.0832 H   0  0  0  0  0  0  0  0  0  0  0  0
  154.1215  139.8539  160.0754 H   0  0  0  0  0  0  0  0  0  0  0  0
  153.6013  140.6142  161.5787 H   0  0  0  0  0  0  0  0  0  0  0  0
  154.2249  142.8657  160.6351 H   0  0  0  0  0  0  0  0  0  0  0  0
  154.6706  142.1230  159.1268 H   0  0  0  0  0  0  0  0  0  0  0  0
  151.8850  142.1754  160.3694 H   0  0  0  0  0  0  0  0  0  0  0  0
  151.2812  143.6649  158.4556 H   0  0  0  0  0  0  0  0  0  0  0  0
  152.9695  143.6876  157.9490 H   0  0  0  0  0  0  0  0  0  0  0  0
  152.5029  144.3726  159.5020 H   0  0  0  0  0  0  0  0  0  0  0  0
  146.8989  140.8189  155.2681 H   0  0  0  0  0  0  0  0  0  0  0  0
  147.6413  141.0341  153.7030 H   0  0  0  0  0  0  0  0  0  0  0  0
  147.5060  137.4986  152.8203 H   0  0  0  0  0  0  0  0  0  0  0  0
  148.5533  138.8964  152.6785 H   0  0  0  0  0  0  0  0  0  0  0  0
  150.2646  139.3505  153.7122 H   0  0  0  0  0  0  0  0  0  0  0  0
  1  2  1  0  0  0  0
  1 17  1  0  0  0  0
  1 18  1  0  0  0  0
  1 19  1  0  0  0  0
  2  3  1  0  0  0  0
  2 20  1  0  0  0  0
  2 21  1  0  0  0  0
  3  4  1  0  0  0  0
  3  5  1  0  0  0  0
  3 22  1  0  0  0  0
  4 23  1  0  0  0  0
  4 24  1  0  0  0  0
  4 25  1  0  0  0  0
  5  6  2  0  0  0  0
  5  7  1  0  0  0  0
  7  8  1  0  0  0  0
  8 16  1  0  0  0  0
  8  9  2  0  0  0  0
  9 10  1  0  0  0  0
 10 11  1  0  0  0  0
 10 15  2  0  0  0  0
 11 12  1  0  0  0  0
 11 26  1  0  0  0  0
 11 27  1  0  0  0  0
 12 13  1  0  0  0  0
 12 14  2  0  0  0  0
 13 28  1  0  0  0  0
 13 29  1  0  0  0  0
 15 16  1  0  0  0  0
 15 30  1  0  0  0  0
M  CHG  1   7  -1
M  END
> <s_m_source_file>
AV-unprocessed.smi

> <i_m_source_file_index>
1383

> <i_lp_mmshare_version>
43012

> <i_f3d_flags>
0

> <s_epik_input>
W0NIM11bQ0gyXVtDQEhdKFtDSDNdKUMoPU8pW05IXWMxbmMoW2NIXXMxKVtDSDJdQyg9TylbTkgyXQ==

> <s_epik_cmdline>
J2VwaWtfcHl0aG9uJywgJy1waCcsICc3LjAnLCAnLXRuJywgJzgnLCAnLW1hJywgJzIwMCcsICctbWV0YWxfYmluZGluZycsICctaW1hZScsICc8aW5maWxlLm1hZT4nLCAnLW9tYWUnLCAnPG91dGZpbGUubWFlPic=

> <r_lp_tautomer_probability>
1

> <r_epik_Ionization_Penalty>
5.3563

> <r_epik_Ionization_Penalty_Charging>
4.90463

> <r_epik_Ionization_Penalty_Neutral>
0.451677

> <r_epik_State_Penalty>
4.90447

> <r_epik_Charging_Adjusted_Penalty>
9.8091

> <i_epik_Tot_Q>
-1

> <i_epik_Tot_abs_Q>
1

> <r_epik_Metal_State_Penalty>
1.05508

> <b_epik_Metal_Only>
1

> <s_lp_Force_Field>
OPLS_2005

> <r_lp_Energy>
-0.48596

> <b_lp_Chiralities_Consistent>
1

> <s_lp_Variant>
AV-unprocessed.smi:1383-4

> <Gold.Version>
5.8.1

> <Gold.Id.Protein>
6NUR|6NUR_protein|mol2

> <Gold.PLP.Fitness>
41.4057

> <Gold.PLP.PLP>
-31.6878

> <Gold.PLP.part.hbond>
-2.7384

> <Gold.PLP.part.metal>
0.0000

> <Gold.PLP.part.buried>
0.0603

> <Gold.PLP.part.nonpolar>
-29.1079

> <Gold.PLP.part.repulsive>
0.3054

> <Gold.PLP.ligand.clash>
0.0000

> <Gold.PLP.ligand.torsion>
0.3332

> <Gold.PLP.Chemscore.Hbond>
2.4435

> <Gold.PLP.Chemscore.CHOScore>
0.9960

> <Gold.PLP.Chemscore.Metal>
0.0000

> <Gold.Chemscore.Hbonds>
donor molecule, donor type, donor heavy atom, donor atom, acceptor molecule, acceptor atom, score
      L1  H    13    28       P1  7948  0.26
      L1  H    13    29       P1  7957  0.68
      P1  H  7997  8008       L1     6  0.94
      L1  C    15    30       P1  7957  0.54

> <Gold.PLP.Chemscore.Internal.Correction>
0.0657

> <Gold.Rescore>
     Score         DG    S(hbond)    S(metal)    S(lipo)     H(rot)  DE(clash)    DE(int)     intcor
     12.71     -16.47       2.47        0.00      70.47       2.15       1.00       2.75       ----

> <Gold.Chemscore.Fitness>
12.7141

> <Gold.Chemscore.DG>
-16.4660

> <Gold.Chemscore.ZeroCoef>
-5.4800

> <Gold.Chemscore.Hbond>
2.4711

> <Gold.Chemscore.Metal>
0.0000

> <Gold.Chemscore.Lipo>
70.4699

> <Gold.Chemscore.Internal_Hbond>
0.0000

> <Gold.Chemscore.DEClash>
1.0025

> <Gold.Chemscore.DEInternal>
2.7494

> <Gold.Chemscore.Rot>
2.1532

> <Gold.Chemscore.Internal.Correction>
   9.000000E+99

> <Gold.Chemscore.Hbonds>
donor molecule, donor type, donor heavy atom, donor atom, acceptor molecule, acceptor atom, score
      L1  H    13    28       P1  7948  0.26
      L1  H    13    29       P1  7957  0.66
      P1  H  7997  8008       L1     6  0.88

> <Gold.Chemscore.Hbond.Weighted>
-8.2533

> <Gold.Chemscore.Metal.Weighted>
-0.0000

> <Gold.Chemscore.Lipo.Weighted>
-8.2450

> <Gold.Chemscore.Internal_Hbond.Weighted>
0.0000

> <Gold.Chemscore.DEClash.Weighted>
1.0025

> <Gold.Chemscore.DEInternal.Weighted>
2.7494

> <Gold.Chemscore.Rot.Weighted>
5.5123

> <Gold.Chemscore.Internal.Correction.Weighted>
   9.000000E+99

> <Gold.Protein.RotatedTorsions>
[ 6907 6896 6895 6894 ] final  148.03 input  -60.11 | X-H torsion
[ 7974 7965 7964 7962 ] final -163.69 input  175.53 | X-H torsion
[ 8008 7997 7996 7995 ] final  -75.86 input   59.86 | X-H torsion
[ 10167 10162 10161 10158 ] final  -72.08 input  -65.29 | X-H torsion
[ 10718 10713 10712 10709 ] final  -48.75 input   66.30 | X-H torsion
[ 10763 10752 10751 10750 ] final  -51.97 input  -60.55 | X-H torsion
[ 11005 11000 10999 10996 ] final  109.91 input  -57.11 | X-H torsion

> <Gold.Protein.ActiveResidues>
 VAL166  LYS551  ARG553  GLY616  TRP617  ASP618  TYR619  PRO620  LYS621  CYS622 
 ASP623  PHE694  ASN695  SER759  ASP760  ASP761  ALA762  ILE779  LEU786  VAL792 
 PHE793  MET794  SER795  GLU796  ALA797  LYS798  CYS799  TRP800  GLU811  SER814 

> <Gold.Protein.RotatedAtoms>
  152.1470  133.4498  159.4794 H   0  0  0  0  0  0  0  0  0  0  0  0  # atno 6907 bound_to 6896
  150.6891  134.2236  159.4415 H   0  0  0  0  0  0  0  0  0  0  0  0  # atno 6908 bound_to 6896
  152.0130  134.9865  160.0619 H   0  0  0  0  0  0  0  0  0  0  0  0  # atno 6909 bound_to 6896
  144.7318  140.3070  143.6194 H   0  0  0  0  0  0  0  0  0  0  0  0  # atno 7974 bound_to 7965
  154.5454  140.0737  156.8580 H   0  0  0  0  0  0  0  0  0  0  0  0  # atno 8008 bound_to 7997
  155.3097  140.3389  155.4226 H   0  0  0  0  0  0  0  0  0  0  0  0  # atno 8009 bound_to 7997
  156.1913  140.1687  156.8072 H   0  0  0  0  0  0  0  0  0  0  0  0  # atno 8010 bound_to 7997
  140.5221  143.2330  151.7411 H   0  0  0  0  0  0  0  0  0  0  0  0  # atno 10167 bound_to 10162
  156.1958  130.4154  149.9308 H   0  0  0  0  0  0  0  0  0  0  0  0  # atno 10718 bound_to 10713
  154.1352  135.6514  153.4930 H   0  0  0  0  0  0  0  0  0  0  0  0  # atno 10763 bound_to 10752
  153.0183  135.5302  154.6960 H   0  0  0  0  0  0  0  0  0  0  0  0  # atno 10764 bound_to 10752
  154.6206  135.2964  155.0300 H   0  0  0  0  0  0  0  0  0  0  0  0  # atno 10765 bound_to 10752
  139.8871  134.9470  156.6198 H   0  0  0  0  0  0  0  0  0  0  0  0  # atno 11005 bound_to 11000
  145.7703  139.1855  143.2216 LP  0  0  0  0  0  0  0  0  0  0  0  0  # atno 17320 bound_to 7965
  146.0916  140.7649  142.9592 LP  0  0  0  0  0  0  0  0  0  0  0  0  # atno 17321 bound_to 7965
  139.4926  144.4239  151.9947 LP  0  0  0  0  0  0  0  0  0  0  0  0  # atno 17342 bound_to 10162
  140.3336  144.3286  150.5982 LP  0  0  0  0  0  0  0  0  0  0  0  0  # atno 17343 bound_to 10162
  156.7033  130.8941  151.3602 LP  0  0  0  0  0  0  0  0  0  0  0  0  # atno 17370 bound_to 10713
  157.6957  130.9279  150.0637 LP  0  0  0  0  0  0  0  0  0  0  0  0  # atno 17371 bound_to 10713
  140.7748  133.8708  155.8520 LP  0  0  0  0  0  0  0  0  0  0  0  0  # atno 17394 bound_to 11000
  140.9811  134.1404  157.4493 LP  0  0  0  0  0  0  0  0  0  0  0  0  # atno 17395 bound_to 11000

$$$$
