AV-unprocessed.smi:2381|AV-procd|sdf|9457|dock7
  -GOLD-   2272013 83D 1   1.00000     0.00000
 Structure written by MMmdl.
 30 31  0  0  0  0  0  0  0  0  1 V2000
  151.8715  146.0070  160.1639 C   0  0  0  0  0  0  0  0  0  0  0  0
  151.9497  144.6164  159.5692 C   0  0  0  0  0  0  0  0  0  0  0  0
  152.8135  143.6451  160.1105 C   0  0  0  0  0  0  0  0  0  0  0  0
  152.8393  142.3721  159.5118 C   0  0  0  0  0  0  0  0  0  0  0  0
  152.0787  142.0402  158.4477 N   0  0  0  0  0  0  0  0  0  0  0  0
  151.2430  142.9674  157.9166 C   0  0  0  0  0  0  0  0  0  0  0  0
  150.4043  142.7236  156.7963 N   0  0  0  0  0  0  0  0  0  0  0  0
  150.2610  141.5834  156.0977 C   0  0  0  0  0  0  0  0  0  0  0  0
  150.8404  140.5233  156.3370 O   0  0  0  0  0  0  0  0  0  0  0  0
  149.3939  141.7386  155.0867 N   0  0  0  0  0  0  0  0  0  0  0  0
  149.0271  140.6973  154.1353 C   0  0  0  0  0  0  0  0  0  0  0  0
  147.5453  140.6099  153.8208 C   0  0  0  0  0  0  0  0  0  0  0  0
  146.6385  139.6767  154.5886 C   0  0  0  0  0  0  0  0  0  0  0  0
  146.9763  139.3840  153.1463 C   0  0  0  0  0  0  0  0  0  0  0  0
  151.1553  144.2703  158.4575 C   0  0  0  0  0  0  0  0  0  0  0  0
  152.5256  146.1049  161.0307 H   0  0  0  0  0  0  0  0  0  0  0  0
  150.8513  146.2260  160.4801 H   0  0  0  0  0  0  0  0  0  0  0  0
  152.1701  146.7508  159.4250 H   0  0  0  0  0  0  0  0  0  0  0  0
  153.4414  143.8643  160.9616 H   0  0  0  0  0  0  0  0  0  0  0  0
  153.4881  141.5998  159.8974 H   0  0  0  0  0  0  0  0  0  0  0  0
  149.8561  143.5117  156.4853 H   0  0  0  0  0  0  0  0  0  0  0  0
  148.9617  142.6420  154.9615 H   0  0  0  0  0  0  0  0  0  0  0  0
  149.5731  140.8486  153.2026 H   0  0  0  0  0  0  0  0  0  0  0  0
  149.3662  139.7405  154.5338 H   0  0  0  0  0  0  0  0  0  0  0  0
  147.1068  141.5554  153.5070 H   0  0  0  0  0  0  0  0  0  0  0  0
  147.0888  139.0413  155.3487 H   0  0  0  0  0  0  0  0  0  0  0  0
  145.6315  140.0248  154.8093 H   0  0  0  0  0  0  0  0  0  0  0  0
  146.1943  139.5368  152.4052 H   0  0  0  0  0  0  0  0  0  0  0  0
  147.6510  138.5534  152.9481 H   0  0  0  0  0  0  0  0  0  0  0  0
  150.4858  145.0003  158.0255 H   0  0  0  0  0  0  0  0  0  0  0  0
  1  2  1  0  0  0  0
  1 16  1  0  0  0  0
  1 17  1  0  0  0  0
  1 18  1  0  0  0  0
  2 15  1  0  0  0  0
  2  3  2  0  0  0  0
  3  4  1  0  0  0  0
  3 19  1  0  0  0  0
  4  5  2  0  0  0  0
  4 20  1  0  0  0  0
  5  6  1  0  0  0  0
  6  7  1  0  0  0  0
  6 15  2  0  0  0  0
  7  8  1  0  0  0  0
  7 21  1  0  0  0  0
  8  9  2  0  0  0  0
  8 10  1  0  0  0  0
 10 11  1  0  0  0  0
 10 22  1  0  0  0  0
 11 12  1  0  0  0  0
 11 23  1  0  0  0  0
 11 24  1  0  0  0  0
 12 14  1  0  0  0  0
 12 13  1  0  0  0  0
 12 25  1  0  0  0  0
 13 14  1  0  0  0  0
 13 26  1  0  0  0  0
 13 27  1  0  0  0  0
 14 28  1  0  0  0  0
 14 29  1  0  0  0  0
 15 30  1  0  0  0  0
M  END
> <s_m_source_file>
AV-unprocessed.smi

> <i_m_source_file_index>
2381

> <i_lp_mmshare_version>
43012

> <i_f3d_flags>
0

> <s_epik_input>
W0NIM11jMVtjSF1bY0hdbmMoW2NIXTEpW05IXUMoPU8pW05IXVtDSDJdW0NIXTJbQ0gyXVtDSDJdMg==

> <s_epik_cmdline>
J2VwaWtfcHl0aG9uJywgJy1waCcsICc3LjAnLCAnLXRuJywgJzgnLCAnLW1hJywgJzIwMCcsICctbWV0YWxfYmluZGluZycsICctaW1hZScsICc8aW5maWxlLm1hZT4nLCAnLW9tYWUnLCAnPG91dGZpbGUubWFlPic=

> <r_lp_tautomer_probability>
1

> <r_epik_Ionization_Penalty>
9.40607e-05

> <r_epik_Ionization_Penalty_Charging>
0

> <r_epik_Ionization_Penalty_Neutral>
9.40607e-05

> <r_epik_State_Penalty>
-0

> <r_epik_Charging_Adjusted_Penalty>
0

> <i_epik_Tot_Q>
0

> <i_epik_Tot_abs_Q>
0

> <r_epik_Metal_State_Penalty>
-0

> <b_epik_Metal_Only>
0

> <s_lp_Force_Field>
OPLS_2005

> <r_lp_Energy>
14.347

> <b_lp_Chiralities_Consistent>
1

> <s_lp_Variant>
AV-unprocessed.smi:2381-1

> <Gold.Version>
5.8.1

> <Gold.Id.Protein>
6NUR|6NUR_protein|mol2

> <Gold.PLP.Fitness>
40.9287

> <Gold.PLP.PLP>
-35.4556

> <Gold.PLP.part.hbond>
-2.0000

> <Gold.PLP.part.metal>
0.0000

> <Gold.PLP.part.buried>
-2.7460

> <Gold.PLP.part.nonpolar>
-32.1182

> <Gold.PLP.part.repulsive>
0.2878

> <Gold.PLP.ligand.clash>
0.0000

> <Gold.PLP.ligand.torsion>
0.3873

> <Gold.PLP.Chemscore.Hbond>
1.9040

> <Gold.PLP.Chemscore.CHOScore>
0.0000

> <Gold.PLP.Chemscore.Metal>
0.0000

> <Gold.Chemscore.Hbonds>
donor molecule, donor type, donor heavy atom, donor atom, acceptor molecule, acceptor atom, score
      L1  H     7    21       P1  8028  1.00
      L1  H    10    22       P1  8028  0.57

> <Gold.PLP.Chemscore.Internal.Correction>
0.5357

> <Gold.Rescore>
     Score         DG    S(hbond)    S(metal)    S(lipo)     H(rot)  DE(clash)    DE(int)     intcor
     17.07     -18.80       1.96        0.00      84.16       1.20       0.14       1.58       ----

> <Gold.Chemscore.Fitness>
17.0714

> <Gold.Chemscore.DG>
-18.7957

> <Gold.Chemscore.ZeroCoef>
-5.4800

> <Gold.Chemscore.Hbond>
1.9553

> <Gold.Chemscore.Metal>
0.0000

> <Gold.Chemscore.Lipo>
84.1636

> <Gold.Chemscore.Internal_Hbond>
0.0000

> <Gold.Chemscore.DEClash>
0.1424

> <Gold.Chemscore.DEInternal>
1.5819

> <Gold.Chemscore.Rot>
1.1962

> <Gold.Chemscore.Internal.Correction>
   9.000000E+99

> <Gold.Chemscore.Hbonds>
donor molecule, donor type, donor heavy atom, donor atom, acceptor molecule, acceptor atom, score
      L1  H     7    21       P1  8028  1.00
      L1  H    10    22       P1  8028  0.56

> <Gold.Chemscore.Hbond.Weighted>
-6.5308

> <Gold.Chemscore.Metal.Weighted>
-0.0000

> <Gold.Chemscore.Lipo.Weighted>
-9.8471

> <Gold.Chemscore.Internal_Hbond.Weighted>
0.0000

> <Gold.Chemscore.DEClash.Weighted>
0.1424

> <Gold.Chemscore.DEInternal.Weighted>
1.5819

> <Gold.Chemscore.Rot.Weighted>
3.0622

> <Gold.Chemscore.Internal.Correction.Weighted>
   9.000000E+99

> <Gold.Protein.RotatedTorsions>
[ 6907 6896 6895 6894 ] final   34.99 input  -60.11 | X-H torsion
[ 7974 7965 7964 7962 ] final  -51.57 input  175.53 | X-H torsion
[ 8008 7997 7996 7995 ] final  144.94 input   59.86 | X-H torsion
[ 10167 10162 10161 10158 ] final -122.81 input  -65.29 | X-H torsion
[ 10718 10713 10712 10709 ] final -122.04 input   66.30 | X-H torsion
[ 10763 10752 10751 10750 ] final  -60.49 input  -60.55 | X-H torsion
[ 11005 11000 10999 10996 ] final  -97.23 input  -57.11 | X-H torsion

> <Gold.Protein.ActiveResidues>
 VAL166  LYS551  ARG553  GLY616  TRP617  ASP618  TYR619  PRO620  LYS621  CYS622 
 ASP623  PHE694  ASN695  SER759  ASP760  ASP761  ALA762  ILE779  LEU786  VAL792 
 PHE793  MET794  SER795  GLU796  ALA797  LYS798  CYS799  TRP800  GLU811  SER814 

> <Gold.Protein.RotatedAtoms>
  152.1100  134.9281  160.0566 H   0  0  0  0  0  0  0  0  0  0  0  0  # atno 6907 bound_to 6896
  152.0462  133.3994  159.4366 H   0  0  0  0  0  0  0  0  0  0  0  0  # atno 6908 bound_to 6896
  150.6843  134.3280  159.4858 H   0  0  0  0  0  0  0  0  0  0  0  0  # atno 6909 bound_to 6896
  145.9175  140.7862  142.9664 H   0  0  0  0  0  0  0  0  0  0  0  0  # atno 7974 bound_to 7965
  156.2896  140.2222  156.5135 H   0  0  0  0  0  0  0  0  0  0  0  0  # atno 8008 bound_to 7997
  154.7589  140.0475  157.0978 H   0  0  0  0  0  0  0  0  0  0  0  0  # atno 8009 bound_to 7997
  155.0016  140.3102  155.4868 H   0  0  0  0  0  0  0  0  0  0  0  0  # atno 8010 bound_to 7997
  140.0103  143.5449  152.2266 H   0  0  0  0  0  0  0  0  0  0  0  0  # atno 10167 bound_to 10162
  156.1386  130.6449  150.9736 H   0  0  0  0  0  0  0  0  0  0  0  0  # atno 10718 bound_to 10713
  154.2701  135.6292  153.5307 H   0  0  0  0  0  0  0  0  0  0  0  0  # atno 10763 bound_to 10752
  152.9881  135.5608  154.5610 H   0  0  0  0  0  0  0  0  0  0  0  0  # atno 10764 bound_to 10752
  154.5178  135.2880  155.1264 H   0  0  0  0  0  0  0  0  0  0  0  0  # atno 10765 bound_to 10752
  141.1386  133.8156  157.0678 H   0  0  0  0  0  0  0  0  0  0  0  0  # atno 11005 bound_to 11000
  144.6749  140.1923  143.7395 LP  0  0  0  0  0  0  0  0  0  0  0  0  # atno 17320 bound_to 7965
  145.8592  139.2214  143.1726 LP  0  0  0  0  0  0  0  0  0  0  0  0  # atno 17321 bound_to 7965
  139.6210  144.7629  151.2741 LP  0  0  0  0  0  0  0  0  0  0  0  0  # atno 17342 bound_to 10162
  140.7384  143.6649  150.8132 LP  0  0  0  0  0  0  0  0  0  0  0  0  # atno 17343 bound_to 10162
  157.6555  131.0890  150.7956 LP  0  0  0  0  0  0  0  0  0  0  0  0  # atno 17370 bound_to 10713
  156.8034  130.4928  149.5366 LP  0  0  0  0  0  0  0  0  0  0  0  0  # atno 17371 bound_to 10713
  140.0530  134.9795  157.1170 LP  0  0  0  0  0  0  0  0  0  0  0  0  # atno 17394 bound_to 11000
  140.3961  134.2132  155.7164 LP  0  0  0  0  0  0  0  0  0  0  0  0  # atno 17395 bound_to 11000

$$$$
