AV-unprocessed.smi:1291|AV-procd|sdf|5391|dock1
  -GOLD-   22720 4543D 1   1.00000     0.00000
 Structure written by MMmdl.
 43 45  0  0  0  0  0  0  0  0  1 V2000
  153.5687  139.0765  158.2221 O   0  0  0  0  0  0  0  0  0  0  0  0
  152.2501  139.5357  158.0195 C   0  0  0  0  0  0  0  0  0  0  0  0
  152.0639  140.9570  158.4539 C   0  0  0  0  0  0  0  0  0  0  0  0
  152.4429  141.3752  159.6622 N   0  0  0  0  0  0  0  0  0  0  0  0
  152.0703  142.7049  159.6555 C   0  0  0  0  0  0  0  0  0  0  0  0
  152.1970  143.6992  160.6519 C   0  0  0  0  0  0  0  0  0  0  0  0
  151.7311  145.0092  160.4163 C   0  0  0  0  0  0  0  0  0  0  0  0
  151.1325  145.3433  159.1843 C   0  0  0  0  0  0  0  0  0  0  0  0
  150.9975  144.3680  158.1776 C   0  0  0  0  0  0  0  0  0  0  0  0
  151.4662  143.0620  158.4168 C   0  0  0  0  0  0  0  0  0  0  0  0
  151.4890  141.8953  157.6588 N   0  0  0  0  0  0  0  0  0  0  0  0
  150.9799  141.7503  156.3026 C   0  0  0  0  0  0  0  0  0  0  0  0
  149.5034  141.2915  156.2778 C   0  0  2  0  0  0  0  0  0  0  0  0
  149.4546  139.9323  156.6645 O   0  0  0  0  0  0  0  0  0  0  0  0
  148.8708  141.4243  154.8830 C   0  0  0  0  0  0  0  0  0  0  0  0
  147.4648  141.5750  155.0197 O   0  0  0  0  0  0  0  0  0  0  0  0
  146.7749  141.6654  153.7805 C   0  0  0  0  0  0  0  0  0  0  0  0
  145.7824  142.8166  153.7308 C   0  0  0  0  0  0  0  0  0  0  0  0
  145.7804  143.6852  152.6191 C   0  0  0  0  0  0  0  0  0  0  0  0
  144.8657  144.7541  152.5545 C   0  0  0  0  0  0  0  0  0  0  0  0
  143.9456  144.9573  153.6007 C   0  0  0  0  0  0  0  0  0  0  0  0
  143.9394  144.0894  154.7094 C   0  0  0  0  0  0  0  0  0  0  0  0
  144.8536  143.0196  154.7761 C   0  0  0  0  0  0  0  0  0  0  0  0
  144.8355  142.1956  155.8513 F   0  0  0  0  0  0  0  0  0  0  0  0
  153.6202  138.1760  157.9411 H   0  0  0  0  0  0  0  0  0  0  0  0
  152.0153  139.4531  156.9576 H   0  0  0  0  0  0  0  0  0  0  0  0
  151.5509  138.8835  158.5414 H   0  0  0  0  0  0  0  0  0  0  0  0
  152.6522  143.4527  161.5998 H   0  0  0  0  0  0  0  0  0  0  0  0
  151.8323  145.7611  161.1851 H   0  0  0  0  0  0  0  0  0  0  0  0
  150.7769  146.3487  159.0124 H   0  0  0  0  0  0  0  0  0  0  0  0
  150.5378  144.6221  157.2342 H   0  0  0  0  0  0  0  0  0  0  0  0
  151.0940  142.7093  155.7965 H   0  0  0  0  0  0  0  0  0  0  0  0
  151.6275  141.0697  155.7494 H   0  0  0  0  0  0  0  0  0  0  0  0
  148.9197  141.8733  156.9933 H   0  0  0  0  0  0  0  0  0  0  0  0
  148.8056  139.8367  157.3443 H   0  0  0  0  0  0  0  0  0  0  0  0
  149.2584  142.3187  154.3925 H   0  0  0  0  0  0  0  0  0  0  0  0
  149.1304  140.5719  154.2534 H   0  0  0  0  0  0  0  0  0  0  0  0
  147.5151  141.8297  152.9972 H   0  0  0  0  0  0  0  0  0  0  0  0
  146.2953  140.7132  153.5506 H   0  0  0  0  0  0  0  0  0  0  0  0
  146.4848  143.5338  151.8141 H   0  0  0  0  0  0  0  0  0  0  0  0
  144.8702  145.4179  151.7025 H   0  0  0  0  0  0  0  0  0  0  0  0
  143.2446  145.7776  153.5526 H   0  0  0  0  0  0  0  0  0  0  0  0
  143.2324  144.2443  155.5110 H   0  0  0  0  0  0  0  0  0  0  0  0
  1  2  1  0  0  0  0
  1 25  1  0  0  0  0
  2  3  1  0  0  0  0
  2 26  1  0  0  0  0
  2 27  1  0  0  0  0
  3 11  1  0  0  0  0
  3  4  2  0  0  0  0
  4  5  1  0  0  0  0
  5 10  2  0  0  0  0
  5  6  1  0  0  0  0
  6  7  2  0  0  0  0
  6 28  1  0  0  0  0
  7  8  1  0  0  0  0
  7 29  1  0  0  0  0
  8  9  2  0  0  0  0
  8 30  1  0  0  0  0
  9 10  1  0  0  0  0
  9 31  1  0  0  0  0
 10 11  1  0  0  0  0
 11 12  1  0  0  0  0
 12 13  1  0  0  0  0
 12 32  1  0  0  0  0
 12 33  1  0  0  0  0
 13 14  1  0  0  0  0
 13 15  1  0  0  0  0
 13 34  1  0  0  0  0
 14 35  1  0  0  0  0
 15 16  1  0  0  0  0
 15 36  1  0  0  0  0
 15 37  1  0  0  0  0
 16 17  1  0  0  0  0
 17 18  1  0  0  0  0
 17 38  1  0  0  0  0
 17 39  1  0  0  0  0
 18 23  1  0  0  0  0
 18 19  2  0  0  0  0
 19 20  1  0  0  0  0
 19 40  1  0  0  0  0
 20 21  2  0  0  0  0
 20 41  1  0  0  0  0
 21 22  1  0  0  0  0
 21 42  1  0  0  0  0
 22 23  2  0  0  0  0
 22 43  1  0  0  0  0
 23 24  1  0  0  0  0
M  END
> <s_m_source_file>
AV-unprocessed.smi

> <i_m_source_file_index>
1291

> <i_lp_mmshare_version>
43012

> <i_f3d_flags>
0

> <s_epik_input>
W2NIXTFbY0hdW2NIXVtjSF1jKGMxMiluKGMobjIpW0NIMl1bT0hdKVtDSDJdW0NASF0oW09IXSlbQ0gyXU9bQ0gyXWMzW2NIXVtjSF1bY0hdW2NIXWMzRg==

> <s_epik_cmdline>
J2VwaWtfcHl0aG9uJywgJy1waCcsICc3LjAnLCAnLXRuJywgJzgnLCAnLW1hJywgJzIwMCcsICctbWV0YWxfYmluZGluZycsICctaW1hZScsICc8aW5maWxlLm1hZT4nLCAnLW9tYWUnLCAnPG91dGZpbGUubWFlPic=

> <r_epik_Ionization_Penalty>
0.0649918

> <r_epik_Ionization_Penalty_Charging>
0

> <r_epik_Ionization_Penalty_Neutral>
0.0649918

> <r_epik_State_Penalty>
0.0565791

> <r_epik_Charging_Adjusted_Penalty>
0.0565791

> <i_epik_Tot_Q>
0

> <i_epik_Tot_abs_Q>
0

> <r_epik_Metal_State_Penalty>
5.93658e-05

> <b_epik_Metal_Only>
0

> <s_lp_Force_Field>
OPLS_2005

> <r_lp_Energy>
20.1032

> <b_lp_Chiralities_Consistent>
1

> <s_lp_Variant>
AV-unprocessed.smi:1291-1

> <Gold.Version>
5.8.1

> <Gold.Id.Protein>
6NUR|6NUR_protein|mol2

> <Gold.PLP.Fitness>
56.3130

> <Gold.PLP.PLP>
-55.5971

> <Gold.PLP.part.hbond>
-1.0000

> <Gold.PLP.part.metal>
0.0000

> <Gold.PLP.part.buried>
-6.9561

> <Gold.PLP.part.nonpolar>
-48.3110

> <Gold.PLP.part.repulsive>
0.1232

> <Gold.PLP.ligand.clash>
0.0000

> <Gold.PLP.ligand.torsion>
1.2812

> <Gold.PLP.Chemscore.Hbond>
1.0000

> <Gold.PLP.Chemscore.CHOScore>
0.0000

> <Gold.PLP.Chemscore.Metal>
0.0000

> <Gold.Chemscore.Hbonds>
donor molecule, donor type, donor heavy atom, donor atom, acceptor molecule, acceptor atom, score
      P1  H  7997  8009       L1     1  1.00

> <Gold.PLP.Chemscore.Internal.Correction>
0.2783

> <Gold.Rescore>
     Score         DG    S(hbond)    S(metal)    S(lipo)     H(rot)  DE(clash)    DE(int)     intcor
     14.91     -17.08       0.94        0.00     145.30       3.33       0.31       1.86       ----

> <Gold.Chemscore.Fitness>
14.9093

> <Gold.Chemscore.DG>
-17.0767

> <Gold.Chemscore.ZeroCoef>
-5.4800

> <Gold.Chemscore.Hbond>
0.9356

> <Gold.Chemscore.Metal>
0.0000

> <Gold.Chemscore.Lipo>
145.3046

> <Gold.Chemscore.Internal_Hbond>
0.0000

> <Gold.Chemscore.DEClash>
0.3076

> <Gold.Chemscore.DEInternal>
1.8597

> <Gold.Chemscore.Rot>
3.3316

> <Gold.Chemscore.Internal.Correction>
   9.000000E+99

> <Gold.Chemscore.Hbonds>
donor molecule, donor type, donor heavy atom, donor atom, acceptor molecule, acceptor atom, score
      P1  H  7997  8009       L1     1  0.22

> <Gold.Chemscore.Hbond.Weighted>
-3.1248

> <Gold.Chemscore.Metal.Weighted>
-0.0000

> <Gold.Chemscore.Lipo.Weighted>
-17.0006

> <Gold.Chemscore.Internal_Hbond.Weighted>
0.0000

> <Gold.Chemscore.DEClash.Weighted>
0.3076

> <Gold.Chemscore.DEInternal.Weighted>
1.8597

> <Gold.Chemscore.Rot.Weighted>
8.5288

> <Gold.Chemscore.Internal.Correction.Weighted>
   9.000000E+99

> <Gold.Protein.RotatedTorsions>
[ 6907 6896 6895 6894 ] final   43.55 input  -60.11 | X-H torsion
[ 7974 7965 7964 7962 ] final  177.84 input  175.53 | X-H torsion
[ 8008 7997 7996 7995 ] final  157.24 input   59.86 | X-H torsion
[ 10167 10162 10161 10158 ] final  -84.41 input  -65.29 | X-H torsion
[ 10718 10713 10712 10709 ] final  -60.96 input   66.30 | X-H torsion
[ 10763 10752 10751 10750 ] final  -91.82 input  -60.55 | X-H torsion
[ 11005 11000 10999 10996 ] final -145.57 input  -57.11 | X-H torsion

> <Gold.Protein.ActiveResidues>
 VAL166  LYS551  ARG553  GLY616  TRP617  ASP618  TYR619  PRO620  LYS621  CYS622 
 ASP623  PHE694  ASN695  SER759  ASP760  ASP761  ALA762  ILE779  LEU786  VAL792 
 PHE793  MET794  SER795  GLU796  ALA797  LYS798  CYS799  TRP800  GLU811  SER814 

> <Gold.Protein.RotatedAtoms>
  152.2217  134.8406  160.0484 H   0  0  0  0  0  0  0  0  0  0  0  0  # atno 6907 bound_to 6896
  151.9188  133.3575  159.3897 H   0  0  0  0  0  0  0  0  0  0  0  0  # atno 6908 bound_to 6896
  150.7001  134.4582  159.5412 H   0  0  0  0  0  0  0  0  0  0  0  0  # atno 6909 bound_to 6896
  144.7163  140.0308  143.6439 H   0  0  0  0  0  0  0  0  0  0  0  0  # atno 7974 bound_to 7965
  156.2376  140.1891  156.7078 H   0  0  0  0  0  0  0  0  0  0  0  0  # atno 8008 bound_to 7997
  154.6135  140.0618  156.9551 H   0  0  0  0  0  0  0  0  0  0  0  0  # atno 8009 bound_to 7997
  155.1977  140.3289  155.4351 H   0  0  0  0  0  0  0  0  0  0  0  0  # atno 8010 bound_to 7997
  140.4135  143.2613  151.8986 H   0  0  0  0  0  0  0  0  0  0  0  0  # atno 10167 bound_to 10162
  156.0954  130.4194  150.0928 H   0  0  0  0  0  0  0  0  0  0  0  0  # atno 10718 bound_to 10713
  154.6799  135.5254  153.8249 H   0  0  0  0  0  0  0  0  0  0  0  0  # atno 10763 bound_to 10752
  153.0557  135.6550  154.0592 H   0  0  0  0  0  0  0  0  0  0  0  0  # atno 10764 bound_to 10752
  154.0481  135.2971  155.3324 H   0  0  0  0  0  0  0  0  0  0  0  0  # atno 10765 bound_to 10752
  140.7909  134.2969  157.5013 H   0  0  0  0  0  0  0  0  0  0  0  0  # atno 11005 bound_to 11000
  146.0104  139.3165  143.0874 LP  0  0  0  0  0  0  0  0  0  0  0  0  # atno 17320 bound_to 7965
  145.8688  140.9432  143.0661 LP  0  0  0  0  0  0  0  0  0  0  0  0  # atno 17321 bound_to 7965
  139.4782  144.5512  151.8382 LP  0  0  0  0  0  0  0  0  0  0  0  0  # atno 17342 bound_to 10162
  140.4612  144.1719  150.5906 LP  0  0  0  0  0  0  0  0  0  0  0  0  # atno 17343 bound_to 10162
  156.8928  130.9594  151.3586 LP  0  0  0  0  0  0  0  0  0  0  0  0  # atno 17370 bound_to 10713
  157.6114  130.8585  149.8957 LP  0  0  0  0  0  0  0  0  0  0  0  0  # atno 17371 bound_to 10713
  139.8731  134.9374  156.3686 LP  0  0  0  0  0  0  0  0  0  0  0  0  # atno 17394 bound_to 11000
  140.9390  133.7527  156.0122 LP  0  0  0  0  0  0  0  0  0  0  0  0  # atno 17395 bound_to 11000

$$$$
