AV-unprocessed.smi:889|AV-procd|sdf|4056|dock4
  -GOLD-   22720 1543D 1   1.00000     0.00000
 Structure written by MMmdl.
 43 44  0  0  0  0  0  0  0  0  1 V2000
  151.9602  145.5894  160.3467 C   0  0  0  0  0  0  0  0  0  0  0  0
  151.5075  144.4566  159.4897 C   0  0  0  0  0  0  0  0  0  0  0  0
  152.0581  143.8342  158.4060 C   0  0  0  0  0  0  0  0  0  0  0  0
  151.1062  142.8305  158.0737 C   0  0  0  0  0  0  0  0  0  0  0  0
  151.1661  141.8163  156.9631 C   0  0  0  0  0  0  0  0  0  0  0  0
  149.7774  141.2338  156.6975 C   0  0  0  0  0  0  0  0  0  0  0  0
  149.5832  140.0237  156.8128 O   0  0  0  0  0  0  0  0  0  0  0  0
  148.8192  142.1064  156.3536 N   0  0  0  0  0  0  0  0  0  0  0  0
  147.4282  141.7573  156.0896 C   0  0  0  0  0  0  0  0  0  0  0  0
  147.1567  141.5721  154.5822 C   0  0  0  0  0  0  0  0  0  0  0  0
  146.4773  142.8362  154.0035 C   0  0  0  0  0  0  0  0  0  0  0  0
  145.3849  143.5197  154.8644 C   0  0  0  0  0  0  0  0  0  0  0  0
  144.3432  142.5396  155.4284 C   0  0  0  0  0  0  0  0  0  0  0  0
  144.6917  144.6304  154.0603 C   0  0  0  0  0  0  0  0  0  0  0  0
  148.3800  141.0856  153.7703 C   0  0  0  0  0  0  0  0  0  0  0  0
  147.9124  139.6437  153.9458 C   0  0  0  0  0  0  0  0  0  0  0  0
  146.5198  140.2166  154.1952 C   0  0  0  0  0  0  0  0  0  0  0  0
  150.0676  142.8500  158.8948 N   0  0  0  0  0  0  0  0  0  0  0  0
  150.3140  143.8875  159.8007 O   0  0  0  0  0  0  0  0  0  0  0  0
  152.9931  145.4441  160.6637 H   0  0  0  0  0  0  0  0  0  0  0  0
  151.3433  145.6776  161.2413 H   0  0  0  0  0  0  0  0  0  0  0  0
  151.9028  146.5319  159.8021 H   0  0  0  0  0  0  0  0  0  0  0  0
  152.9975  144.0607  157.9242 H   0  0  0  0  0  0  0  0  0  0  0  0
  151.5448  142.2784  156.0507 H   0  0  0  0  0  0  0  0  0  0  0  0
  151.8556  141.0065  157.2073 H   0  0  0  0  0  0  0  0  0  0  0  0
  149.0686  143.0819  156.2756 H   0  0  0  0  0  0  0  0  0  0  0  0
  147.2075  140.8402  156.6372 H   0  0  0  0  0  0  0  0  0  0  0  0
  146.7647  142.5136  156.5108 H   0  0  0  0  0  0  0  0  0  0  0  0
  147.2415  143.5771  153.7649 H   0  0  0  0  0  0  0  0  0  0  0  0
  146.0337  142.5883  153.0382 H   0  0  0  0  0  0  0  0  0  0  0  0
  145.8651  144.0119  155.7102 H   0  0  0  0  0  0  0  0  0  0  0  0
  143.8766  141.9556  154.6346 H   0  0  0  0  0  0  0  0  0  0  0  0
  143.5521  143.0709  155.9582 H   0  0  0  0  0  0  0  0  0  0  0  0
  144.7886  141.8471  156.1409 H   0  0  0  0  0  0  0  0  0  0  0  0
  144.1712  144.2263  153.1916 H   0  0  0  0  0  0  0  0  0  0  0  0
  145.4127  145.3670  153.7042 H   0  0  0  0  0  0  0  0  0  0  0  0
  143.9593  145.1600  154.6703 H   0  0  0  0  0  0  0  0  0  0  0  0
  148.3552  141.4029  152.7263 H   0  0  0  0  0  0  0  0  0  0  0  0
  149.3492  141.3024  154.2213 H   0  0  0  0  0  0  0  0  0  0  0  0
  147.9989  139.0227  153.0537 H   0  0  0  0  0  0  0  0  0  0  0  0
  148.3393  139.1584  154.8245 H   0  0  0  0  0  0  0  0  0  0  0  0
  145.9718  139.7193  154.9958 H   0  0  0  0  0  0  0  0  0  0  0  0
  145.9235  140.2669  153.2824 H   0  0  0  0  0  0  0  0  0  0  0  0
  1  2  1  0  0  0  0
  1 20  1  0  0  0  0
  1 21  1  0  0  0  0
  1 22  1  0  0  0  0
  2 19  1  0  0  0  0
  2  3  2  0  0  0  0
  3  4  1  0  0  0  0
  3 23  1  0  0  0  0
  4  5  1  0  0  0  0
  4 18  2  0  0  0  0
  5  6  1  0  0  0  0
  5 24  1  0  0  0  0
  5 25  1  0  0  0  0
  6  7  2  0  0  0  0
  6  8  1  0  0  0  0
  8  9  1  0  0  0  0
  8 26  1  0  0  0  0
  9 10  1  0  0  0  0
  9 27  1  0  0  0  0
  9 28  1  0  0  0  0
 10 17  1  0  0  0  0
 10 11  1  0  0  0  0
 10 15  1  0  0  0  0
 11 12  1  0  0  0  0
 11 29  1  0  0  0  0
 11 30  1  0  0  0  0
 12 13  1  0  0  0  0
 12 14  1  0  0  0  0
 12 31  1  0  0  0  0
 13 32  1  0  0  0  0
 13 33  1  0  0  0  0
 13 34  1  0  0  0  0
 14 35  1  0  0  0  0
 14 36  1  0  0  0  0
 14 37  1  0  0  0  0
 15 16  1  0  0  0  0
 15 38  1  0  0  0  0
 15 39  1  0  0  0  0
 16 17  1  0  0  0  0
 16 40  1  0  0  0  0
 16 41  1  0  0  0  0
 17 42  1  0  0  0  0
 17 43  1  0  0  0  0
 18 19  1  0  0  0  0
M  END
> <s_m_source_file>
AV-unprocessed.smi

> <i_m_source_file_index>
889

> <i_lp_mmshare_version>
43012

> <i_f3d_flags>
0

> <s_epik_input>
W0NIM11jMVtjSF1jKG5vMSlbQ0gyXUMoPU8pW05IXVtDSDJdQzIoW0NIMl1bQ0hdKFtDSDNdKVtDSDNdKVtDSDJdW0NIMl1bQ0gyXTI=

> <s_epik_cmdline>
J2VwaWtfcHl0aG9uJywgJy1waCcsICc3LjAnLCAnLXRuJywgJzgnLCAnLW1hJywgJzIwMCcsICctbWV0YWxfYmluZGluZycsICctaW1hZScsICc8aW5maWxlLm1hZT4nLCAnLW9tYWUnLCAnPG91dGZpbGUubWFlPic=

> <r_lp_tautomer_probability>
1

> <r_epik_Ionization_Penalty>
7.05168e-08

> <r_epik_Ionization_Penalty_Charging>
0

> <r_epik_Ionization_Penalty_Neutral>
7.05168e-08

> <r_epik_State_Penalty>
-0

> <r_epik_Charging_Adjusted_Penalty>
0

> <i_epik_Tot_Q>
0

> <i_epik_Tot_abs_Q>
0

> <r_epik_Metal_State_Penalty>
-0

> <b_epik_Metal_Only>
0

> <s_lp_Force_Field>
OPLS_2005

> <r_lp_Energy>
19.2899

> <b_lp_Chiralities_Consistent>
1

> <s_lp_Variant>
AV-unprocessed.smi:889-1

> <Gold.Version>
5.8.1

> <Gold.Id.Protein>
6NUR|6NUR_protein|mol2

> <Gold.PLP.Fitness>
39.2553

> <Gold.PLP.PLP>
-39.0857

> <Gold.PLP.part.hbond>
-1.0000

> <Gold.PLP.part.metal>
0.0000

> <Gold.PLP.part.buried>
-4.1400

> <Gold.PLP.part.nonpolar>
-34.0627

> <Gold.PLP.part.repulsive>
0.3287

> <Gold.PLP.ligand.clash>
0.0000

> <Gold.PLP.ligand.torsion>
1.6280

> <Gold.PLP.Chemscore.Hbond>
1.0000

> <Gold.PLP.Chemscore.CHOScore>
0.0000

> <Gold.PLP.Chemscore.Metal>
0.0000

> <Gold.Chemscore.Hbonds>
donor molecule, donor type, donor heavy atom, donor atom, acceptor molecule, acceptor atom, score
      L1  H     8    26       P1  8028  1.00

> <Gold.PLP.Chemscore.Internal.Correction>
0.4257

> <Gold.Rescore>
     Score         DG    S(hbond)    S(metal)    S(lipo)     H(rot)  DE(clash)    DE(int)     intcor
     14.00     -16.78       0.99        0.00     105.11       1.68       0.18       2.60       ----

> <Gold.Chemscore.Fitness>
14.0005

> <Gold.Chemscore.DG>
-16.7822

> <Gold.Chemscore.ZeroCoef>
-5.4800

> <Gold.Chemscore.Hbond>
0.9930

> <Gold.Chemscore.Metal>
0.0000

> <Gold.Chemscore.Lipo>
105.1126

> <Gold.Chemscore.Internal_Hbond>
0.0000

> <Gold.Chemscore.DEClash>
0.1801

> <Gold.Chemscore.DEInternal>
2.6016

> <Gold.Chemscore.Rot>
1.6846

> <Gold.Chemscore.Internal.Correction>
   9.000000E+99

> <Gold.Chemscore.Hbonds>
donor molecule, donor type, donor heavy atom, donor atom, acceptor molecule, acceptor atom, score
      L1  H     8    26       P1  8028  0.98

> <Gold.Chemscore.Hbond.Weighted>
-3.3167

> <Gold.Chemscore.Metal.Weighted>
-0.0000

> <Gold.Chemscore.Lipo.Weighted>
-12.2982

> <Gold.Chemscore.Internal_Hbond.Weighted>
0.0000

> <Gold.Chemscore.DEClash.Weighted>
0.1801

> <Gold.Chemscore.DEInternal.Weighted>
2.6016

> <Gold.Chemscore.Rot.Weighted>
4.3127

> <Gold.Chemscore.Internal.Correction.Weighted>
   9.000000E+99

> <Gold.Protein.RotatedTorsions>
[ 6907 6896 6895 6894 ] final  -48.15 input  -60.11 | X-H torsion
[ 7974 7965 7964 7962 ] final    1.87 input  175.53 | X-H torsion
[ 8008 7997 7996 7995 ] final -168.83 input   59.86 | X-H torsion
[ 10167 10162 10161 10158 ] final   80.36 input  -65.29 | X-H torsion
[ 10718 10713 10712 10709 ] final  148.18 input   66.30 | X-H torsion
[ 10763 10752 10751 10750 ] final  -43.26 input  -60.55 | X-H torsion
[ 11005 11000 10999 10996 ] final -141.50 input  -57.11 | X-H torsion

> <Gold.Protein.ActiveResidues>
 VAL166  LYS551  ARG553  GLY616  TRP617  ASP618  TYR619  PRO620  LYS621  CYS622 
 ASP623  PHE694  ASN695  SER759  ASP760  ASP761  ALA762  ILE779  LEU786  VAL792 
 PHE793  MET794  SER795  GLU796  ALA797  LYS798  CYS799  TRP800  GLU811  SER814 

> <Gold.Protein.RotatedAtoms>
  150.8935  134.8341  159.7309 H   0  0  0  0  0  0  0  0  0  0  0  0  # atno 6907 bound_to 6896
  152.4851  134.4612  159.9615 H   0  0  0  0  0  0  0  0  0  0  0  0  # atno 6908 bound_to 6896
  151.4672  133.3539  159.2853 H   0  0  0  0  0  0  0  0  0  0  0  0  # atno 6909 bound_to 6896
  146.2442  140.0922  142.8351 H   0  0  0  0  0  0  0  0  0  0  0  0  # atno 7974 bound_to 7965
  155.8967  140.1034  157.1379 H   0  0  0  0  0  0  0  0  0  0  0  0  # atno 8008 bound_to 7997
  154.4021  140.1300  156.4449 H   0  0  0  0  0  0  0  0  0  0  0  0  # atno 8009 bound_to 7997
  155.7470  140.3466  155.5134 H   0  0  0  0  0  0  0  0  0  0  0  0  # atno 8010 bound_to 7997
  139.9506  144.6029  150.8165 H   0  0  0  0  0  0  0  0  0  0  0  0  # atno 10167 bound_to 10162
  157.3118  131.0889  151.1310 H   0  0  0  0  0  0  0  0  0  0  0  0  # atno 10718 bound_to 10713
  153.9927  135.6703  153.4755 H   0  0  0  0  0  0  0  0  0  0  0  0  # atno 10763 bound_to 10752
  153.0698  135.4981  154.8275 H   0  0  0  0  0  0  0  0  0  0  0  0  # atno 10764 bound_to 10752
  154.7099  135.3095  154.9175 H   0  0  0  0  0  0  0  0  0  0  0  0  # atno 10765 bound_to 10752
  140.8318  134.2507  157.4853 H   0  0  0  0  0  0  0  0  0  0  0  0  # atno 11005 bound_to 11000
  145.0640  140.9108  143.4921 LP  0  0  0  0  0  0  0  0  0  0  0  0  # atno 17320 bound_to 7965
  145.1043  139.2800  143.5670 LP  0  0  0  0  0  0  0  0  0  0  0  0  # atno 17321 bound_to 7965
  140.7584  143.3106  151.2853 LP  0  0  0  0  0  0  0  0  0  0  0  0  # atno 17342 bound_to 10162
  139.6632  144.0152  152.2706 LP  0  0  0  0  0  0  0  0  0  0  0  0  # atno 17343 bound_to 10162
  157.2630  130.6668  149.5983 LP  0  0  0  0  0  0  0  0  0  0  0  0  # atno 17370 bound_to 10713
  155.9678  130.4503  150.5691 LP  0  0  0  0  0  0  0  0  0  0  0  0  # atno 17371 bound_to 10713
  139.8705  134.9590  156.4318 LP  0  0  0  0  0  0  0  0  0  0  0  0  # atno 17394 bound_to 11000
  140.8989  133.7793  155.9657 LP  0  0  0  0  0  0  0  0  0  0  0  0  # atno 17395 bound_to 11000

$$$$
