AV-unprocessed.smi:2399|AV-procd|sdf|9499|dock4
  -GOLD-   2272013133D 1   1.00000     0.00000
 Structure written by MMmdl.
 53 55  0  0  0  0  0  0  0  0  2 V2000
  145.9946  133.3900  151.7885 C   0  0  0  0  0  0  0  0  0  0  0  0
  147.1190  133.7334  152.5849 O   0  0  0  0  0  0  0  0  0  0  0  0
  147.8289  132.7134  153.1878 C   0  0  0  0  0  0  0  0  0  0  0  0
  147.4523  131.3477  153.1189 C   0  0  0  0  0  0  0  0  0  0  0  0
  148.2405  130.3800  153.7656 C   0  0  0  0  0  0  0  0  0  0  0  0
  149.3833  130.8112  154.4620 C   0  0  0  0  0  0  0  0  0  0  0  0
  150.2799  129.8237  155.1786 C   0  0  0  0  0  0  0  0  0  0  0  0
  149.7522  132.1058  154.5332 N   0  0  0  0  0  0  0  0  0  0  0  0
  149.0003  133.0496  153.9144 C   0  0  0  0  0  0  0  0  0  0  0  0
  149.3216  134.4345  153.9480 N   0  0  0  0  0  0  0  0  0  0  0  0
  150.0298  135.1053  154.8728 C   0  0  0  0  0  0  0  0  0  0  0  0
  150.5459  134.6106  155.8757 O   0  0  0  0  0  0  0  0  0  0  0  0
  150.1203  136.4072  154.5640 N   0  0  0  0  0  0  0  0  0  0  0  0
  150.8368  137.4063  155.3510 C   0  0  2  0  0  0  0  0  0  0  0  0
  149.9932  137.8241  156.5632 C   0  0  0  0  0  0  0  0  0  0  0  0
  150.6863  138.9365  157.3680 C   0  0  0  0  0  0  0  0  0  0  0  0
  150.9847  140.1236  156.5186 N   0  3  1  0  0  0  0  0  0  0  0  0
  151.5557  141.2674  157.2880 C   0  0  0  0  0  0  0  0  0  0  0  0
  152.4855  140.8478  158.4353 C   0  0  0  0  0  0  0  0  0  0  0  0
  152.5619  142.0761  159.3439 C   0  0  0  0  0  0  0  0  0  0  0  0
  151.2334  142.8200  159.1582 C   0  0  0  0  0  0  0  0  0  0  0  0
  150.4948  142.1056  158.0195 C   0  0  0  0  0  0  0  0  0  0  0  0
  151.8232  139.7428  155.3478 C   0  0  0  0  0  0  0  0  0  0  0  0
  151.1523  138.6488  154.5024 C   0  0  0  0  0  0  0  0  0  0  0  0
  145.5557  134.2984  151.3761 H   0  0  0  0  0  0  0  0  0  0  0  0
  145.2248  132.8909  152.3785 H   0  0  0  0  0  0  0  0  0  0  0  0
  146.2792  132.7522  150.9506 H   0  0  0  0  0  0  0  0  0  0  0  0
  146.5738  131.0216  152.5831 H   0  0  0  0  0  0  0  0  0  0  0  0
  147.9718  129.3348  153.7250 H   0  0  0  0  0  0  0  0  0  0  0  0
  149.8035  128.8464  155.2611 H   0  0  0  0  0  0  0  0  0  0  0  0
  150.5092  130.1747  156.1854 H   0  0  0  0  0  0  0  0  0  0  0  0
  151.2172  129.7029  154.6352 H   0  0  0  0  0  0  0  0  0  0  0  0
  148.9748  134.9728  153.1679 H   0  0  0  0  0  0  0  0  0  0  0  0
  149.6646  136.7281  153.7220 H   0  0  0  0  0  0  0  0  0  0  0  0
  151.7710  136.9736  155.7152 H   0  0  0  0  0  0  0  0  0  0  0  0
  149.0133  138.1729  156.2334 H   0  0  0  0  0  0  0  0  0  0  0  0
  149.8138  136.9623  157.2075 H   0  0  0  0  0  0  0  0  0  0  0  0
  150.0307  139.2093  158.1940 H   0  0  0  0  0  0  0  0  0  0  0  0
  151.6116  138.5617  157.8086 H   0  0  0  0  0  0  0  0  0  0  0  0
  152.1111  141.9145  156.6062 H   0  0  0  0  0  0  0  0  0  0  0  0
  152.0485  140.0140  158.9869 H   0  0  0  0  0  0  0  0  0  0  0  0
  153.4749  140.5420  158.0935 H   0  0  0  0  0  0  0  0  0  0  0  0
  152.7425  141.8032  160.3841 H   0  0  0  0  0  0  0  0  0  0  0  0
  153.3854  142.7170  159.0267 H   0  0  0  0  0  0  0  0  0  0  0  0
  150.6383  142.8103  160.0722 H   0  0  0  0  0  0  0  0  0  0  0  0
  151.4208  143.8639  158.9038 H   0  0  0  0  0  0  0  0  0  0  0  0
  149.9912  142.8142  157.3611 H   0  0  0  0  0  0  0  0  0  0  0  0
  149.7319  141.4511  158.4443 H   0  0  0  0  0  0  0  0  0  0  0  0
  152.0001  140.6044  154.7055 H   0  0  0  0  0  0  0  0  0  0  0  0
  152.8001  139.4019  155.6946 H   0  0  0  0  0  0  0  0  0  0  0  0
  151.8043  138.3813  153.6699 H   0  0  0  0  0  0  0  0  0  0  0  0
  150.2347  139.0417  154.0617 H   0  0  0  0  0  0  0  0  0  0  0  0
  150.1001  140.4415  156.1491 H   0  0  0  0  0  0  0  0  0  0  0  0
  1  2  1  0  0  0  0
  1 25  1  0  0  0  0
  1 26  1  0  0  0  0
  1 27  1  0  0  0  0
  2  3  1  0  0  0  0
  3  9  1  0  0  0  0
  3  4  2  0  0  0  0
  4  5  1  0  0  0  0
  4 28  1  0  0  0  0
  5  6  2  0  0  0  0
  5 29  1  0  0  0  0
  6  7  1  0  0  0  0
  6  8  1  0  0  0  0
  7 30  1  0  0  0  0
  7 31  1  0  0  0  0
  7 32  1  0  0  0  0
  8  9  2  0  0  0  0
  9 10  1  0  0  0  0
 10 11  1  0  0  0  0
 10 33  1  0  0  0  0
 11 12  2  0  0  0  0
 11 13  1  0  0  0  0
 13 14  1  0  0  0  0
 13 34  1  0  0  0  0
 14 24  1  0  0  0  0
 14 15  1  0  0  0  0
 14 35  1  0  0  0  0
 15 16  1  0  0  0  0
 15 36  1  0  0  0  0
 15 37  1  0  0  0  0
 16 17  1  0  0  0  0
 16 38  1  0  0  0  0
 16 39  1  0  0  0  0
 17 18  1  0  0  0  0
 17 23  1  0  0  0  0
 17 53  1  0  0  0  0
 18 22  1  0  0  0  0
 18 19  1  0  0  0  0
 18 40  1  0  0  0  0
 19 20  1  0  0  0  0
 19 41  1  0  0  0  0
 19 42  1  0  0  0  0
 20 21  1  0  0  0  0
 20 43  1  0  0  0  0
 20 44  1  0  0  0  0
 21 22  1  0  0  0  0
 21 45  1  0  0  0  0
 21 46  1  0  0  0  0
 22 47  1  0  0  0  0
 22 48  1  0  0  0  0
 23 24  1  0  0  0  0
 23 49  1  0  0  0  0
 23 50  1  0  0  0  0
 24 51  1  0  0  0  0
 24 52  1  0  0  0  0
M  CHG  1  17   1
M  END
> <s_m_source_file>
AV-unprocessed.smi

> <i_m_source_file_index>
2399

> <i_lp_mmshare_version>
43012

> <i_f3d_flags>
0

> <s_epik_input>
W0NIM11PYzFbY0hdW2NIXWMoW0NIM10pbmMxW05IXUMoPU8pW05IXVtDSF0yW0NIMl1bQ0gyXU4oW0NIMl1bQ0gyXTIpW0NIXTNbQ0gyXVtDSDJdW0NIMl1bQ0gyXTM=

> <s_epik_cmdline>
J2VwaWtfcHl0aG9uJywgJy1waCcsICc3LjAnLCAnLXRuJywgJzgnLCAnLW1hJywgJzIwMCcsICctbWV0YWxfYmluZGluZycsICctaW1hZScsICc8aW5maWxlLm1hZT4nLCAnLW9tYWUnLCAnPG91dGZpbGUubWFlPic=

> <r_lp_tautomer_probability>
1

> <r_epik_Ionization_Penalty>
0.00183805

> <r_epik_Ionization_Penalty_Charging>
0.00179121

> <r_epik_Ionization_Penalty_Neutral>
4.68398e-05

> <r_epik_State_Penalty>
0.00121448

> <r_epik_Charging_Adjusted_Penalty>
0.0030057

> <i_epik_Tot_Q>
1

> <i_epik_Tot_abs_Q>
1

> <r_epik_Metal_State_Penalty>
-0

> <b_epik_Metal_Only>
0

> <s_lp_Force_Field>
OPLS_2005

> <r_lp_Energy>
41.4811

> <b_lp_Chiralities_Consistent>
1

> <s_lp_Variant>
AV-unprocessed.smi:2399-1

> <Gold.Version>
5.8.1

> <Gold.Id.Protein>
6NUR|6NUR_protein|mol2

> <Gold.PLP.Fitness>
41.6517

> <Gold.PLP.PLP>
-37.9434

> <Gold.PLP.part.hbond>
-2.2086

> <Gold.PLP.part.metal>
0.0000

> <Gold.PLP.part.buried>
-3.9888

> <Gold.PLP.part.nonpolar>
-32.1221

> <Gold.PLP.part.repulsive>
0.3780

> <Gold.PLP.ligand.clash>
0.0000

> <Gold.PLP.ligand.torsion>
1.0216

> <Gold.PLP.Chemscore.Hbond>
1.8960

> <Gold.PLP.Chemscore.CHOScore>
0.0000

> <Gold.PLP.Chemscore.Metal>
0.0000

> <Gold.Chemscore.Hbonds>
donor molecule, donor type, donor heavy atom, donor atom, acceptor molecule, acceptor atom, score
      L1  H    10    33       P1  7948  0.90
      L1  H    13    34       P1  7948  0.93

> <Gold.PLP.Chemscore.Internal.Correction>
0.0636

> <Gold.Rescore>
     Score         DG    S(hbond)    S(metal)    S(lipo)     H(rot)  DE(clash)    DE(int)     intcor
     14.95     -17.51       1.25        0.00      97.45       1.38       0.41       2.15       ----

> <Gold.Chemscore.Fitness>
14.9543

> <Gold.Chemscore.DG>
-17.5139

> <Gold.Chemscore.ZeroCoef>
-5.4800

> <Gold.Chemscore.Hbond>
1.2492

> <Gold.Chemscore.Metal>
0.0000

> <Gold.Chemscore.Lipo>
97.4472

> <Gold.Chemscore.Internal_Hbond>
0.0000

> <Gold.Chemscore.DEClash>
0.4065

> <Gold.Chemscore.DEInternal>
2.1530

> <Gold.Chemscore.Rot>
1.3828

> <Gold.Chemscore.Internal.Correction>
   9.000000E+99

> <Gold.Chemscore.Hbonds>
donor molecule, donor type, donor heavy atom, donor atom, acceptor molecule, acceptor atom, score
      L1  H    10    33       P1  7948  0.18
      L1  H    13    34       P1  7948  0.55

> <Gold.Chemscore.Hbond.Weighted>
-4.1725

> <Gold.Chemscore.Metal.Weighted>
-0.0000

> <Gold.Chemscore.Lipo.Weighted>
-11.4013

> <Gold.Chemscore.Internal_Hbond.Weighted>
0.0000

> <Gold.Chemscore.DEClash.Weighted>
0.4065

> <Gold.Chemscore.DEInternal.Weighted>
2.1530

> <Gold.Chemscore.Rot.Weighted>
3.5399

> <Gold.Chemscore.Internal.Correction.Weighted>
   9.000000E+99

> <Gold.Protein.RotatedTorsions>
[ 6907 6896 6895 6894 ] final  130.80 input  -60.11 | X-H torsion
[ 7974 7965 7964 7962 ] final  -72.65 input  175.53 | X-H torsion
[ 8008 7997 7996 7995 ] final  -59.97 input   59.86 | X-H torsion
[ 10167 10162 10161 10158 ] final  128.11 input  -65.29 | X-H torsion
[ 10718 10713 10712 10709 ] final -108.08 input   66.30 | X-H torsion
[ 10763 10752 10751 10750 ] final   62.64 input  -60.55 | X-H torsion
[ 11005 11000 10999 10996 ] final  135.11 input  -57.11 | X-H torsion

> <Gold.Protein.ActiveResidues>
 VAL166  LYS551  ARG553  GLY616  TRP617  ASP618  TYR619  PRO620  LYS621  CYS622 
 ASP623  PHE694  ASN695  SER759  ASP760  ASP761  ALA762  ILE779  LEU786  VAL792 
 PHE793  MET794  SER795  GLU796  ALA797  LYS798  CYS799  TRP800  GLU811  SER814 

> <Gold.Protein.RotatedAtoms>
  152.3490  133.6156  159.5930 H   0  0  0  0  0  0  0  0  0  0  0  0  # atno 6907 bound_to 6896
  150.7525  133.9604  159.3522 H   0  0  0  0  0  0  0  0  0  0  0  0  # atno 6908 bound_to 6896
  151.7458  135.0845  160.0374 H   0  0  0  0  0  0  0  0  0  0  0  0  # atno 6909 bound_to 6896
  145.6624  140.9248  143.0926 H   0  0  0  0  0  0  0  0  0  0  0  0  # atno 7974 bound_to 7965
  154.4377  140.1050  156.6200 H   0  0  0  0  0  0  0  0  0  0  0  0  # atno 8008 bound_to 7997
  155.5717  140.3489  155.4498 H   0  0  0  0  0  0  0  0  0  0  0  0  # atno 8009 bound_to 7997
  156.0384  140.1276  157.0171 H   0  0  0  0  0  0  0  0  0  0  0  0  # atno 8010 bound_to 7997
  139.5544  144.6837  151.4227 H   0  0  0  0  0  0  0  0  0  0  0  0  # atno 10167 bound_to 10162
  156.0468  130.5695  150.7911 H   0  0  0  0  0  0  0  0  0  0  0  0  # atno 10718 bound_to 10713
  152.9989  135.5458  154.6225 H   0  0  0  0  0  0  0  0  0  0  0  0  # atno 10763 bound_to 10752
  154.5521  135.2827  155.1001 H   0  0  0  0  0  0  0  0  0  0  0  0  # atno 10764 bound_to 10752
  154.2237  135.6446  153.5205 H   0  0  0  0  0  0  0  0  0  0  0  0  # atno 10765 bound_to 10752
  139.9958  134.9498  156.9961 H   0  0  0  0  0  0  0  0  0  0  0  0  # atno 11005 bound_to 11000
  144.7084  139.8466  143.7422 LP  0  0  0  0  0  0  0  0  0  0  0  0  # atno 17320 bound_to 7965
  146.1114  139.4119  143.0285 LP  0  0  0  0  0  0  0  0  0  0  0  0  # atno 17321 bound_to 7965
  140.6814  143.8074  150.7126 LP  0  0  0  0  0  0  0  0  0  0  0  0  # atno 17342 bound_to 10162
  140.1528  143.4343  152.2119 LP  0  0  0  0  0  0  0  0  0  0  0  0  # atno 17343 bound_to 10162
  157.5351  131.0938  150.9903 LP  0  0  0  0  0  0  0  0  0  0  0  0  # atno 17370 bound_to 10713
  157.0199  130.5670  149.5330 LP  0  0  0  0  0  0  0  0  0  0  0  0  # atno 17371 bound_to 10713
  140.4820  134.1279  155.7218 LP  0  0  0  0  0  0  0  0  0  0  0  0  # atno 17394 bound_to 11000
  141.1603  133.8805  157.1865 LP  0  0  0  0  0  0  0  0  0  0  0  0  # atno 17395 bound_to 11000

$$$$
