AV-unprocessed.smi:60|AV-procd|sdf|593|dock3
  -GOLD-   2262016483D 1   1.00000     0.00000
 Structure written by MMmdl.
 36 37  0  0  0  0  0  0  0  0  1 V2000
  153.4911  139.2620  158.1414 O   0  0  0  0  0  0  0  0  0  0  0  0
  152.5329  139.7337  157.5314 C   0  0  0  0  0  0  0  0  0  0  0  0
  152.2621  139.2971  156.2309 N   0  0  0  0  0  0  0  0  0  0  0  0
  151.2104  139.7382  155.4290 C   0  0  0  0  0  0  0  0  0  0  0  0
  151.0689  139.2901  154.2911 O   0  0  0  0  0  0  0  0  0  0  0  0
  150.3455  140.6992  155.9926 N   0  0  0  0  0  0  0  0  0  0  0  0
  149.2679  141.1982  155.1570 C   0  0  0  0  0  0  0  0  0  0  0  0
  148.6842  140.1305  154.4830 O   0  0  0  0  0  0  0  0  0  0  0  0
  147.6514  140.5291  153.5954 C   0  0  0  0  0  0  0  0  0  0  0  0
  146.9622  139.2799  153.0338 C   0  0  0  0  0  0  0  0  0  0  0  0
  147.7217  138.7421  151.9725 O   0  0  0  0  0  0  0  0  0  0  0  0
  150.5853  141.1771  157.2699 C   0  0  0  0  0  0  0  0  0  0  0  0
  151.6086  140.7476  158.0517 C   0  0  0  0  0  0  0  0  0  0  0  0
  151.8347  141.2933  159.4540 C   0  0  0  0  0  0  0  0  0  0  0  0
  151.9472  142.8068  159.4978 C   0  0  0  0  0  0  0  0  0  0  0  0
  151.8475  143.4898  160.7287 C   0  0  0  0  0  0  0  0  0  0  0  0
  151.9578  144.8933  160.7712 C   0  0  0  0  0  0  0  0  0  0  0  0
  152.1658  145.6200  159.5832 C   0  0  0  0  0  0  0  0  0  0  0  0
  152.2635  144.9423  158.3524 C   0  0  0  0  0  0  0  0  0  0  0  0
  152.1551  143.5385  158.3094 C   0  0  0  0  0  0  0  0  0  0  0  0
  152.8825  138.6039  155.8385 H   0  0  0  0  0  0  0  0  0  0  0  0
  148.5436  141.7235  155.7845 H   0  0  0  0  0  0  0  0  0  0  0  0
  149.6765  141.9123  154.4394 H   0  0  0  0  0  0  0  0  0  0  0  0
  146.9216  141.1177  154.1539 H   0  0  0  0  0  0  0  0  0  0  0  0
  148.0318  141.1629  152.7922 H   0  0  0  0  0  0  0  0  0  0  0  0
  146.8027  138.5304  153.8097 H   0  0  0  0  0  0  0  0  0  0  0  0
  145.9832  139.5468  152.6354 H   0  0  0  0  0  0  0  0  0  0  0  0
  148.1688  137.9698  152.2842 H   0  0  0  0  0  0  0  0  0  0  0  0
  149.9179  141.9283  157.6680 H   0  0  0  0  0  0  0  0  0  0  0  0
  151.0407  140.9513  160.1196 H   0  0  0  0  0  0  0  0  0  0  0  0
  152.7570  140.8743  159.8582 H   0  0  0  0  0  0  0  0  0  0  0  0
  151.6888  142.9391  161.6442 H   0  0  0  0  0  0  0  0  0  0  0  0
  151.8836  145.4123  161.7153 H   0  0  0  0  0  0  0  0  0  0  0  0
  152.2504  146.6962  159.6158 H   0  0  0  0  0  0  0  0  0  0  0  0
  152.4237  145.4993  157.4409 H   0  0  0  0  0  0  0  0  0  0  0  0
  152.2353  143.0262  157.3617 H   0  0  0  0  0  0  0  0  0  0  0  0
  1  2  2  0  0  0  0
  2 13  1  0  0  0  0
  2  3  1  0  0  0  0
  3 21  1  0  0  0  0
  3  4  1  0  0  0  0
  4  5  2  0  0  0  0
  4  6  1  0  0  0  0
  6  7  1  0  0  0  0
  6 12  1  0  0  0  0
  7  8  1  0  0  0  0
  7 22  1  0  0  0  0
  7 23  1  0  0  0  0
  8  9  1  0  0  0  0
  9 10  1  0  0  0  0
  9 24  1  0  0  0  0
  9 25  1  0  0  0  0
 10 11  1  0  0  0  0
 10 26  1  0  0  0  0
 10 27  1  0  0  0  0
 11 28  1  0  0  0  0
 12 13  2  0  0  0  0
 12 29  1  0  0  0  0
 13 14  1  0  0  0  0
 14 15  1  0  0  0  0
 14 30  1  0  0  0  0
 14 31  1  0  0  0  0
 15 20  1  0  0  0  0
 15 16  2  0  0  0  0
 16 17  1  0  0  0  0
 16 32  1  0  0  0  0
 17 18  2  0  0  0  0
 17 33  1  0  0  0  0
 18 19  1  0  0  0  0
 18 34  1  0  0  0  0
 19 20  2  0  0  0  0
 19 35  1  0  0  0  0
 20 36  1  0  0  0  0
M  END
> <s_m_source_file>
AV-unprocessed.smi

> <i_m_source_file_index>
60

> <i_lp_mmshare_version>
43012

> <i_f3d_flags>
0

> <s_epik_input>
W09IXVtDSDJdW0NIMl1PW0NIMl1uKGMoPU8pW25IXWMxPU8pW2NIXWMxW0NIMl1jMltjSF1bY0hdW2NIXVtjSF1bY0hdMg==

> <s_epik_cmdline>
J2VwaWtfcHl0aG9uJywgJy1waCcsICc3LjAnLCAnLXRuJywgJzgnLCAnLW1hJywgJzIwMCcsICctbWV0YWxfYmluZGluZycsICctaW1hZScsICc8aW5maWxlLm1hZT4nLCAnLW9tYWUnLCAnPG91dGZpbGUubWFlPic=

> <r_lp_tautomer_probability>
0.999537

> <r_epik_Ionization_Penalty>
0.00298861

> <r_epik_Ionization_Penalty_Charging>
0.00298856

> <r_epik_Ionization_Penalty_Neutral>
5.3532e-08

> <r_epik_State_Penalty>
0.00209779

> <r_epik_Charging_Adjusted_Penalty>
0.00508635

> <i_epik_Tot_Q>
0

> <i_epik_Tot_abs_Q>
0

> <r_epik_Metal_State_Penalty>
1.06718

> <b_epik_Metal_Only>
0

> <s_epik_Chemistry_Notes>
This compound contains an acetal/aminal-like group ( X-CH(R)-Y where X, Y are N, S, or O) that may be acid/base labile, releasing an aldehyde.

> <s_lp_Force_Field>
OPLS_2005

> <r_lp_Energy>
6.34754

> <b_lp_Chiralities_Consistent>
1

> <s_lp_Variant>
AV-unprocessed.smi:60-1

> <Gold.Version>
5.8.1

> <Gold.Id.Protein>
6NUR|6NUR_protein|mol2

> <Gold.PLP.Fitness>
51.6384

> <Gold.PLP.PLP>
-44.6649

> <Gold.PLP.part.hbond>
-4.1043

> <Gold.PLP.part.metal>
0.0000

> <Gold.PLP.part.buried>
-2.7273

> <Gold.PLP.part.nonpolar>
-36.4770

> <Gold.PLP.part.repulsive>
0.4145

> <Gold.PLP.ligand.clash>
0.0000

> <Gold.PLP.ligand.torsion>
0.5736

> <Gold.PLP.Chemscore.Hbond>
2.6862

> <Gold.PLP.Chemscore.CHOScore>
0.0000

> <Gold.PLP.Chemscore.Metal>
0.0000

> <Gold.Chemscore.Hbonds>
donor molecule, donor type, donor heavy atom, donor atom, acceptor molecule, acceptor atom, score
      L1  H    11    28       P1  7948  0.93
      P1  H  7954  7966       L1    11  0.07
      P1  H  7989  7998       L1     5  0.70
      P1  H  7997  8009       L1     1  1.00

> <Gold.PLP.Chemscore.Internal.Correction>
0.0620

> <Gold.Rescore>
     Score         DG    S(hbond)    S(metal)    S(lipo)     H(rot)  DE(clash)    DE(int)     intcor
     11.12     -13.96       1.36        0.00     105.52       3.28       0.40       2.44       ----

> <Gold.Chemscore.Fitness>
11.1221

> <Gold.Chemscore.DG>
-13.9632

> <Gold.Chemscore.ZeroCoef>
-5.4800

> <Gold.Chemscore.Hbond>
1.3601

> <Gold.Chemscore.Metal>
0.0000

> <Gold.Chemscore.Lipo>
105.5187

> <Gold.Chemscore.Internal_Hbond>
0.0000

> <Gold.Chemscore.DEClash>
0.4036

> <Gold.Chemscore.DEInternal>
2.4375

> <Gold.Chemscore.Rot>
3.2832

> <Gold.Chemscore.Internal.Correction>
   9.000000E+99

> <Gold.Chemscore.Hbonds>
donor molecule, donor type, donor heavy atom, donor atom, acceptor molecule, acceptor atom, score
      L1  H    11    28       P1  7948  0.91
      P1  H  7989  7998       L1     5  0.07
      P1  H  7997  8009       L1     1  0.25

> <Gold.Chemscore.Hbond.Weighted>
-4.5426

> <Gold.Chemscore.Metal.Weighted>
-0.0000

> <Gold.Chemscore.Lipo.Weighted>
-12.3457

> <Gold.Chemscore.Internal_Hbond.Weighted>
0.0000

> <Gold.Chemscore.DEClash.Weighted>
0.4036

> <Gold.Chemscore.DEInternal.Weighted>
2.4375

> <Gold.Chemscore.Rot.Weighted>
8.4050

> <Gold.Chemscore.Internal.Correction.Weighted>
   9.000000E+99

> <Gold.Protein.RotatedTorsions>
[ 6907 6896 6895 6894 ] final -167.51 input  -60.11 | X-H torsion
[ 7974 7965 7964 7962 ] final  -94.58 input  175.53 | X-H torsion
[ 8008 7997 7996 7995 ] final  134.90 input   59.86 | X-H torsion
[ 10167 10162 10161 10158 ] final   62.49 input  -65.29 | X-H torsion
[ 10718 10713 10712 10709 ] final  -58.26 input   66.30 | X-H torsion
[ 10763 10752 10751 10750 ] final   45.40 input  -60.55 | X-H torsion
[ 11005 11000 10999 10996 ] final   65.59 input  -57.11 | X-H torsion

> <Gold.Protein.ActiveResidues>
 VAL166  LYS551  ARG553  GLY616  TRP617  ASP618  TYR619  PRO620  LYS621  CYS622 
 ASP623  PHE694  ASN695  SER759  ASP760  ASP761  ALA762  ILE779  LEU786  VAL792 
 PHE793  MET794  SER795  GLU796  ALA797  LYS798  CYS799  TRP800  GLU811  SER814 

> <Gold.Protein.RotatedAtoms>
  151.4607  133.3593  159.2808 H   0  0  0  0  0  0  0  0  0  0  0  0  # atno 6907 bound_to 6896
  150.9027  134.8442  159.7382 H   0  0  0  0  0  0  0  0  0  0  0  0  # atno 6908 bound_to 6896
  152.4889  134.4529  159.9632 H   0  0  0  0  0  0  0  0  0  0  0  0  # atno 6909 bound_to 6896
  145.3713  140.9506  143.2445 H   0  0  0  0  0  0  0  0  0  0  0  0  # atno 7974 bound_to 7965
  156.3001  140.2484  156.3492 H   0  0  0  0  0  0  0  0  0  0  0  0  # atno 8008 bound_to 7997
  154.8982  140.0407  157.1897 H   0  0  0  0  0  0  0  0  0  0  0  0  # atno 8009 bound_to 7997
  154.8528  140.2908  155.5591 H   0  0  0  0  0  0  0  0  0  0  0  0  # atno 8010 bound_to 7997
  140.1433  144.4533  150.6799 H   0  0  0  0  0  0  0  0  0  0  0  0  # atno 10167 bound_to 10162
  156.1148  130.4171  150.0553 H   0  0  0  0  0  0  0  0  0  0  0  0  # atno 10718 bound_to 10713
  152.9825  135.6040  154.3431 H   0  0  0  0  0  0  0  0  0  0  0  0  # atno 10763 bound_to 10752
  154.3126  135.2771  155.2560 H   0  0  0  0  0  0  0  0  0  0  0  0  # atno 10764 bound_to 10752
  154.4762  135.5929  153.6413 H   0  0  0  0  0  0  0  0  0  0  0  0  # atno 10765 bound_to 10752
  139.9885  134.6630  156.0133 H   0  0  0  0  0  0  0  0  0  0  0  0  # atno 11005 bound_to 11000
  144.8574  139.5229  143.6828 LP  0  0  0  0  0  0  0  0  0  0  0  0  # atno 17320 bound_to 7965
  146.2884  139.7068  142.9179 LP  0  0  0  0  0  0  0  0  0  0  0  0  # atno 17321 bound_to 7965
  140.6747  143.2300  151.5537 LP  0  0  0  0  0  0  0  0  0  0  0  0  # atno 17342 bound_to 10162
  139.5461  144.2517  152.1445 LP  0  0  0  0  0  0  0  0  0  0  0  0  # atno 17343 bound_to 10162
  156.8507  130.9458  151.3625 LP  0  0  0  0  0  0  0  0  0  0  0  0  # atno 17370 bound_to 10713
  157.6331  130.8745  149.9310 LP  0  0  0  0  0  0  0  0  0  0  0  0  # atno 17371 bound_to 10713
  141.1545  133.6544  156.4118 LP  0  0  0  0  0  0  0  0  0  0  0  0  # atno 17394 bound_to 11000
  140.4955  134.6535  157.5228 LP  0  0  0  0  0  0  0  0  0  0  0  0  # atno 17395 bound_to 11000

$$$$
