AV-unprocessed.smi:2528|AV-procd|sdf|9957|dock9
  -GOLD-   2272013593D 1   1.00000     0.00000
 Structure written by MMmdl.
 43 45  0  0  0  0  0  0  0  0  1 V2000
  149.1764  136.2790  156.3240 O   0  0  0  0  0  0  0  0  0  0  0  0
  149.0426  136.3199  155.1009 C   0  0  0  0  0  0  0  0  0  0  0  0
  148.7258  137.4343  154.4259 N   0  0  0  0  0  0  0  0  0  0  0  0
  148.5197  138.7528  155.0165 C   0  0  0  0  0  0  0  0  0  0  0  0
  149.4857  139.7959  154.4151 C   0  0  1  0  0  0  0  0  0  0  0  0
  149.4314  141.1599  155.1318 C   0  0  0  0  0  0  0  0  0  0  0  0
  150.0762  141.1428  156.4395 N   0  0  0  0  0  0  0  0  0  0  0  0
  150.0256  142.4630  157.0670 C   0  0  0  0  0  0  0  0  0  0  0  0
  150.6741  142.4787  158.4600 C   0  0  0  0  0  0  0  0  0  0  0  0
  152.1262  141.9886  158.3752 C   0  0  0  0  0  0  0  0  0  0  0  0
  152.1789  140.6235  157.6731 C   0  0  0  0  0  0  0  0  0  0  0  0
  151.4581  140.6727  156.3095 C   0  0  1  0  0  0  0  0  0  0  0  0
  151.5051  139.2916  155.6288 C   0  0  0  0  0  0  0  0  0  0  0  0
  150.8363  139.3316  154.3703 O   0  0  0  0  0  0  0  0  0  0  0  0
  149.1912  135.2743  154.2684 N   0  0  0  0  0  0  0  0  0  0  0  0
  149.5166  133.9304  154.5945 C   0  0  0  0  0  0  0  0  0  0  0  0
  148.9347  132.9529  153.7556 C   0  0  0  0  0  0  0  0  0  0  0  0
  149.1935  131.5894  153.9962 C   0  0  0  0  0  0  0  0  0  0  0  0
  150.0290  131.2377  155.0713 C   0  0  0  0  0  0  0  0  0  0  0  0
  150.5679  132.2723  155.8580 C   0  0  0  0  0  0  0  0  0  0  0  0
  150.3209  133.5793  155.6291 N   0  0  0  0  0  0  0  0  0  0  0  0
  148.6362  137.3711  153.4225 H   0  0  0  0  0  0  0  0  0  0  0  0
  147.4927  139.0451  154.7967 H   0  0  0  0  0  0  0  0  0  0  0  0
  148.5908  138.7173  156.1043 H   0  0  0  0  0  0  0  0  0  0  0  0
  149.1810  139.9600  153.3808 H   0  0  0  0  0  0  0  0  0  0  0  0
  149.9204  141.9031  154.5001 H   0  0  0  0  0  0  0  0  0  0  0  0
  148.3940  141.4809  155.2324 H   0  0  0  0  0  0  0  0  0  0  0  0
  150.5236  143.1952  156.4294 H   0  0  0  0  0  0  0  0  0  0  0  0
  148.9879  142.7865  157.1550 H   0  0  0  0  0  0  0  0  0  0  0  0
  150.6403  143.4844  158.8799 H   0  0  0  0  0  0  0  0  0  0  0  0
  150.1067  141.8380  159.1364 H   0  0  0  0  0  0  0  0  0  0  0  0
  152.7247  142.7102  157.8180 H   0  0  0  0  0  0  0  0  0  0  0  0
  152.5636  141.9203  159.3716 H   0  0  0  0  0  0  0  0  0  0  0  0
  153.2172  140.3173  157.5403 H   0  0  0  0  0  0  0  0  0  0  0  0
  151.7123  139.8705  158.3101 H   0  0  0  0  0  0  0  0  0  0  0  0
  152.0020  141.3717  155.6715 H   0  0  0  0  0  0  0  0  0  0  0  0
  152.5380  138.9873  155.4590 H   0  0  0  0  0  0  0  0  0  0  0  0
  151.0598  138.5315  156.2702 H   0  0  0  0  0  0  0  0  0  0  0  0
  149.0549  135.4615  153.2863 H   0  0  0  0  0  0  0  0  0  0  0  0
  148.2949  133.2406  152.9339 H   0  0  0  0  0  0  0  0  0  0  0  0
  148.7585  130.8276  153.3667 H   0  0  0  0  0  0  0  0  0  0  0  0
  150.2509  130.2031  155.2877 H   0  0  0  0  0  0  0  0  0  0  0  0
  151.2138  132.0452  156.6931 H   0  0  0  0  0  0  0  0  0  0  0  0
  1  2  2  0  0  0  0
  2  3  1  0  0  0  0
  2 15  1  0  0  0  0
  3  4  1  0  0  0  0
  3 22  1  0  0  0  0
  4  5  1  0  0  0  0
  4 23  1  0  0  0  0
  4 24  1  0  0  0  0
  5 14  1  0  0  0  0
  5  6  1  0  0  0  0
  5 25  1  0  0  0  0
  6  7  1  0  0  0  0
  6 26  1  0  0  0  0
  6 27  1  0  0  0  0
  7 12  1  0  0  0  0
  7  8  1  0  0  0  0
  8  9  1  0  0  0  0
  8 28  1  0  0  0  0
  8 29  1  0  0  0  0
  9 10  1  0  0  0  0
  9 30  1  0  0  0  0
  9 31  1  0  0  0  0
 10 11  1  0  0  0  0
 10 32  1  0  0  0  0
 10 33  1  0  0  0  0
 11 12  1  0  0  0  0
 11 34  1  0  0  0  0
 11 35  1  0  0  0  0
 12 13  1  0  0  0  0
 12 36  1  0  0  0  0
 13 14  1  0  0  0  0
 13 37  1  0  0  0  0
 13 38  1  0  0  0  0
 15 16  1  0  0  0  0
 15 39  1  0  0  0  0
 16 21  1  0  0  0  0
 16 17  2  0  0  0  0
 17 18  1  0  0  0  0
 17 40  1  0  0  0  0
 18 19  2  0  0  0  0
 18 41  1  0  0  0  0
 19 20  1  0  0  0  0
 19 42  1  0  0  0  0
 20 21  2  0  0  0  0
 20 43  1  0  0  0  0
M  END
> <s_m_source_file>
AV-unprocessed.smi

> <i_m_source_file_index>
2528

> <i_lp_mmshare_version>
43012

> <i_f3d_flags>
0

> <s_epik_input>
bjFbY0hdW2NIXVtjSF1bY0hdYzFbTkhdQyg9TylbTkhdW0NIMl1bQ0BIXShbQ0gyXTIpT1tDSDJdW0NAQEhdKE4yMylbQ0gyXVtDSDJdW0NIMl1bQ0gyXTM=

> <s_epik_cmdline>
J2VwaWtfcHl0aG9uJywgJy1waCcsICc3LjAnLCAnLXRuJywgJzgnLCAnLW1hJywgJzIwMCcsICctbWV0YWxfYmluZGluZycsICctaW1hZScsICc8aW5maWxlLm1hZT4nLCAnLW9tYWUnLCAnPG91dGZpbGUubWFlPic=

> <r_epik_Ionization_Penalty>
1.14192

> <r_epik_Ionization_Penalty_Charging>
0

> <r_epik_Ionization_Penalty_Neutral>
1.14192

> <r_epik_State_Penalty>
1.20248

> <r_epik_Charging_Adjusted_Penalty>
1.20248

> <i_epik_Tot_Q>
0

> <i_epik_Tot_abs_Q>
0

> <r_epik_Metal_State_Penalty>
1.20248

> <b_epik_Metal_Only>
0

> <s_lp_Force_Field>
OPLS_2005

> <r_lp_Energy>
38.6775

> <b_lp_Chiralities_Consistent>
1

> <s_lp_Variant>
AV-unprocessed.smi:2528-10

> <Gold.Version>
5.8.1

> <Gold.Id.Protein>
6NUR|6NUR_protein|mol2

> <Gold.PLP.Fitness>
40.9295

> <Gold.PLP.PLP>
-32.4950

> <Gold.PLP.part.hbond>
-3.0000

> <Gold.PLP.part.metal>
0.0000

> <Gold.PLP.part.buried>
-2.4776

> <Gold.PLP.part.nonpolar>
-27.0055

> <Gold.PLP.part.repulsive>
0.2524

> <Gold.PLP.ligand.clash>
0.0000

> <Gold.PLP.ligand.torsion>
0.2749

> <Gold.PLP.Chemscore.Hbond>
2.9920

> <Gold.PLP.Chemscore.CHOScore>
0.0000

> <Gold.PLP.Chemscore.Metal>
0.0000

> <Gold.Chemscore.Hbonds>
donor molecule, donor type, donor heavy atom, donor atom, acceptor molecule, acceptor atom, score
      L1  H     3    22       P1  7948  0.90
      L1  H    15    39       P1  7948  1.00
      P1  H  7989  7998       L1    14  0.95

> <Gold.PLP.Chemscore.Internal.Correction>
0.0085

> <Gold.Rescore>
     Score         DG    S(hbond)    S(metal)    S(lipo)     H(rot)  DE(clash)    DE(int)     intcor
     16.08     -17.46       1.72        0.00      81.12       1.27       0.12       1.27       ----

> <Gold.Chemscore.Fitness>
16.0753

> <Gold.Chemscore.DG>
-17.4585

> <Gold.Chemscore.ZeroCoef>
-5.4800

> <Gold.Chemscore.Hbond>
1.7179

> <Gold.Chemscore.Metal>
0.0000

> <Gold.Chemscore.Lipo>
81.1204

> <Gold.Chemscore.Internal_Hbond>
0.0000

> <Gold.Chemscore.DEClash>
0.1156

> <Gold.Chemscore.DEInternal>
1.2677

> <Gold.Chemscore.Rot>
1.2696

> <Gold.Chemscore.Internal.Correction>
   9.000000E+99

> <Gold.Chemscore.Hbonds>
donor molecule, donor type, donor heavy atom, donor atom, acceptor molecule, acceptor atom, score
      L1  H     3    22       P1  7948  0.87
      L1  H    15    39       P1  7948  0.54
      P1  H  7989  7998       L1    14  0.10

> <Gold.Chemscore.Hbond.Weighted>
-5.7376

> <Gold.Chemscore.Metal.Weighted>
-0.0000

> <Gold.Chemscore.Lipo.Weighted>
-9.4911

> <Gold.Chemscore.Internal_Hbond.Weighted>
0.0000

> <Gold.Chemscore.DEClash.Weighted>
0.1156

> <Gold.Chemscore.DEInternal.Weighted>
1.2677

> <Gold.Chemscore.Rot.Weighted>
3.2502

> <Gold.Chemscore.Internal.Correction.Weighted>
   9.000000E+99

> <Gold.Protein.RotatedTorsions>
[ 6907 6896 6895 6894 ] final -110.02 input  -60.11 | X-H torsion
[ 7974 7965 7964 7962 ] final  161.88 input  175.53 | X-H torsion
[ 8008 7997 7996 7995 ] final -130.41 input   59.86 | X-H torsion
[ 10167 10162 10161 10158 ] final   12.09 input  -65.29 | X-H torsion
[ 10718 10713 10712 10709 ] final  126.04 input   66.30 | X-H torsion
[ 10763 10752 10751 10750 ] final  -90.73 input  -60.55 | X-H torsion
[ 11005 11000 10999 10996 ] final   70.44 input  -57.11 | X-H torsion

> <Gold.Protein.ActiveResidues>
 VAL166  LYS551  ARG553  GLY616  TRP617  ASP618  TYR619  PRO620  LYS621  CYS622 
 ASP623  PHE694  ASN695  SER759  ASP760  ASP761  ALA762  ILE779  LEU786  VAL792 
 PHE793  MET794  SER795  GLU796  ALA797  LYS798  CYS799  TRP800  GLU811  SER814 

> <Gold.Protein.RotatedAtoms>
  150.7598  133.9443  159.3465 H   0  0  0  0  0  0  0  0  0  0  0  0  # atno 6907 bound_to 6896
  151.7354  135.0864  160.0316 H   0  0  0  0  0  0  0  0  0  0  0  0  # atno 6908 bound_to 6896
  152.3563  133.6203  159.6017 H   0  0  0  0  0  0  0  0  0  0  0  0  # atno 6909 bound_to 6896
  144.7664  139.7960  143.6313 H   0  0  0  0  0  0  0  0  0  0  0  0  # atno 7974 bound_to 7965
  155.2952  140.0450  157.3026 H   0  0  0  0  0  0  0  0  0  0  0  0  # atno 8008 bound_to 7997
  154.5518  140.2319  155.8440 H   0  0  0  0  0  0  0  0  0  0  0  0  # atno 8009 bound_to 7997
  156.1973  140.3035  155.9461 H   0  0  0  0  0  0  0  0  0  0  0  0  # atno 8010 bound_to 7997
  140.6090  143.8448  150.7044 H   0  0  0  0  0  0  0  0  0  0  0  0  # atno 10167 bound_to 10162
  157.5453  131.1096  150.8792 H   0  0  0  0  0  0  0  0  0  0  0  0  # atno 10718 bound_to 10713
  154.6688  135.5294  153.8111 H   0  0  0  0  0  0  0  0  0  0  0  0  # atno 10763 bound_to 10752
  153.0488  135.6524  154.0758 H   0  0  0  0  0  0  0  0  0  0  0  0  # atno 10764 bound_to 10752
  154.0659  135.2958  155.3296 H   0  0  0  0  0  0  0  0  0  0  0  0  # atno 10765 bound_to 10752
  139.9598  134.7081  156.0672 H   0  0  0  0  0  0  0  0  0  0  0  0  # atno 11005 bound_to 11000
  146.1775  139.4952  142.9888 LP  0  0  0  0  0  0  0  0  0  0  0  0  # atno 17320 bound_to 7965
  145.6457  141.0274  143.1787 LP  0  0  0  0  0  0  0  0  0  0  0  0  # atno 17321 bound_to 7965
  140.2012  143.3958  152.1790 LP  0  0  0  0  0  0  0  0  0  0  0  0  # atno 17342 bound_to 10162
  139.5347  144.7196  151.4936 LP  0  0  0  0  0  0  0  0  0  0  0  0  # atno 17343 bound_to 10162
  156.9333  130.5358  149.5279 LP  0  0  0  0  0  0  0  0  0  0  0  0  # atno 17370 bound_to 10713
  156.0530  130.5596  150.9031 LP  0  0  0  0  0  0  0  0  0  0  0  0  # atno 17371 bound_to 10713
  141.1274  133.6595  156.3372 LP  0  0  0  0  0  0  0  0  0  0  0  0  # atno 17394 bound_to 11000
  140.5527  134.6012  157.5412 LP  0  0  0  0  0  0  0  0  0  0  0  0  # atno 17395 bound_to 11000

$$$$
