AV-unprocessed.smi:21|AV-procd|sdf|136|dock1
  -GOLD-   2262015333D 1   1.00000     0.00000
 Structure written by MMmdl.
 62 65  0  0  0  0  0  0  0  0  2 V2000
  144.0388  133.0144  149.2763 C   0  0  0  0  0  0  0  0  0  0  0  0
  144.5096  133.4124  150.5544 O   0  0  0  0  0  0  0  0  0  0  0  0
  144.7823  134.8020  150.6545 C   0  0  2  0  0  0  0  0  0  0  0  0
  145.9182  135.1254  151.6179 C   0  0  0  0  0  0  0  0  0  0  0  0
  145.6541  136.5823  152.0333 C   0  0  2  0  0  0  0  0  0  0  0  0
  146.2395  136.9587  153.4211 C   0  0  0  0  0  0  0  0  0  0  0  0
  146.6261  138.3668  153.5338 N   0  0  0  0  0  0  0  0  0  0  0  0
  146.1257  139.2889  152.5179 C   0  0  0  0  0  0  0  0  0  0  0  0
  147.8133  138.6588  154.1308 C   0  0  0  0  0  0  0  0  0  0  0  0
  148.5866  137.6400  154.5941 N   0  0  0  0  0  0  0  0  0  0  0  0
  149.7273  137.8920  155.2411 C   0  0  0  0  0  0  0  0  0  0  0  0
  150.2727  139.0718  155.5366 N   0  0  0  0  0  0  0  0  0  0  0  0
  149.5153  140.1009  155.0616 C   0  0  0  0  0  0  0  0  0  0  0  0
  148.2920  139.9855  154.3409 C   0  0  0  0  0  0  0  0  0  0  0  0
  147.8329  141.2517  153.9957 N   0  0  0  0  0  0  0  0  0  0  0  0
  148.7216  142.0656  154.4946 C   0  0  0  0  0  0  0  0  0  0  0  0
  149.7456  141.4603  155.1866 N   0  0  0  0  0  0  0  0  0  0  0  0
  150.8518  142.1253  155.8544 C   0  0  0  0  0  0  0  0  0  0  0  0
  150.9445  141.8579  157.3836 C   0  0  1  0  0  0  0  0  0  0  0  0
  151.5009  140.4329  157.6186 C   0  0  0  0  0  0  0  0  0  0  0  0
  152.6150  140.1726  156.7897 O   0  0  0  0  0  0  0  0  0  0  0  0
  151.7942  142.9098  158.1567 C   0  0  1  0  0  0  0  0  0  0  0  0
  151.3326  144.3580  158.0800 C   0  0  0  0  0  0  0  0  0  0  0  0
  152.0366  144.9824  159.2755 C   0  0  0  0  0  0  0  0  0  0  0  0
  151.9702  143.9886  160.2848 O   0  0  0  0  0  0  0  0  0  0  0  0
  151.8099  142.7076  159.6822 C   0  0  0  0  0  0  0  0  0  0  0  0
  144.1803  136.7754  151.8789 N   0  3  2  0  0  0  0  0  0  0  0  0
  143.4180  137.2771  153.0465 C   0  0  0  0  0  0  0  0  0  0  0  0
  143.6125  135.5352  151.3032 C   0  0  0  0  0  0  0  0  0  0  0  0
  144.9819  135.2334  149.6717 H   0  0  0  0  0  0  0  0  0  0  0  0
  146.1028  137.2330  151.2817 H   0  0  0  0  0  0  0  0  0  0  0  0
  143.8047  131.9500  149.2905 H   0  0  0  0  0  0  0  0  0  0  0  0
  144.7908  133.1768  148.5035 H   0  0  0  0  0  0  0  0  0  0  0  0
  143.1316  133.5544  149.0028 H   0  0  0  0  0  0  0  0  0  0  0  0
  145.8518  134.4685  152.4867 H   0  0  0  0  0  0  0  0  0  0  0  0
  146.9008  134.9878  151.1660 H   0  0  0  0  0  0  0  0  0  0  0  0
  145.4894  136.7872  154.1929 H   0  0  0  0  0  0  0  0  0  0  0  0
  147.0681  136.3005  153.6712 H   0  0  0  0  0  0  0  0  0  0  0  0
  146.1448  140.3161  152.8845 H   0  0  0  0  0  0  0  0  0  0  0  0
  145.0944  139.0507  152.2564 H   0  0  0  0  0  0  0  0  0  0  0  0
  146.7269  139.2335  151.6097 H   0  0  0  0  0  0  0  0  0  0  0  0
  150.2759  137.0249  155.5787 H   0  0  0  0  0  0  0  0  0  0  0  0
  148.6401  143.1381  154.3921 H   0  0  0  0  0  0  0  0  0  0  0  0
  151.7594  141.7917  155.3512 H   0  0  0  0  0  0  0  0  0  0  0  0
  150.7806  143.1977  155.6689 H   0  0  0  0  0  0  0  0  0  0  0  0
  149.9387  141.8789  157.8040 H   0  0  0  0  0  0  0  0  0  0  0  0
  151.7868  140.2957  158.6621 H   0  0  0  0  0  0  0  0  0  0  0  0
  150.7579  139.6697  157.3907 H   0  0  0  0  0  0  0  0  0  0  0  0
  152.6593  139.2424  156.6275 H   0  0  0  0  0  0  0  0  0  0  0  0
  152.8234  142.8668  157.7963 H   0  0  0  0  0  0  0  0  0  0  0  0
  151.6169  144.8577  157.1559 H   0  0  0  0  0  0  0  0  0  0  0  0
  150.2502  144.4282  158.1979 H   0  0  0  0  0  0  0  0  0  0  0  0
  153.0841  145.1783  159.0417 H   0  0  0  0  0  0  0  0  0  0  0  0
  151.5802  145.9174  159.5976 H   0  0  0  0  0  0  0  0  0  0  0  0
  150.8647  142.2913  160.0336 H   0  0  0  0  0  0  0  0  0  0  0  0
  152.6091  142.0353  159.9959 H   0  0  0  0  0  0  0  0  0  0  0  0
  143.4899  136.5956  153.8950 H   0  0  0  0  0  0  0  0  0  0  0  0
  142.3635  137.3778  152.7873 H   0  0  0  0  0  0  0  0  0  0  0  0
  143.7689  138.2626  153.3526 H   0  0  0  0  0  0  0  0  0  0  0  0
  142.8080  135.7484  150.5988 H   0  0  0  0  0  0  0  0  0  0  0  0
  143.1998  134.9188  152.1044 H   0  0  0  0  0  0  0  0  0  0  0  0
  144.0832  137.4807  151.1621 H   0  0  0  0  0  0  0  0  0  0  0  0
  1  2  1  0  0  0  0
  1 32  1  0  0  0  0
  1 33  1  0  0  0  0
  1 34  1  0  0  0  0
  2  3  1  0  0  0  0
  3 30  1  0  0  0  0
  3 29  1  0  0  0  0
  3  4  1  0  0  0  0
  4  5  1  0  0  0  0
  4 35  1  0  0  0  0
  4 36  1  0  0  0  0
  5 31  1  0  0  0  0
  5  6  1  0  0  0  0
  5 27  1  0  0  0  0
  6  7  1  0  0  0  0
  6 37  1  0  0  0  0
  6 38  1  0  0  0  0
  7  8  1  0  0  0  0
  7  9  1  0  0  0  0
  8 39  1  0  0  0  0
  8 40  1  0  0  0  0
  8 41  1  0  0  0  0
  9 14  1  0  0  0  0
  9 10  2  0  0  0  0
 10 11  1  0  0  0  0
 11 12  2  0  0  0  0
 11 42  1  0  0  0  0
 12 13  1  0  0  0  0
 13 17  1  0  0  0  0
 13 14  2  0  0  0  0
 14 15  1  0  0  0  0
 15 16  2  0  0  0  0
 16 17  1  0  0  0  0
 16 43  1  0  0  0  0
 17 18  1  0  0  0  0
 18 19  1  0  0  0  0
 18 44  1  0  0  0  0
 18 45  1  0  0  0  0
 19 20  1  0  0  0  0
 19 22  1  0  0  0  0
 19 46  1  0  0  0  0
 20 21  1  0  0  0  0
 20 47  1  0  0  0  0
 20 48  1  0  0  0  0
 21 49  1  0  0  0  0
 22 26  1  0  0  0  0
 22 23  1  0  0  0  0
 22 50  1  0  0  0  0
 23 24  1  0  0  0  0
 23 51  1  0  0  0  0
 23 52  1  0  0  0  0
 24 25  1  0  0  0  0
 24 53  1  0  0  0  0
 24 54  1  0  0  0  0
 25 26  1  0  0  0  0
 26 55  1  0  0  0  0
 26 56  1  0  0  0  0
 27 28  1  0  0  0  0
 27 29  1  0  0  0  0
 27 62  1  0  0  0  0
 28 57  1  0  0  0  0
 28 58  1  0  0  0  0
 28 59  1  0  0  0  0
 29 60  1  0  0  0  0
 29 61  1  0  0  0  0
M  CHG  1  27   1
M  END
> <s_m_source_file>
AV-unprocessed.smi

> <i_m_source_file_index>
21

> <i_lp_mmshare_version>
43012

> <i_f3d_flags>
0

> <s_epik_input>
W0NIM11PW0NASF0xW0NIMl1bQ0BIXShOKFtDSDNdKVtDSDJdMSlbQ0gyXU4oW0NIM10pYyhuW2NIXW4yKWMoYzIzKW5bY0hdbjNbQ0gyXVtDQEhdKFtDSDJdW09IXSlbQ0BASF00W0NIMl1bQ0gyXU9bQ0gyXTQ=

> <s_epik_cmdline>
J2VwaWtfcHl0aG9uJywgJy1waCcsICc3LjAnLCAnLXRuJywgJzgnLCAnLW1hJywgJzIwMCcsICctbWV0YWxfYmluZGluZycsICctaW1hZScsICc8aW5maWxlLm1hZT4nLCAnLW9tYWUnLCAnPG91dGZpbGUubWFlPic=

> <r_lp_tautomer_probability>
1

> <r_epik_Ionization_Penalty>
0.0157465

> <r_epik_Ionization_Penalty_Charging>
0.015354

> <r_epik_Ionization_Penalty_Neutral>
0.000392529

> <r_epik_State_Penalty>
0.0120612

> <r_epik_Charging_Adjusted_Penalty>
0.0274152

> <i_epik_Tot_Q>
1

> <i_epik_Tot_abs_Q>
1

> <r_epik_Metal_State_Penalty>
0.0121253

> <b_epik_Metal_Only>
0

> <s_lp_Force_Field>
OPLS_2005

> <r_lp_Energy>
61.1925

> <b_lp_Chiralities_Consistent>
1

> <s_lp_Variant>
AV-unprocessed.smi:21-16

> <Gold.Version>
5.8.1

> <Gold.Id.Protein>
6NUR|6NUR_protein|mol2

> <Gold.PLP.Fitness>
54.0908

> <Gold.PLP.PLP>
-47.0348

> <Gold.PLP.part.hbond>
-2.0000

> <Gold.PLP.part.metal>
0.0000

> <Gold.PLP.part.buried>
-3.2654

> <Gold.PLP.part.nonpolar>
-41.6666

> <Gold.PLP.part.repulsive>
0.4791

> <Gold.PLP.ligand.clash>
0.0000

> <Gold.PLP.ligand.torsion>
1.5194

> <Gold.PLP.Chemscore.Hbond>
2.0000

> <Gold.PLP.Chemscore.CHOScore>
1.0000

> <Gold.PLP.Chemscore.Metal>
0.0000

> <Gold.Chemscore.Hbonds>
donor molecule, donor type, donor heavy atom, donor atom, acceptor molecule, acceptor atom, score
      L1  H    27    62       P1 10171  1.00
      P1  H  7997  8009       L1    21  0.20
      L1  C    16    43       P1  8028  0.95

> <Gold.PLP.Chemscore.Internal.Correction>
1.0946

> <Gold.Rescore>
     Score         DG    S(hbond)    S(metal)    S(lipo)     H(rot)  DE(clash)    DE(int)     intcor
     11.81     -16.15       1.61        0.00     112.52       3.08       0.25       4.09       ----

> <Gold.Chemscore.Fitness>
11.8133

> <Gold.Chemscore.DG>
-16.1527

> <Gold.Chemscore.ZeroCoef>
-5.4800

> <Gold.Chemscore.Hbond>
1.6115

> <Gold.Chemscore.Metal>
0.0000

> <Gold.Chemscore.Lipo>
112.5172

> <Gold.Chemscore.Internal_Hbond>
0.0000

> <Gold.Chemscore.DEClash>
0.2535

> <Gold.Chemscore.DEInternal>
4.0860

> <Gold.Chemscore.Rot>
3.0758

> <Gold.Chemscore.Internal.Correction>
   9.000000E+99

> <Gold.Chemscore.Hbonds>
donor molecule, donor type, donor heavy atom, donor atom, acceptor molecule, acceptor atom, score
      L1  H    27    62       P1 10171  1.00

> <Gold.Chemscore.Hbond.Weighted>
-5.3824

> <Gold.Chemscore.Metal.Weighted>
-0.0000

> <Gold.Chemscore.Lipo.Weighted>
-13.1645

> <Gold.Chemscore.Internal_Hbond.Weighted>
0.0000

> <Gold.Chemscore.DEClash.Weighted>
0.2535

> <Gold.Chemscore.DEInternal.Weighted>
4.0860

> <Gold.Chemscore.Rot.Weighted>
7.8741

> <Gold.Chemscore.Internal.Correction.Weighted>
   9.000000E+99

> <Gold.Protein.RotatedTorsions>
[ 6907 6896 6895 6894 ] final   -4.72 input  -60.11 | X-H torsion
[ 7974 7965 7964 7962 ] final -174.76 input  175.53 | X-H torsion
[ 8008 7997 7996 7995 ] final -177.21 input   59.86 | X-H torsion
[ 10167 10162 10161 10158 ] final  113.61 input  -65.29 | X-H torsion
[ 10718 10713 10712 10709 ] final   81.20 input   66.30 | X-H torsion
[ 10763 10752 10751 10750 ] final -169.40 input  -60.55 | X-H torsion
[ 11005 11000 10999 10996 ] final -165.75 input  -57.11 | X-H torsion

> <Gold.Protein.ActiveResidues>
 VAL166  LYS551  ARG553  GLY616  TRP617  ASP618  TYR619  PRO620  LYS621  CYS622 
 ASP623  PHE694  ASN695  SER759  ASP760  ASP761  ALA762  ILE779  LEU786  VAL792 
 PHE793  MET794  SER795  GLU796  ALA797  LYS798  CYS799  TRP800  GLU811  SER814 

> <Gold.Protein.RotatedAtoms>
  151.4931  135.1058  159.9808 H   0  0  0  0  0  0  0  0  0  0  0  0  # atno 6907 bound_to 6896
  152.4733  133.8075  159.6996 H   0  0  0  0  0  0  0  0  0  0  0  0  # atno 6908 bound_to 6896
  150.8755  133.7383  159.2974 H   0  0  0  0  0  0  0  0  0  0  0  0  # atno 6909 bound_to 6896
  144.7130  140.1423  143.6391 H   0  0  0  0  0  0  0  0  0  0  0  0  # atno 7974 bound_to 7965
  156.0042  140.1227  157.0517 H   0  0  0  0  0  0  0  0  0  0  0  0  # atno 8008 bound_to 7997
  154.4253  140.1100  156.5808 H   0  0  0  0  0  0  0  0  0  0  0  0  # atno 8009 bound_to 7997
  155.6170  140.3472  155.4642 H   0  0  0  0  0  0  0  0  0  0  0  0  # atno 8010 bound_to 7997
  139.6448  144.7126  151.2164 H   0  0  0  0  0  0  0  0  0  0  0  0  # atno 10167 bound_to 10162
  157.6827  130.9993  150.2192 H   0  0  0  0  0  0  0  0  0  0  0  0  # atno 10718 bound_to 10713
  154.6527  135.2913  154.9967 H   0  0  0  0  0  0  0  0  0  0  0  0  # atno 10763 bound_to 10752
  154.1054  135.6570  153.4879 H   0  0  0  0  0  0  0  0  0  0  0  0  # atno 10764 bound_to 10752
  153.0385  135.5252  154.7442 H   0  0  0  0  0  0  0  0  0  0  0  0  # atno 10765 bound_to 10752
  140.5722  134.5226  157.5164 H   0  0  0  0  0  0  0  0  0  0  0  0  # atno 11005 bound_to 11000
  145.9191  139.2534  143.1392 LP  0  0  0  0  0  0  0  0  0  0  0  0  # atno 17320 bound_to 7965
  145.9639  140.8814  143.0197 LP  0  0  0  0  0  0  0  0  0  0  0  0  # atno 17321 bound_to 7965
  140.7509  143.6249  150.8478 LP  0  0  0  0  0  0  0  0  0  0  0  0  # atno 17342 bound_to 10162
  139.9890  143.5867  152.2916 LP  0  0  0  0  0  0  0  0  0  0  0  0  # atno 17343 bound_to 10162
  156.2847  130.3738  149.7901 LP  0  0  0  0  0  0  0  0  0  0  0  0  # atno 17370 bound_to 10713
  156.5578  130.8370  151.3319 LP  0  0  0  0  0  0  0  0  0  0  0  0  # atno 17371 bound_to 10713
  139.9356  134.7881  156.0812 LP  0  0  0  0  0  0  0  0  0  0  0  0  # atno 17394 bound_to 11000
  141.1049  133.6664  156.2840 LP  0  0  0  0  0  0  0  0  0  0  0  0  # atno 17395 bound_to 11000

$$$$
