AV-unprocessed.smi:2020|AV-procd|sdf|8173|dock3
  -GOLD-   2272010423D 1   1.00000     0.00000
 Structure written by MMmdl.
 40 41  0  0  0  0  0  0  0  0  1 V2000
  149.5302  140.9132  157.1504 C   0  0  0  0  0  0  0  0  0  0  0  0
  149.7042  139.9122  156.0600 C   0  0  0  0  0  0  0  0  0  0  0  0
  150.0420  138.6378  156.2732 N   0  0  0  0  0  0  0  0  0  0  0  0
  150.1412  137.9017  155.0882 C   0  0  0  0  0  0  0  0  0  0  0  0
  150.5042  136.4488  155.1363 C   0  0  0  0  0  0  0  0  0  0  0  0
  149.2756  135.5531  155.3662 C   0  0  0  0  0  0  0  0  0  0  0  0
  148.6002  135.2269  154.1151 N   0  0  0  0  0  0  0  0  0  0  0  0
  147.4740  134.5064  154.0174 C   0  0  0  0  0  0  0  0  0  0  0  0
  146.8697  134.0412  154.9840 O   0  0  0  0  0  0  0  0  0  0  0  0
  147.0908  134.3555  152.7415 N   0  0  0  0  0  0  0  0  0  0  0  0
  145.9135  133.6219  152.2840 C   0  0  2  0  0  0  0  0  0  0  0  0
  146.3495  132.4563  151.3756 C   0  0  0  0  0  0  0  0  0  0  0  0
  145.1366  131.7053  150.8031 C   0  0  0  0  0  0  0  0  0  0  0  0
  144.1941  132.6642  150.0556 C   0  0  1  0  0  0  0  0  0  0  0  0
  143.0605  131.9544  149.6033 O   0  0  0  0  0  0  0  0  0  0  0  0
  143.7472  133.8222  150.9648 C   0  0  0  0  0  0  0  0  0  0  0  0
  144.9584  134.5750  151.5396 C   0  0  0  0  0  0  0  0  0  0  0  0
  149.8689  138.6435  153.9660 C   0  0  0  0  0  0  0  0  0  0  0  0
  149.4812  140.2962  154.3577 S   0  0  0  0  0  0  0  0  0  0  0  0
  149.7656  140.4717  158.1195 H   0  0  0  0  0  0  0  0  0  0  0  0
  148.4995  141.2676  157.1689 H   0  0  0  0  0  0  0  0  0  0  0  0
  150.1916  141.7633  156.9842 H   0  0  0  0  0  0  0  0  0  0  0  0
  150.9989  136.1649  154.2066 H   0  0  0  0  0  0  0  0  0  0  0  0
  151.2347  136.2746  155.9276 H   0  0  0  0  0  0  0  0  0  0  0  0
  149.5800  134.6190  155.8396 H   0  0  0  0  0  0  0  0  0  0  0  0
  148.5758  136.0343  156.0517 H   0  0  0  0  0  0  0  0  0  0  0  0
  149.0265  135.5657  153.2651 H   0  0  0  0  0  0  0  0  0  0  0  0
  147.6621  134.7800  152.0256 H   0  0  0  0  0  0  0  0  0  0  0  0
  145.3755  133.2007  153.1355 H   0  0  0  0  0  0  0  0  0  0  0  0
  146.9591  132.8343  150.5536 H   0  0  0  0  0  0  0  0  0  0  0  0
  146.9796  131.7633  151.9345 H   0  0  0  0  0  0  0  0  0  0  0  0
  145.4757  130.9139  150.1336 H   0  0  0  0  0  0  0  0  0  0  0  0
  144.5995  131.2145  151.6162 H   0  0  0  0  0  0  0  0  0  0  0  0
  144.7076  133.0679  149.1820 H   0  0  0  0  0  0  0  0  0  0  0  0
  142.3438  132.5627  149.5064 H   0  0  0  0  0  0  0  0  0  0  0  0
  143.1137  134.5137  150.4080 H   0  0  0  0  0  0  0  0  0  0  0  0
  143.1396  133.4374  151.7851 H   0  0  0  0  0  0  0  0  0  0  0  0
  144.6157  135.3614  152.2131 H   0  0  0  0  0  0  0  0  0  0  0  0
  145.4902  135.0737  150.7277 H   0  0  0  0  0  0  0  0  0  0  0  0
  149.8709  138.3174  152.9363 H   0  0  0  0  0  0  0  0  0  0  0  0
  1  2  1  0  0  0  0
  1 20  1  0  0  0  0
  1 21  1  0  0  0  0
  1 22  1  0  0  0  0
  2 19  1  0  0  0  0
  2  3  2  0  0  0  0
  3  4  1  0  0  0  0
  4  5  1  0  0  0  0
  4 18  2  0  0  0  0
  5  6  1  0  0  0  0
  5 23  1  0  0  0  0
  5 24  1  0  0  0  0
  6  7  1  0  0  0  0
  6 25  1  0  0  0  0
  6 26  1  0  0  0  0
  7  8  1  0  0  0  0
  7 27  1  0  0  0  0
  8  9  2  0  0  0  0
  8 10  1  0  0  0  0
 10 11  1  0  0  0  0
 10 28  1  0  0  0  0
 11 17  1  0  0  0  0
 11 12  1  0  0  0  0
 11 29  1  0  0  0  0
 12 13  1  0  0  0  0
 12 30  1  0  0  0  0
 12 31  1  0  0  0  0
 13 14  1  0  0  0  0
 13 32  1  0  0  0  0
 13 33  1  0  0  0  0
 14 15  1  0  0  0  0
 14 16  1  0  0  0  0
 14 34  1  0  0  0  0
 15 35  1  0  0  0  0
 16 17  1  0  0  0  0
 16 36  1  0  0  0  0
 16 37  1  0  0  0  0
 17 38  1  0  0  0  0
 17 39  1  0  0  0  0
 18 19  1  0  0  0  0
 18 40  1  0  0  0  0
M  END
> <s_m_source_file>
AV-unprocessed.smi

> <i_m_source_file_index>
2020

> <i_lp_mmshare_version>
43012

> <i_f3d_flags>
0

> <s_epik_input>
W0NIM11jMW5jKFtjSF1zMSlbQ0gyXVtDSDJdW05IXUMoPU8pW05IXVtDQEBIXTJbQ0gyXVtDSDJdW0NAQEhdKFtPSF0pW0NIMl1bQ0gyXTI=

> <s_epik_cmdline>
J2VwaWtfcHl0aG9uJywgJy1waCcsICc3LjAnLCAnLXRuJywgJzgnLCAnLW1hJywgJzIwMCcsICctbWV0YWxfYmluZGluZycsICctaW1hZScsICc8aW5maWxlLm1hZT4nLCAnLW9tYWUnLCAnPG91dGZpbGUubWFlPic=

> <r_epik_Ionization_Penalty>
0.00202099

> <r_epik_Ionization_Penalty_Charging>
0

> <r_epik_Ionization_Penalty_Neutral>
0.00202099

> <r_epik_State_Penalty>
0.00133629

> <r_epik_Charging_Adjusted_Penalty>
0.00133629

> <i_epik_Tot_Q>
0

> <i_epik_Tot_abs_Q>
0

> <r_epik_Metal_State_Penalty>
-0

> <b_epik_Metal_Only>
0

> <s_lp_Force_Field>
OPLS_2005

> <r_lp_Energy>
0.764429

> <b_lp_Chiralities_Consistent>
1

> <s_lp_Variant>
AV-unprocessed.smi:2020-1

> <Gold.Version>
5.8.1

> <Gold.Id.Protein>
6NUR|6NUR_protein|mol2

> <Gold.PLP.Fitness>
44.4663

> <Gold.PLP.PLP>
-29.9203

> <Gold.PLP.part.hbond>
-4.4244

> <Gold.PLP.part.metal>
0.0000

> <Gold.PLP.part.buried>
-3.1919

> <Gold.PLP.part.nonpolar>
-22.4550

> <Gold.PLP.part.repulsive>
0.0409

> <Gold.PLP.ligand.clash>
0.0000

> <Gold.PLP.ligand.torsion>
0.5083

> <Gold.PLP.Chemscore.Hbond>
3.3183

> <Gold.PLP.Chemscore.CHOScore>
1.8670

> <Gold.PLP.Chemscore.Metal>
0.0000

> <Gold.Chemscore.Hbonds>
donor molecule, donor type, donor heavy atom, donor atom, acceptor molecule, acceptor atom, score
      L1  H     7    27       P1  7948  0.99
      L1  H    10    28       P1  7948  0.80
      L1  H    15    35       P1 10186  0.37
      P1  H 10785 10796       L1    15  1.00
      L1  C    18    40       P1  7948  1.00
      L1  C    18    40       P1  7957  0.78

> <Gold.PLP.Chemscore.Internal.Correction>
0.0070

> <Gold.Rescore>
     Score         DG    S(hbond)    S(metal)    S(lipo)     H(rot)  DE(clash)    DE(int)     intcor
     18.60     -19.35       3.06        0.00      77.04       2.10       0.23       0.52       ----

> <Gold.Chemscore.Fitness>
18.5974

> <Gold.Chemscore.DG>
-19.3482

> <Gold.Chemscore.ZeroCoef>
-5.4800

> <Gold.Chemscore.Hbond>
3.0630

> <Gold.Chemscore.Metal>
0.0000

> <Gold.Chemscore.Lipo>
77.0351

> <Gold.Chemscore.Internal_Hbond>
0.0000

> <Gold.Chemscore.DEClash>
0.2346

> <Gold.Chemscore.DEInternal>
0.5161

> <Gold.Chemscore.Rot>
2.0997

> <Gold.Chemscore.Internal.Correction>
   9.000000E+99

> <Gold.Chemscore.Hbonds>
donor molecule, donor type, donor heavy atom, donor atom, acceptor molecule, acceptor atom, score
      L1  H     7    27       P1  7948  0.59
      L1  H    10    28       P1  7948  0.52
      L1  H    15    35       P1 10186  0.37
      P1  H 10785 10796       L1    15  0.94

> <Gold.Chemscore.Hbond.Weighted>
-10.2303

> <Gold.Chemscore.Metal.Weighted>
-0.0000

> <Gold.Chemscore.Lipo.Weighted>
-9.0131

> <Gold.Chemscore.Internal_Hbond.Weighted>
0.0000

> <Gold.Chemscore.DEClash.Weighted>
0.2346

> <Gold.Chemscore.DEInternal.Weighted>
0.5161

> <Gold.Chemscore.Rot.Weighted>
5.3752

> <Gold.Chemscore.Internal.Correction.Weighted>
   9.000000E+99

> <Gold.Protein.RotatedTorsions>
[ 6907 6896 6895 6894 ] final -120.42 input  -60.11 | X-H torsion
[ 7974 7965 7964 7962 ] final  105.83 input  175.53 | X-H torsion
[ 8008 7997 7996 7995 ] final -158.45 input   59.86 | X-H torsion
[ 10167 10162 10161 10158 ] final  107.90 input  -65.29 | X-H torsion
[ 10718 10713 10712 10709 ] final   40.49 input   66.30 | X-H torsion
[ 10763 10752 10751 10750 ] final   94.40 input  -60.55 | X-H torsion
[ 11005 11000 10999 10996 ] final  -22.35 input  -57.11 | X-H torsion

> <Gold.Protein.ActiveResidues>
 VAL166  LYS551  ARG553  GLY616  TRP617  ASP618  TYR619  PRO620  LYS621  CYS622 
 ASP623  PHE694  ASN695  SER759  ASP760  ASP761  ALA762  ILE779  LEU786  VAL792 
 PHE793  MET794  SER795  GLU796  ALA797  LYS798  CYS799  TRP800  GLU811  SER814 

> <Gold.Protein.RotatedAtoms>
  150.8391  133.7964  159.3067 H   0  0  0  0  0  0  0  0  0  0  0  0  # atno 6907 bound_to 6896
  151.5671  135.1062  159.9996 H   0  0  0  0  0  0  0  0  0  0  0  0  # atno 6908 bound_to 6896
  152.4458  133.7492  159.6741 H   0  0  0  0  0  0  0  0  0  0  0  0  # atno 6909 bound_to 6896
  145.3145  139.2530  143.3745 H   0  0  0  0  0  0  0  0  0  0  0  0  # atno 7974 bound_to 7965
  155.7477  140.0822  157.2216 H   0  0  0  0  0  0  0  0  0  0  0  0  # atno 8008 bound_to 7997
  154.4015  140.1566  156.2744 H   0  0  0  0  0  0  0  0  0  0  0  0  # atno 8009 bound_to 7997
  155.8960  140.3412  155.5994 H   0  0  0  0  0  0  0  0  0  0  0  0  # atno 8010 bound_to 7997
  139.6890  144.7110  151.1382 H   0  0  0  0  0  0  0  0  0  0  0  0  # atno 10167 bound_to 10162
  157.3828  130.7763  149.7206 H   0  0  0  0  0  0  0  0  0  0  0  0  # atno 10718 bound_to 10713
  153.2412  135.4291  155.0700 H   0  0  0  0  0  0  0  0  0  0  0  0  # atno 10763 bound_to 10752
  154.8341  135.3403  154.6646 H   0  0  0  0  0  0  0  0  0  0  0  0  # atno 10764 bound_to 10752
  153.7069  135.7025  153.5104 H   0  0  0  0  0  0  0  0  0  0  0  0  # atno 10765 bound_to 10752
  140.8649  133.7762  156.0118 H   0  0  0  0  0  0  0  0  0  0  0  0  # atno 11005 bound_to 11000
  146.3105  140.3689  142.8672 LP  0  0  0  0  0  0  0  0  0  0  0  0  # atno 17320 bound_to 7965
  144.8989  140.7617  143.5880 LP  0  0  0  0  0  0  0  0  0  0  0  0  # atno 17321 bound_to 7965
  140.7676  143.5587  150.9123 LP  0  0  0  0  0  0  0  0  0  0  0  0  # atno 17342 bound_to 10162
  139.9264  143.6545  152.3086 LP  0  0  0  0  0  0  0  0  0  0  0  0  # atno 17343 bound_to 10162
  155.9779  130.4057  150.3679 LP  0  0  0  0  0  0  0  0  0  0  0  0  # atno 17370 bound_to 10713
  157.1785  131.0386  151.2760 LP  0  0  0  0  0  0  0  0  0  0  0  0  # atno 17371 bound_to 10713
  140.8640  134.2806  157.5221 LP  0  0  0  0  0  0  0  0  0  0  0  0  # atno 17394 bound_to 11000
  139.8709  134.9533  156.4141 LP  0  0  0  0  0  0  0  0  0  0  0  0  # atno 17395 bound_to 11000

$$$$
