AV-unprocessed.smi:2310|AV-procd|sdf|9260|dock8
  -GOLD-   2272012483D 1   1.00000     0.00000
 Structure written by MMmdl.
 45 46  0  0  0  0  0  0  0  0  3 V2000
  148.1753  133.2772  153.2203 C   0  0  0  0  0  0  0  0  0  0  0  0
  149.5068  133.3438  153.9933 C   0  0  0  0  0  0  0  0  0  0  0  0
  149.5185  134.3257  155.1867 C   0  0  1  0  0  0  0  0  0  0  0  0
  150.2979  133.7625  156.3922 C   0  0  0  0  0  0  0  0  0  0  0  0
  150.9786  132.4770  156.1517 C   0  0  0  0  0  0  0  0  0  0  0  0
  151.5141  131.4662  155.9675 N   0  0  0  0  0  0  0  0  0  0  0  0
  150.1147  135.6005  154.7709 N   0  5  0  0  0  0  0  0  0  0  0  0
  150.7925  136.4479  155.5901 C   0  0  0  0  0  0  0  0  0  0  0  0
  151.6859  136.1655  156.3971 O   0  0  0  0  0  0  0  0  0  0  0  0
  150.4089  137.7257  155.4244 N   0  0  0  0  0  0  0  0  0  0  0  0
  150.8710  138.8858  156.1031 C   0  0  0  0  0  0  0  0  0  0  0  0
  151.7500  138.8236  157.2112 C   0  0  0  0  0  0  0  0  0  0  0  0
  152.1464  140.0125  157.8554 C   0  0  0  0  0  0  0  0  0  0  0  0
  151.6511  141.2558  157.3982 C   0  0  0  0  0  0  0  0  0  0  0  0
  152.0063  142.4840  157.9870 N   0  0  0  0  0  0  0  0  0  0  0  0
  151.4595  143.7487  157.5123 C   0  0  0  0  0  0  0  0  0  0  0  0
  151.4770  144.6854  158.7256 C   0  0  0  0  0  0  0  0  0  0  0  0
  152.5250  144.0721  159.6546 C   0  0  0  0  0  0  0  0  0  0  0  0
  152.3955  142.5738  159.3843 C   0  0  0  0  0  0  0  0  0  0  0  0
  150.8020  141.2649  156.3436 N   0  3  0  0  0  0  0  0  0  0  0  0
  150.3934  140.1523  155.6935 C   0  0  0  0  0  0  0  0  0  0  0  0
  149.4344  140.3316  154.5310 C   0  0  0  0  0  0  0  0  0  0  0  0
  148.2427  132.5427  152.4176 H   0  0  0  0  0  0  0  0  0  0  0  0
  147.9189  134.2322  152.7584 H   0  0  0  0  0  0  0  0  0  0  0  0
  147.3431  132.9781  153.8600 H   0  0  0  0  0  0  0  0  0  0  0  0
  149.7294  132.3433  154.3653 H   0  0  0  0  0  0  0  0  0  0  0  0
  150.3124  133.5877  153.2993 H   0  0  0  0  0  0  0  0  0  0  0  0
  148.4845  134.4587  155.5093 H   0  0  0  0  0  0  0  0  0  0  0  0
  151.0449  134.4788  156.7359 H   0  0  0  0  0  0  0  0  0  0  0  0
  149.6141  133.6050  157.2264 H   0  0  0  0  0  0  0  0  0  0  0  0
  149.7640  137.8888  154.6651 H   0  0  0  0  0  0  0  0  0  0  0  0
  152.1156  137.8791  157.5853 H   0  0  0  0  0  0  0  0  0  0  0  0
  152.8222  139.9514  158.6951 H   0  0  0  0  0  0  0  0  0  0  0  0
  152.1006  144.1326  156.7182 H   0  0  0  0  0  0  0  0  0  0  0  0
  150.4489  143.6436  157.1157 H   0  0  0  0  0  0  0  0  0  0  0  0
  151.6968  145.7196  158.4596 H   0  0  0  0  0  0  0  0  0  0  0  0
  150.5027  144.6667  159.2153 H   0  0  0  0  0  0  0  0  0  0  0  0
  153.5193  144.4155  159.3655 H   0  0  0  0  0  0  0  0  0  0  0  0
  152.3701  144.3290  160.7028 H   0  0  0  0  0  0  0  0  0  0  0  0
  151.6156  142.1355  160.0085 H   0  0  0  0  0  0  0  0  0  0  0  0
  153.3319  142.0496  159.5772 H   0  0  0  0  0  0  0  0  0  0  0  0
  148.4971  139.8112  154.7291 H   0  0  0  0  0  0  0  0  0  0  0  0
  149.8669  139.9239  153.6171 H   0  0  0  0  0  0  0  0  0  0  0  0
  149.2091  141.3845  154.3579 H   0  0  0  0  0  0  0  0  0  0  0  0
  150.4480  142.1645  156.0190 H   0  0  0  0  0  0  0  0  0  0  0  0
  1  2  1  0  0  0  0
  1 23  1  0  0  0  0
  1 24  1  0  0  0  0
  1 25  1  0  0  0  0
  2  3  1  0  0  0  0
  2 26  1  0  0  0  0
  2 27  1  0  0  0  0
  3  4  1  0  0  0  0
  3  7  1  0  0  0  0
  3 28  1  0  0  0  0
  4  5  1  0  0  0  0
  4 29  1  0  0  0  0
  4 30  1  0  0  0  0
  5  6  3  0  0  0  0
  7  8  1  0  0  0  0
  8  9  2  0  0  0  0
  8 10  1  0  0  0  0
 10 11  1  0  0  0  0
 10 31  1  0  0  0  0
 11 21  1  0  0  0  0
 11 12  2  0  0  0  0
 12 13  1  0  0  0  0
 12 32  1  0  0  0  0
 13 14  2  0  0  0  0
 13 33  1  0  0  0  0
 14 15  1  0  0  0  0
 14 20  1  0  0  0  0
 15 19  1  0  0  0  0
 15 16  1  0  0  0  0
 16 17  1  0  0  0  0
 16 34  1  0  0  0  0
 16 35  1  0  0  0  0
 17 18  1  0  0  0  0
 17 36  1  0  0  0  0
 17 37  1  0  0  0  0
 18 19  1  0  0  0  0
 18 38  1  0  0  0  0
 18 39  1  0  0  0  0
 19 40  1  0  0  0  0
 19 41  1  0  0  0  0
 20 21  2  0  0  0  0
 20 45  1  0  0  0  0
 21 22  1  0  0  0  0
 22 42  1  0  0  0  0
 22 43  1  0  0  0  0
 22 44  1  0  0  0  0
M  CHG  1   7  -1
M  CHG  1  20   1
M  END
> <s_m_source_file>
AV-unprocessed.smi

> <i_m_source_file_index>
2310

> <i_lp_mmshare_version>
43012

> <i_f3d_flags>
0

> <s_epik_input>
TiNDW0NIMl1bQ0BASF0oW0NIMl1bQ0gzXSlbTkhdQyg9TylbTkhdYzFbY0hdW2NIXWMobmMxW0NIM10pTjJbQ0gyXVtDSDJdW0NIMl1bQ0gyXTI=

> <s_epik_cmdline>
J2VwaWtfcHl0aG9uJywgJy1waCcsICc3LjAnLCAnLXRuJywgJzgnLCAnLW1hJywgJzIwMCcsICctbWV0YWxfYmluZGluZycsICctaW1hZScsICc8aW5maWxlLm1hZT4nLCAnLW9tYWUnLCAnPG91dGZpbGUubWFlPic=

> <r_lp_tautomer_probability>
0.999994

> <r_epik_Ionization_Penalty>
7.34515

> <r_epik_Ionization_Penalty_Charging>
7.34514

> <r_epik_Ionization_Penalty_Neutral>
2.56118e-06

> <r_epik_State_Penalty>
6.99243

> <r_epik_Charging_Adjusted_Penalty>
14.3376

> <i_epik_Tot_Q>
0

> <i_epik_Tot_abs_Q>
2

> <r_epik_Metal_State_Penalty>
3.10684

> <b_epik_Metal_Only>
1

> <s_lp_Force_Field>
OPLS_2005

> <r_lp_Energy>
34.805

> <b_lp_Chiralities_Consistent>
1

> <s_lp_Variant>
AV-unprocessed.smi:2310-6

> <Gold.Version>
5.8.1

> <Gold.Id.Protein>
6NUR|6NUR_protein|mol2

> <Gold.PLP.Fitness>
38.6326

> <Gold.PLP.PLP>
-39.7931

> <Gold.PLP.part.hbond>
-0.9503

> <Gold.PLP.part.metal>
0.0000

> <Gold.PLP.part.buried>
-5.6587

> <Gold.PLP.part.nonpolar>
-34.4198

> <Gold.PLP.part.repulsive>
0.5896

> <Gold.PLP.ligand.clash>
0.0000

> <Gold.PLP.ligand.torsion>
2.1997

> <Gold.PLP.Chemscore.Hbond>
0.9913

> <Gold.PLP.Chemscore.CHOScore>
0.0000

> <Gold.PLP.Chemscore.Metal>
0.0000

> <Gold.Chemscore.Hbonds>
donor molecule, donor type, donor heavy atom, donor atom, acceptor molecule, acceptor atom, score
      P1  H 10752 10764       L1     9  0.79

> <Gold.PLP.Chemscore.Internal.Correction>
0.2652

> <Gold.Rescore>
     Score         DG    S(hbond)    S(metal)    S(lipo)     H(rot)  DE(clash)    DE(int)     intcor
     10.53     -15.75       0.92        0.00      93.22       1.45       0.22       5.00       ----

> <Gold.Chemscore.Fitness>
10.5262

> <Gold.Chemscore.DG>
-15.7534

> <Gold.Chemscore.ZeroCoef>
-5.4800

> <Gold.Chemscore.Hbond>
0.9210

> <Gold.Chemscore.Metal>
0.0000

> <Gold.Chemscore.Lipo>
93.2246

> <Gold.Chemscore.Internal_Hbond>
0.0000

> <Gold.Chemscore.DEClash>
0.2226

> <Gold.Chemscore.DEInternal>
5.0046

> <Gold.Chemscore.Rot>
1.4492

> <Gold.Chemscore.Internal.Correction>
   9.000000E+99

> <Gold.Chemscore.Hbonds>
donor molecule, donor type, donor heavy atom, donor atom, acceptor molecule, acceptor atom, score
      P1  H 10752 10764       L1     9  0.18

> <Gold.Chemscore.Hbond.Weighted>
-3.0761

> <Gold.Chemscore.Metal.Weighted>
-0.0000

> <Gold.Chemscore.Lipo.Weighted>
-10.9073

> <Gold.Chemscore.Internal_Hbond.Weighted>
0.0000

> <Gold.Chemscore.DEClash.Weighted>
0.2226

> <Gold.Chemscore.DEInternal.Weighted>
5.0046

> <Gold.Chemscore.Rot.Weighted>
3.7100

> <Gold.Chemscore.Internal.Correction.Weighted>
   9.000000E+99

> <Gold.Protein.RotatedTorsions>
[ 6907 6896 6895 6894 ] final  -73.18 input  -60.11 | X-H torsion
[ 7974 7965 7964 7962 ] final -139.20 input  175.53 | X-H torsion
[ 8008 7997 7996 7995 ] final    2.11 input   59.86 | X-H torsion
[ 10167 10162 10161 10158 ] final  -92.05 input  -65.29 | X-H torsion
[ 10718 10713 10712 10709 ] final   62.29 input   66.30 | X-H torsion
[ 10763 10752 10751 10750 ] final  -31.09 input  -60.55 | X-H torsion
[ 11005 11000 10999 10996 ] final  -97.27 input  -57.11 | X-H torsion

> <Gold.Protein.ActiveResidues>
 VAL166  LYS551  ARG553  GLY616  TRP617  ASP618  TYR619  PRO620  LYS621  CYS622 
 ASP623  PHE694  ASN695  SER759  ASP760  ASP761  ALA762  ILE779  LEU786  VAL792 
 PHE793  MET794  SER795  GLU796  ALA797  LYS798  CYS799  TRP800  GLU811  SER814 

> <Gold.Protein.RotatedAtoms>
  150.7140  134.5055  159.5581 H   0  0  0  0  0  0  0  0  0  0  0  0  # atno 6907 bound_to 6896
  152.2643  134.7998  160.0434 H   0  0  0  0  0  0  0  0  0  0  0  0  # atno 6908 bound_to 6896
  151.8701  133.3438  159.3768 H   0  0  0  0  0  0  0  0  0  0  0  0  # atno 6909 bound_to 6896
  144.8696  140.6346  143.5275 H   0  0  0  0  0  0  0  0  0  0  0  0  # atno 7974 bound_to 7965
  154.6877  140.2646  155.6843 H   0  0  0  0  0  0  0  0  0  0  0  0  # atno 8008 bound_to 7997
  156.2721  140.2797  156.1368 H   0  0  0  0  0  0  0  0  0  0  0  0  # atno 8009 bound_to 7997
  155.0940  140.0374  157.2667 H   0  0  0  0  0  0  0  0  0  0  0  0  # atno 8010 bound_to 7997
  140.3388  143.2954  151.9859 H   0  0  0  0  0  0  0  0  0  0  0  0  # atno 10167 bound_to 10162
  157.5890  130.9042  149.9569 H   0  0  0  0  0  0  0  0  0  0  0  0  # atno 10718 bound_to 10713
  153.7916  135.6897  153.4870 H   0  0  0  0  0  0  0  0  0  0  0  0  # atno 10763 bound_to 10752
  153.1746  135.4529  154.9946 H   0  0  0  0  0  0  0  0  0  0  0  0  # atno 10764 bound_to 10752
  154.8042  135.3350  154.7411 H   0  0  0  0  0  0  0  0  0  0  0  0  # atno 10765 bound_to 10752
  141.1384  133.8158  157.0683 H   0  0  0  0  0  0  0  0  0  0  0  0  # atno 11005 bound_to 11000
  145.4155  139.1572  143.4102 LP  0  0  0  0  0  0  0  0  0  0  0  0  # atno 17320 bound_to 7965
  146.2921  140.4262  142.8735 LP  0  0  0  0  0  0  0  0  0  0  0  0  # atno 17321 bound_to 7965
  139.4844  144.6174  151.7320 LP  0  0  0  0  0  0  0  0  0  0  0  0  # atno 17342 bound_to 10162
  140.5329  144.0702  150.6060 LP  0  0  0  0  0  0  0  0  0  0  0  0  # atno 17343 bound_to 10162
  156.0942  130.3661  150.0338 LP  0  0  0  0  0  0  0  0  0  0  0  0  # atno 17370 bound_to 10713
  156.8464  130.9443  151.3628 LP  0  0  0  0  0  0  0  0  0  0  0  0  # atno 17371 bound_to 10713
  140.0527  134.9797  157.1165 LP  0  0  0  0  0  0  0  0  0  0  0  0  # atno 17394 bound_to 11000
  140.3965  134.2128  155.7164 LP  0  0  0  0  0  0  0  0  0  0  0  0  # atno 17395 bound_to 11000

$$$$
