AV-unprocessed.smi:886|AV-procd|sdf|4049|dock2
  -GOLD-   22720 1533D 1   1.00000     0.00000
 Structure written by MMmdl.
 35 37  0  0  0  0  0  0  0  0  1 V2000
  146.4670  142.9278  153.3890 C   0  0  0  0  0  0  0  0  0  0  0  0
  147.6027  142.1003  153.7650 N   0  0  0  0  0  0  0  0  0  0  0  0
  147.9879  141.8789  155.0311 C   0  0  0  0  0  0  0  0  0  0  0  0
  147.4010  142.3475  156.0073 O   0  0  0  0  0  0  0  0  0  0  0  0
  149.1850  140.9768  155.1907 C   0  0  0  0  0  0  0  0  0  0  0  0
  149.1576  139.6781  154.6300 C   0  0  0  0  0  0  0  0  0  0  0  0
  150.2841  138.8451  154.7488 C   0  0  0  0  0  0  0  0  0  0  0  0
  151.4110  139.3442  155.4237 C   0  0  0  0  0  0  0  0  0  0  0  0
  151.4596  140.5794  155.9614 N   0  0  0  0  0  0  0  0  0  0  0  0
  150.3783  141.3899  155.8517 C   0  0  0  0  0  0  0  0  0  0  0  0
  150.4693  142.6604  156.4487 N   0  0  0  0  0  0  0  0  0  0  0  0
  151.6102  143.0162  157.2857 C   0  0  1  0  0  0  0  0  0  0  0  0
  151.8746  144.5270  157.3272 C   0  0  0  0  0  0  0  0  0  0  0  0
  151.8060  144.8210  158.8309 C   0  0  2  0  0  0  0  0  0  0  0  0
  152.9915  144.2178  159.5963 C   0  0  0  0  0  0  0  0  0  0  0  0
  152.6487  142.7285  159.5787 C   0  0  0  0  0  0  0  0  0  0  0  0
  151.3443  142.7135  158.7701 C   0  0  1  0  0  0  0  0  0  0  0  0
  150.7695  143.9336  159.2105 O   0  0  0  0  0  0  0  0  0  0  0  0
  146.3561  142.9367  152.3048 H   0  0  0  0  0  0  0  0  0  0  0  0
  146.6071  143.9556  153.7266 H   0  0  0  0  0  0  0  0  0  0  0  0
  145.5440  142.5410  153.8229 H   0  0  0  0  0  0  0  0  0  0  0  0
  148.1269  141.6666  153.0188 H   0  0  0  0  0  0  0  0  0  0  0  0
  148.2856  139.3172  154.1038 H   0  0  0  0  0  0  0  0  0  0  0  0
  150.2857  137.8504  154.3284 H   0  0  0  0  0  0  0  0  0  0  0  0
  152.2971  138.7370  155.5344 H   0  0  0  0  0  0  0  0  0  0  0  0
  149.9733  143.4203  156.0045 H   0  0  0  0  0  0  0  0  0  0  0  0
  152.4898  142.4641  156.9517 H   0  0  0  0  0  0  0  0  0  0  0  0
  152.8384  144.7952  156.8934 H   0  0  0  0  0  0  0  0  0  0  0  0
  151.1002  145.0868  156.8005 H   0  0  0  0  0  0  0  0  0  0  0  0
  151.6106  145.8672  159.0682 H   0  0  0  0  0  0  0  0  0  0  0  0
  153.9470  144.4394  159.1199 H   0  0  0  0  0  0  0  0  0  0  0  0
  153.0235  144.5905  160.6207 H   0  0  0  0  0  0  0  0  0  0  0  0
  153.4296  142.1181  159.1238 H   0  0  0  0  0  0  0  0  0  0  0  0
  152.4785  142.3645  160.5926 H   0  0  0  0  0  0  0  0  0  0  0  0
  150.7312  141.8294  158.9495 H   0  0  0  0  0  0  0  0  0  0  0  0
  1  2  1  0  0  0  0
  1 19  1  0  0  0  0
  1 20  1  0  0  0  0
  1 21  1  0  0  0  0
  2  3  1  0  0  0  0
  2 22  1  0  0  0  0
  3  4  2  0  0  0  0
  3  5  1  0  0  0  0
  5 10  1  0  0  0  0
  5  6  2  0  0  0  0
  6  7  1  0  0  0  0
  6 23  1  0  0  0  0
  7  8  2  0  0  0  0
  7 24  1  0  0  0  0
  8  9  1  0  0  0  0
  8 25  1  0  0  0  0
  9 10  2  0  0  0  0
 10 11  1  0  0  0  0
 11 12  1  0  0  0  0
 11 26  1  0  0  0  0
 12 17  1  0  0  0  0
 12 13  1  0  0  0  0
 12 27  1  0  0  0  0
 13 14  1  0  0  0  0
 13 28  1  0  0  0  0
 13 29  1  0  0  0  0
 14 18  1  0  0  0  0
 14 15  1  0  0  0  0
 14 30  1  0  0  0  0
 15 16  1  0  0  0  0
 15 31  1  0  0  0  0
 15 32  1  0  0  0  0
 16 17  1  0  0  0  0
 16 33  1  0  0  0  0
 16 34  1  0  0  0  0
 17 18  1  0  0  0  0
 17 35  1  0  0  0  0
M  END
> <s_m_source_file>
AV-unprocessed.smi

> <i_m_source_file_index>
886

> <i_lp_mmshare_version>
43012

> <i_f3d_flags>
0

> <s_epik_input>
W0NIM11bTkhdQyg9TyljMVtjSF1bY0hdW2NIXW5jMVtOSF1bQ0BIXShbQ0gyXVtDQEhdMjMpW0NASF0oTzMpW0NIMl1bQ0gyXTI=

> <s_epik_cmdline>
J2VwaWtfcHl0aG9uJywgJy1waCcsICc3LjAnLCAnLXRuJywgJzgnLCAnLW1hJywgJzIwMCcsICctbWV0YWxfYmluZGluZycsICctaW1hZScsICc8aW5maWxlLm1hZT4nLCAnLW9tYWUnLCAnPG91dGZpbGUubWFlPic=

> <r_lp_tautomer_probability>
1

> <r_epik_Ionization_Penalty>
0.0065447

> <r_epik_Ionization_Penalty_Charging>
0

> <r_epik_Ionization_Penalty_Neutral>
0.0065447

> <r_epik_State_Penalty>
0.00484214

> <r_epik_Charging_Adjusted_Penalty>
0.00484214

> <i_epik_Tot_Q>
0

> <i_epik_Tot_abs_Q>
0

> <r_epik_Metal_State_Penalty>
-0

> <b_epik_Metal_Only>
0

> <s_lp_Force_Field>
OPLS_2005

> <r_lp_Energy>
46.3803

> <b_lp_Chiralities_Consistent>
1

> <s_lp_Variant>
AV-unprocessed.smi:886-2

> <Gold.Version>
5.8.1

> <Gold.Id.Protein>
6NUR|6NUR_protein|mol2

> <Gold.PLP.Fitness>
42.0891

> <Gold.PLP.PLP>
-41.9793

> <Gold.PLP.part.hbond>
-2.2433

> <Gold.PLP.part.metal>
0.0000

> <Gold.PLP.part.buried>
-4.4737

> <Gold.PLP.part.nonpolar>
-35.5791

> <Gold.PLP.part.repulsive>
0.4111

> <Gold.PLP.ligand.clash>
0.0000

> <Gold.PLP.ligand.torsion>
1.4572

> <Gold.PLP.Chemscore.Hbond>
1.0000

> <Gold.PLP.Chemscore.CHOScore>
0.0000

> <Gold.PLP.Chemscore.Metal>
0.0000

> <Gold.Chemscore.Hbonds>
donor molecule, donor type, donor heavy atom, donor atom, acceptor molecule, acceptor atom, score
      L1  H    11    26       P1  8028  1.00

> <Gold.PLP.Chemscore.Internal.Correction>
0.0242

> <Gold.Rescore>
     Score         DG    S(hbond)    S(metal)    S(lipo)     H(rot)  DE(clash)    DE(int)     intcor
     17.59     -18.58       1.00        0.00     105.41       1.00       0.17       0.82       ----

> <Gold.Chemscore.Fitness>
17.5893

> <Gold.Chemscore.DG>
-18.5839

> <Gold.Chemscore.ZeroCoef>
-5.4800

> <Gold.Chemscore.Hbond>
0.9972

> <Gold.Chemscore.Metal>
0.0000

> <Gold.Chemscore.Lipo>
105.4116

> <Gold.Chemscore.Internal_Hbond>
0.0000

> <Gold.Chemscore.DEClash>
0.1733

> <Gold.Chemscore.DEInternal>
0.8213

> <Gold.Chemscore.Rot>
1.0000

> <Gold.Chemscore.Internal.Correction>
   9.000000E+99

> <Gold.Chemscore.Hbonds>
donor molecule, donor type, donor heavy atom, donor atom, acceptor molecule, acceptor atom, score
      L1  H    11    26       P1  8028  1.00

> <Gold.Chemscore.Hbond.Weighted>
-3.3307

> <Gold.Chemscore.Metal.Weighted>
-0.0000

> <Gold.Chemscore.Lipo.Weighted>
-12.3332

> <Gold.Chemscore.Internal_Hbond.Weighted>
0.0000

> <Gold.Chemscore.DEClash.Weighted>
0.1733

> <Gold.Chemscore.DEInternal.Weighted>
0.8213

> <Gold.Chemscore.Rot.Weighted>
2.5600

> <Gold.Chemscore.Internal.Correction.Weighted>
   9.000000E+99

> <Gold.Protein.RotatedTorsions>
[ 6907 6896 6895 6894 ] final  152.16 input  -60.11 | X-H torsion
[ 7974 7965 7964 7962 ] final   63.16 input  175.53 | X-H torsion
[ 8008 7997 7996 7995 ] final  -86.23 input   59.86 | X-H torsion
[ 10167 10162 10161 10158 ] final   -1.22 input  -65.29 | X-H torsion
[ 10718 10713 10712 10709 ] final  -68.63 input   66.30 | X-H torsion
[ 10763 10752 10751 10750 ] final  118.71 input  -60.55 | X-H torsion
[ 11005 11000 10999 10996 ] final  -68.90 input  -57.11 | X-H torsion

> <Gold.Protein.ActiveResidues>
 VAL166  LYS551  ARG553  GLY616  TRP617  ASP618  TYR619  PRO620  LYS621  CYS622 
 ASP623  PHE694  ASN695  SER759  ASP760  ASP761  ALA762  ILE779  LEU786  VAL792 
 PHE793  MET794  SER795  GLU796  ALA797  LYS798  CYS799  TRP800  GLU811  SER814 

> <Gold.Protein.RotatedAtoms>
  152.0906  133.4198  159.4541 H   0  0  0  0  0  0  0  0  0  0  0  0  # atno 6907 bound_to 6896
  150.6862  134.2876  159.4662 H   0  0  0  0  0  0  0  0  0  0  0  0  # atno 6908 bound_to 6896
  152.0727  134.9522  160.0625 H   0  0  0  0  0  0  0  0  0  0  0  0  # atno 6909 bound_to 6896
  145.8650  139.3340  143.0796 H   0  0  0  0  0  0  0  0  0  0  0  0  # atno 7974 bound_to 7965
  154.6495  140.0581  156.9939 H   0  0  0  0  0  0  0  0  0  0  0  0  # atno 8008 bound_to 7997
  155.1392  140.3264  155.4437 H   0  0  0  0  0  0  0  0  0  0  0  0  # atno 8009 bound_to 7997
  156.2569  140.1967  156.6509 H   0  0  0  0  0  0  0  0  0  0  0  0  # atno 8010 bound_to 7997
  140.6801  143.6801  150.8112 H   0  0  0  0  0  0  0  0  0  0  0  0  # atno 10167 bound_to 10162
  156.0495  130.4298  150.2029 H   0  0  0  0  0  0  0  0  0  0  0  0  # atno 10718 bound_to 10713
  153.5719  135.3500  155.2841 H   0  0  0  0  0  0  0  0  0  0  0  0  # atno 10763 bound_to 10752
  154.8681  135.4161  154.2716 H   0  0  0  0  0  0  0  0  0  0  0  0  # atno 10764 bound_to 10752
  153.3483  135.7054  153.6879 H   0  0  0  0  0  0  0  0  0  0  0  0  # atno 10765 bound_to 10752
  141.1542  133.6751  156.6516 H   0  0  0  0  0  0  0  0  0  0  0  0  # atno 11005 bound_to 11000
  145.9203  140.9119  143.0408 LP  0  0  0  0  0  0  0  0  0  0  0  0  # atno 17320 bound_to 7965
  144.6726  140.1280  143.7445 LP  0  0  0  0  0  0  0  0  0  0  0  0  # atno 17321 bound_to 7965
  140.0500  143.5259  152.2678 LP  0  0  0  0  0  0  0  0  0  0  0  0  # atno 17342 bound_to 10162
  139.6117  144.7610  151.2936 LP  0  0  0  0  0  0  0  0  0  0  0  0  # atno 17343 bound_to 10162
  157.0114  130.9952  151.3365 LP  0  0  0  0  0  0  0  0  0  0  0  0  # atno 17370 bound_to 10713
  157.5407  130.8118  149.8026 LP  0  0  0  0  0  0  0  0  0  0  0  0  # atno 17371 bound_to 10713
  140.3316  134.7924  157.4330 LP  0  0  0  0  0  0  0  0  0  0  0  0  # atno 17394 bound_to 11000
  140.1012  134.5470  155.8351 LP  0  0  0  0  0  0  0  0  0  0  0  0  # atno 17395 bound_to 11000

$$$$
