AV-unprocessed.smi:3231|AV-procd|sdf|12335|dock4
  -GOLD-   2272018193D 1   1.00000     0.00000
 Structure written by MMmdl.
 42 43  0  0  0  0  0  0  0  0  3 V2000
  149.5683  141.2098  153.5561 O   0  0  0  0  0  0  0  0  0  0  0  0
  148.5025  141.7427  154.3190 C   0  0  2  0  0  0  0  0  0  0  0  0
  148.6091  141.1720  155.7450 C   0  0  0  0  0  0  0  0  0  0  0  0
  149.3363  142.0917  156.6440 N   0  3  0  0  0  0  0  0  0  0  0  0
  150.7735  141.7871  156.7824 C   0  0  0  0  0  0  0  0  0  0  0  0
  151.1430  141.5317  158.2509 C   0  0  0  0  0  0  0  0  0  0  0  0
  151.6059  142.7388  158.9080 N   0  0  0  0  0  0  0  0  0  0  0  0
  151.6387  144.0271  158.4165 C   0  0  0  0  0  0  0  0  0  0  0  0
  152.1620  144.8216  159.3961 C   0  0  0  0  0  0  0  0  0  0  0  0
  152.4249  143.9162  160.4620 C   0  0  0  0  0  0  0  0  0  0  0  0
  152.0918  142.6700  160.1662 N   0  0  0  0  0  0  0  0  0  0  0  0
  147.1667  141.3493  153.6506 C   0  0  0  0  0  0  0  0  0  0  0  0
  146.0128  142.1716  154.1012 N   0  3  0  0  0  0  0  0  0  0  0  0
  145.5727  141.8144  155.4718 C   0  0  0  0  0  0  0  0  0  0  0  0
  144.3463  142.6471  155.8827 C   0  0  0  0  0  0  0  0  0  0  0  0
  144.6575  144.0309  155.7867 O   0  0  0  0  0  0  0  0  0  0  0  0
  144.9924  144.4090  154.4579 C   0  0  0  0  0  0  0  0  0  0  0  0
  146.2405  143.6351  153.9977 C   0  0  0  0  0  0  0  0  0  0  0  0
  149.2163  140.6388  152.8901 H   0  0  0  0  0  0  0  0  0  0  0  0
  148.6053  142.8263  154.3658 H   0  0  0  0  0  0  0  0  0  0  0  0
  147.6108  141.0129  156.1551 H   0  0  0  0  0  0  0  0  0  0  0  0
  149.1056  140.2002  155.7307 H   0  0  0  0  0  0  0  0  0  0  0  0
  149.2439  143.0291  156.2783 H   0  0  0  0  0  0  0  0  0  0  0  0
  151.0178  140.9120  156.1785 H   0  0  0  0  0  0  0  0  0  0  0  0
  151.3531  142.6235  156.3888 H   0  0  0  0  0  0  0  0  0  0  0  0
  150.2830  141.1476  158.8017 H   0  0  0  0  0  0  0  0  0  0  0  0
  151.9272  140.7765  158.3201 H   0  0  0  0  0  0  0  0  0  0  0  0
  151.2913  144.2697  157.4227 H   0  0  0  0  0  0  0  0  0  0  0  0
  152.3330  145.8873  159.3569 H   0  0  0  0  0  0  0  0  0  0  0  0
  152.8454  144.1258  161.4345 H   0  0  0  0  0  0  0  0  0  0  0  0
  147.2799  141.4479  152.5694 H   0  0  0  0  0  0  0  0  0  0  0  0
  146.9448  140.2971  153.8358 H   0  0  0  0  0  0  0  0  0  0  0  0
  145.3238  140.7536  155.5172 H   0  0  0  0  0  0  0  0  0  0  0  0
  146.3900  141.9827  156.1751 H   0  0  0  0  0  0  0  0  0  0  0  0
  143.4849  142.4096  155.2563 H   0  0  0  0  0  0  0  0  0  0  0  0
  144.0645  142.4188  156.9107 H   0  0  0  0  0  0  0  0  0  0  0  0
  144.1495  144.2232  153.7901 H   0  0  0  0  0  0  0  0  0  0  0  0
  145.1857  145.4817  154.4344 H   0  0  0  0  0  0  0  0  0  0  0  0
  147.0980  143.9175  154.6106 H   0  0  0  0  0  0  0  0  0  0  0  0
  146.4740  143.9168  152.9719 H   0  0  0  0  0  0  0  0  0  0  0  0
  148.9091  142.0582  157.5584 H   0  0  0  0  0  0  0  0  0  0  0  0
  145.2387  141.9468  153.4927 H   0  0  0  0  0  0  0  0  0  0  0  0
  1  2  1  0  0  0  0
  1 19  1  0  0  0  0
  2  3  1  0  0  0  0
  2 12  1  0  0  0  0
  2 20  1  0  0  0  0
  3  4  1  0  0  0  0
  3 21  1  0  0  0  0
  3 22  1  0  0  0  0
  4  5  1  0  0  0  0
  4 23  1  0  0  0  0
  4 41  1  0  0  0  0
  5  6  1  0  0  0  0
  5 24  1  0  0  0  0
  5 25  1  0  0  0  0
  6  7  1  0  0  0  0
  6 26  1  0  0  0  0
  6 27  1  0  0  0  0
  7 11  1  0  0  0  0
  7  8  1  0  0  0  0
  8  9  2  0  0  0  0
  8 28  1  0  0  0  0
  9 10  1  0  0  0  0
  9 29  1  0  0  0  0
 10 11  2  0  0  0  0
 10 30  1  0  0  0  0
 12 13  1  0  0  0  0
 12 31  1  0  0  0  0
 12 32  1  0  0  0  0
 13 18  1  0  0  0  0
 13 14  1  0  0  0  0
 13 42  1  0  0  0  0
 14 15  1  0  0  0  0
 14 33  1  0  0  0  0
 14 34  1  0  0  0  0
 15 16  1  0  0  0  0
 15 35  1  0  0  0  0
 15 36  1  0  0  0  0
 16 17  1  0  0  0  0
 17 18  1  0  0  0  0
 17 37  1  0  0  0  0
 17 38  1  0  0  0  0
 18 39  1  0  0  0  0
 18 40  1  0  0  0  0
M  CHG  1   4   1
M  CHG  1  13   1
M  END
> <s_m_source_file>
AV-unprocessed.smi

> <i_m_source_file_index>
3231

> <i_lp_mmshare_version>
43012

> <i_f3d_flags>
0

> <s_epik_input>
W0NIMl0xW0NIMl1PW0NIMl1bQ0gyXU4xW0NIMl1bQ0BIXShbT0hdKVtDSDJdW05IXVtDSDJdW0NIMl1uMltjSF1bY0hdW2NIXW4y

> <s_epik_cmdline>
J2VwaWtfcHl0aG9uJywgJy1waCcsICc3LjAnLCAnLXRuJywgJzgnLCAnLW1hJywgJzIwMCcsICctbWV0YWxfYmluZGluZycsICctaW1hZScsICc8aW5maWxlLm1hZT4nLCAnLW9tYWUnLCAnPG91dGZpbGUubWFlPic=

> <r_lp_tautomer_probability>
1

> <r_epik_Ionization_Penalty>
2.09881

> <r_epik_Ionization_Penalty_Charging>
2.09628

> <r_epik_Ionization_Penalty_Neutral>
0.0025303

> <r_epik_State_Penalty>
1.58657

> <r_epik_Charging_Adjusted_Penalty>
3.68285

> <i_epik_Tot_Q>
2

> <i_epik_Tot_abs_Q>
2

> <r_epik_Metal_State_Penalty>
1.58685

> <b_epik_Metal_Only>
0

> <s_lp_Force_Field>
OPLS_2005

> <r_lp_Energy>
26.6316

> <b_lp_Chiralities_Consistent>
1

> <s_lp_Variant>
AV-unprocessed.smi:3231-5

> <Gold.Version>
5.8.1

> <Gold.Id.Protein>
6NUR|6NUR_protein|mol2

> <Gold.PLP.Fitness>
59.1883

> <Gold.PLP.PLP>
-41.5759

> <Gold.PLP.part.hbond>
-4.7204

> <Gold.PLP.part.metal>
0.0000

> <Gold.PLP.part.buried>
-6.2282

> <Gold.PLP.part.nonpolar>
-31.4765

> <Gold.PLP.part.repulsive>
0.1765

> <Gold.PLP.ligand.clash>
0.0000

> <Gold.PLP.ligand.torsion>
1.5557

> <Gold.PLP.Chemscore.Hbond>
5.8310

> <Gold.PLP.Chemscore.CHOScore>
0.9956

> <Gold.PLP.Chemscore.Metal>
0.0000

> <Gold.Chemscore.Hbonds>
donor molecule, donor type, donor heavy atom, donor atom, acceptor molecule, acceptor atom, score
      L1  H     1    19       P1  7957  0.80
      L1  H     4    23       P1  8028  2.00
      L1  H    13    42       P1 10175  0.16
      P1  H  7989  7998       L1     1  0.18
      P1  H  8011  8017       L1     1  0.38

> <Gold.PLP.Chemscore.Internal.Correction>
0.2439

> <Gold.Rescore>
     Score         DG    S(hbond)    S(metal)    S(lipo)     H(rot)  DE(clash)    DE(int)     intcor
     15.71     -17.81       2.93        0.00      85.98       2.94       0.15       1.95       ----

> <Gold.Chemscore.Fitness>
15.7068

> <Gold.Chemscore.DG>
-17.8054

> <Gold.Chemscore.ZeroCoef>
-5.4800

> <Gold.Chemscore.Hbond>
2.9345

> <Gold.Chemscore.Metal>
0.0000

> <Gold.Chemscore.Lipo>
85.9823

> <Gold.Chemscore.Internal_Hbond>
0.0000

> <Gold.Chemscore.DEClash>
0.1505

> <Gold.Chemscore.DEInternal>
1.9482

> <Gold.Chemscore.Rot>
2.9437

> <Gold.Chemscore.Internal.Correction>
   9.000000E+99

> <Gold.Chemscore.Hbonds>
donor molecule, donor type, donor heavy atom, donor atom, acceptor molecule, acceptor atom, score
      L1  H     1    19       P1  7957  0.80
      L1  H     4    23       P1  8028  1.00
      P1  H  7989  7998       L1     1  0.08

> <Gold.Chemscore.Hbond.Weighted>
-9.8014

> <Gold.Chemscore.Metal.Weighted>
-0.0000

> <Gold.Chemscore.Lipo.Weighted>
-10.0599

> <Gold.Chemscore.Internal_Hbond.Weighted>
0.0000

> <Gold.Chemscore.DEClash.Weighted>
0.1505

> <Gold.Chemscore.DEInternal.Weighted>
1.9482

> <Gold.Chemscore.Rot.Weighted>
7.5359

> <Gold.Chemscore.Internal.Correction.Weighted>
   9.000000E+99

> <Gold.Protein.RotatedTorsions>
[ 6907 6896 6895 6894 ] final  -10.54 input  -60.11 | X-H torsion
[ 7974 7965 7964 7962 ] final  -16.79 input  175.53 | X-H torsion
[ 8008 7997 7996 7995 ] final -141.80 input   59.86 | X-H torsion
[ 10167 10162 10161 10158 ] final    8.63 input  -65.29 | X-H torsion
[ 10718 10713 10712 10709 ] final  132.20 input   66.30 | X-H torsion
[ 10763 10752 10751 10750 ] final  175.68 input  -60.55 | X-H torsion
[ 11005 11000 10999 10996 ] final  131.18 input  -57.11 | X-H torsion

> <Gold.Protein.ActiveResidues>
 VAL166  LYS551  ARG553  GLY616  TRP617  ASP618  TYR619  PRO620  LYS621  CYS622 
 ASP623  PHE694  ASN695  SER759  ASP760  ASP761  ALA762  ILE779  LEU786  VAL792 
 PHE793  MET794  SER795  GLU796  ALA797  LYS798  CYS799  TRP800  GLU811  SER814 

> <Gold.Protein.RotatedAtoms>
  151.4003  135.0970  159.9553 H   0  0  0  0  0  0  0  0  0  0  0  0  # atno 6907 bound_to 6896
  152.5052  133.8894  159.7397 H   0  0  0  0  0  0  0  0  0  0  0  0  # atno 6908 bound_to 6896
  150.9367  133.6647  159.2827 H   0  0  0  0  0  0  0  0  0  0  0  0  # atno 6909 bound_to 6896
  146.1971  140.3687  142.8436 H   0  0  0  0  0  0  0  0  0  0  0  0  # atno 7974 bound_to 7965
  155.4838  140.0562  157.2963 H   0  0  0  0  0  0  0  0  0  0  0  0  # atno 8008 bound_to 7997
  154.4650  140.2014  156.0095 H   0  0  0  0  0  0  0  0  0  0  0  0  # atno 8009 bound_to 7997
  156.0958  140.3226  155.7880 H   0  0  0  0  0  0  0  0  0  0  0  0  # atno 8010 bound_to 7997
  140.6303  143.8008  150.7287 H   0  0  0  0  0  0  0  0  0  0  0  0  # atno 10167 bound_to 10162
  157.4894  131.1090  150.9576 H   0  0  0  0  0  0  0  0  0  0  0  0  # atno 10718 bound_to 10713
  154.4708  135.2771  155.1644 H   0  0  0  0  0  0  0  0  0  0  0  0  # atno 10763 bound_to 10752
  154.3393  135.6173  153.5592 H   0  0  0  0  0  0  0  0  0  0  0  0  # atno 10764 bound_to 10752
  152.9864  135.5784  154.5089 H   0  0  0  0  0  0  0  0  0  0  0  0  # atno 10765 bound_to 10752
  139.9715  134.9576  156.9400 H   0  0  0  0  0  0  0  0  0  0  0  0  # atno 11005 bound_to 11000
  144.8604  140.7131  143.6111 LP  0  0  0  0  0  0  0  0  0  0  0  0  # atno 17320 bound_to 7965
  145.3607  139.1682  143.4385 LP  0  0  0  0  0  0  0  0  0  0  0  0  # atno 17321 bound_to 7965
  140.1618  143.4269  152.2061 LP  0  0  0  0  0  0  0  0  0  0  0  0  # atno 17342 bound_to 10162
  139.5518  144.7343  151.4412 LP  0  0  0  0  0  0  0  0  0  0  0  0  # atno 17343 bound_to 10162
  157.0283  130.5701  149.5340 LP  0  0  0  0  0  0  0  0  0  0  0  0  # atno 17370 bound_to 10713
  156.0165  130.5259  150.8149 LP  0  0  0  0  0  0  0  0  0  0  0  0  # atno 17371 bound_to 10713
  140.5284  134.0838  155.7309 LP  0  0  0  0  0  0  0  0  0  0  0  0  # atno 17394 bound_to 11000
  141.1394  133.9164  157.2360 LP  0  0  0  0  0  0  0  0  0  0  0  0  # atno 17395 bound_to 11000

$$$$
