AV-unprocessed.smi:2668|AV-procd|sdf|10340|dock4
  -GOLD-   2272014363D 1   1.00000     0.00000
 Structure written by MMmdl.
 53 54  0  0  0  0  0  0  0  0  2 V2000
  145.5124  134.8825  152.7579 C   0  0  0  0  0  0  0  0  0  0  0  0
  145.9777  135.9371  151.8232 N   0  3  0  0  0  0  0  0  0  0  0  0
  145.3034  135.7932  150.5091 C   0  0  0  0  0  0  0  0  0  0  0  0
  145.8981  137.3206  152.3899 C   0  0  0  0  0  0  0  0  0  0  0  0
  146.9341  138.2730  151.7564 C   0  0  0  0  0  0  0  0  0  0  0  0
  146.9171  139.6656  152.4089 C   0  0  0  0  0  0  0  0  0  0  0  0
  147.2094  139.5750  153.8472 N   0  0  0  0  0  0  0  0  0  0  0  0
  147.4790  140.8796  154.5118 C   0  0  0  0  0  0  0  0  0  0  0  0
  146.6167  141.9868  153.8531 C   0  0  0  0  0  0  0  0  0  0  0  0
  147.1578  140.8306  156.0244 C   0  0  0  0  0  0  0  0  0  0  0  0
  148.9701  141.2875  154.3331 C   0  0  0  0  0  0  0  0  0  0  0  0
  149.4010  142.2732  155.3210 N   0  0  0  0  0  0  0  0  0  0  0  0
  150.1873  142.0060  156.3711 C   0  0  0  0  0  0  0  0  0  0  0  0
  150.6254  140.8832  156.6210 O   0  0  0  0  0  0  0  0  0  0  0  0
  150.4412  143.1180  157.0820 N   0  0  0  0  0  0  0  0  0  0  0  0
  151.2319  143.2586  158.2546 C   0  0  0  0  0  0  0  0  0  0  0  0
  151.4271  144.4797  158.9445 C   0  0  0  0  0  0  0  0  0  0  0  0
  152.2491  144.4900  160.0880 C   0  0  0  0  0  0  0  0  0  0  0  0
  152.8508  143.2836  160.4953 C   0  0  0  0  0  0  0  0  0  0  0  0
  152.6848  142.1157  159.8399 N   0  0  0  0  0  0  0  0  0  0  0  0
  151.8964  142.1138  158.7439 C   0  0  0  0  0  0  0  0  0  0  0  0
  146.1453  138.7770  154.4752 C   0  0  0  0  0  0  0  0  0  0  0  0
  146.1318  137.3454  153.9150 C   0  0  0  0  0  0  0  0  0  0  0  0
  144.4979  135.0852  153.1034 H   0  0  0  0  0  0  0  0  0  0  0  0
  146.1662  134.7964  153.6247 H   0  0  0  0  0  0  0  0  0  0  0  0
  145.5147  133.9036  152.2770 H   0  0  0  0  0  0  0  0  0  0  0  0
  144.2583  136.0998  150.5692 H   0  0  0  0  0  0  0  0  0  0  0  0
  145.3317  134.7581  150.1674 H   0  0  0  0  0  0  0  0  0  0  0  0
  145.7954  136.3812  149.7353 H   0  0  0  0  0  0  0  0  0  0  0  0
  144.8996  137.7122  152.1881 H   0  0  0  0  0  0  0  0  0  0  0  0
  147.9348  137.8455  151.8368 H   0  0  0  0  0  0  0  0  0  0  0  0
  146.7370  138.4086  150.6936 H   0  0  0  0  0  0  0  0  0  0  0  0
  147.6578  140.2692  151.8895 H   0  0  0  0  0  0  0  0  0  0  0  0
  145.9490  140.1402  152.2446 H   0  0  0  0  0  0  0  0  0  0  0  0
  146.9442  142.9785  154.1677 H   0  0  0  0  0  0  0  0  0  0  0  0
  145.5650  141.9212  154.1305 H   0  0  0  0  0  0  0  0  0  0  0  0
  146.6788  141.9568  152.7646 H   0  0  0  0  0  0  0  0  0  0  0  0
  147.3587  141.7958  156.4906 H   0  0  0  0  0  0  0  0  0  0  0  0
  147.7646  140.0956  156.5526 H   0  0  0  0  0  0  0  0  0  0  0  0
  146.1102  140.6019  156.2192 H   0  0  0  0  0  0  0  0  0  0  0  0
  149.6094  140.4096  154.4382 H   0  0  0  0  0  0  0  0  0  0  0  0
  149.1641  141.6512  153.3235 H   0  0  0  0  0  0  0  0  0  0  0  0
  149.0887  143.2230  155.1817 H   0  0  0  0  0  0  0  0  0  0  0  0
  150.0714  143.9786  156.7056 H   0  0  0  0  0  0  0  0  0  0  0  0
  150.9786  145.4044  158.6164 H   0  0  0  0  0  0  0  0  0  0  0  0
  152.4179  145.4040  160.6379 H   0  0  0  0  0  0  0  0  0  0  0  0
  153.4868  143.2576  161.3676 H   0  0  0  0  0  0  0  0  0  0  0  0
  151.7879  141.1623  158.2441 H   0  0  0  0  0  0  0  0  0  0  0  0
  146.2904  138.6933  155.5494 H   0  0  0  0  0  0  0  0  0  0  0  0
  145.1731  139.2464  154.3214 H   0  0  0  0  0  0  0  0  0  0  0  0
  145.3467  136.7993  154.4369 H   0  0  0  0  0  0  0  0  0  0  0  0
  147.0732  136.8506  154.1596 H   0  0  0  0  0  0  0  0  0  0  0  0
  146.9566  135.7501  151.6574 H   0  0  0  0  0  0  0  0  0  0  0  0
  1  2  1  0  0  0  0
  1 24  1  0  0  0  0
  1 25  1  0  0  0  0
  1 26  1  0  0  0  0
  2  3  1  0  0  0  0
  2  4  1  0  0  0  0
  2 53  1  0  0  0  0
  3 27  1  0  0  0  0
  3 28  1  0  0  0  0
  3 29  1  0  0  0  0
  4 23  1  0  0  0  0
  4  5  1  0  0  0  0
  4 30  1  0  0  0  0
  5  6  1  0  0  0  0
  5 31  1  0  0  0  0
  5 32  1  0  0  0  0
  6  7  1  0  0  0  0
  6 33  1  0  0  0  0
  6 34  1  0  0  0  0
  7  8  1  0  0  0  0
  7 22  1  0  0  0  0
  8  9  1  0  0  0  0
  8 10  1  0  0  0  0
  8 11  1  0  0  0  0
  9 35  1  0  0  0  0
  9 36  1  0  0  0  0
  9 37  1  0  0  0  0
 10 38  1  0  0  0  0
 10 39  1  0  0  0  0
 10 40  1  0  0  0  0
 11 12  1  0  0  0  0
 11 41  1  0  0  0  0
 11 42  1  0  0  0  0
 12 13  1  0  0  0  0
 12 43  1  0  0  0  0
 13 14  2  0  0  0  0
 13 15  1  0  0  0  0
 15 16  1  0  0  0  0
 15 44  1  0  0  0  0
 16 21  1  0  0  0  0
 16 17  2  0  0  0  0
 17 18  1  0  0  0  0
 17 45  1  0  0  0  0
 18 19  2  0  0  0  0
 18 46  1  0  0  0  0
 19 20  1  0  0  0  0
 19 47  1  0  0  0  0
 20 21  2  0  0  0  0
 21 48  1  0  0  0  0
 22 23  1  0  0  0  0
 22 49  1  0  0  0  0
 22 50  1  0  0  0  0
 23 51  1  0  0  0  0
 23 52  1  0  0  0  0
M  CHG  1   2   1
M  END
> <s_m_source_file>
AV-unprocessed.smi

> <i_m_source_file_index>
2668

> <i_lp_mmshare_version>
43012

> <i_f3d_flags>
0

> <s_epik_input>
W0NIM11OKFtDSDNdKVtDSF0xW0NIMl1bQ0gyXU4oW0NIMl1bQ0gyXTEpQyhbQ0gzXSkoW0NIM10pW0NIMl1bTkhdQyg9TylbTkhdYzJbY0hdW2NIXVtjSF1uW2NIXTI=

> <s_epik_cmdline>
J2VwaWtfcHl0aG9uJywgJy1waCcsICc3LjAnLCAnLXRuJywgJzgnLCAnLW1hJywgJzIwMCcsICctbWV0YWxfYmluZGluZycsICctaW1hZScsICc8aW5maWxlLm1hZT4nLCAnLW9tYWUnLCAnPG91dGZpbGUubWFlPic=

> <r_epik_Ionization_Penalty>
0.934314

> <r_epik_Ionization_Penalty_Charging>
0.000670549

> <r_epik_Ionization_Penalty_Neutral>
0.933644

> <r_epik_State_Penalty>
1.01912

> <r_epik_Charging_Adjusted_Penalty>
1.01979

> <i_epik_Tot_Q>
1

> <i_epik_Tot_abs_Q>
1

> <r_epik_Metal_State_Penalty>
1.01854

> <b_epik_Metal_Only>
0

> <s_lp_Force_Field>
OPLS_2005

> <r_lp_Energy>
39.6452

> <b_lp_Chiralities_Consistent>
1

> <s_lp_Variant>
AV-unprocessed.smi:2668-3

> <Gold.Version>
5.8.1

> <Gold.Id.Protein>
6NUR|6NUR_protein|mol2

> <Gold.PLP.Fitness>
48.2626

> <Gold.PLP.PLP>
-40.1459

> <Gold.PLP.part.hbond>
-2.9089

> <Gold.PLP.part.metal>
0.0000

> <Gold.PLP.part.buried>
0.8467

> <Gold.PLP.part.nonpolar>
-38.2683

> <Gold.PLP.part.repulsive>
0.4524

> <Gold.PLP.ligand.clash>
0.0000

> <Gold.PLP.ligand.torsion>
1.9268

> <Gold.PLP.Chemscore.Hbond>
3.9600

> <Gold.PLP.Chemscore.CHOScore>
0.0000

> <Gold.PLP.Chemscore.Metal>
0.0000

> <Gold.Chemscore.Hbonds>
donor molecule, donor type, donor heavy atom, donor atom, acceptor molecule, acceptor atom, score
      L1  H     2    53       P1  7948  2.00
      L1  H    12    43       P1  8028  1.00
      L1  H    15    44       P1  8028  0.96

> <Gold.PLP.Chemscore.Internal.Correction>
0.0903

> <Gold.Rescore>
     Score         DG    S(hbond)    S(metal)    S(lipo)     H(rot)  DE(clash)    DE(int)     intcor
     19.99     -24.39       2.73        0.00     119.70       1.65       1.00       3.41       ----

> <Gold.Chemscore.Fitness>
19.9870

> <Gold.Chemscore.DG>
-24.3923

> <Gold.Chemscore.ZeroCoef>
-5.4800

> <Gold.Chemscore.Hbond>
2.7335

> <Gold.Chemscore.Metal>
0.0000

> <Gold.Chemscore.Lipo>
119.6973

> <Gold.Chemscore.Internal_Hbond>
0.0000

> <Gold.Chemscore.DEClash>
0.9988

> <Gold.Chemscore.DEInternal>
3.4064

> <Gold.Chemscore.Rot>
1.6492

> <Gold.Chemscore.Internal.Correction>
   9.000000E+99

> <Gold.Chemscore.Hbonds>
donor molecule, donor type, donor heavy atom, donor atom, acceptor molecule, acceptor atom, score
      L1  H     2    53       P1  7948  0.91
      L1  H    12    43       P1  8028  0.95
      L1  H    15    44       P1  8028  0.92

> <Gold.Chemscore.Hbond.Weighted>
-9.1298

> <Gold.Chemscore.Metal.Weighted>
-0.0000

> <Gold.Chemscore.Lipo.Weighted>
-14.0046

> <Gold.Chemscore.Internal_Hbond.Weighted>
0.0000

> <Gold.Chemscore.DEClash.Weighted>
0.9988

> <Gold.Chemscore.DEInternal.Weighted>
3.4064

> <Gold.Chemscore.Rot.Weighted>
4.2220

> <Gold.Chemscore.Internal.Correction.Weighted>
   9.000000E+99

> <Gold.Protein.RotatedTorsions>
[ 6907 6896 6895 6894 ] final -138.35 input  -60.11 | X-H torsion
[ 7974 7965 7964 7962 ] final   49.81 input  175.53 | X-H torsion
[ 8008 7997 7996 7995 ] final   39.55 input   59.86 | X-H torsion
[ 10167 10162 10161 10158 ] final -119.90 input  -65.29 | X-H torsion
[ 10718 10713 10712 10709 ] final   50.40 input   66.30 | X-H torsion
[ 10763 10752 10751 10750 ] final  161.34 input  -60.55 | X-H torsion
[ 11005 11000 10999 10996 ] final  -84.59 input  -57.11 | X-H torsion

> <Gold.Protein.ActiveResidues>
 VAL166  LYS551  ARG553  GLY616  TRP617  ASP618  TYR619  PRO620  LYS621  CYS622 
 ASP623  PHE694  ASN695  SER759  ASP760  ASP761  ALA762  ILE779  LEU786  VAL792 
 PHE793  MET794  SER795  GLU796  ALA797  LYS798  CYS799  TRP800  GLU811  SER814 

> <Gold.Protein.RotatedAtoms>
  151.0340  133.5765  159.2657 H   0  0  0  0  0  0  0  0  0  0  0  0  # atno 6907 bound_to 6896
  151.2836  135.0720  159.9188 H   0  0  0  0  0  0  0  0  0  0  0  0  # atno 6908 bound_to 6896
  152.5350  134.0050  159.7966 H   0  0  0  0  0  0  0  0  0  0  0  0  # atno 6909 bound_to 6896
  146.0073  139.4504  142.9978 H   0  0  0  0  0  0  0  0  0  0  0  0  # atno 7974 bound_to 7965
  155.2385  140.3343  155.4295 H   0  0  0  0  0  0  0  0  0  0  0  0  # atno 8008 bound_to 7997
  156.2266  140.1832  156.7394 H   0  0  0  0  0  0  0  0  0  0  0  0  # atno 8009 bound_to 7997
  154.5908  140.0638  156.9221 H   0  0  0  0  0  0  0  0  0  0  0  0  # atno 8010 bound_to 7997
  140.0417  143.5147  152.2127 H   0  0  0  0  0  0  0  0  0  0  0  0  # atno 10167 bound_to 10162
  157.4881  130.8358  149.8171 H   0  0  0  0  0  0  0  0  0  0  0  0  # atno 10718 bound_to 10713
  154.2614  135.2768  155.2776 H   0  0  0  0  0  0  0  0  0  0  0  0  # atno 10763 bound_to 10752
  154.5380  135.5711  153.6818 H   0  0  0  0  0  0  0  0  0  0  0  0  # atno 10764 bound_to 10752
  152.9961  135.6244  154.2765 H   0  0  0  0  0  0  0  0  0  0  0  0  # atno 10765 bound_to 10752
  141.1649  133.7354  156.8890 H   0  0  0  0  0  0  0  0  0  0  0  0  # atno 11005 bound_to 11000
  145.7397  141.0013  143.1308 LP  0  0  0  0  0  0  0  0  0  0  0  0  # atno 17320 bound_to 7965
  144.6940  139.9084  143.7462 LP  0  0  0  0  0  0  0  0  0  0  0  0  # atno 17321 bound_to 7965
  139.6010  144.7582  151.3173 LP  0  0  0  0  0  0  0  0  0  0  0  0  # atno 17342 bound_to 10162
  140.7257  143.7010  150.7845 LP  0  0  0  0  0  0  0  0  0  0  0  0  # atno 17343 bound_to 10162
  156.0158  130.3814  150.2116 LP  0  0  0  0  0  0  0  0  0  0  0  0  # atno 17370 bound_to 10713
  157.0304  131.0005  151.3314 LP  0  0  0  0  0  0  0  0  0  0  0  0  # atno 17371 bound_to 10713
  140.1662  134.9132  157.2776 LP  0  0  0  0  0  0  0  0  0  0  0  0  # atno 17394 bound_to 11000
  140.2554  134.3633  155.7426 LP  0  0  0  0  0  0  0  0  0  0  0  0  # atno 17395 bound_to 11000

$$$$
