AV-unprocessed.smi:2925|AV-procd|sdf|11224|dock1
  -GOLD-   2272016113D 1   1.00000     0.00000
 Structure written by MMmdl.
 44 45  0  0  0  0  0  0  0  0  1 V2000
  151.6054  137.7836  154.6437 C   0  0  0  0  0  0  0  0  0  0  0  0
  150.1711  138.3323  154.6739 C   0  0  0  0  0  0  0  0  0  0  0  0
  150.0838  139.8676  154.5468 C   0  0  2  0  0  0  0  0  0  0  0  0
  150.2862  140.4904  155.8554 N   0  0  0  0  0  0  0  0  0  0  0  0
  151.4202  140.4680  156.5700 C   0  0  0  0  0  0  0  0  0  0  0  0
  152.4539  139.9074  156.2041 O   0  0  0  0  0  0  0  0  0  0  0  0
  151.2673  141.1034  157.7451 N   0  0  0  0  0  0  0  0  0  0  0  0
  152.2271  141.1938  158.7648 C   0  0  0  0  0  0  0  0  0  0  0  0
  152.6557  142.4223  159.1573 C   0  0  0  0  0  0  0  0  0  0  0  0
  152.0977  143.6982  158.5465 C   0  0  0  0  0  0  0  0  0  0  0  0
  153.6510  142.5188  160.2047 C   0  0  0  0  0  0  0  0  0  0  0  0
  154.1326  141.3991  160.7611 C   0  0  0  0  0  0  0  0  0  0  0  0
  153.7115  140.1284  160.3431 N   0  0  0  0  0  0  0  0  0  0  0  0
  154.3129  138.9652  161.0007 C   0  0  0  0  0  0  0  0  0  0  0  0
  152.8058  139.9545  159.3380 C   0  0  0  0  0  0  0  0  0  0  0  0
  152.5163  138.8250  158.9363 O   0  0  0  0  0  0  0  0  0  0  0  0
  148.7290  140.3210  153.9670 C   0  0  1  0  0  0  0  0  0  0  0  0
  147.5244  140.0516  154.8719 C   0  0  0  0  0  0  0  0  0  0  0  0
  146.5258  141.0619  154.3565 C   0  0  0  0  0  0  0  0  0  0  0  0
  147.4199  142.2621  154.0591 C   0  0  0  0  0  0  0  0  0  0  0  0
  148.7107  141.7325  153.7664 O   0  0  0  0  0  0  0  0  0  0  0  0
  151.6024  136.6940  154.6747 H   0  0  0  0  0  0  0  0  0  0  0  0
  152.1888  138.1335  155.4955 H   0  0  0  0  0  0  0  0  0  0  0  0
  152.1237  138.0885  153.7342 H   0  0  0  0  0  0  0  0  0  0  0  0
  149.6136  137.8719  153.8576 H   0  0  0  0  0  0  0  0  0  0  0  0
  149.6813  138.0090  155.5933 H   0  0  0  0  0  0  0  0  0  0  0  0
  150.8616  140.1924  153.8532 H   0  0  0  0  0  0  0  0  0  0  0  0
  149.4912  140.9712  156.2499 H   0  0  0  0  0  0  0  0  0  0  0  0
  150.3397  141.4220  157.9832 H   0  0  0  0  0  0  0  0  0  0  0  0
  152.5500  144.5824  158.9960 H   0  0  0  0  0  0  0  0  0  0  0  0
  151.0198  143.7570  158.7020 H   0  0  0  0  0  0  0  0  0  0  0  0
  152.2958  143.7285  157.4746 H   0  0  0  0  0  0  0  0  0  0  0  0
  153.9993  143.4832  160.5453 H   0  0  0  0  0  0  0  0  0  0  0  0
  154.8724  141.4081  161.5482 H   0  0  0  0  0  0  0  0  0  0  0  0
  153.5440  138.2720  161.3456 H   0  0  0  0  0  0  0  0  0  0  0  0
  154.9101  139.2379  161.8715 H   0  0  0  0  0  0  0  0  0  0  0  0
  154.9650  138.4328  160.3068 H   0  0  0  0  0  0  0  0  0  0  0  0
  148.5563  139.8465  152.9993 H   0  0  0  0  0  0  0  0  0  0  0  0
  147.1633  139.0247  154.8094 H   0  0  0  0  0  0  0  0  0  0  0  0
  147.7689  140.2662  155.9135 H   0  0  0  0  0  0  0  0  0  0  0  0
  146.0673  140.6969  153.4363 H   0  0  0  0  0  0  0  0  0  0  0  0
  145.7319  141.2864  155.0695 H   0  0  0  0  0  0  0  0  0  0  0  0
  147.0409  142.8637  153.2326 H   0  0  0  0  0  0  0  0  0  0  0  0
  147.5022  142.9052  154.9361 H   0  0  0  0  0  0  0  0  0  0  0  0
  1  2  1  0  0  0  0
  1 22  1  0  0  0  0
  1 23  1  0  0  0  0
  1 24  1  0  0  0  0
  2  3  1  0  0  0  0
  2 25  1  0  0  0  0
  2 26  1  0  0  0  0
  3  4  1  0  0  0  0
  3 17  1  0  0  0  0
  3 27  1  0  0  0  0
  4  5  1  0  0  0  0
  4 28  1  0  0  0  0
  5  6  2  0  0  0  0
  5  7  1  0  0  0  0
  7  8  1  0  0  0  0
  7 29  1  0  0  0  0
  8 15  1  0  0  0  0
  8  9  2  0  0  0  0
  9 10  1  0  0  0  0
  9 11  1  0  0  0  0
 10 30  1  0  0  0  0
 10 31  1  0  0  0  0
 10 32  1  0  0  0  0
 11 12  2  0  0  0  0
 11 33  1  0  0  0  0
 12 13  1  0  0  0  0
 12 34  1  0  0  0  0
 13 14  1  0  0  0  0
 13 15  1  0  0  0  0
 14 35  1  0  0  0  0
 14 36  1  0  0  0  0
 14 37  1  0  0  0  0
 15 16  2  0  0  0  0
 17 21  1  0  0  0  0
 17 18  1  0  0  0  0
 17 38  1  0  0  0  0
 18 19  1  0  0  0  0
 18 39  1  0  0  0  0
 18 40  1  0  0  0  0
 19 20  1  0  0  0  0
 19 41  1  0  0  0  0
 19 42  1  0  0  0  0
 20 21  1  0  0  0  0
 20 43  1  0  0  0  0
 20 44  1  0  0  0  0
M  END
> <s_m_source_file>
AV-unprocessed.smi

> <i_m_source_file_index>
2925

> <i_lp_mmshare_version>
43012

> <i_f3d_flags>
0

> <s_epik_input>
TzFbQ0gyXVtDSDJdW0NIMl1bQ0BIXTFbQ0BIXShbQ0gyXVtDSDNdKVtOSF1DKD1PKVtOSF1jMmMoW0NIM10pW2NIXVtjSF1uKFtDSDNdKWMyPU8=

> <s_epik_cmdline>
J2VwaWtfcHl0aG9uJywgJy1waCcsICc3LjAnLCAnLXRuJywgJzgnLCAnLW1hJywgJzIwMCcsICctbWV0YWxfYmluZGluZycsICctaW1hZScsICc8aW5maWxlLm1hZT4nLCAnLW9tYWUnLCAnPG91dGZpbGUubWFlPic=

> <r_lp_tautomer_probability>
1

> <r_epik_Ionization_Penalty>
2.58789e-05

> <r_epik_Ionization_Penalty_Charging>
6.72534e-06

> <r_epik_Ionization_Penalty_Neutral>
1.91535e-05

> <r_epik_State_Penalty>
-0

> <r_epik_Charging_Adjusted_Penalty>
6.72534e-06

> <i_epik_Tot_Q>
0

> <i_epik_Tot_abs_Q>
0

> <r_epik_Metal_State_Penalty>
-0

> <b_epik_Metal_Only>
0

> <s_lp_Force_Field>
OPLS_2005

> <r_lp_Energy>
34.9681

> <b_lp_Chiralities_Consistent>
1

> <s_lp_Variant>
AV-unprocessed.smi:2925-3

> <Gold.Version>
5.8.1

> <Gold.Id.Protein>
6NUR|6NUR_protein|mol2

> <Gold.PLP.Fitness>
45.9178

> <Gold.PLP.PLP>
-42.1644

> <Gold.PLP.part.hbond>
-2.0000

> <Gold.PLP.part.metal>
0.0000

> <Gold.PLP.part.buried>
-3.0647

> <Gold.PLP.part.nonpolar>
-36.8320

> <Gold.PLP.part.repulsive>
0.3283

> <Gold.PLP.ligand.clash>
0.0000

> <Gold.PLP.ligand.torsion>
0.8825

> <Gold.PLP.Chemscore.Hbond>
1.6080

> <Gold.PLP.Chemscore.CHOScore>
0.0000

> <Gold.PLP.Chemscore.Metal>
0.0000

> <Gold.Chemscore.Hbonds>
donor molecule, donor type, donor heavy atom, donor atom, acceptor molecule, acceptor atom, score
      P1  H  7997  8010       L1     6  1.00
      P1  H  8011  8017       L1    21  0.59

> <Gold.PLP.Chemscore.Internal.Correction>
0.6945

> <Gold.Rescore>
     Score         DG    S(hbond)    S(metal)    S(lipo)     H(rot)  DE(clash)    DE(int)     intcor
     17.85     -19.37       1.58        0.00     103.45       1.36       0.15       1.37       ----

> <Gold.Chemscore.Fitness>
17.8469

> <Gold.Chemscore.DG>
-19.3684

> <Gold.Chemscore.ZeroCoef>
-5.4800

> <Gold.Chemscore.Hbond>
1.5751

> <Gold.Chemscore.Metal>
0.0000

> <Gold.Chemscore.Lipo>
103.4526

> <Gold.Chemscore.Internal_Hbond>
0.0000

> <Gold.Chemscore.DEClash>
0.1527

> <Gold.Chemscore.DEInternal>
1.3688

> <Gold.Chemscore.Rot>
1.3579

> <Gold.Chemscore.Internal.Correction>
   9.000000E+99

> <Gold.Chemscore.Hbonds>
donor molecule, donor type, donor heavy atom, donor atom, acceptor molecule, acceptor atom, score
      P1  H  7997  8010       L1     6  0.98
      P1  H  8011  8017       L1    21  0.56

> <Gold.Chemscore.Hbond.Weighted>
-5.2607

> <Gold.Chemscore.Metal.Weighted>
-0.0000

> <Gold.Chemscore.Lipo.Weighted>
-12.1040

> <Gold.Chemscore.Internal_Hbond.Weighted>
0.0000

> <Gold.Chemscore.DEClash.Weighted>
0.1527

> <Gold.Chemscore.DEInternal.Weighted>
1.3688

> <Gold.Chemscore.Rot.Weighted>
3.4763

> <Gold.Chemscore.Internal.Correction.Weighted>
   9.000000E+99

> <Gold.Protein.RotatedTorsions>
[ 6907 6896 6895 6894 ] final   74.11 input  -60.11 | X-H torsion
[ 7974 7965 7964 7962 ] final  -72.79 input  175.53 | X-H torsion
[ 8008 7997 7996 7995 ] final   66.03 input   59.86 | X-H torsion
[ 10167 10162 10161 10158 ] final  -58.29 input  -65.29 | X-H torsion
[ 10718 10713 10712 10709 ] final -142.59 input   66.30 | X-H torsion
[ 10763 10752 10751 10750 ] final   20.75 input  -60.55 | X-H torsion
[ 11005 11000 10999 10996 ] final   61.88 input  -57.11 | X-H torsion

> <Gold.Protein.ActiveResidues>
 VAL166  LYS551  ARG553  GLY616  TRP617  ASP618  TYR619  PRO620  LYS621  CYS622 
 ASP623  PHE694  ASN695  SER759  ASP760  ASP761  ALA762  ILE779  LEU786  VAL792 
 PHE793  MET794  SER795  GLU796  ALA797  LYS798  CYS799  TRP800  GLU811  SER814 

> <Gold.Protein.RotatedAtoms>
  152.4959  134.4321  159.9515 H   0  0  0  0  0  0  0  0  0  0  0  0  # atno 6907 bound_to 6896
  151.4300  133.3667  159.2775 H   0  0  0  0  0  0  0  0  0  0  0  0  # atno 6908 bound_to 6896
  150.9161  134.8602  159.7518 H   0  0  0  0  0  0  0  0  0  0  0  0  # atno 6909 bound_to 6896
  145.6606  140.9254  143.0936 H   0  0  0  0  0  0  0  0  0  0  0  0  # atno 7974 bound_to 7965
  155.6710  140.3497  155.4818 H   0  0  0  0  0  0  0  0  0  0  0  0  # atno 8008 bound_to 7997
  155.9688  140.1151  157.0853 H   0  0  0  0  0  0  0  0  0  0  0  0  # atno 8009 bound_to 7997
  154.4161  140.1161  156.5265 H   0  0  0  0  0  0  0  0  0  0  0  0  # atno 8010 bound_to 7997
  140.6206  143.2418  151.5490 H   0  0  0  0  0  0  0  0  0  0  0  0  # atno 10167 bound_to 10162
  156.3477  130.7671  151.1819 H   0  0  0  0  0  0  0  0  0  0  0  0  # atno 10718 bound_to 10713
  153.1051  135.6682  153.9601 H   0  0  0  0  0  0  0  0  0  0  0  0  # atno 10763 bound_to 10752
  153.9160  135.3020  155.3449 H   0  0  0  0  0  0  0  0  0  0  0  0  # atno 10764 bound_to 10752
  154.7472  135.5052  153.9302 H   0  0  0  0  0  0  0  0  0  0  0  0  # atno 10765 bound_to 10752
  140.0130  134.6267  155.9751 H   0  0  0  0  0  0  0  0  0  0  0  0  # atno 11005 bound_to 11000
  144.7090  139.8444  143.7420 LP  0  0  0  0  0  0  0  0  0  0  0  0  # atno 17320 bound_to 7965
  146.1128  139.4135  143.0277 LP  0  0  0  0  0  0  0  0  0  0  0  0  # atno 17321 bound_to 7965
  139.5435  144.2583  152.1398 LP  0  0  0  0  0  0  0  0  0  0  0  0  # atno 17342 bound_to 10162
  140.1802  144.4852  150.6532 LP  0  0  0  0  0  0  0  0  0  0  0  0  # atno 17343 bound_to 10162
  157.7456  131.0436  150.4753 LP  0  0  0  0  0  0  0  0  0  0  0  0  # atno 17370 bound_to 10713
  156.4943  130.4102  149.6389 LP  0  0  0  0  0  0  0  0  0  0  0  0  # atno 17371 bound_to 10713
  141.1724  133.6538  156.4701 LP  0  0  0  0  0  0  0  0  0  0  0  0  # atno 17394 bound_to 11000
  140.4520  134.6920  157.5044 LP  0  0  0  0  0  0  0  0  0  0  0  0  # atno 17395 bound_to 11000

$$$$
