AV-unprocessed.smi:1933|AV-procd|sdf|7818|dock9
  -GOLD-   22720 9563D 1   1.00000     0.00000
 Structure written by MMmdl.
 47 49  0  0  0  0  0  0  0  0  1 V2000
  145.0163  136.5858  153.4975 O   0  0  0  0  0  0  0  0  0  0  0  0
  146.1296  136.5290  152.9741 C   0  0  0  0  0  0  0  0  0  0  0  0
  147.1085  137.4097  153.2277 N   0  0  0  0  0  0  0  0  0  0  0  0
  146.9965  138.5337  154.1521 C   0  0  0  0  0  0  0  0  0  0  0  0
  148.1892  139.5233  154.0498 C   0  0  1  0  0  0  0  0  0  0  0  0
  147.7709  141.0018  154.2981 C   0  0  1  0  0  0  0  0  0  0  0  0
  146.8279  141.6880  153.3276 C   0  0  0  0  0  0  0  0  0  0  0  0
  146.4745  142.9483  154.1105 C   0  0  0  0  0  0  0  0  0  0  0  0
  146.4475  142.5482  155.4790 O   0  0  0  0  0  0  0  0  0  0  0  0
  147.0719  141.2744  155.6310 C   0  0  0  0  0  0  0  0  0  0  0  0
  149.4090  139.0876  154.7576 N   0  0  0  0  0  0  0  0  0  0  0  0
  150.0913  137.9254  154.1818 C   0  0  0  0  0  0  0  0  0  0  0  0
  151.2893  137.4914  155.0423 C   0  0  0  0  0  0  0  0  0  0  0  0
  152.1956  138.5819  155.1744 O   0  0  0  0  0  0  0  0  0  0  0  0
  151.5911  139.7339  155.7538 C   0  0  0  0  0  0  0  0  0  0  0  0
  150.3808  140.1687  154.9089 C   0  0  0  0  0  0  0  0  0  0  0  0
  146.5280  135.5963  152.0910 N   0  0  0  0  0  0  0  0  0  0  0  0
  145.7896  134.4902  151.5911 C   0  0  0  0  0  0  0  0  0  0  0  0
  146.5709  133.4368  151.0644 C   0  0  0  0  0  0  0  0  0  0  0  0
  145.9333  132.2917  150.5487 C   0  0  0  0  0  0  0  0  0  0  0  0
  144.5287  132.2295  150.5719 C   0  0  0  0  0  0  0  0  0  0  0  0
  143.8256  133.3222  151.1116 C   0  0  0  0  0  0  0  0  0  0  0  0
  144.4348  134.4201  151.6071 N   0  0  0  0  0  0  0  0  0  0  0  0
  147.9925  137.2938  152.7543 H   0  0  0  0  0  0  0  0  0  0  0  0
  146.0607  139.0474  153.9316 H   0  0  0  0  0  0  0  0  0  0  0  0
  146.8982  138.1436  155.1661 H   0  0  0  0  0  0  0  0  0  0  0  0
  148.4549  139.5341  152.9920 H   0  0  0  0  0  0  0  0  0  0  0  0
  148.6843  141.5984  154.3162 H   0  0  0  0  0  0  0  0  0  0  0  0
  147.2756  141.8980  152.3562 H   0  0  0  0  0  0  0  0  0  0  0  0
  145.9124  141.1207  153.1811 H   0  0  0  0  0  0  0  0  0  0  0  0
  147.2483  143.7063  153.9822 H   0  0  0  0  0  0  0  0  0  0  0  0
  145.5225  143.3804  153.8014 H   0  0  0  0  0  0  0  0  0  0  0  0
  146.2956  140.5351  155.8314 H   0  0  0  0  0  0  0  0  0  0  0  0
  147.7662  141.2710  156.4716 H   0  0  0  0  0  0  0  0  0  0  0  0
  149.4188  137.0830  154.0598 H   0  0  0  0  0  0  0  0  0  0  0  0
  150.4585  138.1650  153.1832 H   0  0  0  0  0  0  0  0  0  0  0  0
  150.9587  137.1589  156.0275 H   0  0  0  0  0  0  0  0  0  0  0  0
  151.8071  136.6530  154.5766 H   0  0  0  0  0  0  0  0  0  0  0  0
  151.2862  139.5148  156.7781 H   0  0  0  0  0  0  0  0  0  0  0  0
  152.3271  140.5364  155.8032 H   0  0  0  0  0  0  0  0  0  0  0  0
  150.7263  140.5033  153.9304 H   0  0  0  0  0  0  0  0  0  0  0  0
  149.9102  141.0299  155.3843 H   0  0  0  0  0  0  0  0  0  0  0  0
  147.4711  135.6818  151.7424 H   0  0  0  0  0  0  0  0  0  0  0  0
  147.6493  133.5005  151.0547 H   0  0  0  0  0  0  0  0  0  0  0  0
  146.5126  131.4755  150.1428 H   0  0  0  0  0  0  0  0  0  0  0  0
  144.0041  131.3678  150.1864 H   0  0  0  0  0  0  0  0  0  0  0  0
  142.7463  133.3145  151.1472 H   0  0  0  0  0  0  0  0  0  0  0  0
  1  2  2  0  0  0  0
  2  3  1  0  0  0  0
  2 17  1  0  0  0  0
  3  4  1  0  0  0  0
  3 24  1  0  0  0  0
  4  5  1  0  0  0  0
  4 25  1  0  0  0  0
  4 26  1  0  0  0  0
  5  6  1  0  0  0  0
  5 11  1  0  0  0  0
  5 27  1  0  0  0  0
  6 10  1  0  0  0  0
  6  7  1  0  0  0  0
  6 28  1  0  0  0  0
  7  8  1  0  0  0  0
  7 29  1  0  0  0  0
  7 30  1  0  0  0  0
  8  9  1  0  0  0  0
  8 31  1  0  0  0  0
  8 32  1  0  0  0  0
  9 10  1  0  0  0  0
 10 33  1  0  0  0  0
 10 34  1  0  0  0  0
 11 16  1  0  0  0  0
 11 12  1  0  0  0  0
 12 13  1  0  0  0  0
 12 35  1  0  0  0  0
 12 36  1  0  0  0  0
 13 14  1  0  0  0  0
 13 37  1  0  0  0  0
 13 38  1  0  0  0  0
 14 15  1  0  0  0  0
 15 16  1  0  0  0  0
 15 39  1  0  0  0  0
 15 40  1  0  0  0  0
 16 41  1  0  0  0  0
 16 42  1  0  0  0  0
 17 18  1  0  0  0  0
 17 43  1  0  0  0  0
 18 23  1  0  0  0  0
 18 19  2  0  0  0  0
 19 20  1  0  0  0  0
 19 44  1  0  0  0  0
 20 21  2  0  0  0  0
 20 45  1  0  0  0  0
 21 22  1  0  0  0  0
 21 46  1  0  0  0  0
 22 23  2  0  0  0  0
 22 47  1  0  0  0  0
M  END
> <s_m_source_file>
AV-unprocessed.smi

> <i_m_source_file_index>
1933

> <i_lp_mmshare_version>
43012

> <i_f3d_flags>
0

> <s_epik_input>
bjFbY0hdW2NIXVtjSF1bY0hdYzFbTkhdQyg9TylbTkhdW0NIMl1bQ0BIXShbQ0BASF0yW0NIMl1bQ0gyXU9bQ0gyXTIpTjNbQ0gyXVtDSDJdT1tDSDJdW0NIMl0z

> <s_epik_cmdline>
J2VwaWtfcHl0aG9uJywgJy1waCcsICc3LjAnLCAnLXRuJywgJzgnLCAnLW1hJywgJzIwMCcsICctbWV0YWxfYmluZGluZycsICctaW1hZScsICc8aW5maWxlLm1hZT4nLCAnLW9tYWUnLCAnPG91dGZpbGUubWFlPic=

> <r_epik_Ionization_Penalty>
0.125062

> <r_epik_Ionization_Penalty_Charging>
0

> <r_epik_Ionization_Penalty_Neutral>
0.125062

> <r_epik_State_Penalty>
0.114484

> <r_epik_Charging_Adjusted_Penalty>
0.114484

> <i_epik_Tot_Q>
0

> <i_epik_Tot_abs_Q>
0

> <r_epik_Metal_State_Penalty>
0.114484

> <b_epik_Metal_Only>
0

> <s_lp_Force_Field>
OPLS_2005

> <r_lp_Energy>
56.0331

> <b_lp_Chiralities_Consistent>
1

> <s_lp_Variant>
AV-unprocessed.smi:1933-4

> <Gold.Version>
5.8.1

> <Gold.Id.Protein>
6NUR|6NUR_protein|mol2

> <Gold.PLP.Fitness>
42.5518

> <Gold.PLP.PLP>
-35.6175

> <Gold.PLP.part.hbond>
-1.8971

> <Gold.PLP.part.metal>
0.0000

> <Gold.PLP.part.buried>
-3.3990

> <Gold.PLP.part.nonpolar>
-31.3450

> <Gold.PLP.part.repulsive>
0.6204

> <Gold.PLP.ligand.clash>
0.0000

> <Gold.PLP.ligand.torsion>
0.9745

> <Gold.PLP.Chemscore.Hbond>
1.8800

> <Gold.PLP.Chemscore.CHOScore>
0.9910

> <Gold.PLP.Chemscore.Metal>
0.0000

> <Gold.Chemscore.Hbonds>
donor molecule, donor type, donor heavy atom, donor atom, acceptor molecule, acceptor atom, score
      L1  H     3    24       P1  7948  0.91
      L1  H    17    43       P1  7948  1.00
      L1  C    22    47       P1 10186  0.83

> <Gold.PLP.Chemscore.Internal.Correction>
0.2704

> <Gold.Rescore>
     Score         DG    S(hbond)    S(metal)    S(lipo)     H(rot)  DE(clash)    DE(int)     intcor
     15.55     -17.60       1.87        0.00      87.64       1.72       0.11       1.94       ----

> <Gold.Chemscore.Fitness>
15.5482

> <Gold.Chemscore.DG>
-17.5985

> <Gold.Chemscore.ZeroCoef>
-5.4800

> <Gold.Chemscore.Hbond>
1.8734

> <Gold.Chemscore.Metal>
0.0000

> <Gold.Chemscore.Lipo>
87.6449

> <Gold.Chemscore.Internal_Hbond>
0.0000

> <Gold.Chemscore.DEClash>
0.1058

> <Gold.Chemscore.DEInternal>
1.9445

> <Gold.Chemscore.Rot>
1.7161

> <Gold.Chemscore.Internal.Correction>
   9.000000E+99

> <Gold.Chemscore.Hbonds>
donor molecule, donor type, donor heavy atom, donor atom, acceptor molecule, acceptor atom, score
      L1  H     3    24       P1  7948  0.89
      L1  H    17    43       P1  7948  0.93

> <Gold.Chemscore.Hbond.Weighted>
-6.2573

> <Gold.Chemscore.Metal.Weighted>
-0.0000

> <Gold.Chemscore.Lipo.Weighted>
-10.2545

> <Gold.Chemscore.Internal_Hbond.Weighted>
0.0000

> <Gold.Chemscore.DEClash.Weighted>
0.1058

> <Gold.Chemscore.DEInternal.Weighted>
1.9445

> <Gold.Chemscore.Rot.Weighted>
4.3932

> <Gold.Chemscore.Internal.Correction.Weighted>
   9.000000E+99

> <Gold.Protein.RotatedTorsions>
[ 6907 6896 6895 6894 ] final -154.27 input  -60.11 | X-H torsion
[ 7974 7965 7964 7962 ] final  -38.26 input  175.53 | X-H torsion
[ 8008 7997 7996 7995 ] final  -30.62 input   59.86 | X-H torsion
[ 10167 10162 10161 10158 ] final -112.87 input  -65.29 | X-H torsion
[ 10718 10713 10712 10709 ] final   30.80 input   66.30 | X-H torsion
[ 10763 10752 10751 10750 ] final  -15.49 input  -60.55 | X-H torsion
[ 11005 11000 10999 10996 ] final -125.45 input  -57.11 | X-H torsion

> <Gold.Protein.ActiveResidues>
 VAL166  LYS551  ARG553  GLY616  TRP617  ASP618  TYR619  PRO620  LYS621  CYS622 
 ASP623  PHE694  ASN695  SER759  ASP760  ASP761  ALA762  ILE779  LEU786  VAL792 
 PHE793  MET794  SER795  GLU796  ALA797  LYS798  CYS799  TRP800  GLU811  SER814 

> <Gold.Protein.RotatedAtoms>
  151.2549  133.4331  159.2613 H   0  0  0  0  0  0  0  0  0  0  0  0  # atno 6907 bound_to 6896
  151.0583  134.9720  159.8257 H   0  0  0  0  0  0  0  0  0  0  0  0  # atno 6908 bound_to 6896
  152.5394  134.2501  159.8948 H   0  0  0  0  0  0  0  0  0  0  0  0  # atno 6909 bound_to 6896
  146.0502  140.6491  142.9045 H   0  0  0  0  0  0  0  0  0  0  0  0  # atno 7974 bound_to 7965
  154.4243  140.1786  156.1437 H   0  0  0  0  0  0  0  0  0  0  0  0  # atno 8008 bound_to 7997
  155.9971  140.3363  155.6785 H   0  0  0  0  0  0  0  0  0  0  0  0  # atno 8009 bound_to 7997
  155.6293  140.0668  157.2644 H   0  0  0  0  0  0  0  0  0  0  0  0  # atno 8010 bound_to 7997
  140.1180  143.4468  152.1709 H   0  0  0  0  0  0  0  0  0  0  0  0  # atno 10167 bound_to 10162
  157.2642  130.7176  149.6470 H   0  0  0  0  0  0  0  0  0  0  0  0  # atno 10718 bound_to 10713
  153.5442  135.7013  153.5622 H   0  0  0  0  0  0  0  0  0  0  0  0  # atno 10763 bound_to 10752
  153.3574  135.3979  155.1692 H   0  0  0  0  0  0  0  0  0  0  0  0  # atno 10764 bound_to 10752
  154.8670  135.3780  154.4949 H   0  0  0  0  0  0  0  0  0  0  0  0  # atno 10765 bound_to 10752
  140.9761  134.0738  157.3817 H   0  0  0  0  0  0  0  0  0  0  0  0  # atno 11005 bound_to 11000
  144.7118  140.4068  143.7074 LP  0  0  0  0  0  0  0  0  0  0  0  0  # atno 17320 bound_to 7965
  145.6737  139.1604  143.2740 LP  0  0  0  0  0  0  0  0  0  0  0  0  # atno 17321 bound_to 7965
  139.5583  144.7388  151.4228 LP  0  0  0  0  0  0  0  0  0  0  0  0  # atno 17342 bound_to 10162
  140.6888  143.7911  150.7225 LP  0  0  0  0  0  0  0  0  0  0  0  0  # atno 17343 bound_to 10162
  155.9663  130.4388  150.5231 LP  0  0  0  0  0  0  0  0  0  0  0  0  # atno 17370 bound_to 10713
  157.3142  131.0669  151.1979 LP  0  0  0  0  0  0  0  0  0  0  0  0  # atno 17371 bound_to 10713
  139.8931  135.0128  156.6881 LP  0  0  0  0  0  0  0  0  0  0  0  0  # atno 17394 bound_to 11000
  140.7257  133.9102  155.8177 LP  0  0  0  0  0  0  0  0  0  0  0  0  # atno 17395 bound_to 11000

$$$$
