AV-unprocessed.smi:249|AV-procd|sdf|1927|dock10
  -GOLD-   2262021 43D 1   1.00000     0.00000
 Structure written by MMmdl.
 64 67  0  0  0  0  0  0  0  0  2 V2000
  145.7436  128.8862  151.5887 C   0  0  0  0  0  0  0  0  0  0  0  0
  146.2216  129.9962  152.5395 C   0  0  0  0  0  0  0  0  0  0  0  0
  146.5541  131.2752  151.8469 N   0  3  1  0  0  0  0  0  0  0  0  0
  145.4357  131.7407  150.9763 C   0  0  0  0  0  0  0  0  0  0  0  0
  145.7957  133.0149  150.1964 C   0  0  0  0  0  0  0  0  0  0  0  0
  146.1843  134.1627  151.1429 C   0  0  1  0  0  0  0  0  0  0  0  0
  145.0432  134.6390  151.9420 N   0  0  0  0  0  0  0  0  0  0  0  0
  143.8445  135.0499  151.2174 C   0  0  0  0  0  0  0  0  0  0  0  0
  145.3425  135.5398  152.9042 C   0  0  0  0  0  0  0  0  0  0  0  0
  145.0906  135.1847  154.1879 N   0  0  0  0  0  0  0  0  0  0  0  0
  145.3756  136.0326  155.1812 C   0  0  0  0  0  0  0  0  0  0  0  0
  145.9026  137.2571  155.1089 N   0  0  0  0  0  0  0  0  0  0  0  0
  146.1485  137.6169  153.8162 C   0  0  0  0  0  0  0  0  0  0  0  0
  145.8992  136.8261  152.6603 C   0  0  0  0  0  0  0  0  0  0  0  0
  146.2721  137.5220  151.5170 N   0  0  0  0  0  0  0  0  0  0  0  0
  146.7138  138.6634  151.9712 C   0  0  0  0  0  0  0  0  0  0  0  0
  146.6738  138.8050  153.3397 N   0  0  0  0  0  0  0  0  0  0  0  0
  147.0978  139.9644  154.1031 C   0  0  0  0  0  0  0  0  0  0  0  0
  148.6256  140.2371  154.0231 C   0  0  1  0  0  0  0  0  0  0  0  0
  149.0237  141.6580  154.4939 C   0  0  0  0  0  0  0  0  0  0  0  0
  148.4725  141.9739  155.7562 O   0  0  0  0  0  0  0  0  0  0  0  0
  149.4795  139.1740  154.7646 C   0  0  1  0  0  0  0  0  0  0  0  0
  150.9926  139.2426  154.5640 C   0  0  0  0  0  0  0  0  0  0  0  0
  151.5671  138.7998  155.9139 C   0  0  0  0  0  0  0  0  0  0  0  0
  150.4541  138.3315  156.6640 O   0  0  0  0  0  0  0  0  0  0  0  0
  149.3339  139.1132  156.2861 C   0  0  0  0  0  0  0  0  0  0  0  0
  147.3660  133.6455  151.9917 C   0  0  0  0  0  0  0  0  0  0  0  0
  147.0258  132.3555  152.7740 C   0  0  2  0  0  0  0  0  0  0  0  0
  148.2600  131.9458  153.6042 C   0  0  0  0  0  0  0  0  0  0  0  0
  145.6791  127.9356  152.1182 H   0  0  0  0  0  0  0  0  0  0  0  0
  146.4347  128.7515  150.7561 H   0  0  0  0  0  0  0  0  0  0  0  0
  144.7524  129.0862  151.1827 H   0  0  0  0  0  0  0  0  0  0  0  0
  145.4772  130.1770  153.3162 H   0  0  0  0  0  0  0  0  0  0  0  0
  147.1016  129.5986  153.0397 H   0  0  0  0  0  0  0  0  0  0  0  0
  145.1772  130.9752  150.2466 H   0  0  0  0  0  0  0  0  0  0  0  0
  144.5450  131.9077  151.5841 H   0  0  0  0  0  0  0  0  0  0  0  0
  146.6316  132.7997  149.5294 H   0  0  0  0  0  0  0  0  0  0  0  0
  144.9717  133.3033  149.5436 H   0  0  0  0  0  0  0  0  0  0  0  0
  146.5328  134.9985  150.5353 H   0  0  0  0  0  0  0  0  0  0  0  0
  143.1713  135.6413  151.8409 H   0  0  0  0  0  0  0  0  0  0  0  0
  143.2882  134.1747  150.8821 H   0  0  0  0  0  0  0  0  0  0  0  0
  144.1069  135.6457  150.3423 H   0  0  0  0  0  0  0  0  0  0  0  0
  145.1497  135.6796  156.1766 H   0  0  0  0  0  0  0  0  0  0  0  0
  147.0790  139.4413  151.3167 H   0  0  0  0  0  0  0  0  0  0  0  0
  146.5289  140.8245  153.7521 H   0  0  0  0  0  0  0  0  0  0  0  0
  146.7891  139.7946  155.1335 H   0  0  0  0  0  0  0  0  0  0  0  0
  148.9096  140.1583  152.9723 H   0  0  0  0  0  0  0  0  0  0  0  0
  150.1083  141.7654  154.5293 H   0  0  0  0  0  0  0  0  0  0  0  0
  148.6565  142.4107  153.7956 H   0  0  0  0  0  0  0  0  0  0  0  0
  148.4291  142.9145  155.8378 H   0  0  0  0  0  0  0  0  0  0  0  0
  149.1624  138.1940  154.4035 H   0  0  0  0  0  0  0  0  0  0  0  0
  151.3045  138.5761  153.7589 H   0  0  0  0  0  0  0  0  0  0  0  0
  151.3478  140.2418  154.3150 H   0  0  0  0  0  0  0  0  0  0  0  0
  152.3248  138.0226  155.8118 H   0  0  0  0  0  0  0  0  0  0  0  0
  152.0176  139.6469  156.4330 H   0  0  0  0  0  0  0  0  0  0  0  0
  149.4158  140.0909  156.7604 H   0  0  0  0  0  0  0  0  0  0  0  0
  148.3975  138.6524  156.6020 H   0  0  0  0  0  0  0  0  0  0  0  0
  148.2098  133.4448  151.3295 H   0  0  0  0  0  0  0  0  0  0  0  0
  147.7215  134.4196  152.6725 H   0  0  0  0  0  0  0  0  0  0  0  0
  146.2152  132.5759  153.4700 H   0  0  0  0  0  0  0  0  0  0  0  0
  148.6659  132.8013  154.1453 H   0  0  0  0  0  0  0  0  0  0  0  0
  149.0551  131.5526  152.9700 H   0  0  0  0  0  0  0  0  0  0  0  0
  148.0236  131.1992  154.3615 H   0  0  0  0  0  0  0  0  0  0  0  0
  147.3307  131.0748  151.2331 H   0  0  0  0  0  0  0  0  0  0  0  0
  1  2  1  0  0  0  0
  1 30  1  0  0  0  0
  1 31  1  0  0  0  0
  1 32  1  0  0  0  0
  2  3  1  0  0  0  0
  2 33  1  0  0  0  0
  2 34  1  0  0  0  0
  3 28  1  0  0  0  0
  3  4  1  0  0  0  0
  3 64  1  0  0  0  0
  4  5  1  0  0  0  0
  4 35  1  0  0  0  0
  4 36  1  0  0  0  0
  5  6  1  0  0  0  0
  5 37  1  0  0  0  0
  5 38  1  0  0  0  0
  6  7  1  0  0  0  0
  6 27  1  0  0  0  0
  6 39  1  0  0  0  0
  7  8  1  0  0  0  0
  7  9  1  0  0  0  0
  8 40  1  0  0  0  0
  8 41  1  0  0  0  0
  8 42  1  0  0  0  0
  9 14  1  0  0  0  0
  9 10  2  0  0  0  0
 10 11  1  0  0  0  0
 11 12  2  0  0  0  0
 11 43  1  0  0  0  0
 12 13  1  0  0  0  0
 13 17  1  0  0  0  0
 13 14  2  0  0  0  0
 14 15  1  0  0  0  0
 15 16  2  0  0  0  0
 16 17  1  0  0  0  0
 16 44  1  0  0  0  0
 17 18  1  0  0  0  0
 18 19  1  0  0  0  0
 18 45  1  0  0  0  0
 18 46  1  0  0  0  0
 19 20  1  0  0  0  0
 19 22  1  0  0  0  0
 19 47  1  0  0  0  0
 20 21  1  0  0  0  0
 20 48  1  0  0  0  0
 20 49  1  0  0  0  0
 21 50  1  0  0  0  0
 22 26  1  0  0  0  0
 22 23  1  0  0  0  0
 22 51  1  0  0  0  0
 23 24  1  0  0  0  0
 23 52  1  0  0  0  0
 23 53  1  0  0  0  0
 24 25  1  0  0  0  0
 24 54  1  0  0  0  0
 24 55  1  0  0  0  0
 25 26  1  0  0  0  0
 26 56  1  0  0  0  0
 26 57  1  0  0  0  0
 27 28  1  0  0  0  0
 27 58  1  0  0  0  0
 27 59  1  0  0  0  0
 28 29  1  0  0  0  0
 28 60  1  0  0  0  0
 29 61  1  0  0  0  0
 29 62  1  0  0  0  0
 29 63  1  0  0  0  0
M  CHG  1   3   1
M  END
> <s_m_source_file>
AV-unprocessed.smi

> <i_m_source_file_index>
249

> <i_lp_mmshare_version>
43012

> <i_f3d_flags>
0

> <s_epik_input>
W0NIM11bQ0gyXU4xW0NIMl1bQ0gyXVtDQEhdKFtDSDJdW0NASF0xW0NIM10pTihbQ0gzXSljKG5bY0hdbjIpYyhjMjMpbltjSF1uM1tDSDJdW0NASF0oW0NIMl1bT0hdKVtDQEBIXTRbQ0gyXVtDSDJdT1tDSDJdNA==

> <s_epik_cmdline>
J2VwaWtfcHl0aG9uJywgJy1waCcsICc3LjAnLCAnLXRuJywgJzgnLCAnLW1hJywgJzIwMCcsICctbWV0YWxfYmluZGluZycsICctaW1hZScsICc8aW5maWxlLm1hZT4nLCAnLW9tYWUnLCAnPG91dGZpbGUubWFlPic=

> <r_lp_tautomer_probability>
1

> <r_epik_Ionization_Penalty>
0.00294688

> <r_epik_Ionization_Penalty_Charging>
0.00169971

> <r_epik_Ionization_Penalty_Neutral>
0.00124717

> <r_epik_State_Penalty>
-0

> <r_epik_Charging_Adjusted_Penalty>
0.00169971

> <i_epik_Tot_Q>
1

> <i_epik_Tot_abs_Q>
1

> <r_epik_Metal_State_Penalty>
-0

> <b_epik_Metal_Only>
0

> <s_lp_Force_Field>
OPLS_2005

> <r_lp_Energy>
57.5801

> <b_lp_Chiralities_Consistent>
1

> <s_lp_Variant>
AV-unprocessed.smi:249-30

> <Gold.Version>
5.8.1

> <Gold.Id.Protein>
6NUR|6NUR_protein|mol2

> <Gold.PLP.Fitness>
49.6127

> <Gold.PLP.PLP>
-41.2438

> <Gold.PLP.part.hbond>
-2.0000

> <Gold.PLP.part.metal>
0.0000

> <Gold.PLP.part.buried>
-0.4549

> <Gold.PLP.part.nonpolar>
-39.2924

> <Gold.PLP.part.repulsive>
1.6949

> <Gold.PLP.ligand.clash>
0.0000

> <Gold.PLP.ligand.torsion>
0.4747

> <Gold.PLP.Chemscore.Hbond>
2.0000

> <Gold.PLP.Chemscore.CHOScore>
0.8779

> <Gold.PLP.Chemscore.Metal>
0.0000

> <Gold.Chemscore.Hbonds>
donor molecule, donor type, donor heavy atom, donor atom, acceptor molecule, acceptor atom, score
      L1  H     3    64       P1 10747  1.00
      L1  H    21    50       P1  8028  1.00
      L1  C    16    44       P1  7957  0.81

> <Gold.PLP.Chemscore.Internal.Correction>
0.6846

> <Gold.Rescore>
     Score         DG    S(hbond)    S(metal)    S(lipo)     H(rot)  DE(clash)    DE(int)     intcor
     14.42     -17.20       1.96        0.00     107.75       2.90       1.10       1.68       ----

> <Gold.Chemscore.Fitness>
14.4240

> <Gold.Chemscore.DG>
-17.2009

> <Gold.Chemscore.ZeroCoef>
-5.4800

> <Gold.Chemscore.Hbond>
1.9581

> <Gold.Chemscore.Metal>
0.0000

> <Gold.Chemscore.Lipo>
107.7464

> <Gold.Chemscore.Internal_Hbond>
0.0000

> <Gold.Chemscore.DEClash>
1.0998

> <Gold.Chemscore.DEInternal>
1.6771

> <Gold.Chemscore.Rot>
2.9006

> <Gold.Chemscore.Internal.Correction>
   9.000000E+99

> <Gold.Chemscore.Hbonds>
donor molecule, donor type, donor heavy atom, donor atom, acceptor molecule, acceptor atom, score
      L1  H     3    64       P1 10747  1.00
      L1  H    21    50       P1  8028  0.97

> <Gold.Chemscore.Hbond.Weighted>
-6.5402

> <Gold.Chemscore.Metal.Weighted>
-0.0000

> <Gold.Chemscore.Lipo.Weighted>
-12.6063

> <Gold.Chemscore.Internal_Hbond.Weighted>
0.0000

> <Gold.Chemscore.DEClash.Weighted>
1.0998

> <Gold.Chemscore.DEInternal.Weighted>
1.6771

> <Gold.Chemscore.Rot.Weighted>
7.4256

> <Gold.Chemscore.Internal.Correction.Weighted>
   9.000000E+99

> <Gold.Protein.RotatedTorsions>
[ 6907 6896 6895 6894 ] final  -52.81 input  -60.11 | X-H torsion
[ 7974 7965 7964 7962 ] final  171.50 input  175.53 | X-H torsion
[ 8008 7997 7996 7995 ] final  -65.74 input   59.86 | X-H torsion
[ 10167 10162 10161 10158 ] final   93.14 input  -65.29 | X-H torsion
[ 10718 10713 10712 10709 ] final    9.95 input   66.30 | X-H torsion
[ 10763 10752 10751 10750 ] final    0.69 input  -60.55 | X-H torsion
[ 11005 11000 10999 10996 ] final  -49.23 input  -57.11 | X-H torsion

> <Gold.Protein.ActiveResidues>
 VAL166  LYS551  ARG553  GLY616  TRP617  ASP618  TYR619  PRO620  LYS621  CYS622 
 ASP623  PHE694  ASN695  SER759  ASP760  ASP761  ALA762  ILE779  LEU786  VAL792 
 PHE793  MET794  SER795  GLU796  ALA797  LYS798  CYS799  TRP800  GLU811  SER814 

> <Gold.Protein.RotatedAtoms>
  150.8484  134.7800  159.6988 H   0  0  0  0  0  0  0  0  0  0  0  0  # atno 6907 bound_to 6896
  152.4555  134.5298  159.9817 H   0  0  0  0  0  0  0  0  0  0  0  0  # atno 6908 bound_to 6896
  151.5424  133.3392  159.2973 H   0  0  0  0  0  0  0  0  0  0  0  0  # atno 6909 bound_to 6896
  144.7293  139.9359  143.6426 H   0  0  0  0  0  0  0  0  0  0  0  0  # atno 7974 bound_to 7965
  154.4690  140.0927  156.7097 H   0  0  0  0  0  0  0  0  0  0  0  0  # atno 8008 bound_to 7997
  155.4776  140.3466  155.4316 H   0  0  0  0  0  0  0  0  0  0  0  0  # atno 8009 bound_to 7997
  156.1007  140.1421  156.9459 H   0  0  0  0  0  0  0  0  0  0  0  0  # atno 8010 bound_to 7997
  139.8209  144.6732  150.9520 H   0  0  0  0  0  0  0  0  0  0  0  0  # atno 10167 bound_to 10162
  156.9738  130.5979  149.5671 H   0  0  0  0  0  0  0  0  0  0  0  0  # atno 10718 bound_to 10713
  153.3175  135.6967  153.7060 H   0  0  0  0  0  0  0  0  0  0  0  0  # atno 10763 bound_to 10752
  153.5913  135.3479  155.2912 H   0  0  0  0  0  0  0  0  0  0  0  0  # atno 10764 bound_to 10752
  154.8590  135.4318  154.2330 H   0  0  0  0  0  0  0  0  0  0  0  0  # atno 10765 bound_to 10752
  141.0747  133.6669  156.3555 H   0  0  0  0  0  0  0  0  0  0  0  0  # atno 11005 bound_to 11000
  146.0822  139.3810  143.0457 LP  0  0  0  0  0  0  0  0  0  0  0  0  # atno 17320 bound_to 7965
  145.7825  140.9850  143.1091 LP  0  0  0  0  0  0  0  0  0  0  0  0  # atno 17321 bound_to 7965
  140.7813  143.4093  151.1019 LP  0  0  0  0  0  0  0  0  0  0  0  0  # atno 17342 bound_to 10162
  139.7753  143.8434  152.3128 LP  0  0  0  0  0  0  0  0  0  0  0  0  # atno 17343 bound_to 10162
  156.0272  130.5365  150.8437 LP  0  0  0  0  0  0  0  0  0  0  0  0  # atno 17370 bound_to 10713
  157.5574  131.0945  150.9609 LP  0  0  0  0  0  0  0  0  0  0  0  0  # atno 17371 bound_to 10713
  140.5599  134.5944  157.5431 LP  0  0  0  0  0  0  0  0  0  0  0  0  # atno 17394 bound_to 11000
  139.9559  134.7535  156.0342 LP  0  0  0  0  0  0  0  0  0  0  0  0  # atno 17395 bound_to 11000

$$$$
