AV-unprocessed.smi:3111|AV-procd|sdf|11833|dock9
  -GOLD-   2272017203D 1   1.00000     0.00000
 Structure written by MMmdl.
 29 29  0  0  0  0  0  0  0  0  1 V2000
  150.4032  138.5180  154.4265 C   0  0  0  0  0  0  0  0  0  0  0  0
  150.1071  139.4923  155.4656 N   0  0  0  0  0  0  0  0  0  0  0  0
  149.7431  140.7601  155.2281 C   0  0  0  0  0  0  0  0  0  0  0  0
  149.6125  141.2207  154.0927 O   0  0  0  0  0  0  0  0  0  0  0  0
  149.4694  141.6253  156.4652 C   0  0  0  0  0  0  0  0  0  0  0  0
  150.6743  142.2688  156.9815 N   0  0  0  0  0  0  0  0  0  0  0  0
  150.7622  142.9240  158.1505 C   0  0  0  0  0  0  0  0  0  0  0  0
  149.7985  143.0975  158.8977 O   0  0  0  0  0  0  0  0  0  0  0  0
  152.1571  143.4464  158.5290 C   0  0  1  0  0  0  0  0  0  0  0  0
  152.2557  144.9833  158.4914 C   0  0  0  0  0  0  0  0  0  0  0  0
  152.5566  142.9241  159.8285 N   0  0  0  0  0  0  0  0  0  0  0  0
  153.5282  141.9616  160.0757 C   0  0  0  0  0  0  0  0  0  0  0  0
  153.5606  141.7724  161.4387 C   0  0  0  0  0  0  0  0  0  0  0  0
  152.6224  142.6001  162.0496 N   0  0  0  0  0  0  0  0  0  0  0  0
  152.0670  143.2503  161.0354 C   0  0  0  0  0  0  0  0  0  0  0  0
  150.6669  137.5616  154.8778 H   0  0  0  0  0  0  0  0  0  0  0  0
  151.2424  138.8482  153.8127 H   0  0  0  0  0  0  0  0  0  0  0  0
  149.5382  138.3638  153.7803 H   0  0  0  0  0  0  0  0  0  0  0  0
  150.1889  139.1861  156.4242 H   0  0  0  0  0  0  0  0  0  0  0  0
  148.7554  142.4029  156.1932 H   0  0  0  0  0  0  0  0  0  0  0  0
  148.9980  141.0250  157.2457 H   0  0  0  0  0  0  0  0  0  0  0  0
  151.5154  142.1651  156.4325 H   0  0  0  0  0  0  0  0  0  0  0  0
  152.8571  143.0558  157.7885 H   0  0  0  0  0  0  0  0  0  0  0  0
  151.9810  145.3730  157.5106 H   0  0  0  0  0  0  0  0  0  0  0  0
  153.2749  145.3113  158.6984 H   0  0  0  0  0  0  0  0  0  0  0  0
  151.6034  145.4510  159.2300 H   0  0  0  0  0  0  0  0  0  0  0  0
  154.1006  141.5019  159.2835 H   0  0  0  0  0  0  0  0  0  0  0  0
  154.1811  141.1081  162.0218 H   0  0  0  0  0  0  0  0  0  0  0  0
  151.2823  143.9798  161.1730 H   0  0  0  0  0  0  0  0  0  0  0  0
  1  2  1  0  0  0  0
  1 16  1  0  0  0  0
  1 17  1  0  0  0  0
  1 18  1  0  0  0  0
  2  3  1  0  0  0  0
  2 19  1  0  0  0  0
  3  4  2  0  0  0  0
  3  5  1  0  0  0  0
  5  6  1  0  0  0  0
  5 20  1  0  0  0  0
  5 21  1  0  0  0  0
  6  7  1  0  0  0  0
  6 22  1  0  0  0  0
  7  8  2  0  0  0  0
  7  9  1  0  0  0  0
  9 10  1  0  0  0  0
  9 11  1  0  0  0  0
  9 23  1  0  0  0  0
 10 24  1  0  0  0  0
 10 25  1  0  0  0  0
 10 26  1  0  0  0  0
 11 15  1  0  0  0  0
 11 12  1  0  0  0  0
 12 13  2  0  0  0  0
 12 27  1  0  0  0  0
 13 14  1  0  0  0  0
 13 28  1  0  0  0  0
 14 15  2  0  0  0  0
 15 29  1  0  0  0  0
M  END
> <s_m_source_file>
AV-unprocessed.smi

> <i_m_source_file_index>
3111

> <i_lp_mmshare_version>
43012

> <i_f3d_flags>
0

> <s_epik_input>
W0NIM11bTkhdQyg9TylbQ0gyXVtOSF1DKD1PKVtDQEhdKFtDSDNdKW4xW2NIXVtjSF1uW2NIXTE=

> <s_epik_cmdline>
J2VwaWtfcHl0aG9uJywgJy1waCcsICc3LjAnLCAnLXRuJywgJzgnLCAnLW1hJywgJzIwMCcsICctbWV0YWxfYmluZGluZycsICctaW1hZScsICc8aW5maWxlLm1hZT4nLCAnLW9tYWUnLCAnPG91dGZpbGUubWFlPic=

> <r_lp_tautomer_probability>
1

> <r_epik_Ionization_Penalty>
0.278299

> <r_epik_Ionization_Penalty_Charging>
0.278299

> <r_epik_Ionization_Penalty_Neutral>
1.78617e-07

> <r_epik_State_Penalty>
0.270759

> <r_epik_Charging_Adjusted_Penalty>
0.549058

> <i_epik_Tot_Q>
0

> <i_epik_Tot_abs_Q>
0

> <r_epik_Metal_State_Penalty>
0.183212

> <b_epik_Metal_Only>
0

> <s_lp_Force_Field>
OPLS_2005

> <r_lp_Energy>
4.73549

> <b_lp_Chiralities_Consistent>
1

> <s_lp_Variant>
AV-unprocessed.smi:3111-2

> <Gold.Version>
5.8.1

> <Gold.Id.Protein>
6NUR|6NUR_protein|mol2

> <Gold.PLP.Fitness>
38.5237

> <Gold.PLP.PLP>
-37.5632

> <Gold.PLP.part.hbond>
-2.8805

> <Gold.PLP.part.metal>
0.0000

> <Gold.PLP.part.buried>
-4.8088

> <Gold.PLP.part.nonpolar>
-29.7518

> <Gold.PLP.part.repulsive>
0.4624

> <Gold.PLP.ligand.clash>
0.0000

> <Gold.PLP.ligand.torsion>
0.6542

> <Gold.PLP.Chemscore.Hbond>
0.7292

> <Gold.PLP.Chemscore.CHOScore>
0.0000

> <Gold.PLP.Chemscore.Metal>
0.0000

> <Gold.Chemscore.Hbonds>
donor molecule, donor type, donor heavy atom, donor atom, acceptor molecule, acceptor atom, score
      P1  H  7989  7998       L1     4  0.25
      P1  H  8011  8017       L1     4  0.57

> <Gold.PLP.Chemscore.Internal.Correction>
0.0812

> <Gold.Rescore>
     Score         DG    S(hbond)    S(metal)    S(lipo)     H(rot)  DE(clash)    DE(int)     intcor
      8.82      -9.40       0.80        0.00      60.42       2.27       0.08       0.51       ----

> <Gold.Chemscore.Fitness>
8.8211

> <Gold.Chemscore.DG>
-9.4042

> <Gold.Chemscore.ZeroCoef>
-5.4800

> <Gold.Chemscore.Hbond>
0.7988

> <Gold.Chemscore.Metal>
0.0000

> <Gold.Chemscore.Lipo>
60.4236

> <Gold.Chemscore.Internal_Hbond>
0.0000

> <Gold.Chemscore.DEClash>
0.0756

> <Gold.Chemscore.DEInternal>
0.5074

> <Gold.Chemscore.Rot>
2.2709

> <Gold.Chemscore.Internal.Correction>
   9.000000E+99

> <Gold.Chemscore.Hbonds>
donor molecule, donor type, donor heavy atom, donor atom, acceptor molecule, acceptor atom, score
      P1  H  7989  7998       L1     4  0.04
      P1  H  8011  8017       L1     4  0.57

> <Gold.Chemscore.Hbond.Weighted>
-2.6681

> <Gold.Chemscore.Metal.Weighted>
-0.0000

> <Gold.Chemscore.Lipo.Weighted>
-7.0696

> <Gold.Chemscore.Internal_Hbond.Weighted>
0.0000

> <Gold.Chemscore.DEClash.Weighted>
0.0756

> <Gold.Chemscore.DEInternal.Weighted>
0.5074

> <Gold.Chemscore.Rot.Weighted>
5.8135

> <Gold.Chemscore.Internal.Correction.Weighted>
   9.000000E+99

> <Gold.Protein.RotatedTorsions>
[ 6907 6896 6895 6894 ] final  115.68 input  -60.11 | X-H torsion
[ 7974 7965 7964 7962 ] final  104.69 input  175.53 | X-H torsion
[ 8008 7997 7996 7995 ] final -150.13 input   59.86 | X-H torsion
[ 10167 10162 10161 10158 ] final   79.38 input  -65.29 | X-H torsion
[ 10718 10713 10712 10709 ] final  103.50 input   66.30 | X-H torsion
[ 10763 10752 10751 10750 ] final  151.89 input  -60.55 | X-H torsion
[ 11005 11000 10999 10996 ] final  126.50 input  -57.11 | X-H torsion

> <Gold.Protein.ActiveResidues>
 VAL166  LYS551  ARG553  GLY616  TRP617  ASP618  TYR619  PRO620  LYS621  CYS622 
 ASP623  PHE694  ASN695  SER759  ASP760  ASP761  ALA762  ILE779  LEU786  VAL792 
 PHE793  MET794  SER795  GLU796  ALA797  LYS798  CYS799  TRP800  GLU811  SER814 

> <Gold.Protein.RotatedAtoms>
  152.4726  133.8065  159.6980 H   0  0  0  0  0  0  0  0  0  0  0  0  # atno 6907 bound_to 6896
  150.8724  133.7477  159.2963 H   0  0  0  0  0  0  0  0  0  0  0  0  # atno 6908 bound_to 6896
  151.5008  135.1065  159.9880 H   0  0  0  0  0  0  0  0  0  0  0  0  # atno 6909 bound_to 6896
  145.3295  139.2490  143.3668 H   0  0  0  0  0  0  0  0  0  0  0  0  # atno 7974 bound_to 7965
  155.6187  140.0679  157.2684 H   0  0  0  0  0  0  0  0  0  0  0  0  # atno 8008 bound_to 7997
  154.4235  140.1788  156.1397 H   0  0  0  0  0  0  0  0  0  0  0  0  # atno 8009 bound_to 7997
  156.0027  140.3334  155.6865 H   0  0  0  0  0  0  0  0  0  0  0  0  # atno 8010 bound_to 7997
  139.9610  144.5961  150.8072 H   0  0  0  0  0  0  0  0  0  0  0  0  # atno 10167 bound_to 10162
  157.6770  131.0780  150.5564 H   0  0  0  0  0  0  0  0  0  0  0  0  # atno 10718 bound_to 10713
  154.1111  135.2839  155.3230 H   0  0  0  0  0  0  0  0  0  0  0  0  # atno 10763 bound_to 10752
  154.6489  135.5376  153.7881 H   0  0  0  0  0  0  0  0  0  0  0  0  # atno 10764 bound_to 10752
  153.0345  135.6505  154.1269 H   0  0  0  0  0  0  0  0  0  0  0  0  # atno 10765 bound_to 10752
  139.9459  134.9629  156.8716 H   0  0  0  0  0  0  0  0  0  0  0  0  # atno 11005 bound_to 11000
  146.3051  140.3869  142.8690 LP  0  0  0  0  0  0  0  0  0  0  0  0  # atno 17320 bound_to 7965
  144.8876  140.7482  143.5947 LP  0  0  0  0  0  0  0  0  0  0  0  0  # atno 17321 bound_to 7965
  140.7553  143.3044  151.3000 LP  0  0  0  0  0  0  0  0  0  0  0  0  # atno 17342 bound_to 10162
  139.6554  144.0286  152.2656 LP  0  0  0  0  0  0  0  0  0  0  0  0  # atno 17343 bound_to 10162
  156.5868  130.4319  149.5953 LP  0  0  0  0  0  0  0  0  0  0  0  0  # atno 17370 bound_to 10713
  156.2616  130.6965  151.1736 LP  0  0  0  0  0  0  0  0  0  0  0  0  # atno 17371 bound_to 10713
  140.5836  134.0329  155.7473 LP  0  0  0  0  0  0  0  0  0  0  0  0  # atno 17394 bound_to 11000
  141.1109  133.9618  157.2911 LP  0  0  0  0  0  0  0  0  0  0  0  0  # atno 17395 bound_to 11000

$$$$
