AV-unprocessed.smi:728|AV-procd|sdf|3518|dock2
  -GOLD-   22720 0513D 1   1.00000     0.00000
 Structure written by MMmdl.
 39 40  0  0  0  0  0  0  0  0  1 V2000
  144.4079  144.2128  154.6328 C   0  0  0  0  0  0  0  0  0  0  0  0
  144.6791  143.3980  155.9069 C   0  0  0  0  0  0  0  0  0  0  0  0
  144.7551  144.2860  157.1572 C   0  0  0  0  0  0  0  0  0  0  0  0
  145.8963  142.5374  155.7756 C   0  0  0  0  0  0  0  0  0  0  0  0
  146.7719  142.5304  154.7723 N   0  0  0  0  0  0  0  0  0  0  0  0
  147.7142  141.6700  155.2494 C   0  0  0  0  0  0  0  0  0  0  0  0
  148.9425  141.3041  154.4784 C   0  0  0  0  0  0  0  0  0  0  0  0
  150.1827  141.4067  155.3677 C   0  0  0  0  0  0  0  0  0  0  0  0
  151.0656  140.5520  155.2956 O   0  0  0  0  0  0  0  0  0  0  0  0
  150.2321  142.4551  156.2052 N   0  0  0  0  0  0  0  0  0  0  0  0
  151.2932  142.7179  157.1715 C   0  0  0  0  0  0  0  0  0  0  0  0
  150.8927  142.1906  158.5652 C   0  0  0  0  0  0  0  0  0  0  0  0
  151.9541  142.5315  159.6237 C   0  0  0  0  0  0  0  0  0  0  0  0
  152.2384  144.0413  159.6643 C   0  0  0  0  0  0  0  0  0  0  0  0
  152.6458  144.5660  158.2785 C   0  0  0  0  0  0  0  0  0  0  0  0
  151.5817  144.2305  157.2211 C   0  0  0  0  0  0  0  0  0  0  0  0
  147.4840  141.1738  156.4592 N   0  0  0  0  0  0  0  0  0  0  0  0
  146.2744  141.7769  156.8318 O   0  0  0  0  0  0  0  0  0  0  0  0
  144.3009  143.5607  153.7653 H   0  0  0  0  0  0  0  0  0  0  0  0
  145.2197  144.9114  154.4267 H   0  0  0  0  0  0  0  0  0  0  0  0
  143.4885  144.7913  154.7255 H   0  0  0  0  0  0  0  0  0  0  0  0
  143.8297  142.7263  156.0398 H   0  0  0  0  0  0  0  0  0  0  0  0
  144.8748  143.6838  158.0586 H   0  0  0  0  0  0  0  0  0  0  0  0
  143.8482  144.8794  157.2744 H   0  0  0  0  0  0  0  0  0  0  0  0
  145.5994  144.9744  157.1029 H   0  0  0  0  0  0  0  0  0  0  0  0
  148.8484  140.2890  154.0889 H   0  0  0  0  0  0  0  0  0  0  0  0
  149.0469  141.9660  153.6177 H   0  0  0  0  0  0  0  0  0  0  0  0
  149.4585  143.1041  156.1934 H   0  0  0  0  0  0  0  0  0  0  0  0
  152.2046  142.2102  156.8498 H   0  0  0  0  0  0  0  0  0  0  0  0
  149.9353  142.6218  158.8620 H   0  0  0  0  0  0  0  0  0  0  0  0
  150.7464  141.1102  158.5316 H   0  0  0  0  0  0  0  0  0  0  0  0
  151.6240  142.1886  160.6048 H   0  0  0  0  0  0  0  0  0  0  0  0
  152.8758  141.9922  159.4018 H   0  0  0  0  0  0  0  0  0  0  0  0
  151.3502  144.5719  160.0096 H   0  0  0  0  0  0  0  0  0  0  0  0
  153.0260  144.2520  160.3883 H   0  0  0  0  0  0  0  0  0  0  0  0
  152.8014  145.6445  158.3204 H   0  0  0  0  0  0  0  0  0  0  0  0
  153.6010  144.1269  157.9878 H   0  0  0  0  0  0  0  0  0  0  0  0
  151.9137  144.5800  156.2428 H   0  0  0  0  0  0  0  0  0  0  0  0
  150.6641  144.7751  157.4486 H   0  0  0  0  0  0  0  0  0  0  0  0
  1  2  1  0  0  0  0
  1 19  1  0  0  0  0
  1 20  1  0  0  0  0
  1 21  1  0  0  0  0
  2  3  1  0  0  0  0
  2  4  1  0  0  0  0
  2 22  1  0  0  0  0
  3 23  1  0  0  0  0
  3 24  1  0  0  0  0
  3 25  1  0  0  0  0
  4 18  1  0  0  0  0
  4  5  2  0  0  0  0
  5  6  1  0  0  0  0
  6  7  1  0  0  0  0
  6 17  2  0  0  0  0
  7  8  1  0  0  0  0
  7 26  1  0  0  0  0
  7 27  1  0  0  0  0
  8  9  2  0  0  0  0
  8 10  1  0  0  0  0
 10 11  1  0  0  0  0
 10 28  1  0  0  0  0
 11 16  1  0  0  0  0
 11 12  1  0  0  0  0
 11 29  1  0  0  0  0
 12 13  1  0  0  0  0
 12 30  1  0  0  0  0
 12 31  1  0  0  0  0
 13 14  1  0  0  0  0
 13 32  1  0  0  0  0
 13 33  1  0  0  0  0
 14 15  1  0  0  0  0
 14 34  1  0  0  0  0
 14 35  1  0  0  0  0
 15 16  1  0  0  0  0
 15 36  1  0  0  0  0
 15 37  1  0  0  0  0
 16 38  1  0  0  0  0
 16 39  1  0  0  0  0
 17 18  1  0  0  0  0
M  END
> <s_m_source_file>
AV-unprocessed.smi

> <i_m_source_file_index>
728

> <i_lp_mmshare_version>
43012

> <i_f3d_flags>
0

> <s_epik_input>
W0NIM11bQ0hdKFtDSDNdKWMxbmMobm8xKVtDSDJdQyg9TylbTkhdW0NIXTJbQ0gyXVtDSDJdW0NIMl1bQ0gyXVtDSDJdMg==

> <s_epik_cmdline>
J2VwaWtfcHl0aG9uJywgJy1waCcsICc3LjAnLCAnLXRuJywgJzgnLCAnLW1hJywgJzIwMCcsICctbWV0YWxfYmluZGluZycsICctaW1hZScsICc8aW5maWxlLm1hZT4nLCAnLW9tYWUnLCAnPG91dGZpbGUubWFlPic=

> <r_lp_tautomer_probability>
1

> <r_epik_Ionization_Penalty>
6.23623e-08

> <r_epik_Ionization_Penalty_Charging>
0

> <r_epik_Ionization_Penalty_Neutral>
6.23623e-08

> <r_epik_State_Penalty>
-0

> <r_epik_Charging_Adjusted_Penalty>
0

> <i_epik_Tot_Q>
0

> <i_epik_Tot_abs_Q>
0

> <r_epik_Metal_State_Penalty>
-0

> <b_epik_Metal_Only>
0

> <s_lp_Force_Field>
OPLS_2005

> <r_lp_Energy>
7.21718

> <b_lp_Chiralities_Consistent>
1

> <s_lp_Variant>
AV-unprocessed.smi:728-1

> <Gold.Version>
5.8.1

> <Gold.Id.Protein>
6NUR|6NUR_protein|mol2

> <Gold.PLP.Fitness>
40.5891

> <Gold.PLP.PLP>
-36.6627

> <Gold.PLP.part.hbond>
-2.0000

> <Gold.PLP.part.metal>
0.0000

> <Gold.PLP.part.buried>
-3.7258

> <Gold.PLP.part.nonpolar>
-30.6901

> <Gold.PLP.part.repulsive>
0.7106

> <Gold.PLP.ligand.clash>
0.0000

> <Gold.PLP.ligand.torsion>
0.7887

> <Gold.PLP.Chemscore.Hbond>
1.7952

> <Gold.PLP.Chemscore.CHOScore>
0.0000

> <Gold.PLP.Chemscore.Metal>
0.0000

> <Gold.Chemscore.Hbonds>
donor molecule, donor type, donor heavy atom, donor atom, acceptor molecule, acceptor atom, score
      L1  H    10    28       P1  8028  0.91
      P1  H  7989  7998       L1     9  0.88

> <Gold.PLP.Chemscore.Internal.Correction>
0.1182

> <Gold.Rescore>
     Score         DG    S(hbond)    S(metal)    S(lipo)     H(rot)  DE(clash)    DE(int)     intcor
     14.39     -15.35       1.23        0.00      84.92       1.63       0.49       0.48       ----

> <Gold.Chemscore.Fitness>
14.3857

> <Gold.Chemscore.DG>
-15.3526

> <Gold.Chemscore.ZeroCoef>
-5.4800

> <Gold.Chemscore.Hbond>
1.2328

> <Gold.Chemscore.Metal>
0.0000

> <Gold.Chemscore.Lipo>
84.9157

> <Gold.Chemscore.Internal_Hbond>
0.0000

> <Gold.Chemscore.DEClash>
0.4864

> <Gold.Chemscore.DEInternal>
0.4805

> <Gold.Chemscore.Rot>
1.6329

> <Gold.Chemscore.Internal.Correction>
   9.000000E+99

> <Gold.Chemscore.Hbonds>
donor molecule, donor type, donor heavy atom, donor atom, acceptor molecule, acceptor atom, score
      L1  H    10    28       P1  8028  0.90
      P1  H  7989  7998       L1     9  0.19

> <Gold.Chemscore.Hbond.Weighted>
-4.1176

> <Gold.Chemscore.Metal.Weighted>
-0.0000

> <Gold.Chemscore.Lipo.Weighted>
-9.9351

> <Gold.Chemscore.Internal_Hbond.Weighted>
0.0000

> <Gold.Chemscore.DEClash.Weighted>
0.4864

> <Gold.Chemscore.DEInternal.Weighted>
0.4805

> <Gold.Chemscore.Rot.Weighted>
4.1802

> <Gold.Chemscore.Internal.Correction.Weighted>
   9.000000E+99

> <Gold.Protein.RotatedTorsions>
[ 6907 6896 6895 6894 ] final   51.92 input  -60.11 | X-H torsion
[ 7974 7965 7964 7962 ] final -159.39 input  175.53 | X-H torsion
[ 8008 7997 7996 7995 ] final -162.44 input   59.86 | X-H torsion
[ 10167 10162 10161 10158 ] final -125.61 input  -65.29 | X-H torsion
[ 10718 10713 10712 10709 ] final  178.86 input   66.30 | X-H torsion
[ 10763 10752 10751 10750 ] final   45.81 input  -60.55 | X-H torsion
[ 11005 11000 10999 10996 ] final   11.51 input  -57.11 | X-H torsion

> <Gold.Protein.ActiveResidues>
 VAL166  LYS551  ARG553  GLY616  TRP617  ASP618  TYR619  PRO620  LYS621  CYS622 
 ASP623  PHE694  ASN695  SER759  ASP760  ASP761  ALA762  ILE779  LEU786  VAL792 
 PHE793  MET794  SER795  GLU796  ALA797  LYS798  CYS799  TRP800  GLU811  SER814 

> <Gold.Protein.RotatedAtoms>
  152.3177  134.7419  160.0320 H   0  0  0  0  0  0  0  0  0  0  0  0  # atno 6907 bound_to 6896
  151.7877  133.3351  159.3498 H   0  0  0  0  0  0  0  0  0  0  0  0  # atno 6908 bound_to 6896
  150.7353  134.5802  159.5979 H   0  0  0  0  0  0  0  0  0  0  0  0  # atno 6909 bound_to 6896
  144.7467  140.3691  143.6079 H   0  0  0  0  0  0  0  0  0  0  0  0  # atno 7974 bound_to 7965
  155.8068  140.0900  157.1926 H   0  0  0  0  0  0  0  0  0  0  0  0  # atno 8008 bound_to 7997
  154.3980  140.1462  156.3399 H   0  0  0  0  0  0  0  0  0  0  0  0  # atno 8009 bound_to 7997
  155.8406  140.3439  155.5632 H   0  0  0  0  0  0  0  0  0  0  0  0  # atno 8010 bound_to 7997
  139.9803  143.5749  152.2381 H   0  0  0  0  0  0  0  0  0  0  0  0  # atno 10167 bound_to 10162
  156.8843  130.9826  151.3058 H   0  0  0  0  0  0  0  0  0  0  0  0  # atno 10718 bound_to 10713
  152.9819  135.6028  154.3497 H   0  0  0  0  0  0  0  0  0  0  0  0  # atno 10763 bound_to 10752
  154.3188  135.2770  155.2532 H   0  0  0  0  0  0  0  0  0  0  0  0  # atno 10764 bound_to 10752
  154.4708  135.5942  153.6376 H   0  0  0  0  0  0  0  0  0  0  0  0  # atno 10765 bound_to 10752
  140.5025  134.0732  155.7797 H   0  0  0  0  0  0  0  0  0  0  0  0  # atno 11005 bound_to 11000
  145.7096  139.1681  143.2546 LP  0  0  0  0  0  0  0  0  0  0  0  0  # atno 17320 bound_to 7965
  146.1356  140.7127  142.9391 LP  0  0  0  0  0  0  0  0  0  0  0  0  # atno 17321 bound_to 7965
  139.6415  144.7655  151.2330 LP  0  0  0  0  0  0  0  0  0  0  0  0  # atno 17342 bound_to 10162
  140.7491  143.6310  150.8423 LP  0  0  0  0  0  0  0  0  0  0  0  0  # atno 17343 bound_to 10162
  157.6122  130.8591  149.8970 LP  0  0  0  0  0  0  0  0  0  0  0  0  # atno 17370 bound_to 10713
  156.0661  130.3692  150.0875 LP  0  0  0  0  0  0  0  0  0  0  0  0  # atno 17371 bound_to 10713
  141.1428  133.9108  157.2286 LP  0  0  0  0  0  0  0  0  0  0  0  0  # atno 17394 bound_to 11000
  139.9705  135.0129  156.9500 LP  0  0  0  0  0  0  0  0  0  0  0  0  # atno 17395 bound_to 11000

$$$$
