AV-unprocessed.smi:1239|AV-procd|sdf|5187|dock8
  -GOLD-   22720 4273D 1   1.00000     0.00000
 Structure written by MMmdl.
 47 48  0  0  0  0  0  0  0  0  1 V2000
  153.6933  137.0358  164.8712 C   0  0  0  0  0  0  0  0  0  0  0  0
  154.9110  136.2541  164.3277 C   0  0  2  0  0  0  0  0  0  0  0  0
  155.1659  136.7163  162.8708 C   0  0  0  0  0  0  0  0  0  0  0  0
  155.1182  138.1718  162.7489 N   0  0  0  0  0  0  0  0  0  0  0  0
  154.3083  138.8595  161.9321 C   0  0  0  0  0  0  0  0  0  0  0  0
  153.4884  138.3301  161.1822 O   0  0  0  0  0  0  0  0  0  0  0  0
  154.5288  140.1818  162.0316 N   0  0  0  0  0  0  0  0  0  0  0  0
  153.8752  141.2430  161.3473 C   0  0  0  0  0  0  0  0  0  0  0  0
  153.4545  141.0172  160.0230 C   0  0  0  0  0  0  0  0  0  0  0  0
  152.8183  142.0533  159.3134 C   0  0  0  0  0  0  0  0  0  0  0  0
  152.6217  143.3059  159.9458 C   0  0  0  0  0  0  0  0  0  0  0  0
  151.9842  144.3776  159.2796 N   0  0  0  0  0  0  0  0  0  0  0  0
  151.6766  145.6049  160.0071 C   0  0  0  0  0  0  0  0  0  0  0  0
  151.6175  144.2547  157.8745 C   0  0  0  0  0  0  0  0  0  0  0  0
  153.0423  143.5248  161.2155 N   0  0  0  0  0  0  0  0  0  0  0  0
  153.6513  142.5290  161.8928 C   0  0  0  0  0  0  0  0  0  0  0  0
  154.7909  134.7878  164.4864 N   0  0  0  0  0  0  0  0  0  0  0  0
  154.0496  134.4117  165.6943 C   0  0  0  0  0  0  0  0  0  0  0  0
  153.9034  132.8878  165.8487 C   0  0  0  0  0  0  0  0  0  0  0  0
  153.2708  132.3482  164.6960 O   0  0  0  0  0  0  0  0  0  0  0  0
  153.9940  132.6300  163.5053 C   0  0  0  0  0  0  0  0  0  0  0  0
  154.1402  134.1522  163.3366 C   0  0  0  0  0  0  0  0  0  0  0  0
  153.7667  138.0972  164.6324 H   0  0  0  0  0  0  0  0  0  0  0  0
  153.6171  136.9743  165.9562 H   0  0  0  0  0  0  0  0  0  0  0  0
  152.7588  136.6679  164.4459 H   0  0  0  0  0  0  0  0  0  0  0  0
  155.7745  136.5829  164.9082 H   0  0  0  0  0  0  0  0  0  0  0  0
  156.1313  136.3294  162.5405 H   0  0  0  0  0  0  0  0  0  0  0  0
  154.4449  136.2819  162.1796 H   0  0  0  0  0  0  0  0  0  0  0  0
  155.7670  138.6909  163.3223 H   0  0  0  0  0  0  0  0  0  0  0  0
  155.2907  140.4598  162.6327 H   0  0  0  0  0  0  0  0  0  0  0  0
  153.6120  140.0579  159.5519 H   0  0  0  0  0  0  0  0  0  0  0  0
  152.4943  141.8654  158.3010 H   0  0  0  0  0  0  0  0  0  0  0  0
  152.5905  146.0672  160.3817 H   0  0  0  0  0  0  0  0  0  0  0  0
  151.0223  145.3947  160.8537 H   0  0  0  0  0  0  0  0  0  0  0  0
  151.1729  146.3312  159.3693 H   0  0  0  0  0  0  0  0  0  0  0  0
  150.9132  143.4346  157.7327 H   0  0  0  0  0  0  0  0  0  0  0  0
  152.5004  144.0675  157.2627 H   0  0  0  0  0  0  0  0  0  0  0  0
  151.1459  145.1657  157.5060 H   0  0  0  0  0  0  0  0  0  0  0  0
  153.9769  142.7961  162.8856 H   0  0  0  0  0  0  0  0  0  0  0  0
  154.5549  134.7816  166.5848 H   0  0  0  0  0  0  0  0  0  0  0  0
  153.0595  134.8700  165.6786 H   0  0  0  0  0  0  0  0  0  0  0  0
  154.8780  132.4187  165.9921 H   0  0  0  0  0  0  0  0  0  0  0  0
  153.3027  132.6525  166.7272 H   0  0  0  0  0  0  0  0  0  0  0  0
  154.9729  132.1496  163.5413 H   0  0  0  0  0  0  0  0  0  0  0  0
  153.4597  132.2047  162.6556 H   0  0  0  0  0  0  0  0  0  0  0  0
  153.1555  134.5940  163.1777 H   0  0  0  0  0  0  0  0  0  0  0  0
  154.7143  134.3266  162.4279 H   0  0  0  0  0  0  0  0  0  0  0  0
  1  2  1  0  0  0  0
  1 23  1  0  0  0  0
  1 24  1  0  0  0  0
  1 25  1  0  0  0  0
  2  3  1  0  0  0  0
  2 17  1  0  0  0  0
  2 26  1  0  0  0  0
  3  4  1  0  0  0  0
  3 27  1  0  0  0  0
  3 28  1  0  0  0  0
  4  5  1  0  0  0  0
  4 29  1  0  0  0  0
  5  6  2  0  0  0  0
  5  7  1  0  0  0  0
  7  8  1  0  0  0  0
  7 30  1  0  0  0  0
  8 16  1  0  0  0  0
  8  9  2  0  0  0  0
  9 10  1  0  0  0  0
  9 31  1  0  0  0  0
 10 11  2  0  0  0  0
 10 32  1  0  0  0  0
 11 12  1  0  0  0  0
 11 15  1  0  0  0  0
 12 13  1  0  0  0  0
 12 14  1  0  0  0  0
 13 33  1  0  0  0  0
 13 34  1  0  0  0  0
 13 35  1  0  0  0  0
 14 36  1  0  0  0  0
 14 37  1  0  0  0  0
 14 38  1  0  0  0  0
 15 16  2  0  0  0  0
 16 39  1  0  0  0  0
 17 22  1  0  0  0  0
 17 18  1  0  0  0  0
 18 19  1  0  0  0  0
 18 40  1  0  0  0  0
 18 41  1  0  0  0  0
 19 20  1  0  0  0  0
 19 42  1  0  0  0  0
 19 43  1  0  0  0  0
 20 21  1  0  0  0  0
 21 22  1  0  0  0  0
 21 44  1  0  0  0  0
 21 45  1  0  0  0  0
 22 46  1  0  0  0  0
 22 47  1  0  0  0  0
M  END
> <s_m_source_file>
AV-unprocessed.smi

> <i_m_source_file_index>
1239

> <i_lp_mmshare_version>
43012

> <i_f3d_flags>
0

> <s_epik_input>
W0NIMl0xW0NIMl1PW0NIMl1bQ0gyXU4xW0NASF0oW0NIM10pW0NIMl1bTkhdQyg9TylbTkhdYzJbY0hdW2NIXWMoTihbQ0gzXSlbQ0gzXSluW2NIXTI=

> <s_epik_cmdline>
J2VwaWtfcHl0aG9uJywgJy1waCcsICc3LjAnLCAnLXRuJywgJzgnLCAnLW1hJywgJzIwMCcsICctbWV0YWxfYmluZGluZycsICctaW1hZScsICc8aW5maWxlLm1hZT4nLCAnLW9tYWUnLCAnPG91dGZpbGUubWFlPic=

> <r_lp_tautomer_probability>
1

> <r_epik_Ionization_Penalty>
0.87526

> <r_epik_Ionization_Penalty_Charging>
0

> <r_epik_Ionization_Penalty_Neutral>
0.87526

> <r_epik_State_Penalty>
0.859346

> <r_epik_Charging_Adjusted_Penalty>
0.859346

> <i_epik_Tot_Q>
0

> <i_epik_Tot_abs_Q>
0

> <r_epik_Metal_State_Penalty>
0.538105

> <b_epik_Metal_Only>
0

> <s_lp_Force_Field>
OPLS_2005

> <r_lp_Energy>
39.6376

> <b_lp_Chiralities_Consistent>
1

> <s_lp_Variant>
AV-unprocessed.smi:1239-3

> <Gold.Version>
5.8.1

> <Gold.Id.Protein>
6NUR|6NUR_protein|mol2

> <Gold.PLP.Fitness>
49.3819

> <Gold.PLP.PLP>
-51.1486

> <Gold.PLP.part.hbond>
0.0000

> <Gold.PLP.part.metal>
0.0000

> <Gold.PLP.part.buried>
-6.0258

> <Gold.PLP.part.nonpolar>
-45.0990

> <Gold.PLP.part.repulsive>
0.1355

> <Gold.PLP.ligand.clash>
0.0000

> <Gold.PLP.ligand.torsion>
0.9086

> <Gold.PLP.Chemscore.Hbond>
0.0000

> <Gold.PLP.Chemscore.CHOScore>
0.0000

> <Gold.PLP.Chemscore.Metal>
0.0000

> <Gold.PLP.Chemscore.Internal.Correction>
0.0506

> <Gold.Rescore>
     Score         DG    S(hbond)    S(metal)    S(lipo)     H(rot)  DE(clash)    DE(int)     intcor
     13.60     -15.31       0.00        0.00     115.43       1.44       0.11       1.59       ----

> <Gold.Chemscore.Fitness>
13.6013

> <Gold.Chemscore.DG>
-15.3062

> <Gold.Chemscore.ZeroCoef>
-5.4800

> <Gold.Chemscore.Hbond>
0.0000

> <Gold.Chemscore.Metal>
0.0000

> <Gold.Chemscore.Lipo>
115.4258

> <Gold.Chemscore.Internal_Hbond>
0.0000

> <Gold.Chemscore.DEClash>
0.1118

> <Gold.Chemscore.DEInternal>
1.5932

> <Gold.Chemscore.Rot>
1.4370

> <Gold.Chemscore.Internal.Correction>
   9.000000E+99

> <Gold.Chemscore.Hbond.Weighted>
-0.0000

> <Gold.Chemscore.Metal.Weighted>
-0.0000

> <Gold.Chemscore.Lipo.Weighted>
-13.5048

> <Gold.Chemscore.Internal_Hbond.Weighted>
0.0000

> <Gold.Chemscore.DEClash.Weighted>
0.1118

> <Gold.Chemscore.DEInternal.Weighted>
1.5932

> <Gold.Chemscore.Rot.Weighted>
3.6786

> <Gold.Chemscore.Internal.Correction.Weighted>
   9.000000E+99

> <Gold.Protein.RotatedTorsions>
[ 6907 6896 6895 6894 ] final -121.02 input  -60.11 | X-H torsion
[ 7974 7965 7964 7962 ] final  128.36 input  175.53 | X-H torsion
[ 8008 7997 7996 7995 ] final  -45.87 input   59.86 | X-H torsion
[ 10167 10162 10161 10158 ] final  -54.55 input  -65.29 | X-H torsion
[ 10718 10713 10712 10709 ] final  139.78 input   66.30 | X-H torsion
[ 10763 10752 10751 10750 ] final  -78.28 input  -60.55 | X-H torsion
[ 11005 11000 10999 10996 ] final -122.12 input  -57.11 | X-H torsion

> <Gold.Protein.ActiveResidues>
 VAL166  LYS551  ARG553  GLY616  TRP617  ASP618  TYR619  PRO620  LYS621  CYS622 
 ASP623  PHE694  ASN695  SER759  ASP760  ASP761  ALA762  ILE779  LEU786  VAL792 
 PHE793  MET794  SER795  GLU796  ALA797  LYS798  CYS799  TRP800  GLU811  SER814 

> <Gold.Protein.RotatedAtoms>
  150.8446  133.7882  159.3047 H   0  0  0  0  0  0  0  0  0  0  0  0  # atno 6907 bound_to 6896
  151.5573  135.1064  159.9973 H   0  0  0  0  0  0  0  0  0  0  0  0  # atno 6908 bound_to 6896
  152.4502  133.7572  159.6783 H   0  0  0  0  0  0  0  0  0  0  0  0  # atno 6909 bound_to 6896
  145.0404  139.3968  143.5105 H   0  0  0  0  0  0  0  0  0  0  0  0  # atno 7974 bound_to 7965
  154.4003  140.1386  156.3917 H   0  0  0  0  0  0  0  0  0  0  0  0  # atno 8008 bound_to 7997
  155.7907  140.3479  155.5327 H   0  0  0  0  0  0  0  0  0  0  0  0  # atno 8009 bound_to 7997
  155.8582  140.0952  157.1621 H   0  0  0  0  0  0  0  0  0  0  0  0  # atno 8010 bound_to 7997
  140.6424  143.2515  151.4952 H   0  0  0  0  0  0  0  0  0  0  0  0  # atno 10167 bound_to 10162
  157.4106  131.1027  151.0458 H   0  0  0  0  0  0  0  0  0  0  0  0  # atno 10718 bound_to 10713
  154.5238  135.5735  153.6703 H   0  0  0  0  0  0  0  0  0  0  0  0  # atno 10763 bound_to 10752
  152.9923  135.6188  154.2719 H   0  0  0  0  0  0  0  0  0  0  0  0  # atno 10764 bound_to 10752
  154.2641  135.2855  155.2745 H   0  0  0  0  0  0  0  0  0  0  0  0  # atno 10765 bound_to 10752
  141.0019  134.0390  157.3527 H   0  0  0  0  0  0  0  0  0  0  0  0  # atno 11005 bound_to 11000
  146.3508  140.0001  142.8677 LP  0  0  0  0  0  0  0  0  0  0  0  0  # atno 17320 bound_to 7965
  145.1655  140.9695  143.4352 LP  0  0  0  0  0  0  0  0  0  0  0  0  # atno 17321 bound_to 7965
  139.5634  144.2101  152.1727 LP  0  0  0  0  0  0  0  0  0  0  0  0  # atno 17342 bound_to 10162
  140.1376  144.5232  150.6764 LP  0  0  0  0  0  0  0  0  0  0  0  0  # atno 17343 bound_to 10162
  157.1423  130.6148  149.5559 LP  0  0  0  0  0  0  0  0  0  0  0  0  # atno 17370 bound_to 10713
  155.9849  130.4877  150.7008 LP  0  0  0  0  0  0  0  0  0  0  0  0  # atno 17371 bound_to 10713
  139.9043  135.0175  156.7414 LP  0  0  0  0  0  0  0  0  0  0  0  0  # atno 17394 bound_to 11000
  140.6875  133.9419  155.7947 LP  0  0  0  0  0  0  0  0  0  0  0  0  # atno 17395 bound_to 11000

$$$$
