AV-unprocessed.smi:1824|AV-procd|sdf|7402|dock10
  -GOLD-   22720 9 73D 1   1.00000     0.00000
 Structure written by MMmdl.
 45 47  0  0  0  0  0  0  0  0  2 V2000
  143.4403  143.3273  154.8988 C   0  0  0  0  0  0  0  0  0  0  0  0
  144.6681  142.4637  155.2065 C   0  0  1  0  0  0  0  0  0  0  0  0
  145.9869  143.2384  154.9960 C   0  0  0  0  0  0  0  0  0  0  0  0
  147.1667  142.4424  155.4215 N   0  3  2  0  0  0  0  0  0  0  0  0
  147.6047  141.4021  154.4513 C   0  0  0  0  0  0  0  0  0  0  0  0
  149.0401  140.9110  154.7252 C   0  0  1  0  0  0  0  0  0  0  0  0
  149.6225  140.4972  153.5036 O   0  0  0  0  0  0  0  0  0  0  0  0
  149.9150  142.0099  155.3587 C   0  0  0  0  0  0  0  0  0  0  0  0
  150.8561  141.4764  156.3271 N   0  0  0  0  0  0  0  0  0  0  0  0
  151.5452  140.3218  156.2442 C   0  0  0  0  0  0  0  0  0  0  0  0
  152.3544  140.0212  157.2558 N   0  0  0  0  0  0  0  0  0  0  0  0
  152.1729  141.1090  158.0924 C   0  0  0  0  0  0  0  0  0  0  0  0
  152.7493  141.4079  159.3475 C   0  0  0  0  0  0  0  0  0  0  0  0
  152.4097  142.5973  160.0254 C   0  0  0  0  0  0  0  0  0  0  0  0
  152.9734  142.8694  161.2261 F   0  0  0  0  0  0  0  0  0  0  0  0
  151.4881  143.5037  159.4598 C   0  0  0  0  0  0  0  0  0  0  0  0
  151.1677  144.6435  160.1167 F   0  0  0  0  0  0  0  0  0  0  0  0
  150.8987  143.2261  158.2116 C   0  0  0  0  0  0  0  0  0  0  0  0
  151.2420  142.0391  157.5387 C   0  0  0  0  0  0  0  0  0  0  0  0
  146.9793  141.9326  156.8017 C   0  0  0  0  0  0  0  0  0  0  0  0
  145.6439  141.1747  156.9430 C   0  0  1  0  0  0  0  0  0  0  0  0
  145.3908  140.7151  158.3832 C   0  0  0  0  0  0  0  0  0  0  0  0
  144.5814  142.0423  156.5636 O   0  0  0  0  0  0  0  0  0  0  0  0
  143.4511  143.6718  153.8645 H   0  0  0  0  0  0  0  0  0  0  0  0
  143.4027  144.2053  155.5444 H   0  0  0  0  0  0  0  0  0  0  0  0
  142.5197  142.7633  155.0515 H   0  0  0  0  0  0  0  0  0  0  0  0
  144.6363  141.5874  154.5580 H   0  0  0  0  0  0  0  0  0  0  0  0
  146.0819  143.5600  153.9597 H   0  0  0  0  0  0  0  0  0  0  0  0
  145.9678  144.1506  155.5944 H   0  0  0  0  0  0  0  0  0  0  0  0
  146.9330  140.5440  154.5044 H   0  0  0  0  0  0  0  0  0  0  0  0
  147.5231  141.7826  153.4330 H   0  0  0  0  0  0  0  0  0  0  0  0
  149.0228  140.0540  155.3980 H   0  0  0  0  0  0  0  0  0  0  0  0
  148.9325  140.3144  152.8838 H   0  0  0  0  0  0  0  0  0  0  0  0
  150.4709  142.5507  154.5912 H   0  0  0  0  0  0  0  0  0  0  0  0
  149.2888  142.7453  155.8655 H   0  0  0  0  0  0  0  0  0  0  0  0
  151.4435  139.6620  155.3950 H   0  0  0  0  0  0  0  0  0  0  0  0
  153.4555  140.7213  159.7903 H   0  0  0  0  0  0  0  0  0  0  0  0
  150.1930  143.9183  157.7772 H   0  0  0  0  0  0  0  0  0  0  0  0
  147.8201  141.3030  157.0952 H   0  0  0  0  0  0  0  0  0  0  0  0
  146.9871  142.7853  157.4821 H   0  0  0  0  0  0  0  0  0  0  0  0
  145.6415  140.2958  156.2961 H   0  0  0  0  0  0  0  0  0  0  0  0
  146.1752  140.0380  158.7226 H   0  0  0  0  0  0  0  0  0  0  0  0
  144.4401  140.1873  158.4626 H   0  0  0  0  0  0  0  0  0  0  0  0
  145.3588  141.5617  159.0696 H   0  0  0  0  0  0  0  0  0  0  0  0
  147.9442  143.0861  155.4720 H   0  0  0  0  0  0  0  0  0  0  0  0
  1  2  1  0  0  0  0
  1 24  1  0  0  0  0
  1 25  1  0  0  0  0
  1 26  1  0  0  0  0
  2 23  1  0  0  0  0
  2  3  1  0  0  0  0
  2 27  1  0  0  0  0
  3  4  1  0  0  0  0
  3 28  1  0  0  0  0
  3 29  1  0  0  0  0
  4  5  1  0  0  0  0
  4 20  1  0  0  0  0
  4 45  1  0  0  0  0
  5  6  1  0  0  0  0
  5 30  1  0  0  0  0
  5 31  1  0  0  0  0
  6  7  1  0  0  0  0
  6  8  1  0  0  0  0
  6 32  1  0  0  0  0
  7 33  1  0  0  0  0
  8  9  1  0  0  0  0
  8 34  1  0  0  0  0
  8 35  1  0  0  0  0
  9 19  1  0  0  0  0
  9 10  1  0  0  0  0
 10 11  2  0  0  0  0
 10 36  1  0  0  0  0
 11 12  1  0  0  0  0
 12 19  2  0  0  0  0
 12 13  1  0  0  0  0
 13 14  2  0  0  0  0
 13 37  1  0  0  0  0
 14 15  1  0  0  0  0
 14 16  1  0  0  0  0
 16 17  1  0  0  0  0
 16 18  2  0  0  0  0
 18 19  1  0  0  0  0
 18 38  1  0  0  0  0
 20 21  1  0  0  0  0
 20 39  1  0  0  0  0
 20 40  1  0  0  0  0
 21 22  1  0  0  0  0
 21 23  1  0  0  0  0
 21 41  1  0  0  0  0
 22 42  1  0  0  0  0
 22 43  1  0  0  0  0
 22 44  1  0  0  0  0
M  CHG  1   4   1
M  END
> <s_m_source_file>
AV-unprocessed.smi

> <i_m_source_file_index>
1824

> <i_lp_mmshare_version>
43012

> <i_f3d_flags>
0

> <s_epik_input>
W0NIM11bQ0BASF0xW0NIMl1OKFtDSDJdW0NASF0oTzEpW0NIM10pW0NIMl1bQ0BIXShbT0hdKVtDSDJdbihbY0hdbjIpYyhjMjMpW2NIXWMoRiljKEYpW2NIXTM=

> <s_epik_cmdline>
J2VwaWtfcHl0aG9uJywgJy1waCcsICc3LjAnLCAnLXRuJywgJzgnLCAnLW1hJywgJzIwMCcsICctbWV0YWxfYmluZGluZycsICctaW1hZScsICc8aW5maWxlLm1hZT4nLCAnLW9tYWUnLCAnPG91dGZpbGUubWFlPic=

> <r_epik_Ionization_Penalty>
0.61967

> <r_epik_Ionization_Penalty_Charging>
0.608065

> <r_epik_Ionization_Penalty_Neutral>
0.0116057

> <r_epik_State_Penalty>
0.664205

> <r_epik_Charging_Adjusted_Penalty>
1.27227

> <i_epik_Tot_Q>
1

> <i_epik_Tot_abs_Q>
1

> <r_epik_Metal_State_Penalty>
0.654947

> <b_epik_Metal_Only>
0

> <s_lp_Force_Field>
OPLS_2005

> <r_lp_Energy>
21.9473

> <b_lp_Chiralities_Consistent>
1

> <s_lp_Variant>
AV-unprocessed.smi:1824-10

> <Gold.Version>
5.8.1

> <Gold.Id.Protein>
6NUR|6NUR_protein|mol2

> <Gold.PLP.Fitness>
51.0197

> <Gold.PLP.PLP>
-42.0868

> <Gold.PLP.part.hbond>
-3.8354

> <Gold.PLP.part.metal>
0.0000

> <Gold.PLP.part.buried>
-3.3983

> <Gold.PLP.part.nonpolar>
-34.8077

> <Gold.PLP.part.repulsive>
0.0903

> <Gold.PLP.ligand.clash>
0.0000

> <Gold.PLP.ligand.torsion>
1.2384

> <Gold.PLP.Chemscore.Hbond>
3.7858

> <Gold.PLP.Chemscore.CHOScore>
0.0000

> <Gold.PLP.Chemscore.Metal>
0.0000

> <Gold.Chemscore.Hbonds>
donor molecule, donor type, donor heavy atom, donor atom, acceptor molecule, acceptor atom, score
      L1  H     4    45       P1  8028  2.00
      L1  H     7    33       P1  7957  0.24
      P1  H  7989  7998       L1     7  0.46
      P1  H  7997  8009       L1    11  0.80
      P1  H  8011  8017       L1     7  0.07

> <Gold.PLP.Chemscore.Internal.Correction>
0.0524

> <Gold.Rescore>
     Score         DG    S(hbond)    S(metal)    S(lipo)     H(rot)  DE(clash)    DE(int)     intcor
     16.51     -17.92       2.41        0.00      88.44       2.33       0.27       1.14       ----

> <Gold.Chemscore.Fitness>
16.5069

> <Gold.Chemscore.DG>
-17.9170

> <Gold.Chemscore.ZeroCoef>
-5.4800

> <Gold.Chemscore.Hbond>
2.4076

> <Gold.Chemscore.Metal>
0.0000

> <Gold.Chemscore.Lipo>
88.4444

> <Gold.Chemscore.Internal_Hbond>
0.0000

> <Gold.Chemscore.DEClash>
0.2719

> <Gold.Chemscore.DEInternal>
1.1381

> <Gold.Chemscore.Rot>
2.3251

> <Gold.Chemscore.Internal.Correction>
   9.000000E+99

> <Gold.Chemscore.Hbonds>
donor molecule, donor type, donor heavy atom, donor atom, acceptor molecule, acceptor atom, score
      L1  H     4    45       P1  8028  0.74
      L1  H     7    33       P1  7957  0.24
      P1  H  7989  7998       L1     7  0.36
      P1  H  7997  8009       L1    11  0.32

> <Gold.Chemscore.Hbond.Weighted>
-8.0413

> <Gold.Chemscore.Metal.Weighted>
-0.0000

> <Gold.Chemscore.Lipo.Weighted>
-10.3480

> <Gold.Chemscore.Internal_Hbond.Weighted>
0.0000

> <Gold.Chemscore.DEClash.Weighted>
0.2719

> <Gold.Chemscore.DEInternal.Weighted>
1.1381

> <Gold.Chemscore.Rot.Weighted>
5.9523

> <Gold.Chemscore.Internal.Correction.Weighted>
   9.000000E+99

> <Gold.Protein.RotatedTorsions>
[ 6907 6896 6895 6894 ] final -137.51 input  -60.11 | X-H torsion
[ 7974 7965 7964 7962 ] final  -16.74 input  175.53 | X-H torsion
[ 8008 7997 7996 7995 ] final  176.68 input   59.86 | X-H torsion
[ 10167 10162 10161 10158 ] final -153.80 input  -65.29 | X-H torsion
[ 10718 10713 10712 10709 ] final  107.75 input   66.30 | X-H torsion
[ 10763 10752 10751 10750 ] final  -60.78 input  -60.55 | X-H torsion
[ 11005 11000 10999 10996 ] final   42.91 input  -57.11 | X-H torsion

> <Gold.Protein.ActiveResidues>
 VAL166  LYS551  ARG553  GLY616  TRP617  ASP618  TYR619  PRO620  LYS621  CYS622 
 ASP623  PHE694  ASN695  SER759  ASP760  ASP761  ALA762  ILE779  LEU786  VAL792 
 PHE793  MET794  SER795  GLU796  ALA797  LYS798  CYS799  TRP800  GLU811  SER814 

> <Gold.Protein.RotatedAtoms>
  151.0233  133.5856  159.2668 H   0  0  0  0  0  0  0  0  0  0  0  0  # atno 6907 bound_to 6896
  151.2965  135.0756  159.9233 H   0  0  0  0  0  0  0  0  0  0  0  0  # atno 6908 bound_to 6896
  152.5328  133.9922  159.7910 H   0  0  0  0  0  0  0  0  0  0  0  0  # atno 6909 bound_to 6896
  146.1974  140.3679  142.8436 H   0  0  0  0  0  0  0  0  0  0  0  0  # atno 7974 bound_to 7965
  156.0739  140.1377  156.9795 H   0  0  0  0  0  0  0  0  0  0  0  0  # atno 8008 bound_to 7997
  154.4547  140.0966  156.6772 H   0  0  0  0  0  0  0  0  0  0  0  0  # atno 8009 bound_to 7997
  155.5184  140.3455  155.4404 H   0  0  0  0  0  0  0  0  0  0  0  0  # atno 8010 bound_to 7997
  139.7066  143.9176  152.2451 H   0  0  0  0  0  0  0  0  0  0  0  0  # atno 10167 bound_to 10162
  157.6615  131.0879  150.6203 H   0  0  0  0  0  0  0  0  0  0  0  0  # atno 10718 bound_to 10713
  154.2745  135.6284  153.5323 H   0  0  0  0  0  0  0  0  0  0  0  0  # atno 10763 bound_to 10752
  152.9875  135.5618  154.5564 H   0  0  0  0  0  0  0  0  0  0  0  0  # atno 10764 bound_to 10752
  154.5141  135.2878  155.1293 H   0  0  0  0  0  0  0  0  0  0  0  0  # atno 10765 bound_to 10752
  140.1694  134.4241  155.8266 H   0  0  0  0  0  0  0  0  0  0  0  0  # atno 11005 bound_to 11000
  144.8609  140.7138  143.6108 LP  0  0  0  0  0  0  0  0  0  0  0  0  # atno 17320 bound_to 7965
  145.3599  139.1684  143.4389 LP  0  0  0  0  0  0  0  0  0  0  0  0  # atno 17321 bound_to 7965
  139.9034  144.6899  150.8641 LP  0  0  0  0  0  0  0  0  0  0  0  0  # atno 17342 bound_to 10162
  140.7723  143.3497  151.2039 LP  0  0  0  0  0  0  0  0  0  0  0  0  # atno 17343 bound_to 10162
  156.6505  130.4484  149.5721 LP  0  0  0  0  0  0  0  0  0  0  0  0  # atno 17370 bound_to 10713
  156.2141  130.6697  151.1300 LP  0  0  0  0  0  0  0  0  0  0  0  0  # atno 17371 bound_to 10713
  141.2216  133.6949  156.7737 LP  0  0  0  0  0  0  0  0  0  0  0  0  # atno 17394 bound_to 11000
  140.2395  134.8624  157.3559 LP  0  0  0  0  0  0  0  0  0  0  0  0  # atno 17395 bound_to 11000

$$$$
