AV-unprocessed.smi:2524|AV-procd|sdf|9924|dock10
  -GOLD-   2272013563D 1   1.00000     0.00000
 Structure written by MMmdl.
 35 36  0  0  0  0  0  0  0  0  2 V2000
  146.0603  142.0886  154.4773 C   0  0  0  0  0  0  0  0  0  0  0  0
  147.0315  141.4619  153.7968 C   0  0  0  0  0  0  0  0  0  0  0  0
  148.2915  140.9011  154.4221 C   0  0  0  0  0  0  0  0  0  0  0  0
  148.3452  141.1629  155.9323 C   0  0  0  0  0  0  0  0  0  0  0  0
  149.9143  140.5127  156.6638 S   0  0  0  0  0  0  0  0  0  0  0  0
  149.5253  139.4251  157.5774 O   0  0  0  0  0  0  0  0  0  0  0  0
  150.7459  140.1335  155.5115 O   0  0  0  0  0  0  0  0  0  0  0  0
  150.5155  141.8236  157.4131 N   0  5  0  0  0  0  0  0  0  0  0  0
  151.6928  141.7315  158.2696 C   0  0  0  0  0  0  0  0  0  0  0  0
  151.9615  143.0323  159.0558 C   0  0  0  0  0  0  0  0  0  0  0  0
  152.6934  142.7352  160.3447 C   0  0  0  0  0  0  0  0  0  0  0  0
  152.5726  143.5833  161.4703 C   0  0  0  0  0  0  0  0  0  0  0  0
  153.2871  143.2706  162.6435 C   0  0  0  0  0  0  0  0  0  0  0  0
  154.0975  142.1973  162.7543 N   0  0  0  0  0  0  0  0  0  0  0  0
  154.2217  141.3911  161.6792 C   0  0  0  0  0  0  0  0  0  0  0  0
  153.5503  141.6159  160.4611 C   0  0  0  0  0  0  0  0  0  0  0  0
  152.2801  144.3439  158.3529 C   0  0  0  0  0  0  0  0  0  0  0  0
  150.9600  144.1782  159.0675 C   0  0  0  0  0  0  0  0  0  0  0  0
  146.1275  142.2331  155.5456 H   0  0  0  0  0  0  0  0  0  0  0  0
  145.1838  142.4660  153.9719 H   0  0  0  0  0  0  0  0  0  0  0  0
  146.9300  141.3352  152.7288 H   0  0  0  0  0  0  0  0  0  0  0  0
  148.3519  139.8294  154.2280 H   0  0  0  0  0  0  0  0  0  0  0  0
  149.1515  141.3587  153.9327 H   0  0  0  0  0  0  0  0  0  0  0  0
  148.2943  142.2315  156.1410 H   0  0  0  0  0  0  0  0  0  0  0  0
  147.5027  140.6838  156.4310 H   0  0  0  0  0  0  0  0  0  0  0  0
  151.5934  140.9248  158.9967 H   0  0  0  0  0  0  0  0  0  0  0  0
  152.5832  141.4959  157.6859 H   0  0  0  0  0  0  0  0  0  0  0  0
  151.9382  144.4569  161.4354 H   0  0  0  0  0  0  0  0  0  0  0  0
  153.2065  143.9015  163.5163 H   0  0  0  0  0  0  0  0  0  0  0  0
  154.8780  140.5408  161.7921 H   0  0  0  0  0  0  0  0  0  0  0  0
  153.6868  140.9386  159.6307 H   0  0  0  0  0  0  0  0  0  0  0  0
  153.0118  145.0035  158.8152 H   0  0  0  0  0  0  0  0  0  0  0  0
  152.2360  144.4056  157.2664 H   0  0  0  0  0  0  0  0  0  0  0  0
  150.0728  144.1344  158.4371 H   0  0  0  0  0  0  0  0  0  0  0  0
  150.8299  144.7298  159.9965 H   0  0  0  0  0  0  0  0  0  0  0  0
  1  2  2  0  0  0  0
  1 19  1  0  0  0  0
  1 20  1  0  0  0  0
  2  3  1  0  0  0  0
  2 21  1  0  0  0  0
  3  4  1  0  0  0  0
  3 22  1  0  0  0  0
  3 23  1  0  0  0  0
  4  5  1  0  0  0  0
  4 24  1  0  0  0  0
  4 25  1  0  0  0  0
  5  6  2  0  0  0  0
  5  7  2  0  0  0  0
  5  8  1  0  0  0  0
  8  9  1  0  0  0  0
  9 10  1  0  0  0  0
  9 26  1  0  0  0  0
  9 27  1  0  0  0  0
 10 18  1  0  0  0  0
 10 11  1  0  0  0  0
 10 17  1  0  0  0  0
 11 16  1  0  0  0  0
 11 12  2  0  0  0  0
 12 13  1  0  0  0  0
 12 28  1  0  0  0  0
 13 14  2  0  0  0  0
 13 29  1  0  0  0  0
 14 15  1  0  0  0  0
 15 16  2  0  0  0  0
 15 30  1  0  0  0  0
 16 31  1  0  0  0  0
 17 18  1  0  0  0  0
 17 32  1  0  0  0  0
 17 33  1  0  0  0  0
 18 34  1  0  0  0  0
 18 35  1  0  0  0  0
M  CHG  1   8  -1
M  END
> <s_m_source_file>
AV-unprocessed.smi

> <i_m_source_file_index>
2524

> <i_lp_mmshare_version>
43012

> <i_f3d_flags>
0

> <s_epik_input>
W0NIMl09W0NIXVtDSDJdW0NIMl1TKD1PKSg9TylbTkhdW0NIMl1DMShbQ0gyXVtDSDJdMSljMltjSF1bY0hdbltjSF1bY0hdMg==

> <s_epik_cmdline>
J2VwaWtfcHl0aG9uJywgJy1waCcsICc3LjAnLCAnLXRuJywgJzgnLCAnLW1hJywgJzIwMCcsICctbWV0YWxfYmluZGluZycsICctaW1hZScsICc8aW5maWxlLm1hZT4nLCAnLW9tYWUnLCAnPG91dGZpbGUubWFlPic=

> <r_epik_Ionization_Penalty>
6.82782

> <r_epik_Ionization_Penalty_Charging>
6.77146

> <r_epik_Ionization_Penalty_Neutral>
0.0563627

> <r_epik_State_Penalty>
6.80009

> <r_epik_Charging_Adjusted_Penalty>
13.5715

> <i_epik_Tot_Q>
-1

> <i_epik_Tot_abs_Q>
1

> <r_epik_Metal_State_Penalty>
2.75227

> <b_epik_Metal_Only>
1

> <s_lp_Force_Field>
OPLS_2005

> <r_lp_Energy>
12.2049

> <b_lp_Chiralities_Consistent>
1

> <s_lp_Variant>
AV-unprocessed.smi:2524-3

> <Gold.Version>
5.8.1

> <Gold.Id.Protein>
6NUR|6NUR_protein|mol2

> <Gold.PLP.Fitness>
48.8655

> <Gold.PLP.PLP>
-46.8898

> <Gold.PLP.part.hbond>
-1.8685

> <Gold.PLP.part.metal>
0.0000

> <Gold.PLP.part.buried>
-5.9369

> <Gold.PLP.part.nonpolar>
-39.3399

> <Gold.PLP.part.repulsive>
0.1550

> <Gold.PLP.ligand.clash>
0.0000

> <Gold.PLP.ligand.torsion>
1.6747

> <Gold.PLP.Chemscore.Hbond>
0.9760

> <Gold.PLP.Chemscore.CHOScore>
0.0000

> <Gold.PLP.Chemscore.Metal>
0.0000

> <Gold.Chemscore.Hbonds>
donor molecule, donor type, donor heavy atom, donor atom, acceptor molecule, acceptor atom, score
      P1  H  7989  7998       L1     7  0.28

> <Gold.PLP.Chemscore.Internal.Correction>
2.3971

> <Gold.Rescore>
     Score         DG    S(hbond)    S(metal)    S(lipo)     H(rot)  DE(clash)    DE(int)     intcor
     16.99     -19.22       0.94        0.00     125.47       1.59       0.08       2.15       ----

> <Gold.Chemscore.Fitness>
16.9895

> <Gold.Chemscore.DG>
-19.2161

> <Gold.Chemscore.ZeroCoef>
-5.4800

> <Gold.Chemscore.Hbond>
0.9365

> <Gold.Chemscore.Metal>
0.0000

> <Gold.Chemscore.Lipo>
125.4744

> <Gold.Chemscore.Internal_Hbond>
0.0000

> <Gold.Chemscore.DEClash>
0.0815

> <Gold.Chemscore.DEInternal>
2.1451

> <Gold.Chemscore.Rot>
1.5908

> <Gold.Chemscore.Internal.Correction>
   9.000000E+99

> <Gold.Chemscore.Hbonds>
donor molecule, donor type, donor heavy atom, donor atom, acceptor molecule, acceptor atom, score
      P1  H  7989  7998       L1     7  0.29

> <Gold.Chemscore.Hbond.Weighted>
-3.1280

> <Gold.Chemscore.Metal.Weighted>
-0.0000

> <Gold.Chemscore.Lipo.Weighted>
-14.6805

> <Gold.Chemscore.Internal_Hbond.Weighted>
0.0000

> <Gold.Chemscore.DEClash.Weighted>
0.0815

> <Gold.Chemscore.DEInternal.Weighted>
2.1451

> <Gold.Chemscore.Rot.Weighted>
4.0724

> <Gold.Chemscore.Internal.Correction.Weighted>
   9.000000E+99

> <Gold.Protein.RotatedTorsions>
[ 6907 6896 6895 6894 ] final -124.70 input  -60.11 | X-H torsion
[ 7974 7965 7964 7962 ] final   60.08 input  175.53 | X-H torsion
[ 8008 7997 7996 7995 ] final  -64.17 input   59.86 | X-H torsion
[ 10167 10162 10161 10158 ] final  130.12 input  -65.29 | X-H torsion
[ 10718 10713 10712 10709 ] final  -31.48 input   66.30 | X-H torsion
[ 10763 10752 10751 10750 ] final   30.12 input  -60.55 | X-H torsion
[ 11005 11000 10999 10996 ] final  -40.90 input  -57.11 | X-H torsion

> <Gold.Protein.ActiveResidues>
 VAL166  LYS551  ARG553  GLY616  TRP617  ASP618  TYR619  PRO620  LYS621  CYS622 
 ASP623  PHE694  ASN695  SER759  ASP760  ASP761  ALA762  ILE779  LEU786  VAL792 
 PHE793  MET794  SER795  GLU796  ALA797  LYS798  CYS799  TRP800  GLU811  SER814 

> <Gold.Protein.RotatedAtoms>
  150.8794  133.7393  159.2936 H   0  0  0  0  0  0  0  0  0  0  0  0  # atno 6907 bound_to 6896
  151.4979  135.1059  159.9830 H   0  0  0  0  0  0  0  0  0  0  0  0  # atno 6908 bound_to 6896
  152.4750  133.8071  159.7039 H   0  0  0  0  0  0  0  0  0  0  0  0  # atno 6909 bound_to 6896
  145.9000  139.3574  143.0598 H   0  0  0  0  0  0  0  0  0  0  0  0  # atno 7974 bound_to 7965
  154.4596  140.0959  156.6855 H   0  0  0  0  0  0  0  0  0  0  0  0  # atno 8008 bound_to 7997
  155.5034  140.3474  155.4357 H   0  0  0  0  0  0  0  0  0  0  0  0  # atno 8009 bound_to 7997
  156.0845  140.1381  156.9660 H   0  0  0  0  0  0  0  0  0  0  0  0  # atno 8010 bound_to 7997
  139.5445  144.6761  151.4518 H   0  0  0  0  0  0  0  0  0  0  0  0  # atno 10167 bound_to 10162
  156.3868  130.4365  149.7426 H   0  0  0  0  0  0  0  0  0  0  0  0  # atno 10718 bound_to 10713
  153.0390  135.6472  154.0996 H   0  0  0  0  0  0  0  0  0  0  0  0  # atno 10763 bound_to 10752
  154.0706  135.2881  155.3310 H   0  0  0  0  0  0  0  0  0  0  0  0  # atno 10764 bound_to 10752
  154.6597  135.5396  153.8067 H   0  0  0  0  0  0  0  0  0  0  0  0  # atno 10765 bound_to 10752
  141.0207  133.6864  156.2384 H   0  0  0  0  0  0  0  0  0  0  0  0  # atno 11005 bound_to 11000
  145.8803  140.9367  143.0605 LP  0  0  0  0  0  0  0  0  0  0  0  0  # atno 17320 bound_to 7965
  144.6735  140.0771  143.7471 LP  0  0  0  0  0  0  0  0  0  0  0  0  # atno 17321 bound_to 7965
  140.6688  143.8340  150.6973 LP  0  0  0  0  0  0  0  0  0  0  0  0  # atno 17342 bound_to 10162
  140.1758  143.4156  152.1969 LP  0  0  0  0  0  0  0  0  0  0  0  0  # atno 17343 bound_to 10162
  156.4495  130.7900  151.2921 LP  0  0  0  0  0  0  0  0  0  0  0  0  # atno 17370 bound_to 10713
  157.7496  131.0100  150.3288 LP  0  0  0  0  0  0  0  0  0  0  0  0  # atno 17371 bound_to 10713
  140.6577  134.5001  157.5581 LP  0  0  0  0  0  0  0  0  0  0  0  0  # atno 17394 bound_to 11000
  139.9145  134.8276  156.1415 LP  0  0  0  0  0  0  0  0  0  0  0  0  # atno 17395 bound_to 11000

$$$$
