AV-unprocessed.smi:1697|AV-procd|sdf|6810|dock4
  -GOLD-   22720 7583D 1   1.00000     0.00000
 Structure written by MMmdl.
 55 57  0  0  0  0  0  0  0  0  3 V2000
  146.5134  148.2458  159.5335 C   0  0  0  0  0  0  0  0  0  0  0  0
  145.2495  147.4091  159.3256 C   0  0  0  0  0  0  0  0  0  0  0  0
  145.6221  146.0459  159.1861 O   0  0  0  0  0  0  0  0  0  0  0  0
  144.5309  145.1321  159.1736 C   0  0  2  0  0  0  0  0  0  0  0  0
  145.0100  143.6882  158.9348 C   0  0  0  0  0  0  0  0  0  0  0  0
  145.6299  143.5258  157.5368 C   0  0  0  0  0  0  0  0  0  0  0  0
  144.6697  143.9275  156.4739 N   0  3  2  0  0  0  0  0  0  0  0  0
  145.1706  143.6741  155.0977 C   0  0  0  0  0  0  0  0  0  0  0  0
  145.7586  142.2591  154.9221 C   0  0  1  0  0  0  0  0  0  0  0  0
  144.6996  141.3228  154.8796 O   0  0  0  0  0  0  0  0  0  0  0  0
  146.5856  142.1413  153.6269 C   0  0  0  0  0  0  0  0  0  0  0  0
  147.2463  140.8363  153.4883 N   0  0  0  0  0  0  0  0  0  0  0  0
  146.8712  139.7321  152.7862 C   0  0  0  0  0  0  0  0  0  0  0  0
  147.8262  138.7801  152.9791 N   0  3  0  0  0  0  0  0  0  0  0  0
  148.8281  139.2856  153.8108 C   0  0  0  0  0  0  0  0  0  0  0  0
  149.9964  138.7041  154.2894 C   0  0  0  0  0  0  0  0  0  0  0  0
  150.8149  139.4955  155.1270 C   0  0  0  0  0  0  0  0  0  0  0  0
  152.0988  138.8900  155.6681 C   0  0  0  0  0  0  0  0  0  0  0  0
  150.4505  140.8264  155.4583 C   0  0  0  0  0  0  0  0  0  0  0  0
  151.3378  141.6682  156.3597 C   0  0  0  0  0  0  0  0  0  0  0  0
  149.2586  141.4001  154.9606 C   0  0  0  0  0  0  0  0  0  0  0  0
  148.4632  140.6056  154.1386 C   0  0  0  0  0  0  0  0  0  0  0  0
  144.2161  145.3310  156.6544 C   0  0  0  0  0  0  0  0  0  0  0  0
  143.5794  145.5435  158.0399 C   0  0  0  0  0  0  0  0  0  0  0  0
  146.2673  149.3022  159.6436 H   0  0  0  0  0  0  0  0  0  0  0  0
  147.1923  148.1475  158.6862 H   0  0  0  0  0  0  0  0  0  0  0  0
  147.0474  147.9310  160.4303 H   0  0  0  0  0  0  0  0  0  0  0  0
  144.5794  147.5464  160.1738 H   0  0  0  0  0  0  0  0  0  0  0  0
  144.7247  147.7491  158.4318 H   0  0  0  0  0  0  0  0  0  0  0  0
  143.9893  145.1953  160.1189 H   0  0  0  0  0  0  0  0  0  0  0  0
  145.7240  143.3804  159.6980 H   0  0  0  0  0  0  0  0  0  0  0  0
  144.1620  143.0087  159.0305 H   0  0  0  0  0  0  0  0  0  0  0  0
  146.5375  144.1265  157.4564 H   0  0  0  0  0  0  0  0  0  0  0  0
  145.9303  142.4868  157.4108 H   0  0  0  0  0  0  0  0  0  0  0  0
  144.3567  143.7984  154.3814 H   0  0  0  0  0  0  0  0  0  0  0  0
  145.9146  144.4312  154.8444 H   0  0  0  0  0  0  0  0  0  0  0  0
  146.3980  142.0056  155.7662 H   0  0  0  0  0  0  0  0  0  0  0  0
  144.3230  141.3341  154.0122 H   0  0  0  0  0  0  0  0  0  0  0  0
  145.9485  142.2822  152.7523 H   0  0  0  0  0  0  0  0  0  0  0  0
  147.3508  142.9173  153.5797 H   0  0  0  0  0  0  0  0  0  0  0  0
  145.9773  139.6281  152.1877 H   0  0  0  0  0  0  0  0  0  0  0  0
  150.2682  137.6906  154.0325 H   0  0  0  0  0  0  0  0  0  0  0  0
  152.0672  138.8371  156.7567 H   0  0  0  0  0  0  0  0  0  0  0  0
  152.9605  139.4898  155.3745 H   0  0  0  0  0  0  0  0  0  0  0  0
  152.2540  137.8792  155.2892 H   0  0  0  0  0  0  0  0  0  0  0  0
  150.9082  142.6552  156.5339 H   0  0  0  0  0  0  0  0  0  0  0  0
  152.3201  141.8081  155.9075 H   0  0  0  0  0  0  0  0  0  0  0  0
  151.4677  141.1861  157.3287 H   0  0  0  0  0  0  0  0  0  0  0  0
  148.9818  142.4133  155.2115 H   0  0  0  0  0  0  0  0  0  0  0  0
  145.0616  146.0075  156.5190 H   0  0  0  0  0  0  0  0  0  0  0  0
  143.4839  145.5832  155.8864 H   0  0  0  0  0  0  0  0  0  0  0  0
  142.6612  144.9586  158.1079 H   0  0  0  0  0  0  0  0  0  0  0  0
  143.2860  146.5871  158.1594 H   0  0  0  0  0  0  0  0  0  0  0  0
  143.8473  143.3507  156.5832 H   0  0  0  0  0  0  0  0  0  0  0  0
  147.7954  137.8551  152.5692 H   0  0  0  0  0  0  0  0  0  0  0  0
  1  2  1  0  0  0  0
  1 25  1  0  0  0  0
  1 26  1  0  0  0  0
  1 27  1  0  0  0  0
  2  3  1  0  0  0  0
  2 28  1  0  0  0  0
  2 29  1  0  0  0  0
  3  4  1  0  0  0  0
  4 24  1  0  0  0  0
  4  5  1  0  0  0  0
  4 30  1  0  0  0  0
  5  6  1  0  0  0  0
  5 31  1  0  0  0  0
  5 32  1  0  0  0  0
  6  7  1  0  0  0  0
  6 33  1  0  0  0  0
  6 34  1  0  0  0  0
  7  8  1  0  0  0  0
  7 23  1  0  0  0  0
  7 54  1  0  0  0  0
  8  9  1  0  0  0  0
  8 35  1  0  0  0  0
  8 36  1  0  0  0  0
  9 10  1  0  0  0  0
  9 11  1  0  0  0  0
  9 37  1  0  0  0  0
 10 38  1  0  0  0  0
 11 12  1  0  0  0  0
 11 39  1  0  0  0  0
 11 40  1  0  0  0  0
 12 22  1  0  0  0  0
 12 13  1  0  0  0  0
 13 14  2  0  0  0  0
 13 41  1  0  0  0  0
 14 15  1  0  0  0  0
 14 55  1  0  0  0  0
 15 22  2  0  0  0  0
 15 16  1  0  0  0  0
 16 17  2  0  0  0  0
 16 42  1  0  0  0  0
 17 18  1  0  0  0  0
 17 19  1  0  0  0  0
 18 43  1  0  0  0  0
 18 44  1  0  0  0  0
 18 45  1  0  0  0  0
 19 20  1  0  0  0  0
 19 21  2  0  0  0  0
 20 46  1  0  0  0  0
 20 47  1  0  0  0  0
 20 48  1  0  0  0  0
 21 22  1  0  0  0  0
 21 49  1  0  0  0  0
 23 24  1  0  0  0  0
 23 50  1  0  0  0  0
 23 51  1  0  0  0  0
 24 52  1  0  0  0  0
 24 53  1  0  0  0  0
M  CHG  1   7   1
M  CHG  1  14   1
M  END
> <s_m_source_file>
AV-unprocessed.smi

> <i_m_source_file_index>
1697

> <i_lp_mmshare_version>
43012

> <i_f3d_flags>
0

> <s_epik_input>
W0NIM11bQ0gyXU9bQ0hdMVtDSDJdW0NIMl1OKFtDSDJdW0NIMl0xKVtDSDJdW0NASF0oW09IXSlbQ0gyXW4oW2NIXW4yKWMoYzIzKVtjSF1jKFtDSDNdKWMoW2NIXTMpW0NIM10=

> <s_epik_cmdline>
J2VwaWtfcHl0aG9uJywgJy1waCcsICc3LjAnLCAnLXRuJywgJzgnLCAnLW1hJywgJzIwMCcsICctbWV0YWxfYmluZGluZycsICctaW1hZScsICc8aW5maWxlLm1hZT4nLCAnLW9tYWUnLCAnPG91dGZpbGUubWFlPic=

> <r_epik_Ionization_Penalty>
1.20016

> <r_epik_Ionization_Penalty_Charging>
1.20016

> <r_epik_Ionization_Penalty_Neutral>
1.70998e-06

> <r_epik_State_Penalty>
1.27959

> <r_epik_Charging_Adjusted_Penalty>
2.47975

> <i_epik_Tot_Q>
2

> <i_epik_Tot_abs_Q>
2

> <r_epik_Metal_State_Penalty>
5.29682

> <b_epik_Metal_Only>
0

> <s_lp_Force_Field>
OPLS_2005

> <r_lp_Energy>
32.2175

> <b_lp_Chiralities_Consistent>
1

> <s_lp_Variant>
AV-unprocessed.smi:1697-8

> <Gold.Version>
5.8.1

> <Gold.Id.Protein>
6NUR|6NUR_protein|mol2

> <Gold.PLP.Fitness>
53.9958

> <Gold.PLP.PLP>
-43.4153

> <Gold.PLP.part.hbond>
-3.0000

> <Gold.PLP.part.metal>
0.0000

> <Gold.PLP.part.buried>
-3.3981

> <Gold.PLP.part.nonpolar>
-38.0694

> <Gold.PLP.part.repulsive>
0.2007

> <Gold.PLP.ligand.clash>
0.0000

> <Gold.PLP.ligand.torsion>
0.4955

> <Gold.PLP.Chemscore.Hbond>
3.0000

> <Gold.PLP.Chemscore.CHOScore>
0.7988

> <Gold.PLP.Chemscore.Metal>
0.0000

> <Gold.Chemscore.Hbonds>
donor molecule, donor type, donor heavy atom, donor atom, acceptor molecule, acceptor atom, score
      L1  H    10    38       P1 10175  1.00
      L1  H    14    55       P1  7948  1.49
      L1  C    13    41       P1 10175  1.00

> <Gold.PLP.Chemscore.Internal.Correction>
0.1749

> <Gold.Rescore>
     Score         DG    S(hbond)    S(metal)    S(lipo)     H(rot)  DE(clash)    DE(int)     intcor
     16.13     -16.79       1.83        0.00      95.66       2.35       0.11       0.55       ----

> <Gold.Chemscore.Fitness>
16.1318

> <Gold.Chemscore.DG>
-16.7927

> <Gold.Chemscore.ZeroCoef>
-5.4800

> <Gold.Chemscore.Hbond>
1.8347

> <Gold.Chemscore.Metal>
0.0000

> <Gold.Chemscore.Lipo>
95.6613

> <Gold.Chemscore.Internal_Hbond>
0.0000

> <Gold.Chemscore.DEClash>
0.1122

> <Gold.Chemscore.DEInternal>
0.5487

> <Gold.Chemscore.Rot>
2.3468

> <Gold.Chemscore.Internal.Correction>
   9.000000E+99

> <Gold.Chemscore.Hbonds>
donor molecule, donor type, donor heavy atom, donor atom, acceptor molecule, acceptor atom, score
      L1  H    10    38       P1 10175  0.38
      L1  H    14    55       P1  7948  0.71

> <Gold.Chemscore.Hbond.Weighted>
-6.1280

> <Gold.Chemscore.Metal.Weighted>
-0.0000

> <Gold.Chemscore.Lipo.Weighted>
-11.1924

> <Gold.Chemscore.Internal_Hbond.Weighted>
0.0000

> <Gold.Chemscore.DEClash.Weighted>
0.1122

> <Gold.Chemscore.DEInternal.Weighted>
0.5487

> <Gold.Chemscore.Rot.Weighted>
6.0077

> <Gold.Chemscore.Internal.Correction.Weighted>
   9.000000E+99

> <Gold.Protein.RotatedTorsions>
[ 6907 6896 6895 6894 ] final -123.52 input  -60.11 | X-H torsion
[ 7974 7965 7964 7962 ] final   47.21 input  175.53 | X-H torsion
[ 8008 7997 7996 7995 ] final   58.67 input   59.86 | X-H torsion
[ 10167 10162 10161 10158 ] final  -62.92 input  -65.29 | X-H torsion
[ 10718 10713 10712 10709 ] final -141.11 input   66.30 | X-H torsion
[ 10763 10752 10751 10750 ] final   91.61 input  -60.55 | X-H torsion
[ 11005 11000 10999 10996 ] final  -31.01 input  -57.11 | X-H torsion

> <Gold.Protein.ActiveResidues>
 VAL166  LYS551  ARG553  GLY616  TRP617  ASP618  TYR619  PRO620  LYS621  CYS622 
 ASP623  PHE694  ASN695  SER759  ASP760  ASP761  ALA762  ILE779  LEU786  VAL792 
 PHE793  MET794  SER795  GLU796  ALA797  LYS798  CYS799  TRP800  GLU811  SER814 

> <Gold.Protein.RotatedAtoms>
  150.8679  133.7548  159.2970 H   0  0  0  0  0  0  0  0  0  0  0  0  # atno 6907 bound_to 6896
  151.5169  135.1065  159.9878 H   0  0  0  0  0  0  0  0  0  0  0  0  # atno 6908 bound_to 6896
  152.4674  133.7909  159.6957 H   0  0  0  0  0  0  0  0  0  0  0  0  # atno 6909 bound_to 6896
  146.0319  139.4773  142.9833 H   0  0  0  0  0  0  0  0  0  0  0  0  # atno 7974 bound_to 7965
  155.5538  140.3487  155.4475 H   0  0  0  0  0  0  0  0  0  0  0  0  # atno 8008 bound_to 7997
  156.0564  140.1330  157.0017 H   0  0  0  0  0  0  0  0  0  0  0  0  # atno 8009 bound_to 7997
  154.4458  140.0994  156.6437 H   0  0  0  0  0  0  0  0  0  0  0  0  # atno 8010 bound_to 7997
  140.5906  143.2341  151.6147 H   0  0  0  0  0  0  0  0  0  0  0  0  # atno 10167 bound_to 10162
  156.3301  130.7581  151.1698 H   0  0  0  0  0  0  0  0  0  0  0  0  # atno 10718 bound_to 10713
  153.2102  135.4391  155.0370 H   0  0  0  0  0  0  0  0  0  0  0  0  # atno 10763 bound_to 10752
  154.8195  135.3331  154.7081 H   0  0  0  0  0  0  0  0  0  0  0  0  # atno 10764 bound_to 10752
  153.7519  135.6997  153.4999 H   0  0  0  0  0  0  0  0  0  0  0  0  # atno 10765 bound_to 10752
  140.9432  133.7266  156.1107 H   0  0  0  0  0  0  0  0  0  0  0  0  # atno 11005 bound_to 11000
  145.7027  141.0131  143.1495 LP  0  0  0  0  0  0  0  0  0  0  0  0  # atno 17320 bound_to 7965
  144.7034  139.8664  143.7437 LP  0  0  0  0  0  0  0  0  0  0  0  0  # atno 17321 bound_to 7965
  139.5225  144.3160  152.0952 LP  0  0  0  0  0  0  0  0  0  0  0  0  # atno 17342 bound_to 10162
  140.2324  144.4354  150.6294 LP  0  0  0  0  0  0  0  0  0  0  0  0  # atno 17343 bound_to 10162
  157.7429  131.0483  150.4991 LP  0  0  0  0  0  0  0  0  0  0  0  0  # atno 17370 bound_to 10713
  156.5156  130.4149  149.6278 LP  0  0  0  0  0  0  0  0  0  0  0  0  # atno 17371 bound_to 10713
  140.7706  134.3837  157.5508 LP  0  0  0  0  0  0  0  0  0  0  0  0  # atno 17394 bound_to 11000
  139.8826  134.9019  156.2821 LP  0  0  0  0  0  0  0  0  0  0  0  0  # atno 17395 bound_to 11000

$$$$
