AV-unprocessed.smi:1237|AV-procd|sdf|5183|dock2
  -GOLD-   22720 4263D 1   1.00000     0.00000
 Structure written by MMmdl.
 44 45  0  0  0  0  0  0  0  0  1 V2000
  156.2667  139.8255  166.4077 C   0  0  0  0  0  0  0  0  0  0  0  0
  155.6873  138.5948  166.0130 O   0  0  0  0  0  0  0  0  0  0  0  0
  155.6268  138.4498  164.6031 C   0  0  0  0  0  0  0  0  0  0  0  0
  154.5825  137.3803  164.2429 C   0  0  0  0  0  0  0  0  0  0  0  0
  154.5812  137.0817  162.8065 N   0  0  0  0  0  0  0  0  0  0  0  0
  154.2478  138.1624  162.0071 N   0  0  0  0  0  0  0  0  0  0  0  0
  154.1857  138.0266  160.7220 C   0  0  0  0  0  0  0  0  0  0  0  0
  153.8209  139.1609  159.8287 C   0  0  0  0  0  0  0  0  0  0  0  0
  153.8222  139.0486  158.6016 O   0  0  0  0  0  0  0  0  0  0  0  0
  153.4887  140.3036  160.4575 N   0  0  0  0  0  0  0  0  0  0  0  0
  153.0949  141.5527  159.8086 C   0  0  0  0  0  0  0  0  0  0  0  0
  153.1474  142.6765  160.8658 C   0  0  0  0  0  0  0  0  0  0  0  0
  152.4449  144.0021  160.5194 C   0  0  0  0  0  0  0  0  0  0  0  0
  152.4976  144.4261  159.0432 C   0  0  0  0  0  0  0  0  0  0  0  0
  151.3700  143.7978  158.2071 C   0  0  0  0  0  0  0  0  0  0  0  0
  151.5581  142.3072  157.8900 C   0  0  0  0  0  0  0  0  0  0  0  0
  151.7250  141.3888  159.1141 C   0  0  0  0  0  0  0  0  0  0  0  0
  154.4713  136.7470  160.0946 C   0  0  0  0  0  0  0  0  0  0  0  0
  154.7977  135.7025  160.8872 C   0  0  0  0  0  0  0  0  0  0  0  0
  154.8679  135.8276  162.3439 C   0  0  0  0  0  0  0  0  0  0  0  0
  155.1538  134.8888  163.0870 O   0  0  0  0  0  0  0  0  0  0  0  0
  156.2945  139.8850  167.4958 H   0  0  0  0  0  0  0  0  0  0  0  0
  155.6858  140.6714  166.0380 H   0  0  0  0  0  0  0  0  0  0  0  0
  157.2897  139.9153  166.0402 H   0  0  0  0  0  0  0  0  0  0  0  0
  155.3432  139.4015  164.1518 H   0  0  0  0  0  0  0  0  0  0  0  0
  156.6065  138.1824  164.2038 H   0  0  0  0  0  0  0  0  0  0  0  0
  154.7747  136.4735  164.8194 H   0  0  0  0  0  0  0  0  0  0  0  0
  153.5913  137.7143  164.5543 H   0  0  0  0  0  0  0  0  0  0  0  0
  153.5116  140.3057  161.4672 H   0  0  0  0  0  0  0  0  0  0  0  0
  153.8420  141.7829  159.0466 H   0  0  0  0  0  0  0  0  0  0  0  0
  152.7273  142.3181  161.8069 H   0  0  0  0  0  0  0  0  0  0  0  0
  154.1967  142.8843  161.0796 H   0  0  0  0  0  0  0  0  0  0  0  0
  151.4041  143.9540  160.8419 H   0  0  0  0  0  0  0  0  0  0  0  0
  152.8944  144.7869  161.1287 H   0  0  0  0  0  0  0  0  0  0  0  0
  152.3739  145.5089  159.0008 H   0  0  0  0  0  0  0  0  0  0  0  0
  153.4765  144.2218  158.6080 H   0  0  0  0  0  0  0  0  0  0  0  0
  150.4113  143.9499  158.7045 H   0  0  0  0  0  0  0  0  0  0  0  0
  151.2975  144.3373  157.2620 H   0  0  0  0  0  0  0  0  0  0  0  0
  150.6900  141.9713  157.3218 H   0  0  0  0  0  0  0  0  0  0  0  0
  152.4106  142.1814  157.2216 H   0  0  0  0  0  0  0  0  0  0  0  0
  151.6261  140.3638  158.7537 H   0  0  0  0  0  0  0  0  0  0  0  0
  150.9091  141.5310  159.8241 H   0  0  0  0  0  0  0  0  0  0  0  0
  154.4268  136.6259  159.0220 H   0  0  0  0  0  0  0  0  0  0  0  0
  155.0125  134.7458  160.4344 H   0  0  0  0  0  0  0  0  0  0  0  0
  1  2  1  0  0  0  0
  1 22  1  0  0  0  0
  1 23  1  0  0  0  0
  1 24  1  0  0  0  0
  2  3  1  0  0  0  0
  3  4  1  0  0  0  0
  3 25  1  0  0  0  0
  3 26  1  0  0  0  0
  4  5  1  0  0  0  0
  4 27  1  0  0  0  0
  4 28  1  0  0  0  0
  5 20  1  0  0  0  0
  5  6  1  0  0  0  0
  6  7  2  0  0  0  0
  7  8  1  0  0  0  0
  7 18  1  0  0  0  0
  8  9  2  0  0  0  0
  8 10  1  0  0  0  0
 10 11  1  0  0  0  0
 10 29  1  0  0  0  0
 11 17  1  0  0  0  0
 11 12  1  0  0  0  0
 11 30  1  0  0  0  0
 12 13  1  0  0  0  0
 12 31  1  0  0  0  0
 12 32  1  0  0  0  0
 13 14  1  0  0  0  0
 13 33  1  0  0  0  0
 13 34  1  0  0  0  0
 14 15  1  0  0  0  0
 14 35  1  0  0  0  0
 14 36  1  0  0  0  0
 15 16  1  0  0  0  0
 15 37  1  0  0  0  0
 15 38  1  0  0  0  0
 16 17  1  0  0  0  0
 16 39  1  0  0  0  0
 16 40  1  0  0  0  0
 17 41  1  0  0  0  0
 17 42  1  0  0  0  0
 18 19  2  0  0  0  0
 18 43  1  0  0  0  0
 19 20  1  0  0  0  0
 19 44  1  0  0  0  0
 20 21  2  0  0  0  0
M  END
> <s_m_source_file>
AV-unprocessed.smi

> <i_m_source_file_index>
1237

> <i_lp_mmshare_version>
43012

> <i_f3d_flags>
0

> <s_epik_input>
W0NIM11PW0NIMl1bQ0gyXW4xbmMoW2NIXVtjSF1jMT1PKUMoPU8pW05IXVtDSF0yW0NIMl1bQ0gyXVtDSDJdW0NIMl1bQ0gyXVtDSDJdMg==

> <s_epik_cmdline>
J2VwaWtfcHl0aG9uJywgJy1waCcsICc3LjAnLCAnLXRuJywgJzgnLCAnLW1hJywgJzIwMCcsICctbWV0YWxfYmluZGluZycsICctaW1hZScsICc8aW5maWxlLm1hZT4nLCAnLW9tYWUnLCAnPG91dGZpbGUubWFlPic=

> <r_lp_tautomer_probability>
1

> <r_epik_Ionization_Penalty>
5.81787e-07

> <r_epik_Ionization_Penalty_Charging>
6.75108e-09

> <r_epik_Ionization_Penalty_Neutral>
5.75036e-07

> <r_epik_State_Penalty>
-0

> <r_epik_Charging_Adjusted_Penalty>
6.75108e-09

> <i_epik_Tot_Q>
0

> <i_epik_Tot_abs_Q>
0

> <r_epik_Metal_State_Penalty>
-0

> <b_epik_Metal_Only>
0

> <s_lp_Force_Field>
OPLS_2005

> <r_lp_Energy>
36.1796

> <b_lp_Chiralities_Consistent>
1

> <s_lp_Variant>
AV-unprocessed.smi:1237-1

> <Gold.Version>
5.8.1

> <Gold.Id.Protein>
6NUR|6NUR_protein|mol2

> <Gold.PLP.Fitness>
44.8182

> <Gold.PLP.PLP>
-42.1791

> <Gold.PLP.part.hbond>
-1.1858

> <Gold.PLP.part.metal>
0.0000

> <Gold.PLP.part.buried>
-6.4869

> <Gold.PLP.part.nonpolar>
-34.1086

> <Gold.PLP.part.repulsive>
0.2062

> <Gold.PLP.ligand.clash>
0.0000

> <Gold.PLP.ligand.torsion>
0.2238

> <Gold.PLP.Chemscore.Hbond>
1.0000

> <Gold.PLP.Chemscore.CHOScore>
0.0000

> <Gold.PLP.Chemscore.Metal>
0.0000

> <Gold.Chemscore.Hbonds>
donor molecule, donor type, donor heavy atom, donor atom, acceptor molecule, acceptor atom, score
      P1  H  7997  8008       L1     9  1.00

> <Gold.PLP.Chemscore.Internal.Correction>
0.0868

> <Gold.Rescore>
     Score         DG    S(hbond)    S(metal)    S(lipo)     H(rot)  DE(clash)    DE(int)     intcor
     17.45     -17.74       1.00        0.00     110.14       1.55       0.03       0.26       ----

> <Gold.Chemscore.Fitness>
17.4544

> <Gold.Chemscore.DG>
-17.7364

> <Gold.Chemscore.ZeroCoef>
-5.4800

> <Gold.Chemscore.Hbond>
0.9976

> <Gold.Chemscore.Metal>
0.0000

> <Gold.Chemscore.Lipo>
110.1442

> <Gold.Chemscore.Internal_Hbond>
0.0000

> <Gold.Chemscore.DEClash>
0.0268

> <Gold.Chemscore.DEInternal>
0.2552

> <Gold.Chemscore.Rot>
1.5478

> <Gold.Chemscore.Internal.Correction>
   9.000000E+99

> <Gold.Chemscore.Hbonds>
donor molecule, donor type, donor heavy atom, donor atom, acceptor molecule, acceptor atom, score
      P1  H  7997  8008       L1     9  0.96

> <Gold.Chemscore.Hbond.Weighted>
-3.3318

> <Gold.Chemscore.Metal.Weighted>
-0.0000

> <Gold.Chemscore.Lipo.Weighted>
-12.8869

> <Gold.Chemscore.Internal_Hbond.Weighted>
0.0000

> <Gold.Chemscore.DEClash.Weighted>
0.0268

> <Gold.Chemscore.DEInternal.Weighted>
0.2552

> <Gold.Chemscore.Rot.Weighted>
3.9623

> <Gold.Chemscore.Internal.Correction.Weighted>
   9.000000E+99

> <Gold.Protein.RotatedTorsions>
[ 6907 6896 6895 6894 ] final   19.63 input  -60.11 | X-H torsion
[ 7974 7965 7964 7962 ] final   -9.76 input  175.53 | X-H torsion
[ 8008 7997 7996 7995 ] final -114.56 input   59.86 | X-H torsion
[ 10167 10162 10161 10158 ] final -135.47 input  -65.29 | X-H torsion
[ 10718 10713 10712 10709 ] final  -97.45 input   66.30 | X-H torsion
[ 10763 10752 10751 10750 ] final  147.37 input  -60.55 | X-H torsion
[ 11005 11000 10999 10996 ] final  176.16 input  -57.11 | X-H torsion

> <Gold.Protein.ActiveResidues>
 VAL166  LYS551  ARG553  GLY616  TRP617  ASP618  TYR619  PRO620  LYS621  CYS622 
 ASP623  PHE694  ASN695  SER759  ASP760  ASP761  ALA762  ILE779  LEU786  VAL792 
 PHE793  MET794  SER795  GLU796  ALA797  LYS798  CYS799  TRP800  GLU811  SER814 

> <Gold.Protein.RotatedAtoms>
  151.8839  135.0443  160.0491 H   0  0  0  0  0  0  0  0  0  0  0  0  # atno 6907 bound_to 6896
  152.2491  133.5195  159.5323 H   0  0  0  0  0  0  0  0  0  0  0  0  # atno 6908 bound_to 6896
  150.7078  134.0902  159.3971 H   0  0  0  0  0  0  0  0  0  0  0  0  # atno 6909 bound_to 6896
  146.2242  140.2664  142.8354 H   0  0  0  0  0  0  0  0  0  0  0  0  # atno 7974 bound_to 7965
  155.0383  140.0392  157.2500 H   0  0  0  0  0  0  0  0  0  0  0  0  # atno 8008 bound_to 7997
  154.7238  140.2717  155.6493 H   0  0  0  0  0  0  0  0  0  0  0  0  # atno 8009 bound_to 7997
  156.2824  140.2697  156.1918 H   0  0  0  0  0  0  0  0  0  0  0  0  # atno 8010 bound_to 7997
  139.8776  143.6880  152.2632 H   0  0  0  0  0  0  0  0  0  0  0  0  # atno 10167 bound_to 10162
  156.0084  130.5195  150.6377 H   0  0  0  0  0  0  0  0  0  0  0  0  # atno 10718 bound_to 10713
  154.0372  135.2892  155.3360 H   0  0  0  0  0  0  0  0  0  0  0  0  # atno 10763 bound_to 10752
  154.6951  135.5211  153.8451 H   0  0  0  0  0  0  0  0  0  0  0  0  # atno 10764 bound_to 10752
  153.0615  135.6615  154.0579 H   0  0  0  0  0  0  0  0  0  0  0  0  # atno 10765 bound_to 10752
  140.3701  134.7037  157.4387 H   0  0  0  0  0  0  0  0  0  0  0  0  # atno 11005 bound_to 11000
  144.9301  140.7965  143.5695 LP  0  0  0  0  0  0  0  0  0  0  0  0  # atno 17320 bound_to 7965
  145.2607  139.1993  143.4893 LP  0  0  0  0  0  0  0  0  0  0  0  0  # atno 17321 bound_to 7965
  139.7226  144.7599  151.0930 LP  0  0  0  0  0  0  0  0  0  0  0  0  # atno 17342 bound_to 10162
  140.7750  143.5188  150.9561 LP  0  0  0  0  0  0  0  0  0  0  0  0  # atno 17343 bound_to 10162
  157.4163  131.0830  151.1174 LP  0  0  0  0  0  0  0  0  0  0  0  0  # atno 17370 bound_to 10713
  157.1790  130.6301  149.5665 LP  0  0  0  0  0  0  0  0  0  0  0  0  # atno 17371 bound_to 10713
  140.0558  134.6065  155.8807 LP  0  0  0  0  0  0  0  0  0  0  0  0  # atno 17394 bound_to 11000
  141.1957  133.6588  156.5656 LP  0  0  0  0  0  0  0  0  0  0  0  0  # atno 17395 bound_to 11000

$$$$
