AV-unprocessed.smi:197|AV-procd|sdf|1550|dock2
  -GOLD-   2262019413D 1   1.00000     0.00000
 Structure written by MMmdl.
 54 57  0  0  0  0  0  0  0  0  1 V2000
  150.8025  144.4241  158.4070 C   0  0  0  0  0  0  0  0  0  0  0  0
  151.8481  144.7707  159.3031 O   0  0  0  0  0  0  0  0  0  0  0  0
  152.4292  143.6672  159.9875 C   0  0  0  0  0  0  0  0  0  0  0  0
  152.8959  142.5622  159.0215 C   0  0  0  0  0  0  0  0  0  0  0  0
  152.9321  141.1465  159.6573 C   0  0  2  0  0  0  0  0  0  0  0  0
  153.9789  141.0752  160.7934 C   0  0  0  0  0  0  0  0  0  0  0  0
  154.0160  139.7680  161.3552 O   0  0  0  0  0  0  0  0  0  0  0  0
  154.3931  138.7896  160.3958 C   0  0  0  0  0  0  0  0  0  0  0  0
  153.3505  138.7662  159.2704 C   0  0  0  0  0  0  0  0  0  0  0  0
  153.2190  140.0915  158.6759 N   0  0  0  0  0  0  0  0  0  0  0  0
  152.4063  140.0533  157.5959 C   0  0  0  0  0  0  0  0  0  0  0  0
  152.9160  139.5160  156.4606 N   0  0  0  0  0  0  0  0  0  0  0  0
  152.1799  139.4915  155.3453 C   0  0  0  0  0  0  0  0  0  0  0  0
  150.9399  139.9466  155.1525 N   0  0  0  0  0  0  0  0  0  0  0  0
  150.4214  140.4771  156.2973 C   0  0  0  0  0  0  0  0  0  0  0  0
  151.0750  140.5579  157.5585 C   0  0  0  0  0  0  0  0  0  0  0  0
  150.2296  141.1438  158.4931 N   0  0  0  0  0  0  0  0  0  0  0  0
  149.1455  141.4110  157.8189 C   0  0  0  0  0  0  0  0  0  0  0  0
  149.1807  141.0598  156.4882 N   0  0  0  0  0  0  0  0  0  0  0  0
  148.1279  141.2611  155.5047 C   0  0  0  0  0  0  0  0  0  0  0  0
  148.0791  140.1496  154.4227 C   0  0  2  0  0  0  0  0  0  0  0  0
  149.1370  140.3806  153.5073 O   0  0  0  0  0  0  0  0  0  0  0  0
  146.7754  140.1275  153.6280 C   0  0  0  0  0  0  0  0  0  0  0  0
  146.6425  138.6670  153.2259 C   0  0  0  0  0  0  0  0  0  0  0  0
  147.0836  137.9912  154.3897 O   0  0  0  0  0  0  0  0  0  0  0  0
  148.2049  138.6851  154.9305 C   0  0  2  0  0  0  0  0  0  0  0  0
  148.1922  138.4754  156.4527 C   0  0  0  0  0  0  0  0  0  0  0  0
  150.4528  145.3212  157.8962 H   0  0  0  0  0  0  0  0  0  0  0  0
  149.9467  143.9890  158.9220 H   0  0  0  0  0  0  0  0  0  0  0  0
  151.1482  143.7207  157.6487 H   0  0  0  0  0  0  0  0  0  0  0  0
  153.2596  144.0052  160.6090 H   0  0  0  0  0  0  0  0  0  0  0  0
  151.6849  143.2688  160.6759 H   0  0  0  0  0  0  0  0  0  0  0  0
  152.2443  142.5905  158.1499 H   0  0  0  0  0  0  0  0  0  0  0  0
  153.8863  142.8106  158.6387 H   0  0  0  0  0  0  0  0  0  0  0  0
  151.9575  140.9356  160.0968 H   0  0  0  0  0  0  0  0  0  0  0  0
  154.9710  141.3490  160.4301 H   0  0  0  0  0  0  0  0  0  0  0  0
  153.7304  141.7732  161.5921 H   0  0  0  0  0  0  0  0  0  0  0  0
  155.3881  139.0068  160.0038 H   0  0  0  0  0  0  0  0  0  0  0  0
  154.4451  137.8151  160.8817 H   0  0  0  0  0  0  0  0  0  0  0  0
  153.6458  138.0425  158.5093 H   0  0  0  0  0  0  0  0  0  0  0  0
  152.3870  138.4426  159.6670 H   0  0  0  0  0  0  0  0  0  0  0  0
  152.6553  139.0510  154.4815 H   0  0  0  0  0  0  0  0  0  0  0  0
  148.2891  141.8855  158.2755 H   0  0  0  0  0  0  0  0  0  0  0  0
  147.1753  141.3215  156.0326 H   0  0  0  0  0  0  0  0  0  0  0  0
  148.2904  142.2365  155.0454 H   0  0  0  0  0  0  0  0  0  0  0  0
  149.7454  139.6595  153.5637 H   0  0  0  0  0  0  0  0  0  0  0  0
  145.9369  140.3884  154.2750 H   0  0  0  0  0  0  0  0  0  0  0  0
  146.7636  140.8104  152.7774 H   0  0  0  0  0  0  0  0  0  0  0  0
  145.6214  138.3914  152.9619 H   0  0  0  0  0  0  0  0  0  0  0  0
  147.2965  138.4266  152.3862 H   0  0  0  0  0  0  0  0  0  0  0  0
  149.1060  138.2189  154.5274 H   0  0  0  0  0  0  0  0  0  0  0  0
  149.0421  138.9642  156.9294 H   0  0  0  0  0  0  0  0  0  0  0  0
  148.2512  137.4138  156.6937 H   0  0  0  0  0  0  0  0  0  0  0  0
  147.2776  138.8609  156.9035 H   0  0  0  0  0  0  0  0  0  0  0  0
  1  2  1  0  0  0  0
  1 28  1  0  0  0  0
  1 29  1  0  0  0  0
  1 30  1  0  0  0  0
  2  3  1  0  0  0  0
  3  4  1  0  0  0  0
  3 31  1  0  0  0  0
  3 32  1  0  0  0  0
  4  5  1  0  0  0  0
  4 33  1  0  0  0  0
  4 34  1  0  0  0  0
  5 10  1  0  0  0  0
  5  6  1  0  0  0  0
  5 35  1  0  0  0  0
  6  7  1  0  0  0  0
  6 36  1  0  0  0  0
  6 37  1  0  0  0  0
  7  8  1  0  0  0  0
  8  9  1  0  0  0  0
  8 38  1  0  0  0  0
  8 39  1  0  0  0  0
  9 10  1  0  0  0  0
  9 40  1  0  0  0  0
  9 41  1  0  0  0  0
 10 11  1  0  0  0  0
 11 16  1  0  0  0  0
 11 12  2  0  0  0  0
 12 13  1  0  0  0  0
 13 14  2  0  0  0  0
 13 42  1  0  0  0  0
 14 15  1  0  0  0  0
 15 19  1  0  0  0  0
 15 16  2  0  0  0  0
 16 17  1  0  0  0  0
 17 18  2  0  0  0  0
 18 19  1  0  0  0  0
 18 43  1  0  0  0  0
 19 20  1  0  0  0  0
 20 21  1  0  0  0  0
 20 44  1  0  0  0  0
 20 45  1  0  0  0  0
 21 26  1  0  0  0  0
 21 22  1  0  0  0  0
 21 23  1  0  0  0  0
 22 46  1  0  0  0  0
 23 24  1  0  0  0  0
 23 47  1  0  0  0  0
 23 48  1  0  0  0  0
 24 25  1  0  0  0  0
 24 49  1  0  0  0  0
 24 50  1  0  0  0  0
 25 26  1  0  0  0  0
 26 27  1  0  0  0  0
 26 51  1  0  0  0  0
 27 52  1  0  0  0  0
 27 53  1  0  0  0  0
 27 54  1  0  0  0  0
M  END
> <s_m_source_file>
AV-unprocessed.smi

> <i_m_source_file_index>
197

> <i_lp_mmshare_version>
43012

> <i_f3d_flags>
0

> <s_epik_input>
W0NIM11PW0NIMl1bQ0gyXVtDQEBIXTFbQ0gyXU9bQ0gyXVtDSDJdTjFjKG5bY0hdbjIpYyhjMjMpbltjSF1uM1tDSDJdW0NAQF00KFtPSF0pW0NIMl1bQ0gyXU9bQ0BIXTRbQ0gzXQ==

> <s_epik_cmdline>
J2VwaWtfcHl0aG9uJywgJy1waCcsICc3LjAnLCAnLXRuJywgJzgnLCAnLW1hJywgJzIwMCcsICctbWV0YWxfYmluZGluZycsICctaW1hZScsICc8aW5maWxlLm1hZT4nLCAnLW9tYWUnLCAnPG91dGZpbGUubWFlPic=

> <r_lp_tautomer_probability>
1

> <r_epik_Ionization_Penalty>
0.000106218

> <r_epik_Ionization_Penalty_Charging>
0

> <r_epik_Ionization_Penalty_Neutral>
0.000106218

> <r_epik_State_Penalty>
-0

> <r_epik_Charging_Adjusted_Penalty>
0

> <i_epik_Tot_Q>
0

> <i_epik_Tot_abs_Q>
0

> <r_epik_Metal_State_Penalty>
-0

> <b_epik_Metal_Only>
0

> <s_lp_Force_Field>
OPLS_2005

> <r_lp_Energy>
42.452

> <b_lp_Chiralities_Consistent>
1

> <s_lp_Variant>
AV-unprocessed.smi:197-7

> <Gold.Version>
5.8.1

> <Gold.Id.Protein>
6NUR|6NUR_protein|mol2

> <Gold.PLP.Fitness>
50.4747

> <Gold.PLP.PLP>
-44.8723

> <Gold.PLP.part.hbond>
-4.1365

> <Gold.PLP.part.metal>
0.0000

> <Gold.PLP.part.buried>
-3.8573

> <Gold.PLP.part.nonpolar>
-36.7647

> <Gold.PLP.part.repulsive>
0.2517

> <Gold.PLP.ligand.clash>
0.8379

> <Gold.PLP.ligand.torsion>
1.2620

> <Gold.PLP.Chemscore.Hbond>
2.9000

> <Gold.PLP.Chemscore.CHOScore>
0.0000

> <Gold.PLP.Chemscore.Metal>
0.0000

> <Gold.Chemscore.Hbonds>
donor molecule, donor type, donor heavy atom, donor atom, acceptor molecule, acceptor atom, score
      P1  H  7989  7998       L1    14  0.35
      P1  H  7997  8008       L1    12  1.00

> <Gold.PLP.Chemscore.Internal.Correction>
0.2643

> <Gold.Rescore>
     Score         DG    S(hbond)    S(metal)    S(lipo)     H(rot)  DE(clash)    DE(int)     intcor
      9.76     -16.14       1.67        0.00     105.46       2.84       0.47       5.91       ----

> <Gold.Chemscore.Fitness>
9.7556

> <Gold.Chemscore.DG>
-16.1365

> <Gold.Chemscore.ZeroCoef>
-5.4800

> <Gold.Chemscore.Hbond>
1.6698

> <Gold.Chemscore.Metal>
0.0000

> <Gold.Chemscore.Lipo>
105.4601

> <Gold.Chemscore.Internal_Hbond>
0.0000

> <Gold.Chemscore.DEClash>
0.4697

> <Gold.Chemscore.DEInternal>
5.9111

> <Gold.Chemscore.Rot>
2.8358

> <Gold.Chemscore.Internal.Correction>
   9.000000E+99

> <Gold.Chemscore.Hbonds>
donor molecule, donor type, donor heavy atom, donor atom, acceptor molecule, acceptor atom, score
      P1  H  7989  7998       L1    14  0.01
      P1  H  7997  8008       L1    12  0.41
      P1  H  8011  8017       L1    22  0.06

> <Gold.Chemscore.Hbond.Weighted>
-5.5772

> <Gold.Chemscore.Metal.Weighted>
-0.0000

> <Gold.Chemscore.Lipo.Weighted>
-12.3388

> <Gold.Chemscore.Internal_Hbond.Weighted>
0.0000

> <Gold.Chemscore.DEClash.Weighted>
0.4697

> <Gold.Chemscore.DEInternal.Weighted>
5.9111

> <Gold.Chemscore.Rot.Weighted>
7.2596

> <Gold.Chemscore.Internal.Correction.Weighted>
   9.000000E+99

> <Gold.Protein.RotatedTorsions>
[ 6907 6896 6895 6894 ] final   41.20 input  -60.11 | X-H torsion
[ 7974 7965 7964 7962 ] final -177.22 input  175.53 | X-H torsion
[ 8008 7997 7996 7995 ] final  -44.38 input   59.86 | X-H torsion
[ 10167 10162 10161 10158 ] final -113.92 input  -65.29 | X-H torsion
[ 10718 10713 10712 10709 ] final -107.68 input   66.30 | X-H torsion
[ 10763 10752 10751 10750 ] final  104.74 input  -60.55 | X-H torsion
[ 11005 11000 10999 10996 ] final   73.73 input  -57.11 | X-H torsion

> <Gold.Protein.ActiveResidues>
 VAL166  LYS551  ARG553  GLY616  TRP617  ASP618  TYR619  PRO620  LYS621  CYS622 
 ASP623  PHE694  ASN695  SER759  ASP760  ASP761  ALA762  ILE779  LEU786  VAL792 
 PHE793  MET794  SER795  GLU796  ALA797  LYS798  CYS799  TRP800  GLU811  SER814 

> <Gold.Protein.RotatedAtoms>
  152.1923  134.8661  160.0516 H   0  0  0  0  0  0  0  0  0  0  0  0  # atno 6907 bound_to 6896
  151.9546  133.3671  159.4021 H   0  0  0  0  0  0  0  0  0  0  0  0  # atno 6908 bound_to 6896
  150.6937  134.4228  159.5257 H   0  0  0  0  0  0  0  0  0  0  0  0  # atno 6909 bound_to 6896
  144.7127  140.1051  143.6414 H   0  0  0  0  0  0  0  0  0  0  0  0  # atno 7974 bound_to 7965
  154.3997  140.1423  156.3673 H   0  0  0  0  0  0  0  0  0  0  0  0  # atno 8008 bound_to 7997
  155.8125  140.3472  155.5445 H   0  0  0  0  0  0  0  0  0  0  0  0  # atno 8009 bound_to 7997
  155.8372  140.0921  157.1747 H   0  0  0  0  0  0  0  0  0  0  0  0  # atno 8010 bound_to 7997
  140.1066  143.4565  152.1779 H   0  0  0  0  0  0  0  0  0  0  0  0  # atno 10167 bound_to 10162
  156.0448  130.5675  150.7856 H   0  0  0  0  0  0  0  0  0  0  0  0  # atno 10718 bound_to 10713
  153.3700  135.3933  155.1781 H   0  0  0  0  0  0  0  0  0  0  0  0  # atno 10763 bound_to 10752
  154.8693  135.3700  154.4990 H   0  0  0  0  0  0  0  0  0  0  0  0  # atno 10764 bound_to 10752
  153.5456  135.7084  153.5676 H   0  0  0  0  0  0  0  0  0  0  0  0  # atno 10765 bound_to 10752
  139.9426  134.7372  156.1061 H   0  0  0  0  0  0  0  0  0  0  0  0  # atno 11005 bound_to 11000
  145.9503  139.2729  143.1216 LP  0  0  0  0  0  0  0  0  0  0  0  0  # atno 17320 bound_to 7965
  145.9330  140.9035  143.0347 LP  0  0  0  0  0  0  0  0  0  0  0  0  # atno 17321 bound_to 7965
  139.5642  144.7425  151.4070 LP  0  0  0  0  0  0  0  0  0  0  0  0  # atno 17342 bound_to 10162
  140.6948  143.7774  150.7310 LP  0  0  0  0  0  0  0  0  0  0  0  0  # atno 17343 bound_to 10162
  157.5311  131.0936  150.9953 LP  0  0  0  0  0  0  0  0  0  0  0  0  # atno 17370 bound_to 10713
  157.0259  130.5692  149.5337 LP  0  0  0  0  0  0  0  0  0  0  0  0  # atno 17371 bound_to 10713
  141.1065  133.6658  156.2877 LP  0  0  0  0  0  0  0  0  0  0  0  0  # atno 17394 bound_to 11000
  140.5915  134.5646  157.5500 LP  0  0  0  0  0  0  0  0  0  0  0  0  # atno 17395 bound_to 11000

$$$$
