AV-unprocessed.smi:3111|AV-procd|sdf|11833|dock5
  -GOLD-   2272017203D 1   1.00000     0.00000
 Structure written by MMmdl.
 29 29  0  0  0  0  0  0  0  0  1 V2000
  146.6025  140.3034  154.9175 C   0  0  0  0  0  0  0  0  0  0  0  0
  146.1367  139.5905  153.7379 N   0  0  0  0  0  0  0  0  0  0  0  0
  146.5139  138.3466  153.4114 C   0  0  0  0  0  0  0  0  0  0  0  0
  147.2913  137.6785  154.0951 O   0  0  0  0  0  0  0  0  0  0  0  0
  145.9012  137.7721  152.1274 C   0  0  0  0  0  0  0  0  0  0  0  0
  146.3699  136.4204  151.8344 N   0  0  0  0  0  0  0  0  0  0  0  0
  145.7338  135.2887  152.1779 C   0  0  0  0  0  0  0  0  0  0  0  0
  144.6931  135.2761  152.8367 O   0  0  0  0  0  0  0  0  0  0  0  0
  146.3714  133.9795  151.6864 C   0  0  1  0  0  0  0  0  0  0  0  0
  147.0359  133.1711  152.8170 C   0  0  0  0  0  0  0  0  0  0  0  0
  145.3890  133.1765  150.9713 N   0  0  0  0  0  0  0  0  0  0  0  0
  144.0301  133.4399  150.8474 C   0  0  0  0  0  0  0  0  0  0  0  0
  143.4946  132.4155  150.1001 C   0  0  0  0  0  0  0  0  0  0  0  0
  144.4969  131.5127  149.7555 N   0  0  0  0  0  0  0  0  0  0  0  0
  145.5886  132.0276  150.3059 C   0  0  0  0  0  0  0  0  0  0  0  0
  146.1445  141.2916  154.9597 H   0  0  0  0  0  0  0  0  0  0  0  0
  147.6856  140.4305  154.8915 H   0  0  0  0  0  0  0  0  0  0  0  0
  146.3365  139.7645  155.8276 H   0  0  0  0  0  0  0  0  0  0  0  0
  145.4922  140.0739  153.1293 H   0  0  0  0  0  0  0  0  0  0  0  0
  144.8177  137.7413  152.2441 H   0  0  0  0  0  0  0  0  0  0  0  0
  146.1077  138.4344  151.2845 H   0  0  0  0  0  0  0  0  0  0  0  0
  147.2145  136.3413  151.2868 H   0  0  0  0  0  0  0  0  0  0  0  0
  147.1536  134.2514  150.9757 H   0  0  0  0  0  0  0  0  0  0  0  0
  147.7897  133.7641  153.3362 H   0  0  0  0  0  0  0  0  0  0  0  0
  147.5345  132.2866  152.4193 H   0  0  0  0  0  0  0  0  0  0  0  0
  146.3093  132.8341  153.5574 H   0  0  0  0  0  0  0  0  0  0  0  0
  143.5676  134.3100  151.2898 H   0  0  0  0  0  0  0  0  0  0  0  0
  142.4725  132.2594  149.7879 H   0  0  0  0  0  0  0  0  0  0  0  0
  146.5572  131.5561  150.2259 H   0  0  0  0  0  0  0  0  0  0  0  0
  1  2  1  0  0  0  0
  1 16  1  0  0  0  0
  1 17  1  0  0  0  0
  1 18  1  0  0  0  0
  2  3  1  0  0  0  0
  2 19  1  0  0  0  0
  3  4  2  0  0  0  0
  3  5  1  0  0  0  0
  5  6  1  0  0  0  0
  5 20  1  0  0  0  0
  5 21  1  0  0  0  0
  6  7  1  0  0  0  0
  6 22  1  0  0  0  0
  7  8  2  0  0  0  0
  7  9  1  0  0  0  0
  9 10  1  0  0  0  0
  9 11  1  0  0  0  0
  9 23  1  0  0  0  0
 10 24  1  0  0  0  0
 10 25  1  0  0  0  0
 10 26  1  0  0  0  0
 11 15  1  0  0  0  0
 11 12  1  0  0  0  0
 12 13  2  0  0  0  0
 12 27  1  0  0  0  0
 13 14  1  0  0  0  0
 13 28  1  0  0  0  0
 14 15  2  0  0  0  0
 15 29  1  0  0  0  0
M  END
> <s_m_source_file>
AV-unprocessed.smi

> <i_m_source_file_index>
3111

> <i_lp_mmshare_version>
43012

> <i_f3d_flags>
0

> <s_epik_input>
W0NIM11bTkhdQyg9TylbQ0gyXVtOSF1DKD1PKVtDQEhdKFtDSDNdKW4xW2NIXVtjSF1uW2NIXTE=

> <s_epik_cmdline>
J2VwaWtfcHl0aG9uJywgJy1waCcsICc3LjAnLCAnLXRuJywgJzgnLCAnLW1hJywgJzIwMCcsICctbWV0YWxfYmluZGluZycsICctaW1hZScsICc8aW5maWxlLm1hZT4nLCAnLW9tYWUnLCAnPG91dGZpbGUubWFlPic=

> <r_lp_tautomer_probability>
1

> <r_epik_Ionization_Penalty>
0.278299

> <r_epik_Ionization_Penalty_Charging>
0.278299

> <r_epik_Ionization_Penalty_Neutral>
1.78617e-07

> <r_epik_State_Penalty>
0.270759

> <r_epik_Charging_Adjusted_Penalty>
0.549058

> <i_epik_Tot_Q>
0

> <i_epik_Tot_abs_Q>
0

> <r_epik_Metal_State_Penalty>
0.183212

> <b_epik_Metal_Only>
0

> <s_lp_Force_Field>
OPLS_2005

> <r_lp_Energy>
4.73549

> <b_lp_Chiralities_Consistent>
1

> <s_lp_Variant>
AV-unprocessed.smi:3111-2

> <Gold.Version>
5.8.1

> <Gold.Id.Protein>
6NUR|6NUR_protein|mol2

> <Gold.PLP.Fitness>
35.2727

> <Gold.PLP.PLP>
-22.4605

> <Gold.PLP.part.hbond>
-3.0000

> <Gold.PLP.part.metal>
0.0000

> <Gold.PLP.part.buried>
-2.8213

> <Gold.PLP.part.nonpolar>
-18.6571

> <Gold.PLP.part.repulsive>
0.4113

> <Gold.PLP.ligand.clash>
0.0000

> <Gold.PLP.ligand.torsion>
0.4050

> <Gold.PLP.Chemscore.Hbond>
1.9252

> <Gold.PLP.Chemscore.CHOScore>
2.5884

> <Gold.PLP.Chemscore.Metal>
0.0000

> <Gold.Chemscore.Hbonds>
donor molecule, donor type, donor heavy atom, donor atom, acceptor molecule, acceptor atom, score
      L1  H     2    19       P1 10175  1.00
      L1  H     6    22       P1  7948  0.62
      P1  H 10785 10796       L1    14  0.29
      L1  C    13    28       P1 10186  0.58
      L1  C    13    28       P1 10952  1.00
      L1  C    15    29       P1 10747  1.00

> <Gold.PLP.Chemscore.Internal.Correction>
0.0812

> <Gold.Rescore>
     Score         DG    S(hbond)    S(metal)    S(lipo)     H(rot)  DE(clash)    DE(int)     intcor
      9.08     -10.73       1.97        0.00      38.31       2.27       0.06       1.59       ----

> <Gold.Chemscore.Fitness>
9.0791

> <Gold.Chemscore.DG>
-10.7260

> <Gold.Chemscore.ZeroCoef>
-5.4800

> <Gold.Chemscore.Hbond>
1.9692

> <Gold.Chemscore.Metal>
0.0000

> <Gold.Chemscore.Lipo>
38.3090

> <Gold.Chemscore.Internal_Hbond>
0.0000

> <Gold.Chemscore.DEClash>
0.0556

> <Gold.Chemscore.DEInternal>
1.5912

> <Gold.Chemscore.Rot>
2.2709

> <Gold.Chemscore.Internal.Correction>
   9.000000E+99

> <Gold.Chemscore.Hbonds>
donor molecule, donor type, donor heavy atom, donor atom, acceptor molecule, acceptor atom, score
      L1  H     2    19       P1 10175  0.95
      L1  H     6    22       P1  7948  0.62
      P1  H 10785 10796       L1    14  0.05

> <Gold.Chemscore.Hbond.Weighted>
-6.5773

> <Gold.Chemscore.Metal.Weighted>
-0.0000

> <Gold.Chemscore.Lipo.Weighted>
-4.4822

> <Gold.Chemscore.Internal_Hbond.Weighted>
0.0000

> <Gold.Chemscore.DEClash.Weighted>
0.0556

> <Gold.Chemscore.DEInternal.Weighted>
1.5912

> <Gold.Chemscore.Rot.Weighted>
5.8135

> <Gold.Chemscore.Internal.Correction.Weighted>
   9.000000E+99

> <Gold.Protein.RotatedTorsions>
[ 6907 6896 6895 6894 ] final -166.69 input  -60.11 | X-H torsion
[ 7974 7965 7964 7962 ] final   42.46 input  175.53 | X-H torsion
[ 8008 7997 7996 7995 ] final -104.06 input   59.86 | X-H torsion
[ 10167 10162 10161 10158 ] final  -98.36 input  -65.29 | X-H torsion
[ 10718 10713 10712 10709 ] final   82.33 input   66.30 | X-H torsion
[ 10763 10752 10751 10750 ] final  -10.44 input  -60.55 | X-H torsion
[ 11005 11000 10999 10996 ] final    1.43 input  -57.11 | X-H torsion

> <Gold.Protein.ActiveResidues>
 VAL166  LYS551  ARG553  GLY616  TRP617  ASP618  TYR619  PRO620  LYS621  CYS622 
 ASP623  PHE694  ASN695  SER759  ASP760  ASP761  ALA762  ILE779  LEU786  VAL792 
 PHE793  MET794  SER795  GLU796  ALA797  LYS798  CYS799  TRP800  GLU811  SER814 

> <Gold.Protein.RotatedAtoms>
  151.4476  133.3626  159.2790 H   0  0  0  0  0  0  0  0  0  0  0  0  # atno 6907 bound_to 6896
  150.9114  134.8532  159.7438 H   0  0  0  0  0  0  0  0  0  0  0  0  # atno 6908 bound_to 6896
  152.4934  134.4406  159.9594 H   0  0  0  0  0  0  0  0  0  0  0  0  # atno 6909 bound_to 6896
  146.0738  139.5298  142.9580 H   0  0  0  0  0  0  0  0  0  0  0  0  # atno 7974 bound_to 7965
  154.8799  140.0419  157.1776 H   0  0  0  0  0  0  0  0  0  0  0  0  # atno 8008 bound_to 7997
  154.8650  140.2950  155.5495 H   0  0  0  0  0  0  0  0  0  0  0  0  # atno 8009 bound_to 7997
  156.2999  140.2440  156.3630 H   0  0  0  0  0  0  0  0  0  0  0  0  # atno 8010 bound_to 7997
  140.2738  143.3326  152.0508 H   0  0  0  0  0  0  0  0  0  0  0  0  # atno 10167 bound_to 10162
  157.6854  131.0043  150.2359 H   0  0  0  0  0  0  0  0  0  0  0  0  # atno 10718 bound_to 10713
  153.4692  135.7016  153.6004 H   0  0  0  0  0  0  0  0  0  0  0  0  # atno 10763 bound_to 10752
  153.4265  135.3813  155.2144 H   0  0  0  0  0  0  0  0  0  0  0  0  # atno 10764 bound_to 10752
  154.8725  135.3940  154.4128 H   0  0  0  0  0  0  0  0  0  0  0  0  # atno 10765 bound_to 10752
  140.6156  133.9708  155.8199 H   0  0  0  0  0  0  0  0  0  0  0  0  # atno 11005 bound_to 11000
  145.6343  141.0298  143.1846 LP  0  0  0  0  0  0  0  0  0  0  0  0  # atno 17320 bound_to 7965
  144.7248  139.7910  143.7369 LP  0  0  0  0  0  0  0  0  0  0  0  0  # atno 17321 bound_to 7965
  139.4981  144.6638  151.6403 LP  0  0  0  0  0  0  0  0  0  0  0  0  # atno 17342 bound_to 10162
  140.5868  143.9850  150.6300 LP  0  0  0  0  0  0  0  0  0  0  0  0  # atno 17343 bound_to 10162
  156.2982  130.3755  149.7775 LP  0  0  0  0  0  0  0  0  0  0  0  0  # atno 17370 bound_to 10713
  156.5413  130.8301  151.3270 LP  0  0  0  0  0  0  0  0  0  0  0  0  # atno 17371 bound_to 10713
  141.0778  134.0108  157.3431 LP  0  0  0  0  0  0  0  0  0  0  0  0  # atno 17394 bound_to 11000
  139.9174  135.0198  156.7935 LP  0  0  0  0  0  0  0  0  0  0  0  0  # atno 17395 bound_to 11000

$$$$
