AV-unprocessed.smi:2559|AV-procd|sdf|10035|dock1
  -GOLD-   2272014 83D 1   1.00000     0.00000
 Structure written by MMmdl.
 44 46  0  0  0  0  0  0  0  0  1 V2000
  155.9562  138.9760  163.0021 C   0  0  0  0  0  0  0  0  0  0  0  0
  154.9530  138.5137  162.0410 N   0  0  0  0  0  0  0  0  0  0  0  0
  154.7373  137.1714  161.8630 C   0  0  0  0  0  0  0  0  0  0  0  0
  155.3671  136.3145  162.4826 O   0  0  0  0  0  0  0  0  0  0  0  0
  153.7785  136.7966  160.9631 N   0  0  0  0  0  0  0  0  0  0  0  0
  152.9923  137.6043  160.2112 C   0  0  0  0  0  0  0  0  0  0  0  0
  152.1371  137.1784  159.4386 O   0  0  0  0  0  0  0  0  0  0  0  0
  153.2583  139.0349  160.4268 C   0  0  0  0  0  0  0  0  0  0  0  0
  154.1913  139.4708  161.3119 C   0  0  0  0  0  0  0  0  0  0  0  0
  154.2176  140.8554  161.3608 N   0  0  0  0  0  0  0  0  0  0  0  0
  153.2931  141.2086  160.4640 C   0  0  0  0  0  0  0  0  0  0  0  0
  152.9747  142.5385  160.1835 N   0  0  0  0  0  0  0  0  0  0  0  0
  152.5902  143.5100  161.2064 C   0  0  0  0  0  0  0  0  0  0  0  0
  151.3122  144.2708  160.8092 C   0  0  0  0  0  0  0  0  0  0  0  0
  151.4952  144.9786  159.4593 C   0  0  0  0  0  0  0  0  0  0  0  0
  152.0058  143.9837  158.4080 C   0  0  0  0  0  0  0  0  0  0  0  0
  153.2493  143.2424  158.9298 C   0  0  0  0  0  0  0  0  0  0  0  0
  152.6505  140.1650  159.8705 N   0  0  0  0  0  0  0  0  0  0  0  0
  151.5447  140.2097  158.9135 C   0  0  0  0  0  0  0  0  0  0  0  0
  152.0221  140.3862  157.4573 C   0  0  1  0  0  0  0  0  0  0  0  0
  152.8998  139.3159  157.1701 O   0  0  0  0  0  0  0  0  0  0  0  0
  150.8798  140.3867  156.4227 C   0  0  0  0  0  0  0  0  0  0  0  0
  151.3972  140.2068  155.1213 O   0  0  0  0  0  0  0  0  0  0  0  0
  153.6352  135.8035  160.8519 H   0  0  0  0  0  0  0  0  0  0  0  0
  156.9022  138.4492  162.8679 H   0  0  0  0  0  0  0  0  0  0  0  0
  155.6097  138.8014  164.0216 H   0  0  0  0  0  0  0  0  0  0  0  0
  156.1688  140.0404  162.9015 H   0  0  0  0  0  0  0  0  0  0  0  0
  152.4262  142.9963  162.1544 H   0  0  0  0  0  0  0  0  0  0  0  0
  153.4128  144.2075  161.3695 H   0  0  0  0  0  0  0  0  0  0  0  0
  150.4756  143.5738  160.7487 H   0  0  0  0  0  0  0  0  0  0  0  0
  151.0549  144.9977  161.5797 H   0  0  0  0  0  0  0  0  0  0  0  0
  150.5572  145.4290  159.1339 H   0  0  0  0  0  0  0  0  0  0  0  0
  152.2131  145.7924  159.5693 H   0  0  0  0  0  0  0  0  0  0  0  0
  151.2197  143.2687  158.1642 H   0  0  0  0  0  0  0  0  0  0  0  0
  152.2440  144.5089  157.4829 H   0  0  0  0  0  0  0  0  0  0  0  0
  154.0547  143.9573  159.1027 H   0  0  0  0  0  0  0  0  0  0  0  0
  153.6313  142.5516  158.1794 H   0  0  0  0  0  0  0  0  0  0  0  0
  150.9554  139.3012  159.0045 H   0  0  0  0  0  0  0  0  0  0  0  0
  150.8538  141.0048  159.1838 H   0  0  0  0  0  0  0  0  0  0  0  0
  152.5826  141.3179  157.3792 H   0  0  0  0  0  0  0  0  0  0  0  0
  152.3869  138.5723  156.8929 H   0  0  0  0  0  0  0  0  0  0  0  0
  150.1416  139.6150  156.6439 H   0  0  0  0  0  0  0  0  0  0  0  0
  150.3552  141.3415  156.4231 H   0  0  0  0  0  0  0  0  0  0  0  0
  152.1543  139.6436  155.1734 H   0  0  0  0  0  0  0  0  0  0  0  0
  1  2  1  0  0  0  0
  1 25  1  0  0  0  0
  1 26  1  0  0  0  0
  1 27  1  0  0  0  0
  2  9  1  0  0  0  0
  2  3  1  0  0  0  0
  3  4  2  0  0  0  0
  3  5  1  0  0  0  0
  5 24  1  0  0  0  0
  5  6  1  0  0  0  0
  6  7  2  0  0  0  0
  6  8  1  0  0  0  0
  8 18  1  0  0  0  0
  8  9  2  0  0  0  0
  9 10  1  0  0  0  0
 10 11  2  0  0  0  0
 11 12  1  0  0  0  0
 11 18  1  0  0  0  0
 12 17  1  0  0  0  0
 12 13  1  0  0  0  0
 13 14  1  0  0  0  0
 13 28  1  0  0  0  0
 13 29  1  0  0  0  0
 14 15  1  0  0  0  0
 14 30  1  0  0  0  0
 14 31  1  0  0  0  0
 15 16  1  0  0  0  0
 15 32  1  0  0  0  0
 15 33  1  0  0  0  0
 16 17  1  0  0  0  0
 16 34  1  0  0  0  0
 16 35  1  0  0  0  0
 17 36  1  0  0  0  0
 17 37  1  0  0  0  0
 18 19  1  0  0  0  0
 19 20  1  0  0  0  0
 19 38  1  0  0  0  0
 19 39  1  0  0  0  0
 20 21  1  0  0  0  0
 20 22  1  0  0  0  0
 20 40  1  0  0  0  0
 21 41  1  0  0  0  0
 22 23  1  0  0  0  0
 22 42  1  0  0  0  0
 22 43  1  0  0  0  0
 23 44  1  0  0  0  0
M  END
> <s_m_source_file>
AV-unprocessed.smi

> <i_m_source_file_index>
2559

> <i_lp_mmshare_version>
43012

> <i_f3d_flags>
0

> <s_epik_input>
Tz1jMVtuSF1jKD1PKW4oW0NIM10pYyhjMTIpbmMobjJbQ0gyXVtDQEhdKFtPSF0pW0NIMl1bT0hdKU4zW0NIMl1bQ0gyXVtDSDJdW0NIMl1bQ0gyXTM=

> <s_epik_cmdline>
J2VwaWtfcHl0aG9uJywgJy1waCcsICc3LjAnLCAnLXRuJywgJzgnLCAnLW1hJywgJzIwMCcsICctbWV0YWxfYmluZGluZycsICctaW1hZScsICc8aW5maWxlLm1hZT4nLCAnLW9tYWUnLCAnPG91dGZpbGUubWFlPic=

> <r_lp_tautomer_probability>
1

> <r_epik_Ionization_Penalty>
0.0023969

> <r_epik_Ionization_Penalty_Charging>
9.35512e-05

> <r_epik_Ionization_Penalty_Neutral>
0.00230335

> <r_epik_State_Penalty>
-0

> <r_epik_Charging_Adjusted_Penalty>
9.35512e-05

> <i_epik_Tot_Q>
0

> <i_epik_Tot_abs_Q>
0

> <r_epik_Metal_State_Penalty>
0.0757518

> <b_epik_Metal_Only>
0

> <s_lp_Force_Field>
OPLS_2005

> <r_lp_Energy>
42.4748

> <b_lp_Chiralities_Consistent>
1

> <s_lp_Variant>
AV-unprocessed.smi:2559-2

> <Gold.Version>
5.8.1

> <Gold.Id.Protein>
6NUR|6NUR_protein|mol2

> <Gold.PLP.Fitness>
51.5087

> <Gold.PLP.PLP>
-46.2980

> <Gold.PLP.part.hbond>
-2.6361

> <Gold.PLP.part.metal>
0.0000

> <Gold.PLP.part.buried>
-6.5605

> <Gold.PLP.part.nonpolar>
-36.8659

> <Gold.PLP.part.repulsive>
0.0715

> <Gold.PLP.ligand.clash>
0.0000

> <Gold.PLP.ligand.torsion>
1.6032

> <Gold.PLP.Chemscore.Hbond>
2.6100

> <Gold.PLP.Chemscore.CHOScore>
0.0000

> <Gold.PLP.Chemscore.Metal>
0.0000

> <Gold.Chemscore.Hbonds>
donor molecule, donor type, donor heavy atom, donor atom, acceptor molecule, acceptor atom, score
      P1  H  6896  6909       L1     7  0.71
      P1  H  7989  7998       L1    23  0.95
      P1  H  7997  8009       L1    21  1.00

> <Gold.PLP.Chemscore.Internal.Correction>
0.5871

> <Gold.Rescore>
     Score         DG    S(hbond)    S(metal)    S(lipo)     H(rot)  DE(clash)    DE(int)     intcor
     15.16     -16.50       2.57        0.00      85.85       2.97       0.00       1.34       ----

> <Gold.Chemscore.Fitness>
15.1558

> <Gold.Chemscore.DG>
-16.4961

> <Gold.Chemscore.ZeroCoef>
-5.4800

> <Gold.Chemscore.Hbond>
2.5662

> <Gold.Chemscore.Metal>
0.0000

> <Gold.Chemscore.Lipo>
85.8503

> <Gold.Chemscore.Internal_Hbond>
0.0000

> <Gold.Chemscore.DEClash>
0.0015

> <Gold.Chemscore.DEInternal>
1.3388

> <Gold.Chemscore.Rot>
2.9685

> <Gold.Chemscore.Internal.Correction>
   9.000000E+99

> <Gold.Chemscore.Hbonds>
donor molecule, donor type, donor heavy atom, donor atom, acceptor molecule, acceptor atom, score
      P1  H  6896  6909       L1     7  0.39
      P1  H  7989  7998       L1    23  0.21
      P1  H  7997  8009       L1    21  0.44

> <Gold.Chemscore.Hbond.Weighted>
-8.5710

> <Gold.Chemscore.Metal.Weighted>
-0.0000

> <Gold.Chemscore.Lipo.Weighted>
-10.0445

> <Gold.Chemscore.Internal_Hbond.Weighted>
0.0000

> <Gold.Chemscore.DEClash.Weighted>
0.0015

> <Gold.Chemscore.DEInternal.Weighted>
1.3388

> <Gold.Chemscore.Rot.Weighted>
7.5994

> <Gold.Chemscore.Internal.Correction.Weighted>
   9.000000E+99

> <Gold.Protein.RotatedTorsions>
[ 6907 6896 6895 6894 ] final  131.14 input  -60.11 | X-H torsion
[ 7974 7965 7964 7962 ] final  126.15 input  175.53 | X-H torsion
[ 8008 7997 7996 7995 ] final -166.19 input   59.86 | X-H torsion
[ 10167 10162 10161 10158 ] final    2.34 input  -65.29 | X-H torsion
[ 10718 10713 10712 10709 ] final   90.30 input   66.30 | X-H torsion
[ 10763 10752 10751 10750 ] final  -21.86 input  -60.55 | X-H torsion
[ 11005 11000 10999 10996 ] final   30.47 input  -57.11 | X-H torsion

> <Gold.Protein.ActiveResidues>
 VAL166  LYS551  ARG553  GLY616  TRP617  ASP618  TYR619  PRO620  LYS621  CYS622 
 ASP623  PHE694  ASN695  SER759  ASP760  ASP761  ALA762  ILE779  LEU786  VAL792 
 PHE793  MET794  SER795  GLU796  ALA797  LYS798  CYS799  TRP800  GLU811  SER814 

> <Gold.Protein.RotatedAtoms>
  152.3456  133.6118  159.5907 H   0  0  0  0  0  0  0  0  0  0  0  0  # atno 6907 bound_to 6896
  150.7505  133.9654  159.3538 H   0  0  0  0  0  0  0  0  0  0  0  0  # atno 6908 bound_to 6896
  151.7513  135.0833  160.0382 H   0  0  0  0  0  0  0  0  0  0  0  0  # atno 6909 bound_to 6896
  145.0650  139.3775  143.4987 H   0  0  0  0  0  0  0  0  0  0  0  0  # atno 7974 bound_to 7965
  155.8603  140.0977  157.1617 H   0  0  0  0  0  0  0  0  0  0  0  0  # atno 8008 bound_to 7997
  154.3990  140.1366  156.4015 H   0  0  0  0  0  0  0  0  0  0  0  0  # atno 8009 bound_to 7997
  155.7864  140.3457  155.5327 H   0  0  0  0  0  0  0  0  0  0  0  0  # atno 8010 bound_to 7997
  140.6640  143.7229  150.7791 H   0  0  0  0  0  0  0  0  0  0  0  0  # atno 10167 bound_to 10162
  157.6958  131.0365  150.3556 H   0  0  0  0  0  0  0  0  0  0  0  0  # atno 10718 bound_to 10713
  153.6427  135.6984  153.5236 H   0  0  0  0  0  0  0  0  0  0  0  0  # atno 10763 bound_to 10752
  153.2769  135.4197  155.1041 H   0  0  0  0  0  0  0  0  0  0  0  0  # atno 10764 bound_to 10752
  154.8496  135.3592  154.5971 H   0  0  0  0  0  0  0  0  0  0  0  0  # atno 10765 bound_to 10752
  140.2940  134.2832  155.7769 H   0  0  0  0  0  0  0  0  0  0  0  0  # atno 11005 bound_to 11000
  146.3526  140.0366  142.8646 LP  0  0  0  0  0  0  0  0  0  0  0  0  # atno 17320 bound_to 7965
  145.1362  140.9546  143.4515 LP  0  0  0  0  0  0  0  0  0  0  0  0  # atno 17321 bound_to 7965
  140.0903  143.4884  152.2482 LP  0  0  0  0  0  0  0  0  0  0  0  0  # atno 17342 bound_to 10162
  139.5882  144.7539  151.3466 LP  0  0  0  0  0  0  0  0  0  0  0  0  # atno 17343 bound_to 10162
  156.3999  130.3914  149.6967 LP  0  0  0  0  0  0  0  0  0  0  0  0  # atno 17370 bound_to 10713
  156.4288  130.7805  151.2824 LP  0  0  0  0  0  0  0  0  0  0  0  0  # atno 17371 bound_to 10713
  141.2141  133.7603  156.9667 LP  0  0  0  0  0  0  0  0  0  0  0  0  # atno 17394 bound_to 11000
  140.1169  134.9441  157.2148 LP  0  0  0  0  0  0  0  0  0  0  0  0  # atno 17395 bound_to 11000

$$$$
