AV-unprocessed.smi:651|AV-procd|sdf|3186|dock4
  -GOLD-   22720 0113D 1   1.00000     0.00000
 Structure written by MMmdl.
 38 39  0  0  0  0  0  0  0  0  1 V2000
  152.2311  144.1987  159.2461 C   0  0  0  0  0  0  0  0  0  0  0  0
  152.4649  142.7102  159.3982 C   0  0  0  0  0  0  0  0  0  0  0  0
  153.5340  142.2270  160.1815 C   0  0  0  0  0  0  0  0  0  0  0  0
  153.7009  140.8341  160.3021 C   0  0  0  0  0  0  0  0  0  0  0  0
  152.7965  139.9806  159.6373 C   0  0  0  0  0  0  0  0  0  0  0  0
  152.9257  138.4699  159.7451 C   0  0  0  0  0  0  0  0  0  0  0  0
  151.7382  137.7374  159.1084 C   0  0  0  0  0  0  0  0  0  0  0  0
  150.8892  137.1717  159.7995 O   0  0  0  0  0  0  0  0  0  0  0  0
  151.6862  137.7676  157.7683 N   0  0  0  0  0  0  0  0  0  0  0  0
  150.6314  137.1573  156.9570 C   0  0  2  0  0  0  0  0  0  0  0  0
  151.0780  135.7984  156.3859 C   0  0  0  0  0  0  0  0  0  0  0  0
  150.5564  135.7294  154.9442 C   0  0  0  0  0  0  0  0  0  0  0  0
  149.6438  136.9466  154.7671 C   0  0  0  0  0  0  0  0  0  0  0  0
  150.1668  138.0087  155.7455 C   0  0  2  0  0  0  0  0  0  0  0  0
  151.2679  138.8711  155.0905 C   0  0  0  0  0  0  0  0  0  0  0  0
  152.3438  138.2285  154.6293 N   0  0  0  0  0  0  0  0  0  0  0  0
  151.1497  140.0915  154.9942 O   0  0  0  0  0  0  0  0  0  0  0  0
  151.7620  140.5663  158.8766 C   0  0  0  0  0  0  0  0  0  0  0  0
  151.5937  141.9008  158.7560 N   0  0  0  0  0  0  0  0  0  0  0  0
  153.1608  144.7538  159.3743 H   0  0  0  0  0  0  0  0  0  0  0  0
  151.5195  144.5442  159.9962 H   0  0  0  0  0  0  0  0  0  0  0  0
  151.8314  144.4332  158.2589 H   0  0  0  0  0  0  0  0  0  0  0  0
  154.2087  142.9058  160.6824 H   0  0  0  0  0  0  0  0  0  0  0  0
  154.5058  140.4302  160.8986 H   0  0  0  0  0  0  0  0  0  0  0  0
  153.8481  138.1508  159.2577 H   0  0  0  0  0  0  0  0  0  0  0  0
  153.0050  138.1827  160.7944 H   0  0  0  0  0  0  0  0  0  0  0  0
  152.4177  138.2574  157.2735 H   0  0  0  0  0  0  0  0  0  0  0  0
  149.7633  136.9776  157.5946 H   0  0  0  0  0  0  0  0  0  0  0  0
  152.1642  135.6961  156.3871 H   0  0  0  0  0  0  0  0  0  0  0  0
  150.6793  134.9815  156.9887 H   0  0  0  0  0  0  0  0  0  0  0  0
  151.3932  135.7888  154.2473 H   0  0  0  0  0  0  0  0  0  0  0  0
  150.0313  134.7960  154.7399 H   0  0  0  0  0  0  0  0  0  0  0  0
  149.6151  137.2890  153.7317 H   0  0  0  0  0  0  0  0  0  0  0  0
  148.6227  136.6789  155.0422 H   0  0  0  0  0  0  0  0  0  0  0  0
  149.3516  138.6678  156.0491 H   0  0  0  0  0  0  0  0  0  0  0  0
  153.0938  138.7469  154.1954 H   0  0  0  0  0  0  0  0  0  0  0  0
  152.4045  137.2248  154.7197 H   0  0  0  0  0  0  0  0  0  0  0  0
  151.0459  139.9479  158.3555 H   0  0  0  0  0  0  0  0  0  0  0  0
  1  2  1  0  0  0  0
  1 20  1  0  0  0  0
  1 21  1  0  0  0  0
  1 22  1  0  0  0  0
  2 19  1  0  0  0  0
  2  3  2  0  0  0  0
  3  4  1  0  0  0  0
  3 23  1  0  0  0  0
  4  5  2  0  0  0  0
  4 24  1  0  0  0  0
  5  6  1  0  0  0  0
  5 18  1  0  0  0  0
  6  7  1  0  0  0  0
  6 25  1  0  0  0  0
  6 26  1  0  0  0  0
  7  8  2  0  0  0  0
  7  9  1  0  0  0  0
  9 10  1  0  0  0  0
  9 27  1  0  0  0  0
 10 14  1  0  0  0  0
 10 11  1  0  0  0  0
 10 28  1  0  0  0  0
 11 12  1  0  0  0  0
 11 29  1  0  0  0  0
 11 30  1  0  0  0  0
 12 13  1  0  0  0  0
 12 31  1  0  0  0  0
 12 32  1  0  0  0  0
 13 14  1  0  0  0  0
 13 33  1  0  0  0  0
 13 34  1  0  0  0  0
 14 15  1  0  0  0  0
 14 35  1  0  0  0  0
 15 16  1  0  0  0  0
 15 17  2  0  0  0  0
 16 36  1  0  0  0  0
 16 37  1  0  0  0  0
 18 19  2  0  0  0  0
 18 38  1  0  0  0  0
M  END
> <s_m_source_file>
AV-unprocessed.smi

> <i_m_source_file_index>
651

> <i_lp_mmshare_version>
43012

> <i_f3d_flags>
0

> <s_epik_input>
W0NIM11jMVtjSF1bY0hdYyhbY0hdbjEpW0NIMl1DKD1PKVtOSF1bQ0BASF0yW0NIMl1bQ0gyXVtDSDJdW0NASF0yQyg9TylbTkgyXQ==

> <s_epik_cmdline>
J2VwaWtfcHl0aG9uJywgJy1waCcsICc3LjAnLCAnLXRuJywgJzgnLCAnLW1hJywgJzIwMCcsICctbWV0YWxfYmluZGluZycsICctaW1hZScsICc8aW5maWxlLm1hZT4nLCAnLW9tYWUnLCAnPG91dGZpbGUubWFlPic=

> <r_epik_Ionization_Penalty>
0.0159502

> <r_epik_Ionization_Penalty_Charging>
0

> <r_epik_Ionization_Penalty_Neutral>
0.0159502

> <r_epik_State_Penalty>
0.012563

> <r_epik_Charging_Adjusted_Penalty>
0.012563

> <i_epik_Tot_Q>
0

> <i_epik_Tot_abs_Q>
0

> <r_epik_Metal_State_Penalty>
0.0122326

> <b_epik_Metal_Only>
0

> <s_lp_Force_Field>
OPLS_2005

> <r_lp_Energy>
13.1482

> <b_lp_Chiralities_Consistent>
1

> <s_lp_Variant>
AV-unprocessed.smi:651-3

> <Gold.Version>
5.8.1

> <Gold.Id.Protein>
6NUR|6NUR_protein|mol2

> <Gold.PLP.Fitness>
38.0299

> <Gold.PLP.PLP>
-33.1601

> <Gold.PLP.part.hbond>
-1.9060

> <Gold.PLP.part.metal>
0.0000

> <Gold.PLP.part.buried>
-4.6857

> <Gold.PLP.part.nonpolar>
-26.7729

> <Gold.PLP.part.repulsive>
0.3238

> <Gold.PLP.ligand.clash>
0.0000

> <Gold.PLP.ligand.torsion>
0.4674

> <Gold.PLP.Chemscore.Hbond>
1.9263

> <Gold.PLP.Chemscore.CHOScore>
0.0000

> <Gold.PLP.Chemscore.Metal>
0.0000

> <Gold.Chemscore.Hbonds>
donor molecule, donor type, donor heavy atom, donor atom, acceptor molecule, acceptor atom, score
      P1  H  6896  6908       L1     8  0.91
      P1  H  7989  7998       L1    17  1.00

> <Gold.PLP.Chemscore.Internal.Correction>
0.0258

> <Gold.Rescore>
     Score         DG    S(hbond)    S(metal)    S(lipo)     H(rot)  DE(clash)    DE(int)     intcor
     16.38     -16.89       1.99        0.00      83.86       1.97       0.00       0.51       ----

> <Gold.Chemscore.Fitness>
16.3762

> <Gold.Chemscore.DG>
-16.8910

> <Gold.Chemscore.ZeroCoef>
-5.4800

> <Gold.Chemscore.Hbond>
1.9892

> <Gold.Chemscore.Metal>
0.0000

> <Gold.Chemscore.Lipo>
83.8580

> <Gold.Chemscore.Internal_Hbond>
0.0000

> <Gold.Chemscore.DEClash>
0.0048

> <Gold.Chemscore.DEInternal>
0.5100

> <Gold.Chemscore.Rot>
1.9704

> <Gold.Chemscore.Internal.Correction>
   9.000000E+99

> <Gold.Chemscore.Hbonds>
donor molecule, donor type, donor heavy atom, donor atom, acceptor molecule, acceptor atom, score
      P1  H  6896  6908       L1     8  0.65
      P1  H  7989  7998       L1    17  0.97

> <Gold.Chemscore.Hbond.Weighted>
-6.6439

> <Gold.Chemscore.Metal.Weighted>
-0.0000

> <Gold.Chemscore.Lipo.Weighted>
-9.8114

> <Gold.Chemscore.Internal_Hbond.Weighted>
0.0000

> <Gold.Chemscore.DEClash.Weighted>
0.0048

> <Gold.Chemscore.DEInternal.Weighted>
0.5100

> <Gold.Chemscore.Rot.Weighted>
5.0443

> <Gold.Chemscore.Internal.Correction.Weighted>
   9.000000E+99

> <Gold.Protein.RotatedTorsions>
[ 6907 6896 6895 6894 ] final -133.97 input  -60.11 | X-H torsion
[ 7974 7965 7964 7962 ] final  -47.46 input  175.53 | X-H torsion
[ 8008 7997 7996 7995 ] final  165.70 input   59.86 | X-H torsion
[ 10167 10162 10161 10158 ] final   83.06 input  -65.29 | X-H torsion
[ 10718 10713 10712 10709 ] final  -72.04 input   66.30 | X-H torsion
[ 10763 10752 10751 10750 ] final  -29.05 input  -60.55 | X-H torsion
[ 11005 11000 10999 10996 ] final -146.00 input  -57.11 | X-H torsion

> <Gold.Protein.ActiveResidues>
 VAL166  LYS551  ARG553  GLY616  TRP617  ASP618  TYR619  PRO620  LYS621  CYS622 
 ASP623  PHE694  ASN695  SER759  ASP760  ASP761  ALA762  ILE779  LEU786  VAL792 
 PHE793  MET794  SER795  GLU796  ALA797  LYS798  CYS799  TRP800  GLU811  SER814 

> <Gold.Protein.RotatedAtoms>
  150.9803  133.6252  159.2723 H   0  0  0  0  0  0  0  0  0  0  0  0  # atno 6907 bound_to 6896
  151.3510  135.0883  159.9412 H   0  0  0  0  0  0  0  0  0  0  0  0  # atno 6908 bound_to 6896
  152.5213  133.9395  159.7674 H   0  0  0  0  0  0  0  0  0  0  0  0  # atno 6909 bound_to 6896
  145.9614  140.7476  142.9456 H   0  0  0  0  0  0  0  0  0  0  0  0  # atno 7974 bound_to 7965
  156.1779  140.1663  156.8329 H   0  0  0  0  0  0  0  0  0  0  0  0  # atno 8008 bound_to 7997
  154.5327  140.0753  156.8406 H   0  0  0  0  0  0  0  0  0  0  0  0  # atno 8009 bound_to 7997
  155.3374  140.3382  155.4241 H   0  0  0  0  0  0  0  0  0  0  0  0  # atno 8010 bound_to 7997
  139.9223  144.6205  150.8427 H   0  0  0  0  0  0  0  0  0  0  0  0  # atno 10167 bound_to 10162
  156.0337  130.4364  150.2533 H   0  0  0  0  0  0  0  0  0  0  0  0  # atno 10718 bound_to 10713
  153.7584  135.6921  153.4931 H   0  0  0  0  0  0  0  0  0  0  0  0  # atno 10763 bound_to 10752
  153.1955  135.4455  155.0201 H   0  0  0  0  0  0  0  0  0  0  0  0  # atno 10764 bound_to 10752
  154.8162  135.3400  154.7100 H   0  0  0  0  0  0  0  0  0  0  0  0  # atno 10765 bound_to 10752
  140.7865  134.3018  157.5028 H   0  0  0  0  0  0  0  0  0  0  0  0  # atno 11005 bound_to 11000
  144.6816  140.2597  143.7320 LP  0  0  0  0  0  0  0  0  0  0  0  0  # atno 17320 bound_to 7965
  145.8035  139.1974  143.2034 LP  0  0  0  0  0  0  0  0  0  0  0  0  # atno 17321 bound_to 7965
  140.7659  143.3288  151.2456 LP  0  0  0  0  0  0  0  0  0  0  0  0  # atno 17342 bound_to 10162
  139.6851  143.9787  152.2830 LP  0  0  0  0  0  0  0  0  0  0  0  0  # atno 17343 bound_to 10162
  157.0634  131.0096  151.3215 LP  0  0  0  0  0  0  0  0  0  0  0  0  # atno 17370 bound_to 10713
  157.5053  130.7905  149.7648 LP  0  0  0  0  0  0  0  0  0  0  0  0  # atno 17371 bound_to 10713
  139.8736  134.9349  156.3620 LP  0  0  0  0  0  0  0  0  0  0  0  0  # atno 17394 bound_to 11000
  140.9432  133.7501  156.0173 LP  0  0  0  0  0  0  0  0  0  0  0  0  # atno 17395 bound_to 11000

$$$$
