AV-unprocessed.smi:561|AV-procd|sdf|2936|dock3
  -GOLD-   2262023433D 1   1.00000     0.00000
 Structure written by MMmdl.
 37 38  0  0  0  0  0  0  0  0  2 V2000
  152.2666  142.4048  161.0490 C   0  0  0  0  0  0  0  0  0  0  0  0
  153.4558  142.4215  160.0798 C   0  0  2  0  0  0  0  0  0  0  0  0
  153.2257  143.4203  158.9259 C   0  0  0  0  0  0  0  0  0  0  0  0
  152.1305  144.3591  159.1905 N   0  0  0  0  0  0  0  0  0  0  0  0
  152.0493  145.2761  160.2071 C   0  0  0  0  0  0  0  0  0  0  0  0
  150.8467  145.9176  160.0591 C   0  0  0  0  0  0  0  0  0  0  0  0
  150.2474  145.3686  158.9572 N   0  3  0  0  0  0  0  0  0  0  0  0
  151.0315  144.4238  158.4279 C   0  0  0  0  0  0  0  0  0  0  0  0
  153.6685  141.0695  159.5648 N   0  0  0  0  0  0  0  0  0  0  0  0
  152.7656  140.3315  158.8918 C   0  0  0  0  0  0  0  0  0  0  0  0
  151.6298  140.7298  158.6315 O   0  0  0  0  0  0  0  0  0  0  0  0
  153.2152  138.9781  158.4760 C   0  0  0  0  0  0  0  0  0  0  0  0
  154.4756  138.7436  158.2861 N   0  0  0  0  0  0  0  0  0  0  0  0
  154.9419  137.4997  157.9115 N   0  0  0  0  0  0  0  0  0  0  0  0
  156.3923  137.3563  158.0349 C   0  0  0  0  0  0  0  0  0  0  0  0
  154.1572  136.4955  157.4409 C   0  0  0  0  0  0  0  0  0  0  0  0
  154.5768  135.3854  157.1144 O   0  0  0  0  0  0  0  0  0  0  0  0
  152.6647  136.8085  157.2941 C   0  0  0  0  0  0  0  0  0  0  0  0
  152.1911  137.8763  158.2993 C   0  0  0  0  0  0  0  0  0  0  0  0
  152.0976  143.3927  161.4787 H   0  0  0  0  0  0  0  0  0  0  0  0
  152.4418  141.7140  161.8746 H   0  0  0  0  0  0  0  0  0  0  0  0
  151.3478  142.0991  160.5473 H   0  0  0  0  0  0  0  0  0  0  0  0
  154.3288  142.7410  160.6518 H   0  0  0  0  0  0  0  0  0  0  0  0
  154.1289  144.0000  158.7291 H   0  0  0  0  0  0  0  0  0  0  0  0
  152.9845  142.8889  158.0041 H   0  0  0  0  0  0  0  0  0  0  0  0
  152.8299  145.3958  160.9446 H   0  0  0  0  0  0  0  0  0  0  0  0
  150.3847  146.7023  160.6402 H   0  0  0  0  0  0  0  0  0  0  0  0
  150.8153  143.8248  157.5612 H   0  0  0  0  0  0  0  0  0  0  0  0
  154.5771  140.6596  159.7289 H   0  0  0  0  0  0  0  0  0  0  0  0
  156.7645  136.3694  157.7570 H   0  0  0  0  0  0  0  0  0  0  0  0
  156.6995  137.5398  159.0653 H   0  0  0  0  0  0  0  0  0  0  0  0
  156.8963  138.0861  157.4003 H   0  0  0  0  0  0  0  0  0  0  0  0
  152.5030  137.1646  156.2761 H   0  0  0  0  0  0  0  0  0  0  0  0
  152.0772  135.8966  157.4050 H   0  0  0  0  0  0  0  0  0  0  0  0
  151.9876  137.4144  159.2661 H   0  0  0  0  0  0  0  0  0  0  0  0
  151.2435  138.2868  157.9481 H   0  0  0  0  0  0  0  0  0  0  0  0
  149.3413  145.6363  158.5938 H   0  0  0  0  0  0  0  0  0  0  0  0
  1  2  1  0  0  0  0
  1 20  1  0  0  0  0
  1 21  1  0  0  0  0
  1 22  1  0  0  0  0
  2  3  1  0  0  0  0
  2  9  1  0  0  0  0
  2 23  1  0  0  0  0
  3  4  1  0  0  0  0
  3 24  1  0  0  0  0
  3 25  1  0  0  0  0
  4  8  1  0  0  0  0
  4  5  1  0  0  0  0
  5  6  2  0  0  0  0
  5 26  1  0  0  0  0
  6  7  1  0  0  0  0
  6 27  1  0  0  0  0
  7  8  2  0  0  0  0
  7 37  1  0  0  0  0
  8 28  1  0  0  0  0
  9 10  1  0  0  0  0
  9 29  1  0  0  0  0
 10 11  2  0  0  0  0
 10 12  1  0  0  0  0
 12 19  1  0  0  0  0
 12 13  2  0  0  0  0
 13 14  1  0  0  0  0
 14 15  1  0  0  0  0
 14 16  1  0  0  0  0
 15 30  1  0  0  0  0
 15 31  1  0  0  0  0
 15 32  1  0  0  0  0
 16 17  2  0  0  0  0
 16 18  1  0  0  0  0
 18 19  1  0  0  0  0
 18 33  1  0  0  0  0
 18 34  1  0  0  0  0
 19 35  1  0  0  0  0
 19 36  1  0  0  0  0
M  CHG  1   7   1
M  END
> <s_m_source_file>
AV-unprocessed.smi

> <i_m_source_file_index>
561

> <i_lp_mmshare_version>
43012

> <i_f3d_flags>
0

> <s_epik_input>
W2NIXTFuW2NIXVtjSF1uMVtDSDJdW0NAQEhdKFtDSDNdKVtOSF1DKD1PKUMyPU5OKFtDSDNdKUMoPU8pW0NIMl1bQ0gyXTI=

> <s_epik_cmdline>
J2VwaWtfcHl0aG9uJywgJy1waCcsICc3LjAnLCAnLXRuJywgJzgnLCAnLW1hJywgJzIwMCcsICctbWV0YWxfYmluZGluZycsICctaW1hZScsICc8aW5maWxlLm1hZT4nLCAnLW9tYWUnLCAnPG91dGZpbGUubWFlPic=

> <r_lp_tautomer_probability>
1

> <r_epik_Ionization_Penalty>
0.358595

> <r_epik_Ionization_Penalty_Charging>
0

> <r_epik_Ionization_Penalty_Neutral>
0.358595

> <r_epik_State_Penalty>
0.355181

> <r_epik_Charging_Adjusted_Penalty>
0.355181

> <i_epik_Tot_Q>
1

> <i_epik_Tot_abs_Q>
1

> <r_epik_Metal_State_Penalty>
0.718565

> <b_epik_Metal_Only>
0

> <s_epik_Chemistry_Notes>
This compound has an imine and may undergo hydrolysis.

> <s_lp_Force_Field>
OPLS_2005

> <r_lp_Energy>
20.1569

> <b_lp_Chiralities_Consistent>
1

> <s_lp_Variant>
AV-unprocessed.smi:561-1

> <Gold.Version>
5.8.1

> <Gold.Id.Protein>
6NUR|6NUR_protein|mol2

> <Gold.PLP.Fitness>
42.2319

> <Gold.PLP.PLP>
-31.4540

> <Gold.PLP.part.hbond>
-3.0000

> <Gold.PLP.part.metal>
0.0000

> <Gold.PLP.part.buried>
-1.6418

> <Gold.PLP.part.nonpolar>
-27.4050

> <Gold.PLP.part.repulsive>
0.3203

> <Gold.PLP.ligand.clash>
0.0000

> <Gold.PLP.ligand.torsion>
0.9452

> <Gold.PLP.Chemscore.Hbond>
4.0000

> <Gold.PLP.Chemscore.CHOScore>
0.2057

> <Gold.PLP.Chemscore.Metal>
0.0000

> <Gold.Chemscore.Hbonds>
donor molecule, donor type, donor heavy atom, donor atom, acceptor molecule, acceptor atom, score
      L1  H     7    37       P1  8029  2.00
      P1  H  7997  8008       L1    13  1.00
      P1  H 10752 10765       L1    17  1.00
      L1  C     8    28       P1  8028  0.19

> <Gold.PLP.Chemscore.Internal.Correction>
0.0512

> <Gold.Rescore>
     Score         DG    S(hbond)    S(metal)    S(lipo)     H(rot)  DE(clash)    DE(int)     intcor
     12.25     -16.61       2.09        0.00      73.92       1.76       1.23       3.14       ----

> <Gold.Chemscore.Fitness>
12.2475

> <Gold.Chemscore.DG>
-16.6148

> <Gold.Chemscore.ZeroCoef>
-5.4800

> <Gold.Chemscore.Hbond>
2.0925

> <Gold.Chemscore.Metal>
0.0000

> <Gold.Chemscore.Lipo>
73.9201

> <Gold.Chemscore.Internal_Hbond>
0.0000

> <Gold.Chemscore.DEClash>
1.2313

> <Gold.Chemscore.DEInternal>
3.1360

> <Gold.Chemscore.Rot>
1.7589

> <Gold.Chemscore.Internal.Correction>
   9.000000E+99

> <Gold.Chemscore.Hbonds>
donor molecule, donor type, donor heavy atom, donor atom, acceptor molecule, acceptor atom, score
      L1  H     7    37       P1  8029  0.95
      P1  H  7997  8008       L1    13  0.35
      P1  H 10752 10765       L1    17  0.35

> <Gold.Chemscore.Hbond.Weighted>
-6.9890

> <Gold.Chemscore.Metal.Weighted>
-0.0000

> <Gold.Chemscore.Lipo.Weighted>
-8.6486

> <Gold.Chemscore.Internal_Hbond.Weighted>
0.0000

> <Gold.Chemscore.DEClash.Weighted>
1.2313

> <Gold.Chemscore.DEInternal.Weighted>
3.1360

> <Gold.Chemscore.Rot.Weighted>
4.5028

> <Gold.Chemscore.Internal.Correction.Weighted>
   9.000000E+99

> <Gold.Protein.RotatedTorsions>
[ 6907 6896 6895 6894 ] final   31.64 input  -60.11 | X-H torsion
[ 7974 7965 7964 7962 ] final   52.37 input  175.53 | X-H torsion
[ 8008 7997 7996 7995 ] final -108.76 input   59.86 | X-H torsion
[ 10167 10162 10161 10158 ] final   27.98 input  -65.29 | X-H torsion
[ 10718 10713 10712 10709 ] final   81.59 input   66.30 | X-H torsion
[ 10763 10752 10751 10750 ] final  -91.74 input  -60.55 | X-H torsion
[ 11005 11000 10999 10996 ] final  120.18 input  -57.11 | X-H torsion

> <Gold.Protein.ActiveResidues>
 VAL166  LYS551  ARG553  GLY616  TRP617  ASP618  TYR619  PRO620  LYS621  CYS622 
 ASP623  PHE694  ASN695  SER759  ASP760  ASP761  ALA762  ILE779  LEU786  VAL792 
 PHE793  MET794  SER795  GLU796  ALA797  LYS798  CYS799  TRP800  GLU811  SER814 

> <Gold.Protein.RotatedAtoms>
  152.0631  134.9581  160.0574 H   0  0  0  0  0  0  0  0  0  0  0  0  # atno 6907 bound_to 6896
  152.0937  133.4209  159.4563 H   0  0  0  0  0  0  0  0  0  0  0  0  # atno 6908 bound_to 6896
  150.6837  134.2761  159.4651 H   0  0  0  0  0  0  0  0  0  0  0  0  # atno 6909 bound_to 6896
  145.9820  139.4251  143.0126 H   0  0  0  0  0  0  0  0  0  0  0  0  # atno 7974 bound_to 7965
  154.9491  140.0401  157.2135 H   0  0  0  0  0  0  0  0  0  0  0  0  # atno 8008 bound_to 7997
  154.7995  140.2849  155.5910 H   0  0  0  0  0  0  0  0  0  0  0  0  # atno 8009 bound_to 7997
  156.2960  140.2558  156.2860 H   0  0  0  0  0  0  0  0  0  0  0  0  # atno 8010 bound_to 7997
  140.4892  144.0494  150.6291 H   0  0  0  0  0  0  0  0  0  0  0  0  # atno 10167 bound_to 10162
  157.6836  131.0010  150.2248 H   0  0  0  0  0  0  0  0  0  0  0  0  # atno 10718 bound_to 10713
  154.6791  135.5257  153.8239 H   0  0  0  0  0  0  0  0  0  0  0  0  # atno 10763 bound_to 10752
  153.0552  135.6548  154.0604 H   0  0  0  0  0  0  0  0  0  0  0  0  # atno 10764 bound_to 10752
  154.0493  135.2970  155.3323 H   0  0  0  0  0  0  0  0  0  0  0  0  # atno 10765 bound_to 10752
  139.9175  134.9633  156.7768 H   0  0  0  0  0  0  0  0  0  0  0  0  # atno 11005 bound_to 11000
  145.7756  140.9878  143.1126 LP  0  0  0  0  0  0  0  0  0  0  0  0  # atno 17320 bound_to 7965
  144.6864  139.9501  143.7477 LP  0  0  0  0  0  0  0  0  0  0  0  0  # atno 17321 bound_to 7965
  140.3758  143.2829  152.0226 LP  0  0  0  0  0  0  0  0  0  0  0  0  # atno 17342 bound_to 10162
  139.4848  144.6194  151.7284 LP  0  0  0  0  0  0  0  0  0  0  0  0  # atno 17343 bound_to 10162
  156.2893  130.3743  149.7858 LP  0  0  0  0  0  0  0  0  0  0  0  0  # atno 17370 bound_to 10713
  156.5522  130.8347  151.3303 LP  0  0  0  0  0  0  0  0  0  0  0  0  # atno 17371 bound_to 10713
  140.6577  133.9674  155.7788 LP  0  0  0  0  0  0  0  0  0  0  0  0  # atno 17394 bound_to 11000
  141.0665  134.0269  157.3586 LP  0  0  0  0  0  0  0  0  0  0  0  0  # atno 17395 bound_to 11000

$$$$
