AV-unprocessed.smi:1978|AV-procd|sdf|7997|dock1
  -GOLD-   2272010183D 1   1.00000     0.00000
 Structure written by MMmdl.
 45 46  0  0  0  0  0  0  0  0  2 V2000
  146.4927  142.1223  154.8598 C   0  0  0  0  0  0  0  0  0  0  0  0
  146.5133  140.6321  154.8728 C   0  0  0  0  0  0  0  0  0  0  0  0
  147.1198  139.7031  154.0745 C   0  0  0  0  0  0  0  0  0  0  0  0
  146.7170  138.4711  154.6550 C   0  0  0  0  0  0  0  0  0  0  0  0
  147.1416  137.2339  154.1062 N   0  0  0  0  0  0  0  0  0  0  0  0
  146.7662  136.0004  154.4846 C   0  0  0  0  0  0  0  0  0  0  0  0
  145.9923  135.7444  155.4075 O   0  0  0  0  0  0  0  0  0  0  0  0
  147.3397  135.0577  153.7224 N   0  0  0  0  0  0  0  0  0  0  0  0
  147.1224  133.6225  153.8743 C   0  0  0  0  0  0  0  0  0  0  0  0
  148.0761  132.7815  152.9866 C   0  0  1  0  0  0  0  0  0  0  0  0
  149.4113  132.4632  153.6907 C   0  0  0  0  0  0  0  0  0  0  0  0
  147.4301  131.5437  152.4419 N   0  3  1  0  0  0  0  0  0  0  0  0
  147.5055  130.3691  153.3600 C   0  0  0  0  0  0  0  0  0  0  0  0
  147.0846  129.0746  152.6494 C   0  0  0  0  0  0  0  0  0  0  0  0
  145.6691  129.2053  152.0828 C   0  0  0  0  0  0  0  0  0  0  0  0
  145.5911  130.4322  151.1686 C   0  0  0  0  0  0  0  0  0  0  0  0
  146.0434  131.7190  151.8930 C   0  0  2  0  0  0  0  0  0  0  0  0
  145.9010  132.9153  150.9296 C   0  0  0  0  0  0  0  0  0  0  0  0
  145.9340  138.6329  155.7107 N   0  0  0  0  0  0  0  0  0  0  0  0
  145.7994  140.0187  155.8556 O   0  0  0  0  0  0  0  0  0  0  0  0
  147.2924  142.5173  154.2330 H   0  0  0  0  0  0  0  0  0  0  0  0
  146.6249  142.5209  155.8657 H   0  0  0  0  0  0  0  0  0  0  0  0
  145.5437  142.4917  154.4711 H   0  0  0  0  0  0  0  0  0  0  0  0
  147.7492  139.8804  153.2152 H   0  0  0  0  0  0  0  0  0  0  0  0
  147.7920  137.2969  153.3371 H   0  0  0  0  0  0  0  0  0  0  0  0
  147.9673  135.3512  152.9879 H   0  0  0  0  0  0  0  0  0  0  0  0
  147.2709  133.3838  154.9273 H   0  0  0  0  0  0  0  0  0  0  0  0
  146.0780  133.4001  153.6532 H   0  0  0  0  0  0  0  0  0  0  0  0
  148.3753  133.3905  152.1362 H   0  0  0  0  0  0  0  0  0  0  0  0
  149.9913  133.3712  153.8583 H   0  0  0  0  0  0  0  0  0  0  0  0
  150.0276  131.7981  153.0848 H   0  0  0  0  0  0  0  0  0  0  0  0
  149.2655  131.9969  154.6646 H   0  0  0  0  0  0  0  0  0  0  0  0
  148.5169  130.2297  153.7371 H   0  0  0  0  0  0  0  0  0  0  0  0
  146.8655  130.5333  154.2277 H   0  0  0  0  0  0  0  0  0  0  0  0
  147.7866  128.8506  151.8451 H   0  0  0  0  0  0  0  0  0  0  0  0
  147.1301  128.2355  153.3443 H   0  0  0  0  0  0  0  0  0  0  0  0
  145.3985  128.3046  151.5307 H   0  0  0  0  0  0  0  0  0  0  0  0
  144.9500  129.3025  152.8973 H   0  0  0  0  0  0  0  0  0  0  0  0
  146.2120  130.2680  150.2866 H   0  0  0  0  0  0  0  0  0  0  0  0
  144.5685  130.5446  150.8066 H   0  0  0  0  0  0  0  0  0  0  0  0
  145.3625  131.8840  152.7291 H   0  0  0  0  0  0  0  0  0  0  0  0
  144.9185  132.9187  150.4565 H   0  0  0  0  0  0  0  0  0  0  0  0
  146.6475  132.8811  150.1354 H   0  0  0  0  0  0  0  0  0  0  0  0
  145.9904  133.8714  151.4448 H   0  0  0  0  0  0  0  0  0  0  0  0
  147.9953  131.2957  151.6425 H   0  0  0  0  0  0  0  0  0  0  0  0
  1  2  1  0  0  0  0
  1 21  1  0  0  0  0
  1 22  1  0  0  0  0
  1 23  1  0  0  0  0
  2 20  1  0  0  0  0
  2  3  2  0  0  0  0
  3  4  1  0  0  0  0
  3 24  1  0  0  0  0
  4  5  1  0  0  0  0
  4 19  2  0  0  0  0
  5  6  1  0  0  0  0
  5 25  1  0  0  0  0
  6  7  2  0  0  0  0
  6  8  1  0  0  0  0
  8  9  1  0  0  0  0
  8 26  1  0  0  0  0
  9 10  1  0  0  0  0
  9 27  1  0  0  0  0
  9 28  1  0  0  0  0
 10 11  1  0  0  0  0
 10 12  1  0  0  0  0
 10 29  1  0  0  0  0
 11 30  1  0  0  0  0
 11 31  1  0  0  0  0
 11 32  1  0  0  0  0
 12 17  1  0  0  0  0
 12 13  1  0  0  0  0
 12 45  1  0  0  0  0
 13 14  1  0  0  0  0
 13 33  1  0  0  0  0
 13 34  1  0  0  0  0
 14 15  1  0  0  0  0
 14 35  1  0  0  0  0
 14 36  1  0  0  0  0
 15 16  1  0  0  0  0
 15 37  1  0  0  0  0
 15 38  1  0  0  0  0
 16 17  1  0  0  0  0
 16 39  1  0  0  0  0
 16 40  1  0  0  0  0
 17 18  1  0  0  0  0
 17 41  1  0  0  0  0
 18 42  1  0  0  0  0
 18 43  1  0  0  0  0
 18 44  1  0  0  0  0
 19 20  1  0  0  0  0
M  CHG  1  12   1
M  END
> <s_m_source_file>
AV-unprocessed.smi

> <i_m_source_file_index>
1978

> <i_lp_mmshare_version>
43012

> <i_f3d_flags>
0

> <s_epik_input>
W0NIM11jMVtjSF1jKG5vMSlbTkhdQyg9TylbTkhdW0NIMl1bQ0BIXShbQ0gzXSlOMltDSDJdW0NIMl1bQ0gyXVtDSDJdW0NASF0yW0NIM10=

> <s_epik_cmdline>
J2VwaWtfcHl0aG9uJywgJy1waCcsICc3LjAnLCAnLXRuJywgJzgnLCAnLW1hJywgJzIwMCcsICctbWV0YWxfYmluZGluZycsICctaW1hZScsICc8aW5maWxlLm1hZT4nLCAnLW9tYWUnLCAnPG91dGZpbGUubWFlPic=

> <r_epik_Ionization_Penalty>
0.00265971

> <r_epik_Ionization_Penalty_Charging>
0.00262393

> <r_epik_Ionization_Penalty_Neutral>
3.57846e-05

> <r_epik_State_Penalty>
0.00182566

> <r_epik_Charging_Adjusted_Penalty>
0.00444959

> <i_epik_Tot_Q>
1

> <i_epik_Tot_abs_Q>
1

> <r_epik_Metal_State_Penalty>
0.0216344

> <b_epik_Metal_Only>
0

> <s_lp_Force_Field>
OPLS_2005

> <r_lp_Energy>
19.4961

> <b_lp_Chiralities_Consistent>
1

> <s_lp_Variant>
AV-unprocessed.smi:1978-6

> <Gold.Version>
5.8.1

> <Gold.Id.Protein>
6NUR|6NUR_protein|mol2

> <Gold.PLP.Fitness>
39.5214

> <Gold.PLP.PLP>
-32.1467

> <Gold.PLP.part.hbond>
-2.8977

> <Gold.PLP.part.metal>
0.0000

> <Gold.PLP.part.buried>
-4.2297

> <Gold.PLP.part.nonpolar>
-25.0763

> <Gold.PLP.part.repulsive>
0.1820

> <Gold.PLP.ligand.clash>
0.0000

> <Gold.PLP.ligand.torsion>
0.7623

> <Gold.PLP.Chemscore.Hbond>
2.9120

> <Gold.PLP.Chemscore.CHOScore>
0.0000

> <Gold.PLP.Chemscore.Metal>
0.0000

> <Gold.Chemscore.Hbonds>
donor molecule, donor type, donor heavy atom, donor atom, acceptor molecule, acceptor atom, score
      L1  H     5    25       P1  7948  0.64
      L1  H     8    26       P1  7948  1.00
      L1  H    12    45       P1 10747  1.00

> <Gold.PLP.Chemscore.Internal.Correction>
0.1633

> <Gold.Rescore>
     Score         DG    S(hbond)    S(metal)    S(lipo)     H(rot)  DE(clash)    DE(int)     intcor
     18.92     -20.99       2.87        0.00      84.40       1.55       0.01       2.05       ----

> <Gold.Chemscore.Fitness>
18.9223

> <Gold.Chemscore.DG>
-20.9865

> <Gold.Chemscore.ZeroCoef>
-5.4800

> <Gold.Chemscore.Hbond>
2.8723

> <Gold.Chemscore.Metal>
0.0000

> <Gold.Chemscore.Lipo>
84.3956

> <Gold.Chemscore.Internal_Hbond>
0.0000

> <Gold.Chemscore.DEClash>
0.0135

> <Gold.Chemscore.DEInternal>
2.0506

> <Gold.Chemscore.Rot>
1.5474

> <Gold.Chemscore.Internal.Correction>
   9.000000E+99

> <Gold.Chemscore.Hbonds>
donor molecule, donor type, donor heavy atom, donor atom, acceptor molecule, acceptor atom, score
      L1  H     5    25       P1  7948  0.63
      L1  H     8    26       P1  7948  1.00
      L1  H    12    45       P1 10747  1.00

> <Gold.Chemscore.Hbond.Weighted>
-9.5934

> <Gold.Chemscore.Metal.Weighted>
-0.0000

> <Gold.Chemscore.Lipo.Weighted>
-9.8743

> <Gold.Chemscore.Internal_Hbond.Weighted>
0.0000

> <Gold.Chemscore.DEClash.Weighted>
0.0135

> <Gold.Chemscore.DEInternal.Weighted>
2.0506

> <Gold.Chemscore.Rot.Weighted>
3.9612

> <Gold.Chemscore.Internal.Correction.Weighted>
   9.000000E+99

> <Gold.Protein.RotatedTorsions>
[ 6907 6896 6895 6894 ] final   26.45 input  -60.11 | X-H torsion
[ 7974 7965 7964 7962 ] final  -58.53 input  175.53 | X-H torsion
[ 8008 7997 7996 7995 ] final    3.20 input   59.86 | X-H torsion
[ 10167 10162 10161 10158 ] final  107.86 input  -65.29 | X-H torsion
[ 10718 10713 10712 10709 ] final   89.99 input   66.30 | X-H torsion
[ 10763 10752 10751 10750 ] final  -81.48 input  -60.55 | X-H torsion
[ 11005 11000 10999 10996 ] final -107.36 input  -57.11 | X-H torsion

> <Gold.Protein.ActiveResidues>
 VAL166  LYS551  ARG553  GLY616  TRP617  ASP618  TYR619  PRO620  LYS621  CYS622 
 ASP623  PHE694  ASN695  SER759  ASP760  ASP761  ALA762  ILE779  LEU786  VAL792 
 PHE793  MET794  SER795  GLU796  ALA797  LYS798  CYS799  TRP800  GLU811  SER814 

> <Gold.Protein.RotatedAtoms>
  151.9876  134.9996  160.0559 H   0  0  0  0  0  0  0  0  0  0  0  0  # atno 6907 bound_to 6896
  152.1638  133.4594  159.4882 H   0  0  0  0  0  0  0  0  0  0  0  0  # atno 6908 bound_to 6896
  150.6891  134.1956  159.4345 H   0  0  0  0  0  0  0  0  0  0  0  0  # atno 6909 bound_to 6896
  145.8382  140.8435  143.0048 H   0  0  0  0  0  0  0  0  0  0  0  0  # atno 7974 bound_to 7965
  154.7008  140.2672  155.6722 H   0  0  0  0  0  0  0  0  0  0  0  0  # atno 8008 bound_to 7997
  156.2764  140.2772  156.1541 H   0  0  0  0  0  0  0  0  0  0  0  0  # atno 8009 bound_to 7997
  155.0768  140.0372  157.2616 H   0  0  0  0  0  0  0  0  0  0  0  0  # atno 8010 bound_to 7997
  139.6893  144.7110  151.1377 H   0  0  0  0  0  0  0  0  0  0  0  0  # atno 10167 bound_to 10162
  157.6957  131.0354  150.3509 H   0  0  0  0  0  0  0  0  0  0  0  0  # atno 10718 bound_to 10713
  154.5641  135.5624  153.7034 H   0  0  0  0  0  0  0  0  0  0  0  0  # atno 10763 bound_to 10752
  153.0027  135.6281  154.2204 H   0  0  0  0  0  0  0  0  0  0  0  0  # atno 10764 bound_to 10752
  154.2143  135.2872  155.2927 H   0  0  0  0  0  0  0  0  0  0  0  0  # atno 10765 bound_to 10752
  141.0958  133.8974  157.1967 H   0  0  0  0  0  0  0  0  0  0  0  0  # atno 11005 bound_to 11000
  144.6735  140.0773  143.7470 LP  0  0  0  0  0  0  0  0  0  0  0  0  # atno 17320 bound_to 7965
  145.9495  139.2724  143.1221 LP  0  0  0  0  0  0  0  0  0  0  0  0  # atno 17321 bound_to 7965
  140.7677  143.5583  150.9127 LP  0  0  0  0  0  0  0  0  0  0  0  0  # atno 17342 bound_to 10162
  139.9260  143.6550  152.3087 LP  0  0  0  0  0  0  0  0  0  0  0  0  # atno 17343 bound_to 10162
  156.3958  130.3906  149.6996 LP  0  0  0  0  0  0  0  0  0  0  0  0  # atno 17370 bound_to 10713
  156.4330  130.7824  151.2844 LP  0  0  0  0  0  0  0  0  0  0  0  0  # atno 17371 bound_to 10713
  139.9794  135.0103  156.9712 LP  0  0  0  0  0  0  0  0  0  0  0  0  # atno 17394 bound_to 11000
  140.5144  134.0970  155.7277 LP  0  0  0  0  0  0  0  0  0  0  0  0  # atno 17395 bound_to 11000

$$$$
