AV-unprocessed.smi:2193|AV-procd|sdf|8900|dock4
  -GOLD-   2272012113D 1   1.00000     0.00000
 Structure written by MMmdl.
 41 43  0  0  0  0  0  0  0  0  2 V2000
  151.9449  137.2397  153.9424 O   0  0  0  0  0  0  0  0  0  0  0  0
  151.6641  138.3092  154.8173 C   0  0  0  0  0  0  0  0  0  0  0  0
  150.3941  139.0101  154.4649 C   0  0  0  0  0  0  0  0  0  0  0  0
  149.4886  138.5997  153.5330 N   0  3  0  0  0  0  0  0  0  0  0  0
  148.4326  139.5095  153.4677 C   0  0  0  0  0  0  0  0  0  0  0  0
  147.2867  139.5187  152.6784 C   0  0  0  0  0  0  0  0  0  0  0  0
  146.4012  140.6010  152.8612 C   0  0  0  0  0  0  0  0  0  0  0  0
  146.6702  141.6193  153.7987 C   0  0  0  0  0  0  0  0  0  0  0  0
  147.8360  141.5998  154.5924 C   0  0  0  0  0  0  0  0  0  0  0  0
  148.7073  140.5265  154.4055 C   0  0  0  0  0  0  0  0  0  0  0  0
  149.9278  140.1766  154.9963 N   0  0  0  0  0  0  0  0  0  0  0  0
  150.5174  141.0440  156.0287 C   0  0  0  0  0  0  0  0  0  0  0  0
  150.8998  140.2747  157.3089 C   0  0  2  0  0  0  0  0  0  0  0  0
  149.8159  140.2751  158.2159 O   0  0  0  0  0  0  0  0  0  0  0  0
  152.1262  140.8762  158.0099 C   0  0  0  0  0  0  0  0  0  0  0  0
  151.7942  142.1773  158.4768 O   0  0  0  0  0  0  0  0  0  0  0  0
  152.0677  142.4898  159.7909 C   0  0  0  0  0  0  0  0  0  0  0  0
  151.4558  143.6483  160.3131 C   0  0  0  0  0  0  0  0  0  0  0  0
  151.6785  144.0434  161.6463 C   0  0  0  0  0  0  0  0  0  0  0  0
  152.5209  143.2790  162.4745 C   0  0  0  0  0  0  0  0  0  0  0  0
  152.7366  143.6564  163.7568 F   0  0  0  0  0  0  0  0  0  0  0  0
  153.1390  142.1212  161.9666 C   0  0  0  0  0  0  0  0  0  0  0  0
  152.9156  141.7262  160.6330 C   0  0  0  0  0  0  0  0  0  0  0  0
  151.2739  137.2103  153.2772 H   0  0  0  0  0  0  0  0  0  0  0  0
  151.5972  137.9279  155.8365 H   0  0  0  0  0  0  0  0  0  0  0  0
  152.4928  139.0168  154.7942 H   0  0  0  0  0  0  0  0  0  0  0  0
  147.0781  138.7394  151.9599 H   0  0  0  0  0  0  0  0  0  0  0  0
  145.4974  140.6510  152.2712 H   0  0  0  0  0  0  0  0  0  0  0  0
  145.9677  142.4324  153.9122 H   0  0  0  0  0  0  0  0  0  0  0  0
  148.0278  142.3839  155.3097 H   0  0  0  0  0  0  0  0  0  0  0  0
  151.4043  141.5033  155.5908 H   0  0  0  0  0  0  0  0  0  0  0  0
  149.8339  141.8644  156.2479 H   0  0  0  0  0  0  0  0  0  0  0  0
  151.1128  139.2342  157.0611 H   0  0  0  0  0  0  0  0  0  0  0  0
  149.9317  139.5579  158.8202 H   0  0  0  0  0  0  0  0  0  0  0  0
  152.4400  140.2354  158.8359 H   0  0  0  0  0  0  0  0  0  0  0  0
  152.9539  140.9466  157.3018 H   0  0  0  0  0  0  0  0  0  0  0  0
  150.8075  144.2411  159.6847 H   0  0  0  0  0  0  0  0  0  0  0  0
  151.2028  144.9327  162.0327 H   0  0  0  0  0  0  0  0  0  0  0  0
  153.7866  141.5341  162.6010 H   0  0  0  0  0  0  0  0  0  0  0  0
  153.4080  140.8330  160.2800 H   0  0  0  0  0  0  0  0  0  0  0  0
  149.5922  137.7591  152.9791 H   0  0  0  0  0  0  0  0  0  0  0  0
  1  2  1  0  0  0  0
  1 24  1  0  0  0  0
  2  3  1  0  0  0  0
  2 25  1  0  0  0  0
  2 26  1  0  0  0  0
  3 11  1  0  0  0  0
  3  4  2  0  0  0  0
  4  5  1  0  0  0  0
  4 41  1  0  0  0  0
  5 10  2  0  0  0  0
  5  6  1  0  0  0  0
  6  7  2  0  0  0  0
  6 27  1  0  0  0  0
  7  8  1  0  0  0  0
  7 28  1  0  0  0  0
  8  9  2  0  0  0  0
  8 29  1  0  0  0  0
  9 10  1  0  0  0  0
  9 30  1  0  0  0  0
 10 11  1  0  0  0  0
 11 12  1  0  0  0  0
 12 13  1  0  0  0  0
 12 31  1  0  0  0  0
 12 32  1  0  0  0  0
 13 14  1  0  0  0  0
 13 15  1  0  0  0  0
 13 33  1  0  0  0  0
 14 34  1  0  0  0  0
 15 16  1  0  0  0  0
 15 35  1  0  0  0  0
 15 36  1  0  0  0  0
 16 17  1  0  0  0  0
 17 23  1  0  0  0  0
 17 18  2  0  0  0  0
 18 19  1  0  0  0  0
 18 37  1  0  0  0  0
 19 20  2  0  0  0  0
 19 38  1  0  0  0  0
 20 21  1  0  0  0  0
 20 22  1  0  0  0  0
 22 23  2  0  0  0  0
 22 39  1  0  0  0  0
 23 40  1  0  0  0  0
M  CHG  1   4   1
M  END
> <s_m_source_file>
AV-unprocessed.smi

> <i_m_source_file_index>
2193

> <i_lp_mmshare_version>
43012

> <i_f3d_flags>
0

> <s_epik_input>
W2NIXTFbY0hdW2NIXVtjSF1jKGMxMiluKGMobjIpW0NIMl1bT0hdKVtDSDJdW0NASF0oW09IXSlbQ0gyXU9jM1tjSF1bY0hdYyhGKVtjSF1bY0hdMw==

> <s_epik_cmdline>
J2VwaWtfcHl0aG9uJywgJy1waCcsICc3LjAnLCAnLXRuJywgJzgnLCAnLW1hJywgJzIwMCcsICctbWV0YWxfYmluZGluZycsICctaW1hZScsICc8aW5maWxlLm1hZT4nLCAnLW9tYWUnLCAnPG91dGZpbGUubWFlPic=

> <r_lp_tautomer_probability>
1

> <r_epik_Ionization_Penalty>
1.43752

> <r_epik_Ionization_Penalty_Charging>
1.43666

> <r_epik_Ionization_Penalty_Neutral>
0.000858184

> <r_epik_State_Penalty>
1.52171

> <r_epik_Charging_Adjusted_Penalty>
2.95837

> <i_epik_Tot_Q>
1

> <i_epik_Tot_abs_Q>
1

> <r_epik_Metal_State_Penalty>
5.56725

> <b_epik_Metal_Only>
0

> <s_lp_Force_Field>
OPLS_2005

> <r_lp_Energy>
17.6251

> <b_lp_Chiralities_Consistent>
1

> <s_lp_Variant>
AV-unprocessed.smi:2193-3

> <Gold.Version>
5.8.1

> <Gold.Id.Protein>
6NUR|6NUR_protein|mol2

> <Gold.PLP.Fitness>
64.8465

> <Gold.PLP.PLP>
-56.3697

> <Gold.PLP.part.hbond>
-4.0000

> <Gold.PLP.part.metal>
0.0000

> <Gold.PLP.part.buried>
3.2639

> <Gold.PLP.part.nonpolar>
-54.2961

> <Gold.PLP.part.repulsive>
0.0838

> <Gold.PLP.ligand.clash>
0.0000

> <Gold.PLP.ligand.torsion>
1.0808

> <Gold.PLP.Chemscore.Hbond>
3.4900

> <Gold.PLP.Chemscore.CHOScore>
0.0000

> <Gold.PLP.Chemscore.Metal>
0.0000

> <Gold.Chemscore.Hbonds>
donor molecule, donor type, donor heavy atom, donor atom, acceptor molecule, acceptor atom, score
      L1  H     1    24       P1  7949  0.39
      L1  H     4    41       P1  7948  2.00
      P1  H 10752 10765       L1     1  0.86

> <Gold.PLP.Chemscore.Internal.Correction>
0.1684

> <Gold.Rescore>
     Score         DG    S(hbond)    S(metal)    S(lipo)     H(rot)  DE(clash)    DE(int)     intcor
     16.99     -18.62       2.02        0.00     127.10       3.31       0.85       0.77       ----

> <Gold.Chemscore.Fitness>
16.9917

> <Gold.Chemscore.DG>
-18.6178

> <Gold.Chemscore.ZeroCoef>
-5.4800

> <Gold.Chemscore.Hbond>
2.0208

> <Gold.Chemscore.Metal>
0.0000

> <Gold.Chemscore.Lipo>
127.1010

> <Gold.Chemscore.Internal_Hbond>
0.0000

> <Gold.Chemscore.DEClash>
0.8521

> <Gold.Chemscore.DEInternal>
0.7741

> <Gold.Chemscore.Rot>
3.3134

> <Gold.Chemscore.Internal.Correction>
   9.000000E+99

> <Gold.Chemscore.Hbonds>
donor molecule, donor type, donor heavy atom, donor atom, acceptor molecule, acceptor atom, score
      L1  H     1    24       P1  7949  0.25
      L1  H     4    41       P1  7948  0.73
      P1  H 10752 10765       L1     1  0.69

> <Gold.Chemscore.Hbond.Weighted>
-6.7494

> <Gold.Chemscore.Metal.Weighted>
-0.0000

> <Gold.Chemscore.Lipo.Weighted>
-14.8708

> <Gold.Chemscore.Internal_Hbond.Weighted>
0.0000

> <Gold.Chemscore.DEClash.Weighted>
0.8521

> <Gold.Chemscore.DEInternal.Weighted>
0.7741

> <Gold.Chemscore.Rot.Weighted>
8.4823

> <Gold.Chemscore.Internal.Correction.Weighted>
   9.000000E+99

> <Gold.Protein.RotatedTorsions>
[ 6907 6896 6895 6894 ] final  114.66 input  -60.11 | X-H torsion
[ 7974 7965 7964 7962 ] final  -57.35 input  175.53 | X-H torsion
[ 8008 7997 7996 7995 ] final  -59.13 input   59.86 | X-H torsion
[ 10167 10162 10161 10158 ] final  -62.51 input  -65.29 | X-H torsion
[ 10718 10713 10712 10709 ] final  172.85 input   66.30 | X-H torsion
[ 10763 10752 10751 10750 ] final  130.65 input  -60.55 | X-H torsion
[ 11005 11000 10999 10996 ] final -135.28 input  -57.11 | X-H torsion

> <Gold.Protein.ActiveResidues>
 VAL166  LYS551  ARG553  GLY616  TRP617  ASP618  TYR619  PRO620  LYS621  CYS622 
 ASP623  PHE694  ASN695  SER759  ASP760  ASP761  ALA762  ILE779  LEU786  VAL792 
 PHE793  MET794  SER795  GLU796  ALA797  LYS798  CYS799  TRP800  GLU811  SER814 

> <Gold.Protein.RotatedAtoms>
  152.4789  133.8205  159.7050 H   0  0  0  0  0  0  0  0  0  0  0  0  # atno 6907 bound_to 6896
  150.8825  133.7343  159.2934 H   0  0  0  0  0  0  0  0  0  0  0  0  # atno 6908 bound_to 6896
  151.4843  135.1057  159.9838 H   0  0  0  0  0  0  0  0  0  0  0  0  # atno 6909 bound_to 6896
  145.8521  140.8345  142.9980 H   0  0  0  0  0  0  0  0  0  0  0  0  # atno 7974 bound_to 7965
  154.4339  140.1068  156.6067 H   0  0  0  0  0  0  0  0  0  0  0  0  # atno 8008 bound_to 7997
  155.5853  140.3491  155.4533 H   0  0  0  0  0  0  0  0  0  0  0  0  # atno 8009 bound_to 7997
  156.0287  140.1256  157.0270 H   0  0  0  0  0  0  0  0  0  0  0  0  # atno 8010 bound_to 7997
  140.5934  143.2346  151.6089 H   0  0  0  0  0  0  0  0  0  0  0  0  # atno 10167 bound_to 10162
  156.9729  131.0095  151.2901 H   0  0  0  0  0  0  0  0  0  0  0  0  # atno 10718 bound_to 10713
  153.7614  135.3195  155.3338 H   0  0  0  0  0  0  0  0  0  0  0  0  # atno 10763 bound_to 10752
  154.8228  135.4591  154.0833 H   0  0  0  0  0  0  0  0  0  0  0  0  # atno 10764 bound_to 10752
  153.2066  135.6930  153.8249 H   0  0  0  0  0  0  0  0  0  0  0  0  # atno 10765 bound_to 10752
  140.8912  134.1809  157.4526 H   0  0  0  0  0  0  0  0  0  0  0  0  # atno 11005 bound_to 11000
  144.6729  140.0969  143.7462 LP  0  0  0  0  0  0  0  0  0  0  0  0  # atno 17320 bound_to 7965
  145.9346  139.2628  143.1305 LP  0  0  0  0  0  0  0  0  0  0  0  0  # atno 17321 bound_to 7965
  139.5242  144.3110  152.0993 LP  0  0  0  0  0  0  0  0  0  0  0  0  # atno 17342 bound_to 10162
  140.2278  144.4400  150.6313 LP  0  0  0  0  0  0  0  0  0  0  0  0  # atno 17343 bound_to 10162
  157.5580  130.8226  149.8229 LP  0  0  0  0  0  0  0  0  0  0  0  0  # atno 17370 bound_to 10713
  156.0275  130.3775  150.1780 LP  0  0  0  0  0  0  0  0  0  0  0  0  # atno 17371 bound_to 10713
  139.8730  134.9859  156.5302 LP  0  0  0  0  0  0  0  0  0  0  0  0  # atno 17394 bound_to 11000
  140.8344  133.8253  155.9015 LP  0  0  0  0  0  0  0  0  0  0  0  0  # atno 17395 bound_to 11000

$$$$
