AV-unprocessed.smi:1464|AV-procd|sdf|5941|dock1
  -GOLD-   22720 6 23D 1   1.00000     0.00000
 Structure written by MMmdl.
 40 41  0  0  0  0  0  0  0  0  2 V2000
  151.5610  145.7492  160.3542 C   0  0  0  0  0  0  0  0  0  0  0  0
  151.5831  144.2230  160.1660 C   0  0  2  0  0  0  0  0  0  0  0  0
  152.7858  143.5755  160.8821 C   0  0  0  0  0  0  0  0  0  0  0  0
  152.7469  142.0430  160.7752 C   0  0  0  0  0  0  0  0  0  0  0  0
  152.6451  141.5812  159.3137 C   0  0  0  0  0  0  0  0  0  0  0  0
  151.4388  142.2277  158.6058 C   0  0  2  0  0  0  0  0  0  0  0  0
  151.3511  141.7380  157.2317 N   0  0  0  0  0  0  0  0  0  0  0  0
  150.9794  140.5009  156.8682 C   0  0  0  0  0  0  0  0  0  0  0  0
  150.6632  139.6289  157.6796 O   0  0  0  0  0  0  0  0  0  0  0  0
  150.9616  140.2316  155.3549 C   0  0  0  0  0  0  0  0  0  0  0  0
  149.6237  140.2912  154.7477 N   0  0  0  0  0  0  0  0  0  0  0  0
  149.0914  141.6457  154.6256 N   0  5  0  0  0  0  0  0  0  0  0  0
  147.8465  141.8243  154.1094 C   0  0  0  0  0  0  0  0  0  0  0  0
  147.3257  142.9312  153.9935 O   0  0  0  0  0  0  0  0  0  0  0  0
  147.1113  140.6485  153.6737 C   0  0  0  0  0  0  0  0  0  0  0  0
  147.6394  139.4125  153.7713 C   0  0  0  0  0  0  0  0  0  0  0  0
  148.9677  139.1735  154.3230 C   0  0  0  0  0  0  0  0  0  0  0  0
  149.4602  138.0480  154.4061 O   0  0  0  0  0  0  0  0  0  0  0  0
  151.4937  143.7789  158.6813 C   0  0  2  0  0  0  0  0  0  0  0  0
  152.5931  144.3945  157.7845 C   0  0  0  0  0  0  0  0  0  0  0  0
  152.4748  146.2170  159.9880 H   0  0  0  0  0  0  0  0  0  0  0  0
  151.4651  146.0085  161.4088 H   0  0  0  0  0  0  0  0  0  0  0  0
  150.7185  146.1987  159.8281 H   0  0  0  0  0  0  0  0  0  0  0  0
  150.6839  143.8480  160.6578 H   0  0  0  0  0  0  0  0  0  0  0  0
  153.7201  143.9501  160.4630 H   0  0  0  0  0  0  0  0  0  0  0  0
  152.7893  143.8620  161.9344 H   0  0  0  0  0  0  0  0  0  0  0  0
  153.6358  141.6148  161.2393 H   0  0  0  0  0  0  0  0  0  0  0  0
  151.8926  141.6614  161.3361 H   0  0  0  0  0  0  0  0  0  0  0  0
  153.5683  141.8256  158.7872 H   0  0  0  0  0  0  0  0  0  0  0  0
  152.5554  140.4946  159.2838 H   0  0  0  0  0  0  0  0  0  0  0  0
  150.5423  141.8940  159.1327 H   0  0  0  0  0  0  0  0  0  0  0  0
  151.5898  142.3913  156.5000 H   0  0  0  0  0  0  0  0  0  0  0  0
  151.6269  140.9515  154.8747 H   0  0  0  0  0  0  0  0  0  0  0  0
  151.4066  139.2532  155.1653 H   0  0  0  0  0  0  0  0  0  0  0  0
  146.1209  140.7692  153.2601 H   0  0  0  0  0  0  0  0  0  0  0  0
  147.0581  138.5678  153.4333 H   0  0  0  0  0  0  0  0  0  0  0  0
  150.5441  144.1534  158.2966 H   0  0  0  0  0  0  0  0  0  0  0  0
  153.5933  144.0997  158.0993 H   0  0  0  0  0  0  0  0  0  0  0  0
  152.5519  145.4831  157.7926 H   0  0  0  0  0  0  0  0  0  0  0  0
  152.4753  144.0935  156.7436 H   0  0  0  0  0  0  0  0  0  0  0  0
  1  2  1  0  0  0  0
  1 21  1  0  0  0  0
  1 22  1  0  0  0  0
  1 23  1  0  0  0  0
  2 19  1  0  0  0  0
  2  3  1  0  0  0  0
  2 24  1  0  0  0  0
  3  4  1  0  0  0  0
  3 25  1  0  0  0  0
  3 26  1  0  0  0  0
  4  5  1  0  0  0  0
  4 27  1  0  0  0  0
  4 28  1  0  0  0  0
  5  6  1  0  0  0  0
  5 29  1  0  0  0  0
  5 30  1  0  0  0  0
  6  7  1  0  0  0  0
  6 19  1  0  0  0  0
  6 31  1  0  0  0  0
  7  8  1  0  0  0  0
  7 32  1  0  0  0  0
  8  9  2  0  0  0  0
  8 10  1  0  0  0  0
 10 33  1  0  0  0  0
 10 34  1  0  0  0  0
 10 11  1  0  0  0  0
 11 12  1  0  0  0  0
 11 17  1  0  0  0  0
 12 13  1  0  0  0  0
 13 14  2  0  0  0  0
 13 15  1  0  0  0  0
 15 35  1  0  0  0  0
 15 16  2  0  0  0  0
 16 36  1  0  0  0  0
 16 17  1  0  0  0  0
 17 18  2  0  0  0  0
 19 20  1  0  0  0  0
 19 37  1  0  0  0  0
 20 38  1  0  0  0  0
 20 39  1  0  0  0  0
 20 40  1  0  0  0  0
M  CHG  1  12  -1
M  END
> <s_m_source_file>
AV-unprocessed.smi

> <i_m_source_file_index>
1464

> <i_lp_mmshare_version>
43012

> <i_f3d_flags>
0

> <s_epik_input>
W0NIM11bQ0BASF0xW0NIMl1bQ0gyXVtDSDJdW0NASF0oW0NASF0xW0NIM10pW05IXUMoPU8pW0NIMl1uMltuSF1jKD1PKVtjSF1bY0hdYzI9Tw==

> <s_epik_cmdline>
J2VwaWtfcHl0aG9uJywgJy1waCcsICc3LjAnLCAnLXRuJywgJzgnLCAnLW1hJywgJzIwMCcsICctbWV0YWxfYmluZGluZycsICctaW1hZScsICc8aW5maWxlLm1hZT4nLCAnLW9tYWUnLCAnPG91dGZpbGUubWFlPic=

> <r_lp_tautomer_probability>
1

> <r_epik_Ionization_Penalty>
0.101366

> <r_epik_Ionization_Penalty_Charging>
0.101366

> <r_epik_Ionization_Penalty_Neutral>
1.90469e-08

> <r_epik_State_Penalty>
0.035861

> <r_epik_Charging_Adjusted_Penalty>
0.137227

> <i_epik_Tot_Q>
-1

> <i_epik_Tot_abs_Q>
1

> <r_epik_Metal_State_Penalty>
0.035861

> <b_epik_Metal_Only>
0

> <s_lp_Force_Field>
OPLS_2005

> <r_lp_Energy>
29.9934

> <b_lp_Chiralities_Consistent>
1

> <s_lp_Variant>
AV-unprocessed.smi:1464-7

> <Gold.Version>
5.8.1

> <Gold.Id.Protein>
6NUR|6NUR_protein|mol2

> <Gold.PLP.Fitness>
39.8909

> <Gold.PLP.PLP>
-39.8720

> <Gold.PLP.part.hbond>
-1.7579

> <Gold.PLP.part.metal>
0.0000

> <Gold.PLP.part.buried>
-3.1648

> <Gold.PLP.part.nonpolar>
-38.3406

> <Gold.PLP.part.repulsive>
2.6237

> <Gold.PLP.ligand.clash>
0.0000

> <Gold.PLP.ligand.torsion>
0.5796

> <Gold.PLP.Chemscore.Hbond>
0.3853

> <Gold.PLP.Chemscore.CHOScore>
0.0000

> <Gold.PLP.Chemscore.Metal>
0.0000

> <Gold.Chemscore.Hbonds>
donor molecule, donor type, donor heavy atom, donor atom, acceptor molecule, acceptor atom, score
      P1  H  8022  8030       L1    14  0.29

> <Gold.PLP.Chemscore.Internal.Correction>
0.0222

> <Gold.Rescore>
     Score         DG    S(hbond)    S(metal)    S(lipo)     H(rot)  DE(clash)    DE(int)     intcor
     13.14     -16.16       0.62        0.00     109.67       1.64       2.41       0.61       ----

> <Gold.Chemscore.Fitness>
13.1381

> <Gold.Chemscore.DG>
-16.1619

> <Gold.Chemscore.ZeroCoef>
-5.4800

> <Gold.Chemscore.Hbond>
0.6163

> <Gold.Chemscore.Metal>
0.0000

> <Gold.Chemscore.Lipo>
109.6715

> <Gold.Chemscore.Internal_Hbond>
0.0000

> <Gold.Chemscore.DEClash>
2.4141

> <Gold.Chemscore.DEInternal>
0.6096

> <Gold.Chemscore.Rot>
1.6438

> <Gold.Chemscore.Internal.Correction>
   9.000000E+99

> <Gold.Chemscore.Hbonds>
donor molecule, donor type, donor heavy atom, donor atom, acceptor molecule, acceptor atom, score
      P1  H  8022  8030       L1    14  0.28

> <Gold.Chemscore.Hbond.Weighted>
-2.0583

> <Gold.Chemscore.Metal.Weighted>
-0.0000

> <Gold.Chemscore.Lipo.Weighted>
-12.8316

> <Gold.Chemscore.Internal_Hbond.Weighted>
0.0000

> <Gold.Chemscore.DEClash.Weighted>
2.4141

> <Gold.Chemscore.DEInternal.Weighted>
0.6096

> <Gold.Chemscore.Rot.Weighted>
4.2080

> <Gold.Chemscore.Internal.Correction.Weighted>
   9.000000E+99

> <Gold.Protein.RotatedTorsions>
[ 6907 6896 6895 6894 ] final   73.08 input  -60.11 | X-H torsion
[ 7974 7965 7964 7962 ] final -112.13 input  175.53 | X-H torsion
[ 8008 7997 7996 7995 ] final -163.08 input   59.86 | X-H torsion
[ 10167 10162 10161 10158 ] final  -72.60 input  -65.29 | X-H torsion
[ 10718 10713 10712 10709 ] final   55.51 input   66.30 | X-H torsion
[ 10763 10752 10751 10750 ] final   46.63 input  -60.55 | X-H torsion
[ 11005 11000 10999 10996 ] final  -82.64 input  -57.11 | X-H torsion

> <Gold.Protein.ActiveResidues>
 VAL166  LYS551  ARG553  GLY616  TRP617  ASP618  TYR619  PRO620  LYS621  CYS622 
 ASP623  PHE694  ASN695  SER759  ASP760  ASP761  ALA762  ILE779  LEU786  VAL792 
 PHE793  MET794  SER795  GLU796  ALA797  LYS798  CYS799  TRP800  GLU811  SER814 

> <Gold.Protein.RotatedAtoms>
  152.4903  134.4476  159.9563 H   0  0  0  0  0  0  0  0  0  0  0  0  # atno 6907 bound_to 6896
  151.4464  133.3623  159.2797 H   0  0  0  0  0  0  0  0  0  0  0  0  # atno 6908 bound_to 6896
  150.9052  134.8490  159.7447 H   0  0  0  0  0  0  0  0  0  0  0  0  # atno 6909 bound_to 6896
  145.1477  140.8812  143.3665 H   0  0  0  0  0  0  0  0  0  0  0  0  # atno 7974 bound_to 7965
  155.8161  140.0912  157.1876 H   0  0  0  0  0  0  0  0  0  0  0  0  # atno 8008 bound_to 7997
  154.3979  140.1445  156.3504 H   0  0  0  0  0  0  0  0  0  0  0  0  # atno 8009 bound_to 7997
  155.8315  140.3442  155.5577 H   0  0  0  0  0  0  0  0  0  0  0  0  # atno 8010 bound_to 7997
  140.5179  143.2335  151.7480 H   0  0  0  0  0  0  0  0  0  0  0  0  # atno 10167 bound_to 10162
  157.5351  130.8658  149.8742 H   0  0  0  0  0  0  0  0  0  0  0  0  # atno 10718 bound_to 10713
  152.9808  135.6002  154.3630 H   0  0  0  0  0  0  0  0  0  0  0  0  # atno 10763 bound_to 10752
  154.3310  135.2768  155.2473 H   0  0  0  0  0  0  0  0  0  0  0  0  # atno 10764 bound_to 10752
  154.4597  135.5969  153.6303 H   0  0  0  0  0  0  0  0  0  0  0  0  # atno 10765 bound_to 10752
  141.1662  133.7254  156.8601 H   0  0  0  0  0  0  0  0  0  0  0  0  # atno 11005 bound_to 11000
  145.0464  139.3217  143.5950 LP  0  0  0  0  0  0  0  0  0  0  0  0  # atno 17320 bound_to 7965
  146.3498  139.9857  142.8691 LP  0  0  0  0  0  0  0  0  0  0  0  0  # atno 17321 bound_to 7965
  139.4915  144.4297  151.9886 LP  0  0  0  0  0  0  0  0  0  0  0  0  # atno 17342 bound_to 10162
  140.3392  144.3224  150.5971 LP  0  0  0  0  0  0  0  0  0  0  0  0  # atno 17343 bound_to 10162
  156.0453  130.3729  150.1334 LP  0  0  0  0  0  0  0  0  0  0  0  0  # atno 17370 bound_to 10713
  156.9517  130.9777  151.3497 LP  0  0  0  0  0  0  0  0  0  0  0  0  # atno 17371 bound_to 10713
  140.1854  134.9003  157.2998 LP  0  0  0  0  0  0  0  0  0  0  0  0  # atno 17394 bound_to 11000
  140.2348  134.3865  155.7506 LP  0  0  0  0  0  0  0  0  0  0  0  0  # atno 17395 bound_to 11000

$$$$
