AV-unprocessed.smi:2626|AV-procd|sdf|10236|dock1
  -GOLD-   2272014243D 1   1.00000     0.00000
 Structure written by MMmdl.
 27 28  0  0  0  0  0  0  0  0  1 V2000
  152.2819  144.5355  159.6312 C   0  0  0  0  0  0  0  0  0  0  0  0
  152.4028  143.0596  159.3131 C   0  0  0  0  0  0  0  0  0  0  0  0
  153.0854  142.2045  160.1136 C   0  0  0  0  0  0  0  0  0  0  0  0
  153.1773  140.7845  159.7710 C   0  0  0  0  0  0  0  0  0  0  0  0
  153.7774  139.9507  160.4452 O   0  0  0  0  0  0  0  0  0  0  0  0
  152.5383  140.4412  158.6287 N   0  0  0  0  0  0  0  0  0  0  0  0
  151.8431  141.3531  157.8272 C   0  0  0  0  0  0  0  0  0  0  0  0
  151.2747  140.7571  156.7129 N   0  0  0  0  0  0  0  0  0  0  0  0
  150.4111  141.5735  155.8668 C   0  0  0  0  0  0  0  0  0  0  0  0
  149.5911  140.6950  154.9069 C   0  0  0  0  0  0  0  0  0  0  0  0
  150.4689  139.8824  154.1370 O   0  0  0  0  0  0  0  0  0  0  0  0
  151.2388  139.0161  154.9619 C   0  0  0  0  0  0  0  0  0  0  0  0
  152.1018  139.8517  155.9225 C   0  0  0  0  0  0  0  0  0  0  0  0
  151.7728  142.6085  158.1456 N   0  0  0  0  0  0  0  0  0  0  0  0
  152.5697  139.4729  158.3452 H   0  0  0  0  0  0  0  0  0  0  0  0
  152.8030  144.7885  160.5553 H   0  0  0  0  0  0  0  0  0  0  0  0
  151.2336  144.8124  159.7455 H   0  0  0  0  0  0  0  0  0  0  0  0
  152.7095  145.1320  158.8251 H   0  0  0  0  0  0  0  0  0  0  0  0
  153.5665  142.5647  161.0112 H   0  0  0  0  0  0  0  0  0  0  0  0
  149.7383  142.1698  156.4851 H   0  0  0  0  0  0  0  0  0  0  0  0
  151.0254  142.2733  155.2981 H   0  0  0  0  0  0  0  0  0  0  0  0
  148.8869  140.0697  155.4578 H   0  0  0  0  0  0  0  0  0  0  0  0
  149.0039  141.3205  154.2345 H   0  0  0  0  0  0  0  0  0  0  0  0
  150.5820  138.3426  155.5149 H   0  0  0  0  0  0  0  0  0  0  0  0
  151.8739  138.3949  154.3305 H   0  0  0  0  0  0  0  0  0  0  0  0
  152.8309  140.4341  155.3572 H   0  0  0  0  0  0  0  0  0  0  0  0
  152.6648  139.1894  156.5818 H   0  0  0  0  0  0  0  0  0  0  0  0
  1  2  1  0  0  0  0
  1 16  1  0  0  0  0
  1 17  1  0  0  0  0
  1 18  1  0  0  0  0
  2 14  1  0  0  0  0
  2  3  2  0  0  0  0
  3  4  1  0  0  0  0
  3 19  1  0  0  0  0
  4  5  2  0  0  0  0
  4  6  1  0  0  0  0
  6 15  1  0  0  0  0
  6  7  1  0  0  0  0
  7  8  1  0  0  0  0
  7 14  2  0  0  0  0
  8 13  1  0  0  0  0
  8  9  1  0  0  0  0
  9 10  1  0  0  0  0
  9 20  1  0  0  0  0
  9 21  1  0  0  0  0
 10 11  1  0  0  0  0
 10 22  1  0  0  0  0
 10 23  1  0  0  0  0
 11 12  1  0  0  0  0
 12 13  1  0  0  0  0
 12 24  1  0  0  0  0
 12 25  1  0  0  0  0
 13 26  1  0  0  0  0
 13 27  1  0  0  0  0
M  END
> <s_m_source_file>
AV-unprocessed.smi

> <i_m_source_file_index>
2626

> <i_lp_mmshare_version>
43012

> <i_f3d_flags>
0

> <s_epik_input>
W0NIM11jMVtjSF1jKD1PKVtuSF1jKG4xKU4yW0NIMl1bQ0gyXU9bQ0gyXVtDSDJdMg==

> <s_epik_cmdline>
J2VwaWtfcHl0aG9uJywgJy1waCcsICc3LjAnLCAnLXRuJywgJzgnLCAnLW1hJywgJzIwMCcsICctbWV0YWxfYmluZGluZycsICctaW1hZScsICc8aW5maWxlLm1hZT4nLCAnLW9tYWUnLCAnPG91dGZpbGUubWFlPic=

> <r_lp_tautomer_probability>
0.878553

> <r_epik_Ionization_Penalty>
0.00137266

> <r_epik_Ionization_Penalty_Charging>
0.00134941

> <r_epik_Ionization_Penalty_Neutral>
2.32458e-05

> <r_epik_State_Penalty>
0.0440188

> <r_epik_Charging_Adjusted_Penalty>
0.0453682

> <i_epik_Tot_Q>
0

> <i_epik_Tot_abs_Q>
0

> <r_epik_Metal_State_Penalty>
1.05362

> <b_epik_Metal_Only>
0

> <s_lp_Force_Field>
OPLS_2005

> <r_lp_Energy>
23.8409

> <b_lp_Chiralities_Consistent>
1

> <s_lp_Variant>
AV-unprocessed.smi:2626-1

> <Gold.Version>
5.8.1

> <Gold.Id.Protein>
6NUR|6NUR_protein|mol2

> <Gold.PLP.Fitness>
33.7012

> <Gold.PLP.PLP>
-30.7298

> <Gold.PLP.part.hbond>
-1.0000

> <Gold.PLP.part.metal>
0.0000

> <Gold.PLP.part.buried>
-4.4330

> <Gold.PLP.part.nonpolar>
-25.9807

> <Gold.PLP.part.repulsive>
0.5115

> <Gold.PLP.ligand.clash>
0.0000

> <Gold.PLP.ligand.torsion>
0.1860

> <Gold.PLP.Chemscore.Hbond>
1.0000

> <Gold.PLP.Chemscore.CHOScore>
0.0000

> <Gold.PLP.Chemscore.Metal>
0.0000

> <Gold.Chemscore.Hbonds>
donor molecule, donor type, donor heavy atom, donor atom, acceptor molecule, acceptor atom, score
      P1  H  7989  7998       L1    11  1.00

> <Gold.PLP.Chemscore.Internal.Correction>
0.3433

> <Gold.Rescore>
     Score         DG    S(hbond)    S(metal)    S(lipo)     H(rot)  DE(clash)    DE(int)     intcor
     12.29     -12.50       0.69        0.00      62.29       1.00       0.04       0.18       ----

> <Gold.Chemscore.Fitness>
12.2921

> <Gold.Chemscore.DG>
-12.5040

> <Gold.Chemscore.ZeroCoef>
-5.4800

> <Gold.Chemscore.Hbond>
0.6875

> <Gold.Chemscore.Metal>
0.0000

> <Gold.Chemscore.Lipo>
62.2891

> <Gold.Chemscore.Internal_Hbond>
0.0000

> <Gold.Chemscore.DEClash>
0.0354

> <Gold.Chemscore.DEInternal>
0.1766

> <Gold.Chemscore.Rot>
1.0000

> <Gold.Chemscore.Internal.Correction>
   9.000000E+99

> <Gold.Chemscore.Hbonds>
donor molecule, donor type, donor heavy atom, donor atom, acceptor molecule, acceptor atom, score
      P1  H  7989  7998       L1    11  0.26

> <Gold.Chemscore.Hbond.Weighted>
-2.2962

> <Gold.Chemscore.Metal.Weighted>
-0.0000

> <Gold.Chemscore.Lipo.Weighted>
-7.2878

> <Gold.Chemscore.Internal_Hbond.Weighted>
0.0000

> <Gold.Chemscore.DEClash.Weighted>
0.0354

> <Gold.Chemscore.DEInternal.Weighted>
0.1766

> <Gold.Chemscore.Rot.Weighted>
2.5600

> <Gold.Chemscore.Internal.Correction.Weighted>
   9.000000E+99

> <Gold.Protein.RotatedTorsions>
[ 6907 6896 6895 6894 ] final  127.68 input  -60.11 | X-H torsion
[ 7974 7965 7964 7962 ] final  166.83 input  175.53 | X-H torsion
[ 8008 7997 7996 7995 ] final -136.13 input   59.86 | X-H torsion
[ 10167 10162 10161 10158 ] final -178.94 input  -65.29 | X-H torsion
[ 10718 10713 10712 10709 ] final   68.80 input   66.30 | X-H torsion
[ 10763 10752 10751 10750 ] final   55.42 input  -60.55 | X-H torsion
[ 11005 11000 10999 10996 ] final   16.08 input  -57.11 | X-H torsion

> <Gold.Protein.ActiveResidues>
 VAL166  LYS551  ARG553  GLY616  TRP617  ASP618  TYR619  PRO620  LYS621  CYS622 
 ASP623  PHE694  ASN695  SER759  ASP760  ASP761  ALA762  ILE779  LEU786  VAL792 
 PHE793  MET794  SER795  GLU796  ALA797  LYS798  CYS799  TRP800  GLU811  SER814 

> <Gold.Protein.RotatedAtoms>
  152.3790  133.6521  159.6146 H   0  0  0  0  0  0  0  0  0  0  0  0  # atno 6907 bound_to 6896
  150.7726  133.9145  159.3388 H   0  0  0  0  0  0  0  0  0  0  0  0  # atno 6908 bound_to 6896
  151.6954  135.0940  160.0292 H   0  0  0  0  0  0  0  0  0  0  0  0  # atno 6909 bound_to 6896
  144.7447  139.8673  143.6386 H   0  0  0  0  0  0  0  0  0  0  0  0  # atno 7974 bound_to 7965
  155.3901  140.0499  157.3041 H   0  0  0  0  0  0  0  0  0  0  0  0  # atno 8008 bound_to 7997
  154.5040  140.2167  155.9249 H   0  0  0  0  0  0  0  0  0  0  0  0  # atno 8009 bound_to 7997
  156.1503  140.3137  155.8643 H   0  0  0  0  0  0  0  0  0  0  0  0  # atno 8010 bound_to 7997
  139.5409  144.2366  152.0892 H   0  0  0  0  0  0  0  0  0  0  0  0  # atno 10167 bound_to 10162
  157.6310  130.9392  150.0427 H   0  0  0  0  0  0  0  0  0  0  0  0  # atno 10718 bound_to 10713
  152.9816  135.5711  154.5063 H   0  0  0  0  0  0  0  0  0  0  0  0  # atno 10763 bound_to 10752
  154.4574  135.2780  155.1739 H   0  0  0  0  0  0  0  0  0  0  0  0  # atno 10764 bound_to 10752
  154.3341  135.6243  153.5619 H   0  0  0  0  0  0  0  0  0  0  0  0  # atno 10765 bound_to 10752
  140.4511  134.1223  155.7702 H   0  0  0  0  0  0  0  0  0  0  0  0  # atno 11005 bound_to 11000
  146.1306  139.4340  143.0171 LP  0  0  0  0  0  0  0  0  0  0  0  0  # atno 17320 bound_to 7965
  145.7169  141.0088  143.1423 LP  0  0  0  0  0  0  0  0  0  0  0  0  # atno 17321 bound_to 7965
  140.1845  144.4812  150.6511 LP  0  0  0  0  0  0  0  0  0  0  0  0  # atno 17342 bound_to 10162
  140.6638  143.2261  151.5792 LP  0  0  0  0  0  0  0  0  0  0  0  0  # atno 17343 bound_to 10162
  156.1513  130.3642  149.9433 LP  0  0  0  0  0  0  0  0  0  0  0  0  # atno 17370 bound_to 10713
  156.7452  130.9095  151.3634 LP  0  0  0  0  0  0  0  0  0  0  0  0  # atno 17371 bound_to 10713
  141.1664  133.8695  157.1703 LP  0  0  0  0  0  0  0  0  0  0  0  0  # atno 17394 bound_to 11000
  140.0006  135.0029  157.0182 LP  0  0  0  0  0  0  0  0  0  0  0  0  # atno 17395 bound_to 11000

$$$$
