AV-unprocessed.smi:1219|AV-procd|sdf|5113|dock4
  -GOLD-   22720 4173D 1   1.00000     0.00000
 Structure written by MMmdl.
 43 44  0  0  0  0  0  0  0  0  2 V2000
  144.5686  136.3504  152.6127 O   0  0  0  0  0  0  0  0  0  0  0  0
  145.7722  136.1720  152.4251 C   0  0  0  0  0  0  0  0  0  0  0  0
  146.7169  137.0400  152.8161 N   0  0  0  0  0  0  0  0  0  0  0  0
  146.4711  138.3020  153.5089 C   0  0  0  0  0  0  0  0  0  0  0  0
  147.0835  139.5204  152.7844 C   0  0  1  0  0  0  0  0  0  0  0  0
  146.2012  139.8968  151.7467 O   0  0  0  0  0  0  0  0  0  0  0  0
  147.3074  140.7405  153.7044 C   0  0  0  0  0  0  0  0  0  0  0  0
  146.0272  141.3753  154.1088 N   0  3  0  0  0  0  0  0  0  0  0  0
  145.4853  140.8101  155.3715 C   0  0  0  0  0  0  0  0  0  0  0  0
  144.0924  141.3841  155.6836 C   0  0  0  0  0  0  0  0  0  0  0  0
  144.1268  142.9170  155.7405 C   0  0  0  0  0  0  0  0  0  0  0  0
  144.7249  143.4766  154.4432 C   0  0  0  0  0  0  0  0  0  0  0  0
  146.1056  142.8605  154.1643 C   0  0  0  0  0  0  0  0  0  0  0  0
  146.3143  135.1069  151.8096 N   0  0  0  0  0  0  0  0  0  0  0  0
  145.6454  134.0126  151.1996 C   0  0  0  0  0  0  0  0  0  0  0  0
  146.4867  133.0908  150.5363 C   0  0  0  0  0  0  0  0  0  0  0  0
  145.9195  131.9737  149.8929 C   0  0  0  0  0  0  0  0  0  0  0  0
  144.5234  131.8081  149.9280 C   0  0  0  0  0  0  0  0  0  0  0  0
  143.7580  132.7723  150.6094 C   0  0  0  0  0  0  0  0  0  0  0  0
  144.2997  133.8439  151.2262 N   0  0  0  0  0  0  0  0  0  0  0  0
  147.6810  136.8061  152.6290 H   0  0  0  0  0  0  0  0  0  0  0  0
  145.3951  138.4362  153.6329 H   0  0  0  0  0  0  0  0  0  0  0  0
  146.8888  138.2154  154.5126 H   0  0  0  0  0  0  0  0  0  0  0  0
  148.0189  139.2175  152.3162 H   0  0  0  0  0  0  0  0  0  0  0  0
  145.3997  140.2192  152.1307 H   0  0  0  0  0  0  0  0  0  0  0  0
  147.8660  140.4159  154.5839 H   0  0  0  0  0  0  0  0  0  0  0  0
  147.9280  141.4948  153.2191 H   0  0  0  0  0  0  0  0  0  0  0  0
  145.4118  139.7250  155.2877 H   0  0  0  0  0  0  0  0  0  0  0  0
  146.1741  141.0201  156.1915 H   0  0  0  0  0  0  0  0  0  0  0  0
  143.3846  141.0622  154.9187 H   0  0  0  0  0  0  0  0  0  0  0  0
  143.7274  140.9845  156.6302 H   0  0  0  0  0  0  0  0  0  0  0  0
  143.1222  143.3123  155.8942 H   0  0  0  0  0  0  0  0  0  0  0  0
  144.7251  143.2422  156.5927 H   0  0  0  0  0  0  0  0  0  0  0  0
  144.0547  143.2668  153.6084 H   0  0  0  0  0  0  0  0  0  0  0  0
  144.8071  144.5620  154.5086 H   0  0  0  0  0  0  0  0  0  0  0  0
  146.8107  143.1595  154.9417 H   0  0  0  0  0  0  0  0  0  0  0  0
  146.4892  143.2595  153.2259 H   0  0  0  0  0  0  0  0  0  0  0  0
  147.3219  135.0831  151.7552 H   0  0  0  0  0  0  0  0  0  0  0  0
  147.5575  133.2333  150.5184 H   0  0  0  0  0  0  0  0  0  0  0  0
  146.5451  131.2578  149.3808 H   0  0  0  0  0  0  0  0  0  0  0  0
  144.0516  130.9647  149.4459 H   0  0  0  0  0  0  0  0  0  0  0  0
  142.6830  132.6828  150.6597 H   0  0  0  0  0  0  0  0  0  0  0  0
  145.3590  141.1409  153.3880 H   0  0  0  0  0  0  0  0  0  0  0  0
  1  2  2  0  0  0  0
  2  3  1  0  0  0  0
  2 14  1  0  0  0  0
  3  4  1  0  0  0  0
  3 21  1  0  0  0  0
  4  5  1  0  0  0  0
  4 22  1  0  0  0  0
  4 23  1  0  0  0  0
  5  6  1  0  0  0  0
  5  7  1  0  0  0  0
  5 24  1  0  0  0  0
  6 25  1  0  0  0  0
  7  8  1  0  0  0  0
  7 26  1  0  0  0  0
  7 27  1  0  0  0  0
  8 13  1  0  0  0  0
  8  9  1  0  0  0  0
  8 43  1  0  0  0  0
  9 10  1  0  0  0  0
  9 28  1  0  0  0  0
  9 29  1  0  0  0  0
 10 11  1  0  0  0  0
 10 30  1  0  0  0  0
 10 31  1  0  0  0  0
 11 12  1  0  0  0  0
 11 32  1  0  0  0  0
 11 33  1  0  0  0  0
 12 13  1  0  0  0  0
 12 34  1  0  0  0  0
 12 35  1  0  0  0  0
 13 36  1  0  0  0  0
 13 37  1  0  0  0  0
 14 15  1  0  0  0  0
 14 38  1  0  0  0  0
 15 20  1  0  0  0  0
 15 16  2  0  0  0  0
 16 17  1  0  0  0  0
 16 39  1  0  0  0  0
 17 18  2  0  0  0  0
 17 40  1  0  0  0  0
 18 19  1  0  0  0  0
 18 41  1  0  0  0  0
 19 20  2  0  0  0  0
 19 42  1  0  0  0  0
M  CHG  1   8   1
M  END
> <s_m_source_file>
AV-unprocessed.smi

> <i_m_source_file_index>
1219

> <i_lp_mmshare_version>
43012

> <i_f3d_flags>
0

> <s_epik_input>
bjFbY0hdW2NIXVtjSF1bY0hdYzFbTkhdQyg9TylbTkhdW0NIMl1bQ0BIXShbT0hdKVtDSDJdTjJbQ0gyXVtDSDJdW0NIMl1bQ0gyXVtDSDJdMg==

> <s_epik_cmdline>
J2VwaWtfcHl0aG9uJywgJy1waCcsICc3LjAnLCAnLXRuJywgJzgnLCAnLW1hJywgJzIwMCcsICctbWV0YWxfYmluZGluZycsICctaW1hZScsICc8aW5maWxlLm1hZT4nLCAnLW9tYWUnLCAnPG91dGZpbGUubWFlPic=

> <r_epik_Ionization_Penalty>
0.00510026

> <r_epik_Ionization_Penalty_Charging>
0.00506051

> <r_epik_Ionization_Penalty_Neutral>
3.97538e-05

> <r_epik_State_Penalty>
0.00368188

> <r_epik_Charging_Adjusted_Penalty>
0.0087424

> <i_epik_Tot_Q>
1

> <i_epik_Tot_abs_Q>
1

> <r_epik_Metal_State_Penalty>
-0

> <b_epik_Metal_Only>
0

> <s_lp_Force_Field>
OPLS_2005

> <r_lp_Energy>
19.3775

> <b_lp_Chiralities_Consistent>
1

> <s_lp_Variant>
AV-unprocessed.smi:1219-2

> <Gold.Version>
5.8.1

> <Gold.Id.Protein>
6NUR|6NUR_protein|mol2

> <Gold.PLP.Fitness>
49.0642

> <Gold.PLP.PLP>
-32.9509

> <Gold.PLP.part.hbond>
-4.0063

> <Gold.PLP.part.metal>
0.0000

> <Gold.PLP.part.buried>
-2.1784

> <Gold.PLP.part.nonpolar>
-28.6987

> <Gold.PLP.part.repulsive>
0.3854

> <Gold.PLP.ligand.clash>
0.0000

> <Gold.PLP.ligand.torsion>
0.7424

> <Gold.PLP.Chemscore.Hbond>
4.8785

> <Gold.PLP.Chemscore.CHOScore>
0.9661

> <Gold.PLP.Chemscore.Metal>
0.0000

> <Gold.Chemscore.Hbonds>
donor molecule, donor type, donor heavy atom, donor atom, acceptor molecule, acceptor atom, score
      L1  H     3    21       P1  7948  1.00
      L1  H     6    25       P1 10175  1.00
      L1  H     8    43       P1 10175  2.00
      L1  H    14    38       P1  7948  0.88
      L1  C    19    42       P1 10186  0.62

> <Gold.PLP.Chemscore.Internal.Correction>
0.0643

> <Gold.Rescore>
     Score         DG    S(hbond)    S(metal)    S(lipo)     H(rot)  DE(clash)    DE(int)     intcor
     15.91     -18.86       3.13        0.00      77.66       2.41       0.56       2.39       ----

> <Gold.Chemscore.Fitness>
15.9061

> <Gold.Chemscore.DG>
-18.8602

> <Gold.Chemscore.ZeroCoef>
-5.4800

> <Gold.Chemscore.Hbond>
3.1303

> <Gold.Chemscore.Metal>
0.0000

> <Gold.Chemscore.Lipo>
77.6615

> <Gold.Chemscore.Internal_Hbond>
0.0000

> <Gold.Chemscore.DEClash>
0.5602

> <Gold.Chemscore.DEInternal>
2.3939

> <Gold.Chemscore.Rot>
2.4067

> <Gold.Chemscore.Internal.Correction>
   9.000000E+99

> <Gold.Chemscore.Hbonds>
donor molecule, donor type, donor heavy atom, donor atom, acceptor molecule, acceptor atom, score
      L1  H     3    21       P1  7948  0.97
      L1  H     6    25       P1 10175  0.50
      L1  H     8    43       P1 10175  0.38
      L1  H    14    38       P1  7948  0.78

> <Gold.Chemscore.Hbond.Weighted>
-10.4550

> <Gold.Chemscore.Metal.Weighted>
-0.0000

> <Gold.Chemscore.Lipo.Weighted>
-9.0864

> <Gold.Chemscore.Internal_Hbond.Weighted>
0.0000

> <Gold.Chemscore.DEClash.Weighted>
0.5602

> <Gold.Chemscore.DEInternal.Weighted>
2.3939

> <Gold.Chemscore.Rot.Weighted>
6.1612

> <Gold.Chemscore.Internal.Correction.Weighted>
   9.000000E+99

> <Gold.Protein.RotatedTorsions>
[ 6907 6896 6895 6894 ] final   22.91 input  -60.11 | X-H torsion
[ 7974 7965 7964 7962 ] final   71.40 input  175.53 | X-H torsion
[ 8008 7997 7996 7995 ] final -120.13 input   59.86 | X-H torsion
[ 10167 10162 10161 10158 ] final    0.75 input  -65.29 | X-H torsion
[ 10718 10713 10712 10709 ] final   -7.83 input   66.30 | X-H torsion
[ 10763 10752 10751 10750 ] final   27.92 input  -60.55 | X-H torsion
[ 11005 11000 10999 10996 ] final  -45.07 input  -57.11 | X-H torsion

> <Gold.Protein.ActiveResidues>
 VAL166  LYS551  ARG553  GLY616  TRP617  ASP618  TYR619  PRO620  LYS621  CYS622 
 ASP623  PHE694  ASN695  SER759  ASP760  ASP761  ALA762  ILE779  LEU786  VAL792 
 PHE793  MET794  SER795  GLU796  ALA797  LYS798  CYS799  TRP800  GLU811  SER814 

> <Gold.Protein.RotatedAtoms>
  151.9343  135.0242  160.0531 H   0  0  0  0  0  0  0  0  0  0  0  0  # atno 6907 bound_to 6896
  152.2091  133.4893  159.5108 H   0  0  0  0  0  0  0  0  0  0  0  0  # atno 6908 bound_to 6896
  150.6972  134.1407  159.4147 H   0  0  0  0  0  0  0  0  0  0  0  0  # atno 6909 bound_to 6896
  145.7663  139.2823  143.1347 H   0  0  0  0  0  0  0  0  0  0  0  0  # atno 7974 bound_to 7965
  155.1269  140.0399  157.2764 H   0  0  0  0  0  0  0  0  0  0  0  0  # atno 8008 bound_to 7997
  154.6572  140.2582  155.7123 H   0  0  0  0  0  0  0  0  0  0  0  0  # atno 8009 bound_to 7997
  156.2603  140.2824  156.1029 H   0  0  0  0  0  0  0  0  0  0  0  0  # atno 8010 bound_to 7997
  140.6714  143.7037  150.7932 H   0  0  0  0  0  0  0  0  0  0  0  0  # atno 10167 bound_to 10162
  156.7114  130.5123  149.5891 H   0  0  0  0  0  0  0  0  0  0  0  0  # atno 10718 bound_to 10713
  153.0524  135.6525  154.0660 H   0  0  0  0  0  0  0  0  0  0  0  0  # atno 10763 bound_to 10752
  154.0345  135.2908  155.3365 H   0  0  0  0  0  0  0  0  0  0  0  0  # atno 10764 bound_to 10752
  154.6821  135.5316  153.8343 H   0  0  0  0  0  0  0  0  0  0  0  0  # atno 10765 bound_to 10752
  141.0491  133.6749  156.2961 H   0  0  0  0  0  0  0  0  0  0  0  0  # atno 11005 bound_to 11000
  146.0214  140.8344  142.9921 LP  0  0  0  0  0  0  0  0  0  0  0  0  # atno 17320 bound_to 7965
  144.6821  140.2634  143.7316 LP  0  0  0  0  0  0  0  0  0  0  0  0  # atno 17321 bound_to 7965
  140.0723  143.5049  152.2573 LP  0  0  0  0  0  0  0  0  0  0  0  0  # atno 17342 bound_to 10162
  139.5985  144.7575  151.3229 LP  0  0  0  0  0  0  0  0  0  0  0  0  # atno 17343 bound_to 10162
  156.1658  130.6404  151.0776 LP  0  0  0  0  0  0  0  0  0  0  0  0  # atno 17370 bound_to 10713
  157.6934  131.0802  150.7040 LP  0  0  0  0  0  0  0  0  0  0  0  0  # atno 17371 bound_to 10713
  140.6089  134.5479  157.5530 LP  0  0  0  0  0  0  0  0  0  0  0  0  # atno 17394 bound_to 11000
  139.9336  134.7917  156.0863 LP  0  0  0  0  0  0  0  0  0  0  0  0  # atno 17395 bound_to 11000

$$$$
