AV-unprocessed.smi:240|AV-procd|sdf|1827|dock8
  -GOLD-   2262020423D 1   1.00000     0.00000
 Structure written by MMmdl.
 55 59  0  0  0  0  0  0  0  0  1 V2000
  149.6792  143.9368  158.1036 O   0  0  0  0  0  0  0  0  0  0  0  0
  150.9152  143.3307  157.7821 C   0  0  1  0  0  0  0  0  0  0  0  0
  151.9884  143.7470  158.8041 C   0  0  0  0  0  0  0  0  0  0  0  0
  152.3137  142.4892  159.6109 C   0  0  0  0  0  0  0  0  0  0  0  0
  152.0640  141.3463  158.6315 C   0  0  0  0  0  0  0  0  0  0  0  0
  150.8085  141.7878  157.8652 C   0  0  2  0  0  0  0  0  0  0  0  0
  150.5500  141.0315  156.5238 C   0  0  2  0  0  0  0  0  0  0  0  0
  150.0787  141.9638  155.3756 C   0  0  0  0  0  0  0  0  0  0  0  0
  149.8378  141.2185  154.1887 O   0  0  0  0  0  0  0  0  0  0  0  0
  148.8054  140.2609  154.3702 C   0  0  0  0  0  0  0  0  0  0  0  0
  149.2601  139.2467  155.4254 C   0  0  0  0  0  0  0  0  0  0  0  0
  149.5964  139.9206  156.6753 N   0  0  0  0  0  0  0  0  0  0  0  0
  149.8583  138.9973  157.6305 C   0  0  0  0  0  0  0  0  0  0  0  0
  151.1267  138.8177  158.0856 N   0  0  0  0  0  0  0  0  0  0  0  0
  151.3749  137.8985  159.0236 C   0  0  0  0  0  0  0  0  0  0  0  0
  150.5212  137.0648  159.6228 N   0  0  0  0  0  0  0  0  0  0  0  0
  149.2509  137.2337  159.1549 C   0  0  0  0  0  0  0  0  0  0  0  0
  148.8379  138.1687  158.1661 C   0  0  0  0  0  0  0  0  0  0  0  0
  147.4707  138.0632  157.9479 N   0  0  0  0  0  0  0  0  0  0  0  0
  147.0941  137.1185  158.7660 C   0  0  0  0  0  0  0  0  0  0  0  0
  148.1001  136.5571  159.5216 N   0  0  0  0  0  0  0  0  0  0  0  0
  147.9650  135.4927  160.5046 C   0  0  0  0  0  0  0  0  0  0  0  0
  146.9895  135.8309  161.6569 C   0  0  1  0  0  0  0  0  0  0  0  0
  147.2702  137.1352  162.1347 O   0  0  0  0  0  0  0  0  0  0  0  0
  145.5287  135.7800  161.2287 C   0  0  0  0  0  0  0  0  0  0  0  0
  144.8113  135.4223  162.5229 C   0  0  0  0  0  0  0  0  0  0  0  0
  145.6836  134.4766  163.1181 O   0  0  0  0  0  0  0  0  0  0  0  0
  147.0311  134.8541  162.8505 C   0  0  0  0  0  0  0  0  0  0  0  0
  149.1698  144.0194  157.3116 H   0  0  0  0  0  0  0  0  0  0  0  0
  151.2068  143.6738  156.7910 H   0  0  0  0  0  0  0  0  0  0  0  0
  152.8830  144.0693  158.2699 H   0  0  0  0  0  0  0  0  0  0  0  0
  151.6814  144.5763  159.4430 H   0  0  0  0  0  0  0  0  0  0  0  0
  153.3311  142.4936  160.0031 H   0  0  0  0  0  0  0  0  0  0  0  0
  151.6296  142.4057  160.4564 H   0  0  0  0  0  0  0  0  0  0  0  0
  152.9289  141.2574  157.9762 H   0  0  0  0  0  0  0  0  0  0  0  0
  151.9296  140.3886  159.1349 H   0  0  0  0  0  0  0  0  0  0  0  0
  149.9917  141.5564  158.5503 H   0  0  0  0  0  0  0  0  0  0  0  0
  151.4990  140.5975  156.2053 H   0  0  0  0  0  0  0  0  0  0  0  0
  149.1755  142.5142  155.6381 H   0  0  0  0  0  0  0  0  0  0  0  0
  150.8395  142.7042  155.1357 H   0  0  0  0  0  0  0  0  0  0  0  0
  147.8760  140.7496  154.6673 H   0  0  0  0  0  0  0  0  0  0  0  0
  148.6157  139.7578  153.4222 H   0  0  0  0  0  0  0  0  0  0  0  0
  148.4678  138.5153  155.5929 H   0  0  0  0  0  0  0  0  0  0  0  0
  150.1307  138.6994  155.0606 H   0  0  0  0  0  0  0  0  0  0  0  0
  152.4046  137.8189  159.3390 H   0  0  0  0  0  0  0  0  0  0  0  0
  146.0635  136.8034  158.8392 H   0  0  0  0  0  0  0  0  0  0  0  0
  147.6380  134.5888  159.9887 H   0  0  0  0  0  0  0  0  0  0  0  0
  148.9560  135.2736  160.9040 H   0  0  0  0  0  0  0  0  0  0  0  0
  146.6667  137.3353  162.8338 H   0  0  0  0  0  0  0  0  0  0  0  0
  145.1690  136.7064  160.7790 H   0  0  0  0  0  0  0  0  0  0  0  0
  145.3744  134.9784  160.5050 H   0  0  0  0  0  0  0  0  0  0  0  0
  144.7163  136.2938  163.1724 H   0  0  0  0  0  0  0  0  0  0  0  0
  143.8181  135.0053  162.3562 H   0  0  0  0  0  0  0  0  0  0  0  0
  147.5904  133.9474  162.6219 H   0  0  0  0  0  0  0  0  0  0  0  0
  147.4830  135.3014  163.7372 H   0  0  0  0  0  0  0  0  0  0  0  0
  1  2  1  0  0  0  0
  1 29  1  0  0  0  0
  2  6  1  0  0  0  0
  2  3  1  0  0  0  0
  2 30  1  0  0  0  0
  3  4  1  0  0  0  0
  3 31  1  0  0  0  0
  3 32  1  0  0  0  0
  4  5  1  0  0  0  0
  4 33  1  0  0  0  0
  4 34  1  0  0  0  0
  5  6  1  0  0  0  0
  5 35  1  0  0  0  0
  5 36  1  0  0  0  0
  6  7  1  0  0  0  0
  6 37  1  0  0  0  0
  7 12  1  0  0  0  0
  7  8  1  0  0  0  0
  7 38  1  0  0  0  0
  8  9  1  0  0  0  0
  8 39  1  0  0  0  0
  8 40  1  0  0  0  0
  9 10  1  0  0  0  0
 10 11  1  0  0  0  0
 10 41  1  0  0  0  0
 10 42  1  0  0  0  0
 11 12  1  0  0  0  0
 11 43  1  0  0  0  0
 11 44  1  0  0  0  0
 12 13  1  0  0  0  0
 13 18  1  0  0  0  0
 13 14  2  0  0  0  0
 14 15  1  0  0  0  0
 15 16  2  0  0  0  0
 15 45  1  0  0  0  0
 16 17  1  0  0  0  0
 17 21  1  0  0  0  0
 17 18  2  0  0  0  0
 18 19  1  0  0  0  0
 19 20  2  0  0  0  0
 20 21  1  0  0  0  0
 20 46  1  0  0  0  0
 21 22  1  0  0  0  0
 22 23  1  0  0  0  0
 22 47  1  0  0  0  0
 22 48  1  0  0  0  0
 23 28  1  0  0  0  0
 23 24  1  0  0  0  0
 23 25  1  0  0  0  0
 24 49  1  0  0  0  0
 25 26  1  0  0  0  0
 25 50  1  0  0  0  0
 25 51  1  0  0  0  0
 26 27  1  0  0  0  0
 26 52  1  0  0  0  0
 26 53  1  0  0  0  0
 27 28  1  0  0  0  0
 28 54  1  0  0  0  0
 28 55  1  0  0  0  0
M  END
> <s_m_source_file>
AV-unprocessed.smi

> <i_m_source_file_index>
240

> <i_lp_mmshare_version>
43012

> <i_f3d_flags>
0

> <s_epik_input>
W09IXVtDQEBIXTFbQ0gyXVtDSDJdW0NIMl1bQ0BIXTFbQ0BASF0yW0NIMl1PW0NIMl1bQ0gyXU4yYyhuW2NIXW4zKWMoYzM0KW5bY0hdbjRbQ0gyXVtDQEBdNShbT0hdKVtDSDJdW0NIMl1PW0NIMl01

> <s_epik_cmdline>
J2VwaWtfcHl0aG9uJywgJy1waCcsICc3LjAnLCAnLXRuJywgJzgnLCAnLW1hJywgJzIwMCcsICctbWV0YWxfYmluZGluZycsICctaW1hZScsICc8aW5maWxlLm1hZT4nLCAnLW9tYWUnLCAnPG91dGZpbGUubWFlPic=

> <r_lp_tautomer_probability>
1

> <r_epik_Ionization_Penalty>
0.000130618

> <r_epik_Ionization_Penalty_Charging>
0

> <r_epik_Ionization_Penalty_Neutral>
0.000130618

> <r_epik_State_Penalty>
-0

> <r_epik_Charging_Adjusted_Penalty>
0

> <i_epik_Tot_Q>
0

> <i_epik_Tot_abs_Q>
0

> <r_epik_Metal_State_Penalty>
-0

> <b_epik_Metal_Only>
0

> <s_lp_Force_Field>
OPLS_2005

> <r_lp_Energy>
61.8297

> <b_lp_Chiralities_Consistent>
1

> <s_lp_Variant>
AV-unprocessed.smi:240-4

> <Gold.Version>
5.8.1

> <Gold.Id.Protein>
6NUR|6NUR_protein|mol2

> <Gold.PLP.Fitness>
55.2199

> <Gold.PLP.PLP>
-45.9971

> <Gold.PLP.part.hbond>
-7.9493

> <Gold.PLP.part.metal>
0.0000

> <Gold.PLP.part.buried>
-3.1212

> <Gold.PLP.part.nonpolar>
-34.9834

> <Gold.PLP.part.repulsive>
0.2134

> <Gold.PLP.ligand.clash>
0.0000

> <Gold.PLP.ligand.torsion>
1.6820

> <Gold.PLP.Chemscore.Hbond>
4.1312

> <Gold.PLP.Chemscore.CHOScore>
0.0000

> <Gold.PLP.Chemscore.Metal>
0.0000

> <Gold.Chemscore.Hbonds>
donor molecule, donor type, donor heavy atom, donor atom, acceptor molecule, acceptor atom, score
      L1  H     1    29       P1  8028  0.85
      P1  H  6896  6907       L1    16  0.84
      P1  H  6931  6943       L1    24  0.74
      P1  H  6934  6947       L1    24  0.36
      P1  H  7989  7998       L1     9  0.40
      P1  H  8011  8017       L1     9  0.40

> <Gold.PLP.Chemscore.Internal.Correction>
0.1930

> <Gold.Rescore>
     Score         DG    S(hbond)    S(metal)    S(lipo)     H(rot)  DE(clash)    DE(int)     intcor
     14.49     -19.25       2.82        0.00     102.87       3.00       0.68       4.07       ----

> <Gold.Chemscore.Fitness>
14.4932

> <Gold.Chemscore.DG>
-19.2493

> <Gold.Chemscore.ZeroCoef>
-5.4800

> <Gold.Chemscore.Hbond>
2.8215

> <Gold.Chemscore.Metal>
0.0000

> <Gold.Chemscore.Lipo>
102.8652

> <Gold.Chemscore.Internal_Hbond>
0.0000

> <Gold.Chemscore.DEClash>
0.6832

> <Gold.Chemscore.DEInternal>
4.0729

> <Gold.Chemscore.Rot>
3.0039

> <Gold.Chemscore.Internal.Correction>
   9.000000E+99

> <Gold.Chemscore.Hbonds>
donor molecule, donor type, donor heavy atom, donor atom, acceptor molecule, acceptor atom, score
      L1  H     1    29       P1  8028  0.14
      P1  H  6896  6907       L1    16  0.71
      P1  H  6931  6943       L1    24  0.69
      P1  H  6934  6947       L1    24  0.09
      P1  H  7989  7998       L1     9  0.18
      P1  H  8011  8017       L1     9  0.33

> <Gold.Chemscore.Hbond.Weighted>
-9.4239

> <Gold.Chemscore.Metal.Weighted>
-0.0000

> <Gold.Chemscore.Lipo.Weighted>
-12.0352

> <Gold.Chemscore.Internal_Hbond.Weighted>
0.0000

> <Gold.Chemscore.DEClash.Weighted>
0.6832

> <Gold.Chemscore.DEInternal.Weighted>
4.0729

> <Gold.Chemscore.Rot.Weighted>
7.6899

> <Gold.Chemscore.Internal.Correction.Weighted>
   9.000000E+99

> <Gold.Protein.RotatedTorsions>
[ 6907 6896 6895 6894 ] final  -31.06 input  -60.11 | X-H torsion
[ 7974 7965 7964 7962 ] final  174.30 input  175.53 | X-H torsion
[ 8008 7997 7996 7995 ] final   40.06 input   59.86 | X-H torsion
[ 10167 10162 10161 10158 ] final -127.10 input  -65.29 | X-H torsion
[ 10718 10713 10712 10709 ] final -164.63 input   66.30 | X-H torsion
[ 10763 10752 10751 10750 ] final  144.75 input  -60.55 | X-H torsion
[ 11005 11000 10999 10996 ] final  -88.91 input  -57.11 | X-H torsion

> <Gold.Protein.ActiveResidues>
 VAL166  LYS551  ARG553  GLY616  TRP617  ASP618  TYR619  PRO620  LYS621  CYS622 
 ASP623  PHE694  ASN695  SER759  ASP760  ASP761  ALA762  ILE779  LEU786  VAL792 
 PHE793  MET794  SER795  GLU796  ALA797  LYS798  CYS799  TRP800  GLU811  SER814 

> <Gold.Protein.RotatedAtoms>
  151.0972  134.9951  159.8430 H   0  0  0  0  0  0  0  0  0  0  0  0  # atno 6907 bound_to 6896
  152.5434  134.1994  159.8716 H   0  0  0  0  0  0  0  0  0  0  0  0  # atno 6908 bound_to 6896
  151.2034  133.4553  159.2630 H   0  0  0  0  0  0  0  0  0  0  0  0  # atno 6909 bound_to 6896
  144.7224  139.9777  143.6438 H   0  0  0  0  0  0  0  0  0  0  0  0  # atno 7974 bound_to 7965
  155.2468  140.3349  155.4286 H   0  0  0  0  0  0  0  0  0  0  0  0  # atno 8008 bound_to 7997
  156.2232  140.1818  156.7470 H   0  0  0  0  0  0  0  0  0  0  0  0  # atno 8009 bound_to 7997
  154.5858  140.0646  156.9154 H   0  0  0  0  0  0  0  0  0  0  0  0  # atno 8010 bound_to 7997
  139.9645  143.5914  152.2434 H   0  0  0  0  0  0  0  0  0  0  0  0  # atno 10167 bound_to 10162
  156.6418  130.8972  151.2997 H   0  0  0  0  0  0  0  0  0  0  0  0  # atno 10718 bound_to 10713
  153.9941  135.2929  155.3409 H   0  0  0  0  0  0  0  0  0  0  0  0  # atno 10763 bound_to 10752
  154.7198  135.5114  153.8797 H   0  0  0  0  0  0  0  0  0  0  0  0  # atno 10764 bound_to 10752
  153.0796  135.6674  154.0190 H   0  0  0  0  0  0  0  0  0  0  0  0  # atno 10765 bound_to 10752
  141.1594  133.7598  156.9519 H   0  0  0  0  0  0  0  0  0  0  0  0  # atno 11005 bound_to 11000
  146.0513  139.3513  143.0638 LP  0  0  0  0  0  0  0  0  0  0  0  0  # atno 17320 bound_to 7965
  145.8211  140.9678  143.0898 LP  0  0  0  0  0  0  0  0  0  0  0  0  # atno 17321 bound_to 7965
  139.6529  144.7661  151.2113 LP  0  0  0  0  0  0  0  0  0  0  0  0  # atno 17342 bound_to 10162
  140.7542  143.6132  150.8585 LP  0  0  0  0  0  0  0  0  0  0  0  0  # atno 17343 bound_to 10162
  157.7169  130.9508  150.1287 LP  0  0  0  0  0  0  0  0  0  0  0  0  # atno 17370 bound_to 10713
  156.2153  130.3670  149.8621 LP  0  0  0  0  0  0  0  0  0  0  0  0  # atno 17371 bound_to 10713
  140.1252  134.9392  157.2259 LP  0  0  0  0  0  0  0  0  0  0  0  0  # atno 17394 bound_to 11000
  140.3022  134.3118  155.7287 LP  0  0  0  0  0  0  0  0  0  0  0  0  # atno 17395 bound_to 11000

$$$$
