AV-unprocessed.smi:2867|AV-procd|sdf|11023|dock5
  -GOLD-   2272015483D 1   1.00000     0.00000
 Structure written by MMmdl.
 40 42  0  0  0  0  0  0  0  0  1 V2000
  151.2578  137.8843  154.3776 C   0  0  0  0  0  0  0  0  0  0  0  0
  151.0709  139.2798  154.5354 O   0  0  0  0  0  0  0  0  0  0  0  0
  151.4568  139.7344  155.8203 C   0  0  0  0  0  0  0  0  0  0  0  0
  151.0419  141.2021  155.9739 C   0  0  0  0  0  0  0  0  0  0  0  0
  149.8386  141.3302  156.7801 N   0  0  0  0  0  0  0  0  0  0  0  0
  149.7327  141.8271  158.0389 C   0  0  0  0  0  0  0  0  0  0  0  0
  150.8593  142.3202  158.8183 C   0  0  0  0  0  0  0  0  0  0  0  0
  151.8874  141.4417  159.2207 C   0  0  0  0  0  0  0  0  0  0  0  0
  152.9757  141.9263  159.9724 C   0  0  0  0  0  0  0  0  0  0  0  0
  153.0366  143.2880  160.3270 C   0  0  0  0  0  0  0  0  0  0  0  0
  152.0081  144.1655  159.9318 C   0  0  0  0  0  0  0  0  0  0  0  0
  152.0660  145.4744  160.2740 F   0  0  0  0  0  0  0  0  0  0  0  0
  150.9196  143.6822  159.1801 C   0  0  0  0  0  0  0  0  0  0  0  0
  148.4923  141.8561  158.5309 N   0  0  0  0  0  0  0  0  0  0  0  0
  147.7326  141.3329  157.5035 C   0  0  0  0  0  0  0  0  0  0  0  0
  146.3405  141.1098  157.4122 C   0  0  0  0  0  0  0  0  0  0  0  0
  145.7898  140.5640  156.2334 C   0  0  0  0  0  0  0  0  0  0  0  0
  144.0254  140.2919  156.1338 S   0  0  0  0  0  0  0  0  0  0  0  0
  143.5567  141.4475  154.9501 N   0  0  0  0  0  0  0  0  0  0  0  0
  143.7707  138.9536  155.5785 O   0  0  0  0  0  0  0  0  0  0  0  0
  143.4245  140.7033  157.4119 O   0  0  0  0  0  0  0  0  0  0  0  0
  146.6102  140.2331  155.1343 C   0  0  0  0  0  0  0  0  0  0  0  0
  147.9994  140.4493  155.2110 C   0  0  0  0  0  0  0  0  0  0  0  0
  148.5478  140.9935  156.3883 C   0  0  0  0  0  0  0  0  0  0  0  0
  150.9402  137.5827  153.3796 H   0  0  0  0  0  0  0  0  0  0  0  0
  150.6675  137.3222  155.1028 H   0  0  0  0  0  0  0  0  0  0  0  0
  152.3077  137.6118  154.4940 H   0  0  0  0  0  0  0  0  0  0  0  0
  150.9786  139.1256  156.5896 H   0  0  0  0  0  0  0  0  0  0  0  0
  152.5367  139.6351  155.9439 H   0  0  0  0  0  0  0  0  0  0  0  0
  151.8428  141.7730  156.4442 H   0  0  0  0  0  0  0  0  0  0  0  0
  150.8752  141.6562  154.9974 H   0  0  0  0  0  0  0  0  0  0  0  0
  151.8445  140.3963  158.9518 H   0  0  0  0  0  0  0  0  0  0  0  0
  153.7637  141.2535  160.2773 H   0  0  0  0  0  0  0  0  0  0  0  0
  153.8713  143.6590  160.9032 H   0  0  0  0  0  0  0  0  0  0  0  0
  150.1335  144.3589  158.8775 H   0  0  0  0  0  0  0  0  0  0  0  0
  145.7028  141.3624  158.2464 H   0  0  0  0  0  0  0  0  0  0  0  0
  143.6041  141.0543  154.0106 H   0  0  0  0  0  0  0  0  0  0  0  0
  144.1156  142.2974  155.0231 H   0  0  0  0  0  0  0  0  0  0  0  0
  146.1805  139.8190  154.2339 H   0  0  0  0  0  0  0  0  0  0  0  0
  148.6346  140.2020  154.3734 H   0  0  0  0  0  0  0  0  0  0  0  0
  1  2  1  0  0  0  0
  1 25  1  0  0  0  0
  1 26  1  0  0  0  0
  1 27  1  0  0  0  0
  2  3  1  0  0  0  0
  3  4  1  0  0  0  0
  3 28  1  0  0  0  0
  3 29  1  0  0  0  0
  4  5  1  0  0  0  0
  4 30  1  0  0  0  0
  4 31  1  0  0  0  0
  5 24  1  0  0  0  0
  5  6  1  0  0  0  0
  6  7  1  0  0  0  0
  6 14  2  0  0  0  0
  7 13  1  0  0  0  0
  7  8  2  0  0  0  0
  8  9  1  0  0  0  0
  8 32  1  0  0  0  0
  9 10  2  0  0  0  0
  9 33  1  0  0  0  0
 10 11  1  0  0  0  0
 10 34  1  0  0  0  0
 11 12  1  0  0  0  0
 11 13  2  0  0  0  0
 13 35  1  0  0  0  0
 14 15  1  0  0  0  0
 15 24  2  0  0  0  0
 15 16  1  0  0  0  0
 16 17  2  0  0  0  0
 16 36  1  0  0  0  0
 17 18  1  0  0  0  0
 17 22  1  0  0  0  0
 18 19  1  0  0  0  0
 18 20  2  0  0  0  0
 18 21  2  0  0  0  0
 19 37  1  0  0  0  0
 19 38  1  0  0  0  0
 22 23  2  0  0  0  0
 22 39  1  0  0  0  0
 23 24  1  0  0  0  0
 23 40  1  0  0  0  0
M  END
> <s_m_source_file>
AV-unprocessed.smi

> <i_m_source_file_index>
2867

> <i_lp_mmshare_version>
43012

> <i_f3d_flags>
0

> <s_epik_input>
W05IMl1TKD1PKSg9TyljKFtjSF0xKVtjSF1bY0hdYyhjMTIpbihbQ0gyXVtDSDJdT1tDSDNdKWMobjIpLWMzW2NIXVtjSF1bY0hdYyhGKVtjSF0z

> <s_epik_cmdline>
J2VwaWtfcHl0aG9uJywgJy1waCcsICc3LjAnLCAnLXRuJywgJzgnLCAnLW1hJywgJzIwMCcsICctbWV0YWxfYmluZGluZycsICctaW1hZScsICc8aW5maWxlLm1hZT4nLCAnLW9tYWUnLCAnPG91dGZpbGUubWFlPic=

> <r_epik_Ionization_Penalty>
0.0786023

> <r_epik_Ionization_Penalty_Charging>
0

> <r_epik_Ionization_Penalty_Neutral>
0.0786023

> <r_epik_State_Penalty>
0.0592545

> <r_epik_Charging_Adjusted_Penalty>
0.0592545

> <i_epik_Tot_Q>
0

> <i_epik_Tot_abs_Q>
0

> <r_epik_Metal_State_Penalty>
0.300641

> <b_epik_Metal_Only>
0

> <s_lp_Force_Field>
OPLS_2005

> <r_lp_Energy>
19.4946

> <b_lp_Chiralities_Consistent>
1

> <s_lp_Variant>
AV-unprocessed.smi:2867-1

> <Gold.Version>
5.8.1

> <Gold.Id.Protein>
6NUR|6NUR_protein|mol2

> <Gold.PLP.Fitness>
44.1464

> <Gold.PLP.PLP>
-40.4849

> <Gold.PLP.part.hbond>
-3.3451

> <Gold.PLP.part.metal>
0.0000

> <Gold.PLP.part.buried>
-5.8382

> <Gold.PLP.part.nonpolar>
-30.5232

> <Gold.PLP.part.repulsive>
0.3053

> <Gold.PLP.ligand.clash>
0.0000

> <Gold.PLP.ligand.torsion>
2.6867

> <Gold.PLP.Chemscore.Hbond>
2.0000

> <Gold.PLP.Chemscore.CHOScore>
0.0000

> <Gold.PLP.Chemscore.Metal>
0.0000

> <Gold.Chemscore.Hbonds>
donor molecule, donor type, donor heavy atom, donor atom, acceptor molecule, acceptor atom, score
      L1  H    19    37       P1 10175  1.00
      P1  H  7989  7998       L1     2  0.95

> <Gold.PLP.Chemscore.Internal.Correction>
3.0349

> <Gold.Rescore>
     Score         DG    S(hbond)    S(metal)    S(lipo)     H(rot)  DE(clash)    DE(int)     intcor
     14.01     -16.72       1.03        0.00      98.62       1.45       0.17       2.54       ----

> <Gold.Chemscore.Fitness>
14.0089

> <Gold.Chemscore.DG>
-16.7250

> <Gold.Chemscore.ZeroCoef>
-5.4800

> <Gold.Chemscore.Hbond>
1.0257

> <Gold.Chemscore.Metal>
0.0000

> <Gold.Chemscore.Lipo>
98.6230

> <Gold.Chemscore.Internal_Hbond>
0.0000

> <Gold.Chemscore.DEClash>
0.1728

> <Gold.Chemscore.DEInternal>
2.5433

> <Gold.Chemscore.Rot>
1.4530

> <Gold.Chemscore.Internal.Correction>
   9.000000E+99

> <Gold.Chemscore.Hbonds>
donor molecule, donor type, donor heavy atom, donor atom, acceptor molecule, acceptor atom, score
      L1  H    19    37       P1 10175  0.54
      P1  H  7989  7998       L1     2  0.21

> <Gold.Chemscore.Hbond.Weighted>
-3.4257

> <Gold.Chemscore.Metal.Weighted>
-0.0000

> <Gold.Chemscore.Lipo.Weighted>
-11.5389

> <Gold.Chemscore.Internal_Hbond.Weighted>
0.0000

> <Gold.Chemscore.DEClash.Weighted>
0.1728

> <Gold.Chemscore.DEInternal.Weighted>
2.5433

> <Gold.Chemscore.Rot.Weighted>
3.7196

> <Gold.Chemscore.Internal.Correction.Weighted>
   9.000000E+99

> <Gold.Protein.RotatedTorsions>
[ 6907 6896 6895 6894 ] final -166.58 input  -60.11 | X-H torsion
[ 7974 7965 7964 7962 ] final  -23.42 input  175.53 | X-H torsion
[ 8008 7997 7996 7995 ] final -100.14 input   59.86 | X-H torsion
[ 10167 10162 10161 10158 ] final  128.91 input  -65.29 | X-H torsion
[ 10718 10713 10712 10709 ] final   70.92 input   66.30 | X-H torsion
[ 10763 10752 10751 10750 ] final   48.96 input  -60.55 | X-H torsion
[ 11005 11000 10999 10996 ] final -121.83 input  -57.11 | X-H torsion

> <Gold.Protein.ActiveResidues>
 VAL166  LYS551  ARG553  GLY616  TRP617  ASP618  TYR619  PRO620  LYS621  CYS622 
 ASP623  PHE694  ASN695  SER759  ASP760  ASP761  ALA762  ILE779  LEU786  VAL792 
 PHE793  MET794  SER795  GLU796  ALA797  LYS798  CYS799  TRP800  GLU811  SER814 

> <Gold.Protein.RotatedAtoms>
  151.4459  133.3630  159.2788 H   0  0  0  0  0  0  0  0  0  0  0  0  # atno 6907 bound_to 6896
  150.9125  134.8543  159.7445 H   0  0  0  0  0  0  0  0  0  0  0  0  # atno 6908 bound_to 6896
  152.4940  134.4390  159.9589 H   0  0  0  0  0  0  0  0  0  0  0  0  # atno 6909 bound_to 6896
  146.1617  140.4613  142.8568 H   0  0  0  0  0  0  0  0  0  0  0  0  # atno 7974 bound_to 7965
  154.8245  140.0443  157.1434 H   0  0  0  0  0  0  0  0  0  0  0  0  # atno 8008 bound_to 7997
  154.9222  140.3028  155.5190 H   0  0  0  0  0  0  0  0  0  0  0  0  # atno 8009 bound_to 7997
  156.2982  140.2338  156.4273 H   0  0  0  0  0  0  0  0  0  0  0  0  # atno 8010 bound_to 7997
  139.5504  144.6808  151.4343 H   0  0  0  0  0  0  0  0  0  0  0  0  # atno 10167 bound_to 10162
  157.6425  130.9502  150.0718 H   0  0  0  0  0  0  0  0  0  0  0  0  # atno 10718 bound_to 10713
  152.9789  135.5927  154.4010 H   0  0  0  0  0  0  0  0  0  0  0  0  # atno 10763 bound_to 10752
  154.3656  135.2767  155.2297 H   0  0  0  0  0  0  0  0  0  0  0  0  # atno 10764 bound_to 10752
  154.4275  135.6044  153.6103 H   0  0  0  0  0  0  0  0  0  0  0  0  # atno 10765 bound_to 10752
  141.0041  134.0360  157.3500 H   0  0  0  0  0  0  0  0  0  0  0  0  # atno 11005 bound_to 11000
  144.8036  140.6259  143.6462 LP  0  0  0  0  0  0  0  0  0  0  0  0  # atno 17320 bound_to 7965
  145.4571  139.1517  143.3886 LP  0  0  0  0  0  0  0  0  0  0  0  0  # atno 17321 bound_to 7965
  140.6764  143.8180  150.7064 LP  0  0  0  0  0  0  0  0  0  0  0  0  # atno 17342 bound_to 10162
  140.1620  143.4268  152.2060 LP  0  0  0  0  0  0  0  0  0  0  0  0  # atno 17343 bound_to 10162
  156.1720  130.3647  149.9152 LP  0  0  0  0  0  0  0  0  0  0  0  0  # atno 17370 bound_to 10713
  156.7125  130.8976  151.3611 LP  0  0  0  0  0  0  0  0  0  0  0  0  # atno 17371 bound_to 10713
  139.9054  135.0178  156.7461 LP  0  0  0  0  0  0  0  0  0  0  0  0  # atno 17394 bound_to 11000
  140.6841  133.9448  155.7928 LP  0  0  0  0  0  0  0  0  0  0  0  0  # atno 17395 bound_to 11000

$$$$
