AV-unprocessed.smi:103|AV-procd|sdf|983|dock4
  -GOLD-   2262017553D 1   1.00000     0.00000
 Structure written by MMmdl.
 53 55  0  0  0  0  0  0  0  0  1 V2000
  154.8121  139.8356  161.2947 C   0  0  0  0  0  0  0  0  0  0  0  0
  154.3389  139.5578  159.8740 C   0  0  0  0  0  0  0  0  0  0  0  0
  154.6108  140.3176  158.9444 O   0  0  0  0  0  0  0  0  0  0  0  0
  153.6217  138.4286  159.7879 O   0  0  0  0  0  0  0  0  0  0  0  0
  152.8837  138.1483  158.6099 C   0  0  0  0  0  0  0  0  0  0  0  0
  151.4138  138.5238  158.8302 C   0  0  2  0  0  0  0  0  0  0  0  0
  150.7280  137.4381  159.4333 O   0  0  0  0  0  0  0  0  0  0  0  0
  149.3699  137.5202  159.1368 C   0  0  2  0  0  0  0  0  0  0  0  0
  148.8840  136.1292  158.8491 N   0  0  0  0  0  0  0  0  0  0  0  0
  147.8920  135.3915  159.4646 C   0  0  0  0  0  0  0  0  0  0  0  0
  146.8502  135.9262  160.8184 S   0  0  0  0  0  0  0  0  0  0  0  0
  147.4476  134.8742  162.2039 C   0  0  0  0  0  0  0  0  0  0  0  0
  147.1953  137.3290  161.0979 O   0  0  0  0  0  0  0  0  0  0  0  0
  145.4695  135.5505  160.4786 O   0  0  0  0  0  0  0  0  0  0  0  0
  147.6413  134.2124  158.9630 N   0  0  0  0  0  0  0  0  0  0  0  0
  148.5554  134.1106  157.9243 C   0  0  0  0  0  0  0  0  0  0  0  0
  148.8491  133.1090  156.9650 C   0  0  0  0  0  0  0  0  0  0  0  0
  148.2041  131.9353  156.9118 N   0  0  0  0  0  0  0  0  0  0  0  0
  149.8243  133.3488  156.0577 N   0  0  0  0  0  0  0  0  0  0  0  0
  150.4804  134.5133  156.0874 C   0  0  0  0  0  0  0  0  0  0  0  0
  150.3181  135.5422  156.9231 N   0  0  0  0  0  0  0  0  0  0  0  0
  149.3373  135.2982  157.8421 C   0  0  0  0  0  0  0  0  0  0  0  0
  149.2006  138.4695  157.9305 C   0  0  2  0  0  0  0  0  0  0  0  0
  148.4959  137.8601  156.8524 O   0  0  0  0  0  0  0  0  0  0  0  0
  148.0346  138.6014  155.8344 C   0  0  0  0  0  0  0  0  0  0  0  0
  147.3051  137.7619  154.7947 C   0  0  0  0  0  0  0  0  0  0  0  0
  148.1578  139.8197  155.7092 O   0  0  0  0  0  0  0  0  0  0  0  0
  150.6363  138.7858  157.5398 C   0  0  1  0  0  0  0  0  0  0  0  0
  150.7284  140.1515  157.1525 O   0  0  0  0  0  0  0  0  0  0  0  0
  150.8240  140.4901  155.8550 C   0  0  0  0  0  0  0  0  0  0  0  0
  150.2647  141.8785  155.5768 C   0  0  0  0  0  0  0  0  0  0  0  0
  151.3066  139.8013  154.9565 O   0  0  0  0  0  0  0  0  0  0  0  0
  155.6495  139.1853  161.5475 H   0  0  0  0  0  0  0  0  0  0  0  0
  154.0058  139.6559  162.0063 H   0  0  0  0  0  0  0  0  0  0  0  0
  155.1353  140.8720  161.3945 H   0  0  0  0  0  0  0  0  0  0  0  0
  153.2854  138.6966  157.7562 H   0  0  0  0  0  0  0  0  0  0  0  0
  152.9702  137.0844  158.3856 H   0  0  0  0  0  0  0  0  0  0  0  0
  151.3306  139.3773  159.5057 H   0  0  0  0  0  0  0  0  0  0  0  0
  148.8204  137.8581  160.0109 H   0  0  0  0  0  0  0  0  0  0  0  0
  146.9175  135.1438  163.1170 H   0  0  0  0  0  0  0  0  0  0  0  0
  148.5168  135.0315  162.3447 H   0  0  0  0  0  0  0  0  0  0  0  0
  147.2625  133.8254  161.9776 H   0  0  0  0  0  0  0  0  0  0  0  0
  147.4709  131.7333  157.5763 H   0  0  0  0  0  0  0  0  0  0  0  0
  148.4571  131.2523  156.2126 H   0  0  0  0  0  0  0  0  0  0  0  0
  151.2444  134.6389  155.3342 H   0  0  0  0  0  0  0  0  0  0  0  0
  148.6905  139.3622  158.2969 H   0  0  0  0  0  0  0  0  0  0  0  0
  146.4632  137.2419  155.2518 H   0  0  0  0  0  0  0  0  0  0  0  0
  147.9800  137.0205  154.3668 H   0  0  0  0  0  0  0  0  0  0  0  0
  146.9275  138.3919  153.9890 H   0  0  0  0  0  0  0  0  0  0  0  0
  150.9619  138.0913  156.7634 H   0  0  0  0  0  0  0  0  0  0  0  0
  149.3310  142.0293  156.1189 H   0  0  0  0  0  0  0  0  0  0  0  0
  150.0691  142.0053  154.5121 H   0  0  0  0  0  0  0  0  0  0  0  0
  150.9769  142.6415  155.8914 H   0  0  0  0  0  0  0  0  0  0  0  0
  1  2  1  0  0  0  0
  1 33  1  0  0  0  0
  1 34  1  0  0  0  0
  1 35  1  0  0  0  0
  2  3  2  0  0  0  0
  2  4  1  0  0  0  0
  4  5  1  0  0  0  0
  5  6  1  0  0  0  0
  5 36  1  0  0  0  0
  5 37  1  0  0  0  0
  6 28  1  0  0  0  0
  6  7  1  0  0  0  0
  6 38  1  0  0  0  0
  7  8  1  0  0  0  0
  8  9  1  0  0  0  0
  8 23  1  0  0  0  0
  8 39  1  0  0  0  0
  9 22  1  0  0  0  0
  9 10  1  0  0  0  0
 10 11  1  0  0  0  0
 10 15  2  0  0  0  0
 11 12  1  0  0  0  0
 11 13  2  0  0  0  0
 11 14  2  0  0  0  0
 12 40  1  0  0  0  0
 12 41  1  0  0  0  0
 12 42  1  0  0  0  0
 15 16  1  0  0  0  0
 16 22  2  0  0  0  0
 16 17  1  0  0  0  0
 17 18  1  0  0  0  0
 17 19  2  0  0  0  0
 18 43  1  0  0  0  0
 18 44  1  0  0  0  0
 19 20  1  0  0  0  0
 20 21  2  0  0  0  0
 20 45  1  0  0  0  0
 21 22  1  0  0  0  0
 23 24  1  0  0  0  0
 23 28  1  0  0  0  0
 23 46  1  0  0  0  0
 24 25  1  0  0  0  0
 25 26  1  0  0  0  0
 25 27  2  0  0  0  0
 26 47  1  0  0  0  0
 26 48  1  0  0  0  0
 26 49  1  0  0  0  0
 28 29  1  0  0  0  0
 28 50  1  0  0  0  0
 29 30  1  0  0  0  0
 30 31  1  0  0  0  0
 30 32  2  0  0  0  0
 31 51  1  0  0  0  0
 31 52  1  0  0  0  0
 31 53  1  0  0  0  0
M  END
> <s_m_source_file>
AV-unprocessed.smi

> <i_m_source_file_index>
103

> <i_lp_mmshare_version>
43012

> <i_f3d_flags>
0

> <s_epik_input>
W0NIM11DKD1PKU9bQ0gyXVtDQEBIXTFPW0NASF0oW0NAQEhdKE9DKD1PKVtDSDNdKVtDQEhdMU9DKD1PKVtDSDNdKW4oYyhuMilTKD1PKSg9TylbQ0gzXSljKGMyMyluW2NIXW5jM1tOSDJd

> <s_epik_cmdline>
J2VwaWtfcHl0aG9uJywgJy1waCcsICc3LjAnLCAnLXRuJywgJzgnLCAnLW1hJywgJzIwMCcsICctbWV0YWxfYmluZGluZycsICctaW1hZScsICc8aW5maWxlLm1hZT4nLCAnLW9tYWUnLCAnPG91dGZpbGUubWFlPic=

> <r_lp_tautomer_probability>
1

> <r_epik_Ionization_Penalty>
1.51338e-05

> <r_epik_Ionization_Penalty_Charging>
0

> <r_epik_Ionization_Penalty_Neutral>
1.51338e-05

> <r_epik_State_Penalty>
-0

> <r_epik_Charging_Adjusted_Penalty>
0

> <i_epik_Tot_Q>
0

> <i_epik_Tot_abs_Q>
0

> <r_epik_Metal_State_Penalty>
-0

> <b_epik_Metal_Only>
0

> <s_epik_Chemistry_Notes>
This compound has an ester and may undergo hydrolysis at high or low pH. This compound contains an acetal/aminal-like group ( X-CH(R)-Y where X, Y are N, S, or O) that may be acid/base labile, releasing an aldehyde.

> <s_lp_Force_Field>
OPLS_2005

> <r_lp_Energy>
14.5233

> <b_lp_Chiralities_Consistent>
1

> <s_lp_Variant>
AV-unprocessed.smi:103-7

> <Gold.Version>
5.8.1

> <Gold.Id.Protein>
6NUR|6NUR_protein|mol2

> <Gold.PLP.Fitness>
42.7705

> <Gold.PLP.PLP>
-31.3270

> <Gold.PLP.part.hbond>
-5.0000

> <Gold.PLP.part.metal>
0.0000

> <Gold.PLP.part.buried>
-7.1086

> <Gold.PLP.part.nonpolar>
-19.9810

> <Gold.PLP.part.repulsive>
0.0528

> <Gold.PLP.ligand.clash>
0.0000

> <Gold.PLP.ligand.torsion>
2.7735

> <Gold.PLP.Chemscore.Hbond>
4.8880

> <Gold.PLP.Chemscore.CHOScore>
0.0000

> <Gold.PLP.Chemscore.Metal>
0.0000

> <Gold.Chemscore.Hbonds>
donor molecule, donor type, donor heavy atom, donor atom, acceptor molecule, acceptor atom, score
      P1  H  6896  6907       L1     7  0.05
      P1  H  6931  6943       L1    13  0.43
      P1  H  6934  6947       L1    13  1.00
      P1  H  7989  7998       L1    32  1.00
      P1  H  7997  8008       L1     3  0.74

> <Gold.PLP.Chemscore.Internal.Correction>
2.3266

> <Gold.Rescore>
     Score         DG    S(hbond)    S(metal)    S(lipo)     H(rot)  DE(clash)    DE(int)     intcor
      7.65     -12.00       3.89        0.00      37.59       4.25       0.00       4.36       ----

> <Gold.Chemscore.Fitness>
7.6462

> <Gold.Chemscore.DG>
-12.0025

> <Gold.Chemscore.ZeroCoef>
-5.4800

> <Gold.Chemscore.Hbond>
3.8903

> <Gold.Chemscore.Metal>
0.0000

> <Gold.Chemscore.Lipo>
37.5874

> <Gold.Chemscore.Internal_Hbond>
0.0000

> <Gold.Chemscore.DEClash>
0.0000

> <Gold.Chemscore.DEInternal>
4.3563

> <Gold.Chemscore.Rot>
4.2456

> <Gold.Chemscore.Internal.Correction>
   9.000000E+99

> <Gold.Chemscore.Hbonds>
donor molecule, donor type, donor heavy atom, donor atom, acceptor molecule, acceptor atom, score
      P1  H  6896  6907       L1     7  0.06
      P1  H  6931  6943       L1    13  0.43
      P1  H  6934  6947       L1    13  0.99
      P1  H  7989  7998       L1    32  0.70
      P1  H  7997  8008       L1     3  0.74

> <Gold.Chemscore.Hbond.Weighted>
-12.9934

> <Gold.Chemscore.Metal.Weighted>
-0.0000

> <Gold.Chemscore.Lipo.Weighted>
-4.3977

> <Gold.Chemscore.Internal_Hbond.Weighted>
0.0000

> <Gold.Chemscore.DEClash.Weighted>
0.0000

> <Gold.Chemscore.DEInternal.Weighted>
4.3563

> <Gold.Chemscore.Rot.Weighted>
10.8687

> <Gold.Chemscore.Internal.Correction.Weighted>
   9.000000E+99

> <Gold.Protein.RotatedTorsions>
[ 6907 6896 6895 6894 ] final  -21.10 input  -60.11 | X-H torsion
[ 7974 7965 7964 7962 ] final  138.18 input  175.53 | X-H torsion
[ 8008 7997 7996 7995 ] final -132.08 input   59.86 | X-H torsion
[ 10167 10162 10161 10158 ] final   64.19 input  -65.29 | X-H torsion
[ 10718 10713 10712 10709 ] final   81.24 input   66.30 | X-H torsion
[ 10763 10752 10751 10750 ] final -143.54 input  -60.55 | X-H torsion
[ 11005 11000 10999 10996 ] final -148.14 input  -57.11 | X-H torsion

> <Gold.Protein.ActiveResidues>
 VAL166  LYS551  ARG553  GLY616  TRP617  ASP618  TYR619  PRO620  LYS621  CYS622 
 ASP623  PHE694  ASN695  SER759  ASP760  ASP761  ALA762  ILE779  LEU786  VAL792 
 PHE793  MET794  SER795  GLU796  ALA797  LYS798  CYS799  TRP800  GLU811  SER814 

> <Gold.Protein.RotatedAtoms>
  151.2384  135.0580  159.9015 H   0  0  0  0  0  0  0  0  0  0  0  0  # atno 6907 bound_to 6896
  152.5396  134.0461  159.8099 H   0  0  0  0  0  0  0  0  0  0  0  0  # atno 6908 bound_to 6896
  151.0651  133.5463  159.2663 H   0  0  0  0  0  0  0  0  0  0  0  0  # atno 6909 bound_to 6896
  144.9397  139.4946  143.5578 H   0  0  0  0  0  0  0  0  0  0  0  0  # atno 7974 bound_to 7965
  155.3230  140.0463  157.3040 H   0  0  0  0  0  0  0  0  0  0  0  0  # atno 8008 bound_to 7997
  154.5370  140.2275  155.8672 H   0  0  0  0  0  0  0  0  0  0  0  0  # atno 8009 bound_to 7997
  156.1844  140.3066  155.9217 H   0  0  0  0  0  0  0  0  0  0  0  0  # atno 8010 bound_to 7997
  140.1248  144.4697  150.6899 H   0  0  0  0  0  0  0  0  0  0  0  0  # atno 10167 bound_to 10162
  157.6828  130.9995  150.2198 H   0  0  0  0  0  0  0  0  0  0  0  0  # atno 10718 bound_to 10713
  154.8465  135.3465  154.6204 H   0  0  0  0  0  0  0  0  0  0  0  0  # atno 10763 bound_to 10752
  153.6812  135.6980  153.5122 H   0  0  0  0  0  0  0  0  0  0  0  0  # atno 10764 bound_to 10752
  153.2666  135.4306  155.0903 H   0  0  0  0  0  0  0  0  0  0  0  0  # atno 10765 bound_to 10752
  140.7644  134.3262  157.5093 H   0  0  0  0  0  0  0  0  0  0  0  0  # atno 11005 bound_to 11000
  146.3281  139.8407  142.8891 LP  0  0  0  0  0  0  0  0  0  0  0  0  # atno 17320 bound_to 7965
  145.3011  141.0194  143.3608 LP  0  0  0  0  0  0  0  0  0  0  0  0  # atno 17321 bound_to 7965
  140.6851  143.2346  151.5282 LP  0  0  0  0  0  0  0  0  0  0  0  0  # atno 17342 bound_to 10162
  139.5550  144.2300  152.1596 LP  0  0  0  0  0  0  0  0  0  0  0  0  # atno 17343 bound_to 10162
  156.2852  130.3738  149.7896 LP  0  0  0  0  0  0  0  0  0  0  0  0  # atno 17370 bound_to 10713
  156.5572  130.8368  151.3318 LP  0  0  0  0  0  0  0  0  0  0  0  0  # atno 17371 bound_to 10713
  139.8765  134.9222  156.3294 LP  0  0  0  0  0  0  0  0  0  0  0  0  # atno 17394 bound_to 11000
  140.9633  133.7374  156.0432 LP  0  0  0  0  0  0  0  0  0  0  0  0  # atno 17395 bound_to 11000

$$$$
