AV-unprocessed.smi:2110|AV-procd|sdf|8610|dock2
  -GOLD-   2272011353D 1   1.00000     0.00000
 Structure written by MMmdl.
 45 46  0  0  0  0  0  0  0  0  2 V2000
  151.1530  142.7784  158.7871 C   0  0  0  0  0  0  0  0  0  0  0  0
  151.7243  141.4653  158.2273 C   0  0  0  0  0  0  0  0  0  0  0  0
  151.0099  140.9893  157.0252 N   0  0  0  0  0  0  0  0  0  0  0  0
  150.0399  141.9193  156.4126 C   0  0  0  0  0  0  0  0  0  0  0  0
  148.8275  141.2049  155.7962 C   0  0  0  0  0  0  0  0  0  0  0  0
  151.5923  139.6118  156.1320 S   0  0  0  0  0  0  0  0  0  0  0  0
  150.9384  139.6691  154.8140 O   0  0  0  0  0  0  0  0  0  0  0  0
  153.0621  139.6829  156.1731 O   0  0  0  0  0  0  0  0  0  0  0  0
  150.9883  138.4648  157.1033 N   0  5  0  0  0  0  0  0  0  0  0  0
  149.9189  137.6153  156.6144 C   0  0  0  0  0  0  0  0  0  0  0  0
  150.1382  136.1582  157.0001 C   0  0  0  0  0  0  0  0  0  0  0  0
  150.5005  135.2016  156.0259 C   0  0  0  0  0  0  0  0  0  0  0  0
  150.6875  133.8687  156.4339 C   0  0  0  0  0  0  0  0  0  0  0  0
  150.5487  133.4573  157.7110 N   0  0  0  0  0  0  0  0  0  0  0  0
  150.2104  134.3660  158.6589 C   0  0  0  0  0  0  0  0  0  0  0  0
  150.0805  133.9220  159.9933 N   0  0  0  0  0  0  0  0  0  0  0  0
  149.2917  132.7065  160.1792 C   0  0  0  0  0  0  0  0  0  0  0  0
  149.4781  132.1599  161.6051 C   0  0  0  0  0  0  0  0  0  0  0  0
  149.1630  133.1721  162.5555 O   0  0  0  0  0  0  0  0  0  0  0  0
  150.0183  134.3029  162.4263 C   0  0  0  0  0  0  0  0  0  0  0  0
  149.8472  134.9254  161.0304 C   0  0  0  0  0  0  0  0  0  0  0  0
  149.9884  135.7273  158.3386 C   0  0  0  0  0  0  0  0  0  0  0  0
  151.6557  143.0497  159.7151 H   0  0  0  0  0  0  0  0  0  0  0  0
  150.0872  142.7027  158.9995 H   0  0  0  0  0  0  0  0  0  0  0  0
  151.2948  143.6045  158.0904 H   0  0  0  0  0  0  0  0  0  0  0  0
  152.7754  141.6060  157.9751 H   0  0  0  0  0  0  0  0  0  0  0  0
  151.7000  140.6935  158.9971 H   0  0  0  0  0  0  0  0  0  0  0  0
  149.6970  142.6318  157.1622 H   0  0  0  0  0  0  0  0  0  0  0  0
  150.5489  142.5056  155.6474 H   0  0  0  0  0  0  0  0  0  0  0  0
  148.1127  141.9321  155.4115 H   0  0  0  0  0  0  0  0  0  0  0  0
  148.3054  140.5914  156.5298 H   0  0  0  0  0  0  0  0  0  0  0  0
  149.1170  140.5653  154.9630 H   0  0  0  0  0  0  0  0  0  0  0  0
  148.9508  137.9133  157.0179 H   0  0  0  0  0  0  0  0  0  0  0  0
  149.8173  137.6840  155.5307 H   0  0  0  0  0  0  0  0  0  0  0  0
  150.6264  135.4675  154.9852 H   0  0  0  0  0  0  0  0  0  0  0  0
  150.9584  133.1106  155.7142 H   0  0  0  0  0  0  0  0  0  0  0  0
  148.2408  132.9404  160.0045 H   0  0  0  0  0  0  0  0  0  0  0  0
  149.5655  131.9316  159.4647 H   0  0  0  0  0  0  0  0  0  0  0  0
  148.8217  131.3048  161.7673 H   0  0  0  0  0  0  0  0  0  0  0  0
  150.5004  131.8088  161.7558 H   0  0  0  0  0  0  0  0  0  0  0  0
  149.7629  135.0314  163.1959 H   0  0  0  0  0  0  0  0  0  0  0  0
  151.0556  134.0096  162.5965 H   0  0  0  0  0  0  0  0  0  0  0  0
  150.5454  135.7556  160.9168 H   0  0  0  0  0  0  0  0  0  0  0  0
  148.8393  135.3288  160.9234 H   0  0  0  0  0  0  0  0  0  0  0  0
  149.6945  136.4252  159.1104 H   0  0  0  0  0  0  0  0  0  0  0  0
  1  2  1  0  0  0  0
  1 23  1  0  0  0  0
  1 24  1  0  0  0  0
  1 25  1  0  0  0  0
  2  3  1  0  0  0  0
  2 26  1  0  0  0  0
  2 27  1  0  0  0  0
  3  4  1  0  0  0  0
  3  6  1  0  0  0  0
  4  5  1  0  0  0  0
  4 28  1  0  0  0  0
  4 29  1  0  0  0  0
  5 30  1  0  0  0  0
  5 31  1  0  0  0  0
  5 32  1  0  0  0  0
  6  7  2  0  0  0  0
  6  8  2  0  0  0  0
  6  9  1  0  0  0  0
  9 10  1  0  0  0  0
 10 11  1  0  0  0  0
 10 33  1  0  0  0  0
 10 34  1  0  0  0  0
 11 22  1  0  0  0  0
 11 12  2  0  0  0  0
 12 13  1  0  0  0  0
 12 35  1  0  0  0  0
 13 14  2  0  0  0  0
 13 36  1  0  0  0  0
 14 15  1  0  0  0  0
 15 16  1  0  0  0  0
 15 22  2  0  0  0  0
 16 21  1  0  0  0  0
 16 17  1  0  0  0  0
 17 18  1  0  0  0  0
 17 37  1  0  0  0  0
 17 38  1  0  0  0  0
 18 19  1  0  0  0  0
 18 39  1  0  0  0  0
 18 40  1  0  0  0  0
 19 20  1  0  0  0  0
 20 21  1  0  0  0  0
 20 41  1  0  0  0  0
 20 42  1  0  0  0  0
 21 43  1  0  0  0  0
 21 44  1  0  0  0  0
 22 45  1  0  0  0  0
M  CHG  1   9  -1
M  END
> <s_m_source_file>
AV-unprocessed.smi

> <i_m_source_file_index>
2110

> <i_lp_mmshare_version>
43012

> <i_f3d_flags>
0

> <s_epik_input>
W0NIM11bQ0gyXU4oW0NIMl1bQ0gzXSlTKD1PKSg9TylbTkhdW0NIMl1jMVtjSF1bY0hdbmMoW2NIXTEpTjJbQ0gyXVtDSDJdT1tDSDJdW0NIMl0y

> <s_epik_cmdline>
J2VwaWtfcHl0aG9uJywgJy1waCcsICc3LjAnLCAnLXRuJywgJzgnLCAnLW1hJywgJzIwMCcsICctbWV0YWxfYmluZGluZycsICctaW1hZScsICc8aW5maWxlLm1hZT4nLCAnLW9tYWUnLCAnPG91dGZpbGUubWFlPic=

> <r_lp_tautomer_probability>
1

> <r_epik_Ionization_Penalty>
2.67693

> <r_epik_Ionization_Penalty_Charging>
2.41478

> <r_epik_Ionization_Penalty_Neutral>
0.262148

> <r_epik_State_Penalty>
2.66454

> <r_epik_Charging_Adjusted_Penalty>
5.07933

> <i_epik_Tot_Q>
-1

> <i_epik_Tot_abs_Q>
1

> <r_epik_Metal_State_Penalty>
0.588443

> <b_epik_Metal_Only>
0

> <s_lp_Force_Field>
OPLS_2005

> <r_lp_Energy>
11.2641

> <b_lp_Chiralities_Consistent>
1

> <s_lp_Variant>
AV-unprocessed.smi:2110-3

> <Gold.Version>
5.8.1

> <Gold.Id.Protein>
6NUR|6NUR_protein|mol2

> <Gold.PLP.Fitness>
40.1511

> <Gold.PLP.PLP>
-33.1715

> <Gold.PLP.part.hbond>
-3.0000

> <Gold.PLP.part.metal>
0.0000

> <Gold.PLP.part.buried>
-3.9969

> <Gold.PLP.part.nonpolar>
-26.3674

> <Gold.PLP.part.repulsive>
0.0901

> <Gold.PLP.ligand.clash>
0.0000

> <Gold.PLP.ligand.torsion>
2.2753

> <Gold.PLP.Chemscore.Hbond>
2.6000

> <Gold.PLP.Chemscore.CHOScore>
0.0000

> <Gold.PLP.Chemscore.Metal>
0.0000

> <Gold.Chemscore.Hbonds>
donor molecule, donor type, donor heavy atom, donor atom, acceptor molecule, acceptor atom, score
      P1  H  7989  7998       L1     7  1.00
      P1  H  7997  8010       L1     8  0.62

> <Gold.PLP.Chemscore.Internal.Correction>
3.7302

> <Gold.Rescore>
     Score         DG    S(hbond)    S(metal)    S(lipo)     H(rot)  DE(clash)    DE(int)     intcor
     12.62     -16.81       1.99        0.00      76.46       1.66       0.69       3.50       ----

> <Gold.Chemscore.Fitness>
12.6248

> <Gold.Chemscore.DG>
-16.8126

> <Gold.Chemscore.ZeroCoef>
-5.4800

> <Gold.Chemscore.Hbond>
1.9903

> <Gold.Chemscore.Metal>
0.0000

> <Gold.Chemscore.Lipo>
76.4556

> <Gold.Chemscore.Internal_Hbond>
0.0000

> <Gold.Chemscore.DEClash>
0.6909

> <Gold.Chemscore.DEInternal>
3.4969

> <Gold.Chemscore.Rot>
1.6642

> <Gold.Chemscore.Internal.Correction>
   9.000000E+99

> <Gold.Chemscore.Hbonds>
donor molecule, donor type, donor heavy atom, donor atom, acceptor molecule, acceptor atom, score
      P1  H  7989  7998       L1     7  0.97
      P1  H  7997  8010       L1     8  0.60

> <Gold.Chemscore.Hbond.Weighted>
-6.6477

> <Gold.Chemscore.Metal.Weighted>
-0.0000

> <Gold.Chemscore.Lipo.Weighted>
-8.9453

> <Gold.Chemscore.Internal_Hbond.Weighted>
0.0000

> <Gold.Chemscore.DEClash.Weighted>
0.6909

> <Gold.Chemscore.DEInternal.Weighted>
3.4969

> <Gold.Chemscore.Rot.Weighted>
4.2604

> <Gold.Chemscore.Internal.Correction.Weighted>
   9.000000E+99

> <Gold.Protein.RotatedTorsions>
[ 6907 6896 6895 6894 ] final    4.74 input  -60.11 | X-H torsion
[ 7974 7965 7964 7962 ] final  111.72 input  175.53 | X-H torsion
[ 8008 7997 7996 7995 ] final   70.03 input   59.86 | X-H torsion
[ 10167 10162 10161 10158 ] final   95.22 input  -65.29 | X-H torsion
[ 10718 10713 10712 10709 ] final   57.04 input   66.30 | X-H torsion
[ 10763 10752 10751 10750 ] final  159.19 input  -60.55 | X-H torsion
[ 11005 11000 10999 10996 ] final   32.24 input  -57.11 | X-H torsion

> <Gold.Protein.ActiveResidues>
 VAL166  LYS551  ARG553  GLY616  TRP617  ASP618  TYR619  PRO620  LYS621  CYS622 
 ASP623  PHE694  ASN695  SER759  ASP760  ASP761  ALA762  ILE779  LEU786  VAL792 
 PHE793  MET794  SER795  GLU796  ALA797  LYS798  CYS799  TRP800  GLU811  SER814 

> <Gold.Protein.RotatedAtoms>
  151.6462  135.1007  160.0151 H   0  0  0  0  0  0  0  0  0  0  0  0  # atno 6907 bound_to 6896
  152.4026  133.6837  159.6338 H   0  0  0  0  0  0  0  0  0  0  0  0  # atno 6908 bound_to 6896
  150.7924  133.8681  159.3292 H   0  0  0  0  0  0  0  0  0  0  0  0  # atno 6909 bound_to 6896
  145.2386  139.2788  143.4130 H   0  0  0  0  0  0  0  0  0  0  0  0  # atno 7974 bound_to 7965
  155.7327  140.3491  155.5067 H   0  0  0  0  0  0  0  0  0  0  0  0  # atno 8008 bound_to 7997
  155.9168  140.1060  157.1259 H   0  0  0  0  0  0  0  0  0  0  0  0  # atno 8009 bound_to 7997
  154.4064  140.1257  156.4614 H   0  0  0  0  0  0  0  0  0  0  0  0  # atno 8010 bound_to 7997
  139.8009  144.6814  150.9766 H   0  0  0  0  0  0  0  0  0  0  0  0  # atno 10167 bound_to 10162
  157.5481  130.8746  149.8922 H   0  0  0  0  0  0  0  0  0  0  0  0  # atno 10718 bound_to 10713
  154.2280  135.2779  155.2900 H   0  0  0  0  0  0  0  0  0  0  0  0  # atno 10763 bound_to 10752
  154.5648  135.5636  153.7043 H   0  0  0  0  0  0  0  0  0  0  0  0  # atno 10764 bound_to 10752
  153.0026  135.6306  154.2421 H   0  0  0  0  0  0  0  0  0  0  0  0  # atno 10765 bound_to 10752
  140.2755  134.3033  155.7815 H   0  0  0  0  0  0  0  0  0  0  0  0  # atno 11005 bound_to 11000
  146.3334  140.2742  142.8607 LP  0  0  0  0  0  0  0  0  0  0  0  0  # atno 17320 bound_to 7965
  144.9610  140.8275  143.5513 LP  0  0  0  0  0  0  0  0  0  0  0  0  # atno 17321 bound_to 7965
  140.7820  143.4282  151.0734 LP  0  0  0  0  0  0  0  0  0  0  0  0  # atno 17342 bound_to 10162
  139.7954  143.8158  152.3157 LP  0  0  0  0  0  0  0  0  0  0  0  0  # atno 17343 bound_to 10162
  156.0553  130.3709  150.1106 LP  0  0  0  0  0  0  0  0  0  0  0  0  # atno 17370 bound_to 10713
  156.9281  130.9705  151.3537 LP  0  0  0  0  0  0  0  0  0  0  0  0  # atno 17371 bound_to 10713
  141.2171  133.7493  156.9400 LP  0  0  0  0  0  0  0  0  0  0  0  0  # atno 17394 bound_to 11000
  140.1333  134.9342  157.2367 LP  0  0  0  0  0  0  0  0  0  0  0  0  # atno 17395 bound_to 11000

$$$$
