AV-unprocessed.smi:1044|AV-procd|sdf|4542|dock3
  -GOLD-   22720 2563D 1   1.00000     0.00000
 Structure written by MMmdl.
 45 46  0  0  0  0  0  0  0  0  1 V2000
  146.3319  132.9645  150.3996 C   0  0  0  0  0  0  0  0  0  0  0  0
  146.2776  132.6742  151.9012 C   0  0  0  0  0  0  0  0  0  0  0  0
  147.4036  133.2856  152.5235 O   0  0  0  0  0  0  0  0  0  0  0  0
  148.1374  132.5529  153.4370 C   0  0  0  0  0  0  0  0  0  0  0  0
  147.9435  131.2113  153.4937 N   0  0  0  0  0  0  0  0  0  0  0  0
  148.6566  130.4957  154.3875 C   0  0  0  0  0  0  0  0  0  0  0  0
  149.5877  131.0736  155.2699 C   0  0  0  0  0  0  0  0  0  0  0  0
  149.7909  132.4647  155.2129 C   0  0  0  0  0  0  0  0  0  0  0  0
  149.0613  133.2271  154.2689 C   0  0  0  0  0  0  0  0  0  0  0  0
  149.1762  134.6389  154.1464 N   0  0  0  0  0  0  0  0  0  0  0  0
  149.4380  135.5381  155.1097 C   0  0  0  0  0  0  0  0  0  0  0  0
  149.6516  135.2679  156.2914 O   0  0  0  0  0  0  0  0  0  0  0  0
  149.4624  136.7832  154.6131 N   0  0  0  0  0  0  0  0  0  0  0  0
  149.7528  137.9996  155.3671 C   0  0  2  0  0  0  0  0  0  0  0  0
  149.9500  139.1799  154.4078 C   0  0  0  0  0  0  0  0  0  0  0  0
  150.2998  140.4324  155.2161 C   0  0  0  0  0  0  0  0  0  0  0  0
  151.5388  140.2043  156.0982 C   0  0  0  0  0  0  0  0  0  0  0  0
  151.3798  139.0150  156.9603 N   0  0  0  0  0  0  0  0  0  0  0  0
  152.4562  138.8465  158.3095 S   0  0  0  0  0  0  0  0  0  0  0  0
  152.3074  140.4672  159.1692 C   0  0  0  0  0  0  0  0  0  0  0  0
  151.9227  137.7874  159.1797 O   0  0  0  0  0  0  0  0  0  0  0  0
  153.8269  138.7453  157.7853 O   0  0  0  0  0  0  0  0  0  0  0  0
  151.0066  137.7856  156.2337 C   0  0  0  0  0  0  0  0  0  0  0  0
  145.4807  132.5172  149.8860 H   0  0  0  0  0  0  0  0  0  0  0  0
  147.2416  132.5594  149.9555 H   0  0  0  0  0  0  0  0  0  0  0  0
  146.3131  134.0375  150.2073 H   0  0  0  0  0  0  0  0  0  0  0  0
  145.3499  133.0701  152.3180 H   0  0  0  0  0  0  0  0  0  0  0  0
  146.2887  131.5955  152.0647 H   0  0  0  0  0  0  0  0  0  0  0  0
  148.4739  129.4316  154.4047 H   0  0  0  0  0  0  0  0  0  0  0  0
  150.1296  130.4647  155.9784 H   0  0  0  0  0  0  0  0  0  0  0  0
  150.4867  132.9203  155.9003 H   0  0  0  0  0  0  0  0  0  0  0  0
  149.1235  134.9961  153.2036 H   0  0  0  0  0  0  0  0  0  0  0  0
  149.2762  136.8996  153.6277 H   0  0  0  0  0  0  0  0  0  0  0  0
  148.9213  138.2390  156.0329 H   0  0  0  0  0  0  0  0  0  0  0  0
  150.7482  138.9629  153.6962 H   0  0  0  0  0  0  0  0  0  0  0  0
  149.0442  139.3522  153.8254 H   0  0  0  0  0  0  0  0  0  0  0  0
  150.4726  141.2733  154.5441 H   0  0  0  0  0  0  0  0  0  0  0  0
  149.4524  140.7102  155.8446 H   0  0  0  0  0  0  0  0  0  0  0  0
  152.4284  140.0761  155.4805 H   0  0  0  0  0  0  0  0  0  0  0  0
  151.7039  141.0892  156.7125 H   0  0  0  0  0  0  0  0  0  0  0  0
  153.0113  140.4978  160.0004 H   0  0  0  0  0  0  0  0  0  0  0  0
  151.2977  140.5976  159.5552 H   0  0  0  0  0  0  0  0  0  0  0  0
  152.5386  141.2719  158.4716 H   0  0  0  0  0  0  0  0  0  0  0  0
  150.8230  136.9806  156.9442 H   0  0  0  0  0  0  0  0  0  0  0  0
  151.8508  137.4728  155.6176 H   0  0  0  0  0  0  0  0  0  0  0  0
  1  2  1  0  0  0  0
  1 24  1  0  0  0  0
  1 25  1  0  0  0  0
  1 26  1  0  0  0  0
  2  3  1  0  0  0  0
  2 27  1  0  0  0  0
  2 28  1  0  0  0  0
  3  4  1  0  0  0  0
  4  9  1  0  0  0  0
  4  5  2  0  0  0  0
  5  6  1  0  0  0  0
  6  7  2  0  0  0  0
  6 29  1  0  0  0  0
  7  8  1  0  0  0  0
  7 30  1  0  0  0  0
  8  9  2  0  0  0  0
  8 31  1  0  0  0  0
  9 10  1  0  0  0  0
 10 11  1  0  0  0  0
 10 32  1  0  0  0  0
 11 12  2  0  0  0  0
 11 13  1  0  0  0  0
 13 14  1  0  0  0  0
 13 33  1  0  0  0  0
 14 23  1  0  0  0  0
 14 15  1  0  0  0  0
 14 34  1  0  0  0  0
 15 16  1  0  0  0  0
 15 35  1  0  0  0  0
 15 36  1  0  0  0  0
 16 17  1  0  0  0  0
 16 37  1  0  0  0  0
 16 38  1  0  0  0  0
 17 18  1  0  0  0  0
 17 39  1  0  0  0  0
 17 40  1  0  0  0  0
 18 19  1  0  0  0  0
 18 23  1  0  0  0  0
 19 20  1  0  0  0  0
 19 21  2  0  0  0  0
 19 22  2  0  0  0  0
 20 41  1  0  0  0  0
 20 42  1  0  0  0  0
 20 43  1  0  0  0  0
 23 44  1  0  0  0  0
 23 45  1  0  0  0  0
M  END
> <s_m_source_file>
AV-unprocessed.smi

> <i_m_source_file_index>
1044

> <i_lp_mmshare_version>
43012

> <i_f3d_flags>
0

> <s_epik_input>
W0NIM11bQ0gyXU9jMW5bY0hdW2NIXVtjSF1jMVtOSF1DKD1PKVtOSF1bQ0BASF0yW0NIMl1bQ0gyXVtDSDJdTihbQ0gyXTIpUyg9TykoPU8pW0NIM10=

> <s_epik_cmdline>
J2VwaWtfcHl0aG9uJywgJy1waCcsICc3LjAnLCAnLXRuJywgJzgnLCAnLW1hJywgJzIwMCcsICctbWV0YWxfYmluZGluZycsICctaW1hZScsICc8aW5maWxlLm1hZT4nLCAnLW9tYWUnLCAnPG91dGZpbGUubWFlPic=

> <r_lp_tautomer_probability>
1

> <r_epik_Ionization_Penalty>
0.000106941

> <r_epik_Ionization_Penalty_Charging>
0

> <r_epik_Ionization_Penalty_Neutral>
0.000106941

> <r_epik_State_Penalty>
-0

> <r_epik_Charging_Adjusted_Penalty>
0

> <i_epik_Tot_Q>
0

> <i_epik_Tot_abs_Q>
0

> <r_epik_Metal_State_Penalty>
-0

> <b_epik_Metal_Only>
0

> <s_lp_Force_Field>
OPLS_2005

> <r_lp_Energy>
2.99573

> <b_lp_Chiralities_Consistent>
1

> <s_lp_Variant>
AV-unprocessed.smi:1044-1

> <Gold.Version>
5.8.1

> <Gold.Id.Protein>
6NUR|6NUR_protein|mol2

> <Gold.PLP.Fitness>
41.4708

> <Gold.PLP.PLP>
-35.2028

> <Gold.PLP.part.hbond>
-2.8384

> <Gold.PLP.part.metal>
0.0000

> <Gold.PLP.part.buried>
-4.1757

> <Gold.PLP.part.nonpolar>
-28.8877

> <Gold.PLP.part.repulsive>
0.3528

> <Gold.PLP.ligand.clash>
0.0000

> <Gold.PLP.ligand.torsion>
1.2262

> <Gold.PLP.Chemscore.Hbond>
2.6500

> <Gold.PLP.Chemscore.CHOScore>
0.0000

> <Gold.PLP.Chemscore.Metal>
0.0000

> <Gold.Chemscore.Hbonds>
donor molecule, donor type, donor heavy atom, donor atom, acceptor molecule, acceptor atom, score
      L1  H    10    32       P1  7948  0.80
      L1  H    13    33       P1  7948  1.00
      P1  H  7997  8008       L1    22  1.00

> <Gold.PLP.Chemscore.Internal.Correction>
0.7704

> <Gold.Rescore>
     Score         DG    S(hbond)    S(metal)    S(lipo)     H(rot)  DE(clash)    DE(int)     intcor
     13.33     -17.13       2.49        0.00      67.42       1.77       0.07       3.74       ----

> <Gold.Chemscore.Fitness>
13.3327

> <Gold.Chemscore.DG>
-17.1340

> <Gold.Chemscore.ZeroCoef>
-5.4800

> <Gold.Chemscore.Hbond>
2.4851

> <Gold.Chemscore.Metal>
0.0000

> <Gold.Chemscore.Lipo>
67.4168

> <Gold.Chemscore.Internal_Hbond>
0.0000

> <Gold.Chemscore.DEClash>
0.0659

> <Gold.Chemscore.DEInternal>
3.7354

> <Gold.Chemscore.Rot>
1.7711

> <Gold.Chemscore.Internal.Correction>
   9.000000E+99

> <Gold.Chemscore.Hbonds>
donor molecule, donor type, donor heavy atom, donor atom, acceptor molecule, acceptor atom, score
      L1  H    10    32       P1  7948  0.12
      L1  H    13    33       P1  7948  0.95
      P1  H  7997  8008       L1    22  0.98

> <Gold.Chemscore.Hbond.Weighted>
-8.3002

> <Gold.Chemscore.Metal.Weighted>
-0.0000

> <Gold.Chemscore.Lipo.Weighted>
-7.8878

> <Gold.Chemscore.Internal_Hbond.Weighted>
0.0000

> <Gold.Chemscore.DEClash.Weighted>
0.0659

> <Gold.Chemscore.DEInternal.Weighted>
3.7354

> <Gold.Chemscore.Rot.Weighted>
4.5340

> <Gold.Chemscore.Internal.Correction.Weighted>
   9.000000E+99

> <Gold.Protein.RotatedTorsions>
[ 6907 6896 6895 6894 ] final  121.13 input  -60.11 | X-H torsion
[ 7974 7965 7964 7962 ] final   41.28 input  175.53 | X-H torsion
[ 8008 7997 7996 7995 ] final  -98.82 input   59.86 | X-H torsion
[ 10167 10162 10161 10158 ] final -132.34 input  -65.29 | X-H torsion
[ 10718 10713 10712 10709 ] final  109.14 input   66.30 | X-H torsion
[ 10763 10752 10751 10750 ] final  -20.44 input  -60.55 | X-H torsion
[ 11005 11000 10999 10996 ] final  112.37 input  -57.11 | X-H torsion

> <Gold.Protein.ActiveResidues>
 VAL166  LYS551  ARG553  GLY616  TRP617  ASP618  TYR619  PRO620  LYS621  CYS622 
 ASP623  PHE694  ASN695  SER759  ASP760  ASP761  ALA762  ILE779  LEU786  VAL792 
 PHE793  MET794  SER795  GLU796  ALA797  LYS798  CYS799  TRP800  GLU811  SER814 

> <Gold.Protein.RotatedAtoms>
  152.4345  133.7336  159.6601 H   0  0  0  0  0  0  0  0  0  0  0  0  # atno 6907 bound_to 6896
  150.8227  133.8214  159.3138 H   0  0  0  0  0  0  0  0  0  0  0  0  # atno 6908 bound_to 6896
  151.5891  135.1056  160.0086 H   0  0  0  0  0  0  0  0  0  0  0  0  # atno 6909 bound_to 6896
  146.0836  139.5434  142.9521 H   0  0  0  0  0  0  0  0  0  0  0  0  # atno 7974 bound_to 7965
  154.8064  140.0452  157.1310 H   0  0  0  0  0  0  0  0  0  0  0  0  # atno 8008 bound_to 7997
  154.9419  140.3054  155.5096 H   0  0  0  0  0  0  0  0  0  0  0  0  # atno 8009 bound_to 7997
  156.2967  140.2304  156.4489 H   0  0  0  0  0  0  0  0  0  0  0  0  # atno 8010 bound_to 7997
  139.9095  143.6511  152.2578 H   0  0  0  0  0  0  0  0  0  0  0  0  # atno 10167 bound_to 10162
  157.6555  131.0908  150.6409 H   0  0  0  0  0  0  0  0  0  0  0  0  # atno 10718 bound_to 10713
  153.6205  135.6993  153.5312 H   0  0  0  0  0  0  0  0  0  0  0  0  # atno 10763 bound_to 10752
  153.2942  135.4148  155.1194 H   0  0  0  0  0  0  0  0  0  0  0  0  # atno 10764 bound_to 10752
  154.8544  135.3633  154.5745 H   0  0  0  0  0  0  0  0  0  0  0  0  # atno 10765 bound_to 10752
  139.8926  134.9528  156.6575 H   0  0  0  0  0  0  0  0  0  0  0  0  # atno 11005 bound_to 11000
  145.6171  141.0329  143.1935 LP  0  0  0  0  0  0  0  0  0  0  0  0  # atno 17320 bound_to 7965
  144.7310  139.7725  143.7347 LP  0  0  0  0  0  0  0  0  0  0  0  0  # atno 17321 bound_to 7965
  139.6955  144.7642  151.1364 LP  0  0  0  0  0  0  0  0  0  0  0  0  # atno 17342 bound_to 10162
  140.7688  143.5530  150.9183 LP  0  0  0  0  0  0  0  0  0  0  0  0  # atno 17343 bound_to 10162
  156.6716  130.4541  149.5655 LP  0  0  0  0  0  0  0  0  0  0  0  0  # atno 17370 bound_to 10713
  156.1993  130.6610  151.1149 LP  0  0  0  0  0  0  0  0  0  0  0  0  # atno 17371 bound_to 10713
  140.7473  133.8927  155.8321 LP  0  0  0  0  0  0  0  0  0  0  0  0  # atno 17394 bound_to 11000
  141.0029  134.1125  157.4299 LP  0  0  0  0  0  0  0  0  0  0  0  0  # atno 17395 bound_to 11000

$$$$
