AV-unprocessed.smi:2923|AV-procd|sdf|11215|dock1
  -GOLD-   2272016103D 1   1.00000     0.00000
 Structure written by MMmdl.
 46 48  0  0  0  0  0  0  0  0  1 V2000
  146.4108  138.4130  151.4552 C   0  0  0  0  0  0  0  0  0  0  0  0
  146.5841  138.3172  152.8995 N   0  0  0  0  0  0  0  0  0  0  0  0
  146.1649  137.1095  153.6032 C   0  0  0  0  0  0  0  0  0  0  0  0
  147.2263  139.3576  153.6094 C   0  0  0  0  0  0  0  0  0  0  0  0
  147.3431  140.6614  153.0664 C   0  0  0  0  0  0  0  0  0  0  0  0
  147.9945  141.6641  153.8098 C   0  0  0  0  0  0  0  0  0  0  0  0
  148.5098  141.3457  155.0873 C   0  0  0  0  0  0  0  0  0  0  0  0
  149.2081  142.2597  155.9217 N   0  0  0  0  0  0  0  0  0  0  0  0
  149.8754  142.0114  157.0613 C   0  0  0  0  0  0  0  0  0  0  0  0
  150.0566  140.8982  157.5541 O   0  0  0  0  0  0  0  0  0  0  0  0
  150.3443  143.1428  157.6039 N   0  0  0  0  0  0  0  0  0  0  0  0
  151.1105  143.2053  158.8446 C   0  0  1  0  0  0  0  0  0  0  0  0
  152.3582  142.3093  158.8117 C   0  0  2  0  0  0  0  0  0  0  0  0
  152.4576  141.1287  159.7390 C   0  0  0  0  0  0  0  0  0  0  0  0
  153.2525  141.6898  160.9215 C   0  0  0  0  0  0  0  0  0  0  0  0
  153.0620  143.1008  160.8461 O   0  0  0  0  0  0  0  0  0  0  0  0
  153.0990  143.4645  159.4682 C   0  0  2  0  0  0  0  0  0  0  0  0
  152.0187  144.4543  158.9835 C   0  0  0  0  0  0  0  0  0  0  0  0
  152.3898  145.2093  157.6989 C   0  0  0  0  0  0  0  0  0  0  0  0
  151.5687  145.5061  159.9984 C   0  0  0  0  0  0  0  0  0  0  0  0
  148.3556  140.0211  155.5398 C   0  0  0  0  0  0  0  0  0  0  0  0
  147.7320  139.0574  154.8308 N   0  0  0  0  0  0  0  0  0  0  0  0
  147.3770  138.5045  150.9581 H   0  0  0  0  0  0  0  0  0  0  0  0
  145.8015  139.2802  151.1997 H   0  0  0  0  0  0  0  0  0  0  0  0
  145.9140  137.5291  151.0551 H   0  0  0  0  0  0  0  0  0  0  0  0
  147.0227  136.6171  154.0622 H   0  0  0  0  0  0  0  0  0  0  0  0
  145.6937  136.3972  152.9258 H   0  0  0  0  0  0  0  0  0  0  0  0
  145.4447  137.3521  154.3854 H   0  0  0  0  0  0  0  0  0  0  0  0
  146.9522  140.9131  152.0922 H   0  0  0  0  0  0  0  0  0  0  0  0
  148.0972  142.6471  153.3776 H   0  0  0  0  0  0  0  0  0  0  0  0
  149.2262  143.2148  155.5952 H   0  0  0  0  0  0  0  0  0  0  0  0
  150.1571  144.0164  157.1342 H   0  0  0  0  0  0  0  0  0  0  0  0
  150.5106  143.0288  159.7404 H   0  0  0  0  0  0  0  0  0  0  0  0
  152.7210  142.1263  157.7985 H   0  0  0  0  0  0  0  0  0  0  0  0
  151.4681  140.7992  160.0573 H   0  0  0  0  0  0  0  0  0  0  0  0
  152.9640  140.2777  159.2828 H   0  0  0  0  0  0  0  0  0  0  0  0
  152.9216  141.2894  161.8800 H   0  0  0  0  0  0  0  0  0  0  0  0
  154.3149  141.4696  160.8075 H   0  0  0  0  0  0  0  0  0  0  0  0
  154.1078  143.6236  159.0839 H   0  0  0  0  0  0  0  0  0  0  0  0
  153.1997  145.9179  157.8745 H   0  0  0  0  0  0  0  0  0  0  0  0
  151.5440  145.7729  157.3031 H   0  0  0  0  0  0  0  0  0  0  0  0
  152.7246  144.5319  156.9129 H   0  0  0  0  0  0  0  0  0  0  0  0
  152.3724  146.2038  160.2351 H   0  0  0  0  0  0  0  0  0  0  0  0
  151.2508  145.0499  160.9363 H   0  0  0  0  0  0  0  0  0  0  0  0
  150.7249  146.0868  159.6245 H   0  0  0  0  0  0  0  0  0  0  0  0
  148.7425  139.7218  156.5032 H   0  0  0  0  0  0  0  0  0  0  0  0
  1  2  1  0  0  0  0
  1 23  1  0  0  0  0
  1 24  1  0  0  0  0
  1 25  1  0  0  0  0
  2  3  1  0  0  0  0
  2  4  1  0  0  0  0
  3 26  1  0  0  0  0
  3 27  1  0  0  0  0
  3 28  1  0  0  0  0
  4 22  1  0  0  0  0
  4  5  2  0  0  0  0
  5  6  1  0  0  0  0
  5 29  1  0  0  0  0
  6  7  2  0  0  0  0
  6 30  1  0  0  0  0
  7  8  1  0  0  0  0
  7 21  1  0  0  0  0
  8  9  1  0  0  0  0
  8 31  1  0  0  0  0
  9 10  2  0  0  0  0
  9 11  1  0  0  0  0
 11 12  1  0  0  0  0
 11 32  1  0  0  0  0
 12 18  1  0  0  0  0
 12 13  1  0  0  0  0
 12 33  1  0  0  0  0
 13 17  1  0  0  0  0
 13 14  1  0  0  0  0
 13 34  1  0  0  0  0
 14 15  1  0  0  0  0
 14 35  1  0  0  0  0
 14 36  1  0  0  0  0
 15 16  1  0  0  0  0
 15 37  1  0  0  0  0
 15 38  1  0  0  0  0
 16 17  1  0  0  0  0
 17 18  1  0  0  0  0
 17 39  1  0  0  0  0
 18 19  1  0  0  0  0
 18 20  1  0  0  0  0
 19 40  1  0  0  0  0
 19 41  1  0  0  0  0
 19 42  1  0  0  0  0
 20 43  1  0  0  0  0
 20 44  1  0  0  0  0
 20 45  1  0  0  0  0
 21 22  2  0  0  0  0
 21 46  1  0  0  0  0
M  END
> <s_m_source_file>
AV-unprocessed.smi

> <i_m_source_file_index>
2923

> <i_lp_mmshare_version>
43012

> <i_f3d_flags>
0

> <s_epik_input>
W0NIM11OKFtDSDNdKWMxW2NIXVtjSF1jKFtjSF1uMSlbTkhdQyg9TylbTkhdW0NASF0yQyhbQ0gzXSkoW0NIM10pW0NAQEhdKFtDQEhdMjMpT1tDSDJdW0NIMl0z

> <s_epik_cmdline>
J2VwaWtfcHl0aG9uJywgJy1waCcsICc3LjAnLCAnLXRuJywgJzgnLCAnLW1hJywgJzIwMCcsICctbWV0YWxfYmluZGluZycsICctaW1hZScsICc8aW5maWxlLm1hZT4nLCAnLW9tYWUnLCAnPG91dGZpbGUubWFlPic=

> <r_lp_tautomer_probability>
1

> <r_epik_Ionization_Penalty>
0.628785

> <r_epik_Ionization_Penalty_Charging>
0

> <r_epik_Ionization_Penalty_Neutral>
0.628785

> <r_epik_State_Penalty>
0.644286

> <r_epik_Charging_Adjusted_Penalty>
0.644286

> <i_epik_Tot_Q>
0

> <i_epik_Tot_abs_Q>
0

> <r_epik_Metal_State_Penalty>
0.308404

> <b_epik_Metal_Only>
0

> <s_lp_Force_Field>
OPLS_2005

> <r_lp_Energy>
39.1675

> <b_lp_Chiralities_Consistent>
1

> <s_lp_Variant>
AV-unprocessed.smi:2923-14

> <Gold.Version>
5.8.1

> <Gold.Id.Protein>
6NUR|6NUR_protein|mol2

> <Gold.PLP.Fitness>
49.6695

> <Gold.PLP.PLP>
-44.9197

> <Gold.PLP.part.hbond>
-1.8839

> <Gold.PLP.part.metal>
0.0000

> <Gold.PLP.part.buried>
-2.1557

> <Gold.PLP.part.nonpolar>
-41.0290

> <Gold.PLP.part.repulsive>
0.2610

> <Gold.PLP.ligand.clash>
0.0000

> <Gold.PLP.ligand.torsion>
0.3437

> <Gold.PLP.Chemscore.Hbond>
1.7517

> <Gold.PLP.Chemscore.CHOScore>
0.0000

> <Gold.PLP.Chemscore.Metal>
0.0000

> <Gold.Chemscore.Hbonds>
donor molecule, donor type, donor heavy atom, donor atom, acceptor molecule, acceptor atom, score
      L1  H     8    31       P1  8028  1.00
      L1  H    11    32       P1  8028  0.75

> <Gold.PLP.Chemscore.Internal.Correction>
0.1823

> <Gold.Rescore>
     Score         DG    S(hbond)    S(metal)    S(lipo)     H(rot)  DE(clash)    DE(int)     intcor
     19.92     -23.48       1.78        0.00     124.91       1.00       2.00       1.57       ----

> <Gold.Chemscore.Fitness>
19.9188

> <Gold.Chemscore.DG>
-23.4845

> <Gold.Chemscore.ZeroCoef>
-5.4800

> <Gold.Chemscore.Hbond>
1.7815

> <Gold.Chemscore.Metal>
0.0000

> <Gold.Chemscore.Lipo>
124.9077

> <Gold.Chemscore.Internal_Hbond>
0.0000

> <Gold.Chemscore.DEClash>
1.9987

> <Gold.Chemscore.DEInternal>
1.5671

> <Gold.Chemscore.Rot>
1.0000

> <Gold.Chemscore.Internal.Correction>
   9.000000E+99

> <Gold.Chemscore.Hbonds>
donor molecule, donor type, donor heavy atom, donor atom, acceptor molecule, acceptor atom, score
      L1  H     8    31       P1  8028  0.93
      L1  H    11    32       P1  8028  0.63

> <Gold.Chemscore.Hbond.Weighted>
-5.9503

> <Gold.Chemscore.Metal.Weighted>
-0.0000

> <Gold.Chemscore.Lipo.Weighted>
-14.6142

> <Gold.Chemscore.Internal_Hbond.Weighted>
0.0000

> <Gold.Chemscore.DEClash.Weighted>
1.9987

> <Gold.Chemscore.DEInternal.Weighted>
1.5671

> <Gold.Chemscore.Rot.Weighted>
2.5600

> <Gold.Chemscore.Internal.Correction.Weighted>
   9.000000E+99

> <Gold.Protein.RotatedTorsions>
[ 6907 6896 6895 6894 ] final  -63.14 input  -60.11 | X-H torsion
[ 7974 7965 7964 7962 ] final -175.07 input  175.53 | X-H torsion
[ 8008 7997 7996 7995 ] final  141.88 input   59.86 | X-H torsion
[ 10167 10162 10161 10158 ] final   55.25 input  -65.29 | X-H torsion
[ 10718 10713 10712 10709 ] final  100.00 input   66.30 | X-H torsion
[ 10763 10752 10751 10750 ] final -145.77 input  -60.55 | X-H torsion
[ 11005 11000 10999 10996 ] final   69.47 input  -57.11 | X-H torsion

> <Gold.Protein.ActiveResidues>
 VAL166  LYS551  ARG553  GLY616  TRP617  ASP618  TYR619  PRO620  LYS621  CYS622 
 ASP623  PHE694  ASN695  SER759  ASP760  ASP761  ALA762  ILE779  LEU786  VAL792 
 PHE793  MET794  SER795  GLU796  ALA797  LYS798  CYS799  TRP800  GLU811  SER814 

> <Gold.Protein.RotatedAtoms>
  150.7669  134.6476  159.6270 H   0  0  0  0  0  0  0  0  0  0  0  0  # atno 6907 bound_to 6896
  152.3704  134.6738  160.0187 H   0  0  0  0  0  0  0  0  0  0  0  0  # atno 6908 bound_to 6896
  151.7100  133.3276  159.3324 H   0  0  0  0  0  0  0  0  0  0  0  0  # atno 6909 bound_to 6896
  144.7129  140.1376  143.6394 H   0  0  0  0  0  0  0  0  0  0  0  0  # atno 7974 bound_to 7965
  156.2959  140.2303  156.4636 H   0  0  0  0  0  0  0  0  0  0  0  0  # atno 8008 bound_to 7997
  154.7996  140.0449  157.1284 H   0  0  0  0  0  0  0  0  0  0  0  0  # atno 8009 bound_to 7997
  154.9549  140.3047  155.5061 H   0  0  0  0  0  0  0  0  0  0  0  0  # atno 8010 bound_to 7997
  140.2214  144.3784  150.6449 H   0  0  0  0  0  0  0  0  0  0  0  0  # atno 10167 bound_to 10162
  157.6864  131.0686  150.5034 H   0  0  0  0  0  0  0  0  0  0  0  0  # atno 10718 bound_to 10713
  154.8368  135.3404  154.6557 H   0  0  0  0  0  0  0  0  0  0  0  0  # atno 10763 bound_to 10752
  153.7171  135.6960  153.5027 H   0  0  0  0  0  0  0  0  0  0  0  0  # atno 10764 bound_to 10752
  153.2408  135.4385  155.0649 H   0  0  0  0  0  0  0  0  0  0  0  0  # atno 10765 bound_to 10752
  139.9652  134.6993  156.0561 H   0  0  0  0  0  0  0  0  0  0  0  0  # atno 11005 bound_to 11000
  145.9231  139.2558  143.1369 LP  0  0  0  0  0  0  0  0  0  0  0  0  # atno 17320 bound_to 7965
  145.9600  140.8843  143.0216 LP  0  0  0  0  0  0  0  0  0  0  0  0  # atno 17321 bound_to 7965
  140.6252  143.2180  151.6611 LP  0  0  0  0  0  0  0  0  0  0  0  0  # atno 17342 bound_to 10162
  139.5143  144.3416  152.0735 LP  0  0  0  0  0  0  0  0  0  0  0  0  # atno 17343 bound_to 10162
  156.5354  130.4195  149.6180 LP  0  0  0  0  0  0  0  0  0  0  0  0  # atno 17370 bound_to 10713
  156.3032  130.7188  151.2065 LP  0  0  0  0  0  0  0  0  0  0  0  0  # atno 17371 bound_to 10713
  141.1331  133.6581  156.3519 LP  0  0  0  0  0  0  0  0  0  0  0  0  # atno 17394 bound_to 11000
  140.5412  134.6118  157.5380 LP  0  0  0  0  0  0  0  0  0  0  0  0  # atno 17395 bound_to 11000

$$$$
