AV-unprocessed.smi:3134|AV-procd|sdf|11943|dock1
  -GOLD-   2272017333D 1   1.00000     0.00000
 Structure written by MMmdl.
 36 36  0  0  0  0  0  0  0  0  1 V2000
  152.3424  139.1799  155.0623 C   0  0  0  0  0  0  0  0  0  0  0  0
  150.9212  138.8177  155.5126 C   0  0  0  0  0  0  0  0  0  0  0  0
  149.9272  138.8547  154.3410 C   0  0  0  0  0  0  0  0  0  0  0  0
  150.4975  139.7362  156.5645 N   0  0  0  0  0  0  0  0  0  0  0  0
  150.3795  141.0675  156.4367 C   0  0  0  0  0  0  0  0  0  0  0  0
  150.6144  141.6704  155.3889 O   0  0  0  0  0  0  0  0  0  0  0  0
  149.9679  141.8421  157.7002 C   0  0  2  0  0  0  0  0  0  0  0  0
  148.5258  141.4979  158.1071 C   0  0  0  0  0  0  0  0  0  0  0  0
  150.1105  143.3032  157.5627 N   0  0  0  0  0  0  0  0  0  0  0  0
  151.4698  143.7987  157.7491 C   0  0  0  0  0  0  0  0  0  0  0  0
  151.5461  144.5939  159.0600 C   0  0  0  0  0  0  0  0  0  0  0  0
  152.1693  143.8219  160.1176 N   0  0  0  0  0  0  0  0  0  0  0  0
  152.1609  144.0644  161.4750 C   0  0  0  0  0  0  0  0  0  0  0  0
  152.8790  143.0671  162.0699 C   0  0  0  0  0  0  0  0  0  0  0  0
  153.2924  142.2517  160.9796 C   0  0  0  0  0  0  0  0  0  0  0  0
  152.8667  142.7063  159.8120 N   0  0  0  0  0  0  0  0  0  0  0  0
  152.6953  138.4941  154.2916 H   0  0  0  0  0  0  0  0  0  0  0  0
  153.0440  139.1271  155.8954 H   0  0  0  0  0  0  0  0  0  0  0  0
  152.3851  140.1900  154.6534 H   0  0  0  0  0  0  0  0  0  0  0  0
  150.9487  137.8032  155.9143 H   0  0  0  0  0  0  0  0  0  0  0  0
  150.2295  138.1682  153.5499 H   0  0  0  0  0  0  0  0  0  0  0  0
  149.8610  139.8534  153.9078 H   0  0  0  0  0  0  0  0  0  0  0  0
  148.9261  138.5643  154.6614 H   0  0  0  0  0  0  0  0  0  0  0  0
  150.2935  139.3308  157.4664 H   0  0  0  0  0  0  0  0  0  0  0  0
  150.6180  141.5215  158.5167 H   0  0  0  0  0  0  0  0  0  0  0  0
  148.3943  140.4221  158.2299 H   0  0  0  0  0  0  0  0  0  0  0  0
  147.8042  141.8388  157.3633 H   0  0  0  0  0  0  0  0  0  0  0  0
  148.2661  141.9673  159.0565 H   0  0  0  0  0  0  0  0  0  0  0  0
  149.7467  143.6298  156.6787 H   0  0  0  0  0  0  0  0  0  0  0  0
  152.1674  142.9604  157.7810 H   0  0  0  0  0  0  0  0  0  0  0  0
  151.7618  144.4402  156.9166 H   0  0  0  0  0  0  0  0  0  0  0  0
  152.1153  145.5143  158.9201 H   0  0  0  0  0  0  0  0  0  0  0  0
  150.5472  144.8854  159.3876 H   0  0  0  0  0  0  0  0  0  0  0  0
  151.6497  144.9163  161.8993 H   0  0  0  0  0  0  0  0  0  0  0  0
  153.0789  142.9395  163.1233 H   0  0  0  0  0  0  0  0  0  0  0  0
  153.8856  141.3493  161.0014 H   0  0  0  0  0  0  0  0  0  0  0  0
  1  2  1  0  0  0  0
  1 17  1  0  0  0  0
  1 18  1  0  0  0  0
  1 19  1  0  0  0  0
  2  3  1  0  0  0  0
  2  4  1  0  0  0  0
  2 20  1  0  0  0  0
  3 21  1  0  0  0  0
  3 22  1  0  0  0  0
  3 23  1  0  0  0  0
  4  5  1  0  0  0  0
  4 24  1  0  0  0  0
  5  6  2  0  0  0  0
  5  7  1  0  0  0  0
  7  8  1  0  0  0  0
  7  9  1  0  0  0  0
  7 25  1  0  0  0  0
  8 26  1  0  0  0  0
  8 27  1  0  0  0  0
  8 28  1  0  0  0  0
  9 10  1  0  0  0  0
  9 29  1  0  0  0  0
 10 11  1  0  0  0  0
 10 30  1  0  0  0  0
 10 31  1  0  0  0  0
 11 12  1  0  0  0  0
 11 32  1  0  0  0  0
 11 33  1  0  0  0  0
 12 16  1  0  0  0  0
 12 13  1  0  0  0  0
 13 14  2  0  0  0  0
 13 34  1  0  0  0  0
 14 15  1  0  0  0  0
 14 35  1  0  0  0  0
 15 16  2  0  0  0  0
 15 36  1  0  0  0  0
M  END
> <s_m_source_file>
AV-unprocessed.smi

> <i_m_source_file_index>
3134

> <i_lp_mmshare_version>
43012

> <i_f3d_flags>
0

> <s_epik_input>
W0NIM11bQ0hdKFtDSDNdKVtOSF1DKD1PKVtDQEhdKFtDSDNdKVtOSF1bQ0gyXVtDSDJdbjFbY0hdW2NIXVtjSF1uMQ==

> <s_epik_cmdline>
J2VwaWtfcHl0aG9uJywgJy1waCcsICc3LjAnLCAnLXRuJywgJzgnLCAnLW1hJywgJzIwMCcsICctbWV0YWxfYmluZGluZycsICctaW1hZScsICc8aW5maWxlLm1hZT4nLCAnLW9tYWUnLCAnPG91dGZpbGUubWFlPic=

> <r_lp_tautomer_probability>
1

> <r_epik_Ionization_Penalty>
0.731872

> <r_epik_Ionization_Penalty_Charging>
0

> <r_epik_Ionization_Penalty_Neutral>
0.731872

> <r_epik_State_Penalty>
0.75611

> <r_epik_Charging_Adjusted_Penalty>
0.75611

> <i_epik_Tot_Q>
0

> <i_epik_Tot_abs_Q>
0

> <r_epik_Metal_State_Penalty>
0.755373

> <b_epik_Metal_Only>
0

> <s_lp_Force_Field>
OPLS_2005

> <r_lp_Energy>
3.66061

> <b_lp_Chiralities_Consistent>
1

> <s_lp_Variant>
AV-unprocessed.smi:3134-3

> <Gold.Version>
5.8.1

> <Gold.Id.Protein>
6NUR|6NUR_protein|mol2

> <Gold.PLP.Fitness>
40.0935

> <Gold.PLP.PLP>
-38.8011

> <Gold.PLP.part.hbond>
-2.0000

> <Gold.PLP.part.metal>
0.0000

> <Gold.PLP.part.buried>
-3.4918

> <Gold.PLP.part.nonpolar>
-34.2272

> <Gold.PLP.part.repulsive>
0.1468

> <Gold.PLP.ligand.clash>
0.0000

> <Gold.PLP.ligand.torsion>
1.2252

> <Gold.PLP.Chemscore.Hbond>
1.2071

> <Gold.PLP.Chemscore.CHOScore>
0.0000

> <Gold.PLP.Chemscore.Metal>
0.0000

> <Gold.Chemscore.Hbonds>
donor molecule, donor type, donor heavy atom, donor atom, acceptor molecule, acceptor atom, score
      L1  H     9    29       P1  8028  1.00
      P1  H  7989  7998       L1     6  0.16

> <Gold.PLP.Chemscore.Internal.Correction>
0.1213

> <Gold.Rescore>
     Score         DG    S(hbond)    S(metal)    S(lipo)     H(rot)  DE(clash)    DE(int)     intcor
     12.52     -14.70       1.35        0.00      85.05       2.05       0.19       1.98       ----

> <Gold.Chemscore.Fitness>
12.5212

> <Gold.Chemscore.DG>
-14.6959

> <Gold.Chemscore.ZeroCoef>
-5.4800

> <Gold.Chemscore.Hbond>
1.3534

> <Gold.Chemscore.Metal>
0.0000

> <Gold.Chemscore.Lipo>
85.0509

> <Gold.Chemscore.Internal_Hbond>
0.0000

> <Gold.Chemscore.DEClash>
0.1927

> <Gold.Chemscore.DEInternal>
1.9820

> <Gold.Chemscore.Rot>
2.0529

> <Gold.Chemscore.Internal.Correction>
   9.000000E+99

> <Gold.Chemscore.Hbonds>
donor molecule, donor type, donor heavy atom, donor atom, acceptor molecule, acceptor atom, score
      L1  H     9    29       P1  8028  0.97
      P1  H  7989  7998       L1     6  0.17

> <Gold.Chemscore.Hbond.Weighted>
-4.5204

> <Gold.Chemscore.Metal.Weighted>
-0.0000

> <Gold.Chemscore.Lipo.Weighted>
-9.9510

> <Gold.Chemscore.Internal_Hbond.Weighted>
0.0000

> <Gold.Chemscore.DEClash.Weighted>
0.1927

> <Gold.Chemscore.DEInternal.Weighted>
1.9820

> <Gold.Chemscore.Rot.Weighted>
5.2554

> <Gold.Chemscore.Internal.Correction.Weighted>
   9.000000E+99

> <Gold.Protein.RotatedTorsions>
[ 6907 6896 6895 6894 ] final  -58.66 input  -60.11 | X-H torsion
[ 7974 7965 7964 7962 ] final -154.21 input  175.53 | X-H torsion
[ 8008 7997 7996 7995 ] final   -4.17 input   59.86 | X-H torsion
[ 10167 10162 10161 10158 ] final  -44.23 input  -65.29 | X-H torsion
[ 10718 10713 10712 10709 ] final  -38.58 input   66.30 | X-H torsion
[ 10763 10752 10751 10750 ] final   78.41 input  -60.55 | X-H torsion
[ 11005 11000 10999 10996 ] final   55.91 input  -57.11 | X-H torsion

> <Gold.Protein.ActiveResidues>
 VAL166  LYS551  ARG553  GLY616  TRP617  ASP618  TYR619  PRO620  LYS621  CYS622 
 ASP623  PHE694  ASN695  SER759  ASP760  ASP761  ALA762  ILE779  LEU786  VAL792 
 PHE793  MET794  SER795  GLU796  ALA797  LYS798  CYS799  TRP800  GLU811  SER814 

> <Gold.Protein.RotatedAtoms>
  150.7990  134.7070  159.6581 H   0  0  0  0  0  0  0  0  0  0  0  0  # atno 6907 bound_to 6896
  152.4105  134.6129  160.0040 H   0  0  0  0  0  0  0  0  0  0  0  0  # atno 6908 bound_to 6896
  151.6374  133.3291  159.3158 H   0  0  0  0  0  0  0  0  0  0  0  0  # atno 6909 bound_to 6896
  144.7701  140.4420  143.5913 H   0  0  0  0  0  0  0  0  0  0  0  0  # atno 7974 bound_to 7965
  154.6171  140.2491  155.7595 H   0  0  0  0  0  0  0  0  0  0  0  0  # atno 8008 bound_to 7997
  156.2405  140.2934  156.0381 H   0  0  0  0  0  0  0  0  0  0  0  0  # atno 8009 bound_to 7997
  155.1956  140.0393  157.2898 H   0  0  0  0  0  0  0  0  0  0  0  0  # atno 8010 bound_to 7997
  140.6904  143.2941  151.3466 H   0  0  0  0  0  0  0  0  0  0  0  0  # atno 10167 bound_to 10162
  156.3021  130.4241  149.8133 H   0  0  0  0  0  0  0  0  0  0  0  0  # atno 10718 bound_to 10713
  153.0872  135.4878  154.8620 H   0  0  0  0  0  0  0  0  0  0  0  0  # atno 10763 bound_to 10752
  154.7225  135.3042  154.9026 H   0  0  0  0  0  0  0  0  0  0  0  0  # atno 10764 bound_to 10752
  153.9686  135.6804  153.4799 H   0  0  0  0  0  0  0  0  0  0  0  0  # atno 10765 bound_to 10752
  140.0570  134.5656  155.9196 H   0  0  0  0  0  0  0  0  0  0  0  0  # atno 11005 bound_to 11000
  145.6350  139.1541  143.2948 LP  0  0  0  0  0  0  0  0  0  0  0  0  # atno 17320 bound_to 7965
  146.1841  140.6451  142.9176 LP  0  0  0  0  0  0  0  0  0  0  0  0  # atno 17321 bound_to 7965
  139.6302  144.0735  152.2470 LP  0  0  0  0  0  0  0  0  0  0  0  0  # atno 17342 bound_to 10162
  140.0208  144.6155  150.7569 LP  0  0  0  0  0  0  0  0  0  0  0  0  # atno 17343 bound_to 10162
  156.5507  130.8340  151.3298 LP  0  0  0  0  0  0  0  0  0  0  0  0  # atno 17370 bound_to 10713
  157.7370  130.9789  150.2171 LP  0  0  0  0  0  0  0  0  0  0  0  0  # atno 17371 bound_to 10713
  141.1956  133.6588  156.5653 LP  0  0  0  0  0  0  0  0  0  0  0  0  # atno 17394 bound_to 11000
  140.3828  134.7508  157.4672 LP  0  0  0  0  0  0  0  0  0  0  0  0  # atno 17395 bound_to 11000

$$$$
