AV-unprocessed.smi:1279|AV-procd|sdf|5355|dock3
  -GOLD-   22720 4493D 1   1.00000     0.00000
 Structure written by MMmdl.
 46 47  0  0  0  0  0  0  0  0  2 V2000
  153.3918  131.4340  155.1200 C   0  0  0  0  0  0  0  0  0  0  0  0
  152.5282  132.4693  154.4622 C   0  0  0  0  0  0  0  0  0  0  0  0
  152.5224  133.8775  154.6830 C   0  0  0  0  0  0  0  0  0  0  0  0
  151.5487  134.3123  153.8259 C   0  0  0  0  0  0  0  0  0  0  0  0
  151.1080  135.5793  153.6042 N   0  0  0  0  0  0  0  0  0  0  0  0
  151.5812  136.7334  154.1060 C   0  0  0  0  0  0  0  0  0  0  0  0
  152.5334  136.8416  154.8790 O   0  0  0  0  0  0  0  0  0  0  0  0
  150.8744  137.7818  153.6598 N   0  0  0  0  0  0  0  0  0  0  0  0
  151.1350  139.1740  154.0079 C   0  0  0  0  0  0  0  0  0  0  0  0
  150.3540  139.6006  155.2663 C   0  0  0  0  0  0  0  0  0  0  0  0
  151.0890  140.6037  156.0775 N   0  3  2  0  0  0  0  0  0  0  0  0
  152.0159  139.9680  157.0496 C   0  0  0  0  0  0  0  0  0  0  0  0
  152.8640  141.0207  157.7830 C   0  0  0  0  0  0  0  0  0  0  0  0
  151.9771  142.0574  158.4920 C   0  0  1  0  0  0  0  0  0  0  0  0
  152.8128  143.1317  159.2022 C   0  0  0  0  0  0  0  0  0  0  0  0
  151.0071  142.6739  157.4706 C   0  0  0  0  0  0  0  0  0  0  0  0
  150.1954  141.5885  156.7440 C   0  0  0  0  0  0  0  0  0  0  0  0
  151.0298  133.2276  153.1544 N   0  0  0  0  0  0  0  0  0  0  0  0
  149.9879  133.1786  152.1472 C   0  0  0  0  0  0  0  0  0  0  0  0
  151.6392  132.0896  153.5512 N   0  0  0  0  0  0  0  0  0  0  0  0
  154.0633  131.8870  155.8497 H   0  0  0  0  0  0  0  0  0  0  0  0
  154.0043  130.9094  154.3861 H   0  0  0  0  0  0  0  0  0  0  0  0
  152.7869  130.6923  155.6422 H   0  0  0  0  0  0  0  0  0  0  0  0
  153.1387  134.4500  155.3596 H   0  0  0  0  0  0  0  0  0  0  0  0
  150.3123  135.6540  152.9876 H   0  0  0  0  0  0  0  0  0  0  0  0
  150.1087  137.6051  153.0257 H   0  0  0  0  0  0  0  0  0  0  0  0
  152.2060  139.3270  154.1517 H   0  0  0  0  0  0  0  0  0  0  0  0
  150.8484  139.7774  153.1475 H   0  0  0  0  0  0  0  0  0  0  0  0
  149.3692  139.9884  155.0006 H   0  0  0  0  0  0  0  0  0  0  0  0
  150.1792  138.7141  155.8775 H   0  0  0  0  0  0  0  0  0  0  0  0
  151.4440  139.3777  157.7675 H   0  0  0  0  0  0  0  0  0  0  0  0
  152.6806  139.2775  156.5293 H   0  0  0  0  0  0  0  0  0  0  0  0
  153.5136  140.5274  158.5070 H   0  0  0  0  0  0  0  0  0  0  0  0
  153.5209  141.5202  157.0694 H   0  0  0  0  0  0  0  0  0  0  0  0
  151.3886  141.5396  159.2510 H   0  0  0  0  0  0  0  0  0  0  0  0
  153.4244  143.6923  158.4945 H   0  0  0  0  0  0  0  0  0  0  0  0
  153.4811  142.6855  159.9391 H   0  0  0  0  0  0  0  0  0  0  0  0
  152.1735  143.8430  159.7263 H   0  0  0  0  0  0  0  0  0  0  0  0
  150.3279  143.3650  157.9712 H   0  0  0  0  0  0  0  0  0  0  0  0
  151.5628  143.2631  156.7395 H   0  0  0  0  0  0  0  0  0  0  0  0
  149.5461  142.0692  156.0136 H   0  0  0  0  0  0  0  0  0  0  0  0
  149.5451  141.0712  157.4513 H   0  0  0  0  0  0  0  0  0  0  0  0
  149.1244  133.7541  152.4818 H   0  0  0  0  0  0  0  0  0  0  0  0
  149.6749  132.1486  151.9692 H   0  0  0  0  0  0  0  0  0  0  0  0
  150.3613  133.6031  151.2152 H   0  0  0  0  0  0  0  0  0  0  0  0
  151.6711  141.1204  155.4336 H   0  0  0  0  0  0  0  0  0  0  0  0
  1  2  1  0  0  0  0
  1 21  1  0  0  0  0
  1 22  1  0  0  0  0
  1 23  1  0  0  0  0
  2 20  2  0  0  0  0
  2  3  1  0  0  0  0
  3  4  2  0  0  0  0
  3 24  1  0  0  0  0
  4  5  1  0  0  0  0
  4 18  1  0  0  0  0
  5  6  1  0  0  0  0
  5 25  1  0  0  0  0
  6  7  2  0  0  0  0
  6  8  1  0  0  0  0
  8  9  1  0  0  0  0
  8 26  1  0  0  0  0
  9 10  1  0  0  0  0
  9 27  1  0  0  0  0
  9 28  1  0  0  0  0
 10 11  1  0  0  0  0
 10 29  1  0  0  0  0
 10 30  1  0  0  0  0
 11 17  1  0  0  0  0
 11 12  1  0  0  0  0
 11 46  1  0  0  0  0
 12 13  1  0  0  0  0
 12 31  1  0  0  0  0
 12 32  1  0  0  0  0
 13 14  1  0  0  0  0
 13 33  1  0  0  0  0
 13 34  1  0  0  0  0
 14 15  1  0  0  0  0
 14 16  1  0  0  0  0
 14 35  1  0  0  0  0
 15 36  1  0  0  0  0
 15 37  1  0  0  0  0
 15 38  1  0  0  0  0
 16 17  1  0  0  0  0
 16 39  1  0  0  0  0
 16 40  1  0  0  0  0
 17 41  1  0  0  0  0
 17 42  1  0  0  0  0
 18 19  1  0  0  0  0
 18 20  1  0  0  0  0
 19 43  1  0  0  0  0
 19 44  1  0  0  0  0
 19 45  1  0  0  0  0
M  CHG  1  11   1
M  END
> <s_m_source_file>
AV-unprocessed.smi

> <i_m_source_file_index>
1279

> <i_lp_mmshare_version>
43012

> <i_f3d_flags>
0

> <s_epik_input>
W0NIM11jMVtjSF1jKG4objEpW0NIM10pW05IXUMoPU8pW05IXVtDSDJdW0NIMl1OMltDSDJdW0NIMl1bQ0hdKFtDSDNdKVtDSDJdW0NIMl0y

> <s_epik_cmdline>
J2VwaWtfcHl0aG9uJywgJy1waCcsICc3LjAnLCAnLXRuJywgJzgnLCAnLW1hJywgJzIwMCcsICctbWV0YWxfYmluZGluZycsICctaW1hZScsICc8aW5maWxlLm1hZT4nLCAnLW9tYWUnLCAnPG91dGZpbGUubWFlPic=

> <r_lp_tautomer_probability>
1

> <r_epik_Ionization_Penalty>
0.00166091

> <r_epik_Ionization_Penalty_Charging>
0.0015841

> <r_epik_Ionization_Penalty_Neutral>
7.68112e-05

> <r_epik_State_Penalty>
0.00106518

> <r_epik_Charging_Adjusted_Penalty>
0.00264928

> <i_epik_Tot_Q>
1

> <i_epik_Tot_abs_Q>
1

> <r_epik_Metal_State_Penalty>
-0

> <b_epik_Metal_Only>
0

> <s_lp_Force_Field>
OPLS_2005

> <r_lp_Energy>
17.7032

> <b_lp_Chiralities_Consistent>
1

> <s_lp_Variant>
AV-unprocessed.smi:1279-1

> <Gold.Version>
5.8.1

> <Gold.Id.Protein>
6NUR|6NUR_protein|mol2

> <Gold.PLP.Fitness>
45.3018

> <Gold.PLP.PLP>
-38.0212

> <Gold.PLP.part.hbond>
-4.3306

> <Gold.PLP.part.metal>
0.0000

> <Gold.PLP.part.buried>
-5.2482

> <Gold.PLP.part.nonpolar>
-29.3053

> <Gold.PLP.part.repulsive>
0.3023

> <Gold.PLP.ligand.clash>
0.0000

> <Gold.PLP.ligand.torsion>
0.7945

> <Gold.PLP.Chemscore.Hbond>
2.9440

> <Gold.PLP.Chemscore.CHOScore>
0.0000

> <Gold.PLP.Chemscore.Metal>
0.0000

> <Gold.Chemscore.Hbonds>
donor molecule, donor type, donor heavy atom, donor atom, acceptor molecule, acceptor atom, score
      L1  H     8    26       P1  7948  0.71
      P1  H 10752 10764       L1     7  0.34

> <Gold.PLP.Chemscore.Internal.Correction>
0.0377

> <Gold.Rescore>
     Score         DG    S(hbond)    S(metal)    S(lipo)     H(rot)  DE(clash)    DE(int)     intcor
     13.43     -15.20       1.41        0.00      75.17       1.48       0.23       1.54       ----

> <Gold.Chemscore.Fitness>
13.4339

> <Gold.Chemscore.DG>
-15.2025

> <Gold.Chemscore.ZeroCoef>
-5.4800

> <Gold.Chemscore.Hbond>
1.4150

> <Gold.Chemscore.Metal>
0.0000

> <Gold.Chemscore.Lipo>
75.1703

> <Gold.Chemscore.Internal_Hbond>
0.0000

> <Gold.Chemscore.DEClash>
0.2276

> <Gold.Chemscore.DEInternal>
1.5410

> <Gold.Chemscore.Rot>
1.4838

> <Gold.Chemscore.Internal.Correction>
   9.000000E+99

> <Gold.Chemscore.Hbonds>
donor molecule, donor type, donor heavy atom, donor atom, acceptor molecule, acceptor atom, score
      L1  H     8    26       P1  7948  0.11
      P1  H 10752 10764       L1     7  0.20

> <Gold.Chemscore.Hbond.Weighted>
-4.7260

> <Gold.Chemscore.Metal.Weighted>
-0.0000

> <Gold.Chemscore.Lipo.Weighted>
-8.7949

> <Gold.Chemscore.Internal_Hbond.Weighted>
0.0000

> <Gold.Chemscore.DEClash.Weighted>
0.2276

> <Gold.Chemscore.DEInternal.Weighted>
1.5410

> <Gold.Chemscore.Rot.Weighted>
3.7985

> <Gold.Chemscore.Internal.Correction.Weighted>
   9.000000E+99

> <Gold.Protein.RotatedTorsions>
[ 6907 6896 6895 6894 ] final -132.36 input  -60.11 | X-H torsion
[ 7974 7965 7964 7962 ] final -140.42 input  175.53 | X-H torsion
[ 8008 7997 7996 7995 ] final  -79.51 input   59.86 | X-H torsion
[ 10167 10162 10161 10158 ] final   92.36 input  -65.29 | X-H torsion
[ 10718 10713 10712 10709 ] final  146.59 input   66.30 | X-H torsion
[ 10763 10752 10751 10750 ] final  -30.60 input  -60.55 | X-H torsion
[ 11005 11000 10999 10996 ] final   -8.23 input  -57.11 | X-H torsion

> <Gold.Protein.ActiveResidues>
 VAL166  LYS551  ARG553  GLY616  TRP617  ASP618  TYR619  PRO620  LYS621  CYS622 
 ASP623  PHE694  ASN695  SER759  ASP760  ASP761  ALA762  ILE779  LEU786  VAL792 
 PHE793  MET794  SER795  GLU796  ALA797  LYS798  CYS799  TRP800  GLU811  SER814 

> <Gold.Protein.RotatedAtoms>
  150.9616  133.6439  159.2753 H   0  0  0  0  0  0  0  0  0  0  0  0  # atno 6907 bound_to 6896
  151.3760  135.0930  159.9490 H   0  0  0  0  0  0  0  0  0  0  0  0  # atno 6908 bound_to 6896
  152.5149  133.9160  159.7566 H   0  0  0  0  0  0  0  0  0  0  0  0  # atno 6909 bound_to 6896
  144.8599  140.6202  143.5335 H   0  0  0  0  0  0  0  0  0  0  0  0  # atno 7974 bound_to 7965
  154.5792  140.0677  156.9079 H   0  0  0  0  0  0  0  0  0  0  0  0  # atno 8008 bound_to 7997
  155.2494  140.3350  155.4265 H   0  0  0  0  0  0  0  0  0  0  0  0  # atno 8009 bound_to 7997
  156.2176  140.1785  156.7536 H   0  0  0  0  0  0  0  0  0  0  0  0  # atno 8010 bound_to 7997
  139.8284  144.6699  150.9430 H   0  0  0  0  0  0  0  0  0  0  0  0  # atno 10167 bound_to 10162
  157.3313  131.0921  151.1160 H   0  0  0  0  0  0  0  0  0  0  0  0  # atno 10718 bound_to 10713
  153.7837  135.6903  153.4884 H   0  0  0  0  0  0  0  0  0  0  0  0  # atno 10763 bound_to 10752
  153.1795  135.4512  155.0007 H   0  0  0  0  0  0  0  0  0  0  0  0  # atno 10764 bound_to 10752
  154.8072  135.3362  154.7338 H   0  0  0  0  0  0  0  0  0  0  0  0  # atno 10765 bound_to 10752
  140.7213  133.8826  155.8823 H   0  0  0  0  0  0  0  0  0  0  0  0  # atno 11005 bound_to 11000
  145.4333  139.1546  143.4010 LP  0  0  0  0  0  0  0  0  0  0  0  0  # atno 17320 bound_to 7965
  146.2852  140.4450  142.8761 LP  0  0  0  0  0  0  0  0  0  0  0  0  # atno 17321 bound_to 7965
  140.7808  143.4024  151.1127 LP  0  0  0  0  0  0  0  0  0  0  0  0  # atno 17342 bound_to 10162
  139.7680  143.8537  152.3114 LP  0  0  0  0  0  0  0  0  0  0  0  0  # atno 17343 bound_to 10162
  157.2407  130.6568  149.5889 LP  0  0  0  0  0  0  0  0  0  0  0  0  # atno 17370 bound_to 10713
  155.9696  130.4569  150.5943 LP  0  0  0  0  0  0  0  0  0  0  0  0  # atno 17371 bound_to 10713
  141.0001  134.1162  157.4325 LP  0  0  0  0  0  0  0  0  0  0  0  0  # atno 17394 bound_to 11000
  139.8847  135.0066  156.6389 LP  0  0  0  0  0  0  0  0  0  0  0  0  # atno 17395 bound_to 11000

$$$$
