AV-unprocessed.smi:2794|AV-procd|sdf|10777|dock1
  -GOLD-   2272015213D 1   1.00000     0.00000
 Structure written by MMmdl.
 34 35  0  0  0  0  0  0  0  0  1 V2000
  149.0193  137.5651  154.8195 C   0  0  0  0  0  0  0  0  0  0  0  0
  148.6553  139.0055  154.5275 C   0  0  0  0  0  0  0  0  0  0  0  0
  147.7349  139.3298  153.5117 C   0  0  0  0  0  0  0  0  0  0  0  0
  147.4431  140.6878  153.2911 C   0  0  0  0  0  0  0  0  0  0  0  0
  148.0795  141.6581  154.0889 C   0  0  0  0  0  0  0  0  0  0  0  0
  148.9902  141.2478  155.0882 C   0  0  0  0  0  0  0  0  0  0  0  0
  149.5751  142.3024  155.8371 N   0  0  0  0  0  0  0  0  0  0  0  0
  150.5972  142.2410  156.7142 C   0  0  0  0  0  0  0  0  0  0  0  0
  151.2111  141.2155  157.0039 O   0  0  0  0  0  0  0  0  0  0  0  0
  150.9089  143.4208  157.2831 N   0  0  0  0  0  0  0  0  0  0  0  0
  151.9525  143.7144  158.2681 C   0  0  1  0  0  0  0  0  0  0  0  0
  151.7386  145.0882  158.8924 C   0  0  0  0  0  0  0  0  0  0  0  0
  151.8493  145.3362  160.2086 C   0  0  0  0  0  0  0  0  0  0  0  0
  152.2128  144.2773  161.2323 C   0  0  0  0  0  0  0  0  0  0  0  0
  152.7868  143.0097  160.5756 C   0  0  0  0  0  0  0  0  0  0  0  0
  151.9794  142.5986  159.3348 C   0  0  0  0  0  0  0  0  0  0  0  0
  149.2651  139.9357  155.2933 N   0  0  0  0  0  0  0  0  0  0  0  0
  148.4343  136.8773  154.2085 H   0  0  0  0  0  0  0  0  0  0  0  0
  148.8331  137.3309  155.8680 H   0  0  0  0  0  0  0  0  0  0  0  0
  150.0756  137.3929  154.6108 H   0  0  0  0  0  0  0  0  0  0  0  0
  147.2643  138.5615  152.9161 H   0  0  0  0  0  0  0  0  0  0  0  0
  146.7430  140.9813  152.5230 H   0  0  0  0  0  0  0  0  0  0  0  0
  147.8663  142.7056  153.9327 H   0  0  0  0  0  0  0  0  0  0  0  0
  149.1615  143.2128  155.7005 H   0  0  0  0  0  0  0  0  0  0  0  0
  150.3374  144.2076  157.0109 H   0  0  0  0  0  0  0  0  0  0  0  0
  152.9266  143.7324  157.7768 H   0  0  0  0  0  0  0  0  0  0  0  0
  151.4843  145.8976  158.2234 H   0  0  0  0  0  0  0  0  0  0  0  0
  151.6632  146.3319  160.5837 H   0  0  0  0  0  0  0  0  0  0  0  0
  152.9352  144.6896  161.9371 H   0  0  0  0  0  0  0  0  0  0  0  0
  151.3146  144.0352  161.8012 H   0  0  0  0  0  0  0  0  0  0  0  0
  153.8215  143.1904  160.2815 H   0  0  0  0  0  0  0  0  0  0  0  0
  152.8107  142.1947  161.2994 H   0  0  0  0  0  0  0  0  0  0  0  0
  150.9615  142.3605  159.6482 H   0  0  0  0  0  0  0  0  0  0  0  0
  152.3892  141.6833  158.9061 H   0  0  0  0  0  0  0  0  0  0  0  0
  1  2  1  0  0  0  0
  1 18  1  0  0  0  0
  1 19  1  0  0  0  0
  1 20  1  0  0  0  0
  2 17  1  0  0  0  0
  2  3  2  0  0  0  0
  3  4  1  0  0  0  0
  3 21  1  0  0  0  0
  4  5  2  0  0  0  0
  4 22  1  0  0  0  0
  5  6  1  0  0  0  0
  5 23  1  0  0  0  0
  6  7  1  0  0  0  0
  6 17  2  0  0  0  0
  7  8  1  0  0  0  0
  7 24  1  0  0  0  0
  8  9  2  0  0  0  0
  8 10  1  0  0  0  0
 10 11  1  0  0  0  0
 10 25  1  0  0  0  0
 11 16  1  0  0  0  0
 11 12  1  0  0  0  0
 11 26  1  0  0  0  0
 12 13  2  0  0  0  0
 12 27  1  0  0  0  0
 13 14  1  0  0  0  0
 13 28  1  0  0  0  0
 14 15  1  0  0  0  0
 14 29  1  0  0  0  0
 14 30  1  0  0  0  0
 15 16  1  0  0  0  0
 15 31  1  0  0  0  0
 15 32  1  0  0  0  0
 16 33  1  0  0  0  0
 16 34  1  0  0  0  0
M  END
> <s_m_source_file>
AV-unprocessed.smi

> <i_m_source_file_index>
2794

> <i_lp_mmshare_version>
43012

> <i_f3d_flags>
0

> <s_epik_input>
W0NIM11jMVtjSF1bY0hdW2NIXWMobjEpW05IXUMoPU8pW05IXVtDQEBIXTJbQ0hdPVtDSF1bQ0gyXVtDSDJdW0NIMl0y

> <s_epik_cmdline>
J2VwaWtfcHl0aG9uJywgJy1waCcsICc3LjAnLCAnLXRuJywgJzgnLCAnLW1hJywgJzIwMCcsICctbWV0YWxfYmluZGluZycsICctaW1hZScsICc8aW5maWxlLm1hZT4nLCAnLW9tYWUnLCAnPG91dGZpbGUubWFlPic=

> <r_lp_tautomer_probability>
1

> <r_epik_Ionization_Penalty>
8.4544e-05

> <r_epik_Ionization_Penalty_Charging>
0

> <r_epik_Ionization_Penalty_Neutral>
8.4544e-05

> <r_epik_State_Penalty>
-0

> <r_epik_Charging_Adjusted_Penalty>
0

> <i_epik_Tot_Q>
0

> <i_epik_Tot_abs_Q>
0

> <r_epik_Metal_State_Penalty>
-0

> <b_epik_Metal_Only>
0

> <s_lp_Force_Field>
OPLS_2005

> <r_lp_Energy>
18.5134

> <b_lp_Chiralities_Consistent>
1

> <s_lp_Variant>
AV-unprocessed.smi:2794-2

> <Gold.Version>
5.8.1

> <Gold.Id.Protein>
6NUR|6NUR_protein|mol2

> <Gold.PLP.Fitness>
45.1468

> <Gold.PLP.PLP>
-40.0479

> <Gold.PLP.part.hbond>
-1.9658

> <Gold.PLP.part.metal>
0.0000

> <Gold.PLP.part.buried>
-2.9353

> <Gold.PLP.part.nonpolar>
-35.5442

> <Gold.PLP.part.repulsive>
0.2181

> <Gold.PLP.ligand.clash>
0.0000

> <Gold.PLP.ligand.torsion>
0.2263

> <Gold.PLP.Chemscore.Hbond>
1.8480

> <Gold.PLP.Chemscore.CHOScore>
0.0000

> <Gold.PLP.Chemscore.Metal>
0.0000

> <Gold.Chemscore.Hbonds>
donor molecule, donor type, donor heavy atom, donor atom, acceptor molecule, acceptor atom, score
      L1  H     7    24       P1  8028  1.00
      L1  H    10    25       P1  8028  0.85

> <Gold.PLP.Chemscore.Internal.Correction>
0.0074

> <Gold.Rescore>
     Score         DG    S(hbond)    S(metal)    S(lipo)     H(rot)  DE(clash)    DE(int)     intcor
     18.37     -21.28       1.91        0.00     102.36       1.00       0.08       2.82       ----

> <Gold.Chemscore.Fitness>
18.3716

> <Gold.Chemscore.DG>
-21.2761

> <Gold.Chemscore.ZeroCoef>
-5.4800

> <Gold.Chemscore.Hbond>
1.9103

> <Gold.Chemscore.Metal>
0.0000

> <Gold.Chemscore.Lipo>
102.3577

> <Gold.Chemscore.Internal_Hbond>
0.0000

> <Gold.Chemscore.DEClash>
0.0822

> <Gold.Chemscore.DEInternal>
2.8223

> <Gold.Chemscore.Rot>
1.0000

> <Gold.Chemscore.Internal.Correction>
   9.000000E+99

> <Gold.Chemscore.Hbonds>
donor molecule, donor type, donor heavy atom, donor atom, acceptor molecule, acceptor atom, score
      L1  H     7    24       P1  8028  0.93
      L1  H    10    25       P1  8028  0.73

> <Gold.Chemscore.Hbond.Weighted>
-6.3803

> <Gold.Chemscore.Metal.Weighted>
-0.0000

> <Gold.Chemscore.Lipo.Weighted>
-11.9758

> <Gold.Chemscore.Internal_Hbond.Weighted>
0.0000

> <Gold.Chemscore.DEClash.Weighted>
0.0822

> <Gold.Chemscore.DEInternal.Weighted>
2.8223

> <Gold.Chemscore.Rot.Weighted>
2.5600

> <Gold.Chemscore.Internal.Correction.Weighted>
   9.000000E+99

> <Gold.Protein.RotatedTorsions>
[ 6907 6896 6895 6894 ] final -104.35 input  -60.11 | X-H torsion
[ 7974 7965 7964 7962 ] final   18.29 input  175.53 | X-H torsion
[ 8008 7997 7996 7995 ] final  -76.03 input   59.86 | X-H torsion
[ 10167 10162 10161 10158 ] final   73.19 input  -65.29 | X-H torsion
[ 10718 10713 10712 10709 ] final  179.49 input   66.30 | X-H torsion
[ 10763 10752 10751 10750 ] final   89.69 input  -60.55 | X-H torsion
[ 11005 11000 10999 10996 ] final   70.30 input  -57.11 | X-H torsion

> <Gold.Protein.ActiveResidues>
 VAL166  LYS551  ARG553  GLY616  TRP617  ASP618  TYR619  PRO620  LYS621  CYS622 
 ASP623  PHE694  ASN695  SER759  ASP760  ASP761  ALA762  ILE779  LEU786  VAL792 
 PHE793  MET794  SER795  GLU796  ALA797  LYS798  CYS799  TRP800  GLU811  SER814 

> <Gold.Protein.RotatedAtoms>
  150.7283  134.0290  159.3726 H   0  0  0  0  0  0  0  0  0  0  0  0  # atno 6907 bound_to 6896
  151.8259  135.0635  160.0440 H   0  0  0  0  0  0  0  0  0  0  0  0  # atno 6908 bound_to 6896
  152.2970  133.5581  159.5630 H   0  0  0  0  0  0  0  0  0  0  0  0  # atno 6909 bound_to 6896
  146.2190  139.8478  142.8628 H   0  0  0  0  0  0  0  0  0  0  0  0  # atno 7974 bound_to 7965
  154.5469  140.0734  156.8603 H   0  0  0  0  0  0  0  0  0  0  0  0  # atno 8008 bound_to 7997
  155.3070  140.3388  155.4227 H   0  0  0  0  0  0  0  0  0  0  0  0  # atno 8009 bound_to 7997
  156.1926  140.1692  156.8048 H   0  0  0  0  0  0  0  0  0  0  0  0  # atno 8010 bound_to 7997
  140.0271  144.5495  150.7536 H   0  0  0  0  0  0  0  0  0  0  0  0  # atno 10167 bound_to 10162
  156.8750  130.9797  151.3069 H   0  0  0  0  0  0  0  0  0  0  0  0  # atno 10718 bound_to 10713
  153.1898  135.4461  155.0134 H   0  0  0  0  0  0  0  0  0  0  0  0  # atno 10763 bound_to 10752
  154.8083  135.3283  154.7376 H   0  0  0  0  0  0  0  0  0  0  0  0  # atno 10764 bound_to 10752
  153.7831  135.6976  153.4940 H   0  0  0  0  0  0  0  0  0  0  0  0  # atno 10765 bound_to 10752
  139.9605  134.7069  156.0656 H   0  0  0  0  0  0  0  0  0  0  0  0  # atno 11005 bound_to 11000
  145.2832  141.0145  143.3705 LP  0  0  0  0  0  0  0  0  0  0  0  0  # atno 17320 bound_to 7965
  144.9133  139.4501  143.6576 LP  0  0  0  0  0  0  0  0  0  0  0  0  # atno 17321 bound_to 7965
  140.7318  143.2698  151.3925 LP  0  0  0  0  0  0  0  0  0  0  0  0  # atno 17342 bound_to 10162
  139.6100  144.1117  152.2289 LP  0  0  0  0  0  0  0  0  0  0  0  0  # atno 17343 bound_to 10162
  157.6173  130.8628  149.9050 LP  0  0  0  0  0  0  0  0  0  0  0  0  # atno 17370 bound_to 10713
  156.0706  130.3685  150.0783 LP  0  0  0  0  0  0  0  0  0  0  0  0  # atno 17371 bound_to 10713
  141.1282  133.6593  156.3392 LP  0  0  0  0  0  0  0  0  0  0  0  0  # atno 17394 bound_to 11000
  140.5511  134.6027  157.5408 LP  0  0  0  0  0  0  0  0  0  0  0  0  # atno 17395 bound_to 11000

$$$$
