AV-unprocessed.smi:3083|AV-procd|sdf|11745|dock5
  -GOLD-   2272017143D 1   1.00000     0.00000
 Structure written by MMmdl.
 28 29  0  0  0  0  0  0  0  0  2 V2000
  151.6220  144.4188  156.5834 N   0  3  0  0  0  0  0  0  0  0  0  0
  152.1421  144.3945  157.9633 C   0  0  1  0  0  0  0  0  0  0  0  0
  151.3012  145.2991  158.8913 C   0  0  0  0  0  0  0  0  0  0  0  0
  151.8103  145.2532  160.3409 C   0  0  0  0  0  0  0  0  0  0  0  0
  151.8933  143.8118  160.8658 C   0  0  0  0  0  0  0  0  0  0  0  0
  152.7873  142.9478  159.9606 C   0  0  0  0  0  0  0  0  0  0  0  0
  152.3149  142.9407  158.4910 C   0  0  1  0  0  0  0  0  0  0  0  0
  151.1577  142.0614  158.3072 N   0  0  0  0  0  0  0  0  0  0  0  0
  149.8681  142.4412  157.9913 C   0  0  0  0  0  0  0  0  0  0  0  0
  149.1166  141.3076  157.8744 C   0  0  0  0  0  0  0  0  0  0  0  0
  150.0470  140.2614  158.1199 C   0  0  0  0  0  0  0  0  0  0  0  0
  151.2639  140.7145  158.3709 N   0  0  0  0  0  0  0  0  0  0  0  0
  151.8028  143.5264  156.1452 H   0  0  0  0  0  0  0  0  0  0  0  0
  152.0827  145.1495  156.0602 H   0  0  0  0  0  0  0  0  0  0  0  0
  153.1386  144.8355  157.9123 H   0  0  0  0  0  0  0  0  0  0  0  0
  151.3367  146.3281  158.5317 H   0  0  0  0  0  0  0  0  0  0  0  0
  150.2495  145.0173  158.8682 H   0  0  0  0  0  0  0  0  0  0  0  0
  152.7966  145.7161  160.3955 H   0  0  0  0  0  0  0  0  0  0  0  0
  151.1570  145.8455  160.9822 H   0  0  0  0  0  0  0  0  0  0  0  0
  152.2900  143.8124  161.8816 H   0  0  0  0  0  0  0  0  0  0  0  0
  150.8937  143.3809  160.9301 H   0  0  0  0  0  0  0  0  0  0  0  0
  153.8066  143.3340  160.0048 H   0  0  0  0  0  0  0  0  0  0  0  0
  152.8362  141.9292  160.3475 H   0  0  0  0  0  0  0  0  0  0  0  0
  153.1165  142.4886  157.9045 H   0  0  0  0  0  0  0  0  0  0  0  0
  149.5933  143.4794  157.8761 H   0  0  0  0  0  0  0  0  0  0  0  0
  148.0646  141.2366  157.6399 H   0  0  0  0  0  0  0  0  0  0  0  0
  149.8770  139.1948  158.1198 H   0  0  0  0  0  0  0  0  0  0  0  0
  150.6269  144.5907  156.5995 H   0  0  0  0  0  0  0  0  0  0  0  0
  1  2  1  0  0  0  0
  1 13  1  0  0  0  0
  1 14  1  0  0  0  0
  1 28  1  0  0  0  0
  2  7  1  0  0  0  0
  2  3  1  0  0  0  0
  2 15  1  0  0  0  0
  3  4  1  0  0  0  0
  3 16  1  0  0  0  0
  3 17  1  0  0  0  0
  4  5  1  0  0  0  0
  4 18  1  0  0  0  0
  4 19  1  0  0  0  0
  5  6  1  0  0  0  0
  5 20  1  0  0  0  0
  5 21  1  0  0  0  0
  6  7  1  0  0  0  0
  6 22  1  0  0  0  0
  6 23  1  0  0  0  0
  7  8  1  0  0  0  0
  7 24  1  0  0  0  0
  8 12  1  0  0  0  0
  8  9  1  0  0  0  0
  9 10  2  0  0  0  0
  9 25  1  0  0  0  0
 10 11  1  0  0  0  0
 10 26  1  0  0  0  0
 11 12  2  0  0  0  0
 11 27  1  0  0  0  0
M  CHG  1   1   1
M  END
> <s_m_source_file>
AV-unprocessed.smi

> <i_m_source_file_index>
3083

> <i_lp_mmshare_version>
43012

> <i_f3d_flags>
0

> <s_epik_input>
W05IMl1bQ0BASF0xW0NIMl1bQ0gyXVtDSDJdW0NIMl1bQ0BIXTFuMltjSF1bY0hdW2NIXW4y

> <s_epik_cmdline>
J2VwaWtfcHl0aG9uJywgJy1waCcsICc3LjAnLCAnLXRuJywgJzgnLCAnLW1hJywgJzIwMCcsICctbWV0YWxfYmluZGluZycsICctaW1hZScsICc8aW5maWxlLm1hZT4nLCAnLW9tYWUnLCAnPG91dGZpbGUubWFlPic=

> <r_lp_tautomer_probability>
1

> <r_epik_Ionization_Penalty>
0.00385053

> <r_epik_Ionization_Penalty_Charging>
0.0038389

> <r_epik_Ionization_Penalty_Neutral>
1.16305e-05

> <r_epik_State_Penalty>
-0

> <r_epik_Charging_Adjusted_Penalty>
0.0038389

> <i_epik_Tot_Q>
1

> <i_epik_Tot_abs_Q>
1

> <r_epik_Metal_State_Penalty>
-0

> <b_epik_Metal_Only>
0

> <s_lp_Force_Field>
OPLS_2005

> <r_lp_Energy>
16.3847

> <b_lp_Chiralities_Consistent>
1

> <s_lp_Variant>
AV-unprocessed.smi:3083-2

> <Gold.Version>
5.8.1

> <Gold.Id.Protein>
6NUR|6NUR_protein|mol2

> <Gold.PLP.Fitness>
37.3469

> <Gold.PLP.PLP>
-29.8562

> <Gold.PLP.part.hbond>
-1.0000

> <Gold.PLP.part.metal>
0.0000

> <Gold.PLP.part.buried>
-2.0941

> <Gold.PLP.part.nonpolar>
-25.7923

> <Gold.PLP.part.repulsive>
0.0736

> <Gold.PLP.ligand.clash>
0.1728

> <Gold.PLP.ligand.torsion>
0.3043

> <Gold.PLP.Chemscore.Hbond>
2.0000

> <Gold.PLP.Chemscore.CHOScore>
0.7358

> <Gold.PLP.Chemscore.Metal>
0.0000

> <Gold.Chemscore.Hbonds>
donor molecule, donor type, donor heavy atom, donor atom, acceptor molecule, acceptor atom, score
      L1  H     1    28       P1  8028  2.00
      L1  C     9    25       P1  8028  0.76

> <Gold.PLP.Chemscore.Internal.Correction>
0.0647

> <Gold.Rescore>
     Score         DG    S(hbond)    S(metal)    S(lipo)     H(rot)  DE(clash)    DE(int)     intcor
     14.44     -16.32       1.00        0.00      85.99       1.00       0.57       1.31       ----

> <Gold.Chemscore.Fitness>
14.4420

> <Gold.Chemscore.DG>
-16.3152

> <Gold.Chemscore.ZeroCoef>
-5.4800

> <Gold.Chemscore.Hbond>
0.9983

> <Gold.Chemscore.Metal>
0.0000

> <Gold.Chemscore.Lipo>
85.9913

> <Gold.Chemscore.Internal_Hbond>
0.0000

> <Gold.Chemscore.DEClash>
0.5671

> <Gold.Chemscore.DEInternal>
1.3061

> <Gold.Chemscore.Rot>
1.0000

> <Gold.Chemscore.Internal.Correction>
   9.000000E+99

> <Gold.Chemscore.Hbonds>
donor molecule, donor type, donor heavy atom, donor atom, acceptor molecule, acceptor atom, score
      L1  H     1    28       P1  8028  0.91

> <Gold.Chemscore.Hbond.Weighted>
-3.3343

> <Gold.Chemscore.Metal.Weighted>
-0.0000

> <Gold.Chemscore.Lipo.Weighted>
-10.0610

> <Gold.Chemscore.Internal_Hbond.Weighted>
0.0000

> <Gold.Chemscore.DEClash.Weighted>
0.5671

> <Gold.Chemscore.DEInternal.Weighted>
1.3061

> <Gold.Chemscore.Rot.Weighted>
2.5600

> <Gold.Chemscore.Internal.Correction.Weighted>
   9.000000E+99

> <Gold.Protein.RotatedTorsions>
[ 6907 6896 6895 6894 ] final -147.90 input  -60.11 | X-H torsion
[ 7974 7965 7964 7962 ] final  141.06 input  175.53 | X-H torsion
[ 8008 7997 7996 7995 ] final  160.79 input   59.86 | X-H torsion
[ 10167 10162 10161 10158 ] final  175.75 input  -65.29 | X-H torsion
[ 10718 10713 10712 10709 ] final  -47.15 input   66.30 | X-H torsion
[ 10763 10752 10751 10750 ] final  178.07 input  -60.55 | X-H torsion
[ 11005 11000 10999 10996 ] final   32.03 input  -57.11 | X-H torsion

> <Gold.Protein.ActiveResidues>
 VAL166  LYS551  ARG553  GLY616  TRP617  ASP618  TYR619  PRO620  LYS621  CYS622 
 ASP623  PHE694  ASN695  SER759  ASP760  ASP761  ALA762  ILE779  LEU786  VAL792 
 PHE793  MET794  SER795  GLU796  ALA797  LYS798  CYS799  TRP800  GLU811  SER814 

> <Gold.Protein.RotatedAtoms>
  151.1622  133.4838  159.2593 H   0  0  0  0  0  0  0  0  0  0  0  0  # atno 6907 bound_to 6896
  151.1442  135.0195  159.8649 H   0  0  0  0  0  0  0  0  0  0  0  0  # atno 6908 bound_to 6896
  152.5463  134.1512  159.8572 H   0  0  0  0  0  0  0  0  0  0  0  0  # atno 6909 bound_to 6896
  144.9130  139.5268  143.5699 H   0  0  0  0  0  0  0  0  0  0  0  0  # atno 7974 bound_to 7965
  156.2148  140.1794  156.7614 H   0  0  0  0  0  0  0  0  0  0  0  0  # atno 8008 bound_to 7997
  154.5775  140.0672  156.9085 H   0  0  0  0  0  0  0  0  0  0  0  0  # atno 8009 bound_to 7997
  155.2562  140.3332  155.4280 H   0  0  0  0  0  0  0  0  0  0  0  0  # atno 8010 bound_to 7997
  139.5189  144.2995  152.0391 H   0  0  0  0  0  0  0  0  0  0  0  0  # atno 10167 bound_to 10162
  156.2113  130.4161  149.9111 H   0  0  0  0  0  0  0  0  0  0  0  0  # atno 10718 bound_to 10713
  154.5028  135.2784  155.1407 H   0  0  0  0  0  0  0  0  0  0  0  0  # atno 10763 bound_to 10752
  154.3033  135.6243  153.5438 H   0  0  0  0  0  0  0  0  0  0  0  0  # atno 10764 bound_to 10752
  152.9905  135.5702  154.5475 H   0  0  0  0  0  0  0  0  0  0  0  0  # atno 10765 bound_to 10752
  140.2777  134.3009  155.7809 H   0  0  0  0  0  0  0  0  0  0  0  0  # atno 11005 bound_to 11000
  146.3168  139.7951  142.8977 LP  0  0  0  0  0  0  0  0  0  0  0  0  # atno 17320 bound_to 7965
  145.3422  141.0290  143.3386 LP  0  0  0  0  0  0  0  0  0  0  0  0  # atno 17321 bound_to 7965
  140.2443  144.4236  150.6247 LP  0  0  0  0  0  0  0  0  0  0  0  0  # atno 17342 bound_to 10162
  140.6269  143.2182  151.6578 LP  0  0  0  0  0  0  0  0  0  0  0  0  # atno 17343 bound_to 10162
  156.6788  130.8850  151.3573 LP  0  0  0  0  0  0  0  0  0  0  0  0  # atno 17370 bound_to 10713
  157.7040  130.9364  150.0872 LP  0  0  0  0  0  0  0  0  0  0  0  0  # atno 17371 bound_to 10713
  141.2168  133.7506  156.9432 LP  0  0  0  0  0  0  0  0  0  0  0  0  # atno 17394 bound_to 11000
  140.1313  134.9354  157.2341 LP  0  0  0  0  0  0  0  0  0  0  0  0  # atno 17395 bound_to 11000

$$$$
