AV-unprocessed.smi:2119|AV-procd|sdf|8632|dock8
  -GOLD-   2272011373D 1   1.00000     0.00000
 Structure written by MMmdl.
 47 49  0  0  0  0  0  0  0  0  1 V2000
  145.3749  135.1279  154.3210 O   0  0  0  0  0  0  0  0  0  0  0  0
  146.3785  135.3667  153.6499 C   0  0  0  0  0  0  0  0  0  0  0  0
  147.3596  136.1847  154.0558 N   0  0  0  0  0  0  0  0  0  0  0  0
  147.3624  136.9341  155.3096 C   0  0  0  0  0  0  0  0  0  0  0  0
  148.6210  136.6647  156.1938 C   0  0  2  0  0  0  0  0  0  0  0  0
  148.1720  136.5126  157.6881 C   0  0  1  0  0  0  0  0  0  0  0  0
  149.2060  136.2618  158.7723 C   0  0  0  0  0  0  0  0  0  0  0  0
  148.3800  136.4894  160.0323 C   0  0  0  0  0  0  0  0  0  0  0  0
  147.4953  137.5549  159.7026 O   0  0  0  0  0  0  0  0  0  0  0  0
  147.4363  137.7177  158.2870 C   0  0  0  0  0  0  0  0  0  0  0  0
  149.7427  137.6193  156.0011 N   0  0  0  0  0  0  0  0  0  0  0  0
  150.3364  137.4969  154.6631 C   0  0  0  0  0  0  0  0  0  0  0  0
  151.5641  138.4048  154.4846 C   0  0  0  0  0  0  0  0  0  0  0  0
  151.1826  139.7574  154.7042 O   0  0  0  0  0  0  0  0  0  0  0  0
  150.6137  139.9595  155.9920 C   0  0  0  0  0  0  0  0  0  0  0  0
  149.3975  139.0338  156.1799 C   0  0  0  0  0  0  0  0  0  0  0  0
  146.6486  134.8515  152.4385 N   0  0  0  0  0  0  0  0  0  0  0  0
  145.8496  133.9908  151.6378 C   0  0  0  0  0  0  0  0  0  0  0  0
  144.4334  133.9987  151.6182 C   0  0  0  0  0  0  0  0  0  0  0  0
  143.7606  133.1039  150.7638 C   0  0  0  0  0  0  0  0  0  0  0  0
  144.5255  132.2408  149.9553 C   0  0  0  0  0  0  0  0  0  0  0  0
  145.8751  132.2315  149.9543 N   0  0  0  0  0  0  0  0  0  0  0  0
  146.5132  133.0916  150.7762 C   0  0  0  0  0  0  0  0  0  0  0  0
  148.1530  136.3170  153.4455 H   0  0  0  0  0  0  0  0  0  0  0  0
  147.2821  137.9903  155.0497 H   0  0  0  0  0  0  0  0  0  0  0  0
  146.4511  136.6822  155.8526 H   0  0  0  0  0  0  0  0  0  0  0  0
  148.9830  135.6842  155.8805 H   0  0  0  0  0  0  0  0  0  0  0  0
  147.4898  135.6625  157.7386 H   0  0  0  0  0  0  0  0  0  0  0  0
  149.6518  135.2677  158.7290 H   0  0  0  0  0  0  0  0  0  0  0  0
  149.9962  137.0121  158.7515 H   0  0  0  0  0  0  0  0  0  0  0  0
  147.7905  135.6027  160.2690 H   0  0  0  0  0  0  0  0  0  0  0  0
  148.9938  136.7317  160.9001 H   0  0  0  0  0  0  0  0  0  0  0  0
  147.9400  138.6489  158.0242 H   0  0  0  0  0  0  0  0  0  0  0  0
  146.4016  137.7867  157.9509 H   0  0  0  0  0  0  0  0  0  0  0  0
  150.6212  136.4762  154.4312 H   0  0  0  0  0  0  0  0  0  0  0  0
  149.5926  137.7651  153.9110 H   0  0  0  0  0  0  0  0  0  0  0  0
  152.3601  138.1219  155.1748 H   0  0  0  0  0  0  0  0  0  0  0  0
  151.9635  138.3085  153.4750 H   0  0  0  0  0  0  0  0  0  0  0  0
  151.3644  139.7696  156.7604 H   0  0  0  0  0  0  0  0  0  0  0  0
  150.3142  141.0029  156.0887 H   0  0  0  0  0  0  0  0  0  0  0  0
  148.6118  139.3193  155.4785 H   0  0  0  0  0  0  0  0  0  0  0  0
  149.0108  139.2069  157.1838 H   0  0  0  0  0  0  0  0  0  0  0  0
  147.5528  135.0811  152.0522 H   0  0  0  0  0  0  0  0  0  0  0  0
  143.8510  134.6752  152.2238 H   0  0  0  0  0  0  0  0  0  0  0  0
  142.6816  133.0831  150.7256 H   0  0  0  0  0  0  0  0  0  0  0  0
  144.0403  131.5441  149.2881 H   0  0  0  0  0  0  0  0  0  0  0  0
  147.5925  133.0582  150.7464 H   0  0  0  0  0  0  0  0  0  0  0  0
  1  2  2  0  0  0  0
  2  3  1  0  0  0  0
  2 17  1  0  0  0  0
  3  4  1  0  0  0  0
  3 24  1  0  0  0  0
  4  5  1  0  0  0  0
  4 25  1  0  0  0  0
  4 26  1  0  0  0  0
  5  6  1  0  0  0  0
  5 11  1  0  0  0  0
  5 27  1  0  0  0  0
  6 10  1  0  0  0  0
  6  7  1  0  0  0  0
  6 28  1  0  0  0  0
  7  8  1  0  0  0  0
  7 29  1  0  0  0  0
  7 30  1  0  0  0  0
  8  9  1  0  0  0  0
  8 31  1  0  0  0  0
  8 32  1  0  0  0  0
  9 10  1  0  0  0  0
 10 33  1  0  0  0  0
 10 34  1  0  0  0  0
 11 16  1  0  0  0  0
 11 12  1  0  0  0  0
 12 13  1  0  0  0  0
 12 35  1  0  0  0  0
 12 36  1  0  0  0  0
 13 14  1  0  0  0  0
 13 37  1  0  0  0  0
 13 38  1  0  0  0  0
 14 15  1  0  0  0  0
 15 16  1  0  0  0  0
 15 39  1  0  0  0  0
 15 40  1  0  0  0  0
 16 41  1  0  0  0  0
 16 42  1  0  0  0  0
 17 18  1  0  0  0  0
 17 43  1  0  0  0  0
 18 23  1  0  0  0  0
 18 19  2  0  0  0  0
 19 20  1  0  0  0  0
 19 44  1  0  0  0  0
 20 21  2  0  0  0  0
 20 45  1  0  0  0  0
 21 22  1  0  0  0  0
 21 46  1  0  0  0  0
 22 23  2  0  0  0  0
 23 47  1  0  0  0  0
M  END
> <s_m_source_file>
AV-unprocessed.smi

> <i_m_source_file_index>
2119

> <i_lp_mmshare_version>
43012

> <i_f3d_flags>
0

> <s_epik_input>
W2NIXTFuW2NIXVtjSF1bY0hdYzFbTkhdQyg9TylbTkhdW0NIMl1bQ0BIXShbQ0BASF0yW0NIMl1bQ0gyXU9bQ0gyXTIpTjNbQ0gyXVtDSDJdT1tDSDJdW0NIMl0z

> <s_epik_cmdline>
J2VwaWtfcHl0aG9uJywgJy1waCcsICc3LjAnLCAnLXRuJywgJzgnLCAnLW1hJywgJzIwMCcsICctbWV0YWxfYmluZGluZycsICctaW1hZScsICc8aW5maWxlLm1hZT4nLCAnLW9tYWUnLCAnPG91dGZpbGUubWFlPic=

> <r_epik_Ionization_Penalty>
0.129787

> <r_epik_Ionization_Penalty_Charging>
0

> <r_epik_Ionization_Penalty_Neutral>
0.129787

> <r_epik_State_Penalty>
0.121311

> <r_epik_Charging_Adjusted_Penalty>
0.121311

> <i_epik_Tot_Q>
0

> <i_epik_Tot_abs_Q>
0

> <r_epik_Metal_State_Penalty>
0.117931

> <b_epik_Metal_Only>
0

> <s_lp_Force_Field>
OPLS_2005

> <r_lp_Energy>
58.2648

> <b_lp_Chiralities_Consistent>
1

> <s_lp_Variant>
AV-unprocessed.smi:2119-3

> <Gold.Version>
5.8.1

> <Gold.Id.Protein>
6NUR|6NUR_protein|mol2

> <Gold.PLP.Fitness>
43.5639

> <Gold.PLP.PLP>
-31.2261

> <Gold.PLP.part.hbond>
-4.0000

> <Gold.PLP.part.metal>
0.0000

> <Gold.PLP.part.buried>
-6.2937

> <Gold.PLP.part.nonpolar>
-22.4027

> <Gold.PLP.part.repulsive>
0.3271

> <Gold.PLP.ligand.clash>
0.0000

> <Gold.PLP.ligand.torsion>
0.8891

> <Gold.PLP.Chemscore.Hbond>
3.7520

> <Gold.PLP.Chemscore.CHOScore>
0.9008

> <Gold.PLP.Chemscore.Metal>
0.0000

> <Gold.Chemscore.Hbonds>
donor molecule, donor type, donor heavy atom, donor atom, acceptor molecule, acceptor atom, score
      L1  H     3    24       P1  7948  1.00
      L1  H    17    43       P1  7948  1.00
      P1  H  6934  6947       L1     9  0.78
      P1  H  7989  7998       L1    14  1.00
      L1  C    23    47       P1 10747  0.66

> <Gold.PLP.Chemscore.Internal.Correction>
0.1576

> <Gold.Rescore>
     Score         DG    S(hbond)    S(metal)    S(lipo)     H(rot)  DE(clash)    DE(int)     intcor
     21.05     -21.94       3.70        0.00      71.17       1.65       0.00       0.88       ----

> <Gold.Chemscore.Fitness>
21.0525

> <Gold.Chemscore.DG>
-21.9373

> <Gold.Chemscore.ZeroCoef>
-5.4800

> <Gold.Chemscore.Hbond>
3.6995

> <Gold.Chemscore.Metal>
0.0000

> <Gold.Chemscore.Lipo>
71.1707

> <Gold.Chemscore.Internal_Hbond>
0.0000

> <Gold.Chemscore.DEClash>
0.0000

> <Gold.Chemscore.DEInternal>
0.8848

> <Gold.Chemscore.Rot>
1.6508

> <Gold.Chemscore.Internal.Correction>
   9.000000E+99

> <Gold.Chemscore.Hbonds>
donor molecule, donor type, donor heavy atom, donor atom, acceptor molecule, acceptor atom, score
      L1  H     3    24       P1  7948  0.97
      L1  H    17    43       P1  7948  0.91
      P1  H  6934  6947       L1     9  0.75
      P1  H  7989  7998       L1    14  0.93

> <Gold.Chemscore.Hbond.Weighted>
-12.3565

> <Gold.Chemscore.Metal.Weighted>
-0.0000

> <Gold.Chemscore.Lipo.Weighted>
-8.3270

> <Gold.Chemscore.Internal_Hbond.Weighted>
0.0000

> <Gold.Chemscore.DEClash.Weighted>
0.0000

> <Gold.Chemscore.DEInternal.Weighted>
0.8848

> <Gold.Chemscore.Rot.Weighted>
4.2262

> <Gold.Chemscore.Internal.Correction.Weighted>
   9.000000E+99

> <Gold.Protein.RotatedTorsions>
[ 6907 6896 6895 6894 ] final   -3.35 input  -60.11 | X-H torsion
[ 7974 7965 7964 7962 ] final -122.74 input  175.53 | X-H torsion
[ 8008 7997 7996 7995 ] final   41.24 input   59.86 | X-H torsion
[ 10167 10162 10161 10158 ] final  119.79 input  -65.29 | X-H torsion
[ 10718 10713 10712 10709 ] final   25.03 input   66.30 | X-H torsion
[ 10763 10752 10751 10750 ] final  -50.41 input  -60.55 | X-H torsion
[ 11005 11000 10999 10996 ] final   99.78 input  -57.11 | X-H torsion

> <Gold.Protein.ActiveResidues>
 VAL166  LYS551  ARG553  GLY616  TRP617  ASP618  TYR619  PRO620  LYS621  CYS622 
 ASP623  PHE694  ASN695  SER759  ASP760  ASP761  ALA762  ILE779  LEU786  VAL792 
 PHE793  MET794  SER795  GLU796  ALA797  LYS798  CYS799  TRP800  GLU811  SER814 

> <Gold.Protein.RotatedAtoms>
  151.5151  135.1066  159.9863 H   0  0  0  0  0  0  0  0  0  0  0  0  # atno 6907 bound_to 6896
  152.4645  133.7888  159.6901 H   0  0  0  0  0  0  0  0  0  0  0  0  # atno 6908 bound_to 6896
  150.8621  133.7563  159.3014 H   0  0  0  0  0  0  0  0  0  0  0  0  # atno 6909 bound_to 6896
  145.0262  140.8029  143.4351 H   0  0  0  0  0  0  0  0  0  0  0  0  # atno 7974 bound_to 7965
  155.2663  140.3363  155.4269 H   0  0  0  0  0  0  0  0  0  0  0  0  # atno 8008 bound_to 7997
  156.2152  140.1786  156.7647 H   0  0  0  0  0  0  0  0  0  0  0  0  # atno 8009 bound_to 7997
  154.5743  140.0664  156.8996 H   0  0  0  0  0  0  0  0  0  0  0  0  # atno 8010 bound_to 7997
  139.6023  144.7060  151.3033 H   0  0  0  0  0  0  0  0  0  0  0  0  # atno 10167 bound_to 10162
  157.1878  130.6832  149.6138 H   0  0  0  0  0  0  0  0  0  0  0  0  # atno 10718 bound_to 10713
  154.1099  135.6550  153.4883 H   0  0  0  0  0  0  0  0  0  0  0  0  # atno 10763 bound_to 10752
  153.0260  135.5245  154.7202 H   0  0  0  0  0  0  0  0  0  0  0  0  # atno 10764 bound_to 10752
  154.6379  135.2984  155.0108 H   0  0  0  0  0  0  0  0  0  0  0  0  # atno 10765 bound_to 10752
  139.8770  134.9111  156.4657 H   0  0  0  0  0  0  0  0  0  0  0  0  # atno 11005 bound_to 11000
  145.1830  139.2341  143.5282 LP  0  0  0  0  0  0  0  0  0  0  0  0  # atno 17320 bound_to 7965
  146.3492  140.1609  142.8591 LP  0  0  0  0  0  0  0  0  0  0  0  0  # atno 17321 bound_to 7965
  140.7259  143.7005  150.7849 LP  0  0  0  0  0  0  0  0  0  0  0  0  # atno 17342 bound_to 10162
  140.0584  143.5180  152.2640 LP  0  0  0  0  0  0  0  0  0  0  0  0  # atno 17343 bound_to 10162
  155.9715  130.4625  150.6147 LP  0  0  0  0  0  0  0  0  0  0  0  0  # atno 17370 bound_to 10713
  157.3890  131.0792  151.1411 LP  0  0  0  0  0  0  0  0  0  0  0  0  # atno 17371 bound_to 10713
  140.8832  133.7902  155.9489 LP  0  0  0  0  0  0  0  0  0  0  0  0  # atno 17394 bound_to 11000
  140.8832  134.2586  157.5133 LP  0  0  0  0  0  0  0  0  0  0  0  0  # atno 17395 bound_to 11000

$$$$
