AV-unprocessed.smi:2844|AV-procd|sdf|10940|dock10
  -GOLD-   2272015383D 1   1.00000     0.00000
 Structure written by MMmdl.
 38 40  0  0  0  0  0  0  0  0  1 V2000
  153.1784  142.6802  160.9659 C   0  0  0  0  0  0  0  0  0  0  0  0
  152.4390  142.3734  159.6755 C   0  0  0  0  0  0  0  0  0  0  0  0
  152.8073  141.2325  158.9276 C   0  0  0  0  0  0  0  0  0  0  0  0
  152.1437  140.9107  157.7235 C   0  0  0  0  0  0  0  0  0  0  0  0
  152.3346  139.8574  156.8456 N   0  0  0  0  0  0  0  0  0  0  0  0
  151.4122  140.1088  155.9213 C   0  0  0  0  0  0  0  0  0  0  0  0
  150.6459  141.2026  156.0962 N   0  0  0  0  0  0  0  0  0  0  0  0
  149.5829  141.6785  155.2292 C   0  0  0  0  0  0  0  0  0  0  0  0
  148.8534  140.5297  154.5071 C   0  0  1  0  0  0  0  0  0  0  0  0
  148.3572  139.6062  155.4593 O   0  0  0  0  0  0  0  0  0  0  0  0
  147.6977  141.0457  153.6280 C   0  0  0  0  0  0  0  0  0  0  0  0
  146.7384  141.8432  154.3717 N   0  0  0  0  0  0  0  0  0  0  0  0
  146.0592  142.9714  153.9537 C   0  0  0  0  0  0  0  0  0  0  0  0
  145.2844  143.3401  155.0106 C   0  0  0  0  0  0  0  0  0  0  0  0
  144.2111  144.6883  155.0827 Cl  0  0  0  0  0  0  0  0  0  0  0  0
  145.5338  142.3963  156.0391 C   0  0  0  0  0  0  0  0  0  0  0  0
  146.4144  141.4891  155.6419 N   0  0  0  0  0  0  0  0  0  0  0  0
  151.0944  141.7697  157.2836 C   0  0  0  0  0  0  0  0  0  0  0  0
  150.7200  142.9089  158.0178 C   0  0  0  0  0  0  0  0  0  0  0  0
  151.3920  143.2146  159.2199 C   0  0  0  0  0  0  0  0  0  0  0  0
  150.9788  144.4450  160.0080 C   0  0  0  0  0  0  0  0  0  0  0  0
  153.9282  141.9196  161.1856 H   0  0  0  0  0  0  0  0  0  0  0  0
  152.4842  142.7165  161.8056 H   0  0  0  0  0  0  0  0  0  0  0  0
  153.6877  143.6414  160.8943 H   0  0  0  0  0  0  0  0  0  0  0  0
  153.6051  140.5920  159.2739 H   0  0  0  0  0  0  0  0  0  0  0  0
  151.2872  139.4616  155.0654 H   0  0  0  0  0  0  0  0  0  0  0  0
  148.8817  142.2651  155.8244 H   0  0  0  0  0  0  0  0  0  0  0  0
  150.0209  142.3622  154.5011 H   0  0  0  0  0  0  0  0  0  0  0  0
  149.5683  140.0003  153.8758 H   0  0  0  0  0  0  0  0  0  0  0  0
  147.5903  139.9766  155.8682 H   0  0  0  0  0  0  0  0  0  0  0  0
  148.0859  141.6486  152.8058 H   0  0  0  0  0  0  0  0  0  0  0  0
  147.1661  140.2076  153.1751 H   0  0  0  0  0  0  0  0  0  0  0  0
  146.1852  143.4004  152.9708 H   0  0  0  0  0  0  0  0  0  0  0  0
  145.1159  142.3387  157.0334 H   0  0  0  0  0  0  0  0  0  0  0  0
  149.9217  143.5412  157.6578 H   0  0  0  0  0  0  0  0  0  0  0  0
  150.1710  144.9832  159.5114 H   0  0  0  0  0  0  0  0  0  0  0  0
  151.8197  145.1303  160.1168 H   0  0  0  0  0  0  0  0  0  0  0  0
  150.6309  144.1621  161.0017 H   0  0  0  0  0  0  0  0  0  0  0  0
  1  2  1  0  0  0  0
  1 22  1  0  0  0  0
  1 23  1  0  0  0  0
  1 24  1  0  0  0  0
  2 20  1  0  0  0  0
  2  3  2  0  0  0  0
  3  4  1  0  0  0  0
  3 25  1  0  0  0  0
  4 18  2  0  0  0  0
  4  5  1  0  0  0  0
  5  6  2  0  0  0  0
  6  7  1  0  0  0  0
  6 26  1  0  0  0  0
  7  8  1  0  0  0  0
  7 18  1  0  0  0  0
  8  9  1  0  0  0  0
  8 27  1  0  0  0  0
  8 28  1  0  0  0  0
  9 10  1  0  0  0  0
  9 11  1  0  0  0  0
  9 29  1  0  0  0  0
 10 30  1  0  0  0  0
 11 12  1  0  0  0  0
 11 31  1  0  0  0  0
 11 32  1  0  0  0  0
 12 17  1  0  0  0  0
 12 13  1  0  0  0  0
 13 14  2  0  0  0  0
 13 33  1  0  0  0  0
 14 15  1  0  0  0  0
 14 16  1  0  0  0  0
 16 17  2  0  0  0  0
 16 34  1  0  0  0  0
 18 19  1  0  0  0  0
 19 20  2  0  0  0  0
 19 35  1  0  0  0  0
 20 21  1  0  0  0  0
 21 36  1  0  0  0  0
 21 37  1  0  0  0  0
 21 38  1  0  0  0  0
M  END
> <s_m_source_file>
AV-unprocessed.smi

> <i_m_source_file_index>
2844

> <i_lp_mmshare_version>
43012

> <i_f3d_flags>
0

> <s_epik_input>
W0NIM11jKFtjSF0xKWMoW0NIM10pW2NIXWMoYzEyKW4oW2NIXW4yKVtDSDJdW0NASF0oW09IXSlbQ0gyXW4zW2NIXWMoQ2wpW2NIXW4z

> <s_epik_cmdline>
J2VwaWtfcHl0aG9uJywgJy1waCcsICc3LjAnLCAnLXRuJywgJzgnLCAnLW1hJywgJzIwMCcsICctbWV0YWxfYmluZGluZycsICctaW1hZScsICc8aW5maWxlLm1hZT4nLCAnLW9tYWUnLCAnPG91dGZpbGUubWFlPic=

> <r_lp_tautomer_probability>
1

> <r_epik_Ionization_Penalty>
0.1021

> <r_epik_Ionization_Penalty_Charging>
0

> <r_epik_Ionization_Penalty_Neutral>
0.1021

> <r_epik_State_Penalty>
0.0920694

> <r_epik_Charging_Adjusted_Penalty>
0.0920694

> <i_epik_Tot_Q>
0

> <i_epik_Tot_abs_Q>
0

> <r_epik_Metal_State_Penalty>
0.0784292

> <b_epik_Metal_Only>
0

> <s_lp_Force_Field>
OPLS_2005

> <r_lp_Energy>
10.226

> <b_lp_Chiralities_Consistent>
1

> <s_lp_Variant>
AV-unprocessed.smi:2844-2

> <Gold.Version>
5.8.1

> <Gold.Id.Protein>
6NUR|6NUR_protein|mol2

> <Gold.PLP.Fitness>
49.2985

> <Gold.PLP.PLP>
-47.7087

> <Gold.PLP.part.hbond>
-1.0000

> <Gold.PLP.part.metal>
0.0000

> <Gold.PLP.part.buried>
-5.0419

> <Gold.PLP.part.nonpolar>
-40.7766

> <Gold.PLP.part.repulsive>
0.0916

> <Gold.PLP.ligand.clash>
0.0000

> <Gold.PLP.ligand.torsion>
0.7097

> <Gold.PLP.Chemscore.Hbond>
1.0000

> <Gold.PLP.Chemscore.CHOScore>
0.0000

> <Gold.PLP.Chemscore.Metal>
0.0000

> <Gold.Chemscore.Hbonds>
donor molecule, donor type, donor heavy atom, donor atom, acceptor molecule, acceptor atom, score
      P1  H  7997  8009       L1     5  0.90

> <Gold.PLP.Chemscore.Internal.Correction>
0.0092

> <Gold.Rescore>
     Score         DG    S(hbond)    S(metal)    S(lipo)     H(rot)  DE(clash)    DE(int)     intcor
     14.83     -16.22       0.90        0.00     113.33       2.15       0.74       0.66       ----

> <Gold.Chemscore.Fitness>
14.8293

> <Gold.Chemscore.DG>
-16.2215

> <Gold.Chemscore.ZeroCoef>
-5.4800

> <Gold.Chemscore.Hbond>
0.8965

> <Gold.Chemscore.Metal>
0.0000

> <Gold.Chemscore.Lipo>
113.3321

> <Gold.Chemscore.Internal_Hbond>
0.0000

> <Gold.Chemscore.DEClash>
0.7360

> <Gold.Chemscore.DEInternal>
0.6561

> <Gold.Chemscore.Rot>
2.1534

> <Gold.Chemscore.Internal.Correction>
   9.000000E+99

> <Gold.Chemscore.Hbonds>
donor molecule, donor type, donor heavy atom, donor atom, acceptor molecule, acceptor atom, score
      P1  H  7997  8009       L1     5  0.19

> <Gold.Chemscore.Hbond.Weighted>
-2.9944

> <Gold.Chemscore.Metal.Weighted>
-0.0000

> <Gold.Chemscore.Lipo.Weighted>
-13.2599

> <Gold.Chemscore.Internal_Hbond.Weighted>
0.0000

> <Gold.Chemscore.DEClash.Weighted>
0.7360

> <Gold.Chemscore.DEInternal.Weighted>
0.6561

> <Gold.Chemscore.Rot.Weighted>
5.5127

> <Gold.Chemscore.Internal.Correction.Weighted>
   9.000000E+99

> <Gold.Protein.RotatedTorsions>
[ 6907 6896 6895 6894 ] final  -57.73 input  -60.11 | X-H torsion
[ 7974 7965 7964 7962 ] final -113.36 input  175.53 | X-H torsion
[ 8008 7997 7996 7995 ] final -168.42 input   59.86 | X-H torsion
[ 10167 10162 10161 10158 ] final  139.44 input  -65.29 | X-H torsion
[ 10718 10713 10712 10709 ] final  -51.15 input   66.30 | X-H torsion
[ 10763 10752 10751 10750 ] final  137.80 input  -60.55 | X-H torsion
[ 11005 11000 10999 10996 ] final -129.98 input  -57.11 | X-H torsion

> <Gold.Protein.ActiveResidues>
 VAL166  LYS551  ARG553  GLY616  TRP617  ASP618  TYR619  PRO620  LYS621  CYS622 
 ASP623  PHE694  ASN695  SER759  ASP760  ASP761  ALA762  ILE779  LEU786  VAL792 
 PHE793  MET794  SER795  GLU796  ALA797  LYS798  CYS799  TRP800  GLU811  SER814 

> <Gold.Protein.RotatedAtoms>
  150.8062  134.7189  159.6646 H   0  0  0  0  0  0  0  0  0  0  0  0  # atno 6907 bound_to 6896
  152.4182  134.6000  160.0007 H   0  0  0  0  0  0  0  0  0  0  0  0  # atno 6908 bound_to 6896
  151.6223  133.3301  159.3127 H   0  0  0  0  0  0  0  0  0  0  0  0  # atno 6909 bound_to 6896
  145.1329  140.8735  143.3747 H   0  0  0  0  0  0  0  0  0  0  0  0  # atno 7974 bound_to 7965
  155.8912  140.1025  157.1417 H   0  0  0  0  0  0  0  0  0  0  0  0  # atno 8008 bound_to 7997
  154.4015  140.1310  156.4382 H   0  0  0  0  0  0  0  0  0  0  0  0  # atno 8009 bound_to 7997
  155.7531  140.3464  155.5163 H   0  0  0  0  0  0  0  0  0  0  0  0  # atno 8010 bound_to 7997
  139.5079  144.6294  151.5855 H   0  0  0  0  0  0  0  0  0  0  0  0  # atno 10167 bound_to 10162
  156.1735  130.4149  149.9611 H   0  0  0  0  0  0  0  0  0  0  0  0  # atno 10718 bound_to 10713
  153.8791  135.3046  155.3444 H   0  0  0  0  0  0  0  0  0  0  0  0  # atno 10763 bound_to 10752
  154.7770  135.4856  153.9768 H   0  0  0  0  0  0  0  0  0  0  0  0  # atno 10764 bound_to 10752
  153.1362  135.6814  153.9196 H   0  0  0  0  0  0  0  0  0  0  0  0  # atno 10765 bound_to 10752
  140.9385  134.1224  157.4172 H   0  0  0  0  0  0  0  0  0  0  0  0  # atno 11005 bound_to 11000
  145.0616  139.3101  143.5877 LP  0  0  0  0  0  0  0  0  0  0  0  0  # atno 17320 bound_to 7965
  146.3512  140.0059  142.8671 LP  0  0  0  0  0  0  0  0  0  0  0  0  # atno 17321 bound_to 7965
  140.6022  143.9589  150.6394 LP  0  0  0  0  0  0  0  0  0  0  0  0  # atno 17342 bound_to 10162
  140.2804  143.3393  152.1156 LP  0  0  0  0  0  0  0  0  0  0  0  0  # atno 17343 bound_to 10162
  156.7404  130.9077  151.3632 LP  0  0  0  0  0  0  0  0  0  0  0  0  # atno 17370 bound_to 10713
  157.6820  130.9149  150.0290 LP  0  0  0  0  0  0  0  0  0  0  0  0  # atno 17371 bound_to 10713
  139.8814  135.0029  156.6153 LP  0  0  0  0  0  0  0  0  0  0  0  0  # atno 17394 bound_to 11000
  140.7766  133.8694  155.8534 LP  0  0  0  0  0  0  0  0  0  0  0  0  # atno 17395 bound_to 11000

$$$$
