AV-unprocessed.smi:3120|AV-procd|sdf|11892|dock2
  -GOLD-   2272017283D 1   1.00000     0.00000
 Structure written by MMmdl.
 22 23  0  0  0  0  0  0  0  0  1 V2000
  153.2208  140.3970  158.5221 O   0  0  0  0  0  0  0  0  0  0  0  0
  153.6440  140.5267  159.6691 C   0  0  0  0  0  0  0  0  0  0  0  0
  154.7306  139.9370  160.1654 N   0  0  0  0  0  0  0  0  0  0  0  0
  154.9828  140.2650  161.5553 C   0  0  0  0  0  0  0  0  0  0  0  0
  154.0082  141.4106  161.8694 C   0  0  0  0  0  0  0  0  0  0  0  0
  152.9782  141.4018  160.7256 C   0  0  1  0  0  0  0  0  0  0  0  0
  152.6106  142.7846  160.1976 C   0  0  0  0  0  0  0  0  0  0  0  0
  152.7694  143.1284  158.8361 C   0  0  0  0  0  0  0  0  0  0  0  0
  152.4132  144.4231  158.4132 C   0  0  0  0  0  0  0  0  0  0  0  0
  151.9107  145.3260  159.3707 C   0  0  0  0  0  0  0  0  0  0  0  0
  151.7530  145.0118  160.6742 N   0  0  0  0  0  0  0  0  0  0  0  0
  152.0963  143.7674  161.0709 C   0  0  0  0  0  0  0  0  0  0  0  0
  155.3245  139.3130  159.6384 H   0  0  0  0  0  0  0  0  0  0  0  0
  154.7755  139.3908  162.1736 H   0  0  0  0  0  0  0  0  0  0  0  0
  156.0219  140.5576  161.7089 H   0  0  0  0  0  0  0  0  0  0  0  0
  153.5367  141.2935  162.8455 H   0  0  0  0  0  0  0  0  0  0  0  0
  154.5600  142.3513  161.8916 H   0  0  0  0  0  0  0  0  0  0  0  0
  152.0771  140.8807  161.0524 H   0  0  0  0  0  0  0  0  0  0  0  0
  153.1573  142.4134  158.1254 H   0  0  0  0  0  0  0  0  0  0  0  0
  152.5222  144.7170  157.3797 H   0  0  0  0  0  0  0  0  0  0  0  0
  151.6288  146.3278  159.0822 H   0  0  0  0  0  0  0  0  0  0  0  0
  151.9567  143.5518  162.1202 H   0  0  0  0  0  0  0  0  0  0  0  0
  1  2  2  0  0  0  0
  2  6  1  0  0  0  0
  2  3  1  0  0  0  0
  3  4  1  0  0  0  0
  3 13  1  0  0  0  0
  4  5  1  0  0  0  0
  4 14  1  0  0  0  0
  4 15  1  0  0  0  0
  5  6  1  0  0  0  0
  5 16  1  0  0  0  0
  5 17  1  0  0  0  0
  6  7  1  0  0  0  0
  6 18  1  0  0  0  0
  7 12  1  0  0  0  0
  7  8  2  0  0  0  0
  8  9  1  0  0  0  0
  8 19  1  0  0  0  0
  9 10  2  0  0  0  0
  9 20  1  0  0  0  0
 10 11  1  0  0  0  0
 10 21  1  0  0  0  0
 11 12  2  0  0  0  0
 12 22  1  0  0  0  0
M  END
> <s_m_source_file>
AV-unprocessed.smi

> <i_m_source_file_index>
3120

> <i_lp_mmshare_version>
43012

> <i_f3d_flags>
0

> <s_epik_input>
Tz1DMVtOSF1bQ0gyXVtDSDJdW0NASF0xYzJbY0hdW2NIXVtjSF1uW2NIXTI=

> <s_epik_cmdline>
J2VwaWtfcHl0aG9uJywgJy1waCcsICc3LjAnLCAnLXRuJywgJzgnLCAnLW1hJywgJzIwMCcsICctbWV0YWxfYmluZGluZycsICctaW1hZScsICc8aW5maWxlLm1hZT4nLCAnLW9tYWUnLCAnPG91dGZpbGUubWFlPic=

> <r_epik_Ionization_Penalty>
0.00558523

> <r_epik_Ionization_Penalty_Charging>
0

> <r_epik_Ionization_Penalty_Neutral>
0.00558523

> <r_epik_State_Penalty>
0.00409114

> <r_epik_Charging_Adjusted_Penalty>
0.00409114

> <i_epik_Tot_Q>
0

> <i_epik_Tot_abs_Q>
0

> <r_epik_Metal_State_Penalty>
-0

> <b_epik_Metal_Only>
0

> <s_lp_Force_Field>
OPLS_2005

> <r_lp_Energy>
14.9187

> <b_lp_Chiralities_Consistent>
1

> <s_lp_Variant>
AV-unprocessed.smi:3120-1

> <Gold.Version>
5.8.1

> <Gold.Id.Protein>
6NUR|6NUR_protein|mol2

> <Gold.PLP.Fitness>
35.8524

> <Gold.PLP.PLP>
-33.3839

> <Gold.PLP.part.hbond>
-1.0000

> <Gold.PLP.part.metal>
0.0000

> <Gold.PLP.part.buried>
-2.4312

> <Gold.PLP.part.nonpolar>
-30.6949

> <Gold.PLP.part.repulsive>
0.2513

> <Gold.PLP.ligand.clash>
0.0000

> <Gold.PLP.ligand.torsion>
0.0415

> <Gold.PLP.Chemscore.Hbond>
0.8480

> <Gold.PLP.Chemscore.CHOScore>
0.0000

> <Gold.PLP.Chemscore.Metal>
0.0000

> <Gold.Chemscore.Hbonds>
donor molecule, donor type, donor heavy atom, donor atom, acceptor molecule, acceptor atom, score
      P1  H  7997  8008       L1     1  0.80

> <Gold.PLP.Chemscore.Internal.Correction>
0.0075

> <Gold.Rescore>
     Score         DG    S(hbond)    S(metal)    S(lipo)     H(rot)  DE(clash)    DE(int)     intcor
     15.11     -16.70       0.91        0.00      91.74       1.00       0.13       1.46       ----

> <Gold.Chemscore.Fitness>
15.1108

> <Gold.Chemscore.DG>
-16.6972

> <Gold.Chemscore.ZeroCoef>
-5.4800

> <Gold.Chemscore.Hbond>
0.9111

> <Gold.Chemscore.Metal>
0.0000

> <Gold.Chemscore.Lipo>
91.7437

> <Gold.Chemscore.Internal_Hbond>
0.0000

> <Gold.Chemscore.DEClash>
0.1259

> <Gold.Chemscore.DEInternal>
1.4605

> <Gold.Chemscore.Rot>
1.0000

> <Gold.Chemscore.Internal.Correction>
   9.000000E+99

> <Gold.Chemscore.Hbonds>
donor molecule, donor type, donor heavy atom, donor atom, acceptor molecule, acceptor atom, score
      P1  H  7997  8008       L1     1  0.66

> <Gold.Chemscore.Hbond.Weighted>
-3.0432

> <Gold.Chemscore.Metal.Weighted>
-0.0000

> <Gold.Chemscore.Lipo.Weighted>
-10.7340

> <Gold.Chemscore.Internal_Hbond.Weighted>
0.0000

> <Gold.Chemscore.DEClash.Weighted>
0.1259

> <Gold.Chemscore.DEInternal.Weighted>
1.4605

> <Gold.Chemscore.Rot.Weighted>
2.5600

> <Gold.Chemscore.Internal.Correction.Weighted>
   9.000000E+99

> <Gold.Protein.RotatedTorsions>
[ 6907 6896 6895 6894 ] final   58.30 input  -60.11 | X-H torsion
[ 7974 7965 7964 7962 ] final   36.60 input  175.53 | X-H torsion
[ 8008 7997 7996 7995 ] final  -93.45 input   59.86 | X-H torsion
[ 10167 10162 10161 10158 ] final  104.33 input  -65.29 | X-H torsion
[ 10718 10713 10712 10709 ] final   -4.01 input   66.30 | X-H torsion
[ 10763 10752 10751 10750 ] final -179.98 input  -60.55 | X-H torsion
[ 11005 11000 10999 10996 ] final  -99.84 input  -57.11 | X-H torsion

> <Gold.Protein.ActiveResidues>
 VAL166  LYS551  ARG553  GLY616  TRP617  ASP618  TYR619  PRO620  LYS621  CYS622 
 ASP623  PHE694  ASN695  SER759  ASP760  ASP761  ALA762  ILE779  LEU786  VAL792 
 PHE793  MET794  SER795  GLU796  ALA797  LYS798  CYS799  TRP800  GLU811  SER814 

> <Gold.Protein.RotatedAtoms>
  152.3812  134.6588  160.0141 H   0  0  0  0  0  0  0  0  0  0  0  0  # atno 6907 bound_to 6896
  151.6850  133.3306  159.3237 H   0  0  0  0  0  0  0  0  0  0  0  0  # atno 6908 bound_to 6896
  150.7749  134.6684  159.6422 H   0  0  0  0  0  0  0  0  0  0  0  0  # atno 6909 bound_to 6896
  146.1199  139.5997  142.9296 H   0  0  0  0  0  0  0  0  0  0  0  0  # atno 7974 bound_to 7965
  154.7359  140.0499  157.0768 H   0  0  0  0  0  0  0  0  0  0  0  0  # atno 8008 bound_to 7997
  155.0241  140.3150  155.4763 H   0  0  0  0  0  0  0  0  0  0  0  0  # atno 8009 bound_to 7997
  156.2853  140.2161  156.5361 H   0  0  0  0  0  0  0  0  0  0  0  0  # atno 8010 bound_to 7997
  139.7186  144.7063  151.0909 H   0  0  0  0  0  0  0  0  0  0  0  0  # atno 10167 bound_to 10162
  156.7676  130.5289  149.5773 H   0  0  0  0  0  0  0  0  0  0  0  0  # atno 10718 bound_to 10713
  154.5282  135.2798  155.1203 H   0  0  0  0  0  0  0  0  0  0  0  0  # atno 10763 bound_to 10752
  154.2734  135.6299  153.5322 H   0  0  0  0  0  0  0  0  0  0  0  0  # atno 10764 bound_to 10752
  152.9951  135.5634  154.5789 H   0  0  0  0  0  0  0  0  0  0  0  0  # atno 10765 bound_to 10752
  141.1293  133.8352  157.1024 H   0  0  0  0  0  0  0  0  0  0  0  0  # atno 11005 bound_to 11000
  145.5487  141.0415  143.2290 LP  0  0  0  0  0  0  0  0  0  0  0  0  # atno 17320 bound_to 7965
  144.7588  139.7009  143.7243 LP  0  0  0  0  0  0  0  0  0  0  0  0  # atno 17321 bound_to 7965
  140.7749  143.5196  150.9553 LP  0  0  0  0  0  0  0  0  0  0  0  0  # atno 17342 bound_to 10162
  139.8882  143.6986  152.3148 LP  0  0  0  0  0  0  0  0  0  0  0  0  # atno 17343 bound_to 10162
  156.1299  130.6170  151.0317 LP  0  0  0  0  0  0  0  0  0  0  0  0  # atno 17370 bound_to 10713
  157.6706  131.0862  150.7622 LP  0  0  0  0  0  0  0  0  0  0  0  0  # atno 17371 bound_to 10713
  140.0325  134.9894  157.0808 LP  0  0  0  0  0  0  0  0  0  0  0  0  # atno 17394 bound_to 11000
  140.4262  134.1828  155.7166 LP  0  0  0  0  0  0  0  0  0  0  0  0  # atno 17395 bound_to 11000

$$$$
