AV-unprocessed.smi:100|AV-procd|sdf|906|dock10
  -GOLD-   2262017403D 1   1.00000     0.00000
 Structure written by MMmdl.
 31 33  0  0  0  0  0  0  0  0  1 V2000
  142.2077  145.2725  155.2183 N   0  0  0  0  0  0  0  0  0  0  0  0
  143.3474  144.7645  154.7291 C   0  0  0  0  0  0  0  0  0  0  0  0
  143.8779  145.3282  153.6186 N   0  0  0  0  0  0  0  0  0  0  0  0
  145.0146  144.8396  153.1118 C   0  0  0  0  0  0  0  0  0  0  0  0
  145.7560  143.8206  153.5540 N   0  0  0  0  0  0  0  0  0  0  0  0
  145.2199  143.2532  154.6734 C   0  0  0  0  0  0  0  0  0  0  0  0
  144.0222  143.6664  155.3201 C   0  0  0  0  0  0  0  0  0  0  0  0
  143.7811  142.8642  156.4270 N   0  0  0  0  0  0  0  0  0  0  0  0
  144.7813  142.0243  156.4292 C   0  0  0  0  0  0  0  0  0  0  0  0
  145.6959  142.1883  155.4115 N   0  0  0  0  0  0  0  0  0  0  0  0
  146.9302  141.3840  155.1617 C   0  0  1  0  0  0  0  0  0  0  0  0
  146.5493  140.0702  154.8876 O   0  0  0  0  0  0  0  0  0  0  0  0
  147.4277  139.5052  153.9129 C   0  0  1  0  0  0  0  0  0  0  0  0
  146.6166  138.8881  152.7554 C   0  0  0  0  0  0  0  0  0  0  0  0
  147.3522  138.8041  151.5523 O   0  0  0  0  0  0  0  0  0  0  0  0
  148.4202  140.6133  153.5274 C   0  0  2  0  0  0  0  0  0  0  0  0
  149.5146  140.4530  154.2776 F   0  0  0  0  0  0  0  0  0  0  0  0
  147.6785  141.8812  153.9260 C   0  0  2  0  0  0  0  0  0  0  0  0
  148.5846  142.9340  154.1911 O   0  0  0  0  0  0  0  0  0  0  0  0
  141.7924  144.8696  156.0460 H   0  0  0  0  0  0  0  0  0  0  0  0
  141.7673  146.0564  154.7592 H   0  0  0  0  0  0  0  0  0  0  0  0
  145.3837  145.3350  152.2260 H   0  0  0  0  0  0  0  0  0  0  0  0
  144.8818  141.2563  157.1826 H   0  0  0  0  0  0  0  0  0  0  0  0
  147.5145  141.4246  156.0830 H   0  0  0  0  0  0  0  0  0  0  0  0
  147.9622  138.6915  154.4056 H   0  0  0  0  0  0  0  0  0  0  0  0
  146.3223  137.8729  153.0217 H   0  0  0  0  0  0  0  0  0  0  0  0
  145.6969  139.4494  152.5877 H   0  0  0  0  0  0  0  0  0  0  0  0
  148.1219  139.3466  151.6322 H   0  0  0  0  0  0  0  0  0  0  0  0
  148.7347  140.5951  152.4835 H   0  0  0  0  0  0  0  0  0  0  0  0
  146.9682  142.1692  153.1502 H   0  0  0  0  0  0  0  0  0  0  0  0
  148.7418  142.9645  155.1225 H   0  0  0  0  0  0  0  0  0  0  0  0
  1  2  1  0  0  0  0
  1 20  1  0  0  0  0
  1 21  1  0  0  0  0
  2  7  1  0  0  0  0
  2  3  2  0  0  0  0
  3  4  1  0  0  0  0
  4  5  2  0  0  0  0
  4 22  1  0  0  0  0
  5  6  1  0  0  0  0
  6 10  1  0  0  0  0
  6  7  2  0  0  0  0
  7  8  1  0  0  0  0
  8  9  2  0  0  0  0
  9 10  1  0  0  0  0
  9 23  1  0  0  0  0
 10 11  1  0  0  0  0
 11 18  1  0  0  0  0
 11 12  1  0  0  0  0
 11 24  1  0  0  0  0
 12 13  1  0  0  0  0
 13 14  1  0  0  0  0
 13 16  1  0  0  0  0
 13 25  1  0  0  0  0
 14 15  1  0  0  0  0
 14 26  1  0  0  0  0
 14 27  1  0  0  0  0
 15 28  1  0  0  0  0
 16 17  1  0  0  0  0
 16 18  1  0  0  0  0
 16 29  1  0  0  0  0
 18 19  1  0  0  0  0
 18 30  1  0  0  0  0
 19 31  1  0  0  0  0
M  END
> <s_m_source_file>
AV-unprocessed.smi

> <i_m_source_file_index>
100

> <i_lp_mmshare_version>
43012

> <i_f3d_flags>
0

> <s_epik_input>
bjFbY0hdbmMoW05IMl0pYyhjMTIpbltjSF1uMltDQEBIXTNPW0NAQEhdKFtDSDJdW09IXSlbQ0BIXShGKVtDQEhdM1tPSF0=

> <s_epik_cmdline>
J2VwaWtfcHl0aG9uJywgJy1waCcsICc3LjAnLCAnLXRuJywgJzgnLCAnLW1hJywgJzIwMCcsICctbWV0YWxfYmluZGluZycsICctaW1hZScsICc8aW5maWxlLm1hZT4nLCAnLW9tYWUnLCAnPG91dGZpbGUubWFlPic=

> <r_lp_tautomer_probability>
1

> <r_epik_Ionization_Penalty>
0.000750324

> <r_epik_Ionization_Penalty_Charging>
0

> <r_epik_Ionization_Penalty_Neutral>
0.000750324

> <r_epik_State_Penalty>
-0

> <r_epik_Charging_Adjusted_Penalty>
0

> <i_epik_Tot_Q>
0

> <i_epik_Tot_abs_Q>
0

> <r_epik_Metal_State_Penalty>
-0

> <b_epik_Metal_Only>
0

> <s_epik_Chemistry_Notes>
This compound contains an acetal/aminal-like group ( X-CH(R)-Y where X, Y are N, S, or O) that may be acid/base labile, releasing an aldehyde.

> <s_lp_Force_Field>
OPLS_2005

> <r_lp_Energy>
36.265

> <b_lp_Chiralities_Consistent>
1

> <s_lp_Variant>
AV-unprocessed.smi:100-10

> <Gold.Version>
5.8.1

> <Gold.Id.Protein>
6NUR|6NUR_protein|mol2

> <Gold.PLP.Fitness>
41.0705

> <Gold.PLP.PLP>
-33.3176

> <Gold.PLP.part.hbond>
-7.2976

> <Gold.PLP.part.metal>
0.0000

> <Gold.PLP.part.buried>
2.8575

> <Gold.PLP.part.nonpolar>
-26.6796

> <Gold.PLP.part.repulsive>
0.5944

> <Gold.PLP.ligand.clash>
0.0000

> <Gold.PLP.ligand.torsion>
0.2817

> <Gold.PLP.Chemscore.Hbond>
2.7680

> <Gold.PLP.Chemscore.CHOScore>
0.0000

> <Gold.PLP.Chemscore.Metal>
0.0000

> <Gold.Chemscore.Hbonds>
donor molecule, donor type, donor heavy atom, donor atom, acceptor molecule, acceptor atom, score
      L1  H    15    28       P1  7957  1.00
      L1  H    19    31       P1  8028  0.16
      P1  H  7954  7966       L1    15  0.44
      P1  H  8022  8030       L1    19  1.00

> <Gold.PLP.Chemscore.Internal.Correction>
0.0124

> <Gold.Rescore>
     Score         DG    S(hbond)    S(metal)    S(lipo)     H(rot)  DE(clash)    DE(int)     intcor
      4.29      -6.67       1.80        0.00      28.74       3.19       0.65       1.73       ----

> <Gold.Chemscore.Fitness>
4.2900

> <Gold.Chemscore.DG>
-6.6723

> <Gold.Chemscore.ZeroCoef>
-5.4800

> <Gold.Chemscore.Hbond>
1.7952

> <Gold.Chemscore.Metal>
0.0000

> <Gold.Chemscore.Lipo>
28.7425

> <Gold.Chemscore.Internal_Hbond>
0.0000

> <Gold.Chemscore.DEClash>
0.6546

> <Gold.Chemscore.DEInternal>
1.7277

> <Gold.Chemscore.Rot>
3.1901

> <Gold.Chemscore.Internal.Correction>
   9.000000E+99

> <Gold.Chemscore.Hbonds>
donor molecule, donor type, donor heavy atom, donor atom, acceptor molecule, acceptor atom, score
      L1  H    15    28       P1  7957  0.96
      L1  H    19    31       P1  8028  0.17
      P1  H  7954  7966       L1    15  0.02
      P1  H  8022  8030       L1    19  0.55

> <Gold.Chemscore.Hbond.Weighted>
-5.9961

> <Gold.Chemscore.Metal.Weighted>
-0.0000

> <Gold.Chemscore.Lipo.Weighted>
-3.3629

> <Gold.Chemscore.Internal_Hbond.Weighted>
0.0000

> <Gold.Chemscore.DEClash.Weighted>
0.6546

> <Gold.Chemscore.DEInternal.Weighted>
1.7277

> <Gold.Chemscore.Rot.Weighted>
8.1667

> <Gold.Chemscore.Internal.Correction.Weighted>
   9.000000E+99

> <Gold.Protein.RotatedTorsions>
[ 6907 6896 6895 6894 ] final  140.53 input  -60.11 | X-H torsion
[ 7974 7965 7964 7962 ] final   86.32 input  175.53 | X-H torsion
[ 8008 7997 7996 7995 ] final -172.08 input   59.86 | X-H torsion
[ 10167 10162 10161 10158 ] final -163.20 input  -65.29 | X-H torsion
[ 10718 10713 10712 10709 ] final   82.39 input   66.30 | X-H torsion
[ 10763 10752 10751 10750 ] final  102.37 input  -60.55 | X-H torsion
[ 11005 11000 10999 10996 ] final   81.49 input  -57.11 | X-H torsion

> <Gold.Protein.ActiveResidues>
 VAL166  LYS551  ARG553  GLY616  TRP617  ASP618  TYR619  PRO620  LYS621  CYS622 
 ASP623  PHE694  ASN695  SER759  ASP760  ASP761  ALA762  ILE779  LEU786  VAL792 
 PHE793  MET794  SER795  GLU796  ALA797  LYS798  CYS799  TRP800  GLU811  SER814 

> <Gold.Protein.RotatedAtoms>
  152.2419  133.5142  159.5274 H   0  0  0  0  0  0  0  0  0  0  0  0  # atno 6907 bound_to 6896
  150.7067  134.1077  159.3998 H   0  0  0  0  0  0  0  0  0  0  0  0  # atno 6908 bound_to 6896
  151.8998  135.0383  160.0556 H   0  0  0  0  0  0  0  0  0  0  0  0  # atno 6909 bound_to 6896
  145.5739  139.2317  143.2391 H   0  0  0  0  0  0  0  0  0  0  0  0  # atno 7974 bound_to 7965
  155.9399  140.1106  157.1064 H   0  0  0  0  0  0  0  0  0  0  0  0  # atno 8008 bound_to 7997
  154.4087  140.1221  156.4979 H   0  0  0  0  0  0  0  0  0  0  0  0  # atno 8009 bound_to 7997
  155.6975  140.3472  155.4921 H   0  0  0  0  0  0  0  0  0  0  0  0  # atno 8010 bound_to 7997
  139.6338  144.0389  152.2037 H   0  0  0  0  0  0  0  0  0  0  0  0  # atno 10167 bound_to 10162
  157.6856  131.0046  150.2368 H   0  0  0  0  0  0  0  0  0  0  0  0  # atno 10718 bound_to 10713
  153.3387  135.4013  155.1554 H   0  0  0  0  0  0  0  0  0  0  0  0  # atno 10763 bound_to 10752
  154.8639  135.3628  154.5374 H   0  0  0  0  0  0  0  0  0  0  0  0  # atno 10764 bound_to 10752
  153.5817  135.7076  153.5520 H   0  0  0  0  0  0  0  0  0  0  0  0  # atno 10765 bound_to 10752
  139.9096  134.8001  156.2049 H   0  0  0  0  0  0  0  0  0  0  0  0  # atno 11005 bound_to 11000
  146.1765  140.6565  142.9209 LP  0  0  0  0  0  0  0  0  0  0  0  0  # atno 17320 bound_to 7965
  144.7425  140.4980  143.6859 LP  0  0  0  0  0  0  0  0  0  0  0  0  # atno 17321 bound_to 7965
  140.0061  144.6258  150.7687 LP  0  0  0  0  0  0  0  0  0  0  0  0  # atno 17342 bound_to 10162
  140.7454  143.2874  151.3424 LP  0  0  0  0  0  0  0  0  0  0  0  0  # atno 17343 bound_to 10162
  156.2990  130.3756  149.7768 LP  0  0  0  0  0  0  0  0  0  0  0  0  # atno 17370 bound_to 10713
  156.5404  130.8297  151.3267 LP  0  0  0  0  0  0  0  0  0  0  0  0  # atno 17371 bound_to 10713
  141.0502  133.6893  156.1757 LP  0  0  0  0  0  0  0  0  0  0  0  0  # atno 17394 bound_to 11000
  140.6822  134.4755  157.5589 LP  0  0  0  0  0  0  0  0  0  0  0  0  # atno 17395 bound_to 11000

$$$$
