AV-unprocessed.smi:2021|AV-procd|sdf|8175|dock9
  -GOLD-   2272010423D 1   1.00000     0.00000
 Structure written by MMmdl.
 42 43  0  0  0  0  0  0  0  0  2 V2000
  148.2192  127.5484  150.5071 C   0  0  0  0  0  0  0  0  0  0  0  0
  148.0244  127.9791  151.9685 C   0  0  0  0  0  0  0  0  0  0  0  0
  147.9597  126.7470  152.8868 C   0  0  0  0  0  0  0  0  0  0  0  0
  146.7691  128.8670  152.1105 C   0  0  0  0  0  0  0  0  0  0  0  0
  147.0599  130.3151  151.9505 N   0  3  1  0  0  0  0  0  0  0  0  0
  145.8922  131.1075  151.4919 C   0  0  0  0  0  0  0  0  0  0  0  0
  146.2816  132.5836  151.3154 C   0  0  0  0  0  0  0  0  0  0  0  0
  146.8040  133.0861  152.5384 O   0  0  0  0  0  0  0  0  0  0  0  0
  147.9846  132.4028  152.9442 C   0  0  1  0  0  0  0  0  0  0  0  0
  148.5142  133.1077  154.2082 C   0  0  0  0  0  0  0  0  0  0  0  0
  149.1350  134.3980  153.9234 N   0  0  0  0  0  0  0  0  0  0  0  0
  150.1236  134.9499  154.6413 C   0  0  0  0  0  0  0  0  0  0  0  0
  150.5984  134.4282  155.6503 O   0  0  0  0  0  0  0  0  0  0  0  0
  150.5119  136.1247  154.1151 N   0  0  0  0  0  0  0  0  0  0  0  0
  151.5239  137.0059  154.5803 C   0  0  0  0  0  0  0  0  0  0  0  0
  152.6361  136.5959  155.2097 N   0  0  0  0  0  0  0  0  0  0  0  0
  153.4571  137.6603  155.5594 N   0  0  0  0  0  0  0  0  0  0  0  0
  152.9322  138.8293  155.1810 C   0  0  0  0  0  0  0  0  0  0  0  0
  151.3827  138.7444  154.3611 S   0  0  0  0  0  0  0  0  0  0  0  0
  147.6436  130.9146  153.1745 C   0  0  0  0  0  0  0  0  0  0  0  0
  147.3766  126.9544  150.1516 H   0  0  0  0  0  0  0  0  0  0  0  0
  149.1221  126.9479  150.3901 H   0  0  0  0  0  0  0  0  0  0  0  0
  148.3161  128.4143  149.8513 H   0  0  0  0  0  0  0  0  0  0  0  0
  148.9064  128.5569  152.2436 H   0  0  0  0  0  0  0  0  0  0  0  0
  147.1001  126.1194  152.6478 H   0  0  0  0  0  0  0  0  0  0  0  0
  147.8815  127.0327  153.9358 H   0  0  0  0  0  0  0  0  0  0  0  0
  148.8557  126.1341  152.7836 H   0  0  0  0  0  0  0  0  0  0  0  0
  146.0055  128.5739  151.3881 H   0  0  0  0  0  0  0  0  0  0  0  0
  146.3354  128.6893  153.0960 H   0  0  0  0  0  0  0  0  0  0  0  0
  145.5128  130.7221  150.5464 H   0  0  0  0  0  0  0  0  0  0  0  0
  145.0833  131.0229  152.2193 H   0  0  0  0  0  0  0  0  0  0  0  0
  147.0129  132.7026  150.5144 H   0  0  0  0  0  0  0  0  0  0  0  0
  145.4072  133.1727  151.0379 H   0  0  0  0  0  0  0  0  0  0  0  0
  148.7278  132.4885  152.1494 H   0  0  0  0  0  0  0  0  0  0  0  0
  147.7052  133.2460  154.9272 H   0  0  0  0  0  0  0  0  0  0  0  0
  149.2557  132.4778  154.7001 H   0  0  0  0  0  0  0  0  0  0  0  0
  148.8042  134.8921  153.1074 H   0  0  0  0  0  0  0  0  0  0  0  0
  150.0337  136.4211  153.2772 H   0  0  0  0  0  0  0  0  0  0  0  0
  153.4609  139.7483  155.3865 H   0  0  0  0  0  0  0  0  0  0  0  0
  146.9406  130.8111  154.0026 H   0  0  0  0  0  0  0  0  0  0  0  0
  148.5460  130.3662  153.4477 H   0  0  0  0  0  0  0  0  0  0  0  0
  147.7698  130.3893  151.2356 H   0  0  0  0  0  0  0  0  0  0  0  0
  1  2  1  0  0  0  0
  1 21  1  0  0  0  0
  1 22  1  0  0  0  0
  1 23  1  0  0  0  0
  2  3  1  0  0  0  0
  2  4  1  0  0  0  0
  2 24  1  0  0  0  0
  3 25  1  0  0  0  0
  3 26  1  0  0  0  0
  3 27  1  0  0  0  0
  4  5  1  0  0  0  0
  4 28  1  0  0  0  0
  4 29  1  0  0  0  0
  5 20  1  0  0  0  0
  5  6  1  0  0  0  0
  5 42  1  0  0  0  0
  6  7  1  0  0  0  0
  6 30  1  0  0  0  0
  6 31  1  0  0  0  0
  7  8  1  0  0  0  0
  7 32  1  0  0  0  0
  7 33  1  0  0  0  0
  8  9  1  0  0  0  0
  9 10  1  0  0  0  0
  9 20  1  0  0  0  0
  9 34  1  0  0  0  0
 10 11  1  0  0  0  0
 10 35  1  0  0  0  0
 10 36  1  0  0  0  0
 11 12  1  0  0  0  0
 11 37  1  0  0  0  0
 12 13  2  0  0  0  0
 12 14  1  0  0  0  0
 14 15  1  0  0  0  0
 14 38  1  0  0  0  0
 15 19  1  0  0  0  0
 15 16  2  0  0  0  0
 16 17  1  0  0  0  0
 17 18  2  0  0  0  0
 18 19  1  0  0  0  0
 18 39  1  0  0  0  0
 20 40  1  0  0  0  0
 20 41  1  0  0  0  0
M  CHG  1   5   1
M  END
> <s_m_source_file>
AV-unprocessed.smi

> <i_m_source_file_index>
2021

> <i_lp_mmshare_version>
43012

> <i_f3d_flags>
0

> <s_epik_input>
W0NIM11bQ0hdKFtDSDNdKVtDSDJdTjFbQ0gyXVtDSDJdT1tDQEhdKFtDSDJdMSlbQ0gyXVtOSF1DKD1PKVtOSF1jMm5uW2NIXXMy

> <s_epik_cmdline>
J2VwaWtfcHl0aG9uJywgJy1waCcsICc3LjAnLCAnLXRuJywgJzgnLCAnLW1hJywgJzIwMCcsICctbWV0YWxfYmluZGluZycsICctaW1hZScsICc8aW5maWxlLm1hZT4nLCAnLW9tYWUnLCAnPG91dGZpbGUubWFlPic=

> <r_lp_tautomer_probability>
1

> <r_epik_Ionization_Penalty>
0.102019

> <r_epik_Ionization_Penalty_Charging>
0.098413

> <r_epik_Ionization_Penalty_Neutral>
0.00360555

> <r_epik_State_Penalty>
0.0884988

> <r_epik_Charging_Adjusted_Penalty>
0.186912

> <i_epik_Tot_Q>
1

> <i_epik_Tot_abs_Q>
1

> <r_epik_Metal_State_Penalty>
0.454709

> <b_epik_Metal_Only>
0

> <s_lp_Force_Field>
OPLS_2005

> <r_lp_Energy>
17.0767

> <b_lp_Chiralities_Consistent>
1

> <s_lp_Variant>
AV-unprocessed.smi:2021-1

> <Gold.Version>
5.8.1

> <Gold.Id.Protein>
6NUR|6NUR_protein|mol2

> <Gold.PLP.Fitness>
48.0541

> <Gold.PLP.PLP>
-38.3881

> <Gold.PLP.part.hbond>
-5.4962

> <Gold.PLP.part.metal>
0.0000

> <Gold.PLP.part.buried>
-3.5921

> <Gold.PLP.part.nonpolar>
-29.7702

> <Gold.PLP.part.repulsive>
0.2854

> <Gold.PLP.ligand.clash>
0.0000

> <Gold.PLP.ligand.torsion>
1.1389

> <Gold.PLP.Chemscore.Hbond>
3.9680

> <Gold.PLP.Chemscore.CHOScore>
0.0000

> <Gold.PLP.Chemscore.Metal>
0.0000

> <Gold.Chemscore.Hbonds>
donor molecule, donor type, donor heavy atom, donor atom, acceptor molecule, acceptor atom, score
      L1  H     5    42       P1 10747  1.00
      L1  H    11    37       P1  7948  1.00
      L1  H    14    38       P1  7948  0.55
      P1  H 10752 10765       L1    16  0.06

> <Gold.PLP.Chemscore.Internal.Correction>
0.0398

> <Gold.Rescore>
     Score         DG    S(hbond)    S(metal)    S(lipo)     H(rot)  DE(clash)    DE(int)     intcor
     19.60     -21.42       3.37        0.00      81.16       1.88       0.05       1.77       ----

> <Gold.Chemscore.Fitness>
19.6003

> <Gold.Chemscore.DG>
-21.4194

> <Gold.Chemscore.ZeroCoef>
-5.4800

> <Gold.Chemscore.Hbond>
3.3711

> <Gold.Chemscore.Metal>
0.0000

> <Gold.Chemscore.Lipo>
81.1613

> <Gold.Chemscore.Internal_Hbond>
0.0000

> <Gold.Chemscore.DEClash>
0.0456

> <Gold.Chemscore.DEInternal>
1.7735

> <Gold.Chemscore.Rot>
1.8812

> <Gold.Chemscore.Internal.Correction>
   9.000000E+99

> <Gold.Chemscore.Hbonds>
donor molecule, donor type, donor heavy atom, donor atom, acceptor molecule, acceptor atom, score
      L1  H     5    42       P1 10747  0.98
      L1  H    11    37       P1  7948  0.24
      L1  H    14    38       P1  7948  0.03
      P1  H 10752 10765       L1    16  0.08

> <Gold.Chemscore.Hbond.Weighted>
-11.2594

> <Gold.Chemscore.Metal.Weighted>
-0.0000

> <Gold.Chemscore.Lipo.Weighted>
-9.4959

> <Gold.Chemscore.Internal_Hbond.Weighted>
0.0000

> <Gold.Chemscore.DEClash.Weighted>
0.0456

> <Gold.Chemscore.DEInternal.Weighted>
1.7735

> <Gold.Chemscore.Rot.Weighted>
4.8159

> <Gold.Chemscore.Internal.Correction.Weighted>
   9.000000E+99

> <Gold.Protein.RotatedTorsions>
[ 6907 6896 6895 6894 ] final   18.68 input  -60.11 | X-H torsion
[ 7974 7965 7964 7962 ] final  129.20 input  175.53 | X-H torsion
[ 8008 7997 7996 7995 ] final -105.84 input   59.86 | X-H torsion
[ 10167 10162 10161 10158 ] final   63.67 input  -65.29 | X-H torsion
[ 10718 10713 10712 10709 ] final  -42.87 input   66.30 | X-H torsion
[ 10763 10752 10751 10750 ] final -165.19 input  -60.55 | X-H torsion
[ 11005 11000 10999 10996 ] final  178.85 input  -57.11 | X-H torsion

> <Gold.Protein.ActiveResidues>
 VAL166  LYS551  ARG553  GLY616  TRP617  ASP618  TYR619  PRO620  LYS621  CYS622 
 ASP623  PHE694  ASN695  SER759  ASP760  ASP761  ALA762  ILE779  LEU786  VAL792 
 PHE793  MET794  SER795  GLU796  ALA797  LYS798  CYS799  TRP800  GLU811  SER814 

> <Gold.Protein.RotatedAtoms>
  151.8690  135.0496  160.0477 H   0  0  0  0  0  0  0  0  0  0  0  0  # atno 6907 bound_to 6896
  152.2603  133.5287  159.5386 H   0  0  0  0  0  0  0  0  0  0  0  0  # atno 6908 bound_to 6896
  150.7114  134.0755  159.3922 H   0  0  0  0  0  0  0  0  0  0  0  0  # atno 6909 bound_to 6896
  145.0312  139.4044  143.5148 H   0  0  0  0  0  0  0  0  0  0  0  0  # atno 7974 bound_to 7965
  154.9058  140.0411  157.1919 H   0  0  0  0  0  0  0  0  0  0  0  0  # atno 8008 bound_to 7997
  154.8398  140.2912  155.5646 H   0  0  0  0  0  0  0  0  0  0  0  0  # atno 8009 bound_to 7997
  156.2991  140.2485  156.3338 H   0  0  0  0  0  0  0  0  0  0  0  0  # atno 8010 bound_to 7997
  140.1305  144.4647  150.6867 H   0  0  0  0  0  0  0  0  0  0  0  0  # atno 10167 bound_to 10162
  156.2550  130.4191  149.8607 H   0  0  0  0  0  0  0  0  0  0  0  0  # atno 10718 bound_to 10713
  154.6956  135.2978  154.9416 H   0  0  0  0  0  0  0  0  0  0  0  0  # atno 10763 bound_to 10752
  154.0365  135.6663  153.4790 H   0  0  0  0  0  0  0  0  0  0  0  0  # atno 10764 bound_to 10752
  153.0643  135.5097  154.8072 H   0  0  0  0  0  0  0  0  0  0  0  0  # atno 10765 bound_to 10752
  140.3997  134.6788  157.4555 H   0  0  0  0  0  0  0  0  0  0  0  0  # atno 11005 bound_to 11000
  146.3499  139.9863  142.8690 LP  0  0  0  0  0  0  0  0  0  0  0  0  # atno 17320 bound_to 7965
  145.1768  140.9748  143.4290 LP  0  0  0  0  0  0  0  0  0  0  0  0  # atno 17321 bound_to 7965
  140.6820  143.2331  151.5360 LP  0  0  0  0  0  0  0  0  0  0  0  0  # atno 17342 bound_to 10162
  139.5522  144.2366  152.1550 LP  0  0  0  0  0  0  0  0  0  0  0  0  # atno 17343 bound_to 10162
  156.6142  130.8599  151.3461 LP  0  0  0  0  0  0  0  0  0  0  0  0  # atno 17370 bound_to 10713
  157.7229  130.9582  150.1512 LP  0  0  0  0  0  0  0  0  0  0  0  0  # atno 17371 bound_to 10713
  140.0345  134.6357  155.9061 LP  0  0  0  0  0  0  0  0  0  0  0  0  # atno 17394 bound_to 11000
  141.1861  133.6556  156.5226 LP  0  0  0  0  0  0  0  0  0  0  0  0  # atno 17395 bound_to 11000

$$$$
