AV-unprocessed.smi:359|AV-procd|sdf|2418|dock7
  -GOLD-   2262022353D 1   1.00000     0.00000
 Structure written by MMmdl.
 33 34  0  0  0  0  0  0  0  0  1 V2000
  145.9018  142.8872  153.7697 C   0  0  0  0  0  0  0  0  0  0  0  0
  146.4547  141.5528  153.6139 N   0  0  0  0  0  0  0  0  0  0  0  0
  147.6762  141.0805  154.0761 C   0  0  0  0  0  0  0  0  0  0  0  0
  148.6070  141.9169  154.8177 C   0  0  0  0  0  0  0  0  0  0  0  0
  149.7407  141.4850  155.2501 N   0  0  0  0  0  0  0  0  0  0  0  0
  150.1052  140.1744  155.0154 N   0  0  0  0  0  0  0  0  0  0  0  0
  151.4050  139.8042  155.5878 C   0  0  0  0  0  0  0  0  0  0  0  0
  151.3468  139.7086  157.1214 C   0  0  0  0  0  0  0  0  0  0  0  0
  152.4667  140.3909  157.6709 O   0  0  0  0  0  0  0  0  0  0  0  0
  152.2744  141.6531  158.1894 C   0  0  0  0  0  0  0  0  0  0  0  0
  153.1229  142.0458  159.2452 C   0  0  0  0  0  0  0  0  0  0  0  0
  153.0010  143.3197  159.8329 C   0  0  0  0  0  0  0  0  0  0  0  0
  152.0219  144.2176  159.3683 C   0  0  0  0  0  0  0  0  0  0  0  0
  151.8723  145.7808  160.0836 Cl  0  0  0  0  0  0  0  0  0  0  0  0
  151.1649  143.8368  158.3187 C   0  0  0  0  0  0  0  0  0  0  0  0
  151.2878  142.5625  157.7307 C   0  0  0  0  0  0  0  0  0  0  0  0
  149.3455  139.2655  154.3353 C   0  0  0  0  0  0  0  0  0  0  0  0
  149.7117  138.1035  154.1540 O   0  0  0  0  0  0  0  0  0  0  0  0
  148.0620  139.7955  153.8521 C   0  0  0  0  0  0  0  0  0  0  0  0
  147.0311  138.7127  152.9772 Cl  0  0  0  0  0  0  0  0  0  0  0  0
  144.9151  142.9389  153.3094 H   0  0  0  0  0  0  0  0  0  0  0  0
  146.5429  143.6285  153.2920 H   0  0  0  0  0  0  0  0  0  0  0  0
  145.8009  143.1391  154.8257 H   0  0  0  0  0  0  0  0  0  0  0  0
  145.8608  140.8937  153.1300 H   0  0  0  0  0  0  0  0  0  0  0  0
  148.2924  142.9455  154.9922 H   0  0  0  0  0  0  0  0  0  0  0  0
  151.7381  138.8516  155.1722 H   0  0  0  0  0  0  0  0  0  0  0  0
  152.1686  140.5276  155.2958 H   0  0  0  0  0  0  0  0  0  0  0  0
  150.4133  140.1348  157.4922 H   0  0  0  0  0  0  0  0  0  0  0  0
  151.3765  138.6589  157.4167 H   0  0  0  0  0  0  0  0  0  0  0  0
  153.8777  141.3633  159.6073 H   0  0  0  0  0  0  0  0  0  0  0  0
  153.6603  143.6058  160.6391 H   0  0  0  0  0  0  0  0  0  0  0  0
  150.4103  144.5224  157.9616 H   0  0  0  0  0  0  0  0  0  0  0  0
  150.6117  142.3064  156.9292 H   0  0  0  0  0  0  0  0  0  0  0  0
  1  2  1  0  0  0  0
  1 21  1  0  0  0  0
  1 22  1  0  0  0  0
  1 23  1  0  0  0  0
  2  3  1  0  0  0  0
  2 24  1  0  0  0  0
  3 19  2  0  0  0  0
  3  4  1  0  0  0  0
  4  5  2  0  0  0  0
  4 25  1  0  0  0  0
  5  6  1  0  0  0  0
  6  7  1  0  0  0  0
  6 17  1  0  0  0  0
  7  8  1  0  0  0  0
  7 26  1  0  0  0  0
  7 27  1  0  0  0  0
  8  9  1  0  0  0  0
  8 28  1  0  0  0  0
  8 29  1  0  0  0  0
  9 10  1  0  0  0  0
 10 16  1  0  0  0  0
 10 11  2  0  0  0  0
 11 12  1  0  0  0  0
 11 30  1  0  0  0  0
 12 13  2  0  0  0  0
 12 31  1  0  0  0  0
 13 14  1  0  0  0  0
 13 15  1  0  0  0  0
 15 16  2  0  0  0  0
 15 32  1  0  0  0  0
 16 33  1  0  0  0  0
 17 18  2  0  0  0  0
 17 19  1  0  0  0  0
 19 20  1  0  0  0  0
M  END
> <s_m_source_file>
AV-unprocessed.smi

> <i_m_source_file_index>
359

> <i_lp_mmshare_version>
43012

> <i_f3d_flags>
0

> <s_epik_input>
W0NIM11bTkhdYzFbY0hdbm4oYyg9TyljMUNsKVtDSDJdW0NIMl1PYzJbY0hdW2NIXWMoQ2wpW2NIXVtjSF0y

> <s_epik_cmdline>
J2VwaWtfcHl0aG9uJywgJy1waCcsICc3LjAnLCAnLXRuJywgJzgnLCAnLW1hJywgJzIwMCcsICctbWV0YWxfYmluZGluZycsICctaW1hZScsICc8aW5maWxlLm1hZT4nLCAnLW9tYWUnLCAnPG91dGZpbGUubWFlPic=

> <r_lp_tautomer_probability>
1

> <r_epik_Ionization_Penalty>
1.57682e-05

> <r_epik_Ionization_Penalty_Charging>
1.04488e-09

> <r_epik_Ionization_Penalty_Neutral>
1.57671e-05

> <r_epik_State_Penalty>
-0

> <r_epik_Charging_Adjusted_Penalty>
1.04488e-09

> <i_epik_Tot_Q>
0

> <i_epik_Tot_abs_Q>
0

> <r_epik_Metal_State_Penalty>
-0

> <b_epik_Metal_Only>
0

> <s_lp_Force_Field>
OPLS_2005

> <r_lp_Energy>
30.271

> <b_lp_Chiralities_Consistent>
1

> <s_lp_Variant>
AV-unprocessed.smi:359-1

> <Gold.Version>
5.8.1

> <Gold.Id.Protein>
6NUR|6NUR_protein|mol2

> <Gold.PLP.Fitness>
46.6146

> <Gold.PLP.PLP>
-43.6848

> <Gold.PLP.part.hbond>
-1.4970

> <Gold.PLP.part.metal>
0.0000

> <Gold.PLP.part.buried>
-2.4332

> <Gold.PLP.part.nonpolar>
-40.3772

> <Gold.PLP.part.repulsive>
1.0722

> <Gold.PLP.ligand.clash>
0.0000

> <Gold.PLP.ligand.torsion>
1.1250

> <Gold.PLP.Chemscore.Hbond>
0.8991

> <Gold.PLP.Chemscore.CHOScore>
0.8257

> <Gold.PLP.Chemscore.Metal>
0.0000

> <Gold.Chemscore.Hbonds>
donor molecule, donor type, donor heavy atom, donor atom, acceptor molecule, acceptor atom, score
      L1  H     2    24       P1 10175  0.28
      P1  H  7997  8010       L1     9  0.60
      L1  C     4    25       P1  8028  0.83

> <Gold.PLP.Chemscore.Internal.Correction>
0.0052

> <Gold.Rescore>
     Score         DG    S(hbond)    S(metal)    S(lipo)     H(rot)  DE(clash)    DE(int)     intcor
     16.94     -18.64       0.87        0.00     122.11       1.58       0.57       1.13       ----

> <Gold.Chemscore.Fitness>
16.9416

> <Gold.Chemscore.DG>
-18.6385

> <Gold.Chemscore.ZeroCoef>
-5.4800

> <Gold.Chemscore.Hbond>
0.8721

> <Gold.Chemscore.Metal>
0.0000

> <Gold.Chemscore.Lipo>
122.1097

> <Gold.Chemscore.Internal_Hbond>
0.0000

> <Gold.Chemscore.DEClash>
0.5653

> <Gold.Chemscore.DEInternal>
1.1315

> <Gold.Chemscore.Rot>
1.5785

> <Gold.Chemscore.Internal.Correction>
   9.000000E+99

> <Gold.Chemscore.Hbonds>
donor molecule, donor type, donor heavy atom, donor atom, acceptor molecule, acceptor atom, score
      L1  H     2    24       P1 10175  0.14
      P1  H  7997  8010       L1     9  0.49

> <Gold.Chemscore.Hbond.Weighted>
-2.9127

> <Gold.Chemscore.Metal.Weighted>
-0.0000

> <Gold.Chemscore.Lipo.Weighted>
-14.2868

> <Gold.Chemscore.Internal_Hbond.Weighted>
0.0000

> <Gold.Chemscore.DEClash.Weighted>
0.5653

> <Gold.Chemscore.DEInternal.Weighted>
1.1315

> <Gold.Chemscore.Rot.Weighted>
4.0411

> <Gold.Chemscore.Internal.Correction.Weighted>
   9.000000E+99

> <Gold.Protein.RotatedTorsions>
[ 6907 6896 6895 6894 ] final  122.33 input  -60.11 | X-H torsion
[ 7974 7965 7964 7962 ] final  -58.04 input  175.53 | X-H torsion
[ 8008 7997 7996 7995 ] final   52.50 input   59.86 | X-H torsion
[ 10167 10162 10161 10158 ] final  -91.16 input  -65.29 | X-H torsion
[ 10718 10713 10712 10709 ] final   53.04 input   66.30 | X-H torsion
[ 10763 10752 10751 10750 ] final  105.18 input  -60.55 | X-H torsion
[ 11005 11000 10999 10996 ] final -119.71 input  -57.11 | X-H torsion

> <Gold.Protein.ActiveResidues>
 VAL166  LYS551  ARG553  GLY616  TRP617  ASP618  TYR619  PRO620  LYS621  CYS622 
 ASP623  PHE694  ASN695  SER759  ASP760  ASP761  ALA762  ILE779  LEU786  VAL792 
 PHE793  MET794  SER795  GLU796  ALA797  LYS798  CYS799  TRP800  GLU811  SER814 

> <Gold.Protein.RotatedAtoms>
  152.4251  133.7181  159.6517 H   0  0  0  0  0  0  0  0  0  0  0  0  # atno 6907 bound_to 6896
  150.8127  133.8381  159.3180 H   0  0  0  0  0  0  0  0  0  0  0  0  # atno 6908 bound_to 6896
  151.6086  135.1044  160.0128 H   0  0  0  0  0  0  0  0  0  0  0  0  # atno 6909 bound_to 6896
  145.8440  140.8398  143.0020 H   0  0  0  0  0  0  0  0  0  0  0  0  # atno 7974 bound_to 7965
  155.4529  140.3459  155.4303 H   0  0  0  0  0  0  0  0  0  0  0  0  # atno 8008 bound_to 7997
  156.1209  140.1487  156.9235 H   0  0  0  0  0  0  0  0  0  0  0  0  # atno 8009 bound_to 7997
  154.4823  140.0866  156.7384 H   0  0  0  0  0  0  0  0  0  0  0  0  # atno 8010 bound_to 7997
  140.3476  143.2908  151.9763 H   0  0  0  0  0  0  0  0  0  0  0  0  # atno 10167 bound_to 10162
  157.5130  130.8514  149.8460 H   0  0  0  0  0  0  0  0  0  0  0  0  # atno 10718 bound_to 10713
  153.3760  135.3918  155.1822 H   0  0  0  0  0  0  0  0  0  0  0  0  # atno 10763 bound_to 10752
  154.8701  135.3714  154.4918 H   0  0  0  0  0  0  0  0  0  0  0  0  # atno 10764 bound_to 10752
  153.5390  135.7085  153.5707 H   0  0  0  0  0  0  0  0  0  0  0  0  # atno 10765 bound_to 10752
  141.0196  134.0144  157.3301 H   0  0  0  0  0  0  0  0  0  0  0  0  # atno 11005 bound_to 11000
  144.6732  140.0854  143.7467 LP  0  0  0  0  0  0  0  0  0  0  0  0  # atno 17320 bound_to 7965
  145.9433  139.2684  143.1255 LP  0  0  0  0  0  0  0  0  0  0  0  0  # atno 17321 bound_to 7965
  139.4831  144.6103  151.7445 LP  0  0  0  0  0  0  0  0  0  0  0  0  # atno 17342 bound_to 10162
  140.5249  144.0821  150.6034 LP  0  0  0  0  0  0  0  0  0  0  0  0  # atno 17343 bound_to 10162
  156.0302  130.3767  150.1710 LP  0  0  0  0  0  0  0  0  0  0  0  0  # atno 17370 bound_to 10713
  156.9899  130.9890  151.3417 LP  0  0  0  0  0  0  0  0  0  0  0  0  # atno 17371 bound_to 10713
  139.9138  135.0194  156.7799 LP  0  0  0  0  0  0  0  0  0  0  0  0  # atno 17394 bound_to 11000
  140.6596  133.9657  155.7797 LP  0  0  0  0  0  0  0  0  0  0  0  0  # atno 17395 bound_to 11000

$$$$
