AV-unprocessed.smi:818|AV-procd|sdf|3832|dock7
  -GOLD-   22720 1273D 1   1.00000     0.00000
 Structure written by MMmdl.
 44 45  0  0  0  0  0  0  0  0  1 V2000
  144.6706  132.9996  151.2195 C   0  0  0  0  0  0  0  0  0  0  0  0
  145.7664  133.9851  150.7977 C   0  0  0  0  0  0  0  0  0  0  0  0
  145.8746  135.0938  151.7254 N   0  0  0  0  0  0  0  0  0  0  0  0
  145.6449  136.4338  151.4842 C   0  0  0  0  0  0  0  0  0  0  0  0
  145.8713  137.0667  152.6736 C   0  0  0  0  0  0  0  0  0  0  0  0
  145.7758  138.4450  152.9915 N   0  0  0  0  0  0  0  0  0  0  0  0
  146.5059  139.1268  153.8892 C   0  0  0  0  0  0  0  0  0  0  0  0
  147.3850  138.6422  154.6025 O   0  0  0  0  0  0  0  0  0  0  0  0
  146.1601  140.4224  153.9157 N   0  0  0  0  0  0  0  0  0  0  0  0
  146.7829  141.4432  154.7573 C   0  0  2  0  0  0  0  0  0  0  0  0
  146.2958  142.8203  154.2770 C   0  0  0  0  0  0  0  0  0  0  0  0
  148.3128  141.3995  154.6163 C   0  0  0  0  0  0  0  0  0  0  0  0
  148.8434  141.4746  153.5068 O   0  0  0  0  0  0  0  0  0  0  0  0
  149.0090  141.2889  155.7576 N   0  0  0  0  0  0  0  0  0  0  0  0
  150.4646  141.2227  155.8475 C   0  0  0  0  0  0  0  0  0  0  0  0
  150.9393  139.8776  156.4373 C   0  0  0  0  0  0  0  0  0  0  0  0
  151.9284  140.2275  157.5505 C   0  0  0  0  0  0  0  0  0  0  0  0
  151.4628  141.5895  158.0547 C   0  0  0  0  0  0  0  0  0  0  0  0
  150.9988  142.3152  156.7915 C   0  0  0  0  0  0  0  0  0  0  0  0
  146.2348  136.0478  153.5917 C   0  0  0  0  0  0  0  0  0  0  0  0
  146.2345  134.8573  153.0114 N   0  0  0  0  0  0  0  0  0  0  0  0
  144.5993  132.1736  150.5118 H   0  0  0  0  0  0  0  0  0  0  0  0
  143.6966  133.4883  151.2603 H   0  0  0  0  0  0  0  0  0  0  0  0
  144.8758  132.5774  152.2039 H   0  0  0  0  0  0  0  0  0  0  0  0
  146.7311  133.4791  150.7380 H   0  0  0  0  0  0  0  0  0  0  0  0
  145.5543  134.3816  149.8042 H   0  0  0  0  0  0  0  0  0  0  0  0
  145.3464  136.7987  150.5125 H   0  0  0  0  0  0  0  0  0  0  0  0
  145.0859  138.9689  152.4733 H   0  0  0  0  0  0  0  0  0  0  0  0
  145.4319  140.7337  153.2899 H   0  0  0  0  0  0  0  0  0  0  0  0
  146.4932  141.2951  155.7997 H   0  0  0  0  0  0  0  0  0  0  0  0
  146.7284  143.6240  154.8745 H   0  0  0  0  0  0  0  0  0  0  0  0
  145.2118  142.9012  154.3632 H   0  0  0  0  0  0  0  0  0  0  0  0
  146.5575  143.0035  153.2336 H   0  0  0  0  0  0  0  0  0  0  0  0
  148.4942  141.2348  156.6244 H   0  0  0  0  0  0  0  0  0  0  0  0
  150.8953  141.3743  154.8558 H   0  0  0  0  0  0  0  0  0  0  0  0
  150.1006  139.3284  156.8689 H   0  0  0  0  0  0  0  0  0  0  0  0
  151.3886  139.2329  155.6810 H   0  0  0  0  0  0  0  0  0  0  0  0
  151.9568  139.4746  158.3387 H   0  0  0  0  0  0  0  0  0  0  0  0
  152.9336  140.3146  157.1358 H   0  0  0  0  0  0  0  0  0  0  0  0
  150.6210  141.4612  158.7365 H   0  0  0  0  0  0  0  0  0  0  0  0
  152.2452  142.1312  158.5871 H   0  0  0  0  0  0  0  0  0  0  0  0
  151.8559  142.8029  156.3250 H   0  0  0  0  0  0  0  0  0  0  0  0
  150.2686  143.0956  157.0110 H   0  0  0  0  0  0  0  0  0  0  0  0
  146.4921  136.1294  154.6376 H   0  0  0  0  0  0  0  0  0  0  0  0
  1  2  1  0  0  0  0
  1 22  1  0  0  0  0
  1 23  1  0  0  0  0
  1 24  1  0  0  0  0
  2  3  1  0  0  0  0
  2 25  1  0  0  0  0
  2 26  1  0  0  0  0
  3 21  1  0  0  0  0
  3  4  1  0  0  0  0
  4  5  2  0  0  0  0
  4 27  1  0  0  0  0
  5  6  1  0  0  0  0
  5 20  1  0  0  0  0
  6  7  1  0  0  0  0
  6 28  1  0  0  0  0
  7  8  2  0  0  0  0
  7  9  1  0  0  0  0
  9 10  1  0  0  0  0
  9 29  1  0  0  0  0
 10 11  1  0  0  0  0
 10 12  1  0  0  0  0
 10 30  1  0  0  0  0
 11 31  1  0  0  0  0
 11 32  1  0  0  0  0
 11 33  1  0  0  0  0
 12 13  2  0  0  0  0
 12 14  1  0  0  0  0
 14 15  1  0  0  0  0
 14 34  1  0  0  0  0
 15 19  1  0  0  0  0
 15 16  1  0  0  0  0
 15 35  1  0  0  0  0
 16 17  1  0  0  0  0
 16 36  1  0  0  0  0
 16 37  1  0  0  0  0
 17 18  1  0  0  0  0
 17 38  1  0  0  0  0
 17 39  1  0  0  0  0
 18 19  1  0  0  0  0
 18 40  1  0  0  0  0
 18 41  1  0  0  0  0
 19 42  1  0  0  0  0
 19 43  1  0  0  0  0
 20 21  2  0  0  0  0
 20 44  1  0  0  0  0
M  END
> <s_m_source_file>
AV-unprocessed.smi

> <i_m_source_file_index>
818

> <i_lp_mmshare_version>
43012

> <i_f3d_flags>
0

> <s_epik_input>
W0NIM11bQ0gyXW4xW2NIXWMoW2NIXW4xKVtOSF1DKD1PKVtOSF1bQ0BIXShbQ0gzXSlDKD1PKVtOSF1bQ0hdMltDSDJdW0NIMl1bQ0gyXVtDSDJdMg==

> <s_epik_cmdline>
J2VwaWtfcHl0aG9uJywgJy1waCcsICc3LjAnLCAnLXRuJywgJzgnLCAnLW1hJywgJzIwMCcsICctbWV0YWxfYmluZGluZycsICctaW1hZScsICc8aW5maWxlLm1hZT4nLCAnLW9tYWUnLCAnPG91dGZpbGUubWFlPic=

> <r_lp_tautomer_probability>
1

> <r_epik_Ionization_Penalty>
0.00015627

> <r_epik_Ionization_Penalty_Charging>
0

> <r_epik_Ionization_Penalty_Neutral>
0.00015627

> <r_epik_State_Penalty>
-0

> <r_epik_Charging_Adjusted_Penalty>
0

> <i_epik_Tot_Q>
0

> <i_epik_Tot_abs_Q>
0

> <r_epik_Metal_State_Penalty>
-0

> <b_epik_Metal_Only>
0

> <s_lp_Force_Field>
OPLS_2005

> <r_lp_Energy>
21.5062

> <b_lp_Chiralities_Consistent>
1

> <s_lp_Variant>
AV-unprocessed.smi:818-1

> <Gold.Version>
5.8.1

> <Gold.Id.Protein>
6NUR|6NUR_protein|mol2

> <Gold.PLP.Fitness>
43.8138

> <Gold.PLP.PLP>
-33.1657

> <Gold.PLP.part.hbond>
-3.2658

> <Gold.PLP.part.metal>
0.0000

> <Gold.PLP.part.buried>
-5.2179

> <Gold.PLP.part.nonpolar>
-27.3842

> <Gold.PLP.part.repulsive>
2.2039

> <Gold.PLP.ligand.clash>
0.0000

> <Gold.PLP.ligand.torsion>
0.3990

> <Gold.PLP.Chemscore.Hbond>
2.8080

> <Gold.PLP.Chemscore.CHOScore>
1.0000

> <Gold.PLP.Chemscore.Metal>
0.0000

> <Gold.Chemscore.Hbonds>
donor molecule, donor type, donor heavy atom, donor atom, acceptor molecule, acceptor atom, score
      L1  H     6    28       P1 10175  0.94
      L1  H     9    29       P1 10175  1.00
      P1  H  8011  8017       L1    13  0.82
      L1  C     4    27       P1 10171  1.00

> <Gold.PLP.Chemscore.Internal.Correction>
0.0221

> <Gold.Rescore>
     Score         DG    S(hbond)    S(metal)    S(lipo)     H(rot)  DE(clash)    DE(int)     intcor
     15.11     -17.91       2.59        0.00      69.18       1.68       0.31       2.50       ----

> <Gold.Chemscore.Fitness>
15.1066

> <Gold.Chemscore.DG>
-17.9130

> <Gold.Chemscore.ZeroCoef>
-5.4800

> <Gold.Chemscore.Hbond>
2.5889

> <Gold.Chemscore.Metal>
0.0000

> <Gold.Chemscore.Lipo>
69.1812

> <Gold.Chemscore.Internal_Hbond>
0.0000

> <Gold.Chemscore.DEClash>
0.3083

> <Gold.Chemscore.DEInternal>
2.4981

> <Gold.Chemscore.Rot>
1.6828

> <Gold.Chemscore.Internal.Correction>
   9.000000E+99

> <Gold.Chemscore.Hbonds>
donor molecule, donor type, donor heavy atom, donor atom, acceptor molecule, acceptor atom, score
      L1  H     6    28       P1 10175  0.85
      L1  H     9    29       P1 10175  0.78
      P1  H  8011  8017       L1    13  0.81

> <Gold.Chemscore.Hbond.Weighted>
-8.6469

> <Gold.Chemscore.Metal.Weighted>
-0.0000

> <Gold.Chemscore.Lipo.Weighted>
-8.0942

> <Gold.Chemscore.Internal_Hbond.Weighted>
0.0000

> <Gold.Chemscore.DEClash.Weighted>
0.3083

> <Gold.Chemscore.DEInternal.Weighted>
2.4981

> <Gold.Chemscore.Rot.Weighted>
4.3081

> <Gold.Chemscore.Internal.Correction.Weighted>
   9.000000E+99

> <Gold.Protein.RotatedTorsions>
[ 6907 6896 6895 6894 ] final  -32.05 input  -60.11 | X-H torsion
[ 7974 7965 7964 7962 ] final   74.57 input  175.53 | X-H torsion
[ 8008 7997 7996 7995 ] final    9.32 input   59.86 | X-H torsion
[ 10167 10162 10161 10158 ] final  177.28 input  -65.29 | X-H torsion
[ 10718 10713 10712 10709 ] final -145.18 input   66.30 | X-H torsion
[ 10763 10752 10751 10750 ] final  150.80 input  -60.55 | X-H torsion
[ 11005 11000 10999 10996 ] final  152.49 input  -57.11 | X-H torsion

> <Gold.Protein.ActiveResidues>
 VAL166  LYS551  ARG553  GLY616  TRP617  ASP618  TYR619  PRO620  LYS621  CYS622 
 ASP623  PHE694  ASN695  SER759  ASP760  ASP761  ALA762  ILE779  LEU786  VAL792 
 PHE793  MET794  SER795  GLU796  ALA797  LYS798  CYS799  TRP800  GLU811  SER814 

> <Gold.Protein.RotatedAtoms>
  151.0840  134.9875  159.8369 H   0  0  0  0  0  0  0  0  0  0  0  0  # atno 6907 bound_to 6896
  152.5422  134.2147  159.8774 H   0  0  0  0  0  0  0  0  0  0  0  0  # atno 6908 bound_to 6896
  151.2179  133.4475  159.2633 H   0  0  0  0  0  0  0  0  0  0  0  0  # atno 6909 bound_to 6896
  145.7266  139.2668  143.1565 H   0  0  0  0  0  0  0  0  0  0  0  0  # atno 7974 bound_to 7965
  154.7785  140.2814  155.6082 H   0  0  0  0  0  0  0  0  0  0  0  0  # atno 8008 bound_to 7997
  156.2946  140.2628  156.2532 H   0  0  0  0  0  0  0  0  0  0  0  0  # atno 8009 bound_to 7997
  154.9813  140.0375  157.2269 H   0  0  0  0  0  0  0  0  0  0  0  0  # atno 8010 bound_to 7997
  139.5247  144.2816  152.0541 H   0  0  0  0  0  0  0  0  0  0  0  0  # atno 10167 bound_to 10162
  156.3793  130.7829  151.2019 H   0  0  0  0  0  0  0  0  0  0  0  0  # atno 10718 bound_to 10713
  154.0934  135.2851  155.3267 H   0  0  0  0  0  0  0  0  0  0  0  0  # atno 10763 bound_to 10752
  154.6604  135.5336  153.8014 H   0  0  0  0  0  0  0  0  0  0  0  0  # atno 10764 bound_to 10752
  153.0405  135.6532  154.1102 H   0  0  0  0  0  0  0  0  0  0  0  0  # atno 10765 bound_to 10752
  140.1312  134.8800  157.2206 H   0  0  0  0  0  0  0  0  0  0  0  0  # atno 11005 bound_to 11000
  146.0577  140.8004  142.9750 LP  0  0  0  0  0  0  0  0  0  0  0  0  # atno 17320 bound_to 7965
  144.6903  140.3149  143.7242 LP  0  0  0  0  0  0  0  0  0  0  0  0  # atno 17321 bound_to 7965
  140.2271  144.4407  150.6316 LP  0  0  0  0  0  0  0  0  0  0  0  0  # atno 17342 bound_to 10162
  140.6380  143.2198  151.6353 LP  0  0  0  0  0  0  0  0  0  0  0  0  # atno 17343 bound_to 10162
  157.7491  131.0349  150.4337 LP  0  0  0  0  0  0  0  0  0  0  0  0  # atno 17370 bound_to 10713
  156.4578  130.4025  149.6595 LP  0  0  0  0  0  0  0  0  0  0  0  0  # atno 17371 bound_to 10713
  140.2839  134.3317  155.7335 LP  0  0  0  0  0  0  0  0  0  0  0  0  # atno 17394 bound_to 11000
  141.2170  133.7495  156.9405 LP  0  0  0  0  0  0  0  0  0  0  0  0  # atno 17395 bound_to 11000

$$$$
