AV-unprocessed.smi:113|AV-procd|sdf|1092|dock8
  -GOLD-   2262018193D 1   1.00000     0.00000
 Structure written by MMmdl.
 52 55  0  0  0  0  0  0  0  0  1 V2000
  154.3405  137.4925  161.2762 C   0  0  0  0  0  0  0  0  0  0  0  0
  153.4998  138.4670  160.4779 C   0  0  0  0  0  0  0  0  0  0  0  0
  152.6412  138.0113  159.4619 C   0  0  0  0  0  0  0  0  0  0  0  0
  151.8763  138.9531  158.7360 C   0  0  0  0  0  0  0  0  0  0  0  0
  150.9272  138.5096  157.6170 C   0  0  0  0  0  0  0  0  0  0  0  0
  150.4211  137.1461  157.6875 N   0  0  0  0  0  0  0  0  0  0  0  0
  149.5653  136.8158  158.7650 C   0  0  0  0  0  0  0  0  0  0  0  0
  149.2598  137.6456  159.6243 O   0  0  0  0  0  0  0  0  0  0  0  0
  149.0699  135.4379  158.7649 C   0  0  0  0  0  0  0  0  0  0  0  0
  148.1693  135.0037  159.9113 C   0  0  0  0  0  0  0  0  0  0  0  0
  149.4187  134.5945  157.7629 C   0  0  0  0  0  0  0  0  0  0  0  0
  150.2346  134.9527  156.6984 N   0  0  0  0  0  0  0  0  0  0  0  0
  150.5736  134.0177  155.5518 C   0  0  1  0  0  0  0  0  0  0  0  0
  150.3096  132.5342  155.7960 C   0  0  0  0  0  0  0  0  0  0  0  0
  150.3098  132.0331  154.3664 C   0  0  1  0  0  0  0  0  0  0  0  0
  149.6222  130.8021  154.2589 O   0  0  0  0  0  0  0  0  0  0  0  0
  149.6863  133.2130  153.5843 C   0  0  1  0  0  0  0  0  0  0  0  0
  148.2139  133.0564  153.1583 C   0  0  0  0  0  0  0  0  0  0  0  0
  148.0321  131.8719  152.4101 O   0  0  0  0  0  0  0  0  0  0  0  0
  149.7478  134.3282  154.4749 O   0  0  0  0  0  0  0  0  0  0  0  0
  150.7670  136.2587  156.6442 C   0  0  0  0  0  0  0  0  0  0  0  0
  151.4945  136.6065  155.7103 O   0  0  0  0  0  0  0  0  0  0  0  0
  152.0151  140.3259  159.0760 C   0  0  0  0  0  0  0  0  0  0  0  0
  151.2823  141.3325  158.4015 C   0  0  0  0  0  0  0  0  0  0  0  0
  151.4360  142.6858  158.7513 C   0  0  0  0  0  0  0  0  0  0  0  0
  152.3237  143.0477  159.7778 C   0  0  0  0  0  0  0  0  0  0  0  0
  153.0543  142.0541  160.4537 C   0  0  0  0  0  0  0  0  0  0  0  0
  152.9154  140.6894  160.1209 C   0  0  0  0  0  0  0  0  0  0  0  0
  153.6359  139.7684  160.7981 N   0  0  0  0  0  0  0  0  0  0  0  0
  153.9476  136.4782  161.1960 H   0  0  0  0  0  0  0  0  0  0  0  0
  154.3537  137.7661  162.3318 H   0  0  0  0  0  0  0  0  0  0  0  0
  155.3666  137.4921  160.9076 H   0  0  0  0  0  0  0  0  0  0  0  0
  152.5824  136.9536  159.2542 H   0  0  0  0  0  0  0  0  0  0  0  0
  150.0658  139.1774  157.5693 H   0  0  0  0  0  0  0  0  0  0  0  0
  151.4101  138.6239  156.6451 H   0  0  0  0  0  0  0  0  0  0  0  0
  147.8575  133.9633  159.8153 H   0  0  0  0  0  0  0  0  0  0  0  0
  147.2687  135.6182  159.9401 H   0  0  0  0  0  0  0  0  0  0  0  0
  148.6869  135.1096  160.8652 H   0  0  0  0  0  0  0  0  0  0  0  0
  149.0358  133.5894  157.8308 H   0  0  0  0  0  0  0  0  0  0  0  0
  151.6207  134.2156  155.3113 H   0  0  0  0  0  0  0  0  0  0  0  0
  151.0699  132.0823  156.4340 H   0  0  0  0  0  0  0  0  0  0  0  0
  149.3170  132.3897  156.2238 H   0  0  0  0  0  0  0  0  0  0  0  0
  151.3396  131.8879  154.0367 H   0  0  0  0  0  0  0  0  0  0  0  0
  150.1760  130.1170  154.6020 H   0  0  0  0  0  0  0  0  0  0  0  0
  150.3005  133.4436  152.7127 H   0  0  0  0  0  0  0  0  0  0  0  0
  147.5469  133.0661  154.0210 H   0  0  0  0  0  0  0  0  0  0  0  0
  147.9215  133.8926  152.5223 H   0  0  0  0  0  0  0  0  0  0  0  0
  148.6624  131.8610  151.7058 H   0  0  0  0  0  0  0  0  0  0  0  0
  150.5922  141.0891  157.6083 H   0  0  0  0  0  0  0  0  0  0  0  0
  150.8723  143.4461  158.2309 H   0  0  0  0  0  0  0  0  0  0  0  0
  152.4448  144.0864  160.0478 H   0  0  0  0  0  0  0  0  0  0  0  0
  153.7333  142.3450  161.2420 H   0  0  0  0  0  0  0  0  0  0  0  0
  1  2  1  0  0  0  0
  1 30  1  0  0  0  0
  1 31  1  0  0  0  0
  1 32  1  0  0  0  0
  2 29  1  0  0  0  0
  2  3  2  0  0  0  0
  3  4  1  0  0  0  0
  3 33  1  0  0  0  0
  4  5  1  0  0  0  0
  4 23  2  0  0  0  0
  5  6  1  0  0  0  0
  5 34  1  0  0  0  0
  5 35  1  0  0  0  0
  6 21  1  0  0  0  0
  6  7  1  0  0  0  0
  7  8  2  0  0  0  0
  7  9  1  0  0  0  0
  9 10  1  0  0  0  0
  9 11  2  0  0  0  0
 10 36  1  0  0  0  0
 10 37  1  0  0  0  0
 10 38  1  0  0  0  0
 11 12  1  0  0  0  0
 11 39  1  0  0  0  0
 12 13  1  0  0  0  0
 12 21  1  0  0  0  0
 13 20  1  0  0  0  0
 13 14  1  0  0  0  0
 13 40  1  0  0  0  0
 14 15  1  0  0  0  0
 14 41  1  0  0  0  0
 14 42  1  0  0  0  0
 15 16  1  0  0  0  0
 15 17  1  0  0  0  0
 15 43  1  0  0  0  0
 16 44  1  0  0  0  0
 17 18  1  0  0  0  0
 17 20  1  0  0  0  0
 17 45  1  0  0  0  0
 18 19  1  0  0  0  0
 18 46  1  0  0  0  0
 18 47  1  0  0  0  0
 19 48  1  0  0  0  0
 21 22  2  0  0  0  0
 23 28  1  0  0  0  0
 23 24  1  0  0  0  0
 24 25  2  0  0  0  0
 24 49  1  0  0  0  0
 25 26  1  0  0  0  0
 25 50  1  0  0  0  0
 26 27  2  0  0  0  0
 26 51  1  0  0  0  0
 27 28  1  0  0  0  0
 27 52  1  0  0  0  0
 28 29  2  0  0  0  0
M  END
> <s_m_source_file>
AV-unprocessed.smi

> <i_m_source_file_index>
113

> <i_lp_mmshare_version>
43012

> <i_f3d_flags>
0

> <s_epik_input>
W2NIXTFbY0hdW2NIXVtjSF1jKGMxMiluYyhbQ0gzXSlbY0hdYzJbQ0gyXW4zYyg9TyljKFtDSDNdKVtjSF1uKGMzPU8pW0NAQEhdNFtDSDJdW0NAQEhdKFtPSF0pW0NASF0oTzQpW0NIMl1bT0hd

> <s_epik_cmdline>
J2VwaWtfcHl0aG9uJywgJy1waCcsICc3LjAnLCAnLXRuJywgJzgnLCAnLW1hJywgJzIwMCcsICctbWV0YWxfYmluZGluZycsICctaW1hZScsICc8aW5maWxlLm1hZT4nLCAnLW9tYWUnLCAnPG91dGZpbGUubWFlPic=

> <r_lp_tautomer_probability>
1

> <r_epik_Ionization_Penalty>
0.214728

> <r_epik_Ionization_Penalty_Charging>
3.04883e-08

> <r_epik_Ionization_Penalty_Neutral>
0.214728

> <r_epik_State_Penalty>
0.204913

> <r_epik_Charging_Adjusted_Penalty>
0.204913

> <i_epik_Tot_Q>
0

> <i_epik_Tot_abs_Q>
0

> <r_epik_Metal_State_Penalty>
0.000244761

> <b_epik_Metal_Only>
0

> <s_epik_Chemistry_Notes>
This compound contains an acetal/aminal-like group ( X-CH(R)-Y where X, Y are N, S, or O) that may be acid/base labile, releasing an aldehyde.

> <s_lp_Force_Field>
OPLS_2005

> <r_lp_Energy>
43.3088

> <b_lp_Chiralities_Consistent>
1

> <s_lp_Variant>
AV-unprocessed.smi:113-2

> <Gold.Version>
5.8.1

> <Gold.Id.Protein>
6NUR|6NUR_protein|mol2

> <Gold.PLP.Fitness>
50.3187

> <Gold.PLP.PLP>
-46.0781

> <Gold.PLP.part.hbond>
-4.0000

> <Gold.PLP.part.metal>
0.0000

> <Gold.PLP.part.buried>
-7.0905

> <Gold.PLP.part.nonpolar>
-35.5621

> <Gold.PLP.part.repulsive>
0.3105

> <Gold.PLP.ligand.clash>
0.0000

> <Gold.PLP.ligand.torsion>
0.8834

> <Gold.PLP.Chemscore.Hbond>
1.9920

> <Gold.PLP.Chemscore.CHOScore>
0.0000

> <Gold.PLP.Chemscore.Metal>
0.0000

> <Gold.Chemscore.Hbonds>
donor molecule, donor type, donor heavy atom, donor atom, acceptor molecule, acceptor atom, score
      L1  H    19    48       P1 10747  0.75
      P1  H  6931  6943       L1     8  0.04
      P1  H 10752 10764       L1    22  0.96

> <Gold.PLP.Chemscore.Internal.Correction>
0.0314

> <Gold.Rescore>
     Score         DG    S(hbond)    S(metal)    S(lipo)     H(rot)  DE(clash)    DE(int)     intcor
     16.73     -17.75       1.99        0.00     112.57       2.95       0.00       1.02       ----

> <Gold.Chemscore.Fitness>
16.7298

> <Gold.Chemscore.DG>
-17.7487

> <Gold.Chemscore.ZeroCoef>
-5.4800

> <Gold.Chemscore.Hbond>
1.9885

> <Gold.Chemscore.Metal>
0.0000

> <Gold.Chemscore.Lipo>
112.5719

> <Gold.Chemscore.Internal_Hbond>
0.0000

> <Gold.Chemscore.DEClash>
0.0018

> <Gold.Chemscore.DEInternal>
1.0171

> <Gold.Chemscore.Rot>
2.9469

> <Gold.Chemscore.Internal.Correction>
   9.000000E+99

> <Gold.Chemscore.Hbonds>
donor molecule, donor type, donor heavy atom, donor atom, acceptor molecule, acceptor atom, score
      L1  H    19    48       P1 10747  0.75
      P1  H  6931  6943       L1     8  0.04
      P1  H 10752 10764       L1    22  0.91

> <Gold.Chemscore.Hbond.Weighted>
-6.6417

> <Gold.Chemscore.Metal.Weighted>
-0.0000

> <Gold.Chemscore.Lipo.Weighted>
-13.1709

> <Gold.Chemscore.Internal_Hbond.Weighted>
0.0000

> <Gold.Chemscore.DEClash.Weighted>
0.0018

> <Gold.Chemscore.DEInternal.Weighted>
1.0171

> <Gold.Chemscore.Rot.Weighted>
7.5439

> <Gold.Chemscore.Internal.Correction.Weighted>
   9.000000E+99

> <Gold.Protein.RotatedTorsions>
[ 6907 6896 6895 6894 ] final  -26.95 input  -60.11 | X-H torsion
[ 7974 7965 7964 7962 ] final -163.83 input  175.53 | X-H torsion
[ 8008 7997 7996 7995 ] final  -57.56 input   59.86 | X-H torsion
[ 10167 10162 10161 10158 ] final  -34.73 input  -65.29 | X-H torsion
[ 10718 10713 10712 10709 ] final   33.66 input   66.30 | X-H torsion
[ 10763 10752 10751 10750 ] final  -47.31 input  -60.55 | X-H torsion
[ 11005 11000 10999 10996 ] final   12.10 input  -57.11 | X-H torsion

> <Gold.Protein.ActiveResidues>
 VAL166  LYS551  ARG553  GLY616  TRP617  ASP618  TYR619  PRO620  LYS621  CYS622 
 ASP623  PHE694  ASN695  SER759  ASP760  ASP761  ALA762  ILE779  LEU786  VAL792 
 PHE793  MET794  SER795  GLU796  ALA797  LYS798  CYS799  TRP800  GLU811  SER814 

> <Gold.Protein.RotatedAtoms>
  151.1537  135.0240  159.8679 H   0  0  0  0  0  0  0  0  0  0  0  0  # atno 6907 bound_to 6896
  152.5452  134.1358  159.8468 H   0  0  0  0  0  0  0  0  0  0  0  0  # atno 6908 bound_to 6896
  151.1446  133.4902  159.2629 H   0  0  0  0  0  0  0  0  0  0  0  0  # atno 6909 bound_to 6896
  144.7314  140.3049  143.6198 H   0  0  0  0  0  0  0  0  0  0  0  0  # atno 7974 bound_to 7965
  154.4273  140.1104  156.5818 H   0  0  0  0  0  0  0  0  0  0  0  0  # atno 8008 bound_to 7997
  155.6104  140.3494  155.4602 H   0  0  0  0  0  0  0  0  0  0  0  0  # atno 8009 bound_to 7997
  156.0103  140.1218  157.0450 H   0  0  0  0  0  0  0  0  0  0  0  0  # atno 8010 bound_to 7997
  140.7180  143.3527  151.2122 H   0  0  0  0  0  0  0  0  0  0  0  0  # atno 10167 bound_to 10162
  157.3007  130.7349  149.6665 H   0  0  0  0  0  0  0  0  0  0  0  0  # atno 10718 bound_to 10713
  154.0593  135.6620  153.4810 H   0  0  0  0  0  0  0  0  0  0  0  0  # atno 10763 bound_to 10752
  153.0433  135.5131  154.7675 H   0  0  0  0  0  0  0  0  0  0  0  0  # atno 10764 bound_to 10752
  154.6706  135.3029  154.9714 H   0  0  0  0  0  0  0  0  0  0  0  0  # atno 10765 bound_to 10752
  140.4958  134.0795  155.7782 H   0  0  0  0  0  0  0  0  0  0  0  0  # atno 11005 bound_to 11000
  145.7723  139.1861  143.2205 LP  0  0  0  0  0  0  0  0  0  0  0  0  # atno 17320 bound_to 7965
  146.0901  140.7666  142.9599 LP  0  0  0  0  0  0  0  0  0  0  0  0  # atno 17321 bound_to 7965
  139.7062  143.9452  152.2927 LP  0  0  0  0  0  0  0  0  0  0  0  0  # atno 17342 bound_to 10162
  139.9161  144.6827  150.8510 LP  0  0  0  0  0  0  0  0  0  0  0  0  # atno 17343 bound_to 10162
  155.9671  130.4281  150.4772 LP  0  0  0  0  0  0  0  0  0  0  0  0  # atno 17370 bound_to 10713
  157.2752  131.0595  151.2233 LP  0  0  0  0  0  0  0  0  0  0  0  0  # atno 17371 bound_to 10713
  141.1461  133.9053  157.2212 LP  0  0  0  0  0  0  0  0  0  0  0  0  # atno 17394 bound_to 11000
  139.9742  135.0119  156.9590 LP  0  0  0  0  0  0  0  0  0  0  0  0  # atno 17395 bound_to 11000

$$$$
