AV-unprocessed.smi:240|AV-procd|sdf|1834|dock6
  -GOLD-   2262020443D 1   1.00000     0.00000
 Structure written by MMmdl.
 55 59  0  0  0  0  0  0  0  0  1 V2000
  149.5152  139.6099  157.2434 O   0  0  0  0  0  0  0  0  0  0  0  0
  149.6572  138.3830  156.5574 C   0  0  2  0  0  0  0  0  0  0  0  0
  151.0328  137.7700  156.8821 C   0  0  0  0  0  0  0  0  0  0  0  0
  151.6099  137.2999  155.5455 C   0  0  0  0  0  0  0  0  0  0  0  0
  151.0331  138.2824  154.5299 C   0  0  0  0  0  0  0  0  0  0  0  0
  149.5913  138.4909  155.0113 C   0  0  2  0  0  0  0  0  0  0  0  0
  148.8086  139.6734  154.3555 C   0  0  2  0  0  0  0  0  0  0  0  0
  149.4868  141.0592  154.5207 C   0  0  0  0  0  0  0  0  0  0  0  0
  148.7175  142.0685  153.8769 O   0  0  0  0  0  0  0  0  0  0  0  0
  147.4162  142.1824  154.4352 C   0  0  0  0  0  0  0  0  0  0  0  0
  146.6658  140.8635  154.2124 C   0  0  0  0  0  0  0  0  0  0  0  0
  147.4085  139.7533  154.7970 N   0  0  0  0  0  0  0  0  0  0  0  0
  146.6757  138.6174  154.7606 C   0  0  0  0  0  0  0  0  0  0  0  0
  146.4161  138.0186  155.9487 N   0  0  0  0  0  0  0  0  0  0  0  0
  145.7000  136.8913  155.9863 C   0  0  0  0  0  0  0  0  0  0  0  0
  145.1546  136.2146  154.9733 N   0  0  0  0  0  0  0  0  0  0  0  0
  145.4001  136.8241  153.7779 C   0  0  0  0  0  0  0  0  0  0  0  0
  146.1472  138.0195  153.5810 C   0  0  0  0  0  0  0  0  0  0  0  0
  146.1871  138.3347  152.2283 N   0  0  0  0  0  0  0  0  0  0  0  0
  145.5093  137.3767  151.6578 C   0  0  0  0  0  0  0  0  0  0  0  0
  144.9903  136.4323  152.5148 N   0  0  0  0  0  0  0  0  0  0  0  0
  144.1955  135.2670  152.1550 C   0  0  0  0  0  0  0  0  0  0  0  0
  144.8134  134.4167  151.0177 C   0  0  2  0  0  0  0  0  0  0  0  0
  144.7333  135.1420  149.8043 O   0  0  0  0  0  0  0  0  0  0  0  0
  144.1031  133.0724  150.8407 C   0  0  0  0  0  0  0  0  0  0  0  0
  145.1184  132.0576  151.3526 C   0  0  0  0  0  0  0  0  0  0  0  0
  146.3536  132.6324  150.9662 O   0  0  0  0  0  0  0  0  0  0  0  0
  146.2810  134.0174  151.2712 C   0  0  0  0  0  0  0  0  0  0  0  0
  148.6114  139.8810  157.1840 H   0  0  0  0  0  0  0  0  0  0  0  0
  148.8635  137.7204  156.9049 H   0  0  0  0  0  0  0  0  0  0  0  0
  151.6987  138.5247  157.3044 H   0  0  0  0  0  0  0  0  0  0  0  0
  150.9640  136.9594  157.6081 H   0  0  0  0  0  0  0  0  0  0  0  0
  152.7002  137.2834  155.5420 H   0  0  0  0  0  0  0  0  0  0  0  0
  151.2592  136.2909  155.3239 H   0  0  0  0  0  0  0  0  0  0  0  0
  151.6070  139.2069  154.5768 H   0  0  0  0  0  0  0  0  0  0  0  0
  151.0836  137.9053  153.5080 H   0  0  0  0  0  0  0  0  0  0  0  0
  149.0822  137.5803  154.6919 H   0  0  0  0  0  0  0  0  0  0  0  0
  148.7935  139.4831  153.2823 H   0  0  0  0  0  0  0  0  0  0  0  0
  149.6316  141.3312  155.5654 H   0  0  0  0  0  0  0  0  0  0  0  0
  150.4710  141.0656  154.0547 H   0  0  0  0  0  0  0  0  0  0  0  0
  147.4772  142.4259  155.4972 H   0  0  0  0  0  0  0  0  0  0  0  0
  146.8890  143.0021  153.9471 H   0  0  0  0  0  0  0  0  0  0  0  0
  145.6721  140.9265  154.6580 H   0  0  0  0  0  0  0  0  0  0  0  0
  146.5297  140.6897  153.1439 H   0  0  0  0  0  0  0  0  0  0  0  0
  145.5405  136.4715  156.9685 H   0  0  0  0  0  0  0  0  0  0  0  0
  145.3671  137.3362  150.5878 H   0  0  0  0  0  0  0  0  0  0  0  0
  144.0643  134.6566  153.0497 H   0  0  0  0  0  0  0  0  0  0  0  0
  143.1991  135.6079  151.8711 H   0  0  0  0  0  0  0  0  0  0  0  0
  145.3822  134.8006  149.2082 H   0  0  0  0  0  0  0  0  0  0  0  0
  143.1520  133.0089  151.3706 H   0  0  0  0  0  0  0  0  0  0  0  0
  143.9021  132.8708  149.7871 H   0  0  0  0  0  0  0  0  0  0  0  0
  145.0746  131.9719  152.4397 H   0  0  0  0  0  0  0  0  0  0  0  0
  144.9802  131.0666  150.9199 H   0  0  0  0  0  0  0  0  0  0  0  0
  146.9995  134.5941  150.6872 H   0  0  0  0  0  0  0  0  0  0  0  0
  146.5437  134.1324  152.3231 H   0  0  0  0  0  0  0  0  0  0  0  0
  1  2  1  0  0  0  0
  1 29  1  0  0  0  0
  2  6  1  0  0  0  0
  2  3  1  0  0  0  0
  2 30  1  0  0  0  0
  3  4  1  0  0  0  0
  3 31  1  0  0  0  0
  3 32  1  0  0  0  0
  4  5  1  0  0  0  0
  4 33  1  0  0  0  0
  4 34  1  0  0  0  0
  5  6  1  0  0  0  0
  5 35  1  0  0  0  0
  5 36  1  0  0  0  0
  6  7  1  0  0  0  0
  6 37  1  0  0  0  0
  7 12  1  0  0  0  0
  7  8  1  0  0  0  0
  7 38  1  0  0  0  0
  8  9  1  0  0  0  0
  8 39  1  0  0  0  0
  8 40  1  0  0  0  0
  9 10  1  0  0  0  0
 10 11  1  0  0  0  0
 10 41  1  0  0  0  0
 10 42  1  0  0  0  0
 11 12  1  0  0  0  0
 11 43  1  0  0  0  0
 11 44  1  0  0  0  0
 12 13  1  0  0  0  0
 13 18  1  0  0  0  0
 13 14  2  0  0  0  0
 14 15  1  0  0  0  0
 15 16  2  0  0  0  0
 15 45  1  0  0  0  0
 16 17  1  0  0  0  0
 17 21  1  0  0  0  0
 17 18  2  0  0  0  0
 18 19  1  0  0  0  0
 19 20  2  0  0  0  0
 20 21  1  0  0  0  0
 20 46  1  0  0  0  0
 21 22  1  0  0  0  0
 22 23  1  0  0  0  0
 22 47  1  0  0  0  0
 22 48  1  0  0  0  0
 23 28  1  0  0  0  0
 23 24  1  0  0  0  0
 23 25  1  0  0  0  0
 24 49  1  0  0  0  0
 25 26  1  0  0  0  0
 25 50  1  0  0  0  0
 25 51  1  0  0  0  0
 26 27  1  0  0  0  0
 26 52  1  0  0  0  0
 26 53  1  0  0  0  0
 27 28  1  0  0  0  0
 28 54  1  0  0  0  0
 28 55  1  0  0  0  0
M  END
> <s_m_source_file>
AV-unprocessed.smi

> <i_m_source_file_index>
240

> <i_lp_mmshare_version>
43012

> <i_f3d_flags>
0

> <s_epik_input>
W09IXVtDQEBIXTFbQ0gyXVtDSDJdW0NIMl1bQ0BIXTFbQ0BASF0yW0NIMl1PW0NIMl1bQ0gyXU4yYyhuW2NIXW4zKWMoYzM0KW5bY0hdbjRbQ0gyXVtDQEBdNShbT0hdKVtDSDJdW0NIMl1PW0NIMl01

> <s_epik_cmdline>
J2VwaWtfcHl0aG9uJywgJy1waCcsICc3LjAnLCAnLXRuJywgJzgnLCAnLW1hJywgJzIwMCcsICctbWV0YWxfYmluZGluZycsICctaW1hZScsICc8aW5maWxlLm1hZT4nLCAnLW9tYWUnLCAnPG91dGZpbGUubWFlPic=

> <r_lp_tautomer_probability>
1

> <r_epik_Ionization_Penalty>
0.000130618

> <r_epik_Ionization_Penalty_Charging>
0

> <r_epik_Ionization_Penalty_Neutral>
0.000130618

> <r_epik_State_Penalty>
-0

> <r_epik_Charging_Adjusted_Penalty>
0

> <i_epik_Tot_Q>
0

> <i_epik_Tot_abs_Q>
0

> <r_epik_Metal_State_Penalty>
-0

> <b_epik_Metal_Only>
0

> <s_lp_Force_Field>
OPLS_2005

> <r_lp_Energy>
66.7643

> <b_lp_Chiralities_Consistent>
1

> <s_lp_Variant>
AV-unprocessed.smi:240-11

> <Gold.Version>
5.8.1

> <Gold.Id.Protein>
6NUR|6NUR_protein|mol2

> <Gold.PLP.Fitness>
39.1894

> <Gold.PLP.PLP>
-33.4444

> <Gold.PLP.part.hbond>
-1.6262

> <Gold.PLP.part.metal>
0.0000

> <Gold.PLP.part.buried>
-3.9849

> <Gold.PLP.part.nonpolar>
-29.7161

> <Gold.PLP.part.repulsive>
0.7905

> <Gold.PLP.ligand.clash>
0.0000

> <Gold.PLP.ligand.torsion>
0.3862

> <Gold.PLP.Chemscore.Hbond>
1.4000

> <Gold.PLP.Chemscore.CHOScore>
0.6906

> <Gold.PLP.Chemscore.Metal>
0.0000

> <Gold.Chemscore.Hbonds>
donor molecule, donor type, donor heavy atom, donor atom, acceptor molecule, acceptor atom, score
      L1  H    24    49       P1  7921  0.99
      P1  H  8011  8017       L1     9  0.40
      L1  C    20    46       P1 10171  0.73

> <Gold.PLP.Chemscore.Internal.Correction>
0.2456

> <Gold.Rescore>
     Score         DG    S(hbond)    S(metal)    S(lipo)     H(rot)  DE(clash)    DE(int)     intcor
      7.98     -11.57       1.00        0.00      89.33       3.00       2.20       1.39       ----

> <Gold.Chemscore.Fitness>
7.9765

> <Gold.Chemscore.DG>
-11.5659

> <Gold.Chemscore.ZeroCoef>
-5.4800

> <Gold.Chemscore.Hbond>
0.9952

> <Gold.Chemscore.Metal>
0.0000

> <Gold.Chemscore.Lipo>
89.3318

> <Gold.Chemscore.Internal_Hbond>
0.0000

> <Gold.Chemscore.DEClash>
2.1986

> <Gold.Chemscore.DEInternal>
1.3908

> <Gold.Chemscore.Rot>
3.0039

> <Gold.Chemscore.Internal.Correction>
   9.000000E+99

> <Gold.Chemscore.Hbonds>
donor molecule, donor type, donor heavy atom, donor atom, acceptor molecule, acceptor atom, score
      L1  H    24    49       P1  7921  0.93
      P1  H  8011  8017       L1     9  0.14

> <Gold.Chemscore.Hbond.Weighted>
-3.3240

> <Gold.Chemscore.Metal.Weighted>
-0.0000

> <Gold.Chemscore.Lipo.Weighted>
-10.4518

> <Gold.Chemscore.Internal_Hbond.Weighted>
0.0000

> <Gold.Chemscore.DEClash.Weighted>
2.1986

> <Gold.Chemscore.DEInternal.Weighted>
1.3908

> <Gold.Chemscore.Rot.Weighted>
7.6899

> <Gold.Chemscore.Internal.Correction.Weighted>
   9.000000E+99

> <Gold.Protein.RotatedTorsions>
[ 6907 6896 6895 6894 ] final -154.76 input  -60.11 | X-H torsion
[ 7974 7965 7964 7962 ] final   -5.36 input  175.53 | X-H torsion
[ 8008 7997 7996 7995 ] final   79.86 input   59.86 | X-H torsion
[ 10167 10162 10161 10158 ] final -103.16 input  -65.29 | X-H torsion
[ 10718 10713 10712 10709 ] final  160.94 input   66.30 | X-H torsion
[ 10763 10752 10751 10750 ] final  -39.63 input  -60.55 | X-H torsion
[ 11005 11000 10999 10996 ] final   19.35 input  -57.11 | X-H torsion

> <Gold.Protein.ActiveResidues>
 VAL166  LYS551  ARG553  GLY616  TRP617  ASP618  TYR619  PRO620  LYS621  CYS622 
 ASP623  PHE694  ASN695  SER759  ASP760  ASP761  ALA762  ILE779  LEU786  VAL792 
 PHE793  MET794  SER795  GLU796  ALA797  LYS798  CYS799  TRP800  GLU811  SER814 

> <Gold.Protein.RotatedAtoms>
  151.2623  133.4296  159.2616 H   0  0  0  0  0  0  0  0  0  0  0  0  # atno 6907 bound_to 6896
  151.0520  134.9679  159.8226 H   0  0  0  0  0  0  0  0  0  0  0  0  # atno 6908 bound_to 6896
  152.5384  134.2577  159.8976 H   0  0  0  0  0  0  0  0  0  0  0  0  # atno 6909 bound_to 6896
  146.2354  140.2010  142.8333 H   0  0  0  0  0  0  0  0  0  0  0  0  # atno 7974 bound_to 7965
  155.8755  140.3447  155.5851 H   0  0  0  0  0  0  0  0  0  0  0  0  # atno 8008 bound_to 7997
  155.7779  140.0854  157.2094 H   0  0  0  0  0  0  0  0  0  0  0  0  # atno 8009 bound_to 7997
  154.4020  140.1506  156.3005 H   0  0  0  0  0  0  0  0  0  0  0  0  # atno 8010 bound_to 7997
  140.2229  143.3662  152.0954 H   0  0  0  0  0  0  0  0  0  0  0  0  # atno 10167 bound_to 10162
  157.1435  131.0546  151.2315 H   0  0  0  0  0  0  0  0  0  0  0  0  # atno 10718 bound_to 10713
  153.9326  135.6770  153.4745 H   0  0  0  0  0  0  0  0  0  0  0  0  # atno 10763 bound_to 10752
  153.0972  135.4845  154.8797 H   0  0  0  0  0  0  0  0  0  0  0  0  # atno 10764 bound_to 10752
  154.7420  135.3163  154.8669 H   0  0  0  0  0  0  0  0  0  0  0  0  # atno 10765 bound_to 10752
  140.4146  134.1582  155.7669 H   0  0  0  0  0  0  0  0  0  0  0  0  # atno 11005 bound_to 11000
  144.9782  140.8434  143.5413 LP  0  0  0  0  0  0  0  0  0  0  0  0  # atno 17320 bound_to 7965
  145.2000  139.2257  143.5198 LP  0  0  0  0  0  0  0  0  0  0  0  0  # atno 17321 bound_to 7965
  139.5137  144.6937  151.5689 LP  0  0  0  0  0  0  0  0  0  0  0  0  # atno 17342 bound_to 10162
  140.6242  143.9201  150.6550 LP  0  0  0  0  0  0  0  0  0  0  0  0  # atno 17343 bound_to 10162
  157.4286  130.7477  149.6971 LP  0  0  0  0  0  0  0  0  0  0  0  0  # atno 17370 bound_to 10713
  155.9784  130.4052  150.3651 LP  0  0  0  0  0  0  0  0  0  0  0  0  # atno 17371 bound_to 10713
  141.1808  133.8418  157.1265 LP  0  0  0  0  0  0  0  0  0  0  0  0  # atno 17394 bound_to 11000
  140.0243  134.9931  157.0654 LP  0  0  0  0  0  0  0  0  0  0  0  0  # atno 17395 bound_to 11000

$$$$
