AV-unprocessed.smi:183|AV-procd|sdf|1459|dock3
  -GOLD-   2262019263D 1   1.00000     0.00000
 Structure written by MMmdl.
 55 57  0  0  0  0  0  0  0  0  1 V2000
  139.0973  137.1068  153.7472 C   0  0  0  0  0  0  0  0  0  0  0  0
  140.5737  136.7304  153.6911 C   0  0  0  0  0  0  0  0  0  0  0  0
  140.9606  135.6710  154.1835 O   0  0  0  0  0  0  0  0  0  0  0  0
  141.3871  137.6085  153.0859 N   0  0  0  0  0  0  0  0  0  0  0  0
  142.8260  137.4427  152.9314 C   0  0  0  0  0  0  0  0  0  0  0  0
  143.1874  135.9833  152.5901 C   0  0  0  0  0  0  0  0  0  0  0  0
  144.6256  135.7620  152.4138 N   0  0  0  0  0  0  0  0  0  0  0  0
  145.3466  136.4236  153.3522 C   0  0  0  0  0  0  0  0  0  0  0  0
  145.3101  135.9348  154.6174 N   0  0  0  0  0  0  0  0  0  0  0  0
  145.9891  136.5467  155.5921 C   0  0  0  0  0  0  0  0  0  0  0  0
  146.7470  137.6427  155.5211 N   0  0  0  0  0  0  0  0  0  0  0  0
  146.7781  138.1428  154.2527 C   0  0  0  0  0  0  0  0  0  0  0  0
  146.1113  137.6027  153.1171 C   0  0  0  0  0  0  0  0  0  0  0  0
  146.3650  138.3922  152.0012 N   0  0  0  0  0  0  0  0  0  0  0  0
  147.1391  139.3412  152.4506 C   0  0  0  0  0  0  0  0  0  0  0  0
  147.4450  139.2637  153.7903 N   0  0  0  0  0  0  0  0  0  0  0  0
  148.2833  140.1799  154.5472 C   0  0  0  0  0  0  0  0  0  0  0  0
  149.5896  139.5324  155.0650 C   0  0  1  0  0  0  0  0  0  0  0  0
  149.2690  138.6610  156.1377 O   0  0  0  0  0  0  0  0  0  0  0  0
  150.3465  138.7363  154.0115 C   0  0  0  0  0  0  0  0  0  0  0  0
  151.7736  138.7587  154.5431 C   0  0  0  0  0  0  0  0  0  0  0  0
  151.9216  140.0519  155.1130 O   0  0  0  0  0  0  0  0  0  0  0  0
  150.6490  140.5718  155.4968 C   0  0  2  0  0  0  0  0  0  0  0  0
  150.6508  140.9779  156.9794 C   0  0  0  0  0  0  0  0  0  0  0  0
  145.1965  135.6537  151.0599 C   0  0  0  0  0  0  0  0  0  0  0  0
  144.1047  135.4449  149.9934 C   0  0  0  0  0  0  0  0  0  0  0  0
  146.2279  134.5101  150.9438 C   0  0  0  0  0  0  0  0  0  0  0  0
  138.6571  137.0602  152.7507 H   0  0  0  0  0  0  0  0  0  0  0  0
  138.9736  138.1188  154.1339 H   0  0  0  0  0  0  0  0  0  0  0  0
  138.5475  136.4250  154.3967 H   0  0  0  0  0  0  0  0  0  0  0  0
  140.9811  138.4531  152.7098 H   0  0  0  0  0  0  0  0  0  0  0  0
  143.1539  138.1127  152.1372 H   0  0  0  0  0  0  0  0  0  0  0  0
  143.3311  137.7688  153.8413 H   0  0  0  0  0  0  0  0  0  0  0  0
  142.8126  135.3238  153.3746 H   0  0  0  0  0  0  0  0  0  0  0  0
  142.6652  135.6718  151.6859 H   0  0  0  0  0  0  0  0  0  0  0  0
  145.9125  136.0942  156.5696 H   0  0  0  0  0  0  0  0  0  0  0  0
  147.5138  140.1273  151.8116 H   0  0  0  0  0  0  0  0  0  0  0  0
  148.5120  141.0316  153.9052 H   0  0  0  0  0  0  0  0  0  0  0  0
  147.7017  140.5754  155.3810 H   0  0  0  0  0  0  0  0  0  0  0  0
  150.0332  138.5664  156.6852 H   0  0  0  0  0  0  0  0  0  0  0  0
  149.9613  137.7268  153.8605 H   0  0  0  0  0  0  0  0  0  0  0  0
  150.3140  139.2547  153.0523 H   0  0  0  0  0  0  0  0  0  0  0  0
  151.9053  138.0086  155.3240 H   0  0  0  0  0  0  0  0  0  0  0  0
  152.5160  138.5754  153.7662 H   0  0  0  0  0  0  0  0  0  0  0  0
  150.5150  141.4750  154.8999 H   0  0  0  0  0  0  0  0  0  0  0  0
  149.6759  141.3605  157.2819 H   0  0  0  0  0  0  0  0  0  0  0  0
  151.3861  141.7614  157.1630 H   0  0  0  0  0  0  0  0  0  0  0  0
  150.9008  140.1375  157.6272 H   0  0  0  0  0  0  0  0  0  0  0  0
  145.7041  136.5895  150.8265 H   0  0  0  0  0  0  0  0  0  0  0  0
  144.5438  135.3138  149.0041 H   0  0  0  0  0  0  0  0  0  0  0  0
  143.4334  136.3008  149.9252 H   0  0  0  0  0  0  0  0  0  0  0  0
  143.5036  134.5607  150.2079 H   0  0  0  0  0  0  0  0  0  0  0  0
  146.6037  134.4260  149.9237 H   0  0  0  0  0  0  0  0  0  0  0  0
  145.7839  133.5506  151.2109 H   0  0  0  0  0  0  0  0  0  0  0  0
  147.0967  134.6638  151.5830 H   0  0  0  0  0  0  0  0  0  0  0  0
  1  2  1  0  0  0  0
  1 28  1  0  0  0  0
  1 29  1  0  0  0  0
  1 30  1  0  0  0  0
  2  3  2  0  0  0  0
  2  4  1  0  0  0  0
  4  5  1  0  0  0  0
  4 31  1  0  0  0  0
  5  6  1  0  0  0  0
  5 32  1  0  0  0  0
  5 33  1  0  0  0  0
  6  7  1  0  0  0  0
  6 34  1  0  0  0  0
  6 35  1  0  0  0  0
  7  8  1  0  0  0  0
  7 25  1  0  0  0  0
  8 13  1  0  0  0  0
  8  9  2  0  0  0  0
  9 10  1  0  0  0  0
 10 11  2  0  0  0  0
 10 36  1  0  0  0  0
 11 12  1  0  0  0  0
 12 16  1  0  0  0  0
 12 13  2  0  0  0  0
 13 14  1  0  0  0  0
 14 15  2  0  0  0  0
 15 16  1  0  0  0  0
 15 37  1  0  0  0  0
 16 17  1  0  0  0  0
 17 18  1  0  0  0  0
 17 38  1  0  0  0  0
 17 39  1  0  0  0  0
 18 23  1  0  0  0  0
 18 19  1  0  0  0  0
 18 20  1  0  0  0  0
 19 40  1  0  0  0  0
 20 21  1  0  0  0  0
 20 41  1  0  0  0  0
 20 42  1  0  0  0  0
 21 22  1  0  0  0  0
 21 43  1  0  0  0  0
 21 44  1  0  0  0  0
 22 23  1  0  0  0  0
 23 24  1  0  0  0  0
 23 45  1  0  0  0  0
 24 46  1  0  0  0  0
 24 47  1  0  0  0  0
 24 48  1  0  0  0  0
 25 26  1  0  0  0  0
 25 27  1  0  0  0  0
 25 49  1  0  0  0  0
 26 50  1  0  0  0  0
 26 51  1  0  0  0  0
 26 52  1  0  0  0  0
 27 53  1  0  0  0  0
 27 54  1  0  0  0  0
 27 55  1  0  0  0  0
M  END
> <s_m_source_file>
AV-unprocessed.smi

> <i_m_source_file_index>
183

> <i_lp_mmshare_version>
43012

> <i_f3d_flags>
0

> <s_epik_input>
W0NIM11DKD1PKVtOSF1bQ0gyXVtDSDJdTihbQ0hdKFtDSDNdKVtDSDNdKWMobltjSF1uMSljKGMxMiluW2NIXW4yW0NIMl1bQ0BAXTMoW09IXSlbQ0gyXVtDSDJdT1tDQEhdM1tDSDNd

> <s_epik_cmdline>
J2VwaWtfcHl0aG9uJywgJy1waCcsICc3LjAnLCAnLXRuJywgJzgnLCAnLW1hJywgJzIwMCcsICctbWV0YWxfYmluZGluZycsICctaW1hZScsICc8aW5maWxlLm1hZT4nLCAnLW9tYWUnLCAnPG91dGZpbGUubWFlPic=

> <r_lp_tautomer_probability>
1

> <r_epik_Ionization_Penalty>
0.00156158

> <r_epik_Ionization_Penalty_Charging>
0

> <r_epik_Ionization_Penalty_Neutral>
0.00156158

> <r_epik_State_Penalty>
0.000865808

> <r_epik_Charging_Adjusted_Penalty>
0.000865808

> <i_epik_Tot_Q>
0

> <i_epik_Tot_abs_Q>
0

> <r_epik_Metal_State_Penalty>
-0

> <b_epik_Metal_Only>
0

> <s_lp_Force_Field>
OPLS_2005

> <r_lp_Energy>
29.9876

> <b_lp_Chiralities_Consistent>
1

> <s_lp_Variant>
AV-unprocessed.smi:183-3

> <Gold.Version>
5.8.1

> <Gold.Id.Protein>
6NUR|6NUR_protein|mol2

> <Gold.PLP.Fitness>
42.2568

> <Gold.PLP.PLP>
-39.1308

> <Gold.PLP.part.hbond>
-2.0000

> <Gold.PLP.part.metal>
0.0000

> <Gold.PLP.part.buried>
-5.8627

> <Gold.PLP.part.nonpolar>
-32.8851

> <Gold.PLP.part.repulsive>
0.5839

> <Gold.PLP.ligand.clash>
0.0000

> <Gold.PLP.ligand.torsion>
2.0385

> <Gold.PLP.Chemscore.Hbond>
1.1424

> <Gold.PLP.Chemscore.CHOScore>
0.8975

> <Gold.PLP.Chemscore.Metal>
0.0000

> <Gold.Chemscore.Hbonds>
donor molecule, donor type, donor heavy atom, donor atom, acceptor molecule, acceptor atom, score
      P1  H  7989  7998       L1    22  0.18
      P1  H 11000 11005       L1     3  0.68
      L1  C    15    37       P1  7957  0.79

> <Gold.PLP.Chemscore.Internal.Correction>
1.0835

> <Gold.Rescore>
     Score         DG    S(hbond)    S(metal)    S(lipo)     H(rot)  DE(clash)    DE(int)     intcor
      4.29      -8.84       0.95        0.00      76.84       3.45       1.13       3.41       ----

> <Gold.Chemscore.Fitness>
4.2932

> <Gold.Chemscore.DG>
-8.8387

> <Gold.Chemscore.ZeroCoef>
-5.4800

> <Gold.Chemscore.Hbond>
0.9543

> <Gold.Chemscore.Metal>
0.0000

> <Gold.Chemscore.Lipo>
76.8436

> <Gold.Chemscore.Internal_Hbond>
0.0000

> <Gold.Chemscore.DEClash>
1.1322

> <Gold.Chemscore.DEInternal>
3.4134

> <Gold.Chemscore.Rot>
3.4451

> <Gold.Chemscore.Internal.Correction>
   9.000000E+99

> <Gold.Chemscore.Hbonds>
donor molecule, donor type, donor heavy atom, donor atom, acceptor molecule, acceptor atom, score
      P1  H 11000 11005       L1     3  0.65

> <Gold.Chemscore.Hbond.Weighted>
-3.1874

> <Gold.Chemscore.Metal.Weighted>
-0.0000

> <Gold.Chemscore.Lipo.Weighted>
-8.9907

> <Gold.Chemscore.Internal_Hbond.Weighted>
0.0000

> <Gold.Chemscore.DEClash.Weighted>
1.1322

> <Gold.Chemscore.DEInternal.Weighted>
3.4134

> <Gold.Chemscore.Rot.Weighted>
8.8194

> <Gold.Chemscore.Internal.Correction.Weighted>
   9.000000E+99

> <Gold.Protein.RotatedTorsions>
[ 6907 6896 6895 6894 ] final  -42.59 input  -60.11 | X-H torsion
[ 7974 7965 7964 7962 ] final  173.21 input  175.53 | X-H torsion
[ 8008 7997 7996 7995 ] final   77.52 input   59.86 | X-H torsion
[ 10167 10162 10161 10158 ] final -127.76 input  -65.29 | X-H torsion
[ 10718 10713 10712 10709 ] final  -68.68 input   66.30 | X-H torsion
[ 10763 10752 10751 10750 ] final  172.47 input  -60.55 | X-H torsion
[ 11005 11000 10999 10996 ] final   37.37 input  -57.11 | X-H torsion

> <Gold.Protein.ActiveResidues>
 VAL166  LYS551  ARG553  GLY616  TRP617  ASP618  TYR619  PRO620  LYS621  CYS622 
 ASP623  PHE694  ASN695  SER759  ASP760  ASP761  ALA762  ILE779  LEU786  VAL792 
 PHE793  MET794  SER795  GLU796  ALA797  LYS798  CYS799  TRP800  GLU811  SER814 

> <Gold.Protein.RotatedAtoms>
  150.9535  134.8932  159.7686 H   0  0  0  0  0  0  0  0  0  0  0  0  # atno 6907 bound_to 6896
  152.5129  134.3773  159.9349 H   0  0  0  0  0  0  0  0  0  0  0  0  # atno 6908 bound_to 6896
  151.3788  133.3788  159.2742 H   0  0  0  0  0  0  0  0  0  0  0  0  # atno 6909 bound_to 6896
  144.7249  139.9613  143.6435 H   0  0  0  0  0  0  0  0  0  0  0  0  # atno 7974 bound_to 7965
  155.8428  140.3461  155.5643 H   0  0  0  0  0  0  0  0  0  0  0  0  # atno 8008 bound_to 7997
  155.8122  140.0900  157.1917 H   0  0  0  0  0  0  0  0  0  0  0  0  # atno 8009 bound_to 7997
  154.4005  140.1445  156.3387 H   0  0  0  0  0  0  0  0  0  0  0  0  # atno 8010 bound_to 7997
  139.9575  143.5987  152.2456 H   0  0  0  0  0  0  0  0  0  0  0  0  # atno 10167 bound_to 10162
  156.0493  130.4299  150.2036 H   0  0  0  0  0  0  0  0  0  0  0  0  # atno 10718 bound_to 10713
  154.4265  135.2759  155.1941 H   0  0  0  0  0  0  0  0  0  0  0  0  # atno 10763 bound_to 10752
  154.3865  135.6076  153.5823 H   0  0  0  0  0  0  0  0  0  0  0  0  # atno 10764 bound_to 10752
  152.9834  135.5893  154.4569 H   0  0  0  0  0  0  0  0  0  0  0  0  # atno 10765 bound_to 10752
  140.2233  134.3615  155.7995 H   0  0  0  0  0  0  0  0  0  0  0  0  # atno 11005 bound_to 11000
  146.0635  139.3627  143.0567 LP  0  0  0  0  0  0  0  0  0  0  0  0  # atno 17320 bound_to 7965
  145.8062  140.9748  143.0973 LP  0  0  0  0  0  0  0  0  0  0  0  0  # atno 17321 bound_to 7965
  139.6580  144.7662  151.2018 LP  0  0  0  0  0  0  0  0  0  0  0  0  # atno 17342 bound_to 10162
  140.7564  143.6055  150.8657 LP  0  0  0  0  0  0  0  0  0  0  0  0  # atno 17343 bound_to 10162
  157.0121  130.9954  151.3363 LP  0  0  0  0  0  0  0  0  0  0  0  0  # atno 17370 bound_to 10713
  157.5403  130.8115  149.8020 LP  0  0  0  0  0  0  0  0  0  0  0  0  # atno 17371 bound_to 10713
  141.2222  133.7205  156.8611 LP  0  0  0  0  0  0  0  0  0  0  0  0  # atno 17394 bound_to 11000
  140.1827  134.9022  157.2968 LP  0  0  0  0  0  0  0  0  0  0  0  0  # atno 17395 bound_to 11000

$$$$
