AV-unprocessed.smi:2847|AV-procd|sdf|10953|dock3
  -GOLD-   2272015403D 1   1.00000     0.00000
 Structure written by MMmdl.
 45 46  0  0  0  0  0  0  0  0  1 V2000
  145.8569  132.0684  149.4495 C   0  0  0  0  0  0  0  0  0  0  0  0
  145.9489  132.3506  150.9676 C   0  0  0  0  0  0  0  0  0  0  0  0
  145.4249  131.0764  151.6715 C   0  0  0  0  0  0  0  0  0  0  0  0
  147.4186  132.5886  151.3594 C   0  0  0  0  0  0  0  0  0  0  0  0
  145.1095  133.5812  151.3532 C   0  0  0  0  0  0  0  0  0  0  0  0
  145.4923  134.7620  150.8496 N   0  0  0  0  0  0  0  0  0  0  0  0
  144.8464  135.8657  151.2803 C   0  0  0  0  0  0  0  0  0  0  0  0
  143.8326  135.8041  152.2566 C   0  0  0  0  0  0  0  0  0  0  0  0
  143.1844  137.0045  152.6517 N   0  0  0  0  0  0  0  0  0  0  0  0
  142.0262  137.1484  153.3170 C   0  0  0  0  0  0  0  0  0  0  0  0
  141.3318  136.2229  153.7352 O   0  0  0  0  0  0  0  0  0  0  0  0
  141.7297  138.4481  153.4829 N   0  0  0  0  0  0  0  0  0  0  0  0
  140.5672  139.0452  154.1549 C   0  0  1  0  0  0  0  0  0  0  0  0
  140.6444  138.5822  155.6308 C   0  0  0  0  0  0  0  0  0  0  0  0
  140.6639  140.5946  154.1085 C   0  0  0  0  0  0  0  0  0  0  0  0
  141.8749  141.0827  154.6535 O   0  0  0  0  0  0  0  0  0  0  0  0
  139.2427  138.6317  153.4895 C   0  0  0  0  0  0  0  0  0  0  0  0
  137.9375  138.4680  154.2349 C   0  0  0  0  0  0  0  0  0  0  0  0
  138.6172  137.2619  153.6146 C   0  0  0  0  0  0  0  0  0  0  0  0
  143.5276  134.5114  152.7456 C   0  0  0  0  0  0  0  0  0  0  0  0
  144.1808  133.4154  152.3042 N   0  0  0  0  0  0  0  0  0  0  0  0
  146.4124  131.1702  149.1778 H   0  0  0  0  0  0  0  0  0  0  0  0
  146.2712  132.8845  148.8563 H   0  0  0  0  0  0  0  0  0  0  0  0
  144.8231  131.9220  149.1343 H   0  0  0  0  0  0  0  0  0  0  0  0
  144.3751  130.8961  151.4365 H   0  0  0  0  0  0  0  0  0  0  0  0
  145.5143  131.1418  152.7564 H   0  0  0  0  0  0  0  0  0  0  0  0
  145.9853  130.1931  151.3632 H   0  0  0  0  0  0  0  0  0  0  0  0
  148.0433  131.7331  151.1008 H   0  0  0  0  0  0  0  0  0  0  0  0
  147.5202  132.7585  152.4318 H   0  0  0  0  0  0  0  0  0  0  0  0
  147.8278  133.4611  150.8487 H   0  0  0  0  0  0  0  0  0  0  0  0
  145.1508  136.8073  150.8470 H   0  0  0  0  0  0  0  0  0  0  0  0
  143.6819  137.8563  152.4364 H   0  0  0  0  0  0  0  0  0  0  0  0
  142.3816  139.1102  153.0888 H   0  0  0  0  0  0  0  0  0  0  0  0
  139.8741  139.0439  156.2477 H   0  0  0  0  0  0  0  0  0  0  0  0
  141.6017  138.8472  156.0810 H   0  0  0  0  0  0  0  0  0  0  0  0
  140.5521  137.5013  155.7302 H   0  0  0  0  0  0  0  0  0  0  0  0
  140.5693  140.9696  153.0895 H   0  0  0  0  0  0  0  0  0  0  0  0
  139.8407  141.0365  154.6706 H   0  0  0  0  0  0  0  0  0  0  0  0
  142.5923  140.7456  154.1390 H   0  0  0  0  0  0  0  0  0  0  0  0
  139.1193  139.0864  152.5087 H   0  0  0  0  0  0  0  0  0  0  0  0
  137.9308  138.5304  155.3199 H   0  0  0  0  0  0  0  0  0  0  0  0
  137.0373  138.8393  153.7493 H   0  0  0  0  0  0  0  0  0  0  0  0
  138.1660  136.8386  152.7194 H   0  0  0  0  0  0  0  0  0  0  0  0
  139.0612  136.5354  154.2901 H   0  0  0  0  0  0  0  0  0  0  0  0
  142.7577  134.3290  153.4786 H   0  0  0  0  0  0  0  0  0  0  0  0
  1  2  1  0  0  0  0
  1 22  1  0  0  0  0
  1 23  1  0  0  0  0
  1 24  1  0  0  0  0
  2  3  1  0  0  0  0
  2  4  1  0  0  0  0
  2  5  1  0  0  0  0
  3 25  1  0  0  0  0
  3 26  1  0  0  0  0
  3 27  1  0  0  0  0
  4 28  1  0  0  0  0
  4 29  1  0  0  0  0
  4 30  1  0  0  0  0
  5 21  1  0  0  0  0
  5  6  2  0  0  0  0
  6  7  1  0  0  0  0
  7  8  2  0  0  0  0
  7 31  1  0  0  0  0
  8  9  1  0  0  0  0
  8 20  1  0  0  0  0
  9 10  1  0  0  0  0
  9 32  1  0  0  0  0
 10 11  2  0  0  0  0
 10 12  1  0  0  0  0
 12 13  1  0  0  0  0
 12 33  1  0  0  0  0
 13 14  1  0  0  0  0
 13 15  1  0  0  0  0
 13 17  1  0  0  0  0
 14 34  1  0  0  0  0
 14 35  1  0  0  0  0
 14 36  1  0  0  0  0
 15 16  1  0  0  0  0
 15 37  1  0  0  0  0
 15 38  1  0  0  0  0
 16 39  1  0  0  0  0
 17 19  1  0  0  0  0
 17 18  1  0  0  0  0
 17 40  1  0  0  0  0
 18 19  1  0  0  0  0
 18 41  1  0  0  0  0
 18 42  1  0  0  0  0
 19 43  1  0  0  0  0
 19 44  1  0  0  0  0
 20 21  2  0  0  0  0
 20 45  1  0  0  0  0
M  END
> <s_m_source_file>
AV-unprocessed.smi

> <i_m_source_file_index>
2847

> <i_lp_mmshare_version>
43012

> <i_f3d_flags>
0

> <s_epik_input>
W0NIM11DKFtDSDNdKShbQ0gzXSljMW5bY0hdYyhbY0hdbjEpW05IXUMoPU8pW05IXVtDQEBdKFtDSDNdKShbQ0gyXVtPSF0pW0NIXTJbQ0gyXVtDSDJdMg==

> <s_epik_cmdline>
J2VwaWtfcHl0aG9uJywgJy1waCcsICc3LjAnLCAnLXRuJywgJzgnLCAnLW1hJywgJzIwMCcsICctbWV0YWxfYmluZGluZycsICctaW1hZScsICc8aW5maWxlLm1hZT4nLCAnLW9tYWUnLCAnPG91dGZpbGUubWFlPic=

> <r_lp_tautomer_probability>
1

> <r_epik_Ionization_Penalty>
2.57177e-05

> <r_epik_Ionization_Penalty_Charging>
0

> <r_epik_Ionization_Penalty_Neutral>
2.57177e-05

> <r_epik_State_Penalty>
-0

> <r_epik_Charging_Adjusted_Penalty>
0

> <i_epik_Tot_Q>
0

> <i_epik_Tot_abs_Q>
0

> <r_epik_Metal_State_Penalty>
-0

> <b_epik_Metal_Only>
0

> <s_lp_Force_Field>
OPLS_2005

> <r_lp_Energy>
20.4005

> <b_lp_Chiralities_Consistent>
1

> <s_lp_Variant>
AV-unprocessed.smi:2847-1

> <Gold.Version>
5.8.1

> <Gold.Id.Protein>
6NUR|6NUR_protein|mol2

> <Gold.PLP.Fitness>
42.0294

> <Gold.PLP.PLP>
-32.8119

> <Gold.PLP.part.hbond>
-3.0809

> <Gold.PLP.part.metal>
0.0000

> <Gold.PLP.part.buried>
-1.8784

> <Gold.PLP.part.nonpolar>
-28.6394

> <Gold.PLP.part.repulsive>
0.4888

> <Gold.PLP.ligand.clash>
0.0000

> <Gold.PLP.ligand.torsion>
0.8709

> <Gold.PLP.Chemscore.Hbond>
2.0000

> <Gold.PLP.Chemscore.CHOScore>
1.1256

> <Gold.PLP.Chemscore.Metal>
0.0000

> <Gold.Chemscore.Hbonds>
donor molecule, donor type, donor heavy atom, donor atom, acceptor molecule, acceptor atom, score
      L1  H    12    33       P1 10175  1.00
      L1  H    16    39       P1 10175  1.00
      L1  C     7    31       P1 10171  1.00
      L1  C    20    45       P1 10957  0.11

> <Gold.PLP.Chemscore.Internal.Correction>
1.5826

> <Gold.Rescore>
     Score         DG    S(hbond)    S(metal)    S(lipo)     H(rot)  DE(clash)    DE(int)     intcor
     12.25     -15.98       1.74        0.00      87.63       2.17       1.66       2.07       ----

> <Gold.Chemscore.Fitness>
12.2474

> <Gold.Chemscore.DG>
-15.9782

> <Gold.Chemscore.ZeroCoef>
-5.4800

> <Gold.Chemscore.Hbond>
1.7351

> <Gold.Chemscore.Metal>
0.0000

> <Gold.Chemscore.Lipo>
87.6319

> <Gold.Chemscore.Internal_Hbond>
0.0000

> <Gold.Chemscore.DEClash>
1.6586

> <Gold.Chemscore.DEInternal>
2.0721

> <Gold.Chemscore.Rot>
2.1679

> <Gold.Chemscore.Internal.Correction>
   9.000000E+99

> <Gold.Chemscore.Hbonds>
donor molecule, donor type, donor heavy atom, donor atom, acceptor molecule, acceptor atom, score
      L1  H    12    33       P1 10175  1.00
      L1  H    16    39       P1 10175  0.54

> <Gold.Chemscore.Hbond.Weighted>
-5.7951

> <Gold.Chemscore.Metal.Weighted>
-0.0000

> <Gold.Chemscore.Lipo.Weighted>
-10.2529

> <Gold.Chemscore.Internal_Hbond.Weighted>
0.0000

> <Gold.Chemscore.DEClash.Weighted>
1.6586

> <Gold.Chemscore.DEInternal.Weighted>
2.0721

> <Gold.Chemscore.Rot.Weighted>
5.5499

> <Gold.Chemscore.Internal.Correction.Weighted>
   9.000000E+99

> <Gold.Protein.RotatedTorsions>
[ 6907 6896 6895 6894 ] final -175.36 input  -60.11 | X-H torsion
[ 7974 7965 7964 7962 ] final  -92.63 input  175.53 | X-H torsion
[ 8008 7997 7996 7995 ] final  124.17 input   59.86 | X-H torsion
[ 10167 10162 10161 10158 ] final -147.59 input  -65.29 | X-H torsion
[ 10718 10713 10712 10709 ] final    8.69 input   66.30 | X-H torsion
[ 10763 10752 10751 10750 ] final   -0.28 input  -60.55 | X-H torsion
[ 11005 11000 10999 10996 ] final  159.32 input  -57.11 | X-H torsion

> <Gold.Protein.ActiveResidues>
 VAL166  LYS551  ARG553  GLY616  TRP617  ASP618  TYR619  PRO620  LYS621  CYS622 
 ASP623  PHE694  ASN695  SER759  ASP760  ASP761  ALA762  ILE779  LEU786  VAL792 
 PHE793  MET794  SER795  GLU796  ALA797  LYS798  CYS799  TRP800  GLU811  SER814 

> <Gold.Protein.RotatedAtoms>
  151.5872  133.3370  159.3020 H   0  0  0  0  0  0  0  0  0  0  0  0  # atno 6907 bound_to 6896
  150.8280  134.7523  159.6841 H   0  0  0  0  0  0  0  0  0  0  0  0  # atno 6908 bound_to 6896
  152.4367  134.5678  159.9964 H   0  0  0  0  0  0  0  0  0  0  0  0  # atno 6909 bound_to 6896
  145.3973  140.9534  143.2307 H   0  0  0  0  0  0  0  0  0  0  0  0  # atno 7974 bound_to 7965
  156.2792  140.2746  156.1745 H   0  0  0  0  0  0  0  0  0  0  0  0  # atno 8008 bound_to 7997
  155.0621  140.0386  157.2598 H   0  0  0  0  0  0  0  0  0  0  0  0  # atno 8009 bound_to 7997
  154.7109  140.2668  155.6636 H   0  0  0  0  0  0  0  0  0  0  0  0  # atno 8010 bound_to 7997
  139.7608  143.8380  152.2606 H   0  0  0  0  0  0  0  0  0  0  0  0  # atno 10167 bound_to 10162
  156.9554  130.5912  149.5659 H   0  0  0  0  0  0  0  0  0  0  0  0  # atno 10718 bound_to 10713
  153.3299  135.6974  153.6957 H   0  0  0  0  0  0  0  0  0  0  0  0  # atno 10763 bound_to 10752
  153.5763  135.3506  155.2858 H   0  0  0  0  0  0  0  0  0  0  0  0  # atno 10764 bound_to 10752
  154.8616  135.4284  154.2485 H   0  0  0  0  0  0  0  0  0  0  0  0  # atno 10765 bound_to 10752
  140.1950  134.8379  157.2955 H   0  0  0  0  0  0  0  0  0  0  0  0  # atno 11005 bound_to 11000
  144.8398  139.5490  143.6905 LP  0  0  0  0  0  0  0  0  0  0  0  0  # atno 17320 bound_to 7965
  146.2769  139.6775  142.9257 LP  0  0  0  0  0  0  0  0  0  0  0  0  # atno 17321 bound_to 7965
  139.8385  144.7221  150.9360 LP  0  0  0  0  0  0  0  0  0  0  0  0  # atno 17342 bound_to 10162
  140.7807  143.4005  151.1158 LP  0  0  0  0  0  0  0  0  0  0  0  0  # atno 17343 bound_to 10162
  156.0345  130.5433  150.8618 LP  0  0  0  0  0  0  0  0  0  0  0  0  # atno 17370 bound_to 10713
  157.5694  131.0946  150.9441 LP  0  0  0  0  0  0  0  0  0  0  0  0  # atno 17371 bound_to 10713
  140.2117  134.4130  155.7609 LP  0  0  0  0  0  0  0  0  0  0  0  0  # atno 17394 bound_to 11000
  141.2227  133.7121  156.8349 LP  0  0  0  0  0  0  0  0  0  0  0  0  # atno 17395 bound_to 11000

$$$$
