AV-unprocessed.smi:2159|AV-procd|sdf|8794|dock7
  -GOLD-   2272011573D 1   1.00000     0.00000
 Structure written by MMmdl.
 48 50  0  0  0  0  0  0  0  0  2 V2000
  151.8322  136.8625  154.6022 O   0  0  0  0  0  0  0  0  0  0  0  0
  151.2866  137.1783  155.6602 C   0  0  0  0  0  0  0  0  0  0  0  0
  151.9123  138.2359  156.5739 C   0  0  0  0  0  0  0  0  0  0  0  0
  151.9848  139.6288  155.9168 C   0  0  0  0  0  0  0  0  0  0  0  0
  151.8950  140.6947  156.9177 N   0  0  0  0  0  0  0  0  0  0  0  0
  152.6247  140.7366  158.0488 C   0  0  0  0  0  0  0  0  0  0  0  0
  153.5272  139.9691  158.3814 O   0  0  0  0  0  0  0  0  0  0  0  0
  152.1066  141.8663  158.9264 C   0  0  1  0  0  0  0  0  0  0  0  0
  153.0226  142.6975  159.8258 C   0  0  0  0  0  0  0  0  0  0  0  0
  152.1199  143.7275  160.5558 C   0  0  0  0  0  0  0  0  0  0  0  0
  151.1840  144.5343  159.6079 C   0  0  0  0  0  0  0  0  0  0  0  0
  150.4184  143.6578  158.5812 C   0  0  0  0  0  0  0  0  0  0  0  0
  151.4585  142.7702  157.8962 C   0  0  2  0  0  0  0  0  0  0  0  0
  151.0946  141.7723  156.8069 C   0  0  0  0  0  0  0  0  0  0  0  0
  150.2515  141.9876  155.9366 O   0  0  0  0  0  0  0  0  0  0  0  0
  150.1398  136.6260  156.0855 N   0  0  0  0  0  0  0  0  0  0  0  0
  149.3929  135.6007  155.3662 C   0  0  0  0  0  0  0  0  0  0  0  0
  150.3188  134.4899  154.8418 C   0  0  0  0  0  0  0  0  0  0  0  0
  149.5530  133.3891  154.1348 C   0  0  0  0  0  0  0  0  0  0  0  0
  149.6415  132.0362  154.5290 C   0  0  0  0  0  0  0  0  0  0  0  0
  148.8983  131.0645  153.8263 C   0  0  0  0  0  0  0  0  0  0  0  0
  148.0832  131.4654  152.7473 C   0  0  0  0  0  0  0  0  0  0  0  0
  148.0310  132.8304  152.3978 C   0  0  0  0  0  0  0  0  0  0  0  0
  148.7576  133.7311  153.0952 N   0  3  0  0  0  0  0  0  0  0  0  0
  151.3387  138.2974  157.5001 H   0  0  0  0  0  0  0  0  0  0  0  0
  152.9129  137.8995  156.8472 H   0  0  0  0  0  0  0  0  0  0  0  0
  152.9138  139.7366  155.3539 H   0  0  0  0  0  0  0  0  0  0  0  0
  151.1820  139.7401  155.1853 H   0  0  0  0  0  0  0  0  0  0  0  0
  151.3416  141.4083  159.5577 H   0  0  0  0  0  0  0  0  0  0  0  0
  153.5369  142.0632  160.5484 H   0  0  0  0  0  0  0  0  0  0  0  0
  153.7898  143.2037  159.2386 H   0  0  0  0  0  0  0  0  0  0  0  0
  151.5014  143.1959  161.2801 H   0  0  0  0  0  0  0  0  0  0  0  0
  152.7371  144.4132  161.1369 H   0  0  0  0  0  0  0  0  0  0  0  0
  150.4752  145.1173  160.1963 H   0  0  0  0  0  0  0  0  0  0  0  0
  151.7881  145.2608  159.0631 H   0  0  0  0  0  0  0  0  0  0  0  0
  149.6591  143.0537  159.0794 H   0  0  0  0  0  0  0  0  0  0  0  0
  149.9035  144.2860  157.8537 H   0  0  0  0  0  0  0  0  0  0  0  0
  152.2100  143.4219  157.4442 H   0  0  0  0  0  0  0  0  0  0  0  0
  149.7576  136.9410  156.9658 H   0  0  0  0  0  0  0  0  0  0  0  0
  148.6521  135.1776  156.0453 H   0  0  0  0  0  0  0  0  0  0  0  0
  148.8364  136.0573  154.5459 H   0  0  0  0  0  0  0  0  0  0  0  0
  151.0516  134.9021  154.1466 H   0  0  0  0  0  0  0  0  0  0  0  0
  150.8883  134.0584  155.6662 H   0  0  0  0  0  0  0  0  0  0  0  0
  150.2693  131.7443  155.3585 H   0  0  0  0  0  0  0  0  0  0  0  0
  148.9531  130.0241  154.1117 H   0  0  0  0  0  0  0  0  0  0  0  0
  147.5064  130.7367  152.1965 H   0  0  0  0  0  0  0  0  0  0  0  0
  147.4353  133.2259  151.5879 H   0  0  0  0  0  0  0  0  0  0  0  0
  148.7049  134.7139  152.8255 H   0  0  0  0  0  0  0  0  0  0  0  0
  1  2  2  0  0  0  0
  2  3  1  0  0  0  0
  2 16  1  0  0  0  0
  3  4  1  0  0  0  0
  3 25  1  0  0  0  0
  3 26  1  0  0  0  0
  4  5  1  0  0  0  0
  4 27  1  0  0  0  0
  4 28  1  0  0  0  0
  5 14  1  0  0  0  0
  5  6  1  0  0  0  0
  6  7  2  0  0  0  0
  6  8  1  0  0  0  0
  8 13  1  0  0  0  0
  8  9  1  0  0  0  0
  8 29  1  0  0  0  0
  9 10  1  0  0  0  0
  9 30  1  0  0  0  0
  9 31  1  0  0  0  0
 10 11  1  0  0  0  0
 10 32  1  0  0  0  0
 10 33  1  0  0  0  0
 11 12  1  0  0  0  0
 11 34  1  0  0  0  0
 11 35  1  0  0  0  0
 12 13  1  0  0  0  0
 12 36  1  0  0  0  0
 12 37  1  0  0  0  0
 13 14  1  0  0  0  0
 13 38  1  0  0  0  0
 14 15  2  0  0  0  0
 16 17  1  0  0  0  0
 16 39  1  0  0  0  0
 17 18  1  0  0  0  0
 17 40  1  0  0  0  0
 17 41  1  0  0  0  0
 18 19  1  0  0  0  0
 18 42  1  0  0  0  0
 18 43  1  0  0  0  0
 19 24  1  0  0  0  0
 19 20  2  0  0  0  0
 20 21  1  0  0  0  0
 20 44  1  0  0  0  0
 21 22  2  0  0  0  0
 21 45  1  0  0  0  0
 22 23  1  0  0  0  0
 22 46  1  0  0  0  0
 23 24  2  0  0  0  0
 23 47  1  0  0  0  0
 24 48  1  0  0  0  0
M  CHG  1  24   1
M  END
> <s_m_source_file>
AV-unprocessed.smi

> <i_m_source_file_index>
2159

> <i_lp_mmshare_version>
43012

> <i_f3d_flags>
0

> <s_epik_input>
bjFbY0hdW2NIXVtjSF1bY0hdYzFbQ0gyXVtDSDJdW05IXUMoPU8pW0NIMl1bQ0gyXU4oQzI9TylDKD1PKVtDQEhdKFtDQEBIXTIzKVtDSDJdW0NIMl1bQ0gyXVtDSDJdMw==

> <s_epik_cmdline>
J2VwaWtfcHl0aG9uJywgJy1waCcsICc3LjAnLCAnLXRuJywgJzgnLCAnLW1hJywgJzIwMCcsICctbWV0YWxfYmluZGluZycsICctaW1hZScsICc8aW5maWxlLm1hZT4nLCAnLW9tYWUnLCAnPG91dGZpbGUubWFlPic=

> <r_lp_tautomer_probability>
1

> <r_epik_Ionization_Penalty>
1.85146

> <r_epik_Ionization_Penalty_Charging>
1.85146

> <r_epik_Ionization_Penalty_Neutral>
2.95922e-08

> <r_epik_State_Penalty>
1.96899

> <r_epik_Charging_Adjusted_Penalty>
3.82044

> <i_epik_Tot_Q>
1

> <i_epik_Tot_abs_Q>
1

> <r_epik_Metal_State_Penalty>
1.99467

> <b_epik_Metal_Only>
0

> <s_lp_Force_Field>
OPLS_2005

> <r_lp_Energy>
36.2537

> <b_lp_Chiralities_Consistent>
1

> <s_lp_Variant>
AV-unprocessed.smi:2159-4

> <Gold.Version>
5.8.1

> <Gold.Id.Protein>
6NUR|6NUR_protein|mol2

> <Gold.PLP.Fitness>
55.0129

> <Gold.PLP.PLP>
-43.8332

> <Gold.PLP.part.hbond>
-3.0000

> <Gold.PLP.part.metal>
0.0000

> <Gold.PLP.part.buried>
-3.9983

> <Gold.PLP.part.nonpolar>
-36.6319

> <Gold.PLP.part.repulsive>
0.9823

> <Gold.PLP.ligand.clash>
0.0000

> <Gold.PLP.ligand.torsion>
0.4366

> <Gold.PLP.Chemscore.Hbond>
4.0000

> <Gold.PLP.Chemscore.CHOScore>
0.0000

> <Gold.PLP.Chemscore.Metal>
0.0000

> <Gold.Chemscore.Hbonds>
donor molecule, donor type, donor heavy atom, donor atom, acceptor molecule, acceptor atom, score
      L1  H    24    48       P1  7948  1.60
      P1  H  7997  8009       L1     7  1.00
      P1  H 10752 10763       L1     1  1.00

> <Gold.PLP.Chemscore.Internal.Correction>
0.0530

> <Gold.Rescore>
     Score         DG    S(hbond)    S(metal)    S(lipo)     H(rot)  DE(clash)    DE(int)     intcor
     19.20     -20.88       2.70        0.00     100.52       2.10       0.03       1.65       ----

> <Gold.Chemscore.Fitness>
19.1987

> <Gold.Chemscore.DG>
-20.8789

> <Gold.Chemscore.ZeroCoef>
-5.4800

> <Gold.Chemscore.Hbond>
2.6955

> <Gold.Chemscore.Metal>
0.0000

> <Gold.Chemscore.Lipo>
100.5242

> <Gold.Chemscore.Internal_Hbond>
0.0000

> <Gold.Chemscore.DEClash>
0.0341

> <Gold.Chemscore.DEInternal>
1.6461

> <Gold.Chemscore.Rot>
2.0959

> <Gold.Chemscore.Internal.Correction>
   9.000000E+99

> <Gold.Chemscore.Hbonds>
donor molecule, donor type, donor heavy atom, donor atom, acceptor molecule, acceptor atom, score
      L1  H    24    48       P1  7948  0.12
      P1  H  7997  8009       L1     7  0.66
      P1  H 10752 10763       L1     1  0.98

> <Gold.Chemscore.Hbond.Weighted>
-9.0030

> <Gold.Chemscore.Metal.Weighted>
-0.0000

> <Gold.Chemscore.Lipo.Weighted>
-11.7613

> <Gold.Chemscore.Internal_Hbond.Weighted>
0.0000

> <Gold.Chemscore.DEClash.Weighted>
0.0341

> <Gold.Chemscore.DEInternal.Weighted>
1.6461

> <Gold.Chemscore.Rot.Weighted>
5.3655

> <Gold.Chemscore.Internal.Correction.Weighted>
   9.000000E+99

> <Gold.Protein.RotatedTorsions>
[ 6907 6896 6895 6894 ] final -141.77 input  -60.11 | X-H torsion
[ 7974 7965 7964 7962 ] final   50.85 input  175.53 | X-H torsion
[ 8008 7997 7996 7995 ] final  138.31 input   59.86 | X-H torsion
[ 10167 10162 10161 10158 ] final  139.12 input  -65.29 | X-H torsion
[ 10718 10713 10712 10709 ] final   10.47 input   66.30 | X-H torsion
[ 10763 10752 10751 10750 ] final   52.64 input  -60.55 | X-H torsion
[ 11005 11000 10999 10996 ] final   34.41 input  -57.11 | X-H torsion

> <Gold.Protein.ActiveResidues>
 VAL166  LYS551  ARG553  GLY616  TRP617  ASP618  TYR619  PRO620  LYS621  CYS622 
 ASP623  PHE694  ASN695  SER759  ASP760  ASP761  ALA762  ILE779  LEU786  VAL792 
 PHE793  MET794  SER795  GLU796  ALA797  LYS798  CYS799  TRP800  GLU811  SER814 

> <Gold.Protein.RotatedAtoms>
  151.0782  133.5411  159.2622 H   0  0  0  0  0  0  0  0  0  0  0  0  # atno 6907 bound_to 6896
  151.2324  135.0558  159.9003 H   0  0  0  0  0  0  0  0  0  0  0  0  # atno 6908 bound_to 6896
  152.5420  134.0569  159.8188 H   0  0  0  0  0  0  0  0  0  0  0  0  # atno 6909 bound_to 6896
  145.9971  139.4400  143.0037 H   0  0  0  0  0  0  0  0  0  0  0  0  # atno 7974 bound_to 7965
  156.2998  140.2397  156.4052 H   0  0  0  0  0  0  0  0  0  0  0  0  # atno 8008 bound_to 7997
  154.8491  140.0425  157.1612 H   0  0  0  0  0  0  0  0  0  0  0  0  # atno 8009 bound_to 7997
  154.9019  140.2978  155.5317 H   0  0  0  0  0  0  0  0  0  0  0  0  # atno 8010 bound_to 7997
  139.5089  144.6314  151.5809 H   0  0  0  0  0  0  0  0  0  0  0  0  # atno 10167 bound_to 10162
  156.9815  130.6007  149.5677 H   0  0  0  0  0  0  0  0  0  0  0  0  # atno 10718 bound_to 10713
  152.9790  135.5805  154.4611 H   0  0  0  0  0  0  0  0  0  0  0  0  # atno 10763 bound_to 10752
  154.4187  135.2771  155.1991 H   0  0  0  0  0  0  0  0  0  0  0  0  # atno 10764 bound_to 10752
  154.3750  135.6159  153.5814 H   0  0  0  0  0  0  0  0  0  0  0  0  # atno 10765 bound_to 10752
  140.2532  134.3279  155.7883 H   0  0  0  0  0  0  0  0  0  0  0  0  # atno 11005 bound_to 11000
  145.7543  140.9960  143.1234 LP  0  0  0  0  0  0  0  0  0  0  0  0  # atno 17320 bound_to 7965
  144.6907  139.9252  143.7469 LP  0  0  0  0  0  0  0  0  0  0  0  0  # atno 17321 bound_to 7965
  140.6047  143.9545  150.6410 LP  0  0  0  0  0  0  0  0  0  0  0  0  # atno 17342 bound_to 10162
  140.2768  143.3417  152.1187 LP  0  0  0  0  0  0  0  0  0  0  0  0  # atno 17343 bound_to 10162
  156.0243  130.5337  150.8362 LP  0  0  0  0  0  0  0  0  0  0  0  0  # atno 17370 bound_to 10713
  157.5523  131.0944  150.9678 LP  0  0  0  0  0  0  0  0  0  0  0  0  # atno 17371 bound_to 10713
  141.2199  133.7365  156.9070 LP  0  0  0  0  0  0  0  0  0  0  0  0  # atno 17394 bound_to 11000
  140.1537  134.9212  157.2626 LP  0  0  0  0  0  0  0  0  0  0  0  0  # atno 17395 bound_to 11000

$$$$
