AV-unprocessed.smi:2531|AV-procd|sdf|9966|dock8
  -GOLD-   2272014 13D 1   1.00000     0.00000
 Structure written by MMmdl.
 45 47  0  0  0  0  0  0  0  0  2 V2000
  150.0922  142.0420  158.7639 O   0  0  0  0  0  0  0  0  0  0  0  0
  151.2637  141.6609  158.7536 C   0  0  0  0  0  0  0  0  0  0  0  0
  152.4125  142.6436  159.0619 C   0  0  0  0  0  0  0  0  0  0  0  0
  152.3880  143.1459  160.5235 C   0  0  0  0  0  0  0  0  0  0  0  0
  151.9731  144.6253  160.4899 C   0  0  0  0  0  0  0  0  0  0  0  0
  151.5142  144.9058  159.0591 C   0  0  0  0  0  0  0  0  0  0  0  0
  152.3085  143.9176  158.2069 C   0  0  0  0  0  0  0  0  0  0  0  0
  151.6019  140.3579  158.3770 N   0  0  0  0  0  0  0  0  0  0  0  0
  150.7160  139.5742  157.5286 C   0  0  0  0  0  0  0  0  0  0  0  0
  151.9864  138.8782  157.0291 C   0  0  0  0  0  0  0  0  0  0  0  0
  152.0211  138.6879  155.1897 S   0  0  0  0  0  0  0  0  0  0  0  0
  151.6319  137.2917  154.9333 O   0  0  0  0  0  0  0  0  0  0  0  0
  151.1465  139.7310  154.6291 O   0  0  0  0  0  0  0  0  0  0  0  0
  153.5907  138.9749  154.8951 N   0  5  0  0  0  0  0  0  0  0  0  0
  154.3332  138.0871  154.0125 C   0  0  0  0  0  0  0  0  0  0  0  0
  155.7514  138.6414  153.7323 C   0  0  0  0  0  0  0  0  0  0  0  0
  156.7650  137.6303  153.2028 C   0  0  0  0  0  0  0  0  0  0  0  0
  157.8559  137.2223  154.0039 C   0  0  0  0  0  0  0  0  0  0  0  0
  158.7630  136.2817  153.4806 C   0  0  0  0  0  0  0  0  0  0  0  0
  158.5575  135.7942  152.1760 C   0  0  0  0  0  0  0  0  0  0  0  0
  157.4490  136.2722  151.4497 C   0  0  0  0  0  0  0  0  0  0  0  0
  156.5728  137.1743  151.9409 N   0  0  0  0  0  0  0  0  0  0  0  0
  152.7839  140.0701  157.5763 C   0  0  0  0  0  0  0  0  0  0  0  0
  153.3640  142.1452  158.8729 H   0  0  0  0  0  0  0  0  0  0  0  0
  151.7041  142.5705  161.1494 H   0  0  0  0  0  0  0  0  0  0  0  0
  153.3746  143.0458  160.9773 H   0  0  0  0  0  0  0  0  0  0  0  0
  151.1963  144.8551  161.2198 H   0  0  0  0  0  0  0  0  0  0  0  0
  152.8363  145.2494  160.7247 H   0  0  0  0  0  0  0  0  0  0  0  0
  150.4473  144.6992  158.9664 H   0  0  0  0  0  0  0  0  0  0  0  0
  151.6780  145.9418  158.7614 H   0  0  0  0  0  0  0  0  0  0  0  0
  153.3079  144.3119  158.0188 H   0  0  0  0  0  0  0  0  0  0  0  0
  151.8395  143.7532  157.2356 H   0  0  0  0  0  0  0  0  0  0  0  0
  150.0313  138.9278  158.0777 H   0  0  0  0  0  0  0  0  0  0  0  0
  150.2122  140.1652  156.7607 H   0  0  0  0  0  0  0  0  0  0  0  0
  152.1797  137.9323  157.5373 H   0  0  0  0  0  0  0  0  0  0  0  0
  154.4099  137.0726  154.4053 H   0  0  0  0  0  0  0  0  0  0  0  0
  153.8166  137.9854  153.0579 H   0  0  0  0  0  0  0  0  0  0  0  0
  155.6740  139.4506  153.0054 H   0  0  0  0  0  0  0  0  0  0  0  0
  156.1509  139.1010  154.6374 H   0  0  0  0  0  0  0  0  0  0  0  0
  157.9823  137.6078  155.0049 H   0  0  0  0  0  0  0  0  0  0  0  0
  159.6000  135.9391  154.0704 H   0  0  0  0  0  0  0  0  0  0  0  0
  159.2318  135.0708  151.7428 H   0  0  0  0  0  0  0  0  0  0  0  0
  157.2624  135.9221  150.4452 H   0  0  0  0  0  0  0  0  0  0  0  0
  153.0100  140.8428  156.8411 H   0  0  0  0  0  0  0  0  0  0  0  0
  153.6575  139.7900  158.1652 H   0  0  0  0  0  0  0  0  0  0  0  0
  1  2  2  0  0  0  0
  2  3  1  0  0  0  0
  2  8  1  0  0  0  0
  3  7  1  0  0  0  0
  3  4  1  0  0  0  0
  3 24  1  0  0  0  0
  4  5  1  0  0  0  0
  4 25  1  0  0  0  0
  4 26  1  0  0  0  0
  5  6  1  0  0  0  0
  5 27  1  0  0  0  0
  5 28  1  0  0  0  0
  6  7  1  0  0  0  0
  6 29  1  0  0  0  0
  6 30  1  0  0  0  0
  7 31  1  0  0  0  0
  7 32  1  0  0  0  0
  8 23  1  0  0  0  0
  8  9  1  0  0  0  0
  9 10  1  0  0  0  0
  9 33  1  0  0  0  0
  9 34  1  0  0  0  0
 10 11  1  0  0  0  0
 10 23  1  0  0  0  0
 10 35  1  0  0  0  0
 11 12  2  0  0  0  0
 11 13  2  0  0  0  0
 11 14  1  0  0  0  0
 14 15  1  0  0  0  0
 15 16  1  0  0  0  0
 15 36  1  0  0  0  0
 15 37  1  0  0  0  0
 16 17  1  0  0  0  0
 16 38  1  0  0  0  0
 16 39  1  0  0  0  0
 17 22  1  0  0  0  0
 17 18  2  0  0  0  0
 18 19  1  0  0  0  0
 18 40  1  0  0  0  0
 19 20  2  0  0  0  0
 19 41  1  0  0  0  0
 20 21  1  0  0  0  0
 20 42  1  0  0  0  0
 21 22  2  0  0  0  0
 21 43  1  0  0  0  0
 23 44  1  0  0  0  0
 23 45  1  0  0  0  0
M  CHG  1  14  -1
M  END
> <s_m_source_file>
AV-unprocessed.smi

> <i_m_source_file_index>
2531

> <i_lp_mmshare_version>
43012

> <i_f3d_flags>
0

> <s_epik_input>
W0NIMl0xW0NIMl1bQ0gyXVtDSDJdW0NIXTFDKD1PKU4yW0NIMl1bQ0hdKFtDSDJdMilTKD1PKSg9TylbTkhdW0NIMl1bQ0gyXWMzW2NIXVtjSF1bY0hdW2NIXW4z

> <s_epik_cmdline>
J2VwaWtfcHl0aG9uJywgJy1waCcsICc3LjAnLCAnLXRuJywgJzgnLCAnLW1hJywgJzIwMCcsICctbWV0YWxfYmluZGluZycsICctaW1hZScsICc8aW5maWxlLm1hZT4nLCAnLW9tYWUnLCAnPG91dGZpbGUubWFlPic=

> <r_epik_Ionization_Penalty>
5.87379

> <r_epik_Ionization_Penalty_Charging>
5.8024

> <r_epik_Ionization_Penalty_Neutral>
0.0713848

> <r_epik_State_Penalty>
5.81862

> <r_epik_Charging_Adjusted_Penalty>
11.621

> <i_epik_Tot_Q>
-1

> <i_epik_Tot_abs_Q>
1

> <r_epik_Metal_State_Penalty>
1.80653

> <b_epik_Metal_Only>
1

> <s_lp_Force_Field>
OPLS_2005

> <r_lp_Energy>
33.3625

> <b_lp_Chiralities_Consistent>
1

> <s_lp_Variant>
AV-unprocessed.smi:2531-3

> <Gold.Version>
5.8.1

> <Gold.Id.Protein>
6NUR|6NUR_protein|mol2

> <Gold.PLP.Fitness>
58.6083

> <Gold.PLP.PLP>
-46.0530

> <Gold.PLP.part.hbond>
-3.6694

> <Gold.PLP.part.metal>
0.0000

> <Gold.PLP.part.buried>
-0.8834

> <Gold.PLP.part.nonpolar>
-42.8208

> <Gold.PLP.part.repulsive>
0.3627

> <Gold.PLP.ligand.clash>
0.0000

> <Gold.PLP.ligand.torsion>
2.0305

> <Gold.PLP.Chemscore.Hbond>
3.8547

> <Gold.PLP.Chemscore.CHOScore>
0.8401

> <Gold.PLP.Chemscore.Metal>
0.0000

> <Gold.Chemscore.Hbonds>
donor molecule, donor type, donor heavy atom, donor atom, acceptor molecule, acceptor atom, score
      P1  H  7989  7998       L1    13  1.00
      P1  H  7997  8010       L1    14  2.00
      P1  H 10752 10763       L1    12  0.68
      L1  C    21    43       P1 10674  0.76

> <Gold.PLP.Chemscore.Internal.Correction>
2.5317

> <Gold.Rescore>
     Score         DG    S(hbond)    S(metal)    S(lipo)     H(rot)  DE(clash)    DE(int)     intcor
     23.16     -27.65       2.81        0.00     144.54       1.61       2.53       1.96       ----

> <Gold.Chemscore.Fitness>
23.1573

> <Gold.Chemscore.DG>
-27.6450

> <Gold.Chemscore.ZeroCoef>
-5.4800

> <Gold.Chemscore.Hbond>
2.8078

> <Gold.Chemscore.Metal>
0.0000

> <Gold.Chemscore.Lipo>
144.5398

> <Gold.Chemscore.Internal_Hbond>
0.0000

> <Gold.Chemscore.DEClash>
2.5257

> <Gold.Chemscore.DEInternal>
1.9620

> <Gold.Chemscore.Rot>
1.6110

> <Gold.Chemscore.Internal.Correction>
   9.000000E+99

> <Gold.Chemscore.Hbonds>
donor molecule, donor type, donor heavy atom, donor atom, acceptor molecule, acceptor atom, score
      P1  H  7989  7998       L1    13  0.99
      P1  H  7997  8010       L1    14  0.89
      P1  H 10752 10763       L1    12  0.64

> <Gold.Chemscore.Hbond.Weighted>
-9.3782

> <Gold.Chemscore.Metal.Weighted>
-0.0000

> <Gold.Chemscore.Lipo.Weighted>
-16.9112

> <Gold.Chemscore.Internal_Hbond.Weighted>
0.0000

> <Gold.Chemscore.DEClash.Weighted>
2.5257

> <Gold.Chemscore.DEInternal.Weighted>
1.9620

> <Gold.Chemscore.Rot.Weighted>
4.1243

> <Gold.Chemscore.Internal.Correction.Weighted>
   9.000000E+99

> <Gold.Protein.RotatedTorsions>
[ 6907 6896 6895 6894 ] final  112.15 input  -60.11 | X-H torsion
[ 7974 7965 7964 7962 ] final   57.93 input  175.53 | X-H torsion
[ 8008 7997 7996 7995 ] final  112.58 input   59.86 | X-H torsion
[ 10167 10162 10161 10158 ] final   84.20 input  -65.29 | X-H torsion
[ 10718 10713 10712 10709 ] final   74.96 input   66.30 | X-H torsion
[ 10763 10752 10751 10750 ] final   57.29 input  -60.55 | X-H torsion
[ 11005 11000 10999 10996 ] final  -40.45 input  -57.11 | X-H torsion

> <Gold.Protein.ActiveResidues>
 VAL166  LYS551  ARG553  GLY616  TRP617  ASP618  TYR619  PRO620  LYS621  CYS622 
 ASP623  PHE694  ASN695  SER759  ASP760  ASP761  ALA762  ILE779  LEU786  VAL792 
 PHE793  MET794  SER795  GLU796  ALA797  LYS798  CYS799  TRP800  GLU811  SER814 

> <Gold.Protein.RotatedAtoms>
  152.4932  133.8557  159.7224 H   0  0  0  0  0  0  0  0  0  0  0  0  # atno 6907 bound_to 6896
  150.9082  133.7022  159.2868 H   0  0  0  0  0  0  0  0  0  0  0  0  # atno 6908 bound_to 6896
  151.4440  135.1027  159.9731 H   0  0  0  0  0  0  0  0  0  0  0  0  # atno 6909 bound_to 6896
  145.9237  139.3750  143.0463 H   0  0  0  0  0  0  0  0  0  0  0  0  # atno 7974 bound_to 7965
  156.2202  140.2996  155.9934 H   0  0  0  0  0  0  0  0  0  0  0  0  # atno 8008 bound_to 7997
  155.2502  140.0425  157.3003 H   0  0  0  0  0  0  0  0  0  0  0  0  # atno 8009 bound_to 7997
  154.5828  140.2380  155.8037 H   0  0  0  0  0  0  0  0  0  0  0  0  # atno 8010 bound_to 7997
  139.9105  144.6274  150.8542 H   0  0  0  0  0  0  0  0  0  0  0  0  # atno 10167 bound_to 10162
  157.6614  130.9703  150.1285 H   0  0  0  0  0  0  0  0  0  0  0  0  # atno 10718 bound_to 10713
  152.9847  135.5647  154.5366 H   0  0  0  0  0  0  0  0  0  0  0  0  # atno 10763 bound_to 10752
  154.4828  135.2789  155.1559 H   0  0  0  0  0  0  0  0  0  0  0  0  # atno 10764 bound_to 10752
  154.3061  135.6298  153.5498 H   0  0  0  0  0  0  0  0  0  0  0  0  # atno 10765 bound_to 10752
  141.0176  133.6878  156.2323 H   0  0  0  0  0  0  0  0  0  0  0  0  # atno 11005 bound_to 11000
  145.8516  140.9525  143.0746 LP  0  0  0  0  0  0  0  0  0  0  0  0  # atno 17320 bound_to 7965
  144.6756  140.0414  143.7481 LP  0  0  0  0  0  0  0  0  0  0  0  0  # atno 17321 bound_to 7965
  140.7686  143.3369  151.2290 LP  0  0  0  0  0  0  0  0  0  0  0  0  # atno 17342 bound_to 10162
  139.6946  143.9634  152.2876 LP  0  0  0  0  0  0  0  0  0  0  0  0  # atno 17343 bound_to 10162
  156.2138  130.3668  149.8638 LP  0  0  0  0  0  0  0  0  0  0  0  0  # atno 17370 bound_to 10713
  156.6510  130.8743  151.3531 LP  0  0  0  0  0  0  0  0  0  0  0  0  # atno 17371 bound_to 10713
  140.6629  134.4949  157.5584 LP  0  0  0  0  0  0  0  0  0  0  0  0  # atno 17394 bound_to 11000
  139.9126  134.8313  156.1475 LP  0  0  0  0  0  0  0  0  0  0  0  0  # atno 17395 bound_to 11000

$$$$
