AV-unprocessed.smi:203|AV-procd|sdf|1594|dock7
  -GOLD-   2262019493D 1   1.00000     0.00000
 Structure written by MMmdl.
 57 61  0  0  0  0  0  0  0  0  1 V2000
  150.1041  130.1150  162.0589 O   0  0  0  0  0  0  0  0  0  0  0  0
  149.5354  130.8585  161.2630 C   0  0  0  0  0  0  0  0  0  0  0  0
  148.1394  131.4151  161.4845 C   0  0  0  0  0  0  0  0  0  0  0  0
  147.9833  132.4607  160.3612 C   0  0  1  0  0  0  0  0  0  0  0  0
  147.9666  133.9430  160.8535 C   0  0  2  0  0  0  0  0  0  0  0  0
  147.2404  134.1163  162.2141 C   0  0  0  0  0  0  0  0  0  0  0  0
  147.2416  135.5790  162.6775 C   0  0  0  0  0  0  0  0  0  0  0  0
  146.6254  136.4698  161.5936 C   0  0  0  0  0  0  0  0  0  0  0  0
  147.3672  136.2817  160.2636 C   0  0  0  0  0  0  0  0  0  0  0  0
  147.3960  134.8750  159.8638 N   0  0  0  0  0  0  0  0  0  0  0  0
  147.8463  134.7565  158.5947 C   0  0  0  0  0  0  0  0  0  0  0  0
  149.1081  135.1830  158.3439 N   0  0  0  0  0  0  0  0  0  0  0  0
  149.6054  135.1033  157.1059 C   0  0  0  0  0  0  0  0  0  0  0  0
  149.0219  134.6367  155.9995 N   0  0  0  0  0  0  0  0  0  0  0  0
  147.7552  134.1989  156.2532 C   0  0  0  0  0  0  0  0  0  0  0  0
  147.0932  134.2195  157.5126 C   0  0  0  0  0  0  0  0  0  0  0  0
  145.8134  133.6926  157.3849 N   0  0  0  0  0  0  0  0  0  0  0  0
  145.7224  133.3822  156.1204 C   0  0  0  0  0  0  0  0  0  0  0  0
  146.8413  133.6565  155.3674 N   0  0  0  0  0  0  0  0  0  0  0  0
  147.0052  133.4186  153.9437 C   0  0  0  0  0  0  0  0  0  0  0  0
  145.8485  134.0134  153.1123 C   0  0  1  0  0  0  0  0  0  0  0  0
  146.3811  135.0255  152.2794 O   0  0  0  0  0  0  0  0  0  0  0  0
  145.1538  132.9766  152.2063 C   0  0  1  0  0  0  0  0  0  0  0  0
  144.0379  133.5383  151.3222 C   0  0  0  0  0  0  0  0  0  0  0  0
  143.9722  132.5606  150.1608 C   0  0  0  0  0  0  0  0  0  0  0  0
  145.3145  131.8285  150.2219 C   0  0  0  0  0  0  0  0  0  0  0  0
  146.0625  132.5085  151.2202 O   0  0  0  0  0  0  0  0  0  0  0  0
  149.1336  132.1588  159.3767 C   0  0  0  0  0  0  0  0  0  0  0  0
  150.0344  131.2869  160.1053 N   0  0  0  0  0  0  0  0  0  0  0  0
  147.4120  130.6103  161.3742 H   0  0  0  0  0  0  0  0  0  0  0  0
  148.0296  131.8336  162.4853 H   0  0  0  0  0  0  0  0  0  0  0  0
  147.0573  132.2550  159.8236 H   0  0  0  0  0  0  0  0  0  0  0  0
  149.0034  134.2436  161.0081 H   0  0  0  0  0  0  0  0  0  0  0  0
  146.2075  133.7763  162.1378 H   0  0  0  0  0  0  0  0  0  0  0  0
  147.7058  133.5034  162.9852 H   0  0  0  0  0  0  0  0  0  0  0  0
  146.6840  135.6791  163.6091 H   0  0  0  0  0  0  0  0  0  0  0  0
  148.2628  135.9005  162.8857 H   0  0  0  0  0  0  0  0  0  0  0  0
  145.5713  136.2199  161.4650 H   0  0  0  0  0  0  0  0  0  0  0  0
  146.6635  137.5156  161.8995 H   0  0  0  0  0  0  0  0  0  0  0  0
  146.8825  136.8798  159.4904 H   0  0  0  0  0  0  0  0  0  0  0  0
  148.3889  136.6525  160.3580 H   0  0  0  0  0  0  0  0  0  0  0  0
  150.6149  135.4673  156.9842 H   0  0  0  0  0  0  0  0  0  0  0  0
  144.8294  132.9454  155.6970 H   0  0  0  0  0  0  0  0  0  0  0  0
  147.9612  133.8349  153.6229 H   0  0  0  0  0  0  0  0  0  0  0  0
  147.0713  132.3405  153.7959 H   0  0  0  0  0  0  0  0  0  0  0  0
  145.1160  134.4612  153.7852 H   0  0  0  0  0  0  0  0  0  0  0  0
  147.1892  135.3335  152.6605 H   0  0  0  0  0  0  0  0  0  0  0  0
  144.7728  132.1357  152.7896 H   0  0  0  0  0  0  0  0  0  0  0  0
  143.0873  133.6314  151.8481 H   0  0  0  0  0  0  0  0  0  0  0  0
  144.3158  134.5253  150.9494 H   0  0  0  0  0  0  0  0  0  0  0  0
  143.1484  131.8561  150.2807 H   0  0  0  0  0  0  0  0  0  0  0  0
  143.8344  133.0830  149.2136 H   0  0  0  0  0  0  0  0  0  0  0  0
  145.1730  130.7892  150.5222 H   0  0  0  0  0  0  0  0  0  0  0  0
  145.8401  131.8391  149.2668 H   0  0  0  0  0  0  0  0  0  0  0  0
  148.7636  131.6240  158.5010 H   0  0  0  0  0  0  0  0  0  0  0  0
  149.6453  133.0534  159.0219 H   0  0  0  0  0  0  0  0  0  0  0  0
  150.9500  131.0394  159.7586 H   0  0  0  0  0  0  0  0  0  0  0  0
  1  2  2  0  0  0  0
  2 29  1  0  0  0  0
  2  3  1  0  0  0  0
  3  4  1  0  0  0  0
  3 30  1  0  0  0  0
  3 31  1  0  0  0  0
  4  5  1  0  0  0  0
  4 28  1  0  0  0  0
  4 32  1  0  0  0  0
  5 10  1  0  0  0  0
  5  6  1  0  0  0  0
  5 33  1  0  0  0  0
  6  7  1  0  0  0  0
  6 34  1  0  0  0  0
  6 35  1  0  0  0  0
  7  8  1  0  0  0  0
  7 36  1  0  0  0  0
  7 37  1  0  0  0  0
  8  9  1  0  0  0  0
  8 38  1  0  0  0  0
  8 39  1  0  0  0  0
  9 10  1  0  0  0  0
  9 40  1  0  0  0  0
  9 41  1  0  0  0  0
 10 11  1  0  0  0  0
 11 16  1  0  0  0  0
 11 12  2  0  0  0  0
 12 13  1  0  0  0  0
 13 14  2  0  0  0  0
 13 42  1  0  0  0  0
 14 15  1  0  0  0  0
 15 19  1  0  0  0  0
 15 16  2  0  0  0  0
 16 17  1  0  0  0  0
 17 18  2  0  0  0  0
 18 19  1  0  0  0  0
 18 43  1  0  0  0  0
 19 20  1  0  0  0  0
 20 21  1  0  0  0  0
 20 44  1  0  0  0  0
 20 45  1  0  0  0  0
 21 22  1  0  0  0  0
 21 23  1  0  0  0  0
 21 46  1  0  0  0  0
 22 47  1  0  0  0  0
 23 27  1  0  0  0  0
 23 24  1  0  0  0  0
 23 48  1  0  0  0  0
 24 25  1  0  0  0  0
 24 49  1  0  0  0  0
 24 50  1  0  0  0  0
 25 26  1  0  0  0  0
 25 51  1  0  0  0  0
 25 52  1  0  0  0  0
 26 27  1  0  0  0  0
 26 53  1  0  0  0  0
 26 54  1  0  0  0  0
 28 29  1  0  0  0  0
 28 55  1  0  0  0  0
 28 56  1  0  0  0  0
 29 57  1  0  0  0  0
M  END
> <s_m_source_file>
AV-unprocessed.smi

> <i_m_source_file_index>
203

> <i_lp_mmshare_version>
43012

> <i_f3d_flags>
0

> <s_epik_input>
Tz1DMVtDSDJdW0NASF0oW0NIMl1bTkhdMSlbQ0BASF0yW0NIMl1bQ0gyXVtDSDJdW0NIMl1OMmMobltjSF1uMyljKGMzNCluW2NIXW40W0NIMl1bQ0BIXShbT0hdKVtDQEBIXTVbQ0gyXVtDSDJdW0NIMl1PNQ==

> <s_epik_cmdline>
J2VwaWtfcHl0aG9uJywgJy1waCcsICc3LjAnLCAnLXRuJywgJzgnLCAnLW1hJywgJzIwMCcsICctbWV0YWxfYmluZGluZycsICctaW1hZScsICc8aW5maWxlLm1hZT4nLCAnLW9tYWUnLCAnPG91dGZpbGUubWFlPic=

> <r_lp_tautomer_probability>
1

> <r_epik_Ionization_Penalty>
0.00175146

> <r_epik_Ionization_Penalty_Charging>
0

> <r_epik_Ionization_Penalty_Neutral>
0.00175146

> <r_epik_State_Penalty>
0.00109045

> <r_epik_Charging_Adjusted_Penalty>
0.00109045

> <i_epik_Tot_Q>
0

> <i_epik_Tot_abs_Q>
0

> <r_epik_Metal_State_Penalty>
-0

> <b_epik_Metal_Only>
0

> <s_lp_Force_Field>
OPLS_2005

> <r_lp_Energy>
57.3178

> <b_lp_Chiralities_Consistent>
1

> <s_lp_Variant>
AV-unprocessed.smi:203-13

> <Gold.Version>
5.8.1

> <Gold.Id.Protein>
6NUR|6NUR_protein|mol2

> <Gold.PLP.Fitness>
42.2265

> <Gold.PLP.PLP>
-37.5012

> <Gold.PLP.part.hbond>
-2.0000

> <Gold.PLP.part.metal>
0.0000

> <Gold.PLP.part.buried>
-6.7736

> <Gold.PLP.part.nonpolar>
-29.5430

> <Gold.PLP.part.repulsive>
0.2325

> <Gold.PLP.ligand.clash>
0.0000

> <Gold.PLP.ligand.torsion>
1.3833

> <Gold.PLP.Chemscore.Hbond>
1.5148

> <Gold.PLP.Chemscore.CHOScore>
0.8924

> <Gold.PLP.Chemscore.Metal>
0.0000

> <Gold.Chemscore.Hbonds>
donor molecule, donor type, donor heavy atom, donor atom, acceptor molecule, acceptor atom, score
      L1  H    22    47       P1  7948  0.52
      P1  H  6896  6908       L1    12  0.80
      L1  C    18    43       P1 10957  0.81

> <Gold.PLP.Chemscore.Internal.Correction>
0.2705

> <Gold.Rescore>
     Score         DG    S(hbond)    S(metal)    S(lipo)     H(rot)  DE(clash)    DE(int)     intcor
     12.09     -13.77       1.50        0.00      87.45       2.72       0.00       1.68       ----

> <Gold.Chemscore.Fitness>
12.0932

> <Gold.Chemscore.DG>
-13.7735

> <Gold.Chemscore.ZeroCoef>
-5.4800

> <Gold.Chemscore.Hbond>
1.5023

> <Gold.Chemscore.Metal>
0.0000

> <Gold.Chemscore.Lipo>
87.4498

> <Gold.Chemscore.Internal_Hbond>
0.0000

> <Gold.Chemscore.DEClash>
0.0004

> <Gold.Chemscore.DEInternal>
1.6799

> <Gold.Chemscore.Rot>
2.7171

> <Gold.Chemscore.Internal.Correction>
   9.000000E+99

> <Gold.Chemscore.Hbonds>
donor molecule, donor type, donor heavy atom, donor atom, acceptor molecule, acceptor atom, score
      L1  H    22    47       P1  7948  0.52
      P1  H  6896  6908       L1    12  0.16

> <Gold.Chemscore.Hbond.Weighted>
-5.0176

> <Gold.Chemscore.Metal.Weighted>
-0.0000

> <Gold.Chemscore.Lipo.Weighted>
-10.2316

> <Gold.Chemscore.Internal_Hbond.Weighted>
0.0000

> <Gold.Chemscore.DEClash.Weighted>
0.0004

> <Gold.Chemscore.DEInternal.Weighted>
1.6799

> <Gold.Chemscore.Rot.Weighted>
6.9557

> <Gold.Chemscore.Internal.Correction.Weighted>
   9.000000E+99

> <Gold.Protein.RotatedTorsions>
[ 6907 6896 6895 6894 ] final  145.35 input  -60.11 | X-H torsion
[ 7974 7965 7964 7962 ] final  159.60 input  175.53 | X-H torsion
[ 8008 7997 7996 7995 ] final   36.80 input   59.86 | X-H torsion
[ 10167 10162 10161 10158 ] final   46.28 input  -65.29 | X-H torsion
[ 10718 10713 10712 10709 ] final  139.78 input   66.30 | X-H torsion
[ 10763 10752 10751 10750 ] final  160.11 input  -60.55 | X-H torsion
[ 11005 11000 10999 10996 ] final  -93.54 input  -57.11 | X-H torsion

> <Gold.Protein.ActiveResidues>
 VAL166  LYS551  ARG553  GLY616  TRP617  ASP618  TYR619  PRO620  LYS621  CYS622 
 ASP623  PHE694  ASN695  SER759  ASP760  ASP761  ALA762  ILE779  LEU786  VAL792 
 PHE793  MET794  SER795  GLU796  ALA797  LYS798  CYS799  TRP800  GLU811  SER814 

> <Gold.Protein.RotatedAtoms>
  152.1819  133.4713  159.4962 H   0  0  0  0  0  0  0  0  0  0  0  0  # atno 6907 bound_to 6896
  150.6936  134.1822  159.4262 H   0  0  0  0  0  0  0  0  0  0  0  0  # atno 6908 bound_to 6896
  151.9734  135.0065  160.0604 H   0  0  0  0  0  0  0  0  0  0  0  0  # atno 6909 bound_to 6896
  144.7781  139.7640  143.6270 H   0  0  0  0  0  0  0  0  0  0  0  0  # atno 7974 bound_to 7965
  155.1933  140.3310  155.4355 H   0  0  0  0  0  0  0  0  0  0  0  0  # atno 8008 bound_to 7997
  156.2434  140.1906  156.6975 H   0  0  0  0  0  0  0  0  0  0  0  0  # atno 8009 bound_to 7997
  154.6191  140.0598  156.9577 H   0  0  0  0  0  0  0  0  0  0  0  0  # atno 8010 bound_to 7997
  140.3155  144.2768  150.6192 H   0  0  0  0  0  0  0  0  0  0  0  0  # atno 10167 bound_to 10162
  157.4106  131.1027  151.0458 H   0  0  0  0  0  0  0  0  0  0  0  0  # atno 10718 bound_to 10713
  154.2423  135.2774  155.2849 H   0  0  0  0  0  0  0  0  0  0  0  0  # atno 10763 bound_to 10752
  154.5535  135.5668  153.6946 H   0  0  0  0  0  0  0  0  0  0  0  0  # atno 10764 bound_to 10752
  152.9997  135.6280  154.2567 H   0  0  0  0  0  0  0  0  0  0  0  0  # atno 10765 bound_to 10752
  141.1494  133.7894  157.0173 H   0  0  0  0  0  0  0  0  0  0  0  0  # atno 11005 bound_to 11000
  146.1974  139.5248  142.9766 LP  0  0  0  0  0  0  0  0  0  0  0  0  # atno 17320 bound_to 7965
  145.6127  141.0337  143.1958 LP  0  0  0  0  0  0  0  0  0  0  0  0  # atno 17321 bound_to 7965
  140.5530  143.2203  151.7895 LP  0  0  0  0  0  0  0  0  0  0  0  0  # atno 17342 bound_to 10162
  139.4885  144.4451  151.9719 LP  0  0  0  0  0  0  0  0  0  0  0  0  # atno 17343 bound_to 10162
  157.1423  130.6148  149.5559 LP  0  0  0  0  0  0  0  0  0  0  0  0  # atno 17370 bound_to 10713
  155.9849  130.4877  150.7008 LP  0  0  0  0  0  0  0  0  0  0  0  0  # atno 17371 bound_to 10713
  140.0838  134.9632  157.1668 LP  0  0  0  0  0  0  0  0  0  0  0  0  # atno 17394 bound_to 11000
  140.3539  134.2568  155.7195 LP  0  0  0  0  0  0  0  0  0  0  0  0  # atno 17395 bound_to 11000

$$$$
