AV-unprocessed.smi:21|AV-procd|sdf|149|dock2
  -GOLD-   2262015363D 1   1.00000     0.00000
 Structure written by MMmdl.
 62 65  0  0  0  0  0  0  0  0  2 V2000
  145.2400  132.0015  149.8966 C   0  0  0  0  0  0  0  0  0  0  0  0
  144.6677  133.0627  150.6440 O   0  0  0  0  0  0  0  0  0  0  0  0
  145.5429  134.1659  150.8261 C   0  0  1  0  0  0  0  0  0  0  0  0
  144.8541  135.3928  151.4148 C   0  0  0  0  0  0  0  0  0  0  0  0
  146.0121  136.1818  152.0390 C   0  0  1  0  0  0  0  0  0  0  0  0
  145.5784  137.1900  153.1323 C   0  0  0  0  0  0  0  0  0  0  0  0
  146.5292  138.2956  153.2877 N   0  0  0  0  0  0  0  0  0  0  0  0
  146.6957  139.2064  152.1612 C   0  0  0  0  0  0  0  0  0  0  0  0
  147.0782  138.5964  154.5030 C   0  0  0  0  0  0  0  0  0  0  0  0
  147.0102  137.6642  155.4917 N   0  0  0  0  0  0  0  0  0  0  0  0
  147.5244  137.8989  156.7012 C   0  0  0  0  0  0  0  0  0  0  0  0
  148.1499  138.9892  157.1406 N   0  0  0  0  0  0  0  0  0  0  0  0
  148.2332  139.9344  156.1629 C   0  0  0  0  0  0  0  0  0  0  0  0
  147.7306  139.8275  154.8319 C   0  0  0  0  0  0  0  0  0  0  0  0
  148.0074  141.0074  154.1460 N   0  0  0  0  0  0  0  0  0  0  0  0
  148.6315  141.7570  155.0115 C   0  0  0  0  0  0  0  0  0  0  0  0
  148.8159  141.1859  156.2480 N   0  0  0  0  0  0  0  0  0  0  0  0
  149.4708  141.7849  157.3979 C   0  0  0  0  0  0  0  0  0  0  0  0
  150.7639  141.0367  157.8137 C   0  0  1  0  0  0  0  0  0  0  0  0
  151.7768  140.9732  156.6467 C   0  0  0  0  0  0  0  0  0  0  0  0
  151.2230  140.3270  155.5193 O   0  0  0  0  0  0  0  0  0  0  0  0
  151.4110  141.5972  159.1105 C   0  0  1  0  0  0  0  0  0  0  0  0
  152.6636  140.8970  159.6121 C   0  0  0  0  0  0  0  0  0  0  0  0
  153.2268  141.9440  160.5632 C   0  0  0  0  0  0  0  0  0  0  0  0
  153.0010  143.1763  159.8923 O   0  0  0  0  0  0  0  0  0  0  0  0
  151.8451  143.0700  159.0629 C   0  0  0  0  0  0  0  0  0  0  0  0
  147.0141  135.1564  152.4554 N   0  3  1  0  0  0  0  0  0  0  0  0
  147.3621  135.0804  153.8941 C   0  0  0  0  0  0  0  0  0  0  0  0
  146.5882  133.8521  151.8948 C   0  0  0  0  0  0  0  0  0  0  0  0
  146.0471  134.4240  149.8928 H   0  0  0  0  0  0  0  0  0  0  0  0
  146.4991  136.7389  151.2373 H   0  0  0  0  0  0  0  0  0  0  0  0
  144.5296  131.1774  149.8313 H   0  0  0  0  0  0  0  0  0  0  0  0
  146.1455  131.6252  150.3745 H   0  0  0  0  0  0  0  0  0  0  0  0
  145.4830  132.3121  148.8801 H   0  0  0  0  0  0  0  0  0  0  0  0
  144.3026  135.9712  150.6730 H   0  0  0  0  0  0  0  0  0  0  0  0
  144.1526  135.0782  152.1885 H   0  0  0  0  0  0  0  0  0  0  0  0
  144.5650  137.5478  152.9527 H   0  0  0  0  0  0  0  0  0  0  0  0
  145.5340  136.6804  154.0951 H   0  0  0  0  0  0  0  0  0  0  0  0
  146.2415  140.1740  152.3763 H   0  0  0  0  0  0  0  0  0  0  0  0
  146.2204  138.8111  151.2632 H   0  0  0  0  0  0  0  0  0  0  0  0
  147.7522  139.3513  151.9338 H   0  0  0  0  0  0  0  0  0  0  0  0
  147.4205  137.0982  157.4186 H   0  0  0  0  0  0  0  0  0  0  0  0
  148.9800  142.7503  154.7683 H   0  0  0  0  0  0  0  0  0  0  0  0
  149.6912  142.8247  157.1562 H   0  0  0  0  0  0  0  0  0  0  0  0
  148.7447  141.8058  158.2091 H   0  0  0  0  0  0  0  0  0  0  0  0
  150.4776  140.0075  158.0367 H   0  0  0  0  0  0  0  0  0  0  0  0
  152.0709  141.9723  156.3270 H   0  0  0  0  0  0  0  0  0  0  0  0
  152.6873  140.4557  156.9498 H   0  0  0  0  0  0  0  0  0  0  0  0
  151.6852  139.5144  155.3804 H   0  0  0  0  0  0  0  0  0  0  0  0
  150.6755  141.5344  159.9138 H   0  0  0  0  0  0  0  0  0  0  0  0
  152.4558  139.9464  160.1041 H   0  0  0  0  0  0  0  0  0  0  0  0
  153.3788  140.7205  158.8096 H   0  0  0  0  0  0  0  0  0  0  0  0
  152.6785  141.9425  161.5064 H   0  0  0  0  0  0  0  0  0  0  0  0
  154.2843  141.7932  160.7809 H   0  0  0  0  0  0  0  0  0  0  0  0
  152.1096  143.4030  158.0607 H   0  0  0  0  0  0  0  0  0  0  0  0
  151.0530  143.7261  159.4251 H   0  0  0  0  0  0  0  0  0  0  0  0
  146.4874  134.8530  154.5047 H   0  0  0  0  0  0  0  0  0  0  0  0
  147.8046  136.0128  154.2445 H   0  0  0  0  0  0  0  0  0  0  0  0
  148.0989  134.2933  154.0588 H   0  0  0  0  0  0  0  0  0  0  0  0
  146.1278  133.2499  152.6805 H   0  0  0  0  0  0  0  0  0  0  0  0
  147.4337  133.2890  151.4996 H   0  0  0  0  0  0  0  0  0  0  0  0
  147.8671  135.4067  151.9755 H   0  0  0  0  0  0  0  0  0  0  0  0
  1  2  1  0  0  0  0
  1 32  1  0  0  0  0
  1 33  1  0  0  0  0
  1 34  1  0  0  0  0
  2  3  1  0  0  0  0
  3 30  1  0  0  0  0
  3 29  1  0  0  0  0
  3  4  1  0  0  0  0
  4  5  1  0  0  0  0
  4 35  1  0  0  0  0
  4 36  1  0  0  0  0
  5 31  1  0  0  0  0
  5  6  1  0  0  0  0
  5 27  1  0  0  0  0
  6  7  1  0  0  0  0
  6 37  1  0  0  0  0
  6 38  1  0  0  0  0
  7  8  1  0  0  0  0
  7  9  1  0  0  0  0
  8 39  1  0  0  0  0
  8 40  1  0  0  0  0
  8 41  1  0  0  0  0
  9 14  1  0  0  0  0
  9 10  2  0  0  0  0
 10 11  1  0  0  0  0
 11 12  2  0  0  0  0
 11 42  1  0  0  0  0
 12 13  1  0  0  0  0
 13 17  1  0  0  0  0
 13 14  2  0  0  0  0
 14 15  1  0  0  0  0
 15 16  2  0  0  0  0
 16 17  1  0  0  0  0
 16 43  1  0  0  0  0
 17 18  1  0  0  0  0
 18 19  1  0  0  0  0
 18 44  1  0  0  0  0
 18 45  1  0  0  0  0
 19 20  1  0  0  0  0
 19 22  1  0  0  0  0
 19 46  1  0  0  0  0
 20 21  1  0  0  0  0
 20 47  1  0  0  0  0
 20 48  1  0  0  0  0
 21 49  1  0  0  0  0
 22 26  1  0  0  0  0
 22 23  1  0  0  0  0
 22 50  1  0  0  0  0
 23 24  1  0  0  0  0
 23 51  1  0  0  0  0
 23 52  1  0  0  0  0
 24 25  1  0  0  0  0
 24 53  1  0  0  0  0
 24 54  1  0  0  0  0
 25 26  1  0  0  0  0
 26 55  1  0  0  0  0
 26 56  1  0  0  0  0
 27 28  1  0  0  0  0
 27 29  1  0  0  0  0
 27 62  1  0  0  0  0
 28 57  1  0  0  0  0
 28 58  1  0  0  0  0
 28 59  1  0  0  0  0
 29 60  1  0  0  0  0
 29 61  1  0  0  0  0
M  CHG  1  27   1
M  END
> <s_m_source_file>
AV-unprocessed.smi

> <i_m_source_file_index>
21

> <i_lp_mmshare_version>
43012

> <i_f3d_flags>
0

> <s_epik_input>
W0NIM11PW0NASF0xW0NIMl1bQ0BIXShOKFtDSDNdKVtDSDJdMSlbQ0gyXU4oW0NIM10pYyhuW2NIXW4yKWMoYzIzKW5bY0hdbjNbQ0gyXVtDQEhdKFtDSDJdW09IXSlbQ0BASF00W0NIMl1bQ0gyXU9bQ0gyXTQ=

> <s_epik_cmdline>
J2VwaWtfcHl0aG9uJywgJy1waCcsICc3LjAnLCAnLXRuJywgJzgnLCAnLW1hJywgJzIwMCcsICctbWV0YWxfYmluZGluZycsICctaW1hZScsICc8aW5maWxlLm1hZT4nLCAnLW9tYWUnLCAnPG91dGZpbGUubWFlPic=

> <r_lp_tautomer_probability>
1

> <r_epik_Ionization_Penalty>
0.0157465

> <r_epik_Ionization_Penalty_Charging>
0.015354

> <r_epik_Ionization_Penalty_Neutral>
0.000392529

> <r_epik_State_Penalty>
0.0120612

> <r_epik_Charging_Adjusted_Penalty>
0.0274152

> <i_epik_Tot_Q>
1

> <i_epik_Tot_abs_Q>
1

> <r_epik_Metal_State_Penalty>
0.0121253

> <b_epik_Metal_Only>
0

> <s_lp_Force_Field>
OPLS_2005

> <r_lp_Energy>
61.5082

> <b_lp_Chiralities_Consistent>
1

> <s_lp_Variant>
AV-unprocessed.smi:21-29

> <Gold.Version>
5.8.1

> <Gold.Id.Protein>
6NUR|6NUR_protein|mol2

> <Gold.PLP.Fitness>
54.6267

> <Gold.PLP.PLP>
-44.1024

> <Gold.PLP.part.hbond>
-2.0000

> <Gold.PLP.part.metal>
0.0000

> <Gold.PLP.part.buried>
-6.0613

> <Gold.PLP.part.nonpolar>
-37.6958

> <Gold.PLP.part.repulsive>
0.6619

> <Gold.PLP.ligand.clash>
0.0000

> <Gold.PLP.ligand.torsion>
0.4978

> <Gold.PLP.Chemscore.Hbond>
2.9200

> <Gold.PLP.Chemscore.CHOScore>
0.7973

> <Gold.PLP.Chemscore.Metal>
0.0000

> <Gold.Chemscore.Hbonds>
donor molecule, donor type, donor heavy atom, donor atom, acceptor molecule, acceptor atom, score
      L1  H    27    62       P1  7948  1.01
      P1  H  7989  7998       L1    21  0.34
      L1  C    16    43       P1  8028  1.00

> <Gold.PLP.Chemscore.Internal.Correction>
0.3679

> <Gold.Rescore>
     Score         DG    S(hbond)    S(metal)    S(lipo)     H(rot)  DE(clash)    DE(int)     intcor
      9.64     -14.71       1.64        0.00      99.28       3.08       0.49       4.57       ----

> <Gold.Chemscore.Fitness>
9.6431

> <Gold.Chemscore.DG>
-14.7056

> <Gold.Chemscore.ZeroCoef>
-5.4800

> <Gold.Chemscore.Hbond>
1.6421

> <Gold.Chemscore.Metal>
0.0000

> <Gold.Chemscore.Lipo>
99.2756

> <Gold.Chemscore.Internal_Hbond>
0.0000

> <Gold.Chemscore.DEClash>
0.4878

> <Gold.Chemscore.DEInternal>
4.5747

> <Gold.Chemscore.Rot>
3.0758

> <Gold.Chemscore.Internal.Correction>
   9.000000E+99

> <Gold.Chemscore.Hbonds>
donor molecule, donor type, donor heavy atom, donor atom, acceptor molecule, acceptor atom, score
      L1  H    27    62       P1  7948  0.46
      P1  H  7989  7998       L1    21  0.01

> <Gold.Chemscore.Hbond.Weighted>
-5.4845

> <Gold.Chemscore.Metal.Weighted>
-0.0000

> <Gold.Chemscore.Lipo.Weighted>
-11.6152

> <Gold.Chemscore.Internal_Hbond.Weighted>
0.0000

> <Gold.Chemscore.DEClash.Weighted>
0.4878

> <Gold.Chemscore.DEInternal.Weighted>
4.5747

> <Gold.Chemscore.Rot.Weighted>
7.8741

> <Gold.Chemscore.Internal.Correction.Weighted>
   9.000000E+99

> <Gold.Protein.RotatedTorsions>
[ 6907 6896 6895 6894 ] final -108.02 input  -60.11 | X-H torsion
[ 7974 7965 7964 7962 ] final  156.21 input  175.53 | X-H torsion
[ 8008 7997 7996 7995 ] final  132.60 input   59.86 | X-H torsion
[ 10167 10162 10161 10158 ] final  -77.24 input  -65.29 | X-H torsion
[ 10718 10713 10712 10709 ] final -121.11 input   66.30 | X-H torsion
[ 10763 10752 10751 10750 ] final  144.45 input  -60.55 | X-H torsion
[ 11005 11000 10999 10996 ] final   55.13 input  -57.11 | X-H torsion

> <Gold.Protein.ActiveResidues>
 VAL166  LYS551  ARG553  GLY616  TRP617  ASP618  TYR619  PRO620  LYS621  CYS622 
 ASP623  PHE694  ASN695  SER759  ASP760  ASP761  ALA762  ILE779  LEU786  VAL792 
 PHE793  MET794  SER795  GLU796  ALA797  LYS798  CYS799  TRP800  GLU811  SER814 

> <Gold.Protein.RotatedAtoms>
  150.7477  133.9740  159.3554 H   0  0  0  0  0  0  0  0  0  0  0  0  # atno 6907 bound_to 6896
  151.7676  135.0792  160.0364 H   0  0  0  0  0  0  0  0  0  0  0  0  # atno 6908 bound_to 6896
  152.3361  133.5976  159.5879 H   0  0  0  0  0  0  0  0  0  0  0  0  # atno 6909 bound_to 6896
  144.7977  139.7173  143.6195 H   0  0  0  0  0  0  0  0  0  0  0  0  # atno 7974 bound_to 7965
  156.2984  140.2542  156.3115 H   0  0  0  0  0  0  0  0  0  0  0  0  # atno 8008 bound_to 7997
  154.9321  140.0398  157.2072 H   0  0  0  0  0  0  0  0  0  0  0  0  # atno 8009 bound_to 7997
  154.8208  140.2859  155.5793 H   0  0  0  0  0  0  0  0  0  0  0  0  # atno 8010 bound_to 7997
  140.4787  143.2407  151.8091 H   0  0  0  0  0  0  0  0  0  0  0  0  # atno 10167 bound_to 10162
  156.1311  130.6396  150.9623 H   0  0  0  0  0  0  0  0  0  0  0  0  # atno 10718 bound_to 10713
  153.9891  135.2934  155.3413 H   0  0  0  0  0  0  0  0  0  0  0  0  # atno 10763 bound_to 10752
  154.7225  135.5103  153.8838 H   0  0  0  0  0  0  0  0  0  0  0  0  # atno 10764 bound_to 10752
  153.0818  135.6681  154.0145 H   0  0  0  0  0  0  0  0  0  0  0  0  # atno 10765 bound_to 10752
  140.0631  134.5574  155.9130 H   0  0  0  0  0  0  0  0  0  0  0  0  # atno 11005 bound_to 11000
  146.2250  139.5705  142.9593 LP  0  0  0  0  0  0  0  0  0  0  0  0  # atno 17320 bound_to 7965
  145.5632  141.0402  143.2215 LP  0  0  0  0  0  0  0  0  0  0  0  0  # atno 17321 bound_to 7965
  139.4830  144.4800  151.9319 LP  0  0  0  0  0  0  0  0  0  0  0  0  # atno 17342 bound_to 10162
  140.3885  144.2646  150.5902 LP  0  0  0  0  0  0  0  0  0  0  0  0  # atno 17343 bound_to 10162
  157.6489  131.0900  150.8094 LP  0  0  0  0  0  0  0  0  0  0  0  0  # atno 17370 bound_to 10713
  156.8178  130.4974  149.5347 LP  0  0  0  0  0  0  0  0  0  0  0  0  # atno 17371 bound_to 10713
  141.1981  133.6600  156.5777 LP  0  0  0  0  0  0  0  0  0  0  0  0  # atno 17394 bound_to 11000
  140.3740  134.7581  157.4617 LP  0  0  0  0  0  0  0  0  0  0  0  0  # atno 17395 bound_to 11000

$$$$
