AV-unprocessed.smi:337|AV-procd|sdf|2372|dock7
  -GOLD-   2262022293D 1   1.00000     0.00000
 Structure written by MMmdl.
 43 44  0  0  0  0  0  0  0  0  1 V2000
  154.2250  134.8411  163.7986 C   0  0  0  0  0  0  0  0  0  0  0  0
  153.6402  135.9558  162.9152 C   0  0  2  0  0  0  0  0  0  0  0  0
  154.0545  135.7064  161.5353 N   0  0  0  0  0  0  0  0  0  0  0  0
  153.2299  135.3663  160.5338 C   0  0  0  0  0  0  0  0  0  0  0  0
  153.8716  135.2263  159.3735 N   0  0  0  0  0  0  0  0  0  0  0  0
  152.0176  135.2006  160.6542 O   0  0  0  0  0  0  0  0  0  0  0  0
  154.1962  137.2985  163.4153 C   0  0  0  0  0  0  0  0  0  0  0  0
  153.9578  137.6911  164.5587 O   0  0  0  0  0  0  0  0  0  0  0  0
  154.9194  138.0044  162.5327 N   0  0  0  0  0  0  0  0  0  0  0  0
  155.5164  139.3093  162.7973 C   0  0  0  0  0  0  0  0  0  0  0  0
  154.8178  140.4708  162.1041 C   0  0  0  0  0  0  0  0  0  0  0  0
  154.4756  141.6561  162.7882 C   0  0  0  0  0  0  0  0  0  0  0  0
  153.8285  142.6892  162.0843 C   0  0  0  0  0  0  0  0  0  0  0  0
  153.5317  142.5105  160.7119 C   0  0  0  0  0  0  0  0  0  0  0  0
  152.8840  143.5335  159.9854 N   0  0  0  0  0  0  0  0  0  0  0  0
  152.5318  144.7284  160.7483 C   0  0  0  0  0  0  0  0  0  0  0  0
  152.1261  145.8698  159.7997 C   0  0  0  0  0  0  0  0  0  0  0  0
  151.0791  145.4340  158.9391 O   0  0  0  0  0  0  0  0  0  0  0  0
  151.4851  144.3397  158.1244 C   0  0  0  0  0  0  0  0  0  0  0  0
  151.8629  143.1439  159.0145 C   0  0  0  0  0  0  0  0  0  0  0  0
  153.8614  141.3683  160.0593 N   0  0  0  0  0  0  0  0  0  0  0  0
  154.4817  140.3811  160.7387 C   0  0  0  0  0  0  0  0  0  0  0  0
  153.9441  134.9753  164.8442 H   0  0  0  0  0  0  0  0  0  0  0  0
  155.3146  134.8116  163.7486 H   0  0  0  0  0  0  0  0  0  0  0  0
  153.8548  133.8638  163.4875 H   0  0  0  0  0  0  0  0  0  0  0  0
  152.5504  135.9468  162.9854 H   0  0  0  0  0  0  0  0  0  0  0  0
  155.0349  135.8249  161.3277 H   0  0  0  0  0  0  0  0  0  0  0  0
  153.3653  134.9680  158.5395 H   0  0  0  0  0  0  0  0  0  0  0  0
  154.8694  135.3772  159.3362 H   0  0  0  0  0  0  0  0  0  0  0  0
  155.0677  137.6100  161.6152 H   0  0  0  0  0  0  0  0  0  0  0  0
  155.5469  139.4847  163.8742 H   0  0  0  0  0  0  0  0  0  0  0  0
  156.5525  139.2840  162.4599 H   0  0  0  0  0  0  0  0  0  0  0  0
  154.7055  141.7815  163.8360 H   0  0  0  0  0  0  0  0  0  0  0  0
  153.5831  143.6058  162.5990 H   0  0  0  0  0  0  0  0  0  0  0  0
  151.7040  144.4874  161.4164 H   0  0  0  0  0  0  0  0  0  0  0  0
  153.3559  145.0665  161.3745 H   0  0  0  0  0  0  0  0  0  0  0  0
  151.7777  146.7281  160.3744 H   0  0  0  0  0  0  0  0  0  0  0  0
  152.9799  146.2071  159.2098 H   0  0  0  0  0  0  0  0  0  0  0  0
  150.6651  144.0683  157.4600 H   0  0  0  0  0  0  0  0  0  0  0  0
  152.3237  144.6340  157.4912 H   0  0  0  0  0  0  0  0  0  0  0  0
  152.2274  142.3292  158.3877 H   0  0  0  0  0  0  0  0  0  0  0  0
  150.9814  142.7801  159.5442 H   0  0  0  0  0  0  0  0  0  0  0  0
  154.7186  139.4931  160.1713 H   0  0  0  0  0  0  0  0  0  0  0  0
  1  2  1  0  0  0  0
  1 23  1  0  0  0  0
  1 24  1  0  0  0  0
  1 25  1  0  0  0  0
  2  3  1  0  0  0  0
  2  7  1  0  0  0  0
  2 26  1  0  0  0  0
  3  4  1  0  0  0  0
  3 27  1  0  0  0  0
  4  5  1  0  0  0  0
  4  6  2  0  0  0  0
  5 28  1  0  0  0  0
  5 29  1  0  0  0  0
  7  8  2  0  0  0  0
  7  9  1  0  0  0  0
  9 10  1  0  0  0  0
  9 30  1  0  0  0  0
 10 11  1  0  0  0  0
 10 31  1  0  0  0  0
 10 32  1  0  0  0  0
 11 22  1  0  0  0  0
 11 12  2  0  0  0  0
 12 13  1  0  0  0  0
 12 33  1  0  0  0  0
 13 14  2  0  0  0  0
 13 34  1  0  0  0  0
 14 15  1  0  0  0  0
 14 21  1  0  0  0  0
 15 20  1  0  0  0  0
 15 16  1  0  0  0  0
 16 17  1  0  0  0  0
 16 35  1  0  0  0  0
 16 36  1  0  0  0  0
 17 18  1  0  0  0  0
 17 37  1  0  0  0  0
 17 38  1  0  0  0  0
 18 19  1  0  0  0  0
 19 20  1  0  0  0  0
 19 39  1  0  0  0  0
 19 40  1  0  0  0  0
 20 41  1  0  0  0  0
 20 42  1  0  0  0  0
 21 22  2  0  0  0  0
 22 43  1  0  0  0  0
M  END
> <s_m_source_file>
AV-unprocessed.smi

> <i_m_source_file_index>
337

> <i_lp_mmshare_version>
43012

> <i_f3d_flags>
0

> <s_epik_input>
W05IMl1DKD1PKVtOSF1bQ0BASF0oW0NIM10pQyg9TylbTkhdW0NIMl1jMVtjSF1bY0hdYyhuW2NIXTEpTjJbQ0gyXVtDSDJdT1tDSDJdW0NIMl0y

> <s_epik_cmdline>
J2VwaWtfcHl0aG9uJywgJy1waCcsICc3LjAnLCAnLXRuJywgJzgnLCAnLW1hJywgJzIwMCcsICctbWV0YWxfYmluZGluZycsICctaW1hZScsICc8aW5maWxlLm1hZT4nLCAnLW9tYWUnLCAnPG91dGZpbGUubWFlPic=

> <r_lp_tautomer_probability>
1

> <r_epik_Ionization_Penalty>
0.0048357

> <r_epik_Ionization_Penalty_Charging>
0

> <r_epik_Ionization_Penalty_Neutral>
0.0048357

> <r_epik_State_Penalty>
0.0034696

> <r_epik_Charging_Adjusted_Penalty>
0.0034696

> <i_epik_Tot_Q>
0

> <i_epik_Tot_abs_Q>
0

> <r_epik_Metal_State_Penalty>
-0

> <b_epik_Metal_Only>
0

> <s_lp_Force_Field>
OPLS_2005

> <r_lp_Energy>
8.56102

> <b_lp_Chiralities_Consistent>
1

> <s_lp_Variant>
AV-unprocessed.smi:337-1

> <Gold.Version>
5.8.1

> <Gold.Id.Protein>
6NUR|6NUR_protein|mol2

> <Gold.PLP.Fitness>
44.0306

> <Gold.PLP.PLP>
-41.8908

> <Gold.PLP.part.hbond>
-1.0000

> <Gold.PLP.part.metal>
0.0000

> <Gold.PLP.part.buried>
-6.9081

> <Gold.PLP.part.nonpolar>
-34.1088

> <Gold.PLP.part.repulsive>
0.2502

> <Gold.PLP.ligand.clash>
0.0000

> <Gold.PLP.ligand.torsion>
0.5768

> <Gold.PLP.Chemscore.Hbond>
0.9760

> <Gold.PLP.Chemscore.CHOScore>
0.0000

> <Gold.PLP.Chemscore.Metal>
0.0000

> <Gold.PLP.Chemscore.Internal.Correction>
0.3653

> <Gold.Rescore>
     Score         DG    S(hbond)    S(metal)    S(lipo)     H(rot)  DE(clash)    DE(int)     intcor
     13.05     -13.80       0.98        0.00     101.38       2.66       0.05       0.70       ----

> <Gold.Chemscore.Fitness>
13.0462

> <Gold.Chemscore.DG>
-13.7957

> <Gold.Chemscore.ZeroCoef>
-5.4800

> <Gold.Chemscore.Hbond>
0.9752

> <Gold.Chemscore.Metal>
0.0000

> <Gold.Chemscore.Lipo>
101.3781

> <Gold.Chemscore.Internal_Hbond>
0.0000

> <Gold.Chemscore.DEClash>
0.0450

> <Gold.Chemscore.DEInternal>
0.7045

> <Gold.Chemscore.Rot>
2.6573

> <Gold.Chemscore.Internal.Correction>
   9.000000E+99

> <Gold.Chemscore.Hbond.Weighted>
-3.2572

> <Gold.Chemscore.Metal.Weighted>
-0.0000

> <Gold.Chemscore.Lipo.Weighted>
-11.8612

> <Gold.Chemscore.Internal_Hbond.Weighted>
0.0000

> <Gold.Chemscore.DEClash.Weighted>
0.0450

> <Gold.Chemscore.DEInternal.Weighted>
0.7045

> <Gold.Chemscore.Rot.Weighted>
6.8027

> <Gold.Chemscore.Internal.Correction.Weighted>
   9.000000E+99

> <Gold.Protein.RotatedTorsions>
[ 6907 6896 6895 6894 ] final -163.60 input  -60.11 | X-H torsion
[ 7974 7965 7964 7962 ] final  131.27 input  175.53 | X-H torsion
[ 8008 7997 7996 7995 ] final  -93.48 input   59.86 | X-H torsion
[ 10167 10162 10161 10158 ] final  104.95 input  -65.29 | X-H torsion
[ 10718 10713 10712 10709 ] final -165.71 input   66.30 | X-H torsion
[ 10763 10752 10751 10750 ] final   -3.98 input  -60.55 | X-H torsion
[ 11005 11000 10999 10996 ] final   38.61 input  -57.11 | X-H torsion

> <Gold.Protein.ActiveResidues>
 VAL166  LYS551  ARG553  GLY616  TRP617  ASP618  TYR619  PRO620  LYS621  CYS622 
 ASP623  PHE694  ASN695  SER759  ASP760  ASP761  ALA762  ILE779  LEU786  VAL792 
 PHE793  MET794  SER795  GLU796  ALA797  LYS798  CYS799  TRP800  GLU811  SER814 

> <Gold.Protein.RotatedAtoms>
  151.3986  133.3765  159.2729 H   0  0  0  0  0  0  0  0  0  0  0  0  # atno 6907 bound_to 6896
  150.9451  134.8858  159.7647 H   0  0  0  0  0  0  0  0  0  0  0  0  # atno 6908 bound_to 6896
  152.5088  134.3938  159.9445 H   0  0  0  0  0  0  0  0  0  0  0  0  # atno 6909 bound_to 6896
  145.0090  139.4238  143.5254 H   0  0  0  0  0  0  0  0  0  0  0  0  # atno 7974 bound_to 7965
  154.7362  140.0498  157.0771 H   0  0  0  0  0  0  0  0  0  0  0  0  # atno 8008 bound_to 7997
  155.0237  140.3150  155.4764 H   0  0  0  0  0  0  0  0  0  0  0  0  # atno 8009 bound_to 7997
  156.2853  140.2162  156.5356 H   0  0  0  0  0  0  0  0  0  0  0  0  # atno 8010 bound_to 7997
  139.7133  144.7073  151.0991 H   0  0  0  0  0  0  0  0  0  0  0  0  # atno 10167 bound_to 10162
  156.6574  130.9032  151.3023 H   0  0  0  0  0  0  0  0  0  0  0  0  # atno 10718 bound_to 10713
  153.3786  135.6997  153.6582 H   0  0  0  0  0  0  0  0  0  0  0  0  # atno 10763 bound_to 10752
  153.5203  135.3613  155.2629 H   0  0  0  0  0  0  0  0  0  0  0  0  # atno 10764 bound_to 10752
  154.8690  135.4156  154.3080 H   0  0  0  0  0  0  0  0  0  0  0  0  # atno 10765 bound_to 10752
  140.2109  134.3756  155.8049 H   0  0  0  0  0  0  0  0  0  0  0  0  # atno 11005 bound_to 11000
  146.3466  139.9523  142.8727 LP  0  0  0  0  0  0  0  0  0  0  0  0  # atno 17320 bound_to 7965
  145.2048  140.9870  143.4134 LP  0  0  0  0  0  0  0  0  0  0  0  0  # atno 17321 bound_to 7965
  140.7738  143.5263  150.9476 LP  0  0  0  0  0  0  0  0  0  0  0  0  # atno 17342 bound_to 10162
  139.8948  143.6908  152.3140 LP  0  0  0  0  0  0  0  0  0  0  0  0  # atno 17343 bound_to 10162
  157.7121  130.9453  150.1125 LP  0  0  0  0  0  0  0  0  0  0  0  0  # atno 17370 bound_to 10713
  156.2037  130.3662  149.8756 LP  0  0  0  0  0  0  0  0  0  0  0  0  # atno 17371 bound_to 10713
  141.2226  133.7142  156.8416 LP  0  0  0  0  0  0  0  0  0  0  0  0  # atno 17394 bound_to 11000
  140.1952  134.8937  157.3106 LP  0  0  0  0  0  0  0  0  0  0  0  0  # atno 17395 bound_to 11000

$$$$
