AV-unprocessed.smi:666|AV-procd|sdf|3254|dock4
  -GOLD-   22720 0203D 1   1.00000     0.00000
 Structure written by MMmdl.
 34 35  0  0  0  0  0  0  0  0  2 V2000
  150.9670  140.4073  154.9511 O   0  0  0  0  0  0  0  0  0  0  0  0
  151.6644  140.2110  155.9470 C   0  0  0  0  0  0  0  0  0  0  0  0
  151.0958  140.5270  157.3358 C   0  0  0  0  0  0  0  0  0  0  0  0
  151.5283  141.8568  157.9307 C   0  0  0  0  0  0  0  0  0  0  0  0
  151.1904  143.0365  157.3738 C   0  0  0  0  0  0  0  0  0  0  0  0
  151.6098  144.3887  157.9229 C   0  0  0  0  0  0  0  0  0  0  0  0
  152.7401  144.2733  158.9595 C   0  0  0  0  0  0  0  0  0  0  0  0
  152.4789  143.1203  159.9370 C   0  0  0  0  0  0  0  0  0  0  0  0
  152.3641  141.7725  159.2020 C   0  0  0  0  0  0  0  0  0  0  0  0
  152.9226  139.7182  156.0191 N   0  5  0  0  0  0  0  0  0  0  0  0
  153.3044  138.1939  155.6137 S   0  0  0  0  0  0  0  0  0  0  0  0
  152.4683  137.6839  154.5153 O   0  0  0  0  0  0  0  0  0  0  0  0
  154.7594  138.0260  155.4748 O   0  0  0  0  0  0  0  0  0  0  0  0
  152.8131  137.2365  157.1236 C   0  0  0  0  0  0  0  0  0  0  0  0
  153.5975  137.6875  158.3263 C   0  0  0  0  0  0  0  0  0  0  0  0
  154.4419  138.8251  158.4608 C   0  0  0  0  0  0  0  0  0  0  0  0
  154.8795  138.7492  159.7511 C   0  0  0  0  0  0  0  0  0  0  0  0
  154.3466  137.6662  160.3703 O   0  0  0  0  0  0  0  0  0  0  0  0
  153.5270  136.9968  159.4543 N   0  0  0  0  0  0  0  0  0  0  0  0
  150.0045  140.4848  157.3451 H   0  0  0  0  0  0  0  0  0  0  0  0
  151.4264  139.7281  158.0009 H   0  0  0  0  0  0  0  0  0  0  0  0
  150.5740  143.0522  156.4868 H   0  0  0  0  0  0  0  0  0  0  0  0
  151.9259  145.0293  157.0994 H   0  0  0  0  0  0  0  0  0  0  0  0
  150.7328  144.8562  158.3716 H   0  0  0  0  0  0  0  0  0  0  0  0
  153.6878  144.1007  158.4477 H   0  0  0  0  0  0  0  0  0  0  0  0
  152.8484  145.2141  159.4999 H   0  0  0  0  0  0  0  0  0  0  0  0
  153.2706  143.0692  160.6850 H   0  0  0  0  0  0  0  0  0  0  0  0
  151.5539  143.3165  160.4807 H   0  0  0  0  0  0  0  0  0  0  0  0
  151.9302  141.0314  159.8737 H   0  0  0  0  0  0  0  0  0  0  0  0
  153.3557  141.4092  158.9299 H   0  0  0  0  0  0  0  0  0  0  0  0
  151.7405  137.3305  157.2861 H   0  0  0  0  0  0  0  0  0  0  0  0
  153.0093  136.1848  156.9135 H   0  0  0  0  0  0  0  0  0  0  0  0
  154.6924  139.5730  157.7236 H   0  0  0  0  0  0  0  0  0  0  0  0
  155.5386  139.3617  160.3483 H   0  0  0  0  0  0  0  0  0  0  0  0
  1  2  2  0  0  0  0
  2  3  1  0  0  0  0
  2 10  1  0  0  0  0
  3  4  1  0  0  0  0
  3 20  1  0  0  0  0
  3 21  1  0  0  0  0
  4  9  1  0  0  0  0
  4  5  2  0  0  0  0
  5  6  1  0  0  0  0
  5 22  1  0  0  0  0
  6  7  1  0  0  0  0
  6 23  1  0  0  0  0
  6 24  1  0  0  0  0
  7  8  1  0  0  0  0
  7 25  1  0  0  0  0
  7 26  1  0  0  0  0
  8  9  1  0  0  0  0
  8 27  1  0  0  0  0
  8 28  1  0  0  0  0
  9 29  1  0  0  0  0
  9 30  1  0  0  0  0
 10 11  1  0  0  0  0
 11 12  2  0  0  0  0
 11 13  2  0  0  0  0
 11 14  1  0  0  0  0
 14 15  1  0  0  0  0
 14 31  1  0  0  0  0
 14 32  1  0  0  0  0
 15 19  2  0  0  0  0
 15 16  1  0  0  0  0
 16 17  2  0  0  0  0
 16 33  1  0  0  0  0
 17 18  1  0  0  0  0
 17 34  1  0  0  0  0
 18 19  1  0  0  0  0
M  CHG  1  10  -1
M  END
> <s_m_source_file>
AV-unprocessed.smi

> <i_m_source_file_index>
666

> <i_lp_mmshare_version>
43012

> <i_f3d_flags>
0

> <s_epik_input>
W0NIMl0xW0NIMl1bQ0gyXVtDSDJdW0NIXT1DMVtDSDJdQyg9TylbTkhdUyg9TykoPU8pW0NIMl1jMltjSF1bY0hdb24y

> <s_epik_cmdline>
J2VwaWtfcHl0aG9uJywgJy1waCcsICc3LjAnLCAnLXRuJywgJzgnLCAnLW1hJywgJzIwMCcsICctbWV0YWxfYmluZGluZycsICctaW1hZScsICc8aW5maWxlLm1hZT4nLCAnLW9tYWUnLCAnPG91dGZpbGUubWFlPic=

> <r_epik_Ionization_Penalty>
0.000833246

> <r_epik_Ionization_Penalty_Charging>
0.000833246

> <r_epik_Ionization_Penalty_Neutral>
1.62659e-10

> <r_epik_State_Penalty>
0.000536532

> <r_epik_Charging_Adjusted_Penalty>
0.00136978

> <i_epik_Tot_Q>
-1

> <i_epik_Tot_abs_Q>
1

> <r_epik_Metal_State_Penalty>
-0

> <b_epik_Metal_Only>
0

> <s_lp_Force_Field>
OPLS_2005

> <r_lp_Energy>
4.18867

> <b_lp_Chiralities_Consistent>
1

> <s_lp_Variant>
AV-unprocessed.smi:666-1

> <Gold.Version>
5.8.1

> <Gold.Id.Protein>
6NUR|6NUR_protein|mol2

> <Gold.PLP.Fitness>
49.2217

> <Gold.PLP.PLP>
-36.9140

> <Gold.PLP.part.hbond>
-6.0000

> <Gold.PLP.part.metal>
0.0000

> <Gold.PLP.part.buried>
-5.5107

> <Gold.PLP.part.nonpolar>
-26.2027

> <Gold.PLP.part.repulsive>
0.1508

> <Gold.PLP.ligand.clash>
0.0000

> <Gold.PLP.ligand.torsion>
1.5519

> <Gold.PLP.Chemscore.Hbond>
4.7925

> <Gold.PLP.Chemscore.CHOScore>
0.0000

> <Gold.PLP.Chemscore.Metal>
0.0000

> <Gold.Chemscore.Hbonds>
donor molecule, donor type, donor heavy atom, donor atom, acceptor molecule, acceptor atom, score
      P1  H  7989  7998       L1     1  1.00
      P1  H  7997  8008       L1    10  1.32
      P1  H 10752 10765       L1    12  0.54

> <Gold.PLP.Chemscore.Internal.Correction>
1.0340

> <Gold.Rescore>
     Score         DG    S(hbond)    S(metal)    S(lipo)     H(rot)  DE(clash)    DE(int)     intcor
     20.42     -23.22       3.53        0.00      88.21       1.70       0.11       2.69       ----

> <Gold.Chemscore.Fitness>
20.4158

> <Gold.Chemscore.DG>
-23.2179

> <Gold.Chemscore.ZeroCoef>
-5.4800

> <Gold.Chemscore.Hbond>
3.5272

> <Gold.Chemscore.Metal>
0.0000

> <Gold.Chemscore.Lipo>
88.2119

> <Gold.Chemscore.Internal_Hbond>
0.0000

> <Gold.Chemscore.DEClash>
0.1147

> <Gold.Chemscore.DEInternal>
2.6875

> <Gold.Chemscore.Rot>
1.7046

> <Gold.Chemscore.Internal.Correction>
   9.000000E+99

> <Gold.Chemscore.Hbonds>
donor molecule, donor type, donor heavy atom, donor atom, acceptor molecule, acceptor atom, score
      P1  H  6896  6909       L1    19  0.01
      P1  H  7989  7998       L1     1  0.96
      P1  H  7997  8008       L1    10  0.08
      P1  H 10752 10765       L1    12  0.26

> <Gold.Chemscore.Hbond.Weighted>
-11.7810

> <Gold.Chemscore.Metal.Weighted>
-0.0000

> <Gold.Chemscore.Lipo.Weighted>
-10.3208

> <Gold.Chemscore.Internal_Hbond.Weighted>
0.0000

> <Gold.Chemscore.DEClash.Weighted>
0.1147

> <Gold.Chemscore.DEInternal.Weighted>
2.6875

> <Gold.Chemscore.Rot.Weighted>
4.3638

> <Gold.Chemscore.Internal.Correction.Weighted>
   9.000000E+99

> <Gold.Protein.RotatedTorsions>
[ 6907 6896 6895 6894 ] final  149.01 input  -60.11 | X-H torsion
[ 7974 7965 7964 7962 ] final  -97.37 input  175.53 | X-H torsion
[ 8008 7997 7996 7995 ] final  -61.10 input   59.86 | X-H torsion
[ 10167 10162 10161 10158 ] final   -9.99 input  -65.29 | X-H torsion
[ 10718 10713 10712 10709 ] final   93.38 input   66.30 | X-H torsion
[ 10763 10752 10751 10750 ] final  166.16 input  -60.55 | X-H torsion
[ 11005 11000 10999 10996 ] final   39.18 input  -57.11 | X-H torsion

> <Gold.Protein.ActiveResidues>
 VAL166  LYS551  ARG553  GLY616  TRP617  ASP618  TYR619  PRO620  LYS621  CYS622 
 ASP623  PHE694  ASN695  SER759  ASP760  ASP761  ALA762  ILE779  LEU786  VAL792 
 PHE793  MET794  SER795  GLU796  ALA797  LYS798  CYS799  TRP800  GLU811  SER814 

> <Gold.Protein.RotatedAtoms>
  152.1339  133.4423  159.4733 H   0  0  0  0  0  0  0  0  0  0  0  0  # atno 6907 bound_to 6896
  150.6880  134.2388  159.4473 H   0  0  0  0  0  0  0  0  0  0  0  0  # atno 6908 bound_to 6896
  152.0274  134.9787  160.0622 H   0  0  0  0  0  0  0  0  0  0  0  0  # atno 6909 bound_to 6896
  145.3346  140.9448  143.2642 H   0  0  0  0  0  0  0  0  0  0  0  0  # atno 7974 bound_to 7965
  154.4431  140.1025  156.6378 H   0  0  0  0  0  0  0  0  0  0  0  0  # atno 8008 bound_to 7997
  155.5535  140.3486  155.4455 H   0  0  0  0  0  0  0  0  0  0  0  0  # atno 8009 bound_to 7997
  156.0512  140.1304  157.0037 H   0  0  0  0  0  0  0  0  0  0  0  0  # atno 8010 bound_to 7997
  140.7102  143.5798  150.9004 H   0  0  0  0  0  0  0  0  0  0  0  0  # atno 10167 bound_to 10162
  157.6955  131.0476  150.4025 H   0  0  0  0  0  0  0  0  0  0  0  0  # atno 10718 bound_to 10713
  154.3348  135.2754  155.2453 H   0  0  0  0  0  0  0  0  0  0  0  0  # atno 10763 bound_to 10752
  154.4749  135.5873  153.6351 H   0  0  0  0  0  0  0  0  0  0  0  0  # atno 10764 bound_to 10752
  152.9863  135.6097  154.3544 H   0  0  0  0  0  0  0  0  0  0  0  0  # atno 10765 bound_to 10752
  140.2053  134.3821  155.8076 H   0  0  0  0  0  0  0  0  0  0  0  0  # atno 11005 bound_to 11000
  144.8837  139.4868  143.6711 LP  0  0  0  0  0  0  0  0  0  0  0  0  # atno 17320 bound_to 7965
  146.3032  139.7493  142.9076 LP  0  0  0  0  0  0  0  0  0  0  0  0  # atno 17321 bound_to 7965
  139.9524  143.6257  152.3025 LP  0  0  0  0  0  0  0  0  0  0  0  0  # atno 17342 bound_to 10162
  139.6781  144.7657  151.1659 LP  0  0  0  0  0  0  0  0  0  0  0  0  # atno 17343 bound_to 10162
  156.4417  130.3993  149.6693 LP  0  0  0  0  0  0  0  0  0  0  0  0  # atno 17370 bound_to 10713
  156.3874  130.7610  151.2608 LP  0  0  0  0  0  0  0  0  0  0  0  0  # atno 17371 bound_to 10713
  141.2227  133.7115  156.8326 LP  0  0  0  0  0  0  0  0  0  0  0  0  # atno 17394 bound_to 11000
  140.2010  134.8897  157.3168 LP  0  0  0  0  0  0  0  0  0  0  0  0  # atno 17395 bound_to 11000

$$$$
