AV-unprocessed.smi:1412|AV-procd|sdf|5740|dock8
  -GOLD-   22720 5373D 1   1.00000     0.00000
 Structure written by MMmdl.
 41 42  0  0  0  0  0  0  0  0  1 V2000
  146.9514  140.3136  151.9300 C   0  0  0  0  0  0  0  0  0  0  0  0
  146.9844  139.5902  153.2902 C   0  0  0  0  0  0  0  0  0  0  0  0
  147.5407  140.3784  154.5247 C   0  0  1  0  0  0  0  0  0  0  0  0
  147.8132  139.3650  155.6655 C   0  0  0  0  0  0  0  0  0  0  0  0
  148.9120  141.0063  154.1289 C   0  0  0  0  0  0  0  0  0  0  0  0
  149.4024  141.9293  155.1495 N   0  0  0  0  0  0  0  0  0  0  0  0
  150.3273  141.6423  156.0746 C   0  0  0  0  0  0  0  0  0  0  0  0
  150.8546  140.5359  156.1890 O   0  0  0  0  0  0  0  0  0  0  0  0
  150.5932  142.7129  156.8402 N   0  0  0  0  0  0  0  0  0  0  0  0
  151.5352  142.8189  157.8938 C   0  0  0  0  0  0  0  0  0  0  0  0
  151.9162  141.6946  158.5116 N   0  0  0  0  0  0  0  0  0  0  0  0
  152.8359  141.9425  159.5235 N   0  0  0  0  0  0  0  0  0  0  0  0
  153.1117  143.2457  159.6301 C   0  0  0  0  0  0  0  0  0  0  0  0
  152.2767  144.3012  158.5042 S   0  0  0  0  0  0  0  0  0  0  0  0
  146.5680  141.4393  154.9329 N   0  0  0  0  0  0  0  0  0  0  0  0
  146.3399  142.4927  153.9343 C   0  0  0  0  0  0  0  0  0  0  0  0
  145.4294  143.6137  154.4642 C   0  0  0  0  0  0  0  0  0  0  0  0
  144.1921  143.0640  154.8971 O   0  0  0  0  0  0  0  0  0  0  0  0
  144.3645  142.0874  155.9153 C   0  0  0  0  0  0  0  0  0  0  0  0
  145.2614  140.9508  155.3965 C   0  0  0  0  0  0  0  0  0  0  0  0
  146.6318  139.6258  151.1471 H   0  0  0  0  0  0  0  0  0  0  0  0
  147.9306  140.6942  151.6423 H   0  0  0  0  0  0  0  0  0  0  0  0
  146.2451  141.1433  151.9220 H   0  0  0  0  0  0  0  0  0  0  0  0
  145.9731  139.2434  153.5076 H   0  0  0  0  0  0  0  0  0  0  0  0
  147.5774  138.6894  153.1345 H   0  0  0  0  0  0  0  0  0  0  0  0
  148.5565  138.6232  155.3751 H   0  0  0  0  0  0  0  0  0  0  0  0
  146.9163  138.8156  155.9505 H   0  0  0  0  0  0  0  0  0  0  0  0
  148.2026  139.8487  156.5606 H   0  0  0  0  0  0  0  0  0  0  0  0
  149.6704  140.2438  153.9564 H   0  0  0  0  0  0  0  0  0  0  0  0
  148.8334  141.5099  153.1650 H   0  0  0  0  0  0  0  0  0  0  0  0
  149.0194  142.8635  155.1303 H   0  0  0  0  0  0  0  0  0  0  0  0
  150.0740  143.5541  156.6366 H   0  0  0  0  0  0  0  0  0  0  0  0
  153.8122  143.5878  160.3774 H   0  0  0  0  0  0  0  0  0  0  0  0
  147.2757  142.9573  153.6315 H   0  0  0  0  0  0  0  0  0  0  0  0
  145.8892  142.0697  153.0366 H   0  0  0  0  0  0  0  0  0  0  0  0
  145.9095  144.1433  155.2886 H   0  0  0  0  0  0  0  0  0  0  0  0
  145.2381  144.3472  153.6810 H   0  0  0  0  0  0  0  0  0  0  0  0
  144.7998  142.5482  156.8035 H   0  0  0  0  0  0  0  0  0  0  0  0
  143.3882  141.6974  156.2027 H   0  0  0  0  0  0  0  0  0  0  0  0
  144.7405  140.4368  154.5889 H   0  0  0  0  0  0  0  0  0  0  0  0
  145.3733  140.2363  156.2088 H   0  0  0  0  0  0  0  0  0  0  0  0
  1  2  1  0  0  0  0
  1 21  1  0  0  0  0
  1 22  1  0  0  0  0
  1 23  1  0  0  0  0
  2  3  1  0  0  0  0
  2 24  1  0  0  0  0
  2 25  1  0  0  0  0
  3  4  1  0  0  0  0
  3  5  1  0  0  0  0
  3 15  1  0  0  0  0
  4 26  1  0  0  0  0
  4 27  1  0  0  0  0
  4 28  1  0  0  0  0
  5  6  1  0  0  0  0
  5 29  1  0  0  0  0
  5 30  1  0  0  0  0
  6  7  1  0  0  0  0
  6 31  1  0  0  0  0
  7  8  2  0  0  0  0
  7  9  1  0  0  0  0
  9 10  1  0  0  0  0
  9 32  1  0  0  0  0
 10 14  1  0  0  0  0
 10 11  2  0  0  0  0
 11 12  1  0  0  0  0
 12 13  2  0  0  0  0
 13 14  1  0  0  0  0
 13 33  1  0  0  0  0
 15 20  1  0  0  0  0
 15 16  1  0  0  0  0
 16 17  1  0  0  0  0
 16 34  1  0  0  0  0
 16 35  1  0  0  0  0
 17 18  1  0  0  0  0
 17 36  1  0  0  0  0
 17 37  1  0  0  0  0
 18 19  1  0  0  0  0
 19 20  1  0  0  0  0
 19 38  1  0  0  0  0
 19 39  1  0  0  0  0
 20 40  1  0  0  0  0
 20 41  1  0  0  0  0
M  END
> <s_m_source_file>
AV-unprocessed.smi

> <i_m_source_file_index>
1412

> <i_lp_mmshare_version>
43012

> <i_f3d_flags>
0

> <s_epik_input>
W0NIMl0xW0NIMl1PW0NIMl1bQ0gyXU4xW0NAQF0oW0NIM10pKFtDSDJdW0NIM10pW0NIMl1bTkhdQyg9TylbTkhdYzJubltjSF1zMg==

> <s_epik_cmdline>
J2VwaWtfcHl0aG9uJywgJy1waCcsICc3LjAnLCAnLXRuJywgJzgnLCAnLW1hJywgJzIwMCcsICctbWV0YWxfYmluZGluZycsICctaW1hZScsICc8aW5maWxlLm1hZT4nLCAnLW9tYWUnLCAnPG91dGZpbGUubWFlPic=

> <r_lp_tautomer_probability>
1

> <r_epik_Ionization_Penalty>
0.295854

> <r_epik_Ionization_Penalty_Charging>
0

> <r_epik_Ionization_Penalty_Neutral>
0.295854

> <r_epik_State_Penalty>
0.288723

> <r_epik_Charging_Adjusted_Penalty>
0.288723

> <i_epik_Tot_Q>
0

> <i_epik_Tot_abs_Q>
0

> <r_epik_Metal_State_Penalty>
0.510549

> <b_epik_Metal_Only>
0

> <s_lp_Force_Field>
OPLS_2005

> <r_lp_Energy>
43.1066

> <b_lp_Chiralities_Consistent>
1

> <s_lp_Variant>
AV-unprocessed.smi:1412-1

> <Gold.Version>
5.8.1

> <Gold.Id.Protein>
6NUR|6NUR_protein|mol2

> <Gold.PLP.Fitness>
38.6984

> <Gold.PLP.PLP>
-33.5757

> <Gold.PLP.part.hbond>
-2.0000

> <Gold.PLP.part.metal>
0.0000

> <Gold.PLP.part.buried>
-3.5712

> <Gold.PLP.part.nonpolar>
-29.1492

> <Gold.PLP.part.repulsive>
0.5492

> <Gold.PLP.ligand.clash>
0.0000

> <Gold.PLP.ligand.torsion>
0.4705

> <Gold.PLP.Chemscore.Hbond>
2.0000

> <Gold.PLP.Chemscore.CHOScore>
0.0000

> <Gold.PLP.Chemscore.Metal>
0.0000

> <Gold.Chemscore.Hbonds>
donor molecule, donor type, donor heavy atom, donor atom, acceptor molecule, acceptor atom, score
      L1  H     6    31       P1  8028  1.00
      L1  H     9    32       P1  8028  1.00

> <Gold.PLP.Chemscore.Internal.Correction>
0.0637

> <Gold.Rescore>
     Score         DG    S(hbond)    S(metal)    S(lipo)     H(rot)  DE(clash)    DE(int)     intcor
     12.71     -15.68       1.97        0.00      71.69       1.86       0.97       2.00       ----

> <Gold.Chemscore.Fitness>
12.7150

> <Gold.Chemscore.DG>
-15.6759

> <Gold.Chemscore.ZeroCoef>
-5.4800

> <Gold.Chemscore.Hbond>
1.9675

> <Gold.Chemscore.Metal>
0.0000

> <Gold.Chemscore.Lipo>
71.6938

> <Gold.Chemscore.Internal_Hbond>
0.0000

> <Gold.Chemscore.DEClash>
0.9653

> <Gold.Chemscore.DEInternal>
1.9956

> <Gold.Chemscore.Rot>
1.8609

> <Gold.Chemscore.Internal.Correction>
   9.000000E+99

> <Gold.Chemscore.Hbonds>
donor molecule, donor type, donor heavy atom, donor atom, acceptor molecule, acceptor atom, score
      L1  H     6    31       P1  8028  0.98
      L1  H     9    32       P1  8028  0.99

> <Gold.Chemscore.Hbond.Weighted>
-6.5715

> <Gold.Chemscore.Metal.Weighted>
-0.0000

> <Gold.Chemscore.Lipo.Weighted>
-8.3882

> <Gold.Chemscore.Internal_Hbond.Weighted>
0.0000

> <Gold.Chemscore.DEClash.Weighted>
0.9653

> <Gold.Chemscore.DEInternal.Weighted>
1.9956

> <Gold.Chemscore.Rot.Weighted>
4.7638

> <Gold.Chemscore.Internal.Correction.Weighted>
   9.000000E+99

> <Gold.Protein.RotatedTorsions>
[ 6907 6896 6895 6894 ] final  -15.56 input  -60.11 | X-H torsion
[ 7974 7965 7964 7962 ] final -130.38 input  175.53 | X-H torsion
[ 8008 7997 7996 7995 ] final   70.50 input   59.86 | X-H torsion
[ 10167 10162 10161 10158 ] final  130.39 input  -65.29 | X-H torsion
[ 10718 10713 10712 10709 ] final  122.07 input   66.30 | X-H torsion
[ 10763 10752 10751 10750 ] final   63.97 input  -60.55 | X-H torsion
[ 11005 11000 10999 10996 ] final -118.81 input  -57.11 | X-H torsion

> <Gold.Protein.ActiveResidues>
 VAL166  LYS551  ARG553  GLY616  TRP617  ASP618  TYR619  PRO620  LYS621  CYS622 
 ASP623  PHE694  ASN695  SER759  ASP760  ASP761  ALA762  ILE779  LEU786  VAL792 
 PHE793  MET794  SER795  GLU796  ALA797  LYS798  CYS799  TRP800  GLU811  SER814 

> <Gold.Protein.RotatedAtoms>
  151.3221  135.0821  159.9308 H   0  0  0  0  0  0  0  0  0  0  0  0  # atno 6907 bound_to 6896
  152.5254  133.9629  159.7736 H   0  0  0  0  0  0  0  0  0  0  0  0  # atno 6908 bound_to 6896
  150.9951  133.6058  159.2733 H   0  0  0  0  0  0  0  0  0  0  0  0  # atno 6909 bound_to 6896
  144.9480  140.7313  143.4805 H   0  0  0  0  0  0  0  0  0  0  0  0  # atno 7974 bound_to 7965
  155.7398  140.3490  155.5098 H   0  0  0  0  0  0  0  0  0  0  0  0  # atno 8008 bound_to 7997
  155.9105  140.1049  157.1304 H   0  0  0  0  0  0  0  0  0  0  0  0  # atno 8009 bound_to 7997
  154.4055  140.1269  156.4538 H   0  0  0  0  0  0  0  0  0  0  0  0  # atno 8010 bound_to 7997
  139.5432  144.6750  151.4556 H   0  0  0  0  0  0  0  0  0  0  0  0  # atno 10167 bound_to 10162
  157.5770  131.1078  150.8260 H   0  0  0  0  0  0  0  0  0  0  0  0  # atno 10718 bound_to 10713
  153.0038  135.5410  154.6436 H   0  0  0  0  0  0  0  0  0  0  0  0  # atno 10763 bound_to 10752
  154.5685  135.2839  155.0852 H   0  0  0  0  0  0  0  0  0  0  0  0  # atno 10764 bound_to 10752
  154.2027  135.6481  153.5144 H   0  0  0  0  0  0  0  0  0  0  0  0  # atno 10765 bound_to 10752
  141.0260  134.0053  157.3214 H   0  0  0  0  0  0  0  0  0  0  0  0  # atno 11005 bound_to 11000
  145.2888  139.1891  143.4751 LP  0  0  0  0  0  0  0  0  0  0  0  0  # atno 17320 bound_to 7965
  146.3311  140.2861  142.8613 LP  0  0  0  0  0  0  0  0  0  0  0  0  # atno 17321 bound_to 7965
  140.6671  143.8375  150.6954 LP  0  0  0  0  0  0  0  0  0  0  0  0  # atno 17342 bound_to 10162
  140.1788  143.4132  152.1948 LP  0  0  0  0  0  0  0  0  0  0  0  0  # atno 17343 bound_to 10162
  156.8716  130.5148  149.5296 LP  0  0  0  0  0  0  0  0  0  0  0  0  # atno 17370 bound_to 10713
  156.0815  130.5824  150.9571 LP  0  0  0  0  0  0  0  0  0  0  0  0  # atno 17371 bound_to 10713
  139.9176  135.0198  156.7942 LP  0  0  0  0  0  0  0  0  0  0  0  0  # atno 17394 bound_to 11000
  140.6490  133.9748  155.7746 LP  0  0  0  0  0  0  0  0  0  0  0  0  # atno 17395 bound_to 11000

$$$$
