AV-unprocessed.smi:76|AV-procd|sdf|769|dock5
  -GOLD-   2262017113D 1   1.00000     0.00000
 Structure written by MMmdl.
 55 58  0  0  0  0  0  0  0  0  1 V2000
  143.0363  136.0167  153.2175 C   0  0  0  0  0  0  0  0  0  0  0  0
  144.3009  135.4410  152.5457 C   0  0  2  0  0  0  0  0  0  0  0  0
  143.9026  134.3208  151.5613 C   0  0  0  0  0  0  0  0  0  0  0  0
  145.1287  133.6832  150.8780 C   0  0  2  0  0  0  0  0  0  0  0  0
  144.7331  132.5597  149.8986 C   0  0  0  0  0  0  0  0  0  0  0  0
  143.9383  133.0264  148.9351 F   0  0  0  0  0  0  0  0  0  0  0  0
  145.8246  132.0359  149.3411 F   0  0  0  0  0  0  0  0  0  0  0  0
  144.0937  131.5900  150.5528 F   0  0  0  0  0  0  0  0  0  0  0  0
  146.1079  133.1947  151.9614 C   0  0  0  0  0  0  0  0  0  0  0  0
  146.4791  134.3364  152.9177 C   0  0  0  0  0  0  0  0  0  0  0  0
  145.2852  134.9353  153.5130 N   0  0  0  0  0  0  0  0  0  0  0  0
  145.6037  135.7911  154.5104 C   0  0  0  0  0  0  0  0  0  0  0  0
  145.2611  135.5001  155.7934 N   0  0  0  0  0  0  0  0  0  0  0  0
  145.5910  136.3429  156.7769 C   0  0  0  0  0  0  0  0  0  0  0  0
  146.2489  137.5023  156.6981 N   0  0  0  0  0  0  0  0  0  0  0  0
  146.5914  137.7932  155.4097 C   0  0  0  0  0  0  0  0  0  0  0  0
  146.3105  136.9968  154.2656 C   0  0  0  0  0  0  0  0  0  0  0  0
  146.8202  137.6009  153.1242 N   0  0  0  0  0  0  0  0  0  0  0  0
  147.3750  138.6953  153.5695 C   0  0  0  0  0  0  0  0  0  0  0  0
  147.2713  138.8993  154.9280 N   0  0  0  0  0  0  0  0  0  0  0  0
  147.8027  140.0233  155.6860 C   0  0  0  0  0  0  0  0  0  0  0  0
  148.9735  140.7937  154.9977 C   0  0  0  0  0  0  0  0  0  0  0  0
  148.3848  141.6850  153.8686 C   0  0  0  0  0  0  0  0  0  0  0  0
  147.4724  142.6582  154.3378 O   0  0  0  0  0  0  0  0  0  0  0  0
  149.6870  141.6729  156.0571 C   0  0  0  0  0  0  0  0  0  0  0  0
  150.5088  140.8435  157.0626 C   0  0  0  0  0  0  0  0  0  0  0  0
  151.4411  140.0190  156.3737 O   0  0  0  0  0  0  0  0  0  0  0  0
  150.8211  139.0835  155.4999 C   0  0  0  0  0  0  0  0  0  0  0  0
  150.0352  139.8298  154.4069 C   0  0  0  0  0  0  0  0  0  0  0  0
  142.3088  136.3334  152.4698 H   0  0  0  0  0  0  0  0  0  0  0  0
  143.2596  136.8903  153.8303 H   0  0  0  0  0  0  0  0  0  0  0  0
  142.5541  135.2752  153.8554 H   0  0  0  0  0  0  0  0  0  0  0  0
  144.7759  136.2404  151.9747 H   0  0  0  0  0  0  0  0  0  0  0  0
  143.3419  133.5515  152.0943 H   0  0  0  0  0  0  0  0  0  0  0  0
  143.2273  134.7230  150.8056 H   0  0  0  0  0  0  0  0  0  0  0  0
  145.6301  134.4615  150.3006 H   0  0  0  0  0  0  0  0  0  0  0  0
  145.6609  132.3768  152.5277 H   0  0  0  0  0  0  0  0  0  0  0  0
  147.0127  132.7958  151.5024 H   0  0  0  0  0  0  0  0  0  0  0  0
  147.1343  133.9570  153.7034 H   0  0  0  0  0  0  0  0  0  0  0  0
  147.0404  135.0995  152.3759 H   0  0  0  0  0  0  0  0  0  0  0  0
  145.2856  136.0452  157.7692 H   0  0  0  0  0  0  0  0  0  0  0  0
  147.8755  139.3917  152.9125 H   0  0  0  0  0  0  0  0  0  0  0  0
  146.9779  140.7096  155.8825 H   0  0  0  0  0  0  0  0  0  0  0  0
  148.0950  139.6417  156.6629 H   0  0  0  0  0  0  0  0  0  0  0  0
  149.1771  142.2165  153.3415 H   0  0  0  0  0  0  0  0  0  0  0  0
  147.8701  141.0699  153.1297 H   0  0  0  0  0  0  0  0  0  0  0  0
  147.9626  143.3994  154.6592 H   0  0  0  0  0  0  0  0  0  0  0  0
  150.3744  142.3657  155.5714 H   0  0  0  0  0  0  0  0  0  0  0  0
  148.9635  142.2927  156.5879 H   0  0  0  0  0  0  0  0  0  0  0  0
  151.0620  141.5111  157.7235 H   0  0  0  0  0  0  0  0  0  0  0  0
  149.8710  140.2361  157.7048 H   0  0  0  0  0  0  0  0  0  0  0  0
  151.5982  138.4710  155.0425 H   0  0  0  0  0  0  0  0  0  0  0  0
  150.1823  138.4040  156.0643 H   0  0  0  0  0  0  0  0  0  0  0  0
  149.5840  139.1211  153.7136 H   0  0  0  0  0  0  0  0  0  0  0  0
  150.7572  140.3931  153.8149 H   0  0  0  0  0  0  0  0  0  0  0  0
  1  2  1  0  0  0  0
  1 30  1  0  0  0  0
  1 31  1  0  0  0  0
  1 32  1  0  0  0  0
  2 11  1  0  0  0  0
  2  3  1  0  0  0  0
  2 33  1  0  0  0  0
  3  4  1  0  0  0  0
  3 34  1  0  0  0  0
  3 35  1  0  0  0  0
  4  5  1  0  0  0  0
  4  9  1  0  0  0  0
  4 36  1  0  0  0  0
  5  6  1  0  0  0  0
  5  7  1  0  0  0  0
  5  8  1  0  0  0  0
  9 10  1  0  0  0  0
  9 37  1  0  0  0  0
  9 38  1  0  0  0  0
 10 11  1  0  0  0  0
 10 39  1  0  0  0  0
 10 40  1  0  0  0  0
 11 12  1  0  0  0  0
 12 17  1  0  0  0  0
 12 13  2  0  0  0  0
 13 14  1  0  0  0  0
 14 15  2  0  0  0  0
 14 41  1  0  0  0  0
 15 16  1  0  0  0  0
 16 20  1  0  0  0  0
 16 17  2  0  0  0  0
 17 18  1  0  0  0  0
 18 19  2  0  0  0  0
 19 20  1  0  0  0  0
 19 42  1  0  0  0  0
 20 21  1  0  0  0  0
 21 22  1  0  0  0  0
 21 43  1  0  0  0  0
 21 44  1  0  0  0  0
 22 29  1  0  0  0  0
 22 23  1  0  0  0  0
 22 25  1  0  0  0  0
 23 24  1  0  0  0  0
 23 45  1  0  0  0  0
 23 46  1  0  0  0  0
 24 47  1  0  0  0  0
 25 26  1  0  0  0  0
 25 48  1  0  0  0  0
 25 49  1  0  0  0  0
 26 27  1  0  0  0  0
 26 50  1  0  0  0  0
 26 51  1  0  0  0  0
 27 28  1  0  0  0  0
 28 29  1  0  0  0  0
 28 52  1  0  0  0  0
 28 53  1  0  0  0  0
 29 54  1  0  0  0  0
 29 55  1  0  0  0  0
M  END
> <s_m_source_file>
AV-unprocessed.smi

> <i_m_source_file_index>
76

> <i_lp_mmshare_version>
43012

> <i_f3d_flags>
0

> <s_epik_input>
W0NIM11bQ0BASF0xW0NIMl1bQ0BASF0oQyhGKShGKUYpW0NIMl1bQ0gyXU4xYyhuW2NIXW4yKWMoYzIzKW5bY0hdbjNbQ0gyXUM0KFtDSDJdW09IXSlbQ0gyXVtDSDJdT1tDSDJdW0NIMl00

> <s_epik_cmdline>
J2VwaWtfcHl0aG9uJywgJy1waCcsICc3LjAnLCAnLXRuJywgJzgnLCAnLW1hJywgJzIwMCcsICctbWV0YWxfYmluZGluZycsICctaW1hZScsICc8aW5maWxlLm1hZT4nLCAnLW9tYWUnLCAnPG91dGZpbGUubWFlPic=

> <r_lp_tautomer_probability>
1

> <r_epik_Ionization_Penalty>
0.00244097

> <r_epik_Ionization_Penalty_Charging>
0

> <r_epik_Ionization_Penalty_Neutral>
0.00244097

> <r_epik_State_Penalty>
0.00151846

> <r_epik_Charging_Adjusted_Penalty>
0.00151846

> <i_epik_Tot_Q>
0

> <i_epik_Tot_abs_Q>
0

> <r_epik_Metal_State_Penalty>
-0

> <b_epik_Metal_Only>
0

> <s_lp_Force_Field>
OPLS_2005

> <r_lp_Energy>
38.0325

> <b_lp_Chiralities_Consistent>
1

> <s_lp_Variant>
AV-unprocessed.smi:76-3

> <Gold.Version>
5.8.1

> <Gold.Id.Protein>
6NUR|6NUR_protein|mol2

> <Gold.PLP.Fitness>
42.7195

> <Gold.PLP.PLP>
-37.7384

> <Gold.PLP.part.hbond>
-1.0534

> <Gold.PLP.part.metal>
0.0000

> <Gold.PLP.part.buried>
-1.7593

> <Gold.PLP.part.nonpolar>
-35.1130

> <Gold.PLP.part.repulsive>
2.1594

> <Gold.PLP.ligand.clash>
0.0000

> <Gold.PLP.ligand.torsion>
0.5936

> <Gold.PLP.Chemscore.Hbond>
1.0000

> <Gold.PLP.Chemscore.CHOScore>
0.9804

> <Gold.PLP.Chemscore.Metal>
0.0000

> <Gold.Chemscore.Hbonds>
donor molecule, donor type, donor heavy atom, donor atom, acceptor molecule, acceptor atom, score
      L1  H    24    47       P1  8028  1.00
      L1  C    19    42       P1  7957  0.99

> <Gold.PLP.Chemscore.Internal.Correction>
0.2272

> <Gold.Rescore>
     Score         DG    S(hbond)    S(metal)    S(lipo)     H(rot)  DE(clash)    DE(int)     intcor
      9.88     -11.40       0.98        0.00      76.49       2.47       0.74       0.78       ----

> <Gold.Chemscore.Fitness>
9.8814

> <Gold.Chemscore.DG>
-11.4025

> <Gold.Chemscore.ZeroCoef>
-5.4800

> <Gold.Chemscore.Hbond>
0.9842

> <Gold.Chemscore.Metal>
0.0000

> <Gold.Chemscore.Lipo>
76.4909

> <Gold.Chemscore.Internal_Hbond>
0.0000

> <Gold.Chemscore.DEClash>
0.7440

> <Gold.Chemscore.DEInternal>
0.7771

> <Gold.Chemscore.Rot>
2.4665

> <Gold.Chemscore.Internal.Correction>
   9.000000E+99

> <Gold.Chemscore.Hbonds>
donor molecule, donor type, donor heavy atom, donor atom, acceptor molecule, acceptor atom, score
      L1  H    24    47       P1  8028  0.78

> <Gold.Chemscore.Hbond.Weighted>
-3.2873

> <Gold.Chemscore.Metal.Weighted>
-0.0000

> <Gold.Chemscore.Lipo.Weighted>
-8.9494

> <Gold.Chemscore.Internal_Hbond.Weighted>
0.0000

> <Gold.Chemscore.DEClash.Weighted>
0.7440

> <Gold.Chemscore.DEInternal.Weighted>
0.7771

> <Gold.Chemscore.Rot.Weighted>
6.3142

> <Gold.Chemscore.Internal.Correction.Weighted>
   9.000000E+99

> <Gold.Protein.RotatedTorsions>
[ 6907 6896 6895 6894 ] final -134.07 input  -60.11 | X-H torsion
[ 7974 7965 7964 7962 ] final   14.73 input  175.53 | X-H torsion
[ 8008 7997 7996 7995 ] final -133.33 input   59.86 | X-H torsion
[ 10167 10162 10161 10158 ] final -100.29 input  -65.29 | X-H torsion
[ 10718 10713 10712 10709 ] final -143.39 input   66.30 | X-H torsion
[ 10763 10752 10751 10750 ] final  108.77 input  -60.55 | X-H torsion
[ 11005 11000 10999 10996 ] final  139.96 input  -57.11 | X-H torsion

> <Gold.Protein.ActiveResidues>
 VAL166  LYS551  ARG553  GLY616  TRP617  ASP618  TYR619  PRO620  LYS621  CYS622 
 ASP623  PHE694  ASN695  SER759  ASP760  ASP761  ALA762  ILE779  LEU786  VAL792 
 PHE793  MET794  SER795  GLU796  ALA797  LYS798  CYS799  TRP800  GLU811  SER814 

> <Gold.Protein.RotatedAtoms>
  150.9814  133.6241  159.2721 H   0  0  0  0  0  0  0  0  0  0  0  0  # atno 6907 bound_to 6896
  151.3495  135.0880  159.9408 H   0  0  0  0  0  0  0  0  0  0  0  0  # atno 6908 bound_to 6896
  152.5217  133.9410  159.7681 H   0  0  0  0  0  0  0  0  0  0  0  0  # atno 6909 bound_to 6896
  146.2297  139.8998  142.8541 H   0  0  0  0  0  0  0  0  0  0  0  0  # atno 7974 bound_to 7965
  155.3437  140.0473  157.3045 H   0  0  0  0  0  0  0  0  0  0  0  0  # atno 8008 bound_to 7997
  154.5264  140.2242  155.8848 H   0  0  0  0  0  0  0  0  0  0  0  0  # atno 8009 bound_to 7997
  156.1743  140.3088  155.9037 H   0  0  0  0  0  0  0  0  0  0  0  0  # atno 8010 bound_to 7997
  140.2535  143.3456  152.0693 H   0  0  0  0  0  0  0  0  0  0  0  0  # atno 10167 bound_to 10162
  156.3574  130.7720  151.1882 H   0  0  0  0  0  0  0  0  0  0  0  0  # atno 10718 bound_to 10713
  153.4254  135.3801  155.2137 H   0  0  0  0  0  0  0  0  0  0  0  0  # atno 10763 bound_to 10752
  154.8747  135.3827  154.4333 H   0  0  0  0  0  0  0  0  0  0  0  0  # atno 10764 bound_to 10752
  153.4858  135.7088  153.5974 H   0  0  0  0  0  0  0  0  0  0  0  0  # atno 10765 bound_to 10752
  140.0292  134.9360  157.0630 H   0  0  0  0  0  0  0  0  0  0  0  0  # atno 11005 bound_to 11000
  145.2334  140.9982  143.3977 LP  0  0  0  0  0  0  0  0  0  0  0  0  # atno 17320 bound_to 7965
  144.9511  139.4082  143.6402 LP  0  0  0  0  0  0  0  0  0  0  0  0  # atno 17321 bound_to 7965
  139.5039  144.6764  151.6117 LP  0  0  0  0  0  0  0  0  0  0  0  0  # atno 17342 bound_to 10162
  140.6022  143.9589  150.6394 LP  0  0  0  0  0  0  0  0  0  0  0  0  # atno 17343 bound_to 10162
  157.7469  131.0410  150.4625 LP  0  0  0  0  0  0  0  0  0  0  0  0  # atno 17370 bound_to 10713
  156.4830  130.4078  149.6450 LP  0  0  0  0  0  0  0  0  0  0  0  0  # atno 17371 bound_to 10713
  140.4254  134.1837  155.7166 LP  0  0  0  0  0  0  0  0  0  0  0  0  # atno 17394 bound_to 11000
  141.1821  133.8391  157.1220 LP  0  0  0  0  0  0  0  0  0  0  0  0  # atno 17395 bound_to 11000

$$$$
