AV-unprocessed.smi:717|AV-procd|sdf|3490|dock5
  -GOLD-   22720 0483D 1   1.00000     0.00000
 Structure written by MMmdl.
 43 44  0  0  0  0  0  0  0  0  1 V2000
  150.0509  140.5424  157.1612 O   0  0  0  0  0  0  0  0  0  0  0  0
  150.6686  139.5761  156.7133 C   0  0  0  0  0  0  0  0  0  0  0  0
  150.7631  139.3549  155.2015 C   0  0  0  0  0  0  0  0  0  0  0  0
  149.4625  139.7373  154.5174 C   0  0  0  0  0  0  0  0  0  0  0  0
  149.0245  141.0778  154.4913 C   0  0  0  0  0  0  0  0  0  0  0  0
  147.8094  141.3819  153.8483 C   0  0  0  0  0  0  0  0  0  0  0  0
  147.0821  140.3297  153.2567 C   0  0  0  0  0  0  0  0  0  0  0  0
  147.4920  139.0430  153.2742 N   0  0  0  0  0  0  0  0  0  0  0  0
  148.6581  138.7597  153.8934 C   0  0  0  0  0  0  0  0  0  0  0  0
  151.2895  138.6741  157.4890 N   0  0  0  0  0  0  0  0  0  0  0  0
  151.3235  138.7012  158.9468 C   0  0  0  0  0  0  0  0  0  0  0  0
  152.5043  139.5338  159.4736 C   0  0  0  0  0  0  0  0  0  0  0  0
  152.2595  141.0443  159.3514 C   0  0  0  0  0  0  0  0  0  0  0  0
  153.4398  141.8759  159.8779 C   0  0  0  0  0  0  0  0  0  0  0  0
  153.2313  143.3930  159.7249 C   0  0  0  0  0  0  0  0  0  0  0  0
  151.9519  143.9020  160.3911 C   0  0  0  0  0  0  0  0  0  0  0  0
  151.7184  145.2772  159.7636 C   0  0  0  0  0  0  0  0  0  0  0  0
  152.3127  145.1983  158.3498 C   0  0  0  0  0  0  0  0  0  0  0  0
  153.0876  143.8748  158.2759 C   0  0  0  0  0  0  0  0  0  0  0  0
  151.5829  139.9547  154.8046 H   0  0  0  0  0  0  0  0  0  0  0  0
  150.9963  138.3124  154.9778 H   0  0  0  0  0  0  0  0  0  0  0  0
  149.6063  141.8592  154.9581 H   0  0  0  0  0  0  0  0  0  0  0  0
  147.4427  142.3969  153.8106 H   0  0  0  0  0  0  0  0  0  0  0  0
  146.1460  140.5276  152.7562 H   0  0  0  0  0  0  0  0  0  0  0  0
  148.9568  137.7217  153.8928 H   0  0  0  0  0  0  0  0  0  0  0  0
  151.7725  137.9115  157.0364 H   0  0  0  0  0  0  0  0  0  0  0  0
  150.3793  139.0870  159.3347 H   0  0  0  0  0  0  0  0  0  0  0  0
  151.4070  137.6731  159.3000 H   0  0  0  0  0  0  0  0  0  0  0  0
  152.6925  139.2798  160.5175 H   0  0  0  0  0  0  0  0  0  0  0  0
  153.4097  139.2728  158.9242 H   0  0  0  0  0  0  0  0  0  0  0  0
  152.0778  141.2973  158.3061 H   0  0  0  0  0  0  0  0  0  0  0  0
  151.3520  141.3075  159.8954 H   0  0  0  0  0  0  0  0  0  0  0  0
  153.6256  141.6304  160.9244 H   0  0  0  0  0  0  0  0  0  0  0  0
  154.3414  141.5902  159.3345 H   0  0  0  0  0  0  0  0  0  0  0  0
  154.0743  143.9155  160.1802 H   0  0  0  0  0  0  0  0  0  0  0  0
  151.1165  143.2434  160.1491 H   0  0  0  0  0  0  0  0  0  0  0  0
  152.0344  143.9484  161.4775 H   0  0  0  0  0  0  0  0  0  0  0  0
  150.6629  145.5508  159.7567 H   0  0  0  0  0  0  0  0  0  0  0  0
  152.2497  146.0360  160.3396 H   0  0  0  0  0  0  0  0  0  0  0  0
  151.5314  145.2273  157.5895 H   0  0  0  0  0  0  0  0  0  0  0  0
  152.9728  146.0476  158.1701 H   0  0  0  0  0  0  0  0  0  0  0  0
  154.0525  143.9903  157.7811 H   0  0  0  0  0  0  0  0  0  0  0  0
  152.5093  143.1519  157.6985 H   0  0  0  0  0  0  0  0  0  0  0  0
  1  2  2  0  0  0  0
  2  3  1  0  0  0  0
  2 10  1  0  0  0  0
  3  4  1  0  0  0  0
  3 20  1  0  0  0  0
  3 21  1  0  0  0  0
  4  9  1  0  0  0  0
  4  5  2  0  0  0  0
  5  6  1  0  0  0  0
  5 22  1  0  0  0  0
  6  7  2  0  0  0  0
  6 23  1  0  0  0  0
  7  8  1  0  0  0  0
  7 24  1  0  0  0  0
  8  9  2  0  0  0  0
  9 25  1  0  0  0  0
 10 11  1  0  0  0  0
 10 26  1  0  0  0  0
 11 12  1  0  0  0  0
 11 27  1  0  0  0  0
 11 28  1  0  0  0  0
 12 13  1  0  0  0  0
 12 29  1  0  0  0  0
 12 30  1  0  0  0  0
 13 14  1  0  0  0  0
 13 31  1  0  0  0  0
 13 32  1  0  0  0  0
 14 15  1  0  0  0  0
 14 33  1  0  0  0  0
 14 34  1  0  0  0  0
 15 19  1  0  0  0  0
 15 16  1  0  0  0  0
 15 35  1  0  0  0  0
 16 17  1  0  0  0  0
 16 36  1  0  0  0  0
 16 37  1  0  0  0  0
 17 18  1  0  0  0  0
 17 38  1  0  0  0  0
 17 39  1  0  0  0  0
 18 19  1  0  0  0  0
 18 40  1  0  0  0  0
 18 41  1  0  0  0  0
 19 42  1  0  0  0  0
 19 43  1  0  0  0  0
M  END
> <s_m_source_file>
AV-unprocessed.smi

> <i_m_source_file_index>
717

> <i_lp_mmshare_version>
43012

> <i_f3d_flags>
0

> <s_epik_input>
W2NIXTFuW2NIXVtjSF1bY0hdYzFbQ0gyXUMoPU8pW05IXVtDSDJdW0NIMl1bQ0gyXVtDSDJdW0NIXTJbQ0gyXVtDSDJdW0NIMl1bQ0gyXTI=

> <s_epik_cmdline>
J2VwaWtfcHl0aG9uJywgJy1waCcsICc3LjAnLCAnLXRuJywgJzgnLCAnLW1hJywgJzIwMCcsICctbWV0YWxfYmluZGluZycsICctaW1hZScsICc8aW5maWxlLm1hZT4nLCAnLW9tYWUnLCAnPG91dGZpbGUubWFlPic=

> <r_epik_Ionization_Penalty>
0.00412097

> <r_epik_Ionization_Penalty_Charging>
0

> <r_epik_Ionization_Penalty_Neutral>
0.00412097

> <r_epik_State_Penalty>
0.00295657

> <r_epik_Charging_Adjusted_Penalty>
0.00295657

> <i_epik_Tot_Q>
0

> <i_epik_Tot_abs_Q>
0

> <r_epik_Metal_State_Penalty>
-0

> <b_epik_Metal_Only>
0

> <s_lp_Force_Field>
OPLS_2005

> <r_lp_Energy>
20.3192

> <b_lp_Chiralities_Consistent>
1

> <s_lp_Variant>
AV-unprocessed.smi:717-1

> <Gold.Version>
5.8.1

> <Gold.Id.Protein>
6NUR|6NUR_protein|mol2

> <Gold.PLP.Fitness>
50.3286

> <Gold.PLP.PLP>
-45.4588

> <Gold.PLP.part.hbond>
0.0000

> <Gold.PLP.part.metal>
0.0000

> <Gold.PLP.part.buried>
-4.0743

> <Gold.PLP.part.nonpolar>
-42.8612

> <Gold.PLP.part.repulsive>
1.2637

> <Gold.PLP.ligand.clash>
0.0000

> <Gold.PLP.ligand.torsion>
0.6191

> <Gold.PLP.Chemscore.Hbond>
0.0000

> <Gold.PLP.Chemscore.CHOScore>
2.0000

> <Gold.PLP.Chemscore.Metal>
0.0000

> <Gold.Chemscore.Hbonds>
donor molecule, donor type, donor heavy atom, donor atom, acceptor molecule, acceptor atom, score
      L1  C     7    24       P1 10175  1.00
      L1  C     9    25       P1  7948  0.89

> <Gold.PLP.Chemscore.Internal.Correction>
0.1081

> <Gold.Rescore>
     Score         DG    S(hbond)    S(metal)    S(lipo)     H(rot)  DE(clash)    DE(int)     intcor
     15.41     -17.14       0.00        0.00     136.16       1.67       0.04       1.69       ----

> <Gold.Chemscore.Fitness>
15.4093

> <Gold.Chemscore.DG>
-17.1421

> <Gold.Chemscore.ZeroCoef>
-5.4800

> <Gold.Chemscore.Hbond>
0.0000

> <Gold.Chemscore.Metal>
0.0000

> <Gold.Chemscore.Lipo>
136.1634

> <Gold.Chemscore.Internal_Hbond>
0.0000

> <Gold.Chemscore.DEClash>
0.0434

> <Gold.Chemscore.DEInternal>
1.6894

> <Gold.Chemscore.Rot>
1.6676

> <Gold.Chemscore.Internal.Correction>
   9.000000E+99

> <Gold.Chemscore.Hbond.Weighted>
-0.0000

> <Gold.Chemscore.Metal.Weighted>
-0.0000

> <Gold.Chemscore.Lipo.Weighted>
-15.9311

> <Gold.Chemscore.Internal_Hbond.Weighted>
0.0000

> <Gold.Chemscore.DEClash.Weighted>
0.0434

> <Gold.Chemscore.DEInternal.Weighted>
1.6894

> <Gold.Chemscore.Rot.Weighted>
4.2690

> <Gold.Chemscore.Internal.Correction.Weighted>
   9.000000E+99

> <Gold.Protein.RotatedTorsions>
[ 6907 6896 6895 6894 ] final  -93.54 input  -60.11 | X-H torsion
[ 7974 7965 7964 7962 ] final   80.86 input  175.53 | X-H torsion
[ 8008 7997 7996 7995 ] final   23.28 input   59.86 | X-H torsion
[ 10167 10162 10161 10158 ] final  -39.69 input  -65.29 | X-H torsion
[ 10718 10713 10712 10709 ] final    4.97 input   66.30 | X-H torsion
[ 10763 10752 10751 10750 ] final  -71.09 input  -60.55 | X-H torsion
[ 11005 11000 10999 10996 ] final   99.35 input  -57.11 | X-H torsion

> <Gold.Protein.ActiveResidues>
 VAL166  LYS551  ARG553  GLY616  TRP617  ASP618  TYR619  PRO620  LYS621  CYS622 
 ASP623  PHE694  ASN695  SER759  ASP760  ASP761  ALA762  ILE779  LEU786  VAL792 
 PHE793  MET794  SER795  GLU796  ALA797  LYS798  CYS799  TRP800  GLU811  SER814 

> <Gold.Protein.RotatedAtoms>
  150.6924  134.1951  159.4299 H   0  0  0  0  0  0  0  0  0  0  0  0  # atno 6907 bound_to 6896
  151.9920  134.9972  160.0571 H   0  0  0  0  0  0  0  0  0  0  0  0  # atno 6908 bound_to 6896
  152.1659  133.4577  159.4921 H   0  0  0  0  0  0  0  0  0  0  0  0  # atno 6909 bound_to 6896
  145.6457  139.2435  143.2005 H   0  0  0  0  0  0  0  0  0  0  0  0  # atno 7974 bound_to 7965
  154.9785  140.3099  155.4957 H   0  0  0  0  0  0  0  0  0  0  0  0  # atno 8008 bound_to 7997
  156.2956  140.2271  156.4822 H   0  0  0  0  0  0  0  0  0  0  0  0  # atno 8009 bound_to 7997
  154.7811  140.0446  157.1116 H   0  0  0  0  0  0  0  0  0  0  0  0  # atno 8010 bound_to 7997
  140.7056  143.3198  151.2819 H   0  0  0  0  0  0  0  0  0  0  0  0  # atno 10167 bound_to 10162
  156.9005  130.5720  149.5648 H   0  0  0  0  0  0  0  0  0  0  0  0  # atno 10718 bound_to 10713
  154.4268  135.5973  153.6044 H   0  0  0  0  0  0  0  0  0  0  0  0  # atno 10763 bound_to 10752
  152.9796  135.5965  154.3887 H   0  0  0  0  0  0  0  0  0  0  0  0  # atno 10764 bound_to 10752
  154.3720  135.2841  155.2239 H   0  0  0  0  0  0  0  0  0  0  0  0  # atno 10765 bound_to 10752
  139.8771  134.9091  156.4592 H   0  0  0  0  0  0  0  0  0  0  0  0  # atno 11005 bound_to 11000
  146.1245  140.7266  142.9442 LP  0  0  0  0  0  0  0  0  0  0  0  0  # atno 17320 bound_to 7965
  144.7141  140.4146  143.7058 LP  0  0  0  0  0  0  0  0  0  0  0  0  # atno 17321 bound_to 7965
  139.6649  144.0123  152.2716 LP  0  0  0  0  0  0  0  0  0  0  0  0  # atno 17342 bound_to 10162
  139.9702  144.6498  150.7996 LP  0  0  0  0  0  0  0  0  0  0  0  0  # atno 17343 bound_to 10162
  156.0584  130.5641  150.9141 LP  0  0  0  0  0  0  0  0  0  0  0  0  # atno 17370 bound_to 10713
  157.6029  131.0940  150.8929 LP  0  0  0  0  0  0  0  0  0  0  0  0  # atno 17371 bound_to 10713
  140.8876  133.7872  155.9536 LP  0  0  0  0  0  0  0  0  0  0  0  0  # atno 17394 bound_to 11000
  140.8788  134.2637  157.5155 LP  0  0  0  0  0  0  0  0  0  0  0  0  # atno 17395 bound_to 11000

$$$$
