AV-unprocessed.smi:284|AV-procd|sdf|2158|dock2
  -GOLD-   2262021503D 1   1.00000     0.00000
 Structure written by MMmdl.
 60 62  0  0  0  0  0  0  0  0  1 V2000
  151.2722  143.3850  157.6920 C   0  0  0  0  0  0  0  0  0  0  0  0
  151.0443  142.0012  157.1045 C   0  0  0  0  0  0  0  0  0  0  0  0
  150.3116  141.8075  155.9837 C   0  0  0  0  0  0  0  0  0  0  0  0
  150.0862  140.5635  155.4250 N   0  0  0  0  0  0  0  0  0  0  0  0
  149.2611  140.4016  154.1706 C   0  0  1  0  0  0  0  0  0  0  0  0
  148.0771  139.4726  154.4155 C   0  0  0  0  0  0  0  0  0  0  0  0
  147.0871  140.0178  153.4105 C   0  0  1  0  0  0  0  0  0  0  0  0
  145.7630  139.6364  153.7261 O   0  0  0  0  0  0  0  0  0  0  0  0
  147.3579  141.5330  153.4567 C   0  0  1  0  0  0  0  0  0  0  0  0
  146.5637  142.3271  154.5148 C   0  0  0  0  0  0  0  0  0  0  0  0
  146.8286  141.8386  155.8134 O   0  0  0  0  0  0  0  0  0  0  0  0
  148.7449  141.6429  153.7868 O   0  0  0  0  0  0  0  0  0  0  0  0
  150.6004  139.4121  156.0533 C   0  0  0  0  0  0  0  0  0  0  0  0
  150.3844  138.2896  155.5902 O   0  0  0  0  0  0  0  0  0  0  0  0
  151.3680  139.5790  157.2277 N   0  0  0  0  0  0  0  0  0  0  0  0
  151.9328  138.3741  157.8758 C   0  0  0  0  0  0  0  0  0  0  0  0
  150.9602  137.6848  158.8455 C   0  0  0  0  0  0  0  0  0  0  0  0
  151.3758  137.1568  159.8779 O   0  0  0  0  0  0  0  0  0  0  0  0
  149.6643  137.7436  158.4890 N   0  0  0  0  0  0  0  0  0  0  0  0
  148.5365  137.1812  159.1454 C   0  0  0  0  0  0  0  0  0  0  0  0
  148.7821  136.3052  160.2202 C   0  0  0  0  0  0  0  0  0  0  0  0
  147.7154  135.7294  160.9366 C   0  0  0  0  0  0  0  0  0  0  0  0
  146.3714  136.0258  160.6006 C   0  0  0  0  0  0  0  0  0  0  0  0
  145.1770  135.4228  161.3645 C   0  0  0  0  0  0  0  0  0  0  0  0
  145.6937  134.4353  162.4313 C   0  0  0  0  0  0  0  0  0  0  0  0
  144.1996  134.6537  160.4469 C   0  0  0  0  0  0  0  0  0  0  0  0
  144.3787  136.5482  162.0556 C   0  0  0  0  0  0  0  0  0  0  0  0
  146.1347  136.9190  159.5291 C   0  0  0  0  0  0  0  0  0  0  0  0
  147.1994  137.4953  158.8106 C   0  0  0  0  0  0  0  0  0  0  0  0
  151.6371  140.8506  157.7912 C   0  0  0  0  0  0  0  0  0  0  0  0
  152.3349  140.9553  158.8017 O   0  0  0  0  0  0  0  0  0  0  0  0
  150.8034  144.1640  157.0898 H   0  0  0  0  0  0  0  0  0  0  0  0
  152.3389  143.6053  157.7486 H   0  0  0  0  0  0  0  0  0  0  0  0
  150.8556  143.4450  158.6980 H   0  0  0  0  0  0  0  0  0  0  0  0
  149.8788  142.6750  155.5091 H   0  0  0  0  0  0  0  0  0  0  0  0
  149.9293  140.0567  153.3795 H   0  0  0  0  0  0  0  0  0  0  0  0
  148.3490  138.4288  154.2555 H   0  0  0  0  0  0  0  0  0  0  0  0
  147.7131  139.6001  155.4366 H   0  0  0  0  0  0  0  0  0  0  0  0
  147.3372  139.6378  152.4187 H   0  0  0  0  0  0  0  0  0  0  0  0
  145.1684  140.2360  153.3011 H   0  0  0  0  0  0  0  0  0  0  0  0
  147.2011  141.9808  152.4743 H   0  0  0  0  0  0  0  0  0  0  0  0
  146.7816  143.3941  154.4642 H   0  0  0  0  0  0  0  0  0  0  0  0
  145.4940  142.2110  154.3380 H   0  0  0  0  0  0  0  0  0  0  0  0
  146.6561  140.9093  155.8256 H   0  0  0  0  0  0  0  0  0  0  0  0
  152.2582  137.6375  157.1399 H   0  0  0  0  0  0  0  0  0  0  0  0
  152.8474  138.6268  158.4152 H   0  0  0  0  0  0  0  0  0  0  0  0
  149.4567  138.3006  157.6727 H   0  0  0  0  0  0  0  0  0  0  0  0
  149.7975  136.0655  160.5005 H   0  0  0  0  0  0  0  0  0  0  0  0
  147.9626  135.0615  161.7468 H   0  0  0  0  0  0  0  0  0  0  0  0
  144.8701  133.9774  162.9801 H   0  0  0  0  0  0  0  0  0  0  0  0
  146.3343  134.9231  163.1661 H   0  0  0  0  0  0  0  0  0  0  0  0
  146.2712  133.6298  161.9760 H   0  0  0  0  0  0  0  0  0  0  0  0
  144.6872  133.8143  159.9493 H   0  0  0  0  0  0  0  0  0  0  0  0
  143.7725  135.3015  159.6804 H   0  0  0  0  0  0  0  0  0  0  0  0
  143.3654  134.2422  161.0163 H   0  0  0  0  0  0  0  0  0  0  0  0
  143.5122  136.1517  162.5861 H   0  0  0  0  0  0  0  0  0  0  0  0
  144.0126  137.2748  161.3293 H   0  0  0  0  0  0  0  0  0  0  0  0
  144.9782  137.0894  162.7875 H   0  0  0  0  0  0  0  0  0  0  0  0
  145.1250  137.1800  159.2495 H   0  0  0  0  0  0  0  0  0  0  0  0
  146.9654  138.1882  158.0171 H   0  0  0  0  0  0  0  0  0  0  0  0
  1  2  1  0  0  0  0
  1 32  1  0  0  0  0
  1 33  1  0  0  0  0
  1 34  1  0  0  0  0
  2 30  1  0  0  0  0
  2  3  2  0  0  0  0
  3  4  1  0  0  0  0
  3 35  1  0  0  0  0
  4  5  1  0  0  0  0
  4 13  1  0  0  0  0
  5 12  1  0  0  0  0
  5  6  1  0  0  0  0
  5 36  1  0  0  0  0
  6  7  1  0  0  0  0
  6 37  1  0  0  0  0
  6 38  1  0  0  0  0
  7  8  1  0  0  0  0
  7  9  1  0  0  0  0
  7 39  1  0  0  0  0
  8 40  1  0  0  0  0
  9 10  1  0  0  0  0
  9 12  1  0  0  0  0
  9 41  1  0  0  0  0
 10 11  1  0  0  0  0
 10 42  1  0  0  0  0
 10 43  1  0  0  0  0
 11 44  1  0  0  0  0
 13 14  2  0  0  0  0
 13 15  1  0  0  0  0
 15 16  1  0  0  0  0
 15 30  1  0  0  0  0
 16 17  1  0  0  0  0
 16 45  1  0  0  0  0
 16 46  1  0  0  0  0
 17 18  2  0  0  0  0
 17 19  1  0  0  0  0
 19 20  1  0  0  0  0
 19 47  1  0  0  0  0
 20 29  1  0  0  0  0
 20 21  2  0  0  0  0
 21 22  1  0  0  0  0
 21 48  1  0  0  0  0
 22 23  2  0  0  0  0
 22 49  1  0  0  0  0
 23 24  1  0  0  0  0
 23 28  1  0  0  0  0
 24 25  1  0  0  0  0
 24 26  1  0  0  0  0
 24 27  1  0  0  0  0
 25 50  1  0  0  0  0
 25 51  1  0  0  0  0
 25 52  1  0  0  0  0
 26 53  1  0  0  0  0
 26 54  1  0  0  0  0
 26 55  1  0  0  0  0
 27 56  1  0  0  0  0
 27 57  1  0  0  0  0
 27 58  1  0  0  0  0
 28 29  2  0  0  0  0
 28 59  1  0  0  0  0
 29 60  1  0  0  0  0
 30 31  2  0  0  0  0
M  END
> <s_m_source_file>
AV-unprocessed.smi

> <i_m_source_file_index>
284

> <i_lp_mmshare_version>
43012

> <i_f3d_flags>
0

> <s_epik_input>
W09IXVtDSDJdW0NAQEhdKE8xKVtDQEhdKFtPSF0pW0NIMl1bQ0BIXTFuKFtjSF1jMltDSDNdKWMoPU8pbihjMj1PKVtDSDJdQyg9TylbTkhdYzNbY0hdW2NIXWMoQyhbQ0gzXSkoW0NIM10pW0NIM10pW2NIXVtjSF0z

> <s_epik_cmdline>
J2VwaWtfcHl0aG9uJywgJy1waCcsICc3LjAnLCAnLXRuJywgJzgnLCAnLW1hJywgJzIwMCcsICctbWV0YWxfYmluZGluZycsICctaW1hZScsICc8aW5maWxlLm1hZT4nLCAnLW9tYWUnLCAnPG91dGZpbGUubWFlPic=

> <r_lp_tautomer_probability>
1

> <r_epik_Ionization_Penalty>
4.92358e-06

> <r_epik_Ionization_Penalty_Charging>
1.29777e-07

> <r_epik_Ionization_Penalty_Neutral>
4.79381e-06

> <r_epik_State_Penalty>
-0

> <r_epik_Charging_Adjusted_Penalty>
1.29777e-07

> <i_epik_Tot_Q>
0

> <i_epik_Tot_abs_Q>
0

> <r_epik_Metal_State_Penalty>
-0

> <b_epik_Metal_Only>
0

> <s_epik_Chemistry_Notes>
This compound contains an acetal/aminal-like group ( X-CH(R)-Y where X, Y are N, S, or O) that may be acid/base labile, releasing an aldehyde.

> <s_lp_Force_Field>
OPLS_2005

> <r_lp_Energy>
41.7726

> <b_lp_Chiralities_Consistent>
1

> <s_lp_Variant>
AV-unprocessed.smi:284-2

> <Gold.Version>
5.8.1

> <Gold.Id.Protein>
6NUR|6NUR_protein|mol2

> <Gold.PLP.Fitness>
54.5357

> <Gold.PLP.PLP>
-45.0167

> <Gold.PLP.part.hbond>
-2.9940

> <Gold.PLP.part.metal>
0.0000

> <Gold.PLP.part.buried>
-7.0080

> <Gold.PLP.part.nonpolar>
-36.9363

> <Gold.PLP.part.repulsive>
0.3797

> <Gold.PLP.ligand.clash>
0.0000

> <Gold.PLP.ligand.torsion>
0.7912

> <Gold.PLP.Chemscore.Hbond>
2.6560

> <Gold.PLP.Chemscore.CHOScore>
1.0000

> <Gold.PLP.Chemscore.Metal>
0.0000

> <Gold.Chemscore.Hbonds>
donor molecule, donor type, donor heavy atom, donor atom, acceptor molecule, acceptor atom, score
      L1  H     8    40       P1 10175  0.98
      P1  H  6896  6909       L1    18  1.00
      P1  H  8011  8017       L1    12  0.64
      L1  C     3    35       P1  8028  1.00

> <Gold.PLP.Chemscore.Internal.Correction>
0.1334

> <Gold.Rescore>
     Score         DG    S(hbond)    S(metal)    S(lipo)     H(rot)  DE(clash)    DE(int)     intcor
     13.43     -17.72       2.52        0.00     104.20       3.27       0.69       3.59       ----

> <Gold.Chemscore.Fitness>
13.4307

> <Gold.Chemscore.DG>
-17.7160

> <Gold.Chemscore.ZeroCoef>
-5.4800

> <Gold.Chemscore.Hbond>
2.5223

> <Gold.Chemscore.Metal>
0.0000

> <Gold.Chemscore.Lipo>
104.2021

> <Gold.Chemscore.Internal_Hbond>
0.0000

> <Gold.Chemscore.DEClash>
0.6923

> <Gold.Chemscore.DEInternal>
3.5930

> <Gold.Chemscore.Rot>
3.2735

> <Gold.Chemscore.Internal.Correction>
   9.000000E+99

> <Gold.Chemscore.Hbonds>
donor molecule, donor type, donor heavy atom, donor atom, acceptor molecule, acceptor atom, score
      L1  H     8    40       P1 10175  0.93
      P1  H  6896  6909       L1    18  0.93
      P1  H  8011  8017       L1    12  0.43

> <Gold.Chemscore.Hbond.Weighted>
-8.4245

> <Gold.Chemscore.Metal.Weighted>
-0.0000

> <Gold.Chemscore.Lipo.Weighted>
-12.1916

> <Gold.Chemscore.Internal_Hbond.Weighted>
0.0000

> <Gold.Chemscore.DEClash.Weighted>
0.6923

> <Gold.Chemscore.DEInternal.Weighted>
3.5930

> <Gold.Chemscore.Rot.Weighted>
8.3801

> <Gold.Chemscore.Internal.Correction.Weighted>
   9.000000E+99

> <Gold.Protein.RotatedTorsions>
[ 6907 6896 6895 6894 ] final  111.00 input  -60.11 | X-H torsion
[ 7974 7965 7964 7962 ] final   90.33 input  175.53 | X-H torsion
[ 8008 7997 7996 7995 ] final  -43.15 input   59.86 | X-H torsion
[ 10167 10162 10161 10158 ] final   60.62 input  -65.29 | X-H torsion
[ 10718 10713 10712 10709 ] final  -13.18 input   66.30 | X-H torsion
[ 10763 10752 10751 10750 ] final  -88.79 input  -60.55 | X-H torsion
[ 11005 11000 10999 10996 ] final -110.74 input  -57.11 | X-H torsion

> <Gold.Protein.ActiveResidues>
 VAL166  LYS551  ARG553  GLY616  TRP617  ASP618  TYR619  PRO620  LYS621  CYS622 
 ASP623  PHE694  ASN695  SER759  ASP760  ASP761  ALA762  ILE779  LEU786  VAL792 
 PHE793  MET794  SER795  GLU796  ALA797  LYS798  CYS799  TRP800  GLU811  SER814 

> <Gold.Protein.RotatedAtoms>
  152.4992  133.8721  159.7303 H   0  0  0  0  0  0  0  0  0  0  0  0  # atno 6907 bound_to 6896
  150.9205  133.6878  159.2840 H   0  0  0  0  0  0  0  0  0  0  0  0  # atno 6908 bound_to 6896
  151.4256  135.1008  159.9679 H   0  0  0  0  0  0  0  0  0  0  0  0  # atno 6909 bound_to 6896
  145.5204  139.2279  143.2675 H   0  0  0  0  0  0  0  0  0  0  0  0  # atno 7974 bound_to 7965
  154.3997  140.1455  156.3471 H   0  0  0  0  0  0  0  0  0  0  0  0  # atno 8008 bound_to 7997
  155.8303  140.3466  155.5547 H   0  0  0  0  0  0  0  0  0  0  0  0  # atno 8009 bound_to 7997
  155.8195  140.0896  157.1848 H   0  0  0  0  0  0  0  0  0  0  0  0  # atno 8010 bound_to 7997
  140.1636  144.4346  150.6697 H   0  0  0  0  0  0  0  0  0  0  0  0  # atno 10167 bound_to 10162
  156.6340  130.4909  149.6119 H   0  0  0  0  0  0  0  0  0  0  0  0  # atno 10718 bound_to 10713
  154.6484  135.5364  153.7872 H   0  0  0  0  0  0  0  0  0  0  0  0  # atno 10763 bound_to 10752
  153.0372  135.6476  154.1054 H   0  0  0  0  0  0  0  0  0  0  0  0  # atno 10764 bound_to 10752
  154.0973  135.2935  155.3239 H   0  0  0  0  0  0  0  0  0  0  0  0  # atno 10765 bound_to 10752
  141.0775  133.9277  157.2360 H   0  0  0  0  0  0  0  0  0  0  0  0  # atno 11005 bound_to 11000
  146.2109  140.6016  142.9060 LP  0  0  0  0  0  0  0  0  0  0  0  0  # atno 17320 bound_to 7965
  144.7679  140.5572  143.6690 LP  0  0  0  0  0  0  0  0  0  0  0  0  # atno 17321 bound_to 7965
  140.6627  143.2257  151.5817 LP  0  0  0  0  0  0  0  0  0  0  0  0  # atno 17342 bound_to 10162
  139.5370  144.2754  152.1272 LP  0  0  0  0  0  0  0  0  0  0  0  0  # atno 17343 bound_to 10162
  156.2212  130.6738  151.1370 LP  0  0  0  0  0  0  0  0  0  0  0  0  # atno 17370 bound_to 10713
  157.7191  131.0692  150.6208 LP  0  0  0  0  0  0  0  0  0  0  0  0  # atno 17371 bound_to 10713
  139.9587  135.0159  156.9201 LP  0  0  0  0  0  0  0  0  0  0  0  0  # atno 17394 bound_to 11000
  140.5542  134.0598  155.7378 LP  0  0  0  0  0  0  0  0  0  0  0  0  # atno 17395 bound_to 11000

$$$$
