AV-unprocessed.smi:1535|AV-procd|sdf|6177|dock10
  -GOLD-   22720 6333D 1   1.00000     0.00000
 Structure written by MMmdl.
 47 48  0  0  0  0  0  0  0  0  2 V2000
  152.2279  144.0053  160.2312 C   0  0  0  0  0  0  0  0  0  0  0  0
  151.9538  142.9074  159.2175 C   0  0  0  0  0  0  0  0  0  0  0  0
  150.9957  143.1462  158.2071 C   0  0  0  0  0  0  0  0  0  0  0  0
  150.7667  142.1228  157.2954 C   0  0  0  0  0  0  0  0  0  0  0  0
  149.8994  142.0517  156.2037 N   0  3  0  0  0  0  0  0  0  0  0  0
  150.0238  140.8362  155.6034 C   0  0  0  0  0  0  0  0  0  0  0  0
  150.9493  140.1244  156.3032 N   0  0  0  0  0  0  0  0  0  0  0  0
  151.4342  138.7566  156.0745 C   0  0  0  0  0  0  0  0  0  0  0  0
  150.6460  137.9969  154.9830 C   0  0  1  0  0  0  0  0  0  0  0  0
  151.5791  137.1465  154.3490 O   0  0  0  0  0  0  0  0  0  0  0  0
  149.4834  137.1196  155.5146 C   0  0  0  0  0  0  0  0  0  0  0  0
  149.8579  135.8057  156.0457 N   0  0  0  0  0  0  0  0  0  0  0  0
  150.7640  135.9726  157.1775 C   0  0  0  0  0  0  0  0  0  0  0  0
  148.6880  135.0094  156.4211 C   0  0  0  0  0  0  0  0  0  0  0  0
  148.8880  133.4835  156.4483 C   0  0  1  0  0  0  0  0  0  0  0  0
  149.2463  132.9579  155.0523 C   0  0  0  0  0  0  0  0  0  0  0  0
  149.9130  133.0904  157.4292 C   0  0  0  0  0  0  0  0  0  0  0  0
  150.7192  132.7809  158.1989 N   0  0  0  0  0  0  0  0  0  0  0  0
  151.4518  140.8930  157.3609 C   0  0  0  0  0  0  0  0  0  0  0  0
  152.4030  140.6449  158.3484 C   0  0  0  0  0  0  0  0  0  0  0  0
  152.6470  141.6716  159.2880 C   0  0  0  0  0  0  0  0  0  0  0  0
  153.6716  141.4229  160.3818 C   0  0  0  0  0  0  0  0  0  0  0  0
  151.6498  144.9037  160.0133 H   0  0  0  0  0  0  0  0  0  0  0  0
  153.2830  144.2799  160.2240 H   0  0  0  0  0  0  0  0  0  0  0  0
  151.9630  143.6730  161.2353 H   0  0  0  0  0  0  0  0  0  0  0  0
  150.4636  144.0845  158.1470 H   0  0  0  0  0  0  0  0  0  0  0  0
  149.4775  140.4930  154.7364 H   0  0  0  0  0  0  0  0  0  0  0  0
  152.4780  138.8534  155.7714 H   0  0  0  0  0  0  0  0  0  0  0  0
  151.4463  138.2058  157.0149 H   0  0  0  0  0  0  0  0  0  0  0  0
  150.2923  138.6942  154.2225 H   0  0  0  0  0  0  0  0  0  0  0  0
  151.2652  136.9530  153.4787 H   0  0  0  0  0  0  0  0  0  0  0  0
  148.9778  137.6735  156.3080 H   0  0  0  0  0  0  0  0  0  0  0  0
  148.7226  136.9980  154.7446 H   0  0  0  0  0  0  0  0  0  0  0  0
  151.1522  135.0145  157.5208 H   0  0  0  0  0  0  0  0  0  0  0  0
  150.2645  136.4619  158.0147 H   0  0  0  0  0  0  0  0  0  0  0  0
  151.6264  136.5789  156.8978 H   0  0  0  0  0  0  0  0  0  0  0  0
  148.3194  135.3420  157.3925 H   0  0  0  0  0  0  0  0  0  0  0  0
  147.8886  135.1981  155.7093 H   0  0  0  0  0  0  0  0  0  0  0  0
  147.9639  132.9941  156.7532 H   0  0  0  0  0  0  0  0  0  0  0  0
  149.3665  131.8741  155.0621 H   0  0  0  0  0  0  0  0  0  0  0  0
  150.1797  133.3933  154.6942 H   0  0  0  0  0  0  0  0  0  0  0  0
  148.4665  133.1978  154.3287 H   0  0  0  0  0  0  0  0  0  0  0  0
  152.9341  139.7067  158.4064 H   0  0  0  0  0  0  0  0  0  0  0  0
  154.0901  140.4181  160.3160 H   0  0  0  0  0  0  0  0  0  0  0  0
  153.2148  141.5282  161.3661 H   0  0  0  0  0  0  0  0  0  0  0  0
  154.4952  142.1329  160.3033 H   0  0  0  0  0  0  0  0  0  0  0  0
  149.2698  142.7782  155.8873 H   0  0  0  0  0  0  0  0  0  0  0  0
  1  2  1  0  0  0  0
  1 23  1  0  0  0  0
  1 24  1  0  0  0  0
  1 25  1  0  0  0  0
  2 21  1  0  0  0  0
  2  3  2  0  0  0  0
  3  4  1  0  0  0  0
  3 26  1  0  0  0  0
  4 19  2  0  0  0  0
  4  5  1  0  0  0  0
  5  6  2  0  0  0  0
  5 47  1  0  0  0  0
  6  7  1  0  0  0  0
  6 27  1  0  0  0  0
  7  8  1  0  0  0  0
  7 19  1  0  0  0  0
  8  9  1  0  0  0  0
  8 28  1  0  0  0  0
  8 29  1  0  0  0  0
  9 10  1  0  0  0  0
  9 11  1  0  0  0  0
  9 30  1  0  0  0  0
 10 31  1  0  0  0  0
 11 12  1  0  0  0  0
 11 32  1  0  0  0  0
 11 33  1  0  0  0  0
 12 13  1  0  0  0  0
 12 14  1  0  0  0  0
 13 34  1  0  0  0  0
 13 35  1  0  0  0  0
 13 36  1  0  0  0  0
 14 15  1  0  0  0  0
 14 37  1  0  0  0  0
 14 38  1  0  0  0  0
 15 16  1  0  0  0  0
 15 17  1  0  0  0  0
 15 39  1  0  0  0  0
 16 40  1  0  0  0  0
 16 41  1  0  0  0  0
 16 42  1  0  0  0  0
 17 18  3  0  0  0  0
 19 20  1  0  0  0  0
 20 21  2  0  0  0  0
 20 43  1  0  0  0  0
 21 22  1  0  0  0  0
 22 44  1  0  0  0  0
 22 45  1  0  0  0  0
 22 46  1  0  0  0  0
M  CHG  1   5   1
M  END
> <s_m_source_file>
AV-unprocessed.smi

> <i_m_source_file_index>
1535

> <i_lp_mmshare_version>
43012

> <i_f3d_flags>
0

> <s_epik_input>
W0NIM11jKFtjSF0xKWMoW0NIM10pW2NIXWMoYzEyKW4oW2NIXW4yKVtDSDJdW0NASF0oW09IXSlbQ0gyXU4oW0NIM10pW0NIMl1bQ0BIXShbQ0gzXSlDI04=

> <s_epik_cmdline>
J2VwaWtfcHl0aG9uJywgJy1waCcsICc3LjAnLCAnLXRuJywgJzgnLCAnLW1hJywgJzIwMCcsICctbWV0YWxfYmluZGluZycsICctaW1hZScsICc8aW5maWxlLm1hZT4nLCAnLW9tYWUnLCAnPG91dGZpbGUubWFlPic=

> <r_epik_Ionization_Penalty>
1.22846

> <r_epik_Ionization_Penalty_Charging>
1.21333

> <r_epik_Ionization_Penalty_Neutral>
0.0151341

> <r_epik_State_Penalty>
1.27012

> <r_epik_Charging_Adjusted_Penalty>
2.48344

> <i_epik_Tot_Q>
1

> <i_epik_Tot_abs_Q>
1

> <r_epik_Metal_State_Penalty>
5.28751

> <b_epik_Metal_Only>
0

> <s_lp_Force_Field>
OPLS_2005

> <r_lp_Energy>
29.5902

> <b_lp_Chiralities_Consistent>
1

> <s_lp_Variant>
AV-unprocessed.smi:1535-8

> <Gold.Version>
5.8.1

> <Gold.Id.Protein>
6NUR|6NUR_protein|mol2

> <Gold.PLP.Fitness>
57.1112

> <Gold.PLP.PLP>
-43.9345

> <Gold.PLP.part.hbond>
-4.0000

> <Gold.PLP.part.metal>
0.0000

> <Gold.PLP.part.buried>
-4.5043

> <Gold.PLP.part.nonpolar>
-35.4128

> <Gold.PLP.part.repulsive>
0.2425

> <Gold.PLP.ligand.clash>
0.0000

> <Gold.PLP.ligand.torsion>
0.9516

> <Gold.PLP.Chemscore.Hbond>
4.9920

> <Gold.PLP.Chemscore.CHOScore>
0.0000

> <Gold.PLP.Chemscore.Metal>
0.0000

> <Gold.Chemscore.Hbonds>
donor molecule, donor type, donor heavy atom, donor atom, acceptor molecule, acceptor atom, score
      L1  H     5    47       P1  8028  1.95
      L1  H    10    31       P1  7949  0.55
      P1  H  6896  6908       L1    18  0.37
      P1  H 10752 10765       L1    10  0.50

> <Gold.PLP.Chemscore.Internal.Correction>
0.1039

> <Gold.Rescore>
     Score         DG    S(hbond)    S(metal)    S(lipo)     H(rot)  DE(clash)    DE(int)     intcor
     19.78     -21.38       3.02        0.00     106.47       2.59       0.03       1.57       ----

> <Gold.Chemscore.Fitness>
19.7759

> <Gold.Chemscore.DG>
-21.3801

> <Gold.Chemscore.ZeroCoef>
-5.4800

> <Gold.Chemscore.Hbond>
3.0173

> <Gold.Chemscore.Metal>
0.0000

> <Gold.Chemscore.Lipo>
106.4741

> <Gold.Chemscore.Internal_Hbond>
0.0000

> <Gold.Chemscore.DEClash>
0.0299

> <Gold.Chemscore.DEInternal>
1.5743

> <Gold.Chemscore.Rot>
2.5918

> <Gold.Chemscore.Internal.Correction>
   9.000000E+99

> <Gold.Chemscore.Hbonds>
donor molecule, donor type, donor heavy atom, donor atom, acceptor molecule, acceptor atom, score
      L1  H     5    47       P1  8028  0.90
      L1  H    10    31       P1  7949  0.35
      P1  H  6896  6908       L1    18  0.37
      P1  H 10752 10765       L1    10  0.02

> <Gold.Chemscore.Hbond.Weighted>
-10.0778

> <Gold.Chemscore.Metal.Weighted>
-0.0000

> <Gold.Chemscore.Lipo.Weighted>
-12.4575

> <Gold.Chemscore.Internal_Hbond.Weighted>
0.0000

> <Gold.Chemscore.DEClash.Weighted>
0.0299

> <Gold.Chemscore.DEInternal.Weighted>
1.5743

> <Gold.Chemscore.Rot.Weighted>
6.6351

> <Gold.Chemscore.Internal.Correction.Weighted>
   9.000000E+99

> <Gold.Protein.RotatedTorsions>
[ 6907 6896 6895 6894 ] final   94.03 input  -60.11 | X-H torsion
[ 7974 7965 7964 7962 ] final  -81.08 input  175.53 | X-H torsion
[ 8008 7997 7996 7995 ] final   18.39 input   59.86 | X-H torsion
[ 10167 10162 10161 10158 ] final  -15.11 input  -65.29 | X-H torsion
[ 10718 10713 10712 10709 ] final  162.68 input   66.30 | X-H torsion
[ 10763 10752 10751 10750 ] final  154.37 input  -60.55 | X-H torsion
[ 11005 11000 10999 10996 ] final  -49.14 input  -57.11 | X-H torsion

> <Gold.Protein.ActiveResidues>
 VAL166  LYS551  ARG553  GLY616  TRP617  ASP618  TYR619  PRO620  LYS621  CYS622 
 ASP623  PHE694  ASN695  SER759  ASP760  ASP761  ALA762  ILE779  LEU786  VAL792 
 PHE793  MET794  SER795  GLU796  ALA797  LYS798  CYS799  TRP800  GLU811  SER814 

> <Gold.Protein.RotatedAtoms>
  152.5451  134.1256  159.8417 H   0  0  0  0  0  0  0  0  0  0  0  0  # atno 6907 bound_to 6896
  151.1308  133.5031  159.2606 H   0  0  0  0  0  0  0  0  0  0  0  0  # atno 6908 bound_to 6896
  151.1678  135.0313  159.8793 H   0  0  0  0  0  0  0  0  0  0  0  0  # atno 6909 bound_to 6896
  145.5514  140.9496  143.1497 H   0  0  0  0  0  0  0  0  0  0  0  0  # atno 7974 bound_to 7965
  154.9053  140.3006  155.5295 H   0  0  0  0  0  0  0  0  0  0  0  0  # atno 8008 bound_to 7997
  156.3017  140.2399  156.4021 H   0  0  0  0  0  0  0  0  0  0  0  0  # atno 8009 bound_to 7997
  154.8480  140.0410  157.1574 H   0  0  0  0  0  0  0  0  0  0  0  0  # atno 8010 bound_to 7997
  140.7213  143.5252  150.9586 H   0  0  0  0  0  0  0  0  0  0  0  0  # atno 10167 bound_to 10162
  157.1192  131.0488  151.2423 H   0  0  0  0  0  0  0  0  0  0  0  0  # atno 10718 bound_to 10713
  154.1512  135.2815  155.3134 H   0  0  0  0  0  0  0  0  0  0  0  0  # atno 10763 bound_to 10752
  154.6215  135.5465  153.7584 H   0  0  0  0  0  0  0  0  0  0  0  0  # atno 10764 bound_to 10752
  153.0220  135.6440  154.1657 H   0  0  0  0  0  0  0  0  0  0  0  0  # atno 10765 bound_to 10752
  141.0742  133.6670  156.3542 H   0  0  0  0  0  0  0  0  0  0  0  0  # atno 11005 bound_to 11000
  144.7527  139.7152  143.7266 LP  0  0  0  0  0  0  0  0  0  0  0  0  # atno 17320 bound_to 7965
  146.1914  139.5156  142.9803 LP  0  0  0  0  0  0  0  0  0  0  0  0  # atno 17321 bound_to 7965
  139.8970  143.6882  152.3137 LP  0  0  0  0  0  0  0  0  0  0  0  0  # atno 17342 bound_to 10162
  139.7218  144.7601  151.0943 LP  0  0  0  0  0  0  0  0  0  0  0  0  # atno 17343 bound_to 10162
  157.4491  130.7588  149.7136 LP  0  0  0  0  0  0  0  0  0  0  0  0  # atno 17370 bound_to 10713
  155.9832  130.4002  150.3374 LP  0  0  0  0  0  0  0  0  0  0  0  0  # atno 17371 bound_to 10713
  140.5609  134.5935  157.5433 LP  0  0  0  0  0  0  0  0  0  0  0  0  # atno 17394 bound_to 11000
  139.9554  134.7544  156.0353 LP  0  0  0  0  0  0  0  0  0  0  0  0  # atno 17395 bound_to 11000

$$$$
