AV-unprocessed.smi:1481|AV-procd|sdf|5987|dock5
  -GOLD-   22720 6 83D 1   1.00000     0.00000
 Structure written by MMmdl.
 39 40  0  0  0  0  0  0  0  0  1 V2000
  151.1038  135.7199  155.5346 O   0  0  0  0  0  0  0  0  0  0  0  0
  150.0975  136.1920  155.0052 C   0  0  0  0  0  0  0  0  0  0  0  0
  150.0511  137.3997  154.4251 N   0  0  0  0  0  0  0  0  0  0  0  0
  151.1830  138.3156  154.3207 C   0  0  0  0  0  0  0  0  0  0  0  0
  151.6108  138.9392  155.6422 C   0  0  0  0  0  0  0  0  0  0  0  0
  150.8586  139.9536  156.2709 C   0  0  0  0  0  0  0  0  0  0  0  0
  151.3140  140.4857  157.4920 C   0  0  0  0  0  0  0  0  0  0  0  0
  152.5118  139.9889  158.0588 C   0  0  0  0  0  0  0  0  0  0  0  0
  152.9924  140.5145  159.2782 N   0  0  0  0  0  0  0  0  0  0  0  0
  154.0923  139.8141  159.9394 C   0  0  0  0  0  0  0  0  0  0  0  0
  154.2894  140.3504  161.3671 C   0  0  0  0  0  0  0  0  0  0  0  0
  154.4826  141.7602  161.3270 O   0  0  0  0  0  0  0  0  0  0  0  0
  153.3529  142.4330  160.7815 C   0  0  0  0  0  0  0  0  0  0  0  0
  153.1176  141.9693  159.3334 C   0  0  0  0  0  0  0  0  0  0  0  0
  153.2222  139.0014  157.4594 N   0  0  0  0  0  0  0  0  0  0  0  0
  152.7823  138.4962  156.2880 C   0  0  0  0  0  0  0  0  0  0  0  0
  148.9204  135.5570  154.9283 N   0  0  0  0  0  0  0  0  0  0  0  0
  148.6650  134.2074  155.4212 C   0  0  0  0  0  0  0  0  0  0  0  0
  148.1683  133.2724  154.3054 C   0  0  0  0  0  0  0  0  0  0  0  0
  147.8354  132.0968  154.8365 F   0  0  0  0  0  0  0  0  0  0  0  0
  147.0930  133.7930  153.7136 F   0  0  0  0  0  0  0  0  0  0  0  0
  149.1177  133.0722  153.3915 F   0  0  0  0  0  0  0  0  0  0  0  0
  149.1789  137.7024  154.0169 H   0  0  0  0  0  0  0  0  0  0  0  0
  152.0304  137.7634  153.9139 H   0  0  0  0  0  0  0  0  0  0  0  0
  150.9518  139.1014  153.5993 H   0  0  0  0  0  0  0  0  0  0  0  0
  149.9439  140.3232  155.8319 H   0  0  0  0  0  0  0  0  0  0  0  0
  150.7354  141.2542  157.9821 H   0  0  0  0  0  0  0  0  0  0  0  0
  153.8874  138.7436  159.9818 H   0  0  0  0  0  0  0  0  0  0  0  0
  155.0071  139.9497  159.3604 H   0  0  0  0  0  0  0  0  0  0  0  0
  153.4316  140.1071  161.9962 H   0  0  0  0  0  0  0  0  0  0  0  0
  155.1622  139.8853  161.8257 H   0  0  0  0  0  0  0  0  0  0  0  0
  152.4717  142.2453  161.3976 H   0  0  0  0  0  0  0  0  0  0  0  0
  153.5342  143.5075  160.8059 H   0  0  0  0  0  0  0  0  0  0  0  0
  153.9548  142.2740  158.7040 H   0  0  0  0  0  0  0  0  0  0  0  0
  152.2311  142.4673  158.9433 H   0  0  0  0  0  0  0  0  0  0  0  0
  153.3881  137.7154  155.8521 H   0  0  0  0  0  0  0  0  0  0  0  0
  148.1528  136.0271  154.4713 H   0  0  0  0  0  0  0  0  0  0  0  0
  149.5585  133.7955  155.8937 H   0  0  0  0  0  0  0  0  0  0  0  0
  147.9097  134.2763  156.2044 H   0  0  0  0  0  0  0  0  0  0  0  0
  1  2  2  0  0  0  0
  2  3  1  0  0  0  0
  2 17  1  0  0  0  0
  3  4  1  0  0  0  0
  3 23  1  0  0  0  0
  4  5  1  0  0  0  0
  4 24  1  0  0  0  0
  4 25  1  0  0  0  0
  5 16  1  0  0  0  0
  5  6  2  0  0  0  0
  6  7  1  0  0  0  0
  6 26  1  0  0  0  0
  7  8  2  0  0  0  0
  7 27  1  0  0  0  0
  8  9  1  0  0  0  0
  8 15  1  0  0  0  0
  9 14  1  0  0  0  0
  9 10  1  0  0  0  0
 10 11  1  0  0  0  0
 10 28  1  0  0  0  0
 10 29  1  0  0  0  0
 11 12  1  0  0  0  0
 11 30  1  0  0  0  0
 11 31  1  0  0  0  0
 12 13  1  0  0  0  0
 13 14  1  0  0  0  0
 13 32  1  0  0  0  0
 13 33  1  0  0  0  0
 14 34  1  0  0  0  0
 14 35  1  0  0  0  0
 15 16  2  0  0  0  0
 16 36  1  0  0  0  0
 17 18  1  0  0  0  0
 17 37  1  0  0  0  0
 18 19  1  0  0  0  0
 18 38  1  0  0  0  0
 18 39  1  0  0  0  0
 19 20  1  0  0  0  0
 19 21  1  0  0  0  0
 19 22  1  0  0  0  0
M  END
> <s_m_source_file>
AV-unprocessed.smi

> <i_m_source_file_index>
1481

> <i_lp_mmshare_version>
43012

> <i_f3d_flags>
0

> <s_epik_input>
RkMoRikoRilbQ0gyXVtOSF1DKD1PKVtOSF1bQ0gyXWMxW2NIXVtjSF1jKG5bY0hdMSlOMltDSDJdW0NIMl1PW0NIMl1bQ0gyXTI=

> <s_epik_cmdline>
J2VwaWtfcHl0aG9uJywgJy1waCcsICc3LjAnLCAnLXRuJywgJzgnLCAnLW1hJywgJzIwMCcsICctbWV0YWxfYmluZGluZycsICctaW1hZScsICc8aW5maWxlLm1hZT4nLCAnLW9tYWUnLCAnPG91dGZpbGUubWFlPic=

> <r_lp_tautomer_probability>
1

> <r_epik_Ionization_Penalty>
0.00288034

> <r_epik_Ionization_Penalty_Charging>
0

> <r_epik_Ionization_Penalty_Neutral>
0.00288034

> <r_epik_State_Penalty>
0.00199456

> <r_epik_Charging_Adjusted_Penalty>
0.00199456

> <i_epik_Tot_Q>
0

> <i_epik_Tot_abs_Q>
0

> <r_epik_Metal_State_Penalty>
-0

> <b_epik_Metal_Only>
0

> <s_lp_Force_Field>
OPLS_2005

> <r_lp_Energy>
12.6538

> <b_lp_Chiralities_Consistent>
1

> <s_lp_Variant>
AV-unprocessed.smi:1481-1

> <Gold.Version>
5.8.1

> <Gold.Id.Protein>
6NUR|6NUR_protein|mol2

> <Gold.PLP.Fitness>
42.4978

> <Gold.PLP.PLP>
-36.9840

> <Gold.PLP.part.hbond>
-5.0220

> <Gold.PLP.part.metal>
0.0000

> <Gold.PLP.part.buried>
-3.3257

> <Gold.PLP.part.nonpolar>
-28.8843

> <Gold.PLP.part.repulsive>
0.1484

> <Gold.PLP.ligand.clash>
0.0000

> <Gold.PLP.ligand.torsion>
0.4152

> <Gold.PLP.Chemscore.Hbond>
2.0000

> <Gold.PLP.Chemscore.CHOScore>
0.0000

> <Gold.PLP.Chemscore.Metal>
0.0000

> <Gold.Chemscore.Hbonds>
donor molecule, donor type, donor heavy atom, donor atom, acceptor molecule, acceptor atom, score
      P1  H  7997  8010       L1    15  0.80
      P1  H 10752 10763       L1     1  0.84

> <Gold.PLP.Chemscore.Internal.Correction>
0.3441

> <Gold.Rescore>
     Score         DG    S(hbond)    S(metal)    S(lipo)     H(rot)  DE(clash)    DE(int)     intcor
     14.92     -15.53       1.68        0.00      83.51       2.09       0.18       0.43       ----

> <Gold.Chemscore.Fitness>
14.9199

> <Gold.Chemscore.DG>
-15.5274

> <Gold.Chemscore.ZeroCoef>
-5.4800

> <Gold.Chemscore.Hbond>
1.6846

> <Gold.Chemscore.Metal>
0.0000

> <Gold.Chemscore.Lipo>
83.5126

> <Gold.Chemscore.Internal_Hbond>
0.0000

> <Gold.Chemscore.DEClash>
0.1765

> <Gold.Chemscore.DEInternal>
0.4310

> <Gold.Chemscore.Rot>
2.0899

> <Gold.Chemscore.Internal.Correction>
   9.000000E+99

> <Gold.Chemscore.Hbonds>
donor molecule, donor type, donor heavy atom, donor atom, acceptor molecule, acceptor atom, score
      P1  H  7997  8010       L1    15  0.05
      P1  H 10752 10763       L1     1  0.77

> <Gold.Chemscore.Hbond.Weighted>
-5.6267

> <Gold.Chemscore.Metal.Weighted>
-0.0000

> <Gold.Chemscore.Lipo.Weighted>
-9.7710

> <Gold.Chemscore.Internal_Hbond.Weighted>
0.0000

> <Gold.Chemscore.DEClash.Weighted>
0.1765

> <Gold.Chemscore.DEInternal.Weighted>
0.4310

> <Gold.Chemscore.Rot.Weighted>
5.3502

> <Gold.Chemscore.Internal.Correction.Weighted>
   9.000000E+99

> <Gold.Protein.RotatedTorsions>
[ 6907 6896 6895 6894 ] final  163.54 input  -60.11 | X-H torsion
[ 7974 7965 7964 7962 ] final  106.87 input  175.53 | X-H torsion
[ 8008 7997 7996 7995 ] final   33.76 input   59.86 | X-H torsion
[ 10167 10162 10161 10158 ] final   75.63 input  -65.29 | X-H torsion
[ 10718 10713 10712 10709 ] final  -59.25 input   66.30 | X-H torsion
[ 10763 10752 10751 10750 ] final   53.17 input  -60.55 | X-H torsion
[ 11005 11000 10999 10996 ] final   57.92 input  -57.11 | X-H torsion

> <Gold.Protein.ActiveResidues>
 VAL166  LYS551  ARG553  GLY616  TRP617  ASP618  TYR619  PRO620  LYS621  CYS622 
 ASP623  PHE694  ASN695  SER759  ASP760  ASP761  ALA762  ILE779  LEU786  VAL792 
 PHE793  MET794  SER795  GLU796  ALA797  LYS798  CYS799  TRP800  GLU811  SER814 

> <Gold.Protein.RotatedAtoms>
  151.9236  133.3592  159.3905 H   0  0  0  0  0  0  0  0  0  0  0  0  # atno 6907 bound_to 6896
  150.7031  134.4609  159.5389 H   0  0  0  0  0  0  0  0  0  0  0  0  # atno 6908 bound_to 6896
  152.2237  134.8388  160.0533 H   0  0  0  0  0  0  0  0  0  0  0  0  # atno 6909 bound_to 6896
  145.3010  139.2569  143.3814 H   0  0  0  0  0  0  0  0  0  0  0  0  # atno 7974 bound_to 7965
  155.1439  140.3268  155.4446 H   0  0  0  0  0  0  0  0  0  0  0  0  # atno 8008 bound_to 7997
  156.2596  140.1989  156.6503 H   0  0  0  0  0  0  0  0  0  0  0  0  # atno 8009 bound_to 7997
  154.6522  140.0557  156.9955 H   0  0  0  0  0  0  0  0  0  0  0  0  # atno 8010 bound_to 7997
  140.0009  144.5687  150.7738 H   0  0  0  0  0  0  0  0  0  0  0  0  # atno 10167 bound_to 10162
  156.1075  130.4179  150.0690 H   0  0  0  0  0  0  0  0  0  0  0  0  # atno 10718 bound_to 10713
  152.9793  135.5788  154.4698 H   0  0  0  0  0  0  0  0  0  0  0  0  # atno 10763 bound_to 10752
  154.4263  135.2772  155.1944 H   0  0  0  0  0  0  0  0  0  0  0  0  # atno 10764 bound_to 10752
  154.3672  135.6176  153.5775 H   0  0  0  0  0  0  0  0  0  0  0  0  # atno 10765 bound_to 10752
  140.0416  134.5865  155.9374 H   0  0  0  0  0  0  0  0  0  0  0  0  # atno 11005 bound_to 11000
  146.3152  140.3524  142.8657 LP  0  0  0  0  0  0  0  0  0  0  0  0  # atno 17320 bound_to 7965
  144.9093  140.7738  143.5817 LP  0  0  0  0  0  0  0  0  0  0  0  0  # atno 17321 bound_to 7965
  140.7419  143.2825  151.3558 LP  0  0  0  0  0  0  0  0  0  0  0  0  # atno 17342 bound_to 10162
  139.6273  144.0790  152.2445 LP  0  0  0  0  0  0  0  0  0  0  0  0  # atno 17343 bound_to 10162
  156.8661  130.9508  151.3613 LP  0  0  0  0  0  0  0  0  0  0  0  0  # atno 17370 bound_to 10713
  157.6253  130.8687  149.9179 LP  0  0  0  0  0  0  0  0  0  0  0  0  # atno 17371 bound_to 10713
  141.1886  133.6563  156.5331 LP  0  0  0  0  0  0  0  0  0  0  0  0  # atno 17394 bound_to 11000
  140.4059  134.7315  157.4807 LP  0  0  0  0  0  0  0  0  0  0  0  0  # atno 17395 bound_to 11000

$$$$
