AV-unprocessed.smi:1654|AV-procd|sdf|6642|dock1
  -GOLD-   22720 7343D 1   1.00000     0.00000
 Structure written by MMmdl.
 40 41  0  0  0  0  0  0  0  0  1 V2000
  148.9966  139.8984  156.4795 O   0  0  0  0  0  0  0  0  0  0  0  0
  150.0528  140.7287  155.8804 S   0  0  0  0  0  0  0  0  0  0  0  0
  151.0150  140.1587  154.9249 O   0  0  0  0  0  0  0  0  0  0  0  0
  149.2963  142.0941  155.1508 N   0  0  0  0  0  0  0  0  0  0  0  0
  148.2410  141.8576  154.1701 C   0  0  0  0  0  0  0  0  0  0  0  0
  146.9286  141.4987  154.8778 C   0  0  0  0  0  0  0  0  0  0  0  0
  145.9084  142.6160  154.7848 C   0  0  0  0  0  0  0  0  0  0  0  0
  145.7925  143.3948  153.6149 C   0  0  0  0  0  0  0  0  0  0  0  0
  144.8342  144.4261  153.5790 C   0  0  0  0  0  0  0  0  0  0  0  0
  144.0310  144.6353  154.7179 C   0  0  0  0  0  0  0  0  0  0  0  0
  144.1334  143.8959  155.8434 N   0  0  0  0  0  0  0  0  0  0  0  0
  145.0550  142.9091  155.8698 C   0  0  0  0  0  0  0  0  0  0  0  0
  150.9321  141.5358  157.1391 N   0  0  0  0  0  0  0  0  0  0  0  0
  151.2319  142.9698  156.9605 C   0  0  0  0  0  0  0  0  0  0  0  0
  150.9079  143.7627  158.2356 C   0  0  0  0  0  0  0  0  0  0  0  0
  152.0635  143.8572  159.2470 C   0  0  0  0  0  0  0  0  0  0  0  0
  152.9310  142.5953  159.3947 C   0  0  0  0  0  0  0  0  0  0  0  0
  152.1558  141.2710  159.3251 C   0  0  0  0  0  0  0  0  0  0  0  0
  151.9359  140.7585  157.8884 C   0  0  0  0  0  0  0  0  0  0  0  0
  149.0389  142.7978  155.8424 H   0  0  0  0  0  0  0  0  0  0  0  0
  148.1150  142.7528  153.5601 H   0  0  0  0  0  0  0  0  0  0  0  0
  148.5485  141.0503  153.5044 H   0  0  0  0  0  0  0  0  0  0  0  0
  146.5029  140.5932  154.4428 H   0  0  0  0  0  0  0  0  0  0  0  0
  147.1176  141.2765  155.9291 H   0  0  0  0  0  0  0  0  0  0  0  0
  146.4273  143.2080  152.7610 H   0  0  0  0  0  0  0  0  0  0  0  0
  144.7180  145.0431  152.7002 H   0  0  0  0  0  0  0  0  0  0  0  0
  143.2870  145.4181  154.7255 H   0  0  0  0  0  0  0  0  0  0  0  0
  145.1138  142.3382  156.7849 H   0  0  0  0  0  0  0  0  0  0  0  0
  152.2662  143.1077  156.6428 H   0  0  0  0  0  0  0  0  0  0  0  0
  150.6198  143.3622  156.1485 H   0  0  0  0  0  0  0  0  0  0  0  0
  150.6183  144.7775  157.9607 H   0  0  0  0  0  0  0  0  0  0  0  0
  150.0270  143.3336  158.7156 H   0  0  0  0  0  0  0  0  0  0  0  0
  152.7150  144.6875  158.9720 H   0  0  0  0  0  0  0  0  0  0  0  0
  151.6446  144.1223  160.2182 H   0  0  0  0  0  0  0  0  0  0  0  0
  153.7145  142.5943  158.6359 H   0  0  0  0  0  0  0  0  0  0  0  0
  153.4546  142.6545  160.3496 H   0  0  0  0  0  0  0  0  0  0  0  0
  152.7406  140.5166  159.8525 H   0  0  0  0  0  0  0  0  0  0  0  0
  151.2111  141.3412  159.8659 H   0  0  0  0  0  0  0  0  0  0  0  0
  151.6047  139.7223  157.9529 H   0  0  0  0  0  0  0  0  0  0  0  0
  152.8723  140.7417  157.3296 H   0  0  0  0  0  0  0  0  0  0  0  0
  1  2  2  0  0  0  0
  2  3  2  0  0  0  0
  2  4  1  0  0  0  0
  2 13  1  0  0  0  0
  4  5  1  0  0  0  0
  4 20  1  0  0  0  0
  5  6  1  0  0  0  0
  5 21  1  0  0  0  0
  5 22  1  0  0  0  0
  6  7  1  0  0  0  0
  6 23  1  0  0  0  0
  6 24  1  0  0  0  0
  7 12  1  0  0  0  0
  7  8  2  0  0  0  0
  8  9  1  0  0  0  0
  8 25  1  0  0  0  0
  9 10  2  0  0  0  0
  9 26  1  0  0  0  0
 10 11  1  0  0  0  0
 10 27  1  0  0  0  0
 11 12  2  0  0  0  0
 12 28  1  0  0  0  0
 13 19  1  0  0  0  0
 13 14  1  0  0  0  0
 14 15  1  0  0  0  0
 14 29  1  0  0  0  0
 14 30  1  0  0  0  0
 15 16  1  0  0  0  0
 15 31  1  0  0  0  0
 15 32  1  0  0  0  0
 16 17  1  0  0  0  0
 16 33  1  0  0  0  0
 16 34  1  0  0  0  0
 17 18  1  0  0  0  0
 17 35  1  0  0  0  0
 17 36  1  0  0  0  0
 18 19  1  0  0  0  0
 18 37  1  0  0  0  0
 18 38  1  0  0  0  0
 19 39  1  0  0  0  0
 19 40  1  0  0  0  0
M  END
> <s_m_source_file>
AV-unprocessed.smi

> <i_m_source_file_index>
1654

> <i_lp_mmshare_version>
43012

> <i_f3d_flags>
0

> <s_epik_input>
W0NIMl0xW0NIMl1bQ0gyXVtDSDJdW0NIMl1bQ0gyXU4xUyg9TykoPU8pW05IXVtDSDJdW0NIMl1jMltjSF1bY0hdW2NIXW5bY0hdMg==

> <s_epik_cmdline>
J2VwaWtfcHl0aG9uJywgJy1waCcsICc3LjAnLCAnLXRuJywgJzgnLCAnLW1hJywgJzIwMCcsICctbWV0YWxfYmluZGluZycsICctaW1hZScsICc8aW5maWxlLm1hZT4nLCAnLW9tYWUnLCAnPG91dGZpbGUubWFlPic=

> <r_lp_tautomer_probability>
1

> <r_epik_Ionization_Penalty>
0.00688973

> <r_epik_Ionization_Penalty_Charging>
0

> <r_epik_Ionization_Penalty_Neutral>
0.00688973

> <r_epik_State_Penalty>
-0

> <r_epik_Charging_Adjusted_Penalty>
0

> <i_epik_Tot_Q>
0

> <i_epik_Tot_abs_Q>
0

> <r_epik_Metal_State_Penalty>
0.361675

> <b_epik_Metal_Only>
0

> <s_lp_Force_Field>
OPLS_2005

> <r_lp_Energy>
15.461

> <b_lp_Chiralities_Consistent>
1

> <s_lp_Variant>
AV-unprocessed.smi:1654-1

> <Gold.Version>
5.8.1

> <Gold.Id.Protein>
6NUR|6NUR_protein|mol2

> <Gold.PLP.Fitness>
44.3104

> <Gold.PLP.PLP>
-41.5253

> <Gold.PLP.part.hbond>
-2.0475

> <Gold.PLP.part.metal>
0.0000

> <Gold.PLP.part.buried>
-4.8455

> <Gold.PLP.part.nonpolar>
-34.1795

> <Gold.PLP.part.repulsive>
0.1604

> <Gold.PLP.ligand.clash>
0.0000

> <Gold.PLP.ligand.torsion>
2.1797

> <Gold.PLP.Chemscore.Hbond>
1.6560

> <Gold.PLP.Chemscore.CHOScore>
0.0000

> <Gold.PLP.Chemscore.Metal>
0.0000

> <Gold.Chemscore.Hbonds>
donor molecule, donor type, donor heavy atom, donor atom, acceptor molecule, acceptor atom, score
      L1  H     4    20       P1  8028  0.59
      P1  H  7989  7998       L1     3  1.00

> <Gold.PLP.Chemscore.Internal.Correction>
2.1766

> <Gold.Rescore>
     Score         DG    S(hbond)    S(metal)    S(lipo)     H(rot)  DE(clash)    DE(int)     intcor
     17.80     -20.40       1.80        0.00     108.37       1.47       0.33       2.28       ----

> <Gold.Chemscore.Fitness>
17.7988

> <Gold.Chemscore.DG>
-20.4034

> <Gold.Chemscore.ZeroCoef>
-5.4800

> <Gold.Chemscore.Hbond>
1.8005

> <Gold.Chemscore.Metal>
0.0000

> <Gold.Chemscore.Lipo>
108.3720

> <Gold.Chemscore.Internal_Hbond>
0.0000

> <Gold.Chemscore.DEClash>
0.3289

> <Gold.Chemscore.DEInternal>
2.2757

> <Gold.Chemscore.Rot>
1.4725

> <Gold.Chemscore.Internal.Correction>
   9.000000E+99

> <Gold.Chemscore.Hbonds>
donor molecule, donor type, donor heavy atom, donor atom, acceptor molecule, acceptor atom, score
      L1  H     4    20       P1  8028  0.60
      P1  H  7989  7998       L1     3  1.00

> <Gold.Chemscore.Hbond.Weighted>
-6.0136

> <Gold.Chemscore.Metal.Weighted>
-0.0000

> <Gold.Chemscore.Lipo.Weighted>
-12.6795

> <Gold.Chemscore.Internal_Hbond.Weighted>
0.0000

> <Gold.Chemscore.DEClash.Weighted>
0.3289

> <Gold.Chemscore.DEInternal.Weighted>
2.2757

> <Gold.Chemscore.Rot.Weighted>
3.7697

> <Gold.Chemscore.Internal.Correction.Weighted>
   9.000000E+99

> <Gold.Protein.RotatedTorsions>
[ 6907 6896 6895 6894 ] final   -9.12 input  -60.11 | X-H torsion
[ 7974 7965 7964 7962 ] final    5.18 input  175.53 | X-H torsion
[ 8008 7997 7996 7995 ] final  -64.67 input   59.86 | X-H torsion
[ 10167 10162 10161 10158 ] final   30.07 input  -65.29 | X-H torsion
[ 10718 10713 10712 10709 ] final -144.59 input   66.30 | X-H torsion
[ 10763 10752 10751 10750 ] final -118.67 input  -60.55 | X-H torsion
[ 11005 11000 10999 10996 ] final  146.68 input  -57.11 | X-H torsion

> <Gold.Protein.ActiveResidues>
 VAL166  LYS551  ARG553  GLY616  TRP617  ASP618  TYR619  PRO620  LYS621  CYS622 
 ASP623  PHE694  ASN695  SER759  ASP760  ASP761  ALA762  ILE779  LEU786  VAL792 
 PHE793  MET794  SER795  GLU796  ALA797  LYS798  CYS799  TRP800  GLU811  SER814 

> <Gold.Protein.RotatedAtoms>
  151.4228  135.1000  159.9618 H   0  0  0  0  0  0  0  0  0  0  0  0  # atno 6907 bound_to 6896
  152.4982  133.8690  159.7299 H   0  0  0  0  0  0  0  0  0  0  0  0  # atno 6908 bound_to 6896
  150.9210  133.6822  159.2860 H   0  0  0  0  0  0  0  0  0  0  0  0  # atno 6909 bound_to 6896
  146.2441  140.0422  142.8381 H   0  0  0  0  0  0  0  0  0  0  0  0  # atno 7974 bound_to 7965
  154.4625  140.0949  156.6932 H   0  0  0  0  0  0  0  0  0  0  0  0  # atno 8008 bound_to 7997
  155.4952  140.3472  155.4343 H   0  0  0  0  0  0  0  0  0  0  0  0  # atno 8009 bound_to 7997
  156.0897  140.1394  156.9597 H   0  0  0  0  0  0  0  0  0  0  0  0  # atno 8010 bound_to 7997
  140.4710  144.0762  150.6237 H   0  0  0  0  0  0  0  0  0  0  0  0  # atno 10167 bound_to 10162
  156.3720  130.7793  151.1975 H   0  0  0  0  0  0  0  0  0  0  0  0  # atno 10718 bound_to 10713
  154.8594  135.4265  154.2176 H   0  0  0  0  0  0  0  0  0  0  0  0  # atno 10763 bound_to 10752
  153.3188  135.6981  153.7055 H   0  0  0  0  0  0  0  0  0  0  0  0  # atno 10764 bound_to 10752
  153.6118  135.3518  155.2955 H   0  0  0  0  0  0  0  0  0  0  0  0  # atno 10765 bound_to 10752
  140.0813  134.9095  157.1505 H   0  0  0  0  0  0  0  0  0  0  0  0  # atno 11005 bound_to 11000
  145.1059  140.9375  143.4685 LP  0  0  0  0  0  0  0  0  0  0  0  0  # atno 17320 bound_to 7965
  145.0625  139.3094  143.5873 LP  0  0  0  0  0  0  0  0  0  0  0  0  # atno 17321 bound_to 7965
  140.3977  143.2720  151.9985 LP  0  0  0  0  0  0  0  0  0  0  0  0  # atno 17342 bound_to 10162
  139.4818  144.6024  151.7582 LP  0  0  0  0  0  0  0  0  0  0  0  0  # atno 17343 bound_to 10162
  157.7485  131.0369  150.4432 LP  0  0  0  0  0  0  0  0  0  0  0  0  # atno 17370 bound_to 10713
  156.4661  130.4042  149.6546 LP  0  0  0  0  0  0  0  0  0  0  0  0  # atno 17371 bound_to 10713
  140.3484  134.2626  155.7202 LP  0  0  0  0  0  0  0  0  0  0  0  0  # atno 17394 bound_to 11000
  141.2047  133.7878  157.0270 LP  0  0  0  0  0  0  0  0  0  0  0  0  # atno 17395 bound_to 11000

$$$$
