AV-unprocessed.smi:2790|AV-procd|sdf|10770|dock1
  -GOLD-   2272015203D 1   1.00000     0.00000
 Structure written by MMmdl.
 46 47  0  0  0  0  0  0  0  0  4 V2000
  146.5036  142.9688  153.5586 C   0  0  0  0  0  0  0  0  0  0  0  0
  146.0379  141.6756  154.1072 N   0  3  0  0  0  0  0  0  0  0  0  0
  145.4741  141.8154  155.4671 C   0  0  0  0  0  0  0  0  0  0  0  0
  147.0571  140.6002  154.0074 C   0  0  0  0  0  0  0  0  0  0  0  0
  148.3930  141.1100  154.5559 C   0  0  0  0  0  0  0  0  0  0  0  0
  149.2334  141.5311  153.7558 O   0  0  0  0  0  0  0  0  0  0  0  0
  148.4334  141.0110  155.9122 N   0  5  0  0  0  0  0  0  0  0  0  0
  149.2124  141.8979  156.7793 C   0  0  0  0  0  0  0  0  0  0  0  0
  150.6092  141.2667  157.1546 C   0  0  0  0  0  0  0  0  0  0  0  0
  151.3851  142.2677  158.0608 C   0  0  0  0  0  0  0  0  0  0  0  0
  151.6882  143.5849  157.6166 C   0  0  0  0  0  0  0  0  0  0  0  0
  152.3995  144.4711  158.4493 C   0  0  0  0  0  0  0  0  0  0  0  0
  152.7990  144.0702  159.6729 N   0  3  0  0  0  0  0  0  0  0  0  0
  152.5483  142.8340  160.1485 C   0  0  0  0  0  0  0  0  0  0  0  0
  151.8405  141.9061  159.3590 C   0  0  0  0  0  0  0  0  0  0  0  0
  150.4224  139.9229  157.9501 C   0  0  0  0  0  0  0  0  0  0  0  0
  149.9658  138.6947  157.1307 C   0  0  0  0  0  0  0  0  0  0  0  0
  150.8887  138.4365  155.9377 C   0  0  0  0  0  0  0  0  0  0  0  0
  150.9871  139.6871  155.0618 C   0  0  0  0  0  0  0  0  0  0  0  0
  151.4603  140.9083  155.8792 C   0  0  0  0  0  0  0  0  0  0  0  0
  147.3322  143.3671  154.1455 H   0  0  0  0  0  0  0  0  0  0  0  0
  145.6965  143.7016  153.5640 H   0  0  0  0  0  0  0  0  0  0  0  0
  146.8381  142.8541  152.5270 H   0  0  0  0  0  0  0  0  0  0  0  0
  146.2409  142.1267  156.1777 H   0  0  0  0  0  0  0  0  0  0  0  0
  145.0530  140.8685  155.8068 H   0  0  0  0  0  0  0  0  0  0  0  0
  144.6744  142.5566  155.4784 H   0  0  0  0  0  0  0  0  0  0  0  0
  146.7459  139.7013  154.5438 H   0  0  0  0  0  0  0  0  0  0  0  0
  147.1995  140.2940  152.9695 H   0  0  0  0  0  0  0  0  0  0  0  0
  149.3896  142.8704  156.3174 H   0  0  0  0  0  0  0  0  0  0  0  0
  148.6601  142.1164  157.6928 H   0  0  0  0  0  0  0  0  0  0  0  0
  151.3987  143.9266  156.6352 H   0  0  0  0  0  0  0  0  0  0  0  0
  152.6644  145.4805  158.1705 H   0  0  0  0  0  0  0  0  0  0  0  0
  152.9233  142.6221  161.1392 H   0  0  0  0  0  0  0  0  0  0  0  0
  151.6726  140.9210  159.7643 H   0  0  0  0  0  0  0  0  0  0  0  0
  151.3829  139.6582  158.3956 H   0  0  0  0  0  0  0  0  0  0  0  0
  149.7393  140.0325  158.7941 H   0  0  0  0  0  0  0  0  0  0  0  0
  149.9502  137.8143  157.7736 H   0  0  0  0  0  0  0  0  0  0  0  0
  148.9411  138.8268  156.7821 H   0  0  0  0  0  0  0  0  0  0  0  0
  151.8810  138.1555  156.2926 H   0  0  0  0  0  0  0  0  0  0  0  0
  150.5167  137.5959  155.3513 H   0  0  0  0  0  0  0  0  0  0  0  0
  151.6850  139.5040  154.2445 H   0  0  0  0  0  0  0  0  0  0  0  0
  150.0238  139.8893  154.5926 H   0  0  0  0  0  0  0  0  0  0  0  0
  151.5599  141.7543  155.1967 H   0  0  0  0  0  0  0  0  0  0  0  0
  152.4777  140.6820  156.2023 H   0  0  0  0  0  0  0  0  0  0  0  0
  145.2771  141.3756  153.5137 H   0  0  0  0  0  0  0  0  0  0  0  0
  153.3161  144.7258  160.2590 H   0  0  0  0  0  0  0  0  0  0  0  0
  1  2  1  0  0  0  0
  1 21  1  0  0  0  0
  1 22  1  0  0  0  0
  1 23  1  0  0  0  0
  2  3  1  0  0  0  0
  2  4  1  0  0  0  0
  2 45  1  0  0  0  0
  3 24  1  0  0  0  0
  3 25  1  0  0  0  0
  3 26  1  0  0  0  0
  4  5  1  0  0  0  0
  4 27  1  0  0  0  0
  4 28  1  0  0  0  0
  5  6  2  0  0  0  0
  5  7  1  0  0  0  0
  7  8  1  0  0  0  0
  8  9  1  0  0  0  0
  8 29  1  0  0  0  0
  8 30  1  0  0  0  0
  9 20  1  0  0  0  0
  9 10  1  0  0  0  0
  9 16  1  0  0  0  0
 10 15  1  0  0  0  0
 10 11  2  0  0  0  0
 11 12  1  0  0  0  0
 11 31  1  0  0  0  0
 12 13  2  0  0  0  0
 12 32  1  0  0  0  0
 13 14  1  0  0  0  0
 13 46  1  0  0  0  0
 14 15  2  0  0  0  0
 14 33  1  0  0  0  0
 15 34  1  0  0  0  0
 16 17  1  0  0  0  0
 16 35  1  0  0  0  0
 16 36  1  0  0  0  0
 17 18  1  0  0  0  0
 17 37  1  0  0  0  0
 17 38  1  0  0  0  0
 18 19  1  0  0  0  0
 18 39  1  0  0  0  0
 18 40  1  0  0  0  0
 19 20  1  0  0  0  0
 19 41  1  0  0  0  0
 19 42  1  0  0  0  0
 20 43  1  0  0  0  0
 20 44  1  0  0  0  0
M  CHG  1   2   1
M  CHG  1   7  -1
M  CHG  1  13   1
M  END
> <s_m_source_file>
AV-unprocessed.smi

> <i_m_source_file_index>
2790

> <i_lp_mmshare_version>
43012

> <i_f3d_flags>
0

> <s_epik_input>
W0NIM11OKFtDSDNdKVtDSDJdQyg9TylbTkhdW0NIMl1DMShbQ0gyXVtDSDJdW0NIMl1bQ0gyXVtDSDJdMSljMltjSF1bY0hdbltjSF1bY0hdMg==

> <s_epik_cmdline>
J2VwaWtfcHl0aG9uJywgJy1waCcsICc3LjAnLCAnLXRuJywgJzgnLCAnLW1hJywgJzIwMCcsICctbWV0YWxfYmluZGluZycsICctaW1hZScsICc8aW5maWxlLm1hZT4nLCAnLW9tYWUnLCAnPG91dGZpbGUubWFlPic=

> <r_epik_Ionization_Penalty>
6.72126

> <r_epik_Ionization_Penalty_Charging>
6.72126

> <r_epik_Ionization_Penalty_Neutral>
0

> <r_epik_State_Penalty>
7.43246

> <r_epik_Charging_Adjusted_Penalty>
14.1537

> <i_epik_Tot_Q>
1

> <i_epik_Tot_abs_Q>
3

> <r_epik_Metal_State_Penalty>
3.42758

> <b_epik_Metal_Only>
1

> <s_lp_Force_Field>
OPLS_2005

> <r_lp_Energy>
31.5627

> <b_lp_Chiralities_Consistent>
1

> <s_lp_Variant>
AV-unprocessed.smi:2790-5

> <Gold.Version>
5.8.1

> <Gold.Id.Protein>
6NUR|6NUR_protein|mol2

> <Gold.PLP.Fitness>
44.6600

> <Gold.PLP.PLP>
-37.9547

> <Gold.PLP.part.hbond>
-2.4851

> <Gold.PLP.part.metal>
0.0000

> <Gold.PLP.part.buried>
-4.5154

> <Gold.PLP.part.nonpolar>
-30.9396

> <Gold.PLP.part.repulsive>
0.4084

> <Gold.PLP.ligand.clash>
0.0161

> <Gold.PLP.ligand.torsion>
0.8184

> <Gold.PLP.Chemscore.Hbond>
2.7520

> <Gold.PLP.Chemscore.CHOScore>
0.0000

> <Gold.PLP.Chemscore.Metal>
0.0000

> <Gold.Chemscore.Hbonds>
donor molecule, donor type, donor heavy atom, donor atom, acceptor molecule, acceptor atom, score
      L1  H     2    45       P1 10175  1.64
      P1  H  8011  8017       L1     6  0.75

> <Gold.PLP.Chemscore.Internal.Correction>
0.1022

> <Gold.Rescore>
     Score         DG    S(hbond)    S(metal)    S(lipo)     H(rot)  DE(clash)    DE(int)     intcor
     16.10     -18.89       1.57        0.00     106.30       1.67       0.11       2.68       ----

> <Gold.Chemscore.Fitness>
16.0985

> <Gold.Chemscore.DG>
-18.8852

> <Gold.Chemscore.ZeroCoef>
-5.4800

> <Gold.Chemscore.Hbond>
1.5731

> <Gold.Chemscore.Metal>
0.0000

> <Gold.Chemscore.Lipo>
106.2965

> <Gold.Chemscore.Internal_Hbond>
0.0000

> <Gold.Chemscore.DEClash>
0.1066

> <Gold.Chemscore.DEInternal>
2.6801

> <Gold.Chemscore.Rot>
1.6741

> <Gold.Chemscore.Internal.Correction>
   9.000000E+99

> <Gold.Chemscore.Hbonds>
donor molecule, donor type, donor heavy atom, donor atom, acceptor molecule, acceptor atom, score
      L1  H     2    45       P1 10175  0.18
      P1  H  7989  7998       L1     6  0.01
      P1  H  8011  8017       L1     6  0.74

> <Gold.Chemscore.Hbond.Weighted>
-5.2542

> <Gold.Chemscore.Metal.Weighted>
-0.0000

> <Gold.Chemscore.Lipo.Weighted>
-12.4367

> <Gold.Chemscore.Internal_Hbond.Weighted>
0.0000

> <Gold.Chemscore.DEClash.Weighted>
0.1066

> <Gold.Chemscore.DEInternal.Weighted>
2.6801

> <Gold.Chemscore.Rot.Weighted>
4.2858

> <Gold.Chemscore.Internal.Correction.Weighted>
   9.000000E+99

> <Gold.Protein.RotatedTorsions>
[ 6907 6896 6895 6894 ] final -167.82 input  -60.11 | X-H torsion
[ 7974 7965 7964 7962 ] final  161.13 input  175.53 | X-H torsion
[ 8008 7997 7996 7995 ] final  -67.29 input   59.86 | X-H torsion
[ 10167 10162 10161 10158 ] final  -63.54 input  -65.29 | X-H torsion
[ 10718 10713 10712 10709 ] final -120.10 input   66.30 | X-H torsion
[ 10763 10752 10751 10750 ] final -119.06 input  -60.55 | X-H torsion
[ 11005 11000 10999 10996 ] final   87.58 input  -57.11 | X-H torsion

> <Gold.Protein.ActiveResidues>
 VAL166  LYS551  ARG553  GLY616  TRP617  ASP618  TYR619  PRO620  LYS621  CYS622 
 ASP623  PHE694  ASN695  SER759  ASP760  ASP761  ALA762  ILE779  LEU786  VAL792 
 PHE793  MET794  SER795  GLU796  ALA797  LYS798  CYS799  TRP800  GLU811  SER814 

> <Gold.Protein.RotatedAtoms>
  151.4656  133.3582  159.2815 H   0  0  0  0  0  0  0  0  0  0  0  0  # atno 6907 bound_to 6896
  150.8996  134.8408  159.7361 H   0  0  0  0  0  0  0  0  0  0  0  0  # atno 6908 bound_to 6896
  152.4871  134.4575  159.9646 H   0  0  0  0  0  0  0  0  0  0  0  0  # atno 6909 bound_to 6896
  144.7701  139.7855  143.6300 H   0  0  0  0  0  0  0  0  0  0  0  0  # atno 7974 bound_to 7965
  154.4790  140.0895  156.7332 H   0  0  0  0  0  0  0  0  0  0  0  0  # atno 8008 bound_to 7997
  155.4520  140.3458  155.4284 H   0  0  0  0  0  0  0  0  0  0  0  0  # atno 8009 bound_to 7997
  156.1162  140.1461  156.9258 H   0  0  0  0  0  0  0  0  0  0  0  0  # atno 8010 bound_to 7997
  140.5863  143.2334  151.6235 H   0  0  0  0  0  0  0  0  0  0  0  0  # atno 10167 bound_to 10162
  156.1232  130.6339  150.9498 H   0  0  0  0  0  0  0  0  0  0  0  0  # atno 10718 bound_to 10713
  154.8606  135.4252  154.2238 H   0  0  0  0  0  0  0  0  0  0  0  0  # atno 10763 bound_to 10752
  153.3238  135.6984  153.7013 H   0  0  0  0  0  0  0  0  0  0  0  0  # atno 10764 bound_to 10752
  153.6058  135.3528  155.2935 H   0  0  0  0  0  0  0  0  0  0  0  0  # atno 10765 bound_to 10752
  139.8916  134.8431  156.2879 H   0  0  0  0  0  0  0  0  0  0  0  0  # atno 11005 bound_to 11000
  146.1841  139.5047  142.9847 LP  0  0  0  0  0  0  0  0  0  0  0  0  # atno 17320 bound_to 7965
  145.6350  141.0296  143.1843 LP  0  0  0  0  0  0  0  0  0  0  0  0  # atno 17321 bound_to 7965
  139.5200  144.3237  152.0888 LP  0  0  0  0  0  0  0  0  0  0  0  0  # atno 17342 bound_to 10162
  140.2394  144.4285  150.6266 LP  0  0  0  0  0  0  0  0  0  0  0  0  # atno 17343 bound_to 10162
  157.6414  131.0909  150.8242 LP  0  0  0  0  0  0  0  0  0  0  0  0  # atno 17370 bound_to 10713
  156.8336  130.5024  149.5329 LP  0  0  0  0  0  0  0  0  0  0  0  0  # atno 17371 bound_to 10713
  140.9995  133.7160  156.0938 LP  0  0  0  0  0  0  0  0  0  0  0  0  # atno 17394 bound_to 11000
  140.7517  134.4038  157.5540 LP  0  0  0  0  0  0  0  0  0  0  0  0  # atno 17395 bound_to 11000

$$$$
