AV-unprocessed.smi:773|AV-procd|sdf|3690|dock9
  -GOLD-   22720 1113D 1   1.00000     0.00000
 Structure written by MMmdl.
 39 40  0  0  0  0  0  0  0  0  1 V2000
  150.3401  138.0666  154.4563 C   0  0  0  0  0  0  0  0  0  0  0  0
  149.6694  139.4013  154.3044 C   0  0  0  0  0  0  0  0  0  0  0  0
  150.4018  140.5021  154.2853 N   0  0  0  0  0  0  0  0  0  0  0  0
  149.4976  141.5607  154.1573 O   0  0  0  0  0  0  0  0  0  0  0  0
  148.2417  141.0488  154.1026 C   0  0  0  0  0  0  0  0  0  0  0  0
  147.1225  142.0269  153.9873 C   0  0  0  0  0  0  0  0  0  0  0  0
  148.2782  139.6845  154.1866 C   0  0  0  0  0  0  0  0  0  0  0  0
  147.1258  138.7095  154.1889 C   0  0  0  0  0  0  0  0  0  0  0  0
  146.4493  138.5622  152.8071 C   0  0  1  0  0  0  0  0  0  0  0  0
  146.9778  139.5954  151.8030 C   0  0  0  0  0  0  0  0  0  0  0  0
  146.6432  137.2171  152.2640 N   0  0  0  0  0  0  0  0  0  0  0  0
  145.6695  136.3338  151.9975 C   0  0  0  0  0  0  0  0  0  0  0  0
  144.4663  136.5751  152.0988 O   0  0  0  0  0  0  0  0  0  0  0  0
  146.1655  135.1390  151.6525 N   0  0  0  0  0  0  0  0  0  0  0  0
  145.3516  133.9511  151.4311 C   0  0  0  0  0  0  0  0  0  0  0  0
  146.1101  132.8107  150.7340 C   0  0  0  0  0  0  0  0  0  0  0  0
  144.8433  132.5794  149.9015 C   0  0  0  0  0  0  0  0  0  0  0  0
  144.4839  134.0466  150.1694 C   0  0  0  0  0  0  0  0  0  0  0  0
  149.8409  137.4644  155.2155 H   0  0  0  0  0  0  0  0  0  0  0  0
  151.3842  138.1701  154.7542 H   0  0  0  0  0  0  0  0  0  0  0  0
  150.3142  137.5097  153.5197 H   0  0  0  0  0  0  0  0  0  0  0  0
  146.4118  141.7132  153.2227 H   0  0  0  0  0  0  0  0  0  0  0  0
  147.4911  143.0175  153.7203 H   0  0  0  0  0  0  0  0  0  0  0  0
  146.5874  142.1098  154.9333 H   0  0  0  0  0  0  0  0  0  0  0  0
  147.4630  137.7281  154.5243 H   0  0  0  0  0  0  0  0  0  0  0  0
  146.3763  139.0181  154.9186 H   0  0  0  0  0  0  0  0  0  0  0  0
  145.3814  138.7488  152.9330 H   0  0  0  0  0  0  0  0  0  0  0  0
  146.8261  140.6109  152.1697 H   0  0  0  0  0  0  0  0  0  0  0  0
  146.4626  139.5113  150.8455 H   0  0  0  0  0  0  0  0  0  0  0  0
  148.0448  139.4636  151.6199 H   0  0  0  0  0  0  0  0  0  0  0  0
  147.5983  136.9146  152.1421 H   0  0  0  0  0  0  0  0  0  0  0  0
  147.1672  135.0296  151.5934 H   0  0  0  0  0  0  0  0  0  0  0  0
  144.7871  133.6139  152.3029 H   0  0  0  0  0  0  0  0  0  0  0  0
  146.9554  133.1500  150.1315 H   0  0  0  0  0  0  0  0  0  0  0  0
  146.3871  131.9823  151.3865 H   0  0  0  0  0  0  0  0  0  0  0  0
  145.0227  132.3353  148.8542 H   0  0  0  0  0  0  0  0  0  0  0  0
  144.1495  131.8788  150.3694 H   0  0  0  0  0  0  0  0  0  0  0  0
  143.4251  134.2296  150.3551 H   0  0  0  0  0  0  0  0  0  0  0  0
  144.8852  134.7220  149.4112 H   0  0  0  0  0  0  0  0  0  0  0  0
  1  2  1  0  0  0  0
  1 19  1  0  0  0  0
  1 20  1  0  0  0  0
  1 21  1  0  0  0  0
  2  7  1  0  0  0  0
  2  3  2  0  0  0  0
  3  4  1  0  0  0  0
  4  5  1  0  0  0  0
  5  6  1  0  0  0  0
  5  7  2  0  0  0  0
  6 22  1  0  0  0  0
  6 23  1  0  0  0  0
  6 24  1  0  0  0  0
  7  8  1  0  0  0  0
  8  9  1  0  0  0  0
  8 25  1  0  0  0  0
  8 26  1  0  0  0  0
  9 10  1  0  0  0  0
  9 11  1  0  0  0  0
  9 27  1  0  0  0  0
 10 28  1  0  0  0  0
 10 29  1  0  0  0  0
 10 30  1  0  0  0  0
 11 12  1  0  0  0  0
 11 31  1  0  0  0  0
 12 13  2  0  0  0  0
 12 14  1  0  0  0  0
 14 15  1  0  0  0  0
 14 32  1  0  0  0  0
 15 18  1  0  0  0  0
 15 16  1  0  0  0  0
 15 33  1  0  0  0  0
 16 17  1  0  0  0  0
 16 34  1  0  0  0  0
 16 35  1  0  0  0  0
 17 18  1  0  0  0  0
 17 36  1  0  0  0  0
 17 37  1  0  0  0  0
 18 38  1  0  0  0  0
 18 39  1  0  0  0  0
M  END
> <s_m_source_file>
AV-unprocessed.smi

> <i_m_source_file_index>
773

> <i_lp_mmshare_version>
43012

> <i_f3d_flags>
0

> <s_epik_input>
W0NIM11jMW5vYyhbQ0gzXSljMVtDSDJdW0NASF0oW0NIM10pW05IXUMoPU8pW05IXVtDSF0yW0NIMl1bQ0gyXVtDSDJdMg==

> <s_epik_cmdline>
J2VwaWtfcHl0aG9uJywgJy1waCcsICc3LjAnLCAnLXRuJywgJzgnLCAnLW1hJywgJzIwMCcsICctbWV0YWxfYmluZGluZycsICctaW1hZScsICc8aW5maWxlLm1hZT4nLCAnLW9tYWUnLCAnPG91dGZpbGUubWFlPic=

> <r_lp_tautomer_probability>
1

> <r_epik_Ionization_Penalty>
6.63278e-05

> <r_epik_Ionization_Penalty_Charging>
0

> <r_epik_Ionization_Penalty_Neutral>
6.63278e-05

> <r_epik_State_Penalty>
-0

> <r_epik_Charging_Adjusted_Penalty>
0

> <i_epik_Tot_Q>
0

> <i_epik_Tot_abs_Q>
0

> <r_epik_Metal_State_Penalty>
-0

> <b_epik_Metal_Only>
0

> <s_lp_Force_Field>
OPLS_2005

> <r_lp_Energy>
6.89309

> <b_lp_Chiralities_Consistent>
1

> <s_lp_Variant>
AV-unprocessed.smi:773-2

> <Gold.Version>
5.8.1

> <Gold.Id.Protein>
6NUR|6NUR_protein|mol2

> <Gold.PLP.Fitness>
41.1150

> <Gold.PLP.PLP>
-34.6605

> <Gold.PLP.part.hbond>
-4.6468

> <Gold.PLP.part.metal>
0.0000

> <Gold.PLP.part.buried>
-0.1636

> <Gold.PLP.part.nonpolar>
-29.4597

> <Gold.PLP.part.repulsive>
0.8828

> <Gold.PLP.ligand.clash>
1.2167

> <Gold.PLP.ligand.torsion>
0.9695

> <Gold.PLP.Chemscore.Hbond>
3.1186

> <Gold.PLP.Chemscore.CHOScore>
0.0000

> <Gold.PLP.Chemscore.Metal>
0.0000

> <Gold.Chemscore.Hbonds>
donor molecule, donor type, donor heavy atom, donor atom, acceptor molecule, acceptor atom, score
      L1  H    11    31       P1  7948  0.99
      L1  H    14    32       P1  7948  0.62
      P1  H  7989  7998       L1     3  0.86
      P1  H  8011  8017       L1     4  0.60

> <Gold.PLP.Chemscore.Internal.Correction>
0.2544

> <Gold.Rescore>
     Score         DG    S(hbond)    S(metal)    S(lipo)     H(rot)  DE(clash)    DE(int)     intcor
     17.51     -19.44       2.61        0.00      79.00       1.56       0.78       1.15       ----

> <Gold.Chemscore.Fitness>
17.5149

> <Gold.Chemscore.DG>
-19.4412

> <Gold.Chemscore.ZeroCoef>
-5.4800

> <Gold.Chemscore.Hbond>
2.6104

> <Gold.Chemscore.Metal>
0.0000

> <Gold.Chemscore.Lipo>
78.9958

> <Gold.Chemscore.Internal_Hbond>
0.0000

> <Gold.Chemscore.DEClash>
0.7772

> <Gold.Chemscore.DEInternal>
1.1491

> <Gold.Chemscore.Rot>
1.5625

> <Gold.Chemscore.Internal.Correction>
   9.000000E+99

> <Gold.Chemscore.Hbonds>
donor molecule, donor type, donor heavy atom, donor atom, acceptor molecule, acceptor atom, score
      L1  H    11    31       P1  7948  0.92
      L1  H    14    32       P1  7948  0.52
      P1  H  7989  7998       L1     3  0.44
      P1  H  8011  8017       L1     4  0.18

> <Gold.Chemscore.Hbond.Weighted>
-8.7188

> <Gold.Chemscore.Metal.Weighted>
-0.0000

> <Gold.Chemscore.Lipo.Weighted>
-9.2425

> <Gold.Chemscore.Internal_Hbond.Weighted>
0.0000

> <Gold.Chemscore.DEClash.Weighted>
0.7772

> <Gold.Chemscore.DEInternal.Weighted>
1.1491

> <Gold.Chemscore.Rot.Weighted>
4.0000

> <Gold.Chemscore.Internal.Correction.Weighted>
   9.000000E+99

> <Gold.Protein.RotatedTorsions>
[ 6907 6896 6895 6894 ] final  -56.29 input  -60.11 | X-H torsion
[ 7974 7965 7964 7962 ] final   -0.47 input  175.53 | X-H torsion
[ 8008 7997 7996 7995 ] final  148.11 input   59.86 | X-H torsion
[ 10167 10162 10161 10158 ] final    1.94 input  -65.29 | X-H torsion
[ 10718 10713 10712 10709 ] final  119.57 input   66.30 | X-H torsion
[ 10763 10752 10751 10750 ] final   54.61 input  -60.55 | X-H torsion
[ 11005 11000 10999 10996 ] final  168.01 input  -57.11 | X-H torsion

> <Gold.Protein.ActiveResidues>
 VAL166  LYS551  ARG553  GLY616  TRP617  ASP618  TYR619  PRO620  LYS621  CYS622 
 ASP623  PHE694  ASN695  SER759  ASP760  ASP761  ALA762  ILE779  LEU786  VAL792 
 PHE793  MET794  SER795  GLU796  ALA797  LYS798  CYS799  TRP800  GLU811  SER814 

> <Gold.Protein.RotatedAtoms>
  150.8180  134.7373  159.6746 H   0  0  0  0  0  0  0  0  0  0  0  0  # atno 6907 bound_to 6896
  152.4298  134.5797  159.9954 H   0  0  0  0  0  0  0  0  0  0  0  0  # atno 6908 bound_to 6896
  151.5988  133.3321  159.3079 H   0  0  0  0  0  0  0  0  0  0  0  0  # atno 6909 bound_to 6896
  146.2427  140.1274  142.8339 H   0  0  0  0  0  0  0  0  0  0  0  0  # atno 7974 bound_to 7965
  156.2802  140.2137  156.5645 H   0  0  0  0  0  0  0  0  0  0  0  0  # atno 8008 bound_to 7997
  154.7186  140.0505  157.0641 H   0  0  0  0  0  0  0  0  0  0  0  0  # atno 8009 bound_to 7997
  155.0509  140.3156  155.4695 H   0  0  0  0  0  0  0  0  0  0  0  0  # atno 8010 bound_to 7997
  140.6659  143.7181  150.7826 H   0  0  0  0  0  0  0  0  0  0  0  0  # atno 10167 bound_to 10162
  157.5952  131.1059  150.7914 H   0  0  0  0  0  0  0  0  0  0  0  0  # atno 10718 bound_to 10713
  152.9807  135.5739  154.4933 H   0  0  0  0  0  0  0  0  0  0  0  0  # atno 10763 bound_to 10752
  154.4464  135.2777  155.1814 H   0  0  0  0  0  0  0  0  0  0  0  0  # atno 10764 bound_to 10752
  154.3460  135.6219  153.5673 H   0  0  0  0  0  0  0  0  0  0  0  0  # atno 10765 bound_to 10752
  140.2827  134.7737  157.3772 H   0  0  0  0  0  0  0  0  0  0  0  0  # atno 11005 bound_to 11000
  145.0355  140.8904  143.5084 LP  0  0  0  0  0  0  0  0  0  0  0  0  # atno 17320 bound_to 7965
  145.1346  139.2610  143.5522 LP  0  0  0  0  0  0  0  0  0  0  0  0  # atno 17321 bound_to 7965
  140.0858  143.4925  152.2505 LP  0  0  0  0  0  0  0  0  0  0  0  0  # atno 17342 bound_to 10162
  139.5907  144.7549  151.3407 LP  0  0  0  0  0  0  0  0  0  0  0  0  # atno 17343 bound_to 10162
  156.8326  130.5021  149.5330 LP  0  0  0  0  0  0  0  0  0  0  0  0  # atno 17370 bound_to 10713
  156.1014  130.5971  150.9900 LP  0  0  0  0  0  0  0  0  0  0  0  0  # atno 17371 bound_to 10713
  140.1268  134.5147  155.8138 LP  0  0  0  0  0  0  0  0  0  0  0  0  # atno 17394 bound_to 11000
  141.2160  133.6775  156.6966 LP  0  0  0  0  0  0  0  0  0  0  0  0  # atno 17395 bound_to 11000

$$$$
