AV-unprocessed.smi:2609|AV-procd|sdf|10206|dock3
  -GOLD-   2272014213D 1   1.00000     0.00000
 Structure written by MMmdl.
 25 26  0  0  0  0  0  0  0  0  1 V2000
  152.7210  142.6333  160.6296 O   0  0  0  0  0  0  0  0  0  0  0  0
  152.1266  142.9201  159.5927 C   0  0  0  0  0  0  0  0  0  0  0  0
  151.9211  144.3235  159.2038 C   0  0  0  0  0  0  0  0  0  0  0  0
  151.2660  144.5948  158.0592 C   0  0  0  0  0  0  0  0  0  0  0  0
  150.7824  143.5924  157.2410 N   0  0  0  0  0  0  0  0  0  0  0  0
  150.9975  142.2792  157.6460 C   0  0  0  0  0  0  0  0  0  0  0  0
  150.4198  141.2426  156.6778 C   0  0  0  0  0  0  0  0  0  0  0  0
  151.3377  140.0147  156.5151 C   0  0  0  0  0  0  0  0  0  0  0  0
  150.7308  139.0047  155.5265 C   0  0  0  0  0  0  0  0  0  0  0  0
  150.4832  139.6318  154.2733 O   0  0  0  0  0  0  0  0  0  0  0  0
  149.5439  140.6971  154.3626 C   0  0  0  0  0  0  0  0  0  0  0  0
  150.0932  141.8034  155.2772 C   0  0  0  0  0  0  0  0  0  0  0  0
  151.6186  141.9262  158.7365 N   0  0  0  0  0  0  0  0  0  0  0  0
  150.2968  143.8457  156.3924 H   0  0  0  0  0  0  0  0  0  0  0  0
  152.2906  145.1238  159.8283 H   0  0  0  0  0  0  0  0  0  0  0  0
  151.0756  145.5977  157.7062 H   0  0  0  0  0  0  0  0  0  0  0  0
  149.4798  140.8974  157.1115 H   0  0  0  0  0  0  0  0  0  0  0  0
  152.3177  140.3289  156.1526 H   0  0  0  0  0  0  0  0  0  0  0  0
  151.5038  139.5219  157.4738 H   0  0  0  0  0  0  0  0  0  0  0  0
  151.4191  138.1737  155.3720 H   0  0  0  0  0  0  0  0  0  0  0  0
  149.8058  138.5816  155.9216 H   0  0  0  0  0  0  0  0  0  0  0  0
  149.3656  141.0928  153.3627 H   0  0  0  0  0  0  0  0  0  0  0  0
  148.5873  140.3246  154.7323 H   0  0  0  0  0  0  0  0  0  0  0  0
  149.3651  142.6126  155.3497 H   0  0  0  0  0  0  0  0  0  0  0  0
  150.9896  142.2254  154.8197 H   0  0  0  0  0  0  0  0  0  0  0  0
  1  2  2  0  0  0  0
  2 13  1  0  0  0  0
  2  3  1  0  0  0  0
  3  4  2  0  0  0  0
  3 15  1  0  0  0  0
  4  5  1  0  0  0  0
  4 16  1  0  0  0  0
  5 14  1  0  0  0  0
  5  6  1  0  0  0  0
  6  7  1  0  0  0  0
  6 13  2  0  0  0  0
  7 12  1  0  0  0  0
  7  8  1  0  0  0  0
  7 17  1  0  0  0  0
  8  9  1  0  0  0  0
  8 18  1  0  0  0  0
  8 19  1  0  0  0  0
  9 10  1  0  0  0  0
  9 20  1  0  0  0  0
  9 21  1  0  0  0  0
 10 11  1  0  0  0  0
 11 12  1  0  0  0  0
 11 22  1  0  0  0  0
 11 23  1  0  0  0  0
 12 24  1  0  0  0  0
 12 25  1  0  0  0  0
M  END
> <s_m_source_file>
AV-unprocessed.smi

> <i_m_source_file_index>
2609

> <i_lp_mmshare_version>
43012

> <i_f3d_flags>
0

> <s_epik_input>
Tz1jMVtjSF1bY0hdW25IXWMobjEpW0NIXTJbQ0gyXVtDSDJdT1tDSDJdW0NIMl0y

> <s_epik_cmdline>
J2VwaWtfcHl0aG9uJywgJy1waCcsICc3LjAnLCAnLXRuJywgJzgnLCAnLW1hJywgJzIwMCcsICctbWV0YWxfYmluZGluZycsICctaW1hZScsICc8aW5maWxlLm1hZT4nLCAnLW9tYWUnLCAnPG91dGZpbGUubWFlPic=

> <r_lp_tautomer_probability>
0.156392

> <r_epik_Ionization_Penalty>
0.0156094

> <r_epik_Ionization_Penalty_Charging>
0.0155213

> <r_epik_Ionization_Penalty_Neutral>
8.80525e-05

> <r_epik_State_Penalty>
1.49738

> <r_epik_Charging_Adjusted_Penalty>
1.5129

> <i_epik_Tot_Q>
0

> <i_epik_Tot_abs_Q>
0

> <r_epik_Metal_State_Penalty>
1.69942

> <b_epik_Metal_Only>
0

> <s_lp_Force_Field>
OPLS_2005

> <r_lp_Energy>
19.0149

> <b_lp_Chiralities_Consistent>
1

> <s_lp_Variant>
AV-unprocessed.smi:2609-2

> <Gold.Version>
5.8.1

> <Gold.Id.Protein>
6NUR|6NUR_protein|mol2

> <Gold.PLP.Fitness>
36.4369

> <Gold.PLP.PLP>
-29.0919

> <Gold.PLP.part.hbond>
-2.0000

> <Gold.PLP.part.metal>
0.0000

> <Gold.PLP.part.buried>
-2.6090

> <Gold.PLP.part.nonpolar>
-24.9041

> <Gold.PLP.part.repulsive>
0.4164

> <Gold.PLP.ligand.clash>
0.2014

> <Gold.PLP.ligand.torsion>
0.5276

> <Gold.PLP.Chemscore.Hbond>
1.9760

> <Gold.PLP.Chemscore.CHOScore>
0.8850

> <Gold.PLP.Chemscore.Metal>
0.0000

> <Gold.Chemscore.Hbonds>
donor molecule, donor type, donor heavy atom, donor atom, acceptor molecule, acceptor atom, score
      L1  H     5    14       P1  8028  0.93
      P1  H  7989  7998       L1    10  0.30

> <Gold.PLP.Chemscore.Internal.Correction>
0.0186

> <Gold.Rescore>
     Score         DG    S(hbond)    S(metal)    S(lipo)     H(rot)  DE(clash)    DE(int)     intcor
     15.10     -15.41       1.82        0.00      54.83       1.00       0.27       0.04       ----

> <Gold.Chemscore.Fitness>
15.1022

> <Gold.Chemscore.DG>
-15.4082

> <Gold.Chemscore.ZeroCoef>
-5.4800

> <Gold.Chemscore.Hbond>
1.8184

> <Gold.Chemscore.Metal>
0.0000

> <Gold.Chemscore.Lipo>
54.8257

> <Gold.Chemscore.Internal_Hbond>
0.0000

> <Gold.Chemscore.DEClash>
0.2668

> <Gold.Chemscore.DEInternal>
0.0392

> <Gold.Chemscore.Rot>
1.0000

> <Gold.Chemscore.Internal.Correction>
   9.000000E+99

> <Gold.Chemscore.Hbonds>
donor molecule, donor type, donor heavy atom, donor atom, acceptor molecule, acceptor atom, score
      L1  H     5    14       P1  8028  0.90

> <Gold.Chemscore.Hbond.Weighted>
-6.0736

> <Gold.Chemscore.Metal.Weighted>
-0.0000

> <Gold.Chemscore.Lipo.Weighted>
-6.4146

> <Gold.Chemscore.Internal_Hbond.Weighted>
0.0000

> <Gold.Chemscore.DEClash.Weighted>
0.2668

> <Gold.Chemscore.DEInternal.Weighted>
0.0392

> <Gold.Chemscore.Rot.Weighted>
2.5600

> <Gold.Chemscore.Internal.Correction.Weighted>
   9.000000E+99

> <Gold.Protein.RotatedTorsions>
[ 6907 6896 6895 6894 ] final  105.20 input  -60.11 | X-H torsion
[ 7974 7965 7964 7962 ] final    5.46 input  175.53 | X-H torsion
[ 8008 7997 7996 7995 ] final  116.83 input   59.86 | X-H torsion
[ 10167 10162 10161 10158 ] final   56.24 input  -65.29 | X-H torsion
[ 10718 10713 10712 10709 ] final -178.46 input   66.30 | X-H torsion
[ 10763 10752 10751 10750 ] final  115.11 input  -60.55 | X-H torsion
[ 11005 11000 10999 10996 ] final -101.61 input  -57.11 | X-H torsion

> <Gold.Protein.ActiveResidues>
 VAL166  LYS551  ARG553  GLY616  TRP617  ASP618  TYR619  PRO620  LYS621  CYS622 
 ASP623  PHE694  ASN695  SER759  ASP760  ASP761  ALA762  ILE779  LEU786  VAL792 
 PHE793  MET794  SER795  GLU796  ALA797  LYS798  CYS799  TRP800  GLU811  SER814 

> <Gold.Protein.RotatedAtoms>
  152.5238  133.9563  159.7695 H   0  0  0  0  0  0  0  0  0  0  0  0  # atno 6907 bound_to 6896
  150.9863  133.6186  159.2722 H   0  0  0  0  0  0  0  0  0  0  0  0  # atno 6908 bound_to 6896
  151.3346  135.0855  159.9403 H   0  0  0  0  0  0  0  0  0  0  0  0  # atno 6909 bound_to 6896
  146.2440  140.0381  142.8384 H   0  0  0  0  0  0  0  0  0  0  0  0  # atno 7974 bound_to 7965
  156.2461  140.2909  156.0585 H   0  0  0  0  0  0  0  0  0  0  0  0  # atno 8008 bound_to 7997
  155.1802  140.0404  157.2898 H   0  0  0  0  0  0  0  0  0  0  0  0  # atno 8009 bound_to 7997
  154.6265  140.2489  155.7493 H   0  0  0  0  0  0  0  0  0  0  0  0  # atno 8010 bound_to 7997
  140.2109  144.3890  150.6489 H   0  0  0  0  0  0  0  0  0  0  0  0  # atno 10167 bound_to 10162
  156.8447  130.9698  151.3097 H   0  0  0  0  0  0  0  0  0  0  0  0  # atno 10718 bound_to 10713
  153.5174  135.3605  155.2615 H   0  0  0  0  0  0  0  0  0  0  0  0  # atno 10763 bound_to 10752
  154.8737  135.4037  154.3299 H   0  0  0  0  0  0  0  0  0  0  0  0  # atno 10764 bound_to 10752
  153.3963  135.7073  153.6525 H   0  0  0  0  0  0  0  0  0  0  0  0  # atno 10765 bound_to 10752
  141.1223  133.8492  157.1254 H   0  0  0  0  0  0  0  0  0  0  0  0  # atno 11005 bound_to 11000
  145.1094  140.9396  143.4665 LP  0  0  0  0  0  0  0  0  0  0  0  0  # atno 17320 bound_to 7965
  145.0591  139.3120  143.5889 LP  0  0  0  0  0  0  0  0  0  0  0  0  # atno 17321 bound_to 7965
  140.6324  143.2189  151.6467 LP  0  0  0  0  0  0  0  0  0  0  0  0  # atno 17342 bound_to 10162
  139.5180  144.3297  152.0838 LP  0  0  0  0  0  0  0  0  0  0  0  0  # atno 17343 bound_to 10162
  157.6336  130.8749  149.9319 LP  0  0  0  0  0  0  0  0  0  0  0  0  # atno 17370 bound_to 10713
  156.0861  130.3668  150.0484 LP  0  0  0  0  0  0  0  0  0  0  0  0  # atno 17371 bound_to 10713
  140.0191  134.9954  157.0556 LP  0  0  0  0  0  0  0  0  0  0  0  0  # atno 17394 bound_to 11000
  140.4469  134.1623  155.7178 LP  0  0  0  0  0  0  0  0  0  0  0  0  # atno 17395 bound_to 11000

$$$$
