AV-unprocessed.smi:374|AV-procd|sdf|2452|dock3
  -GOLD-   2262022393D 1   1.00000     0.00000
 Structure written by MMmdl.
 37 38  0  0  0  0  0  0  0  0  1 V2000
  151.7864  137.8909  154.4162 C   0  0  0  0  0  0  0  0  0  0  0  0
  151.1522  138.7127  155.5572 C   0  0  1  0  0  0  0  0  0  0  0  0
  152.1762  139.1054  156.6326 C   0  0  0  0  0  0  0  0  0  0  0  0
  153.3653  138.8135  156.5001 O   0  0  0  0  0  0  0  0  0  0  0  0
  151.6966  139.7701  157.6965 N   0  0  0  0  0  0  0  0  0  0  0  0
  152.4899  140.2556  158.8222 C   0  0  0  0  0  0  0  0  0  0  0  0
  151.9727  141.5996  159.3777 C   0  0  0  0  0  0  0  0  0  0  0  0
  151.9081  142.6565  158.2554 C   0  0  0  0  0  0  0  0  0  0  0  0
  151.3896  144.0100  158.7674 C   0  0  0  0  0  0  0  0  0  0  0  0
  152.2398  144.5235  159.9383 C   0  0  0  0  0  0  0  0  0  0  0  0
  152.3008  143.4862  161.0687 C   0  0  0  0  0  0  0  0  0  0  0  0
  152.8176  142.1314  160.5579 C   0  0  0  0  0  0  0  0  0  0  0  0
  150.4588  139.8991  155.0704 N   0  0  0  0  0  0  0  0  0  0  0  0
  149.6284  140.0400  154.0348 C   0  0  0  0  0  0  0  0  0  0  0  0
  149.1305  141.2616  153.9045 N   0  0  0  0  0  0  0  0  0  0  0  0
  149.7243  141.8648  154.9767 C   0  0  0  0  0  0  0  0  0  0  0  0
  150.5208  141.0916  155.7144 N   0  0  0  0  0  0  0  0  0  0  0  0
  152.2459  136.9792  154.7993 H   0  0  0  0  0  0  0  0  0  0  0  0
  152.5582  138.4501  153.8858 H   0  0  0  0  0  0  0  0  0  0  0  0
  151.0331  137.5939  153.6859 H   0  0  0  0  0  0  0  0  0  0  0  0
  150.4010  138.0774  156.0301 H   0  0  0  0  0  0  0  0  0  0  0  0
  150.7061  139.9633  157.7249 H   0  0  0  0  0  0  0  0  0  0  0  0
  152.5397  139.5098  159.6174 H   0  0  0  0  0  0  0  0  0  0  0  0
  153.5124  140.3792  158.4641 H   0  0  0  0  0  0  0  0  0  0  0  0
  150.9559  141.4396  159.7402 H   0  0  0  0  0  0  0  0  0  0  0  0
  152.8993  142.7910  157.8205 H   0  0  0  0  0  0  0  0  0  0  0  0
  151.2640  142.3046  157.4487 H   0  0  0  0  0  0  0  0  0  0  0  0
  151.3952  144.7399  157.9573 H   0  0  0  0  0  0  0  0  0  0  0  0
  150.3511  143.9083  159.0851 H   0  0  0  0  0  0  0  0  0  0  0  0
  153.2493  144.7449  159.5897 H   0  0  0  0  0  0  0  0  0  0  0  0
  151.8291  145.4612  160.3143 H   0  0  0  0  0  0  0  0  0  0  0  0
  152.9426  143.8492  161.8720 H   0  0  0  0  0  0  0  0  0  0  0  0
  151.3074  143.3580  161.5004 H   0  0  0  0  0  0  0  0  0  0  0  0
  152.8092  141.4208  161.3842 H   0  0  0  0  0  0  0  0  0  0  0  0
  153.8588  142.2314  160.2481 H   0  0  0  0  0  0  0  0  0  0  0  0
  149.3789  139.2304  153.3646 H   0  0  0  0  0  0  0  0  0  0  0  0
  149.5594  142.9032  155.2247 H   0  0  0  0  0  0  0  0  0  0  0  0
  1  2  1  0  0  0  0
  1 18  1  0  0  0  0
  1 19  1  0  0  0  0
  1 20  1  0  0  0  0
  2  3  1  0  0  0  0
  2 13  1  0  0  0  0
  2 21  1  0  0  0  0
  3  4  2  0  0  0  0
  3  5  1  0  0  0  0
  5  6  1  0  0  0  0
  5 22  1  0  0  0  0
  6  7  1  0  0  0  0
  6 23  1  0  0  0  0
  6 24  1  0  0  0  0
  7 12  1  0  0  0  0
  7  8  1  0  0  0  0
  7 25  1  0  0  0  0
  8  9  1  0  0  0  0
  8 26  1  0  0  0  0
  8 27  1  0  0  0  0
  9 10  1  0  0  0  0
  9 28  1  0  0  0  0
  9 29  1  0  0  0  0
 10 11  1  0  0  0  0
 10 30  1  0  0  0  0
 10 31  1  0  0  0  0
 11 12  1  0  0  0  0
 11 32  1  0  0  0  0
 11 33  1  0  0  0  0
 12 34  1  0  0  0  0
 12 35  1  0  0  0  0
 13 17  1  0  0  0  0
 13 14  1  0  0  0  0
 14 15  2  0  0  0  0
 14 36  1  0  0  0  0
 15 16  1  0  0  0  0
 16 17  2  0  0  0  0
 16 37  1  0  0  0  0
M  END
> <s_m_source_file>
AV-unprocessed.smi

> <i_m_source_file_index>
374

> <i_lp_mmshare_version>
43012

> <i_f3d_flags>
0

> <s_epik_input>
bjFbY0hdbltjSF1uMVtDQEhdKFtDSDNdKUMoPU8pW05IXVtDSDJdW0NIXTJbQ0gyXVtDSDJdW0NIMl1bQ0gyXVtDSDJdMg==

> <s_epik_cmdline>
J2VwaWtfcHl0aG9uJywgJy1waCcsICc3LjAnLCAnLXRuJywgJzgnLCAnLW1hJywgJzIwMCcsICctbWV0YWxfYmluZGluZycsICctaW1hZScsICc8aW5maWxlLm1hZT4nLCAnLW9tYWUnLCAnPG91dGZpbGUubWFlPic=

> <r_lp_tautomer_probability>
1

> <r_epik_Ionization_Penalty>
1.24899e-05

> <r_epik_Ionization_Penalty_Charging>
0

> <r_epik_Ionization_Penalty_Neutral>
1.24899e-05

> <r_epik_State_Penalty>
-0

> <r_epik_Charging_Adjusted_Penalty>
0

> <i_epik_Tot_Q>
0

> <i_epik_Tot_abs_Q>
0

> <r_epik_Metal_State_Penalty>
-0

> <b_epik_Metal_Only>
0

> <s_lp_Force_Field>
OPLS_2005

> <r_lp_Energy>
16.3067

> <b_lp_Chiralities_Consistent>
1

> <s_lp_Variant>
AV-unprocessed.smi:374-2

> <Gold.Version>
5.8.1

> <Gold.Id.Protein>
6NUR|6NUR_protein|mol2

> <Gold.PLP.Fitness>
43.7059

> <Gold.PLP.PLP>
-35.5471

> <Gold.PLP.part.hbond>
-2.5786

> <Gold.PLP.part.metal>
0.0000

> <Gold.PLP.part.buried>
0.1073

> <Gold.PLP.part.nonpolar>
-33.0542

> <Gold.PLP.part.repulsive>
0.7439

> <Gold.PLP.ligand.clash>
0.0000

> <Gold.PLP.ligand.torsion>
0.5610

> <Gold.PLP.Chemscore.Hbond>
1.6354

> <Gold.PLP.Chemscore.CHOScore>
1.4232

> <Gold.PLP.Chemscore.Metal>
0.0000

> <Gold.Chemscore.Hbonds>
donor molecule, donor type, donor heavy atom, donor atom, acceptor molecule, acceptor atom, score
      P1  H  7997  8010       L1     4  1.00
      P1  H  8011  8017       L1    15  0.77
      L1  C    14    36       P1  7957  0.56
      L1  C    16    37       P1  8028  0.87

> <Gold.PLP.Chemscore.Internal.Correction>
0.1048

> <Gold.Rescore>
     Score         DG    S(hbond)    S(metal)    S(lipo)     H(rot)  DE(clash)    DE(int)     intcor
     11.41     -13.64       0.99        0.00      88.34       2.14       0.06       2.18       ----

> <Gold.Chemscore.Fitness>
11.4066

> <Gold.Chemscore.DG>
-13.6392

> <Gold.Chemscore.ZeroCoef>
-5.4800

> <Gold.Chemscore.Hbond>
0.9871

> <Gold.Chemscore.Metal>
0.0000

> <Gold.Chemscore.Lipo>
88.3434

> <Gold.Chemscore.Internal_Hbond>
0.0000

> <Gold.Chemscore.DEClash>
0.0555

> <Gold.Chemscore.DEInternal>
2.1770

> <Gold.Chemscore.Rot>
2.1383

> <Gold.Chemscore.Internal.Correction>
   9.000000E+99

> <Gold.Chemscore.Hbonds>
donor molecule, donor type, donor heavy atom, donor atom, acceptor molecule, acceptor atom, score
      P1  H  7997  8010       L1     4  0.86
      P1  H  8011  8017       L1    15  0.24

> <Gold.Chemscore.Hbond.Weighted>
-3.2971

> <Gold.Chemscore.Metal.Weighted>
-0.0000

> <Gold.Chemscore.Lipo.Weighted>
-10.3362

> <Gold.Chemscore.Internal_Hbond.Weighted>
0.0000

> <Gold.Chemscore.DEClash.Weighted>
0.0555

> <Gold.Chemscore.DEInternal.Weighted>
2.1770

> <Gold.Chemscore.Rot.Weighted>
5.4741

> <Gold.Chemscore.Internal.Correction.Weighted>
   9.000000E+99

> <Gold.Protein.RotatedTorsions>
[ 6907 6896 6895 6894 ] final -117.73 input  -60.11 | X-H torsion
[ 7974 7965 7964 7962 ] final  -77.68 input  175.53 | X-H torsion
[ 8008 7997 7996 7995 ] final   70.62 input   59.86 | X-H torsion
[ 10167 10162 10161 10158 ] final   67.70 input  -65.29 | X-H torsion
[ 10718 10713 10712 10709 ] final -101.43 input   66.30 | X-H torsion
[ 10763 10752 10751 10750 ] final  128.66 input  -60.55 | X-H torsion
[ 11005 11000 10999 10996 ] final  138.97 input  -57.11 | X-H torsion

> <Gold.Protein.ActiveResidues>
 VAL166  LYS551  ARG553  GLY616  TRP617  ASP618  TYR619  PRO620  LYS621  CYS622 
 ASP623  PHE694  ASN695  SER759  ASP760  ASP761  ALA762  ILE779  LEU786  VAL792 
 PHE793  MET794  SER795  GLU796  ALA797  LYS798  CYS799  TRP800  GLU811  SER814 

> <Gold.Protein.RotatedAtoms>
  150.8161  133.8335  159.3159 H   0  0  0  0  0  0  0  0  0  0  0  0  # atno 6907 bound_to 6896
  151.6106  135.1039  160.0090 H   0  0  0  0  0  0  0  0  0  0  0  0  # atno 6908 bound_to 6896
  152.4252  133.7143  159.6553 H   0  0  0  0  0  0  0  0  0  0  0  0  # atno 6909 bound_to 6896
  145.5964  140.9418  143.1264 H   0  0  0  0  0  0  0  0  0  0  0  0  # atno 7974 bound_to 7965
  155.7415  140.3490  155.5106 H   0  0  0  0  0  0  0  0  0  0  0  0  # atno 8008 bound_to 7997
  155.9089  140.1047  157.1315 H   0  0  0  0  0  0  0  0  0  0  0  0  # atno 8009 bound_to 7997
  154.4053  140.1271  156.4519 H   0  0  0  0  0  0  0  0  0  0  0  0  # atno 8010 bound_to 7997
  140.0867  144.5024  150.7126 H   0  0  0  0  0  0  0  0  0  0  0  0  # atno 10167 bound_to 10162
  156.0194  130.5373  150.6962 H   0  0  0  0  0  0  0  0  0  0  0  0  # atno 10718 bound_to 10713
  153.7292  135.3241  155.3282 H   0  0  0  0  0  0  0  0  0  0  0  0  # atno 10763 bound_to 10752
  154.8331  135.4518  154.1139 H   0  0  0  0  0  0  0  0  0  0  0  0  # atno 10764 bound_to 10752
  153.2281  135.6956  153.8002 H   0  0  0  0  0  0  0  0  0  0  0  0  # atno 10765 bound_to 10752
  140.0221  134.9392  157.0495 H   0  0  0  0  0  0  0  0  0  0  0  0  # atno 11005 bound_to 11000
  144.7329  139.7673  143.7340 LP  0  0  0  0  0  0  0  0  0  0  0  0  # atno 17320 bound_to 7965
  146.1608  139.4722  142.9989 LP  0  0  0  0  0  0  0  0  0  0  0  0  # atno 17321 bound_to 7965
  140.7050  143.2461  151.4754 LP  0  0  0  0  0  0  0  0  0  0  0  0  # atno 17342 bound_to 10162
  139.5748  144.1844  152.1888 LP  0  0  0  0  0  0  0  0  0  0  0  0  # atno 17343 bound_to 10162
  157.4632  131.0885  151.0723 LP  0  0  0  0  0  0  0  0  0  0  0  0  # atno 17370 bound_to 10713
  157.1205  130.6059  149.5504 LP  0  0  0  0  0  0  0  0  0  0  0  0  # atno 17371 bound_to 10713
  140.4369  134.1722  155.7171 LP  0  0  0  0  0  0  0  0  0  0  0  0  # atno 17394 bound_to 11000
  141.1780  133.8473  157.1355 LP  0  0  0  0  0  0  0  0  0  0  0  0  # atno 17395 bound_to 11000

$$$$
