AV-unprocessed.smi:2884|AV-procd|sdf|11083|dock1
  -GOLD-   2272015553D 1   1.00000     0.00000
 Structure written by MMmdl.
 42 43  0  0  0  0  0  0  0  0  1 V2000
  142.6663  135.0884  153.4519 C   0  0  0  0  0  0  0  0  0  0  0  0
  144.1740  135.1382  153.1719 C   0  0  0  0  0  0  0  0  0  0  0  0
  144.9918  134.3193  154.1777 C   0  0  0  0  0  0  0  0  0  0  0  0
  146.2848  134.0968  153.6268 O   0  0  0  0  0  0  0  0  0  0  0  0
  146.4955  132.9853  152.7474 C   0  0  0  0  0  0  0  0  0  0  0  0
  148.0182  133.0595  152.4726 C   0  0  0  0  0  0  0  0  0  0  0  0
  148.8038  132.5386  153.5849 N   0  0  0  0  0  0  0  0  0  0  0  0
  149.4620  133.2109  154.6073 C   0  0  0  0  0  0  0  0  0  0  0  0
  149.4667  134.6644  154.7371 C   0  0  0  0  0  0  0  0  0  0  0  0
  150.0862  135.2794  155.6857 N   0  0  0  0  0  0  0  0  0  0  0  0
  150.7667  134.5320  156.6152 N   0  0  0  0  0  0  0  0  0  0  0  0
  150.8601  133.1821  156.6526 C   0  0  0  0  0  0  0  0  0  0  0  0
  151.4931  132.6067  157.5357 O   0  0  0  0  0  0  0  0  0  0  0  0
  150.1463  132.5132  155.5562 C   0  0  0  0  0  0  0  0  0  0  0  0
  150.2122  130.7829  155.4974 Cl  0  0  0  0  0  0  0  0  0  0  0  0
  146.0806  131.6185  153.3650 C   0  0  0  0  0  0  0  0  0  0  0  0
  146.2281  130.4535  152.3701 C   0  0  0  0  0  0  0  0  0  0  0  0
  145.4310  130.7200  151.0838 C   0  0  0  0  0  0  0  0  0  0  0  0
  145.8328  132.0565  150.4408 C   0  0  0  0  0  0  0  0  0  0  0  0
  145.7009  133.2232  151.4376 C   0  0  0  0  0  0  0  0  0  0  0  0
  151.2289  135.0781  157.3279 H   0  0  0  0  0  0  0  0  0  0  0  0
  142.1145  135.6665  152.7105 H   0  0  0  0  0  0  0  0  0  0  0  0
  142.4313  135.4996  154.4344 H   0  0  0  0  0  0  0  0  0  0  0  0
  142.2933  134.0642  153.4201 H   0  0  0  0  0  0  0  0  0  0  0  0
  144.3604  134.7590  152.1666 H   0  0  0  0  0  0  0  0  0  0  0  0
  144.5159  136.1739  153.1775 H   0  0  0  0  0  0  0  0  0  0  0  0
  145.0551  134.8695  155.1167 H   0  0  0  0  0  0  0  0  0  0  0  0
  144.4826  133.3773  154.3768 H   0  0  0  0  0  0  0  0  0  0  0  0
  148.2751  132.5584  151.5431 H   0  0  0  0  0  0  0  0  0  0  0  0
  148.3098  134.1011  152.3342 H   0  0  0  0  0  0  0  0  0  0  0  0
  149.0191  131.5549  153.4991 H   0  0  0  0  0  0  0  0  0  0  0  0
  148.9115  135.2206  153.9843 H   0  0  0  0  0  0  0  0  0  0  0  0
  146.6495  131.4119  154.2717 H   0  0  0  0  0  0  0  0  0  0  0  0
  145.0336  131.6423  153.6658 H   0  0  0  0  0  0  0  0  0  0  0  0
  147.2773  130.2917  152.1270 H   0  0  0  0  0  0  0  0  0  0  0  0
  145.8797  129.5298  152.8326 H   0  0  0  0  0  0  0  0  0  0  0  0
  145.5834  129.9051  150.3757 H   0  0  0  0  0  0  0  0  0  0  0  0
  144.3648  130.7336  151.3133 H   0  0  0  0  0  0  0  0  0  0  0  0
  146.8552  131.9927  150.0680 H   0  0  0  0  0  0  0  0  0  0  0  0
  145.2063  132.2466  149.5687 H   0  0  0  0  0  0  0  0  0  0  0  0
  144.6421  133.3527  151.6581 H   0  0  0  0  0  0  0  0  0  0  0  0
  146.0241  134.1513  150.9650 H   0  0  0  0  0  0  0  0  0  0  0  0
  1  2  1  0  0  0  0
  1 22  1  0  0  0  0
  1 23  1  0  0  0  0
  1 24  1  0  0  0  0
  2  3  1  0  0  0  0
  2 25  1  0  0  0  0
  2 26  1  0  0  0  0
  3  4  1  0  0  0  0
  3 27  1  0  0  0  0
  3 28  1  0  0  0  0
  4  5  1  0  0  0  0
  5 20  1  0  0  0  0
  5  6  1  0  0  0  0
  5 16  1  0  0  0  0
  6  7  1  0  0  0  0
  6 29  1  0  0  0  0
  6 30  1  0  0  0  0
  7  8  1  0  0  0  0
  7 31  1  0  0  0  0
  8 14  2  0  0  0  0
  8  9  1  0  0  0  0
  9 10  2  0  0  0  0
  9 32  1  0  0  0  0
 10 11  1  0  0  0  0
 11 21  1  0  0  0  0
 11 12  1  0  0  0  0
 12 13  2  0  0  0  0
 12 14  1  0  0  0  0
 14 15  1  0  0  0  0
 16 17  1  0  0  0  0
 16 33  1  0  0  0  0
 16 34  1  0  0  0  0
 17 18  1  0  0  0  0
 17 35  1  0  0  0  0
 17 36  1  0  0  0  0
 18 19  1  0  0  0  0
 18 37  1  0  0  0  0
 18 38  1  0  0  0  0
 19 20  1  0  0  0  0
 19 39  1  0  0  0  0
 19 40  1  0  0  0  0
 20 41  1  0  0  0  0
 20 42  1  0  0  0  0
M  END
> <s_m_source_file>
AV-unprocessed.smi

> <i_m_source_file_index>
2884

> <i_lp_mmshare_version>
43012

> <i_f3d_flags>
0

> <s_epik_input>
W0NIMl0xW0NIMl1bQ0gyXVtDSDJdW0NIMl1DMShPW0NIMl1bQ0gyXVtDSDNdKVtDSDJdW05IXWMyW2NIXW5bbkhdYyg9TyljMkNs

> <s_epik_cmdline>
J2VwaWtfcHl0aG9uJywgJy1waCcsICc3LjAnLCAnLXRuJywgJzgnLCAnLW1hJywgJzIwMCcsICctbWV0YWxfYmluZGluZycsICctaW1hZScsICc8aW5maWxlLm1hZT4nLCAnLW9tYWUnLCAnPG91dGZpbGUubWFlPic=

> <r_lp_tautomer_probability>
0.986175

> <r_epik_Ionization_Penalty>
0.00111508

> <r_epik_Ionization_Penalty_Charging>
0.00108742

> <r_epik_Ionization_Penalty_Neutral>
2.7657e-05

> <r_epik_State_Penalty>
0.00620319

> <r_epik_Charging_Adjusted_Penalty>
0.00729061

> <i_epik_Tot_Q>
0

> <i_epik_Tot_abs_Q>
0

> <r_epik_Metal_State_Penalty>
0.300009

> <b_epik_Metal_Only>
0

> <s_lp_Force_Field>
OPLS_2005

> <r_lp_Energy>
35.8934

> <b_lp_Chiralities_Consistent>
1

> <s_lp_Variant>
AV-unprocessed.smi:2884-1

> <Gold.Version>
5.8.1

> <Gold.Id.Protein>
6NUR|6NUR_protein|mol2

> <Gold.PLP.Fitness>
35.9681

> <Gold.PLP.PLP>
-31.0476

> <Gold.PLP.part.hbond>
-1.0000

> <Gold.PLP.part.metal>
0.0000

> <Gold.PLP.part.buried>
-4.9119

> <Gold.PLP.part.nonpolar>
-25.6748

> <Gold.PLP.part.repulsive>
0.3259

> <Gold.PLP.ligand.clash>
0.0000

> <Gold.PLP.ligand.torsion>
0.5567

> <Gold.PLP.Chemscore.Hbond>
1.0000

> <Gold.PLP.Chemscore.CHOScore>
1.0000

> <Gold.PLP.Chemscore.Metal>
0.0000

> <Gold.Chemscore.Hbonds>
donor molecule, donor type, donor heavy atom, donor atom, acceptor molecule, acceptor atom, score
      P1  H  6896  6909       L1    13  0.96
      L1  C     9    32       P1  7948  1.00

> <Gold.PLP.Chemscore.Internal.Correction>
0.0339

> <Gold.Rescore>
     Score         DG    S(hbond)    S(metal)    S(lipo)     H(rot)  DE(clash)    DE(int)     intcor
     12.93     -13.68       0.93        0.00      82.24       1.77       0.03       0.72       ----

> <Gold.Chemscore.Fitness>
12.9334

> <Gold.Chemscore.DG>
-13.6770

> <Gold.Chemscore.ZeroCoef>
-5.4800

> <Gold.Chemscore.Hbond>
0.9270

> <Gold.Chemscore.Metal>
0.0000

> <Gold.Chemscore.Lipo>
82.2427

> <Gold.Chemscore.Internal_Hbond>
0.0000

> <Gold.Chemscore.DEClash>
0.0270

> <Gold.Chemscore.DEInternal>
0.7165

> <Gold.Chemscore.Rot>
1.7663

> <Gold.Chemscore.Internal.Correction>
   9.000000E+99

> <Gold.Chemscore.Hbonds>
donor molecule, donor type, donor heavy atom, donor atom, acceptor molecule, acceptor atom, score
      P1  H  6896  6909       L1    13  0.91

> <Gold.Chemscore.Hbond.Weighted>
-3.0962

> <Gold.Chemscore.Metal.Weighted>
-0.0000

> <Gold.Chemscore.Lipo.Weighted>
-9.6224

> <Gold.Chemscore.Internal_Hbond.Weighted>
0.0000

> <Gold.Chemscore.DEClash.Weighted>
0.0270

> <Gold.Chemscore.DEInternal.Weighted>
0.7165

> <Gold.Chemscore.Rot.Weighted>
4.5216

> <Gold.Chemscore.Internal.Correction.Weighted>
   9.000000E+99

> <Gold.Protein.RotatedTorsions>
[ 6907 6896 6895 6894 ] final  -62.53 input  -60.11 | X-H torsion
[ 7974 7965 7964 7962 ] final -134.57 input  175.53 | X-H torsion
[ 8008 7997 7996 7995 ] final  165.29 input   59.86 | X-H torsion
[ 10167 10162 10161 10158 ] final  -35.28 input  -65.29 | X-H torsion
[ 10718 10713 10712 10709 ] final   76.29 input   66.30 | X-H torsion
[ 10763 10752 10751 10750 ] final -150.90 input  -60.55 | X-H torsion
[ 11005 11000 10999 10996 ] final   14.66 input  -57.11 | X-H torsion

> <Gold.Protein.ActiveResidues>
 VAL166  LYS551  ARG553  GLY616  TRP617  ASP618  TYR619  PRO620  LYS621  CYS622 
 ASP623  PHE694  ASN695  SER759  ASP760  ASP761  ALA762  ILE779  LEU786  VAL792 
 PHE793  MET794  SER795  GLU796  ALA797  LYS798  CYS799  TRP800  GLU811  SER814 

> <Gold.Protein.RotatedAtoms>
  150.7709  134.6557  159.6312 H   0  0  0  0  0  0  0  0  0  0  0  0  # atno 6907 bound_to 6896
  152.3761  134.6658  160.0168 H   0  0  0  0  0  0  0  0  0  0  0  0  # atno 6908 bound_to 6896
  151.7003  133.3275  159.3301 H   0  0  0  0  0  0  0  0  0  0  0  0  # atno 6909 bound_to 6896
  144.9091  140.6872  143.5036 H   0  0  0  0  0  0  0  0  0  0  0  0  # atno 7974 bound_to 7965
  156.1812  140.1674  156.8271 H   0  0  0  0  0  0  0  0  0  0  0  0  # atno 8008 bound_to 7997
  154.5362  140.0746  156.8464 H   0  0  0  0  0  0  0  0  0  0  0  0  # atno 8009 bound_to 7997
  155.3306  140.3379  155.4242 H   0  0  0  0  0  0  0  0  0  0  0  0  # atno 8010 bound_to 7997
  140.7168  143.3488  151.2199 H   0  0  0  0  0  0  0  0  0  0  0  0  # atno 10167 bound_to 10162
  157.6668  130.9767  150.1476 H   0  0  0  0  0  0  0  0  0  0  0  0  # atno 10718 bound_to 10713
  154.8091  135.3273  154.7353 H   0  0  0  0  0  0  0  0  0  0  0  0  # atno 10763 bound_to 10752
  153.8005  135.6904  153.4861 H   0  0  0  0  0  0  0  0  0  0  0  0  # atno 10764 bound_to 10752
  153.1857  135.4570  155.0031 H   0  0  0  0  0  0  0  0  0  0  0  0  # atno 10765 bound_to 10752
  140.4671  134.1069  155.7726 H   0  0  0  0  0  0  0  0  0  0  0  0  # atno 11005 bound_to 11000
  145.3485  139.1713  143.4447 LP  0  0  0  0  0  0  0  0  0  0  0  0  # atno 17320 bound_to 7965
  146.3149  140.3534  142.8658 LP  0  0  0  0  0  0  0  0  0  0  0  0  # atno 17321 bound_to 7965
  139.7014  143.9526  152.2907 LP  0  0  0  0  0  0  0  0  0  0  0  0  # atno 17342 bound_to 10162
  139.9221  144.6793  150.8451 LP  0  0  0  0  0  0  0  0  0  0  0  0  # atno 17343 bound_to 10162
  156.2283  130.3680  149.8474 LP  0  0  0  0  0  0  0  0  0  0  0  0  # atno 17370 bound_to 10713
  156.6308  130.8665  151.3495 LP  0  0  0  0  0  0  0  0  0  0  0  0  # atno 17371 bound_to 10713
  141.1594  133.8821  157.1888 LP  0  0  0  0  0  0  0  0  0  0  0  0  # atno 17394 bound_to 11000
  139.9909  135.0065  156.9972 LP  0  0  0  0  0  0  0  0  0  0  0  0  # atno 17395 bound_to 11000

$$$$
