AV-unprocessed.smi:1376|AV-procd|sdf|5591|dock1
  -GOLD-   22720 5193D 1   1.00000     0.00000
 Structure written by MMmdl.
 42 43  0  0  0  0  0  0  0  0  1 V2000
  149.2161  135.7200  158.4423 O   0  0  0  0  0  0  0  0  0  0  0  0
  148.3521  136.5865  158.3037 C   0  0  0  0  0  0  0  0  0  0  0  0
  146.9079  136.3298  158.7556 C   0  0  0  0  0  0  0  0  0  0  0  0
  146.8246  135.7086  160.0877 N   0  0  0  0  0  0  0  0  0  0  0  0
  146.9132  134.3036  160.1497 C   0  0  0  0  0  0  0  0  0  0  0  0
  146.8476  133.6389  161.3141 C   0  0  0  0  0  0  0  0  0  0  0  0
  146.6807  134.4025  162.5276 C   0  0  0  0  0  0  0  0  0  0  0  0
  146.5994  135.7471  162.4802 C   0  0  0  0  0  0  0  0  0  0  0  0
  146.6735  136.4782  161.2100 C   0  0  0  0  0  0  0  0  0  0  0  0
  146.6027  137.7066  161.1575 O   0  0  0  0  0  0  0  0  0  0  0  0
  148.5904  137.7818  157.7431 N   0  0  0  0  0  0  0  0  0  0  0  0
  149.8857  138.2451  157.2547 C   0  0  1  0  0  0  0  0  0  0  0  0
  149.8086  138.5764  155.7513 C   0  0  0  0  0  0  0  0  0  0  0  0
  151.1387  139.1473  155.2351 C   0  0  0  0  0  0  0  0  0  0  0  0
  151.5735  140.3728  156.0539 C   0  0  0  0  0  0  0  0  0  0  0  0
  151.6717  140.0392  157.5522 C   0  0  1  0  0  0  0  0  0  0  0  0
  152.0127  141.2394  158.2339 O   0  0  0  0  0  0  0  0  0  0  0  0
  151.0484  142.2775  158.1201 C   0  0  0  0  0  0  0  0  0  0  0  0
  151.5384  143.5121  158.8856 C   0  0  0  0  0  0  0  0  0  0  0  0
  150.4970  144.2908  159.1764 F   0  0  0  0  0  0  0  0  0  0  0  0
  152.1284  143.1447  160.0227 F   0  0  0  0  0  0  0  0  0  0  0  0
  152.3968  144.2069  158.1397 F   0  0  0  0  0  0  0  0  0  0  0  0
  150.3313  139.4750  158.0674 C   0  0  0  0  0  0  0  0  0  0  0  0
  146.3453  137.2656  158.7460 H   0  0  0  0  0  0  0  0  0  0  0  0
  146.4260  135.7002  158.0066 H   0  0  0  0  0  0  0  0  0  0  0  0
  147.0442  133.8075  159.1988 H   0  0  0  0  0  0  0  0  0  0  0  0
  146.9218  132.5617  161.3429 H   0  0  0  0  0  0  0  0  0  0  0  0
  146.6226  133.8938  163.4787 H   0  0  0  0  0  0  0  0  0  0  0  0
  146.4758  136.3018  163.3988 H   0  0  0  0  0  0  0  0  0  0  0  0
  147.8178  138.4267  157.6611 H   0  0  0  0  0  0  0  0  0  0  0  0
  150.6292  137.4594  157.4039 H   0  0  0  0  0  0  0  0  0  0  0  0
  149.5479  137.6838  155.1812 H   0  0  0  0  0  0  0  0  0  0  0  0
  149.0123  139.3007  155.5730 H   0  0  0  0  0  0  0  0  0  0  0  0
  151.9112  138.3792  155.2884 H   0  0  0  0  0  0  0  0  0  0  0  0
  151.0435  139.4178  154.1830 H   0  0  0  0  0  0  0  0  0  0  0  0
  152.5350  140.7375  155.6911 H   0  0  0  0  0  0  0  0  0  0  0  0
  150.8590  141.1833  155.9034 H   0  0  0  0  0  0  0  0  0  0  0  0
  152.4617  139.2979  157.6865 H   0  0  0  0  0  0  0  0  0  0  0  0
  150.8805  142.5389  157.0754 H   0  0  0  0  0  0  0  0  0  0  0  0
  150.0936  141.9456  158.5307 H   0  0  0  0  0  0  0  0  0  0  0  0
  149.5670  140.2514  158.0095 H   0  0  0  0  0  0  0  0  0  0  0  0
  150.4121  139.1995  159.1188 H   0  0  0  0  0  0  0  0  0  0  0  0
  1  2  2  0  0  0  0
  2  3  1  0  0  0  0
  2 11  1  0  0  0  0
  3  4  1  0  0  0  0
  3 24  1  0  0  0  0
  3 25  1  0  0  0  0
  4  9  1  0  0  0  0
  4  5  1  0  0  0  0
  5  6  2  0  0  0  0
  5 26  1  0  0  0  0
  6  7  1  0  0  0  0
  6 27  1  0  0  0  0
  7  8  2  0  0  0  0
  7 28  1  0  0  0  0
  8  9  1  0  0  0  0
  8 29  1  0  0  0  0
  9 10  2  0  0  0  0
 11 12  1  0  0  0  0
 11 30  1  0  0  0  0
 12 23  1  0  0  0  0
 12 13  1  0  0  0  0
 12 31  1  0  0  0  0
 13 14  1  0  0  0  0
 13 32  1  0  0  0  0
 13 33  1  0  0  0  0
 14 15  1  0  0  0  0
 14 34  1  0  0  0  0
 14 35  1  0  0  0  0
 15 16  1  0  0  0  0
 15 36  1  0  0  0  0
 15 37  1  0  0  0  0
 16 17  1  0  0  0  0
 16 23  1  0  0  0  0
 16 38  1  0  0  0  0
 17 18  1  0  0  0  0
 18 19  1  0  0  0  0
 18 39  1  0  0  0  0
 18 40  1  0  0  0  0
 19 20  1  0  0  0  0
 19 21  1  0  0  0  0
 19 22  1  0  0  0  0
 23 41  1  0  0  0  0
 23 42  1  0  0  0  0
M  END
> <s_m_source_file>
AV-unprocessed.smi

> <i_m_source_file_index>
1376

> <i_lp_mmshare_version>
43012

> <i_f3d_flags>
0

> <s_epik_input>
Tz1jMVtjSF1bY0hdW2NIXVtjSF1uMVtDSDJdQyg9TylbTkhdW0NAQEhdMltDSDJdW0NIMl1bQ0gyXVtDQEhdKFtDSDJdMilPW0NIMl1DKEYpKEYpRg==

> <s_epik_cmdline>
J2VwaWtfcHl0aG9uJywgJy1waCcsICc3LjAnLCAnLXRuJywgJzgnLCAnLW1hJywgJzIwMCcsICctbWV0YWxfYmluZGluZycsICctaW1hZScsICc8aW5maWxlLm1hZT4nLCAnLW9tYWUnLCAnPG91dGZpbGUubWFlPic=

> <r_lp_tautomer_probability>
1

> <r_epik_Ionization_Penalty>
4.08567e-07

> <r_epik_Ionization_Penalty_Charging>
3.90028e-07

> <r_epik_Ionization_Penalty_Neutral>
1.85393e-08

> <r_epik_State_Penalty>
-0

> <r_epik_Charging_Adjusted_Penalty>
3.90028e-07

> <i_epik_Tot_Q>
0

> <i_epik_Tot_abs_Q>
0

> <r_epik_Metal_State_Penalty>
-0

> <b_epik_Metal_Only>
0

> <s_lp_Force_Field>
OPLS_2005

> <r_lp_Energy>
18.2113

> <b_lp_Chiralities_Consistent>
1

> <s_lp_Variant>
AV-unprocessed.smi:1376-2

> <Gold.Version>
5.8.1

> <Gold.Id.Protein>
6NUR|6NUR_protein|mol2

> <Gold.PLP.Fitness>
53.3631

> <Gold.PLP.PLP>
-46.9905

> <Gold.PLP.part.hbond>
-2.9341

> <Gold.PLP.part.metal>
0.0000

> <Gold.PLP.part.buried>
-5.3168

> <Gold.PLP.part.nonpolar>
-38.8469

> <Gold.PLP.part.repulsive>
0.0798

> <Gold.PLP.ligand.clash>
0.0000

> <Gold.PLP.ligand.torsion>
0.8712

> <Gold.PLP.Chemscore.Hbond>
2.6738

> <Gold.PLP.Chemscore.CHOScore>
0.0000

> <Gold.PLP.Chemscore.Metal>
0.0000

> <Gold.Chemscore.Hbonds>
donor molecule, donor type, donor heavy atom, donor atom, acceptor molecule, acceptor atom, score
      P1  H  6896  6907       L1     1  0.68
      P1  H  6934  6947       L1    10  0.80

> <Gold.PLP.Chemscore.Internal.Correction>
0.0936

> <Gold.Rescore>
     Score         DG    S(hbond)    S(metal)    S(lipo)     H(rot)  DE(clash)    DE(int)     intcor
     15.67     -16.12       1.97        0.00      82.32       2.18       0.02       0.44       ----

> <Gold.Chemscore.Fitness>
15.6665

> <Gold.Chemscore.DG>
-16.1250

> <Gold.Chemscore.ZeroCoef>
-5.4800

> <Gold.Chemscore.Hbond>
1.9742

> <Gold.Chemscore.Metal>
0.0000

> <Gold.Chemscore.Lipo>
82.3197

> <Gold.Chemscore.Internal_Hbond>
0.0000

> <Gold.Chemscore.DEClash>
0.0192

> <Gold.Chemscore.DEInternal>
0.4394

> <Gold.Chemscore.Rot>
2.1797

> <Gold.Chemscore.Internal.Correction>
   9.000000E+99

> <Gold.Chemscore.Hbonds>
donor molecule, donor type, donor heavy atom, donor atom, acceptor molecule, acceptor atom, score
      P1  H  6896  6907       L1     1  0.67
      P1  H  6934  6947       L1    10  0.78

> <Gold.Chemscore.Hbond.Weighted>
-6.5937

> <Gold.Chemscore.Metal.Weighted>
-0.0000

> <Gold.Chemscore.Lipo.Weighted>
-9.6314

> <Gold.Chemscore.Internal_Hbond.Weighted>
0.0000

> <Gold.Chemscore.DEClash.Weighted>
0.0192

> <Gold.Chemscore.DEInternal.Weighted>
0.4394

> <Gold.Chemscore.Rot.Weighted>
5.5802

> <Gold.Chemscore.Internal.Correction.Weighted>
   9.000000E+99

> <Gold.Protein.RotatedTorsions>
[ 6907 6896 6895 6894 ] final  -74.16 input  -60.11 | X-H torsion
[ 7974 7965 7964 7962 ] final   72.28 input  175.53 | X-H torsion
[ 8008 7997 7996 7995 ] final  -40.20 input   59.86 | X-H torsion
[ 10167 10162 10161 10158 ] final   38.38 input  -65.29 | X-H torsion
[ 10718 10713 10712 10709 ] final  -29.73 input   66.30 | X-H torsion
[ 10763 10752 10751 10750 ] final -131.20 input  -60.55 | X-H torsion
[ 11005 11000 10999 10996 ] final  -43.45 input  -57.11 | X-H torsion

> <Gold.Protein.ActiveResidues>
 VAL166  LYS551  ARG553  GLY616  TRP617  ASP618  TYR619  PRO620  LYS621  CYS622 
 ASP623  PHE694  ASN695  SER759  ASP760  ASP761  ALA762  ILE779  LEU786  VAL792 
 PHE793  MET794  SER795  GLU796  ALA797  LYS798  CYS799  TRP800  GLU811  SER814 

> <Gold.Protein.RotatedAtoms>
  150.7103  134.4910  159.5515 H   0  0  0  0  0  0  0  0  0  0  0  0  # atno 6907 bound_to 6896
  152.2527  134.8113  160.0452 H   0  0  0  0  0  0  0  0  0  0  0  0  # atno 6908 bound_to 6896
  151.8854  133.3469  159.3817 H   0  0  0  0  0  0  0  0  0  0  0  0  # atno 6909 bound_to 6896
  145.7553  139.2777  143.1407 H   0  0  0  0  0  0  0  0  0  0  0  0  # atno 7974 bound_to 7965
  154.4014  140.1531  156.2988 H   0  0  0  0  0  0  0  0  0  0  0  0  # atno 8008 bound_to 7997
  155.8719  140.3448  155.5805 H   0  0  0  0  0  0  0  0  0  0  0  0  # atno 8009 bound_to 7997
  155.7764  140.0837  157.2072 H   0  0  0  0  0  0  0  0  0  0  0  0  # atno 8010 bound_to 7997
  140.3942  144.1811  150.6131 H   0  0  0  0  0  0  0  0  0  0  0  0  # atno 10167 bound_to 10162
  156.4087  130.4404  149.7268 H   0  0  0  0  0  0  0  0  0  0  0  0  # atno 10718 bound_to 10713
  154.8752  135.3838  154.4208 H   0  0  0  0  0  0  0  0  0  0  0  0  # atno 10763 bound_to 10752
  153.4912  135.7030  153.5888 H   0  0  0  0  0  0  0  0  0  0  0  0  # atno 10764 bound_to 10752
  153.4261  135.3890  155.2109 H   0  0  0  0  0  0  0  0  0  0  0  0  # atno 10765 bound_to 10752
  141.0385  133.6790  156.2735 H   0  0  0  0  0  0  0  0  0  0  0  0  # atno 11005 bound_to 11000
  146.0317  140.8252  142.9873 LP  0  0  0  0  0  0  0  0  0  0  0  0  # atno 17320 bound_to 7965
  144.6841  140.2778  143.7296 LP  0  0  0  0  0  0  0  0  0  0  0  0  # atno 17321 bound_to 7965
  140.4808  143.2380  151.8958 LP  0  0  0  0  0  0  0  0  0  0  0  0  # atno 17342 bound_to 10162
  139.4787  144.5271  151.8719 LP  0  0  0  0  0  0  0  0  0  0  0  0  # atno 17343 bound_to 10162
  156.4255  130.7790  151.2808 LP  0  0  0  0  0  0  0  0  0  0  0  0  # atno 17370 bound_to 10713
  157.7506  131.0170  150.3566 LP  0  0  0  0  0  0  0  0  0  0  0  0  # atno 17371 bound_to 10713
  140.6279  134.5295  157.5556 LP  0  0  0  0  0  0  0  0  0  0  0  0  # atno 17394 bound_to 11000
  139.9258  134.8059  156.1074 LP  0  0  0  0  0  0  0  0  0  0  0  0  # atno 17395 bound_to 11000

$$$$
