AV-unprocessed.smi:1537|AV-procd|sdf|6190|dock5
  -GOLD-   22720 6353D 1   1.00000     0.00000
 Structure written by MMmdl.
 43 43  0  0  0  0  0  0  0  0  1 V2000
  154.2543  141.3130  161.0827 C   0  0  0  0  0  0  0  0  0  0  0  0
  153.4629  142.4064  161.8085 C   0  0  0  0  0  0  0  0  0  0  0  0
  152.7338  143.3052  160.8672 C   0  0  0  0  0  0  0  0  0  0  0  0
  152.6188  143.0646  159.5584 N   0  0  0  0  0  0  0  0  0  0  0  0
  151.9277  144.0761  158.8823 C   0  0  0  0  0  0  0  0  0  0  0  0
  151.7063  143.9792  157.3975 C   0  0  0  0  0  0  0  0  0  0  0  0
  151.2188  142.5870  156.9745 C   0  0  0  0  0  0  0  0  0  0  0  0
  151.8530  141.5902  157.3203 O   0  0  0  0  0  0  0  0  0  0  0  0
  150.0881  142.5199  156.2507 N   0  0  0  0  0  0  0  0  0  0  0  0
  149.4514  141.2920  155.7803 C   0  0  2  0  0  0  0  0  0  0  0  0
  149.6352  141.2200  154.2553 C   0  0  0  0  0  0  0  0  0  0  0  0
  147.9429  141.3236  156.0727 C   0  0  0  0  0  0  0  0  0  0  0  0
  147.4269  140.4560  156.7791 O   0  0  0  0  0  0  0  0  0  0  0  0
  147.2627  142.3493  155.5299 N   0  0  0  0  0  0  0  0  0  0  0  0
  145.8312  142.6543  155.6382 C   0  0  0  0  0  0  0  0  0  0  0  0
  145.4759  143.5658  154.4507 C   0  0  0  0  0  0  0  0  0  0  0  0
  145.5318  143.4064  156.9523 C   0  0  0  0  0  0  0  0  0  0  0  0
  144.9916  141.3625  155.5470 C   0  0  0  0  0  0  0  0  0  0  0  0
  151.5176  145.0939  159.7082 C   0  0  0  0  0  0  0  0  0  0  0  0
  152.0008  144.8271  161.3601 S   0  0  0  0  0  0  0  0  0  0  0  0
  154.7784  140.6750  161.7946 H   0  0  0  0  0  0  0  0  0  0  0  0
  154.9973  141.7448  160.4118 H   0  0  0  0  0  0  0  0  0  0  0  0
  153.5948  140.6788  160.4893 H   0  0  0  0  0  0  0  0  0  0  0  0
  152.7439  141.9545  162.4929 H   0  0  0  0  0  0  0  0  0  0  0  0
  154.1361  143.0108  162.4169 H   0  0  0  0  0  0  0  0  0  0  0  0
  150.9787  144.7252  157.0748 H   0  0  0  0  0  0  0  0  0  0  0  0
  152.6283  144.1971  156.8577 H   0  0  0  0  0  0  0  0  0  0  0  0
  149.6266  143.3873  156.0180 H   0  0  0  0  0  0  0  0  0  0  0  0
  149.9136  140.4206  156.2490 H   0  0  0  0  0  0  0  0  0  0  0  0
  149.1778  140.3200  153.8422 H   0  0  0  0  0  0  0  0  0  0  0  0
  150.6934  141.1944  153.9929 H   0  0  0  0  0  0  0  0  0  0  0  0
  149.1926  142.0804  153.7508 H   0  0  0  0  0  0  0  0  0  0  0  0
  147.8006  142.9948  154.9700 H   0  0  0  0  0  0  0  0  0  0  0  0
  144.4190  143.8353  154.4594 H   0  0  0  0  0  0  0  0  0  0  0  0
  145.6806  143.0768  153.4973 H   0  0  0  0  0  0  0  0  0  0  0  0
  146.0498  144.4930  154.4746 H   0  0  0  0  0  0  0  0  0  0  0  0
  146.1463  144.3025  157.0457 H   0  0  0  0  0  0  0  0  0  0  0  0
  145.7149  142.7879  157.8310 H   0  0  0  0  0  0  0  0  0  0  0  0
  144.4881  143.7197  156.9957 H   0  0  0  0  0  0  0  0  0  0  0  0
  143.9250  141.5888  155.5341 H   0  0  0  0  0  0  0  0  0  0  0  0
  145.1657  140.6983  156.3936 H   0  0  0  0  0  0  0  0  0  0  0  0
  145.2193  140.8047  154.6378 H   0  0  0  0  0  0  0  0  0  0  0  0
  150.9709  145.9869  159.4434 H   0  0  0  0  0  0  0  0  0  0  0  0
  1  2  1  0  0  0  0
  1 21  1  0  0  0  0
  1 22  1  0  0  0  0
  1 23  1  0  0  0  0
  2  3  1  0  0  0  0
  2 24  1  0  0  0  0
  2 25  1  0  0  0  0
  3 20  1  0  0  0  0
  3  4  2  0  0  0  0
  4  5  1  0  0  0  0
  5  6  1  0  0  0  0
  5 19  2  0  0  0  0
  6  7  1  0  0  0  0
  6 26  1  0  0  0  0
  6 27  1  0  0  0  0
  7  8  2  0  0  0  0
  7  9  1  0  0  0  0
  9 10  1  0  0  0  0
  9 28  1  0  0  0  0
 10 11  1  0  0  0  0
 10 12  1  0  0  0  0
 10 29  1  0  0  0  0
 11 30  1  0  0  0  0
 11 31  1  0  0  0  0
 11 32  1  0  0  0  0
 12 13  2  0  0  0  0
 12 14  1  0  0  0  0
 14 15  1  0  0  0  0
 14 33  1  0  0  0  0
 15 16  1  0  0  0  0
 15 17  1  0  0  0  0
 15 18  1  0  0  0  0
 16 34  1  0  0  0  0
 16 35  1  0  0  0  0
 16 36  1  0  0  0  0
 17 37  1  0  0  0  0
 17 38  1  0  0  0  0
 17 39  1  0  0  0  0
 18 40  1  0  0  0  0
 18 41  1  0  0  0  0
 18 42  1  0  0  0  0
 19 20  1  0  0  0  0
 19 43  1  0  0  0  0
M  END
> <s_m_source_file>
AV-unprocessed.smi

> <i_m_source_file_index>
1537

> <i_lp_mmshare_version>
43012

> <i_f3d_flags>
0

> <s_epik_input>
W0NIM11bQ0gyXWMxbmMoW2NIXXMxKVtDSDJdQyg9TylbTkhdW0NASF0oW0NIM10pQyg9TylbTkhdQyhbQ0gzXSkoW0NIM10pW0NIM10=

> <s_epik_cmdline>
J2VwaWtfcHl0aG9uJywgJy1waCcsICc3LjAnLCAnLXRuJywgJzgnLCAnLW1hJywgJzIwMCcsICctbWV0YWxfYmluZGluZycsICctaW1hZScsICc8aW5maWxlLm1hZT4nLCAnLW9tYWUnLCAnPG91dGZpbGUubWFlPic=

> <r_lp_tautomer_probability>
1

> <r_epik_Ionization_Penalty>
4.05444e-05

> <r_epik_Ionization_Penalty_Charging>
0

> <r_epik_Ionization_Penalty_Neutral>
4.05444e-05

> <r_epik_State_Penalty>
-0

> <r_epik_Charging_Adjusted_Penalty>
0

> <i_epik_Tot_Q>
0

> <i_epik_Tot_abs_Q>
0

> <r_epik_Metal_State_Penalty>
-0

> <b_epik_Metal_Only>
0

> <s_lp_Force_Field>
OPLS_2005

> <r_lp_Energy>
-1.93446

> <b_lp_Chiralities_Consistent>
1

> <s_lp_Variant>
AV-unprocessed.smi:1537-1

> <Gold.Version>
5.8.1

> <Gold.Id.Protein>
6NUR|6NUR_protein|mol2

> <Gold.PLP.Fitness>
44.4768

> <Gold.PLP.PLP>
-41.9376

> <Gold.PLP.part.hbond>
-2.0000

> <Gold.PLP.part.metal>
0.0000

> <Gold.PLP.part.buried>
-3.0232

> <Gold.PLP.part.nonpolar>
-36.7433

> <Gold.PLP.part.repulsive>
0.1769

> <Gold.PLP.ligand.clash>
0.0000

> <Gold.PLP.ligand.torsion>
0.9013

> <Gold.PLP.Chemscore.Hbond>
1.4066

> <Gold.PLP.Chemscore.CHOScore>
0.0000

> <Gold.PLP.Chemscore.Metal>
0.0000

> <Gold.Chemscore.Hbonds>
donor molecule, donor type, donor heavy atom, donor atom, acceptor molecule, acceptor atom, score
      L1  H     9    28       P1  8028  1.00
      L1  H    14    33       P1  8028  0.44

> <Gold.PLP.Chemscore.Internal.Correction>
0.1219

> <Gold.Rescore>
     Score         DG    S(hbond)    S(metal)    S(lipo)     H(rot)  DE(clash)    DE(int)     intcor
     13.64     -17.65       1.10        0.00     113.56       1.88       0.51       3.49       ----

> <Gold.Chemscore.Fitness>
13.6447

> <Gold.Chemscore.DG>
-17.6481

> <Gold.Chemscore.ZeroCoef>
-5.4800

> <Gold.Chemscore.Hbond>
1.1036

> <Gold.Chemscore.Metal>
0.0000

> <Gold.Chemscore.Lipo>
113.5566

> <Gold.Chemscore.Internal_Hbond>
0.0000

> <Gold.Chemscore.DEClash>
0.5098

> <Gold.Chemscore.DEInternal>
3.4935

> <Gold.Chemscore.Rot>
1.8766

> <Gold.Chemscore.Internal.Correction>
   9.000000E+99

> <Gold.Chemscore.Hbonds>
donor molecule, donor type, donor heavy atom, donor atom, acceptor molecule, acceptor atom, score
      L1  H     9    28       P1  8028  0.97
      L1  H    14    33       P1  8028  0.34

> <Gold.Chemscore.Hbond.Weighted>
-3.6862

> <Gold.Chemscore.Metal.Weighted>
-0.0000

> <Gold.Chemscore.Lipo.Weighted>
-13.2861

> <Gold.Chemscore.Internal_Hbond.Weighted>
0.0000

> <Gold.Chemscore.DEClash.Weighted>
0.5098

> <Gold.Chemscore.DEInternal.Weighted>
3.4935

> <Gold.Chemscore.Rot.Weighted>
4.8042

> <Gold.Chemscore.Internal.Correction.Weighted>
   9.000000E+99

> <Gold.Protein.RotatedTorsions>
[ 6907 6896 6895 6894 ] final -172.14 input  -60.11 | X-H torsion
[ 7974 7965 7964 7962 ] final -100.79 input  175.53 | X-H torsion
[ 8008 7997 7996 7995 ] final  175.16 input   59.86 | X-H torsion
[ 10167 10162 10161 10158 ] final  -65.47 input  -65.29 | X-H torsion
[ 10718 10713 10712 10709 ] final  161.87 input   66.30 | X-H torsion
[ 10763 10752 10751 10750 ] final  170.11 input  -60.55 | X-H torsion
[ 11005 11000 10999 10996 ] final -129.93 input  -57.11 | X-H torsion

> <Gold.Protein.ActiveResidues>
 VAL166  LYS551  ARG553  GLY616  TRP617  ASP618  TYR619  PRO620  LYS621  CYS622 
 ASP623  PHE694  ASN695  SER759  ASP760  ASP761  ALA762  ILE779  LEU786  VAL792 
 PHE793  MET794  SER795  GLU796  ALA797  LYS798  CYS799  TRP800  GLU811  SER814 

> <Gold.Protein.RotatedAtoms>
  151.5352  133.3442  159.2925 H   0  0  0  0  0  0  0  0  0  0  0  0  # atno 6907 bound_to 6896
  150.8569  134.7913  159.7063 H   0  0  0  0  0  0  0  0  0  0  0  0  # atno 6908 bound_to 6896
  152.4600  134.5214  159.9835 H   0  0  0  0  0  0  0  0  0  0  0  0  # atno 6909 bound_to 6896
  145.2900  140.9350  143.2883 H   0  0  0  0  0  0  0  0  0  0  0  0  # atno 7974 bound_to 7965
  156.0899  140.1416  156.9605 H   0  0  0  0  0  0  0  0  0  0  0  0  # atno 8008 bound_to 7997
  154.4635  140.0934  156.7006 H   0  0  0  0  0  0  0  0  0  0  0  0  # atno 8009 bound_to 7997
  155.4937  140.3449  155.4361 H   0  0  0  0  0  0  0  0  0  0  0  0  # atno 8010 bound_to 7997
  140.5727  143.2319  151.6505 H   0  0  0  0  0  0  0  0  0  0  0  0  # atno 10167 bound_to 10162
  157.1305  131.0515  151.2374 H   0  0  0  0  0  0  0  0  0  0  0  0  # atno 10718 bound_to 10713
  154.3929  135.2754  155.2143 H   0  0  0  0  0  0  0  0  0  0  0  0  # atno 10763 bound_to 10752
  154.4202  135.6002  153.6009 H   0  0  0  0  0  0  0  0  0  0  0  0  # atno 10764 bound_to 10752
  152.9832  135.5970  154.4187 H   0  0  0  0  0  0  0  0  0  0  0  0  # atno 10765 bound_to 10752
  140.9390  134.1219  157.4168 H   0  0  0  0  0  0  0  0  0  0  0  0  # atno 11005 bound_to 11000
  144.9181  139.4445  143.6554 LP  0  0  0  0  0  0  0  0  0  0  0  0  # atno 17320 bound_to 7965
  146.3188  139.8026  142.8962 LP  0  0  0  0  0  0  0  0  0  0  0  0  # atno 17321 bound_to 7965
  139.5126  144.3470  152.0687 LP  0  0  0  0  0  0  0  0  0  0  0  0  # atno 17342 bound_to 10162
  140.2610  144.4067  150.6186 LP  0  0  0  0  0  0  0  0  0  0  0  0  # atno 17343 bound_to 10162
  157.4397  130.7537  149.7059 LP  0  0  0  0  0  0  0  0  0  0  0  0  # atno 17370 bound_to 10713
  155.9809  130.4025  150.3502 LP  0  0  0  0  0  0  0  0  0  0  0  0  # atno 17371 bound_to 10713
  139.8815  135.0030  156.6162 LP  0  0  0  0  0  0  0  0  0  0  0  0  # atno 17394 bound_to 11000
  140.7760  133.8699  155.8529 LP  0  0  0  0  0  0  0  0  0  0  0  0  # atno 17395 bound_to 11000

$$$$
