AV-unprocessed.smi:82|AV-procd|sdf|798|dock6
  -GOLD-   2262017183D 1   1.00000     0.00000
 Structure written by MMmdl.
 58 61  0  0  0  0  0  0  0  0  1 V2000
  145.1002  144.1862  160.9839 C   0  0  0  0  0  0  0  0  0  0  0  0
  145.7540  143.4790  159.9445 O   0  0  0  0  0  0  0  0  0  0  0  0
  144.8767  143.1346  158.8856 C   0  0  0  0  0  0  0  0  0  0  0  0
  145.7183  142.6507  157.6930 C   0  0  0  0  0  0  0  0  0  0  0  0
  144.9806  141.8764  156.6868 N   0  0  0  0  0  0  0  0  0  0  0  0
  144.2599  140.7806  157.3417 C   0  0  0  0  0  0  0  0  0  0  0  0
  143.3945  139.9722  156.3652 C   0  0  0  0  0  0  0  0  0  0  0  0
  144.2274  139.4447  155.2903 N   0  0  0  0  0  0  0  0  0  0  0  0
  143.6358  138.4914  154.5260 C   0  0  0  0  0  0  0  0  0  0  0  0
  142.3204  138.1941  154.7052 N   0  0  0  0  0  0  0  0  0  0  0  0
  141.7328  137.2532  153.9603 C   0  0  0  0  0  0  0  0  0  0  0  0
  142.2640  136.4995  152.9960 N   0  0  0  0  0  0  0  0  0  0  0  0
  143.5819  136.7947  152.8067 C   0  0  0  0  0  0  0  0  0  0  0  0
  144.3366  137.7710  153.5174 C   0  0  0  0  0  0  0  0  0  0  0  0
  145.6367  137.8105  153.0272 N   0  0  0  0  0  0  0  0  0  0  0  0
  145.6505  136.9073  152.0855 C   0  0  0  0  0  0  0  0  0  0  0  0
  144.4671  136.2270  151.9061 N   0  0  0  0  0  0  0  0  0  0  0  0
  144.1969  135.2212  150.9200 C   0  0  0  0  0  0  0  0  0  0  0  0
  143.8453  133.7879  151.3299 C   0  0  0  0  0  0  0  0  0  0  0  0
  144.6387  133.2337  150.1252 C   0  0  0  0  0  0  0  0  0  0  0  0
  145.5666  132.0572  150.4662 C   0  0  0  0  0  0  0  0  0  0  0  0
  146.5605  131.8784  149.4772 O   0  0  0  0  0  0  0  0  0  0  0  0
  143.8070  132.8148  148.8925 C   0  0  0  0  0  0  0  0  0  0  0  0
  143.4393  133.9033  148.0696 O   0  0  0  0  0  0  0  0  0  0  0  0
  145.3241  134.6172  150.0763 C   0  0  0  0  0  0  0  0  0  0  0  0
  145.0089  140.4813  154.6172 C   0  0  0  0  0  0  0  0  0  0  0  0
  145.8429  141.2965  155.6330 C   0  0  1  0  0  0  0  0  0  0  0  0
  146.6894  142.3119  154.8458 C   0  0  0  0  0  0  0  0  0  0  0  0
  145.8155  144.4258  161.7704 H   0  0  0  0  0  0  0  0  0  0  0  0
  144.3015  143.5888  161.4258 H   0  0  0  0  0  0  0  0  0  0  0  0
  144.6762  145.1221  160.6180 H   0  0  0  0  0  0  0  0  0  0  0  0
  144.2059  142.3365  159.2079 H   0  0  0  0  0  0  0  0  0  0  0  0
  144.2578  143.9933  158.6350 H   0  0  0  0  0  0  0  0  0  0  0  0
  146.2318  143.4900  157.2220 H   0  0  0  0  0  0  0  0  0  0  0  0
  146.5105  142.0331  158.1189 H   0  0  0  0  0  0  0  0  0  0  0  0
  144.9669  140.1154  157.8405 H   0  0  0  0  0  0  0  0  0  0  0  0
  143.6099  141.1809  158.1207 H   0  0  0  0  0  0  0  0  0  0  0  0
  142.8889  139.1746  156.9081 H   0  0  0  0  0  0  0  0  0  0  0  0
  142.6170  140.6070  155.9378 H   0  0  0  0  0  0  0  0  0  0  0  0
  140.6877  137.0773  154.1689 H   0  0  0  0  0  0  0  0  0  0  0  0
  146.5338  136.7098  151.4954 H   0  0  0  0  0  0  0  0  0  0  0  0
  143.4196  135.6382  150.2787 H   0  0  0  0  0  0  0  0  0  0  0  0
  144.2836  133.5159  152.2915 H   0  0  0  0  0  0  0  0  0  0  0  0
  142.7771  133.5685  151.3172 H   0  0  0  0  0  0  0  0  0  0  0  0
  146.0730  132.2241  151.4174 H   0  0  0  0  0  0  0  0  0  0  0  0
  145.0045  131.1290  150.5753 H   0  0  0  0  0  0  0  0  0  0  0  0
  147.2704  131.3794  149.8518 H   0  0  0  0  0  0  0  0  0  0  0  0
  144.3591  132.1105  148.2699 H   0  0  0  0  0  0  0  0  0  0  0  0
  142.8910  132.3082  149.1989 H   0  0  0  0  0  0  0  0  0  0  0  0
  144.2254  134.2936  147.7192 H   0  0  0  0  0  0  0  0  0  0  0  0
  145.4173  135.0457  149.0778 H   0  0  0  0  0  0  0  0  0  0  0  0
  146.2842  134.6279  150.5949 H   0  0  0  0  0  0  0  0  0  0  0  0
  145.6734  140.0141  153.8890 H   0  0  0  0  0  0  0  0  0  0  0  0
  144.3384  141.1428  154.0662 H   0  0  0  0  0  0  0  0  0  0  0  0
  146.5421  140.6037  156.1049 H   0  0  0  0  0  0  0  0  0  0  0  0
  147.2013  141.8317  154.0113 H   0  0  0  0  0  0  0  0  0  0  0  0
  147.4676  142.7527  155.4681 H   0  0  0  0  0  0  0  0  0  0  0  0
  146.0736  143.1130  154.4357 H   0  0  0  0  0  0  0  0  0  0  0  0
  1  2  1  0  0  0  0
  1 29  1  0  0  0  0
  1 30  1  0  0  0  0
  1 31  1  0  0  0  0
  2  3  1  0  0  0  0
  3  4  1  0  0  0  0
  3 32  1  0  0  0  0
  3 33  1  0  0  0  0
  4  5  1  0  0  0  0
  4 34  1  0  0  0  0
  4 35  1  0  0  0  0
  5 27  1  0  0  0  0
  5  6  1  0  0  0  0
  6  7  1  0  0  0  0
  6 36  1  0  0  0  0
  6 37  1  0  0  0  0
  7  8  1  0  0  0  0
  7 38  1  0  0  0  0
  7 39  1  0  0  0  0
  8  9  1  0  0  0  0
  8 26  1  0  0  0  0
  9 14  1  0  0  0  0
  9 10  2  0  0  0  0
 10 11  1  0  0  0  0
 11 12  2  0  0  0  0
 11 40  1  0  0  0  0
 12 13  1  0  0  0  0
 13 17  1  0  0  0  0
 13 14  2  0  0  0  0
 14 15  1  0  0  0  0
 15 16  2  0  0  0  0
 16 17  1  0  0  0  0
 16 41  1  0  0  0  0
 17 18  1  0  0  0  0
 18 25  1  0  0  0  0
 18 19  1  0  0  0  0
 18 42  1  0  0  0  0
 19 20  1  0  0  0  0
 19 43  1  0  0  0  0
 19 44  1  0  0  0  0
 20 21  1  0  0  0  0
 20 23  1  0  0  0  0
 20 25  1  0  0  0  0
 21 22  1  0  0  0  0
 21 45  1  0  0  0  0
 21 46  1  0  0  0  0
 22 47  1  0  0  0  0
 23 24  1  0  0  0  0
 23 48  1  0  0  0  0
 23 49  1  0  0  0  0
 24 50  1  0  0  0  0
 25 51  1  0  0  0  0
 25 52  1  0  0  0  0
 26 27  1  0  0  0  0
 26 53  1  0  0  0  0
 26 54  1  0  0  0  0
 27 28  1  0  0  0  0
 27 55  1  0  0  0  0
 28 56  1  0  0  0  0
 28 57  1  0  0  0  0
 28 58  1  0  0  0  0
M  END
> <s_m_source_file>
AV-unprocessed.smi

> <i_m_source_file_index>
82

> <i_lp_mmshare_version>
43012

> <i_f3d_flags>
0

> <s_epik_input>
W0NIM11PW0NIMl1bQ0gyXU4xW0NIMl1bQ0gyXU4oW0NIMl1bQ0BIXTFbQ0gzXSljKG5bY0hdbjIpYyhjMjMpbltjSF1uM1tDSF0oW0NIMl00KVtDSDJdQzQoW0NIMl1bT0hdKVtDSDJdW09IXQ==

> <s_epik_cmdline>
J2VwaWtfcHl0aG9uJywgJy1waCcsICc3LjAnLCAnLXRuJywgJzgnLCAnLW1hJywgJzIwMCcsICctbWV0YWxfYmluZGluZycsICctaW1hZScsICc8aW5maWxlLm1hZT4nLCAnLW9tYWUnLCAnPG91dGZpbGUubWFlPic=

> <r_lp_tautomer_probability>
1

> <r_epik_Ionization_Penalty>
0.549054

> <r_epik_Ionization_Penalty_Charging>
0

> <r_epik_Ionization_Penalty_Neutral>
0.549054

> <r_epik_State_Penalty>
0.552556

> <r_epik_Charging_Adjusted_Penalty>
0.552556

> <i_epik_Tot_Q>
0

> <i_epik_Tot_abs_Q>
0

> <r_epik_Metal_State_Penalty>
0.545162

> <b_epik_Metal_Only>
0

> <s_lp_Force_Field>
OPLS_2005

> <r_lp_Energy>
72.4409

> <b_lp_Chiralities_Consistent>
1

> <s_lp_Variant>
AV-unprocessed.smi:82-5

> <Gold.Version>
5.8.1

> <Gold.Id.Protein>
6NUR|6NUR_protein|mol2

> <Gold.PLP.Fitness>
49.3285

> <Gold.PLP.PLP>
-35.5917

> <Gold.PLP.part.hbond>
-5.7324

> <Gold.PLP.part.metal>
0.0000

> <Gold.PLP.part.buried>
-3.1992

> <Gold.PLP.part.nonpolar>
-27.6133

> <Gold.PLP.part.repulsive>
0.4668

> <Gold.PLP.ligand.clash>
0.0000

> <Gold.PLP.ligand.torsion>
1.0706

> <Gold.PLP.Chemscore.Hbond>
4.0000

> <Gold.PLP.Chemscore.CHOScore>
1.0000

> <Gold.PLP.Chemscore.Metal>
0.0000

> <Gold.Chemscore.Hbonds>
donor molecule, donor type, donor heavy atom, donor atom, acceptor molecule, acceptor atom, score
      L1  H    22    47       P1 10747  1.00
      L1  H    24    50       P1  7921  1.00
      P1  H 10192 10197       L1    24  0.76
      L1  C    16    41       P1  7948  1.00

> <Gold.PLP.Chemscore.Internal.Correction>
0.8780

> <Gold.Rescore>
     Score         DG    S(hbond)    S(metal)    S(lipo)     H(rot)  DE(clash)    DE(int)     intcor
     10.58     -13.31       2.88        0.00      68.79       3.84       1.50       1.23       ----

> <Gold.Chemscore.Fitness>
10.5768

> <Gold.Chemscore.DG>
-13.3052

> <Gold.Chemscore.ZeroCoef>
-5.4800

> <Gold.Chemscore.Hbond>
2.8790

> <Gold.Chemscore.Metal>
0.0000

> <Gold.Chemscore.Lipo>
68.7914

> <Gold.Chemscore.Internal_Hbond>
0.0000

> <Gold.Chemscore.DEClash>
1.4976

> <Gold.Chemscore.DEInternal>
1.2309

> <Gold.Chemscore.Rot>
3.8434

> <Gold.Chemscore.Internal.Correction>
   9.000000E+99

> <Gold.Chemscore.Hbonds>
donor molecule, donor type, donor heavy atom, donor atom, acceptor molecule, acceptor atom, score
      L1  H    22    47       P1 10747  1.00
      L1  H    24    50       P1  7921  0.98
      P1  H 10192 10197       L1    24  0.17

> <Gold.Chemscore.Hbond.Weighted>
-9.6158

> <Gold.Chemscore.Metal.Weighted>
-0.0000

> <Gold.Chemscore.Lipo.Weighted>
-8.0486

> <Gold.Chemscore.Internal_Hbond.Weighted>
0.0000

> <Gold.Chemscore.DEClash.Weighted>
1.4976

> <Gold.Chemscore.DEInternal.Weighted>
1.2309

> <Gold.Chemscore.Rot.Weighted>
9.8391

> <Gold.Chemscore.Internal.Correction.Weighted>
   9.000000E+99

> <Gold.Protein.RotatedTorsions>
[ 6907 6896 6895 6894 ] final  178.29 input  -60.11 | X-H torsion
[ 7974 7965 7964 7962 ] final   11.36 input  175.53 | X-H torsion
[ 8008 7997 7996 7995 ] final -119.80 input   59.86 | X-H torsion
[ 10167 10162 10161 10158 ] final   78.47 input  -65.29 | X-H torsion
[ 10718 10713 10712 10709 ] final  178.25 input   66.30 | X-H torsion
[ 10763 10752 10751 10750 ] final -142.86 input  -60.55 | X-H torsion
[ 11005 11000 10999 10996 ] final   65.72 input  -57.11 | X-H torsion

> <Gold.Protein.ActiveResidues>
 VAL166  LYS551  ARG553  GLY616  TRP617  ASP618  TYR619  PRO620  LYS621  CYS622 
 ASP623  PHE694  ASN695  SER759  ASP760  ASP761  ALA762  ILE779  LEU786  VAL792 
 PHE793  MET794  SER795  GLU796  ALA797  LYS798  CYS799  TRP800  GLU811  SER814 

> <Gold.Protein.RotatedAtoms>
  151.6903  133.3311  159.3240 H   0  0  0  0  0  0  0  0  0  0  0  0  # atno 6907 bound_to 6896
  150.7782  134.6704  159.6398 H   0  0  0  0  0  0  0  0  0  0  0  0  # atno 6908 bound_to 6896
  152.3831  134.6563  160.0187 H   0  0  0  0  0  0  0  0  0  0  0  0  # atno 6909 bound_to 6896
  146.2372  139.9497  142.8472 H   0  0  0  0  0  0  0  0  0  0  0  0  # atno 7974 bound_to 7965
  155.1215  140.0398  157.2751 H   0  0  0  0  0  0  0  0  0  0  0  0  # atno 8008 bound_to 7997
  154.6610  140.2591  155.7083 H   0  0  0  0  0  0  0  0  0  0  0  0  # atno 8009 bound_to 7997
  156.2619  140.2817  156.1082 H   0  0  0  0  0  0  0  0  0  0  0  0  # atno 8010 bound_to 7997
  139.9706  144.5897  150.7989 H   0  0  0  0  0  0  0  0  0  0  0  0  # atno 10167 bound_to 10162
  156.8933  130.9854  151.3046 H   0  0  0  0  0  0  0  0  0  0  0  0  # atno 10718 bound_to 10713
  154.8493  135.3484  154.6095 H   0  0  0  0  0  0  0  0  0  0  0  0  # atno 10763 bound_to 10752
  153.6703  135.6985  153.5154 H   0  0  0  0  0  0  0  0  0  0  0  0  # atno 10764 bound_to 10752
  153.2747  135.4282  155.0979 H   0  0  0  0  0  0  0  0  0  0  0  0  # atno 10765 bound_to 10752
  139.9877  134.6642  156.0147 H   0  0  0  0  0  0  0  0  0  0  0  0  # atno 11005 bound_to 11000
  145.1873  140.9795  143.4231 LP  0  0  0  0  0  0  0  0  0  0  0  0  # atno 17320 bound_to 7965
  144.9889  139.3709  143.6225 LP  0  0  0  0  0  0  0  0  0  0  0  0  # atno 17321 bound_to 7965
  140.7523  143.2988  151.3135 LP  0  0  0  0  0  0  0  0  0  0  0  0  # atno 17342 bound_to 10162
  139.6484  144.0408  152.2608 LP  0  0  0  0  0  0  0  0  0  0  0  0  # atno 17343 bound_to 10162
  157.6071  130.8555  149.8892 LP  0  0  0  0  0  0  0  0  0  0  0  0  # atno 17370 bound_to 10713
  156.0618  130.3698  150.0965 LP  0  0  0  0  0  0  0  0  0  0  0  0  # atno 17371 bound_to 10713
  141.1539  133.6545  156.4099 LP  0  0  0  0  0  0  0  0  0  0  0  0  # atno 17394 bound_to 11000
  140.4970  134.6522  157.5233 LP  0  0  0  0  0  0  0  0  0  0  0  0  # atno 17395 bound_to 11000

$$$$
