AV-unprocessed.smi:1072|AV-procd|sdf|4684|dock4
  -GOLD-   22720 3203D 1   1.00000     0.00000
 Structure written by MMmdl.
 46 47  0  0  0  0  0  0  0  0  1 V2000
  146.3333  128.6798  152.4131 C   0  0  0  0  0  0  0  0  0  0  0  0
  146.1867  130.1411  152.0444 C   0  0  0  0  0  0  0  0  0  0  0  0
  145.4303  130.5714  151.0887 N   0  0  0  0  0  0  0  0  0  0  0  0
  145.3767  131.9500  150.8407 C   0  0  0  0  0  0  0  0  0  0  0  0
  144.4608  132.3773  149.7063 C   0  0  0  0  0  0  0  0  0  0  0  0
  146.1031  132.8392  151.5800 C   0  0  0  0  0  0  0  0  0  0  0  0
  146.0614  134.3470  151.3350 C   0  0  0  0  0  0  0  0  0  0  0  0
  144.6671  134.9783  151.3201 C   0  0  0  0  0  0  0  0  0  0  0  0
  144.2110  135.4388  150.2739 O   0  0  0  0  0  0  0  0  0  0  0  0
  144.0219  134.9994  152.5003 N   0  0  0  0  0  0  0  0  0  0  0  0
  142.7145  135.5787  152.8396 C   0  0  1  0  0  0  0  0  0  0  0  0
  142.5871  135.4224  154.3701 C   0  0  0  0  0  0  0  0  0  0  0  0
  142.6755  137.0813  152.4472 C   0  0  0  0  0  0  0  0  0  0  0  0
  141.2876  137.7198  152.6337 C   0  0  0  0  0  0  0  0  0  0  0  0
  140.1959  136.9402  151.8786 C   0  0  2  0  0  0  0  0  0  0  0  0
  138.8158  137.5866  152.0653 C   0  0  0  0  0  0  0  0  0  0  0  0
  140.1903  135.4634  152.3141 C   0  0  0  0  0  0  0  0  0  0  0  0
  141.5704  134.8075  152.1252 C   0  0  0  0  0  0  0  0  0  0  0  0
  146.9643  132.3363  152.6680 C   0  0  0  0  0  0  0  0  0  0  0  0
  147.6562  133.0465  153.3960 O   0  0  0  0  0  0  0  0  0  0  0  0
  146.9522  130.9951  152.8363 N   0  0  0  0  0  0  0  0  0  0  0  0
  147.5234  130.6019  153.5700 H   0  0  0  0  0  0  0  0  0  0  0  0
  145.3696  128.2709  152.7177 H   0  0  0  0  0  0  0  0  0  0  0  0
  147.0383  128.5401  153.2337 H   0  0  0  0  0  0  0  0  0  0  0  0
  146.6916  128.1108  151.5548 H   0  0  0  0  0  0  0  0  0  0  0  0
  145.0312  132.8680  148.9173 H   0  0  0  0  0  0  0  0  0  0  0  0
  143.6973  133.0677  150.0651 H   0  0  0  0  0  0  0  0  0  0  0  0
  143.9510  131.5200  149.2654 H   0  0  0  0  0  0  0  0  0  0  0  0
  146.6637  134.8763  152.0738 H   0  0  0  0  0  0  0  0  0  0  0  0
  146.5511  134.5503  150.3820 H   0  0  0  0  0  0  0  0  0  0  0  0
  144.5130  134.5797  153.2764 H   0  0  0  0  0  0  0  0  0  0  0  0
  141.6515  135.8236  154.7565 H   0  0  0  0  0  0  0  0  0  0  0  0
  143.3951  135.9403  154.8886 H   0  0  0  0  0  0  0  0  0  0  0  0
  142.6312  134.3732  154.6646 H   0  0  0  0  0  0  0  0  0  0  0  0
  143.4172  137.6393  153.0201 H   0  0  0  0  0  0  0  0  0  0  0  0
  142.9529  137.2096  151.4013 H   0  0  0  0  0  0  0  0  0  0  0  0
  141.0403  137.7767  153.6940 H   0  0  0  0  0  0  0  0  0  0  0  0
  141.3168  138.7501  152.2778 H   0  0  0  0  0  0  0  0  0  0  0  0
  140.4337  136.9751  150.8144 H   0  0  0  0  0  0  0  0  0  0  0  0
  138.5163  137.5868  153.1139 H   0  0  0  0  0  0  0  0  0  0  0  0
  138.0516  137.0514  151.5011 H   0  0  0  0  0  0  0  0  0  0  0  0
  138.8166  138.6204  151.7190 H   0  0  0  0  0  0  0  0  0  0  0  0
  139.8759  135.3827  153.3548 H   0  0  0  0  0  0  0  0  0  0  0  0
  139.4493  134.9119  151.7341 H   0  0  0  0  0  0  0  0  0  0  0  0
  141.7575  134.7524  151.0534 H   0  0  0  0  0  0  0  0  0  0  0  0
  141.5376  133.7742  152.4734 H   0  0  0  0  0  0  0  0  0  0  0  0
  1  2  1  0  0  0  0
  1 23  1  0  0  0  0
  1 24  1  0  0  0  0
  1 25  1  0  0  0  0
  2 21  1  0  0  0  0
  2  3  2  0  0  0  0
  3  4  1  0  0  0  0
  4  5  1  0  0  0  0
  4  6  2  0  0  0  0
  5 26  1  0  0  0  0
  5 27  1  0  0  0  0
  5 28  1  0  0  0  0
  6  7  1  0  0  0  0
  6 19  1  0  0  0  0
  7  8  1  0  0  0  0
  7 29  1  0  0  0  0
  7 30  1  0  0  0  0
  8  9  2  0  0  0  0
  8 10  1  0  0  0  0
 10 11  1  0  0  0  0
 10 31  1  0  0  0  0
 11 18  1  0  0  0  0
 11 12  1  0  0  0  0
 11 13  1  0  0  0  0
 12 32  1  0  0  0  0
 12 33  1  0  0  0  0
 12 34  1  0  0  0  0
 13 14  1  0  0  0  0
 13 35  1  0  0  0  0
 13 36  1  0  0  0  0
 14 15  1  0  0  0  0
 14 37  1  0  0  0  0
 14 38  1  0  0  0  0
 15 16  1  0  0  0  0
 15 17  1  0  0  0  0
 15 39  1  0  0  0  0
 16 40  1  0  0  0  0
 16 41  1  0  0  0  0
 16 42  1  0  0  0  0
 17 18  1  0  0  0  0
 17 43  1  0  0  0  0
 17 44  1  0  0  0  0
 18 45  1  0  0  0  0
 18 46  1  0  0  0  0
 19 20  2  0  0  0  0
 19 21  1  0  0  0  0
 21 22  1  0  0  0  0
M  END
> <s_m_source_file>
AV-unprocessed.smi

> <i_m_source_file_index>
1072

> <i_lp_mmshare_version>
43012

> <i_f3d_flags>
0

> <s_epik_input>
W0NIM11jMW5jKFtDSDNdKWMoYyg9TylbbkhdMSlbQ0gyXUMoPU8pW05IXVtDQEBdMihbQ0gzXSlbQ0gyXVtDSDJdW0NAQEhdKFtDSDNdKVtDSDJdW0NIMl0y

> <s_epik_cmdline>
J2VwaWtfcHl0aG9uJywgJy1waCcsICc3LjAnLCAnLXRuJywgJzgnLCAnLW1hJywgJzIwMCcsICctbWV0YWxfYmluZGluZycsICctaW1hZScsICc8aW5maWxlLm1hZT4nLCAnLW9tYWUnLCAnPG91dGZpbGUubWFlPic=

> <r_lp_tautomer_probability>
0.839158

> <r_epik_Ionization_Penalty>
0.000352328

> <r_epik_Ionization_Penalty_Charging>
0.000314696

> <r_epik_Ionization_Penalty_Neutral>
3.76315e-05

> <r_epik_State_Penalty>
0.09125

> <r_epik_Charging_Adjusted_Penalty>
0.0915647

> <i_epik_Tot_Q>
0

> <i_epik_Tot_abs_Q>
0

> <r_epik_Metal_State_Penalty>
0.245598

> <b_epik_Metal_Only>
0

> <s_lp_Force_Field>
OPLS_2005

> <r_lp_Energy>
14.8959

> <b_lp_Chiralities_Consistent>
1

> <s_lp_Variant>
AV-unprocessed.smi:1072-2

> <Gold.Version>
5.8.1

> <Gold.Id.Protein>
6NUR|6NUR_protein|mol2

> <Gold.PLP.Fitness>
36.5651

> <Gold.PLP.PLP>
-36.8791

> <Gold.PLP.part.hbond>
-1.0000

> <Gold.PLP.part.metal>
0.0000

> <Gold.PLP.part.buried>
-7.8786

> <Gold.PLP.part.nonpolar>
-30.1015

> <Gold.PLP.part.repulsive>
0.5794

> <Gold.PLP.ligand.clash>
0.0000

> <Gold.PLP.ligand.torsion>
0.1587

> <Gold.PLP.Chemscore.Hbond>
0.0000

> <Gold.PLP.Chemscore.CHOScore>
0.0000

> <Gold.PLP.Chemscore.Metal>
0.0000

> <Gold.PLP.Chemscore.Internal.Correction>
0.0034

> <Gold.Rescore>
     Score         DG    S(hbond)    S(metal)    S(lipo)     H(rot)  DE(clash)    DE(int)     intcor
     10.84     -11.07       0.00        0.00      79.94       1.47       0.10       0.13       ----

> <Gold.Chemscore.Fitness>
10.8410

> <Gold.Chemscore.DG>
-11.0722

> <Gold.Chemscore.ZeroCoef>
-5.4800

> <Gold.Chemscore.Hbond>
0.0000

> <Gold.Chemscore.Metal>
0.0000

> <Gold.Chemscore.Lipo>
79.9392

> <Gold.Chemscore.Internal_Hbond>
0.0000

> <Gold.Chemscore.DEClash>
0.0964

> <Gold.Chemscore.DEInternal>
0.1348

> <Gold.Chemscore.Rot>
1.4690

> <Gold.Chemscore.Internal.Correction>
   9.000000E+99

> <Gold.Chemscore.Hbond.Weighted>
-0.0000

> <Gold.Chemscore.Metal.Weighted>
-0.0000

> <Gold.Chemscore.Lipo.Weighted>
-9.3529

> <Gold.Chemscore.Internal_Hbond.Weighted>
0.0000

> <Gold.Chemscore.DEClash.Weighted>
0.0964

> <Gold.Chemscore.DEInternal.Weighted>
0.1348

> <Gold.Chemscore.Rot.Weighted>
3.7607

> <Gold.Chemscore.Internal.Correction.Weighted>
   9.000000E+99

> <Gold.Protein.RotatedTorsions>
[ 6907 6896 6895 6894 ] final  -70.94 input  -60.11 | X-H torsion
[ 7974 7965 7964 7962 ] final  -20.65 input  175.53 | X-H torsion
[ 8008 7997 7996 7995 ] final  113.76 input   59.86 | X-H torsion
[ 10167 10162 10161 10158 ] final  -58.00 input  -65.29 | X-H torsion
[ 10718 10713 10712 10709 ] final  -68.62 input   66.30 | X-H torsion
[ 10763 10752 10751 10750 ] final -134.50 input  -60.55 | X-H torsion
[ 11005 11000 10999 10996 ] final -167.05 input  -57.11 | X-H torsion

> <Gold.Protein.ActiveResidues>
 VAL166  LYS551  ARG553  GLY616  TRP617  ASP618  TYR619  PRO620  LYS621  CYS622 
 ASP623  PHE694  ASN695  SER759  ASP760  ASP761  ALA762  ILE779  LEU786  VAL792 
 PHE793  MET794  SER795  GLU796  ALA797  LYS798  CYS799  TRP800  GLU811  SER814 

> <Gold.Protein.RotatedAtoms>
  150.7235  134.5381  159.5733 H   0  0  0  0  0  0  0  0  0  0  0  0  # atno 6907 bound_to 6896
  152.2898  134.7731  160.0389 H   0  0  0  0  0  0  0  0  0  0  0  0  # atno 6908 bound_to 6896
  151.8349  133.3379  159.3661 H   0  0  0  0  0  0  0  0  0  0  0  0  # atno 6909 bound_to 6896
  146.1776  140.4232  142.8507 H   0  0  0  0  0  0  0  0  0  0  0  0  # atno 7974 bound_to 7965
  156.2279  140.2973  156.0112 H   0  0  0  0  0  0  0  0  0  0  0  0  # atno 8008 bound_to 7997
  155.2307  140.0419  157.2979 H   0  0  0  0  0  0  0  0  0  0  0  0  # atno 8009 bound_to 7997
  154.5945  140.2410  155.7883 H   0  0  0  0  0  0  0  0  0  0  0  0  # atno 8010 bound_to 7997
  140.6224  143.2425  151.5448 H   0  0  0  0  0  0  0  0  0  0  0  0  # atno 10167 bound_to 10162
  156.0496  130.4298  150.2028 H   0  0  0  0  0  0  0  0  0  0  0  0  # atno 10718 bound_to 10713
  154.8718  135.3732  154.4746 H   0  0  0  0  0  0  0  0  0  0  0  0  # atno 10763 bound_to 10752
  153.5404  135.7026  153.5644 H   0  0  0  0  0  0  0  0  0  0  0  0  # atno 10764 bound_to 10752
  153.3809  135.3997  155.1821 H   0  0  0  0  0  0  0  0  0  0  0  0  # atno 10765 bound_to 10752
  140.5576  134.5365  157.5136 H   0  0  0  0  0  0  0  0  0  0  0  0  # atno 11005 bound_to 11000
  144.8262  140.6632  143.6321 LP  0  0  0  0  0  0  0  0  0  0  0  0  # atno 17320 bound_to 7965
  145.4167  139.1571  143.4096 LP  0  0  0  0  0  0  0  0  0  0  0  0  # atno 17321 bound_to 7965
  139.5450  144.2545  152.1425 LP  0  0  0  0  0  0  0  0  0  0  0  0  # atno 17342 bound_to 10162
  140.1769  144.4882  150.6549 LP  0  0  0  0  0  0  0  0  0  0  0  0  # atno 17343 bound_to 10162
  157.0113  130.9952  151.3365 LP  0  0  0  0  0  0  0  0  0  0  0  0  # atno 17370 bound_to 10713
  157.5408  130.8118  149.8026 LP  0  0  0  0  0  0  0  0  0  0  0  0  # atno 17371 bound_to 10713
  139.9423  134.7764  156.0647 LP  0  0  0  0  0  0  0  0  0  0  0  0  # atno 17394 bound_to 11000
  141.1134  133.6636  156.3033 LP  0  0  0  0  0  0  0  0  0  0  0  0  # atno 17395 bound_to 11000

$$$$
