AV-unprocessed.smi:688|AV-procd|sdf|3355|dock10
  -GOLD-   22720 0333D 1   1.00000     0.00000
 Structure written by MMmdl.
 36 37  0  0  0  0  0  0  0  0  1 V2000
  146.3780  142.4787  156.8406 O   0  0  0  0  0  0  0  0  0  0  0  0
  147.1214  141.6228  156.3652 C   0  0  0  0  0  0  0  0  0  0  0  0
  148.1256  141.9948  155.4661 N   0  0  0  0  0  0  0  0  0  0  0  0
  149.0321  141.1271  154.8563 C   0  0  0  0  0  0  0  0  0  0  0  0
  149.8756  141.5695  154.0765 O   0  0  0  0  0  0  0  0  0  0  0  0
  148.9194  139.7560  155.1819 N   0  0  0  0  0  0  0  0  0  0  0  0
  149.8394  138.8367  154.5540 C   0  0  0  0  0  0  0  0  0  0  0  0
  151.0758  138.4907  155.4144 C   0  0  1  0  0  0  0  0  0  0  0  0
  151.8035  137.5008  154.7175 O   0  0  0  0  0  0  0  0  0  0  0  0
  152.0107  139.6887  155.6586 C   0  0  0  0  0  0  0  0  0  0  0  0
  152.7942  139.4300  156.8117 O   0  0  0  0  0  0  0  0  0  0  0  0
  152.0716  139.6022  158.0193 C   0  0  0  0  0  0  0  0  0  0  0  0
  152.0385  141.0578  158.4390 C   0  0  0  0  0  0  0  0  0  0  0  0
  152.6209  141.4481  159.6628 C   0  0  0  0  0  0  0  0  0  0  0  0
  152.5899  142.7980  160.0632 C   0  0  0  0  0  0  0  0  0  0  0  0
  151.9754  143.7628  159.2413 C   0  0  0  0  0  0  0  0  0  0  0  0
  151.9384  145.4168  159.7310 Cl  0  0  0  0  0  0  0  0  0  0  0  0
  151.3899  143.3760  158.0198 C   0  0  0  0  0  0  0  0  0  0  0  0
  151.4193  142.0256  157.6201 C   0  0  0  0  0  0  0  0  0  0  0  0
  147.9370  139.3415  156.0688 C   0  0  0  0  0  0  0  0  0  0  0  0
  147.0598  140.1910  156.6558 C   0  0  0  0  0  0  0  0  0  0  0  0
  145.8602  139.5960  157.7470 Cl  0  0  0  0  0  0  0  0  0  0  0  0
  148.2018  142.9756  155.2389 H   0  0  0  0  0  0  0  0  0  0  0  0
  149.2614  137.9495  154.2842 H   0  0  0  0  0  0  0  0  0  0  0  0
  150.1385  139.2979  153.6112 H   0  0  0  0  0  0  0  0  0  0  0  0
  150.7564  138.0723  156.3693 H   0  0  0  0  0  0  0  0  0  0  0  0
  152.1599  137.8904  153.9335 H   0  0  0  0  0  0  0  0  0  0  0  0
  152.6353  139.8847  154.7851 H   0  0  0  0  0  0  0  0  0  0  0  0
  151.4286  140.5910  155.8475 H   0  0  0  0  0  0  0  0  0  0  0  0
  151.0538  139.2276  157.8983 H   0  0  0  0  0  0  0  0  0  0  0  0
  152.5363  139.0236  158.8192 H   0  0  0  0  0  0  0  0  0  0  0  0
  153.0937  140.7117  160.2963 H   0  0  0  0  0  0  0  0  0  0  0  0
  153.0381  143.0915  161.0011 H   0  0  0  0  0  0  0  0  0  0  0  0
  150.9173  144.1140  157.3880 H   0  0  0  0  0  0  0  0  0  0  0  0
  150.9666  141.7378  156.6825 H   0  0  0  0  0  0  0  0  0  0  0  0
  147.8592  138.2893  156.3031 H   0  0  0  0  0  0  0  0  0  0  0  0
  1  2  2  0  0  0  0
  2 21  1  0  0  0  0
  2  3  1  0  0  0  0
  3 23  1  0  0  0  0
  3  4  1  0  0  0  0
  4  5  2  0  0  0  0
  4  6  1  0  0  0  0
  6  7  1  0  0  0  0
  6 20  1  0  0  0  0
  7  8  1  0  0  0  0
  7 24  1  0  0  0  0
  7 25  1  0  0  0  0
  8  9  1  0  0  0  0
  8 10  1  0  0  0  0
  8 26  1  0  0  0  0
  9 27  1  0  0  0  0
 10 11  1  0  0  0  0
 10 28  1  0  0  0  0
 10 29  1  0  0  0  0
 11 12  1  0  0  0  0
 12 13  1  0  0  0  0
 12 30  1  0  0  0  0
 12 31  1  0  0  0  0
 13 19  1  0  0  0  0
 13 14  2  0  0  0  0
 14 15  1  0  0  0  0
 14 32  1  0  0  0  0
 15 16  2  0  0  0  0
 15 33  1  0  0  0  0
 16 17  1  0  0  0  0
 16 18  1  0  0  0  0
 18 19  2  0  0  0  0
 18 34  1  0  0  0  0
 19 35  1  0  0  0  0
 20 21  2  0  0  0  0
 20 36  1  0  0  0  0
 21 22  1  0  0  0  0
M  END
> <s_m_source_file>
AV-unprocessed.smi

> <i_m_source_file_index>
688

> <i_lp_mmshare_version>
43012

> <i_f3d_flags>
0

> <s_epik_input>
Tz1jMVtuSF1jKD1PKW4oW2NIXWMxQ2wpW0NIMl1bQ0BIXShbT0hdKVtDSDJdT1tDSDJdYzJbY0hdW2NIXWMoQ2wpW2NIXVtjSF0y

> <s_epik_cmdline>
J2VwaWtfcHl0aG9uJywgJy1waCcsICc3LjAnLCAnLXRuJywgJzgnLCAnLW1hJywgJzIwMCcsICctbWV0YWxfYmluZGluZycsICctaW1hZScsICc8aW5maWxlLm1hZT4nLCAnLW9tYWUnLCAnPG91dGZpbGUubWFlPic=

> <r_lp_tautomer_probability>
0.999537

> <r_epik_Ionization_Penalty>
0.0280571

> <r_epik_Ionization_Penalty_Charging>
0.028057

> <r_epik_Ionization_Penalty_Neutral>
6.25502e-08

> <r_epik_State_Penalty>
0.0230008

> <r_epik_Charging_Adjusted_Penalty>
0.0510579

> <i_epik_Tot_Q>
0

> <i_epik_Tot_abs_Q>
0

> <r_epik_Metal_State_Penalty>
2.1942

> <b_epik_Metal_Only>
0

> <s_lp_Force_Field>
OPLS_2005

> <r_lp_Energy>
13.9943

> <b_lp_Chiralities_Consistent>
1

> <s_lp_Variant>
AV-unprocessed.smi:688-2

> <Gold.Version>
5.8.1

> <Gold.Id.Protein>
6NUR|6NUR_protein|mol2

> <Gold.PLP.Fitness>
47.7152

> <Gold.PLP.PLP>
-39.5444

> <Gold.PLP.part.hbond>
-4.7974

> <Gold.PLP.part.metal>
0.0000

> <Gold.PLP.part.buried>
-3.0488

> <Gold.PLP.part.nonpolar>
-32.2527

> <Gold.PLP.part.repulsive>
0.4211

> <Gold.PLP.ligand.clash>
0.0000

> <Gold.PLP.ligand.torsion>
0.7713

> <Gold.PLP.Chemscore.Hbond>
3.2025

> <Gold.PLP.Chemscore.CHOScore>
0.0000

> <Gold.PLP.Chemscore.Metal>
0.0000

> <Gold.Chemscore.Hbonds>
donor molecule, donor type, donor heavy atom, donor atom, acceptor molecule, acceptor atom, score
      L1  H     3    23       P1  8028  1.00
      P1  H  7989  7998       L1     5  0.21
      P1  H  7997  8009       L1    11  1.00
      P1  H  8011  8017       L1     5  0.58
      P1  H 10752 10764       L1     9  0.36

> <Gold.PLP.Chemscore.Internal.Correction>
0.1059

> <Gold.Rescore>
     Score         DG    S(hbond)    S(metal)    S(lipo)     H(rot)  DE(clash)    DE(int)     intcor
     17.02     -18.51       2.65        0.00     100.20       2.94       0.77       0.72       ----

> <Gold.Chemscore.Fitness>
17.0203

> <Gold.Chemscore.DG>
-18.5090

> <Gold.Chemscore.ZeroCoef>
-5.4800

> <Gold.Chemscore.Hbond>
2.6464

> <Gold.Chemscore.Metal>
0.0000

> <Gold.Chemscore.Lipo>
100.2040

> <Gold.Chemscore.Internal_Hbond>
0.0000

> <Gold.Chemscore.DEClash>
0.7681

> <Gold.Chemscore.DEInternal>
0.7206

> <Gold.Chemscore.Rot>
2.9429

> <Gold.Chemscore.Internal.Correction>
   9.000000E+99

> <Gold.Chemscore.Hbonds>
donor molecule, donor type, donor heavy atom, donor atom, acceptor molecule, acceptor atom, score
      L1  H     3    23       P1  8028  0.92
      P1  H  7989  7998       L1     5  0.20
      P1  H  7997  8009       L1    11  0.25
      P1  H  8011  8017       L1     5  0.56
      P1  H 10752 10764       L1     9  0.06

> <Gold.Chemscore.Hbond.Weighted>
-8.8389

> <Gold.Chemscore.Metal.Weighted>
-0.0000

> <Gold.Chemscore.Lipo.Weighted>
-11.7239

> <Gold.Chemscore.Internal_Hbond.Weighted>
0.0000

> <Gold.Chemscore.DEClash.Weighted>
0.7681

> <Gold.Chemscore.DEInternal.Weighted>
0.7206

> <Gold.Chemscore.Rot.Weighted>
7.5337

> <Gold.Chemscore.Internal.Correction.Weighted>
   9.000000E+99

> <Gold.Protein.RotatedTorsions>
[ 6907 6896 6895 6894 ] final  -15.05 input  -60.11 | X-H torsion
[ 7974 7965 7964 7962 ] final  -20.09 input  175.53 | X-H torsion
[ 8008 7997 7996 7995 ] final -159.62 input   59.86 | X-H torsion
[ 10167 10162 10161 10158 ] final  -43.18 input  -65.29 | X-H torsion
[ 10718 10713 10712 10709 ] final  -26.30 input   66.30 | X-H torsion
[ 10763 10752 10751 10750 ] final  -55.70 input  -60.55 | X-H torsion
[ 11005 11000 10999 10996 ] final -142.68 input  -57.11 | X-H torsion

> <Gold.Protein.ActiveResidues>
 VAL166  LYS551  ARG553  GLY616  TRP617  ASP618  TYR619  PRO620  LYS621  CYS622 
 ASP623  PHE694  ASN695  SER759  ASP760  ASP761  ALA762  ILE779  LEU786  VAL792 
 PHE793  MET794  SER795  GLU796  ALA797  LYS798  CYS799  TRP800  GLU811  SER814 

> <Gold.Protein.RotatedAtoms>
  151.3299  135.0839  159.9334 H   0  0  0  0  0  0  0  0  0  0  0  0  # atno 6907 bound_to 6896
  152.5237  133.9553  159.7702 H   0  0  0  0  0  0  0  0  0  0  0  0  # atno 6908 bound_to 6896
  150.9890  133.6116  159.2741 H   0  0  0  0  0  0  0  0  0  0  0  0  # atno 6909 bound_to 6896
  146.1807  140.4153  142.8496 H   0  0  0  0  0  0  0  0  0  0  0  0  # atno 7974 bound_to 7965
  155.7653  140.0844  157.2135 H   0  0  0  0  0  0  0  0  0  0  0  0  # atno 8008 bound_to 7997
  154.4000  140.1535  156.2936 H   0  0  0  0  0  0  0  0  0  0  0  0  # atno 8009 bound_to 7997
  155.8800  140.3421  155.5883 H   0  0  0  0  0  0  0  0  0  0  0  0  # atno 8010 bound_to 7997
  140.6943  143.2997  151.3315 H   0  0  0  0  0  0  0  0  0  0  0  0  # atno 10167 bound_to 10162
  156.4531  130.4488  149.6977 H   0  0  0  0  0  0  0  0  0  0  0  0  # atno 10718 bound_to 10713
  154.1950  135.6421  153.5070 H   0  0  0  0  0  0  0  0  0  0  0  0  # atno 10763 bound_to 10752
  153.0026  135.5437  154.6375 H   0  0  0  0  0  0  0  0  0  0  0  0  # atno 10764 bound_to 10752
  154.5774  135.2922  155.0740 H   0  0  0  0  0  0  0  0  0  0  0  0  # atno 10765 bound_to 10752
  140.8201  134.2641  157.4904 H   0  0  0  0  0  0  0  0  0  0  0  0  # atno 11005 bound_to 11000
  144.8310  140.6706  143.6291 LP  0  0  0  0  0  0  0  0  0  0  0  0  # atno 17320 bound_to 7965
  145.4085  139.1584  143.4139 LP  0  0  0  0  0  0  0  0  0  0  0  0  # atno 17321 bound_to 7965
  139.6380  144.0594  152.2531 LP  0  0  0  0  0  0  0  0  0  0  0  0  # atno 17342 bound_to 10162
  140.0090  144.6238  150.7664 LP  0  0  0  0  0  0  0  0  0  0  0  0  # atno 17343 bound_to 10162
  156.3795  130.7572  151.2563 LP  0  0  0  0  0  0  0  0  0  0  0  0  # atno 17370 bound_to 10713
  157.7502  131.0299  150.4116 LP  0  0  0  0  0  0  0  0  0  0  0  0  # atno 17371 bound_to 10713
  139.8709  134.9531  156.4134 LP  0  0  0  0  0  0  0  0  0  0  0  0  # atno 17394 bound_to 11000
  140.9108  133.7713  155.9789 LP  0  0  0  0  0  0  0  0  0  0  0  0  # atno 17395 bound_to 11000

$$$$
