AV-unprocessed.smi:907|AV-procd|sdf|4108|dock10
  -GOLD-   22720 2 03D 1   1.00000     0.00000
 Structure written by MMmdl.
 53 56  0  0  0  0  0  0  0  0  2 V2000
  148.6441  131.5578  156.2798 O   0  0  0  0  0  0  0  0  0  0  0  0
  148.2381  132.7168  156.1883 C   0  0  0  0  0  0  0  0  0  0  0  0
  147.5261  133.3022  157.1646 N   0  0  0  0  0  0  0  0  0  0  0  0
  147.1766  132.6702  158.4292 C   0  0  0  0  0  0  0  0  0  0  0  0
  148.3407  132.7769  159.4242 C   0  0  0  0  0  0  0  0  0  0  0  0
  148.0895  133.8218  160.4947 C   0  0  0  0  0  0  0  0  0  0  0  0
  147.9131  133.4446  161.8430 C   0  0  0  0  0  0  0  0  0  0  0  0
  147.6898  134.4551  162.7982 C   0  0  0  0  0  0  0  0  0  0  0  0
  147.6524  135.7963  162.3709 C   0  0  0  0  0  0  0  0  0  0  0  0
  147.8404  136.0687  161.0012 C   0  0  0  0  0  0  0  0  0  0  0  0
  148.0549  135.1074  160.0772 N   0  0  0  0  0  0  0  0  0  0  0  0
  148.4461  133.4916  155.0939 N   0  0  0  0  0  0  0  0  0  0  0  0
  149.3243  133.1837  153.9587 C   0  0  0  0  0  0  0  0  0  0  0  0
  148.4509  132.8018  152.7516 C   0  0  0  0  0  0  0  0  0  0  0  0
  147.4728  133.8756  152.4032 N   0  3  0  0  0  0  0  0  0  0  0  0
  146.6336  133.4952  151.2252 C   0  0  2  0  0  0  0  0  0  0  0  0
  145.5990  134.5982  150.8742 C   0  0  0  0  0  0  0  0  0  0  0  0
  144.2571  133.8488  150.8607 C   0  0  1  0  0  0  0  0  0  0  0  0
  144.2063  132.9065  149.6470 C   0  0  0  0  0  0  0  0  0  0  0  0
  145.1941  131.7971  150.0470 C   0  0  0  0  0  0  0  0  0  0  0  0
  145.7034  132.2649  151.4254 C   0  0  2  0  0  0  0  0  0  0  0  0
  144.4411  132.8786  152.0198 C   0  0  0  0  0  0  0  0  0  0  0  0
  146.6971  134.3320  153.5947 C   0  0  0  0  0  0  0  0  0  0  0  0
  147.6114  134.6551  154.7919 C   0  0  0  0  0  0  0  0  0  0  0  0
  147.2073  134.2493  157.0222 H   0  0  0  0  0  0  0  0  0  0  0  0
  146.2868  133.1518  158.8375 H   0  0  0  0  0  0  0  0  0  0  0  0
  146.9275  131.6217  158.2571 H   0  0  0  0  0  0  0  0  0  0  0  0
  148.5096  131.8126  159.9063 H   0  0  0  0  0  0  0  0  0  0  0  0
  149.2629  133.0206  158.8947 H   0  0  0  0  0  0  0  0  0  0  0  0
  147.9497  132.4071  162.1409 H   0  0  0  0  0  0  0  0  0  0  0  0
  147.5513  134.2060  163.8400 H   0  0  0  0  0  0  0  0  0  0  0  0
  147.4843  136.5972  163.0754 H   0  0  0  0  0  0  0  0  0  0  0  0
  147.8190  137.0857  160.6384 H   0  0  0  0  0  0  0  0  0  0  0  0
  149.9249  134.0631  153.7210 H   0  0  0  0  0  0  0  0  0  0  0  0
  150.0433  132.3890  154.1572 H   0  0  0  0  0  0  0  0  0  0  0  0
  149.1013  132.5812  151.9063 H   0  0  0  0  0  0  0  0  0  0  0  0
  147.9085  131.8813  152.9734 H   0  0  0  0  0  0  0  0  0  0  0  0
  147.3026  133.3115  150.3824 H   0  0  0  0  0  0  0  0  0  0  0  0
  145.5570  135.3765  151.6373 H   0  0  0  0  0  0  0  0  0  0  0  0
  145.8155  135.0823  149.9211 H   0  0  0  0  0  0  0  0  0  0  0  0
  143.3897  134.5046  150.9420 H   0  0  0  0  0  0  0  0  0  0  0  0
  143.2040  132.4982  149.5118 H   0  0  0  0  0  0  0  0  0  0  0  0
  144.4926  133.4076  148.7216 H   0  0  0  0  0  0  0  0  0  0  0  0
  144.6763  130.8407  150.1313 H   0  0  0  0  0  0  0  0  0  0  0  0
  145.9996  131.6741  149.3220 H   0  0  0  0  0  0  0  0  0  0  0  0
  146.1174  131.4314  151.9879 H   0  0  0  0  0  0  0  0  0  0  0  0
  144.6091  133.3724  152.9786 H   0  0  0  0  0  0  0  0  0  0  0  0
  143.6200  132.1667  152.1221 H   0  0  0  0  0  0  0  0  0  0  0  0
  146.1378  135.2370  153.3680 H   0  0  0  0  0  0  0  0  0  0  0  0
  145.9738  133.5637  153.8734 H   0  0  0  0  0  0  0  0  0  0  0  0
  147.0094  134.9758  155.6435 H   0  0  0  0  0  0  0  0  0  0  0  0
  148.2533  135.5041  154.5524 H   0  0  0  0  0  0  0  0  0  0  0  0
  148.0200  134.6740  152.1144 H   0  0  0  0  0  0  0  0  0  0  0  0
  1  2  2  0  0  0  0
  2  3  1  0  0  0  0
  2 12  1  0  0  0  0
  3  4  1  0  0  0  0
  3 25  1  0  0  0  0
  4  5  1  0  0  0  0
  4 26  1  0  0  0  0
  4 27  1  0  0  0  0
  5  6  1  0  0  0  0
  5 28  1  0  0  0  0
  5 29  1  0  0  0  0
  6 11  1  0  0  0  0
  6  7  2  0  0  0  0
  7  8  1  0  0  0  0
  7 30  1  0  0  0  0
  8  9  2  0  0  0  0
  8 31  1  0  0  0  0
  9 10  1  0  0  0  0
  9 32  1  0  0  0  0
 10 11  2  0  0  0  0
 10 33  1  0  0  0  0
 12 24  1  0  0  0  0
 12 13  1  0  0  0  0
 13 14  1  0  0  0  0
 13 34  1  0  0  0  0
 13 35  1  0  0  0  0
 14 15  1  0  0  0  0
 14 36  1  0  0  0  0
 14 37  1  0  0  0  0
 15 16  1  0  0  0  0
 15 23  1  0  0  0  0
 15 53  1  0  0  0  0
 16 21  1  0  0  0  0
 16 17  1  0  0  0  0
 16 38  1  0  0  0  0
 17 18  1  0  0  0  0
 17 39  1  0  0  0  0
 17 40  1  0  0  0  0
 18 22  1  0  0  0  0
 18 19  1  0  0  0  0
 18 41  1  0  0  0  0
 19 20  1  0  0  0  0
 19 42  1  0  0  0  0
 19 43  1  0  0  0  0
 20 21  1  0  0  0  0
 20 44  1  0  0  0  0
 20 45  1  0  0  0  0
 21 22  1  0  0  0  0
 21 46  1  0  0  0  0
 22 47  1  0  0  0  0
 22 48  1  0  0  0  0
 23 24  1  0  0  0  0
 23 49  1  0  0  0  0
 23 50  1  0  0  0  0
 24 51  1  0  0  0  0
 24 52  1  0  0  0  0
M  CHG  1  15   1
M  END
> <s_m_source_file>
AV-unprocessed.smi

> <i_m_source_file_index>
907

> <i_lp_mmshare_version>
43012

> <i_f3d_flags>
0

> <s_epik_input>
W0NIMl0xW0NIMl1bQ0BASF0oW0NIMl0yKVtDQEBIXShbQ0gyXVtDQEhdMTIpTihbQ0gyXVtDSDJdMylbQ0gyXVtDSDJdTjNDKD1PKVtOSF1bQ0gyXVtDSDJdYzRbY0hdW2NIXVtjSF1bY0hdbjQ=

> <s_epik_cmdline>
J2VwaWtfcHl0aG9uJywgJy1waCcsICc3LjAnLCAnLXRuJywgJzgnLCAnLW1hJywgJzIwMCcsICctbWV0YWxfYmluZGluZycsICctaW1hZScsICc8aW5maWxlLm1hZT4nLCAnLW9tYWUnLCAnPG91dGZpbGUubWFlPic=

> <r_epik_Ionization_Penalty>
0.0419258

> <r_epik_Ionization_Penalty_Charging>
0.00262064

> <r_epik_Ionization_Penalty_Neutral>
0.0393052

> <r_epik_State_Penalty>
0.0329887

> <r_epik_Charging_Adjusted_Penalty>
0.0356093

> <i_epik_Tot_Q>
1

> <i_epik_Tot_abs_Q>
1

> <r_epik_Metal_State_Penalty>
0.0309172

> <b_epik_Metal_Only>
0

> <s_lp_Force_Field>
OPLS_2005

> <r_lp_Energy>
96.3886

> <b_lp_Chiralities_Consistent>
1

> <s_lp_Variant>
AV-unprocessed.smi:907-3

> <Gold.Version>
5.8.1

> <Gold.Id.Protein>
6NUR|6NUR_protein|mol2

> <Gold.PLP.Fitness>
48.6584

> <Gold.PLP.PLP>
-44.5312

> <Gold.PLP.part.hbond>
-1.0000

> <Gold.PLP.part.metal>
0.0000

> <Gold.PLP.part.buried>
-5.4676

> <Gold.PLP.part.nonpolar>
-38.0700

> <Gold.PLP.part.repulsive>
0.0172

> <Gold.PLP.ligand.clash>
0.6283

> <Gold.PLP.ligand.torsion>
0.6706

> <Gold.PLP.Chemscore.Hbond>
2.0000

> <Gold.PLP.Chemscore.CHOScore>
0.0000

> <Gold.PLP.Chemscore.Metal>
0.0000

> <Gold.Chemscore.Hbonds>
donor molecule, donor type, donor heavy atom, donor atom, acceptor molecule, acceptor atom, score
      L1  H    15    53       P1  7948  2.00

> <Gold.PLP.Chemscore.Internal.Correction>
0.0966

> <Gold.Rescore>
     Score         DG    S(hbond)    S(metal)    S(lipo)     H(rot)  DE(clash)    DE(int)     intcor
     17.84     -18.51       0.93        0.00     114.97       1.37       0.01       0.66       ----

> <Gold.Chemscore.Fitness>
17.8359

> <Gold.Chemscore.DG>
-18.5070

> <Gold.Chemscore.ZeroCoef>
-5.4800

> <Gold.Chemscore.Hbond>
0.9255

> <Gold.Chemscore.Metal>
0.0000

> <Gold.Chemscore.Lipo>
114.9662

> <Gold.Chemscore.Internal_Hbond>
0.0000

> <Gold.Chemscore.DEClash>
0.0064

> <Gold.Chemscore.DEInternal>
0.6647

> <Gold.Chemscore.Rot>
1.3731

> <Gold.Chemscore.Internal.Correction>
   9.000000E+99

> <Gold.Chemscore.Hbonds>
donor molecule, donor type, donor heavy atom, donor atom, acceptor molecule, acceptor atom, score
      L1  H    15    53       P1  7948  0.30

> <Gold.Chemscore.Hbond.Weighted>
-3.0912

> <Gold.Chemscore.Metal.Weighted>
-0.0000

> <Gold.Chemscore.Lipo.Weighted>
-13.4510

> <Gold.Chemscore.Internal_Hbond.Weighted>
0.0000

> <Gold.Chemscore.DEClash.Weighted>
0.0064

> <Gold.Chemscore.DEInternal.Weighted>
0.6647

> <Gold.Chemscore.Rot.Weighted>
3.5152

> <Gold.Chemscore.Internal.Correction.Weighted>
   9.000000E+99

> <Gold.Protein.RotatedTorsions>
[ 6907 6896 6895 6894 ] final  166.71 input  -60.11 | X-H torsion
[ 7974 7965 7964 7962 ] final   36.20 input  175.53 | X-H torsion
[ 8008 7997 7996 7995 ] final  -29.86 input   59.86 | X-H torsion
[ 10167 10162 10161 10158 ] final  119.55 input  -65.29 | X-H torsion
[ 10718 10713 10712 10709 ] final  -63.00 input   66.30 | X-H torsion
[ 10763 10752 10751 10750 ] final   34.03 input  -60.55 | X-H torsion
[ 11005 11000 10999 10996 ] final  -62.43 input  -57.11 | X-H torsion

> <Gold.Protein.ActiveResidues>
 VAL166  LYS551  ARG553  GLY616  TRP617  ASP618  TYR619  PRO620  LYS621  CYS622 
 ASP623  PHE694  ASN695  SER759  ASP760  ASP761  ALA762  ILE779  LEU786  VAL792 
 PHE793  MET794  SER795  GLU796  ALA797  LYS798  CYS799  TRP800  GLU811  SER814 

> <Gold.Protein.RotatedAtoms>
  151.8746  133.3482  159.3745 H   0  0  0  0  0  0  0  0  0  0  0  0  # atno 6907 bound_to 6896
  150.7143  134.5079  159.5602 H   0  0  0  0  0  0  0  0  0  0  0  0  # atno 6908 bound_to 6896
  152.2618  134.8026  160.0480 H   0  0  0  0  0  0  0  0  0  0  0  0  # atno 6909 bound_to 6896
  146.1228  139.6047  142.9278 H   0  0  0  0  0  0  0  0  0  0  0  0  # atno 7974 bound_to 7965
  154.4273  140.1807  156.1315 H   0  0  0  0  0  0  0  0  0  0  0  0  # atno 8008 bound_to 7997
  156.0064  140.3355  155.6871 H   0  0  0  0  0  0  0  0  0  0  0  0  # atno 8009 bound_to 7997
  155.6172  140.0656  157.2679 H   0  0  0  0  0  0  0  0  0  0  0  0  # atno 8010 bound_to 7997
  139.6039  144.7064  151.2999 H   0  0  0  0  0  0  0  0  0  0  0  0  # atno 10167 bound_to 10162
  156.0819  130.4215  150.1215 H   0  0  0  0  0  0  0  0  0  0  0  0  # atno 10718 bound_to 10713
  153.0183  135.6371  154.1604 H   0  0  0  0  0  0  0  0  0  0  0  0  # atno 10763 bound_to 10752
  154.1341  135.2838  155.3179 H   0  0  0  0  0  0  0  0  0  0  0  0  # atno 10764 bound_to 10752
  154.6172  135.5537  153.7598 H   0  0  0  0  0  0  0  0  0  0  0  0  # atno 10765 bound_to 10752
  141.1359  133.6640  156.5526 H   0  0  0  0  0  0  0  0  0  0  0  0  # atno 11005 bound_to 11000
  145.5429  141.0419  143.2320 LP  0  0  0  0  0  0  0  0  0  0  0  0  # atno 17320 bound_to 7965
  144.7613  139.6949  143.7233 LP  0  0  0  0  0  0  0  0  0  0  0  0  # atno 17321 bound_to 7965
  140.7270  143.6975  150.7872 LP  0  0  0  0  0  0  0  0  0  0  0  0  # atno 17342 bound_to 10162
  140.0556  143.5205  152.2652 LP  0  0  0  0  0  0  0  0  0  0  0  0  # atno 17343 bound_to 10162
  156.9244  130.9693  151.3543 LP  0  0  0  0  0  0  0  0  0  0  0  0  # atno 17370 bound_to 10713
  157.5939  130.8463  149.8700 LP  0  0  0  0  0  0  0  0  0  0  0  0  # atno 17371 bound_to 10713
  140.4052  134.7321  157.4803 LP  0  0  0  0  0  0  0  0  0  0  0  0  # atno 17394 bound_to 11000
  140.0467  134.6189  155.8912 LP  0  0  0  0  0  0  0  0  0  0  0  0  # atno 17395 bound_to 11000

$$$$
