AV-unprocessed.smi:2001|AV-procd|sdf|8109|dock3
  -GOLD-   2272010333D 1   1.00000     0.00000
 Structure written by MMmdl.
 50 51  0  0  0  0  0  0  0  0  3 V2000
  147.2695  136.8929  161.7606 C   0  0  0  0  0  0  0  0  0  0  0  0
  147.4303  137.8796  160.7570 O   0  0  0  0  0  0  0  0  0  0  0  0
  147.7198  137.3197  159.4870 C   0  0  0  0  0  0  0  0  0  0  0  0
  149.2422  137.1741  159.3425 C   0  0  0  0  0  0  0  0  0  0  0  0
  149.6255  136.8767  157.9588 N   0  0  0  0  0  0  0  0  0  0  0  0
  149.6430  135.5257  157.6562 N   0  0  0  0  0  0  0  0  0  0  0  0
  149.9595  135.1238  156.4675 C   0  0  0  0  0  0  0  0  0  0  0  0
  149.9789  133.6618  156.1390 C   0  0  0  0  0  0  0  0  0  0  0  0
  150.0102  132.9026  157.1171 O   0  0  0  0  0  0  0  0  0  0  0  0
  149.9628  133.2744  154.8276 N   0  5  0  0  0  0  0  0  0  0  0  0
  148.9678  132.3946  154.2173 C   0  0  0  0  0  0  0  0  0  0  0  0
  148.2575  133.1351  153.0677 C   0  0  0  0  0  0  0  0  0  0  0  0
  147.5103  132.2047  152.1800 N   0  3  1  0  0  0  0  0  0  0  0  0
  146.8658  131.0934  152.9205 C   0  0  0  0  0  0  0  0  0  0  0  0
  146.1899  130.1142  151.9423 C   0  0  1  0  0  0  0  0  0  0  0  0
  145.4454  128.9912  152.6727 C   0  0  0  0  0  0  0  0  0  0  0  0
  145.2496  130.8254  151.1439 O   0  0  0  0  0  0  0  0  0  0  0  0
  145.8581  131.8463  150.3599 C   0  0  1  0  0  0  0  0  0  0  0  0
  144.7788  132.4799  149.4753 C   0  0  0  0  0  0  0  0  0  0  0  0
  146.5169  132.8732  151.2992 C   0  0  0  0  0  0  0  0  0  0  0  0
  150.3000  136.0893  155.4293 C   0  0  0  0  0  0  0  0  0  0  0  0
  150.2723  137.4040  155.7384 C   0  0  0  0  0  0  0  0  0  0  0  0
  149.9144  137.8782  157.0752 C   0  0  0  0  0  0  0  0  0  0  0  0
  149.8729  139.0705  157.3776 O   0  0  0  0  0  0  0  0  0  0  0  0
  147.0478  137.3726  162.7139 H   0  0  0  0  0  0  0  0  0  0  0  0
  148.1794  136.3041  161.8838 H   0  0  0  0  0  0  0  0  0  0  0  0
  146.4453  136.2190  161.5233 H   0  0  0  0  0  0  0  0  0  0  0  0
  147.2395  136.3446  159.3906 H   0  0  0  0  0  0  0  0  0  0  0  0
  147.3225  137.9625  158.6998 H   0  0  0  0  0  0  0  0  0  0  0  0
  149.7395  138.0819  159.6891 H   0  0  0  0  0  0  0  0  0  0  0  0
  149.5945  136.3809  160.0046 H   0  0  0  0  0  0  0  0  0  0  0  0
  149.4084  131.4784  153.8228 H   0  0  0  0  0  0  0  0  0  0  0  0
  148.2223  132.0745  154.9459 H   0  0  0  0  0  0  0  0  0  0  0  0
  147.5629  133.8517  153.5096 H   0  0  0  0  0  0  0  0  0  0  0  0
  148.9656  133.7244  152.4825 H   0  0  0  0  0  0  0  0  0  0  0  0
  147.6144  130.5619  153.5098 H   0  0  0  0  0  0  0  0  0  0  0  0
  146.1333  131.5000  153.6203 H   0  0  0  0  0  0  0  0  0  0  0  0
  146.9434  129.6650  151.2930 H   0  0  0  0  0  0  0  0  0  0  0  0
  146.1271  128.4044  153.2888 H   0  0  0  0  0  0  0  0  0  0  0  0
  144.9711  128.3123  151.9635 H   0  0  0  0  0  0  0  0  0  0  0  0
  144.6665  129.3908  153.3229 H   0  0  0  0  0  0  0  0  0  0  0  0
  146.6165  131.3995  149.7143 H   0  0  0  0  0  0  0  0  0  0  0  0
  145.1999  133.2609  148.8417 H   0  0  0  0  0  0  0  0  0  0  0  0
  143.9866  132.9270  150.0764 H   0  0  0  0  0  0  0  0  0  0  0  0
  144.3228  131.7346  148.8234 H   0  0  0  0  0  0  0  0  0  0  0  0
  145.7589  133.3642  151.9122 H   0  0  0  0  0  0  0  0  0  0  0  0
  146.9995  133.6518  150.7073 H   0  0  0  0  0  0  0  0  0  0  0  0
  150.5678  135.7798  154.4300 H   0  0  0  0  0  0  0  0  0  0  0  0
  150.5205  138.1284  154.9767 H   0  0  0  0  0  0  0  0  0  0  0  0
  148.2026  131.7789  151.5801 H   0  0  0  0  0  0  0  0  0  0  0  0
  1  2  1  0  0  0  0
  1 25  1  0  0  0  0
  1 26  1  0  0  0  0
  1 27  1  0  0  0  0
  2  3  1  0  0  0  0
  3  4  1  0  0  0  0
  3 28  1  0  0  0  0
  3 29  1  0  0  0  0
  4  5  1  0  0  0  0
  4 30  1  0  0  0  0
  4 31  1  0  0  0  0
  5 23  1  0  0  0  0
  5  6  1  0  0  0  0
  6  7  2  0  0  0  0
  7  8  1  0  0  0  0
  7 21  1  0  0  0  0
  8  9  2  0  0  0  0
  8 10  1  0  0  0  0
 10 11  1  0  0  0  0
 11 12  1  0  0  0  0
 11 32  1  0  0  0  0
 11 33  1  0  0  0  0
 12 13  1  0  0  0  0
 12 34  1  0  0  0  0
 12 35  1  0  0  0  0
 13 20  1  0  0  0  0
 13 14  1  0  0  0  0
 13 50  1  0  0  0  0
 14 15  1  0  0  0  0
 14 36  1  0  0  0  0
 14 37  1  0  0  0  0
 15 16  1  0  0  0  0
 15 17  1  0  0  0  0
 15 38  1  0  0  0  0
 16 39  1  0  0  0  0
 16 40  1  0  0  0  0
 16 41  1  0  0  0  0
 17 18  1  0  0  0  0
 18 19  1  0  0  0  0
 18 20  1  0  0  0  0
 18 42  1  0  0  0  0
 19 43  1  0  0  0  0
 19 44  1  0  0  0  0
 19 45  1  0  0  0  0
 20 46  1  0  0  0  0
 20 47  1  0  0  0  0
 21 22  2  0  0  0  0
 21 48  1  0  0  0  0
 22 23  1  0  0  0  0
 22 49  1  0  0  0  0
 23 24  2  0  0  0  0
M  CHG  1  10  -1
M  CHG  1  13   1
M  END
> <s_m_source_file>
AV-unprocessed.smi

> <i_m_source_file_index>
2001

> <i_lp_mmshare_version>
43012

> <i_f3d_flags>
0

> <s_epik_input>
W0NIM11PW0NIMl1bQ0gyXW4xbmMoW2NIXVtjSF1jMT1PKUMoPU8pW05IXVtDSDJdW0NIMl1OMltDSDJdW0NAQEhdKFtDSDNdKU9bQ0BASF0oW0NIM10pW0NIMl0y

> <s_epik_cmdline>
J2VwaWtfcHl0aG9uJywgJy1waCcsICc3LjAnLCAnLXRuJywgJzgnLCAnLW1hJywgJzIwMCcsICctbWV0YWxfYmluZGluZycsICctaW1hZScsICc8aW5maWxlLm1hZT4nLCAnLW9tYWUnLCAnPG91dGZpbGUubWFlPic=

> <r_lp_tautomer_probability>
1

> <r_epik_Ionization_Penalty>
6.90846

> <r_epik_Ionization_Penalty_Charging>
6.90846

> <r_epik_Ionization_Penalty_Neutral>
1.08445e-11

> <r_epik_State_Penalty>
7.54671

> <r_epik_Charging_Adjusted_Penalty>
14.4552

> <i_epik_Tot_Q>
0

> <i_epik_Tot_abs_Q>
2

> <r_epik_Metal_State_Penalty>
3.46181

> <b_epik_Metal_Only>
1

> <s_lp_Force_Field>
OPLS_2005

> <r_lp_Energy>
40.5373

> <b_lp_Chiralities_Consistent>
1

> <s_lp_Variant>
AV-unprocessed.smi:2001-8

> <Gold.Version>
5.8.1

> <Gold.Id.Protein>
6NUR|6NUR_protein|mol2

> <Gold.PLP.Fitness>
48.4506

> <Gold.PLP.PLP>
-40.6177

> <Gold.PLP.part.hbond>
-4.0000

> <Gold.PLP.part.metal>
0.0000

> <Gold.PLP.part.buried>
-5.7783

> <Gold.PLP.part.nonpolar>
-31.1809

> <Gold.PLP.part.repulsive>
0.2132

> <Gold.PLP.ligand.clash>
0.0000

> <Gold.PLP.ligand.torsion>
1.4875

> <Gold.PLP.Chemscore.Hbond>
3.5010

> <Gold.PLP.Chemscore.CHOScore>
0.0000

> <Gold.PLP.Chemscore.Metal>
0.0000

> <Gold.Chemscore.Hbonds>
donor molecule, donor type, donor heavy atom, donor atom, acceptor molecule, acceptor atom, score
      L1  H    13    50       P1 10747  1.00
      P1  H  6896  6908       L1     6  0.03
      P1  H  6934  6947       L1     2  0.13

> <Gold.PLP.Chemscore.Internal.Correction>
0.3050

> <Gold.Rescore>
     Score         DG    S(hbond)    S(metal)    S(lipo)     H(rot)  DE(clash)    DE(int)     intcor
     17.45     -19.03       2.27        0.00      95.17       2.02       0.15       1.43       ----

> <Gold.Chemscore.Fitness>
17.4545

> <Gold.Chemscore.DG>
-19.0295

> <Gold.Chemscore.ZeroCoef>
-5.4800

> <Gold.Chemscore.Hbond>
2.2698

> <Gold.Chemscore.Metal>
0.0000

> <Gold.Chemscore.Lipo>
95.1651

> <Gold.Chemscore.Internal_Hbond>
0.0000

> <Gold.Chemscore.DEClash>
0.1490

> <Gold.Chemscore.DEInternal>
1.4259

> <Gold.Chemscore.Rot>
2.0179

> <Gold.Chemscore.Internal.Correction>
   9.000000E+99

> <Gold.Chemscore.Hbonds>
donor molecule, donor type, donor heavy atom, donor atom, acceptor molecule, acceptor atom, score
      L1  H    13    50       P1 10747  1.00
      P1  H  6896  6908       L1     6  0.05
      P1  H  6934  6947       L1     2  0.13

> <Gold.Chemscore.Hbond.Weighted>
-7.5810

> <Gold.Chemscore.Metal.Weighted>
-0.0000

> <Gold.Chemscore.Lipo.Weighted>
-11.1343

> <Gold.Chemscore.Internal_Hbond.Weighted>
0.0000

> <Gold.Chemscore.DEClash.Weighted>
0.1490

> <Gold.Chemscore.DEInternal.Weighted>
1.4259

> <Gold.Chemscore.Rot.Weighted>
5.1659

> <Gold.Chemscore.Internal.Correction.Weighted>
   9.000000E+99

> <Gold.Protein.RotatedTorsions>
[ 6907 6896 6895 6894 ] final  140.86 input  -60.11 | X-H torsion
[ 7974 7965 7964 7962 ] final -130.01 input  175.53 | X-H torsion
[ 8008 7997 7996 7995 ] final -112.56 input   59.86 | X-H torsion
[ 10167 10162 10161 10158 ] final  154.72 input  -65.29 | X-H torsion
[ 10718 10713 10712 10709 ] final  -19.88 input   66.30 | X-H torsion
[ 10763 10752 10751 10750 ] final   97.13 input  -60.55 | X-H torsion
[ 11005 11000 10999 10996 ] final  179.61 input  -57.11 | X-H torsion

> <Gold.Protein.ActiveResidues>
 VAL166  LYS551  ARG553  GLY616  TRP617  ASP618  TYR619  PRO620  LYS621  CYS622 
 ASP623  PHE694  ASN695  SER759  ASP760  ASP761  ALA762  ILE779  LEU786  VAL792 
 PHE793  MET794  SER795  GLU796  ALA797  LYS798  CYS799  TRP800  GLU811  SER814 

> <Gold.Protein.RotatedAtoms>
  152.2380  133.5112  159.5253 H   0  0  0  0  0  0  0  0  0  0  0  0  # atno 6907 bound_to 6896
  150.7056  134.1127  159.4015 H   0  0  0  0  0  0  0  0  0  0  0  0  # atno 6908 bound_to 6896
  151.9048  135.0363  160.0560 H   0  0  0  0  0  0  0  0  0  0  0  0  # atno 6909 bound_to 6896
  144.9516  140.7351  143.4784 H   0  0  0  0  0  0  0  0  0  0  0  0  # atno 7974 bound_to 7965
  155.0071  140.0394  157.2384 H   0  0  0  0  0  0  0  0  0  0  0  0  # atno 8008 bound_to 7997
  154.7493  140.2764  155.6283 H   0  0  0  0  0  0  0  0  0  0  0  0  # atno 8009 bound_to 7997
  156.2881  140.2650  156.2242 H   0  0  0  0  0  0  0  0  0  0  0  0  # atno 8010 bound_to 7997
  139.4822  144.5162  151.7948 H   0  0  0  0  0  0  0  0  0  0  0  0  # atno 10167 bound_to 10162
  156.5395  130.4675  149.6506 H   0  0  0  0  0  0  0  0  0  0  0  0  # atno 10718 bound_to 10713
  153.2732  135.4194  155.1007 H   0  0  0  0  0  0  0  0  0  0  0  0  # atno 10763 bound_to 10752
  154.8463  135.3477  154.6216 H   0  0  0  0  0  0  0  0  0  0  0  0  # atno 10764 bound_to 10752
  153.6636  135.7047  153.5227 H   0  0  0  0  0  0  0  0  0  0  0  0  # atno 10765 bound_to 10752
  140.4081  134.6717  157.4599 H   0  0  0  0  0  0  0  0  0  0  0  0  # atno 11005 bound_to 11000
  145.2835  139.1910  143.4778 LP  0  0  0  0  0  0  0  0  0  0  0  0  # atno 17320 bound_to 7965
  146.3323  140.2800  142.8610 LP  0  0  0  0  0  0  0  0  0  0  0  0  # atno 17321 bound_to 7965
  140.4671  144.1640  150.5913 LP  0  0  0  0  0  0  0  0  0  0  0  0  # atno 17342 bound_to 10162
  140.4423  143.2521  151.9457 LP  0  0  0  0  0  0  0  0  0  0  0  0  # atno 17343 bound_to 10162
  156.2984  130.7163  151.2029 LP  0  0  0  0  0  0  0  0  0  0  0  0  # atno 17370 bound_to 10713
  157.7408  131.0513  150.5143 LP  0  0  0  0  0  0  0  0  0  0  0  0  # atno 17371 bound_to 10713
  140.0288  134.6438  155.9136 LP  0  0  0  0  0  0  0  0  0  0  0  0  # atno 17394 bound_to 11000
  141.1832  133.6550  156.5105 LP  0  0  0  0  0  0  0  0  0  0  0  0  # atno 17395 bound_to 11000

$$$$
