AV-unprocessed.smi:244|AV-procd|sdf|1872|dock9
  -GOLD-   2262020513D 1   1.00000     0.00000
 Structure written by MMmdl.
 56 60  0  0  0  0  0  0  0  0  1 V2000
  155.4050  139.6529  160.7454 C   0  0  0  0  0  0  0  0  0  0  0  0
  154.0805  140.2311  160.5670 N   0  0  0  0  0  0  0  0  0  0  0  0
  154.0505  141.5626  161.1758 C   0  0  0  0  0  0  0  0  0  0  0  0
  152.6527  142.1889  161.0287 C   0  0  0  0  0  0  0  0  0  0  0  0
  152.2664  142.2661  159.5487 C   0  0  2  0  0  0  0  0  0  0  0  0
  150.9507  142.7884  159.4077 O   0  0  0  0  0  0  0  0  0  0  0  0
  150.6015  142.9428  158.0363 C   0  0  0  0  0  0  0  0  0  0  0  0
  150.6350  141.5732  157.3386 C   0  0  0  0  0  0  0  0  0  0  0  0
  151.9308  140.9238  157.5241 N   0  0  0  0  0  0  0  0  0  0  0  0
  151.9992  139.7908  156.7835 C   0  0  0  0  0  0  0  0  0  0  0  0
  152.6775  139.7741  155.6049 N   0  0  0  0  0  0  0  0  0  0  0  0
  152.7606  138.6447  154.8950 C   0  0  0  0  0  0  0  0  0  0  0  0
  152.2584  137.4409  155.1792 N   0  0  0  0  0  0  0  0  0  0  0  0
  151.5884  137.4521  156.3674 C   0  0  0  0  0  0  0  0  0  0  0  0
  151.4146  138.5738  157.2250 C   0  0  0  0  0  0  0  0  0  0  0  0
  150.6814  138.2088  158.3467 N   0  0  0  0  0  0  0  0  0  0  0  0
  150.4353  136.9401  158.1633 C   0  0  0  0  0  0  0  0  0  0  0  0
  150.9384  136.4057  156.9982 N   0  0  0  0  0  0  0  0  0  0  0  0
  150.8135  135.0279  156.5483 C   0  0  0  0  0  0  0  0  0  0  0  0
  149.6777  134.8038  155.5200 C   0  0  0  0  0  0  0  0  0  0  0  0
  149.6542  135.9258  154.6537 O   0  0  0  0  0  0  0  0  0  0  0  0
  149.8885  133.5324  154.6688 C   0  0  0  0  0  0  0  0  0  0  0  0
  148.6609  133.2087  153.7989 C   0  0  0  0  0  0  0  0  0  0  0  0
  147.4984  133.1044  154.6121 O   0  0  0  0  0  0  0  0  0  0  0  0
  147.1787  134.3223  155.2737 C   0  0  0  0  0  0  0  0  0  0  0  0
  148.3147  134.7135  156.2355 C   0  0  0  0  0  0  0  0  0  0  0  0
  152.3378  140.8547  158.9317 C   0  0  1  0  0  0  0  0  0  0  0  0
  153.7711  140.3046  159.1369 C   0  0  0  0  0  0  0  0  0  0  0  0
  155.6507  139.5767  161.8051 H   0  0  0  0  0  0  0  0  0  0  0  0
  156.1720  140.2576  160.2590 H   0  0  0  0  0  0  0  0  0  0  0  0
  155.4443  138.6480  160.3239 H   0  0  0  0  0  0  0  0  0  0  0  0
  154.3053  141.4865  162.2336 H   0  0  0  0  0  0  0  0  0  0  0  0
  154.8003  142.2043  160.7104 H   0  0  0  0  0  0  0  0  0  0  0  0
  151.9192  141.5965  161.5771 H   0  0  0  0  0  0  0  0  0  0  0  0
  152.6429  143.1858  161.4699 H   0  0  0  0  0  0  0  0  0  0  0  0
  152.9684  142.9316  159.0413 H   0  0  0  0  0  0  0  0  0  0  0  0
  149.6025  143.3736  157.9702 H   0  0  0  0  0  0  0  0  0  0  0  0
  151.2825  143.6434  157.5501 H   0  0  0  0  0  0  0  0  0  0  0  0
  149.8518  140.9327  157.7469 H   0  0  0  0  0  0  0  0  0  0  0  0
  150.4207  141.7018  156.2768 H   0  0  0  0  0  0  0  0  0  0  0  0
  153.3109  138.7155  153.9684 H   0  0  0  0  0  0  0  0  0  0  0  0
  149.8726  136.3548  158.8760 H   0  0  0  0  0  0  0  0  0  0  0  0
  151.7699  134.7242  156.1207 H   0  0  0  0  0  0  0  0  0  0  0  0
  150.6609  134.3967  157.4250 H   0  0  0  0  0  0  0  0  0  0  0  0
  149.3784  135.6379  153.7968 H   0  0  0  0  0  0  0  0  0  0  0  0
  150.7708  133.6288  154.0350 H   0  0  0  0  0  0  0  0  0  0  0  0
  150.0771  132.6855  155.3298 H   0  0  0  0  0  0  0  0  0  0  0  0
  148.5131  133.9677  153.0290 H   0  0  0  0  0  0  0  0  0  0  0  0
  148.8121  132.2615  153.2811 H   0  0  0  0  0  0  0  0  0  0  0  0
  146.9923  135.1100  154.5421 H   0  0  0  0  0  0  0  0  0  0  0  0
  146.2518  134.1845  155.8305 H   0  0  0  0  0  0  0  0  0  0  0  0
  148.3710  133.9618  157.0239 H   0  0  0  0  0  0  0  0  0  0  0  0
  148.0777  135.6566  156.7301 H   0  0  0  0  0  0  0  0  0  0  0  0
  151.6316  140.2086  159.4566 H   0  0  0  0  0  0  0  0  0  0  0  0
  154.4991  140.9358  158.6240 H   0  0  0  0  0  0  0  0  0  0  0  0
  153.8633  139.3047  158.7134 H   0  0  0  0  0  0  0  0  0  0  0  0
  1  2  1  0  0  0  0
  1 29  1  0  0  0  0
  1 30  1  0  0  0  0
  1 31  1  0  0  0  0
  2 28  1  0  0  0  0
  2  3  1  0  0  0  0
  3  4  1  0  0  0  0
  3 32  1  0  0  0  0
  3 33  1  0  0  0  0
  4  5  1  0  0  0  0
  4 34  1  0  0  0  0
  4 35  1  0  0  0  0
  5 27  1  0  0  0  0
  5  6  1  0  0  0  0
  5 36  1  0  0  0  0
  6  7  1  0  0  0  0
  7  8  1  0  0  0  0
  7 37  1  0  0  0  0
  7 38  1  0  0  0  0
  8  9  1  0  0  0  0
  8 39  1  0  0  0  0
  8 40  1  0  0  0  0
  9 10  1  0  0  0  0
  9 27  1  0  0  0  0
 10 15  1  0  0  0  0
 10 11  2  0  0  0  0
 11 12  1  0  0  0  0
 12 13  2  0  0  0  0
 12 41  1  0  0  0  0
 13 14  1  0  0  0  0
 14 18  1  0  0  0  0
 14 15  2  0  0  0  0
 15 16  1  0  0  0  0
 16 17  2  0  0  0  0
 17 18  1  0  0  0  0
 17 42  1  0  0  0  0
 18 19  1  0  0  0  0
 19 20  1  0  0  0  0
 19 43  1  0  0  0  0
 19 44  1  0  0  0  0
 20 26  1  0  0  0  0
 20 21  1  0  0  0  0
 20 22  1  0  0  0  0
 21 45  1  0  0  0  0
 22 23  1  0  0  0  0
 22 46  1  0  0  0  0
 22 47  1  0  0  0  0
 23 24  1  0  0  0  0
 23 48  1  0  0  0  0
 23 49  1  0  0  0  0
 24 25  1  0  0  0  0
 25 26  1  0  0  0  0
 25 50  1  0  0  0  0
 25 51  1  0  0  0  0
 26 52  1  0  0  0  0
 26 53  1  0  0  0  0
 27 28  1  0  0  0  0
 27 54  1  0  0  0  0
 28 55  1  0  0  0  0
 28 56  1  0  0  0  0
M  END
> <s_m_source_file>
AV-unprocessed.smi

> <i_m_source_file_index>
244

> <i_lp_mmshare_version>
43012

> <i_f3d_flags>
0

> <s_epik_input>
W0NIMl0xW0NIMl1OKFtDSDNdKVtDSDJdW0NAQEhdKFtDQEhdMTIpTihbQ0gyXVtDSDJdTzIpYyhuW2NIXW4zKWMoYzM0KW5bY0hdbjRbQ0gyXUM1KFtPSF0pW0NIMl1bQ0gyXU9bQ0gyXVtDSDJdNQ==

> <s_epik_cmdline>
J2VwaWtfcHl0aG9uJywgJy1waCcsICc3LjAnLCAnLXRuJywgJzgnLCAnLW1hJywgJzIwMCcsICctbWV0YWxfYmluZGluZycsICctaW1hZScsICc8aW5maWxlLm1hZT4nLCAnLW9tYWUnLCAnPG91dGZpbGUubWFlPic=

> <r_lp_tautomer_probability>
1

> <r_epik_Ionization_Penalty>
2.27765

> <r_epik_Ionization_Penalty_Charging>
0

> <r_epik_Ionization_Penalty_Neutral>
2.27765

> <r_epik_State_Penalty>
2.4114

> <r_epik_Charging_Adjusted_Penalty>
2.4114

> <i_epik_Tot_Q>
0

> <i_epik_Tot_abs_Q>
0

> <r_epik_Metal_State_Penalty>
2.39769

> <b_epik_Metal_Only>
0

> <s_lp_Force_Field>
OPLS_2005

> <r_lp_Energy>
38.8348

> <b_lp_Chiralities_Consistent>
1

> <s_lp_Variant>
AV-unprocessed.smi:244-9

> <Gold.Version>
5.8.1

> <Gold.Id.Protein>
6NUR|6NUR_protein|mol2

> <Gold.PLP.Fitness>
47.3570

> <Gold.PLP.PLP>
-41.0511

> <Gold.PLP.part.hbond>
-3.4082

> <Gold.PLP.part.metal>
0.0000

> <Gold.PLP.part.buried>
-5.6898

> <Gold.PLP.part.nonpolar>
-31.9197

> <Gold.PLP.part.repulsive>
0.1144

> <Gold.PLP.ligand.clash>
0.0000

> <Gold.PLP.ligand.torsion>
0.9563

> <Gold.PLP.Chemscore.Hbond>
2.6896

> <Gold.PLP.Chemscore.CHOScore>
0.0000

> <Gold.PLP.Chemscore.Metal>
0.0000

> <Gold.Chemscore.Hbonds>
donor molecule, donor type, donor heavy atom, donor atom, acceptor molecule, acceptor atom, score
      L1  H    21    45       P1  7948  0.90
      P1  H  7997  8008       L1    11  1.00
      P1  H 10752 10765       L1    13  0.73

> <Gold.PLP.Chemscore.Internal.Correction>
0.1497

> <Gold.Rescore>
     Score         DG    S(hbond)    S(metal)    S(lipo)     H(rot)  DE(clash)    DE(int)     intcor
     17.28     -18.23       2.33        0.00      87.48       2.06       0.00       0.94       ----

> <Gold.Chemscore.Fitness>
17.2840

> <Gold.Chemscore.DG>
-18.2261

> <Gold.Chemscore.ZeroCoef>
-5.4800

> <Gold.Chemscore.Hbond>
2.3315

> <Gold.Chemscore.Metal>
0.0000

> <Gold.Chemscore.Lipo>
87.4822

> <Gold.Chemscore.Internal_Hbond>
0.0000

> <Gold.Chemscore.DEClash>
0.0047

> <Gold.Chemscore.DEInternal>
0.9373

> <Gold.Chemscore.Rot>
2.0611

> <Gold.Chemscore.Internal.Correction>
   9.000000E+99

> <Gold.Chemscore.Hbonds>
donor molecule, donor type, donor heavy atom, donor atom, acceptor molecule, acceptor atom, score
      L1  H    21    45       P1  7948  0.37
      P1  H  7997  8008       L1    11  0.19
      P1  H 10752 10765       L1    13  0.63

> <Gold.Chemscore.Hbond.Weighted>
-7.7872

> <Gold.Chemscore.Metal.Weighted>
-0.0000

> <Gold.Chemscore.Lipo.Weighted>
-10.2354

> <Gold.Chemscore.Internal_Hbond.Weighted>
0.0000

> <Gold.Chemscore.DEClash.Weighted>
0.0047

> <Gold.Chemscore.DEInternal.Weighted>
0.9373

> <Gold.Chemscore.Rot.Weighted>
5.2765

> <Gold.Chemscore.Internal.Correction.Weighted>
   9.000000E+99

> <Gold.Protein.RotatedTorsions>
[ 6907 6896 6895 6894 ] final   28.28 input  -60.11 | X-H torsion
[ 7974 7965 7964 7962 ] final  171.43 input  175.53 | X-H torsion
[ 8008 7997 7996 7995 ] final  -32.17 input   59.86 | X-H torsion
[ 10167 10162 10161 10158 ] final    7.52 input  -65.29 | X-H torsion
[ 10718 10713 10712 10709 ] final   84.62 input   66.30 | X-H torsion
[ 10763 10752 10751 10750 ] final  178.27 input  -60.55 | X-H torsion
[ 11005 11000 10999 10996 ] final   83.66 input  -57.11 | X-H torsion

> <Gold.Protein.ActiveResidues>
 VAL166  LYS551  ARG553  GLY616  TRP617  ASP618  TYR619  PRO620  LYS621  CYS622 
 ASP623  PHE694  ASN695  SER759  ASP760  ASP761  ALA762  ILE779  LEU786  VAL792 
 PHE793  MET794  SER795  GLU796  ALA797  LYS798  CYS799  TRP800  GLU811  SER814 

> <Gold.Protein.RotatedAtoms>
  152.0147  134.9856  160.0568 H   0  0  0  0  0  0  0  0  0  0  0  0  # atno 6907 bound_to 6896
  152.1395  133.4451  159.4768 H   0  0  0  0  0  0  0  0  0  0  0  0  # atno 6908 bound_to 6896
  150.6863  134.2241  159.4451 H   0  0  0  0  0  0  0  0  0  0  0  0  # atno 6909 bound_to 6896
  144.7295  139.9349  143.6426 H   0  0  0  0  0  0  0  0  0  0  0  0  # atno 7974 bound_to 7965
  154.4189  140.1744  156.1684 H   0  0  0  0  0  0  0  0  0  0  0  0  # atno 8008 bound_to 7997
  155.9781  140.3380  155.6613 H   0  0  0  0  0  0  0  0  0  0  0  0  # atno 8009 bound_to 7997
  155.6537  140.0693  157.2569 H   0  0  0  0  0  0  0  0  0  0  0  0  # atno 8010 bound_to 7997
  140.6367  143.7869  150.7369 H   0  0  0  0  0  0  0  0  0  0  0  0  # atno 10167 bound_to 10162
  157.6901  131.0141  150.2700 H   0  0  0  0  0  0  0  0  0  0  0  0  # atno 10718 bound_to 10713
  154.5055  135.2786  155.1386 H   0  0  0  0  0  0  0  0  0  0  0  0  # atno 10763 bound_to 10752
  154.3002  135.6249  153.5425 H   0  0  0  0  0  0  0  0  0  0  0  0  # atno 10764 bound_to 10752
  152.9909  135.5695  154.5508 H   0  0  0  0  0  0  0  0  0  0  0  0  # atno 10765 bound_to 10752
  139.9024  134.8161  156.2339 H   0  0  0  0  0  0  0  0  0  0  0  0  # atno 11005 bound_to 11000
  146.0829  139.3817  143.0453 LP  0  0  0  0  0  0  0  0  0  0  0  0  # atno 17320 bound_to 7965
  145.7816  140.9854  143.1096 LP  0  0  0  0  0  0  0  0  0  0  0  0  # atno 17321 bound_to 7965
  140.1492  143.4372  152.2142 LP  0  0  0  0  0  0  0  0  0  0  0  0  # atno 17342 bound_to 10162
  139.5577  144.7384  151.4245 LP  0  0  0  0  0  0  0  0  0  0  0  0  # atno 17343 bound_to 10162
  156.3265  130.3793  149.7529 LP  0  0  0  0  0  0  0  0  0  0  0  0  # atno 17370 bound_to 10713
  156.5082  130.8160  151.3159 LP  0  0  0  0  0  0  0  0  0  0  0  0  # atno 17371 bound_to 10713
  141.0327  133.6980  156.1459 LP  0  0  0  0  0  0  0  0  0  0  0  0  # atno 17394 bound_to 11000
  140.7072  134.4501  157.5583 LP  0  0  0  0  0  0  0  0  0  0  0  0  # atno 17395 bound_to 11000

$$$$
