AV-unprocessed.smi:251|AV-procd|sdf|1934|dock6
  -GOLD-   2262021 53D 1   1.00000     0.00000
 Structure written by MMmdl.
 50 54  0  0  0  0  0  0  0  0  1 V2000
  147.4695  138.5731  151.5129 O   0  0  0  0  0  0  0  0  0  0  0  0
  146.8968  138.9824  152.7391 C   0  0  0  0  0  0  0  0  0  0  0  0
  147.0623  137.9107  153.8548 C   0  0  0  0  0  0  0  0  0  0  0  0
  148.5602  137.7457  154.2505 C   0  0  0  0  0  0  0  0  0  0  0  0
  149.1660  138.9210  154.8610 N   0  0  0  0  0  0  0  0  0  0  0  0
  149.1577  140.2031  154.3623 C   0  0  0  0  0  0  0  0  0  0  0  0
  149.7716  141.0889  155.0966 N   0  0  0  0  0  0  0  0  0  0  0  0
  150.2214  140.3736  156.2016 C   0  0  0  0  0  0  0  0  0  0  0  0
  150.9518  140.7058  157.3826 C   0  0  0  0  0  0  0  0  0  0  0  0
  151.4100  141.9493  157.6853 N   0  0  0  0  0  0  0  0  0  0  0  0
  151.0946  143.1147  156.8647 C   0  0  0  0  0  0  0  0  0  0  0  0
  151.5712  144.3055  157.6599 C   0  0  2  0  0  0  0  0  0  0  0  0
  153.0086  144.4274  158.1243 C   0  0  0  0  0  0  0  0  0  0  0  0
  151.9505  143.8284  159.0276 C   0  0  1  0  0  0  0  0  0  0  0  0
  151.5331  144.5401  160.3083 C   0  0  0  0  0  0  0  0  0  0  0  0
  152.1160  143.9735  161.3649 F   0  0  0  0  0  0  0  0  0  0  0  0
  151.8946  145.8215  160.2472 F   0  0  0  0  0  0  0  0  0  0  0  0
  150.2120  144.4803  160.4782 F   0  0  0  0  0  0  0  0  0  0  0  0
  151.7288  142.3296  159.0613 C   0  0  0  0  0  0  0  0  0  0  0  0
  151.2132  139.6948  158.2533 N   0  0  0  0  0  0  0  0  0  0  0  0
  150.7868  138.4539  158.0046 C   0  0  0  0  0  0  0  0  0  0  0  0
  150.0971  138.0048  156.9561 N   0  0  0  0  0  0  0  0  0  0  0  0
  149.8391  139.0066  156.0682 C   0  0  0  0  0  0  0  0  0  0  0  0
  146.2615  138.2922  155.1252 C   0  0  0  0  0  0  0  0  0  0  0  0
  144.7378  138.1996  154.9267 C   0  0  0  0  0  0  0  0  0  0  0  0
  144.3843  136.8901  154.5008 O   0  0  0  0  0  0  0  0  0  0  0  0
  144.9635  136.5418  153.2504 C   0  0  0  0  0  0  0  0  0  0  0  0
  146.4997  136.5556  153.3565 C   0  0  0  0  0  0  0  0  0  0  0  0
  148.0373  137.8358  151.6784 H   0  0  0  0  0  0  0  0  0  0  0  0
  147.3608  139.9272  153.0163 H   0  0  0  0  0  0  0  0  0  0  0  0
  145.8441  139.2086  152.5699 H   0  0  0  0  0  0  0  0  0  0  0  0
  148.6786  136.9112  154.9431 H   0  0  0  0  0  0  0  0  0  0  0  0
  149.1543  137.4816  153.3747 H   0  0  0  0  0  0  0  0  0  0  0  0
  148.6855  140.4612  153.4254 H   0  0  0  0  0  0  0  0  0  0  0  0
  151.6082  143.0792  155.9038 H   0  0  0  0  0  0  0  0  0  0  0  0
  150.0194  143.1877  156.6972 H   0  0  0  0  0  0  0  0  0  0  0  0
  150.9981  145.2252  157.5597 H   0  0  0  0  0  0  0  0  0  0  0  0
  153.7432  143.7539  157.6871 H   0  0  0  0  0  0  0  0  0  0  0  0
  153.3764  145.4257  158.3522 H   0  0  0  0  0  0  0  0  0  0  0  0
  150.9006  142.0809  159.7254 H   0  0  0  0  0  0  0  0  0  0  0  0
  152.6285  141.8242  159.4138 H   0  0  0  0  0  0  0  0  0  0  0  0
  151.0349  137.7155  158.7526 H   0  0  0  0  0  0  0  0  0  0  0  0
  146.5336  137.6185  155.9391 H   0  0  0  0  0  0  0  0  0  0  0  0
  146.5304  139.2921  155.4667 H   0  0  0  0  0  0  0  0  0  0  0  0
  144.2299  138.4061  155.8687 H   0  0  0  0  0  0  0  0  0  0  0  0
  144.3789  138.9409  154.2124 H   0  0  0  0  0  0  0  0  0  0  0  0
  144.6223  135.5430  152.9777 H   0  0  0  0  0  0  0  0  0  0  0  0
  144.6074  137.2137  152.4691 H   0  0  0  0  0  0  0  0  0  0  0  0
  146.9318  136.2907  152.3909 H   0  0  0  0  0  0  0  0  0  0  0  0
  146.7946  135.7654  154.0481 H   0  0  0  0  0  0  0  0  0  0  0  0
  1  2  1  0  0  0  0
  1 29  1  0  0  0  0
  2  3  1  0  0  0  0
  2 30  1  0  0  0  0
  2 31  1  0  0  0  0
  3 28  1  0  0  0  0
  3  4  1  0  0  0  0
  3 24  1  0  0  0  0
  4  5  1  0  0  0  0
  4 32  1  0  0  0  0
  4 33  1  0  0  0  0
  5 23  1  0  0  0  0
  5  6  1  0  0  0  0
  6  7  2  0  0  0  0
  6 34  1  0  0  0  0
  7  8  1  0  0  0  0
  8 23  2  0  0  0  0
  8  9  1  0  0  0  0
  9 10  1  0  0  0  0
  9 20  2  0  0  0  0
 10 19  1  0  0  0  0
 10 11  1  0  0  0  0
 11 12  1  0  0  0  0
 11 35  1  0  0  0  0
 11 36  1  0  0  0  0
 12 14  1  0  0  0  0
 12 13  1  0  0  0  0
 12 37  1  0  0  0  0
 13 14  1  0  0  0  0
 13 38  1  0  0  0  0
 13 39  1  0  0  0  0
 14 15  1  0  0  0  0
 14 19  1  0  0  0  0
 15 16  1  0  0  0  0
 15 17  1  0  0  0  0
 15 18  1  0  0  0  0
 19 40  1  0  0  0  0
 19 41  1  0  0  0  0
 20 21  1  0  0  0  0
 21 22  2  0  0  0  0
 21 42  1  0  0  0  0
 22 23  1  0  0  0  0
 24 25  1  0  0  0  0
 24 43  1  0  0  0  0
 24 44  1  0  0  0  0
 25 26  1  0  0  0  0
 25 45  1  0  0  0  0
 25 46  1  0  0  0  0
 26 27  1  0  0  0  0
 27 28  1  0  0  0  0
 27 47  1  0  0  0  0
 27 48  1  0  0  0  0
 28 49  1  0  0  0  0
 28 50  1  0  0  0  0
M  END
> <s_m_source_file>
AV-unprocessed.smi

> <i_m_source_file_index>
251

> <i_lp_mmshare_version>
43012

> <i_f3d_flags>
0

> <s_epik_input>
W0NIMl0xW0NIMl1PW0NIMl1bQ0gyXUMxKFtDSDJdW09IXSlbQ0gyXW4oW2NIXW4yKWMoYzIzKW5bY0hdbmMzTihbQ0gyXTQpW0NIMl1bQ0BIXShbQ0gyXTUpW0NAQF00NUMoRikoRilG

> <s_epik_cmdline>
J2VwaWtfcHl0aG9uJywgJy1waCcsICc3LjAnLCAnLXRuJywgJzgnLCAnLW1hJywgJzIwMCcsICctbWV0YWxfYmluZGluZycsICctaW1hZScsICc8aW5maWxlLm1hZT4nLCAnLW9tYWUnLCAnPG91dGZpbGUubWFlPic=

> <r_lp_tautomer_probability>
1

> <r_epik_Ionization_Penalty>
0.00226625

> <r_epik_Ionization_Penalty_Charging>
0

> <r_epik_Ionization_Penalty_Neutral>
0.00226625

> <r_epik_State_Penalty>
0.00138204

> <r_epik_Charging_Adjusted_Penalty>
0.00138204

> <i_epik_Tot_Q>
0

> <i_epik_Tot_abs_Q>
0

> <r_epik_Metal_State_Penalty>
-0

> <b_epik_Metal_Only>
0

> <s_lp_Force_Field>
OPLS_2005

> <r_lp_Energy>
66.9783

> <b_lp_Chiralities_Consistent>
1

> <s_lp_Variant>
AV-unprocessed.smi:251-1

> <Gold.Version>
5.8.1

> <Gold.Id.Protein>
6NUR|6NUR_protein|mol2

> <Gold.PLP.Fitness>
52.2445

> <Gold.PLP.PLP>
-46.8771

> <Gold.PLP.part.hbond>
-3.2539

> <Gold.PLP.part.metal>
0.0000

> <Gold.PLP.part.buried>
-3.3155

> <Gold.PLP.part.nonpolar>
-40.4993

> <Gold.PLP.part.repulsive>
0.1787

> <Gold.PLP.ligand.clash>
0.0000

> <Gold.PLP.ligand.torsion>
1.1536

> <Gold.PLP.Chemscore.Hbond>
1.0000

> <Gold.PLP.Chemscore.CHOScore>
0.9639

> <Gold.PLP.Chemscore.Metal>
0.0000

> <Gold.Chemscore.Hbonds>
donor molecule, donor type, donor heavy atom, donor atom, acceptor molecule, acceptor atom, score
      L1  H     1    29       P1  7948  1.00
      L1  C     6    34       P1  7957  0.93

> <Gold.PLP.Chemscore.Internal.Correction>
1.7827

> <Gold.Rescore>
     Score         DG    S(hbond)    S(metal)    S(lipo)     H(rot)  DE(clash)    DE(int)     intcor
      9.65     -14.26       0.99        0.00      95.70       2.23       1.61       2.99       ----

> <Gold.Chemscore.Fitness>
9.6498

> <Gold.Chemscore.DG>
-14.2582

> <Gold.Chemscore.ZeroCoef>
-5.4800

> <Gold.Chemscore.Hbond>
0.9886

> <Gold.Chemscore.Metal>
0.0000

> <Gold.Chemscore.Lipo>
95.6956

> <Gold.Chemscore.Internal_Hbond>
0.0000

> <Gold.Chemscore.DEClash>
1.6144

> <Gold.Chemscore.DEInternal>
2.9940

> <Gold.Chemscore.Rot>
2.2344

> <Gold.Chemscore.Internal.Correction>
   9.000000E+99

> <Gold.Chemscore.Hbonds>
donor molecule, donor type, donor heavy atom, donor atom, acceptor molecule, acceptor atom, score
      L1  H     1    29       P1  7948  1.00

> <Gold.Chemscore.Hbond.Weighted>
-3.3019

> <Gold.Chemscore.Metal.Weighted>
-0.0000

> <Gold.Chemscore.Lipo.Weighted>
-11.1964

> <Gold.Chemscore.Internal_Hbond.Weighted>
0.0000

> <Gold.Chemscore.DEClash.Weighted>
1.6144

> <Gold.Chemscore.DEInternal.Weighted>
2.9940

> <Gold.Chemscore.Rot.Weighted>
5.7200

> <Gold.Chemscore.Internal.Correction.Weighted>
   9.000000E+99

> <Gold.Protein.RotatedTorsions>
[ 6907 6896 6895 6894 ] final  -89.75 input  -60.11 | X-H torsion
[ 7974 7965 7964 7962 ] final  -46.73 input  175.53 | X-H torsion
[ 8008 7997 7996 7995 ] final -148.54 input   59.86 | X-H torsion
[ 10167 10162 10161 10158 ] final   28.43 input  -65.29 | X-H torsion
[ 10718 10713 10712 10709 ] final   57.49 input   66.30 | X-H torsion
[ 10763 10752 10751 10750 ] final  -94.70 input  -60.55 | X-H torsion
[ 11005 11000 10999 10996 ] final   30.24 input  -57.11 | X-H torsion

> <Gold.Protein.ActiveResidues>
 VAL166  LYS551  ARG553  GLY616  TRP617  ASP618  TYR619  PRO620  LYS621  CYS622 
 ASP623  PHE694  ASN695  SER759  ASP760  ASP761  ALA762  ILE779  LEU786  VAL792 
 PHE793  MET794  SER795  GLU796  ALA797  LYS798  CYS799  TRP800  GLU811  SER814 

> <Gold.Protein.RotatedAtoms>
  150.6876  134.2539  159.4521 H   0  0  0  0  0  0  0  0  0  0  0  0  # atno 6907 bound_to 6896
  152.0474  134.9672  160.0583 H   0  0  0  0  0  0  0  0  0  0  0  0  # atno 6908 bound_to 6896
  152.1149  133.4286  159.4685 H   0  0  0  0  0  0  0  0  0  0  0  0  # atno 6909 bound_to 6896
  145.9689  140.7403  142.9420 H   0  0  0  0  0  0  0  0  0  0  0  0  # atno 7974 bound_to 7965
  155.5932  140.0654  157.2753 H   0  0  0  0  0  0  0  0  0  0  0  0  # atno 8008 bound_to 7997
  154.4299  140.1831  156.1143 H   0  0  0  0  0  0  0  0  0  0  0  0  # atno 8009 bound_to 7997
  156.0216  140.3316  155.7049 H   0  0  0  0  0  0  0  0  0  0  0  0  # atno 8010 bound_to 7997
  140.4853  144.0552  150.6278 H   0  0  0  0  0  0  0  0  0  0  0  0  # atno 10167 bound_to 10162
  157.5518  130.8771  149.8975 H   0  0  0  0  0  0  0  0  0  0  0  0  # atno 10718 bound_to 10713
  154.7080  135.5148  153.8623 H   0  0  0  0  0  0  0  0  0  0  0  0  # atno 10763 bound_to 10752
  153.0757  135.6615  154.0160 H   0  0  0  0  0  0  0  0  0  0  0  0  # atno 10764 bound_to 10752
  154.0008  135.3011  155.3382 H   0  0  0  0  0  0  0  0  0  0  0  0  # atno 10765 bound_to 10752
  140.2964  134.2805  155.7763 H   0  0  0  0  0  0  0  0  0  0  0  0  # atno 11005 bound_to 11000
  144.6832  140.2716  143.7305 LP  0  0  0  0  0  0  0  0  0  0  0  0  # atno 17320 bound_to 7965
  145.7934  139.1936  143.2090 LP  0  0  0  0  0  0  0  0  0  0  0  0  # atno 17321 bound_to 7965
  140.3806  143.2805  152.0174 LP  0  0  0  0  0  0  0  0  0  0  0  0  # atno 17342 bound_to 10162
  139.4841  144.6158  151.7349 LP  0  0  0  0  0  0  0  0  0  0  0  0  # atno 17343 bound_to 10162
  156.0584  130.3704  150.1039 LP  0  0  0  0  0  0  0  0  0  0  0  0  # atno 17370 bound_to 10713
  156.9211  130.9683  151.3548 LP  0  0  0  0  0  0  0  0  0  0  0  0  # atno 17371 bound_to 10713
  141.2136  133.7618  156.9702 LP  0  0  0  0  0  0  0  0  0  0  0  0  # atno 17394 bound_to 11000
  140.1148  134.9454  157.2118 LP  0  0  0  0  0  0  0  0  0  0  0  0  # atno 17395 bound_to 11000

$$$$
