AV-unprocessed.smi:1567|AV-procd|sdf|6308|dock5
  -GOLD-   22720 6513D 1   1.00000     0.00000
 Structure written by MMmdl.
 43 45  0  0  0  0  0  0  0  0  2 V2000
  150.0716  136.9404  159.1139 O   0  0  0  0  0  0  0  0  0  0  0  0
  150.9911  137.7499  159.8133 C   0  0  0  0  0  0  0  0  0  0  0  0
  152.1941  138.0635  158.9097 C   0  0  0  0  0  0  0  0  0  0  0  0
  151.9695  139.2625  157.9735 C   0  0  0  0  0  0  0  0  0  0  0  0
  151.9689  140.5667  158.7069 C   0  0  0  0  0  0  0  0  0  0  0  0
  152.3709  140.7527  159.9959 N   0  3  0  0  0  0  0  0  0  0  0  0
  152.2242  142.0946  160.3487 C   0  0  0  0  0  0  0  0  0  0  0  0
  152.5012  142.7580  161.5401 C   0  0  0  0  0  0  0  0  0  0  0  0
  152.2395  144.1436  161.5685 C   0  0  0  0  0  0  0  0  0  0  0  0
  151.7232  144.8161  160.4420 C   0  0  0  0  0  0  0  0  0  0  0  0
  151.4452  144.1323  159.2402 C   0  0  0  0  0  0  0  0  0  0  0  0
  151.7047  142.7615  159.2204 C   0  0  0  0  0  0  0  0  0  0  0  0
  151.5584  141.7789  158.2330 N   0  0  0  0  0  0  0  0  0  0  0  0
  151.0219  142.1506  156.9133 C   0  0  0  0  0  0  0  0  0  0  0  0
  150.2237  141.0118  156.2460 C   0  0  2  0  0  0  0  0  0  0  0  0
  151.0188  140.3473  155.2833 O   0  0  0  0  0  0  0  0  0  0  0  0
  148.9120  141.5168  155.6613 C   0  0  0  0  0  0  0  0  0  0  0  0
  148.6803  141.4066  154.2728 C   0  0  0  0  0  0  0  0  0  0  0  0
  147.4715  141.8638  153.7134 C   0  0  0  0  0  0  0  0  0  0  0  0
  147.2592  141.7550  152.3806 F   0  0  0  0  0  0  0  0  0  0  0  0
  146.4840  142.4330  154.5392 C   0  0  0  0  0  0  0  0  0  0  0  0
  146.7057  142.5429  155.9250 C   0  0  0  0  0  0  0  0  0  0  0  0
  147.9142  142.0865  156.4872 C   0  0  0  0  0  0  0  0  0  0  0  0
  148.1063  142.1961  157.8239 F   0  0  0  0  0  0  0  0  0  0  0  0
  149.8728  137.3534  158.2872 H   0  0  0  0  0  0  0  0  0  0  0  0
  150.4920  138.6685  160.1226 H   0  0  0  0  0  0  0  0  0  0  0  0
  151.3024  137.2246  160.7166 H   0  0  0  0  0  0  0  0  0  0  0  0
  153.0784  138.2416  159.5231 H   0  0  0  0  0  0  0  0  0  0  0  0
  152.4181  137.1856  158.3025 H   0  0  0  0  0  0  0  0  0  0  0  0
  152.7578  139.2907  157.2208 H   0  0  0  0  0  0  0  0  0  0  0  0
  151.0327  139.1445  157.4289 H   0  0  0  0  0  0  0  0  0  0  0  0
  152.8987  142.2451  162.4037 H   0  0  0  0  0  0  0  0  0  0  0  0
  152.4405  144.7022  162.4712 H   0  0  0  0  0  0  0  0  0  0  0  0
  151.5377  145.8788  160.4995 H   0  0  0  0  0  0  0  0  0  0  0  0
  151.0573  144.6604  158.3817 H   0  0  0  0  0  0  0  0  0  0  0  0
  150.3766  143.0171  157.0588 H   0  0  0  0  0  0  0  0  0  0  0  0
  151.8387  142.4939  156.2787 H   0  0  0  0  0  0  0  0  0  0  0  0
  149.9907  140.2670  157.0080 H   0  0  0  0  0  0  0  0  0  0  0  0
  150.8411  139.4205  155.3358 H   0  0  0  0  0  0  0  0  0  0  0  0
  149.4293  140.9701  153.6285 H   0  0  0  0  0  0  0  0  0  0  0  0
  145.5568  142.7840  154.1104 H   0  0  0  0  0  0  0  0  0  0  0  0
  145.9467  142.9775  156.5588 H   0  0  0  0  0  0  0  0  0  0  0  0
  152.7205  140.0121  160.5903 H   0  0  0  0  0  0  0  0  0  0  0  0
  1  2  1  0  0  0  0
  1 25  1  0  0  0  0
  2  3  1  0  0  0  0
  2 26  1  0  0  0  0
  2 27  1  0  0  0  0
  3  4  1  0  0  0  0
  3 28  1  0  0  0  0
  3 29  1  0  0  0  0
  4  5  1  0  0  0  0
  4 30  1  0  0  0  0
  4 31  1  0  0  0  0
  5 13  1  0  0  0  0
  5  6  2  0  0  0  0
  6  7  1  0  0  0  0
  6 43  1  0  0  0  0
  7 12  2  0  0  0  0
  7  8  1  0  0  0  0
  8  9  2  0  0  0  0
  8 32  1  0  0  0  0
  9 10  1  0  0  0  0
  9 33  1  0  0  0  0
 10 11  2  0  0  0  0
 10 34  1  0  0  0  0
 11 12  1  0  0  0  0
 11 35  1  0  0  0  0
 12 13  1  0  0  0  0
 13 14  1  0  0  0  0
 14 15  1  0  0  0  0
 14 36  1  0  0  0  0
 14 37  1  0  0  0  0
 15 16  1  0  0  0  0
 15 17  1  0  0  0  0
 15 38  1  0  0  0  0
 16 39  1  0  0  0  0
 17 23  1  0  0  0  0
 17 18  2  0  0  0  0
 18 19  1  0  0  0  0
 18 40  1  0  0  0  0
 19 20  1  0  0  0  0
 19 21  2  0  0  0  0
 21 22  1  0  0  0  0
 21 41  1  0  0  0  0
 22 23  2  0  0  0  0
 22 42  1  0  0  0  0
 23 24  1  0  0  0  0
M  CHG  1   6   1
M  END
> <s_m_source_file>
AV-unprocessed.smi

> <i_m_source_file_index>
1567

> <i_lp_mmshare_version>
43012

> <i_f3d_flags>
0

> <s_epik_input>
W09IXVtDSDJdW0NIMl1bQ0gyXWMobjEpbihjKGMxMilbY0hdW2NIXVtjSF1bY0hdMilbQ0gyXVtDQEhdKFtPSF0pYzNbY0hdYyhGKVtjSF1bY0hdYzNG

> <s_epik_cmdline>
J2VwaWtfcHl0aG9uJywgJy1waCcsICc3LjAnLCAnLXRuJywgJzgnLCAnLW1hJywgJzIwMCcsICctbWV0YWxfYmluZGluZycsICctaW1hZScsICc8aW5maWxlLm1hZT4nLCAnLW9tYWUnLCAnPG91dGZpbGUubWFlPic=

> <r_epik_Ionization_Penalty>
0.786443

> <r_epik_Ionization_Penalty_Charging>
0.786439

> <r_epik_Ionization_Penalty_Neutral>
3.69699e-06

> <r_epik_State_Penalty>
0.816472

> <r_epik_Charging_Adjusted_Penalty>
1.60291

> <i_epik_Tot_Q>
1

> <i_epik_Tot_abs_Q>
1

> <r_epik_Metal_State_Penalty>
4.73733

> <b_epik_Metal_Only>
0

> <s_lp_Force_Field>
OPLS_2005

> <r_lp_Energy>
17.4114

> <b_lp_Chiralities_Consistent>
1

> <s_lp_Variant>
AV-unprocessed.smi:1567-3

> <Gold.Version>
5.8.1

> <Gold.Id.Protein>
6NUR|6NUR_protein|mol2

> <Gold.PLP.Fitness>
52.3388

> <Gold.PLP.PLP>
-48.9400

> <Gold.PLP.part.hbond>
-2.0000

> <Gold.PLP.part.metal>
0.0000

> <Gold.PLP.part.buried>
-7.3915

> <Gold.PLP.part.nonpolar>
-38.6682

> <Gold.PLP.part.repulsive>
0.1218

> <Gold.PLP.ligand.clash>
0.0000

> <Gold.PLP.ligand.torsion>
1.3356

> <Gold.PLP.Chemscore.Hbond>
1.9920

> <Gold.PLP.Chemscore.CHOScore>
0.0000

> <Gold.PLP.Chemscore.Metal>
0.0000

> <Gold.Chemscore.Hbonds>
donor molecule, donor type, donor heavy atom, donor atom, acceptor molecule, acceptor atom, score
      P1  H  6896  6908       L1     1  0.33
      P1  H  7989  7998       L1    16  1.00

> <Gold.PLP.Chemscore.Internal.Correction>
0.0940

> <Gold.Rescore>
     Score         DG    S(hbond)    S(metal)    S(lipo)     H(rot)  DE(clash)    DE(int)     intcor
     15.72     -17.95       1.85        0.00     126.35       3.31       0.86       1.37       ----

> <Gold.Chemscore.Fitness>
15.7162

> <Gold.Chemscore.DG>
-17.9470

> <Gold.Chemscore.ZeroCoef>
-5.4800

> <Gold.Chemscore.Hbond>
1.8457

> <Gold.Chemscore.Metal>
0.0000

> <Gold.Chemscore.Lipo>
126.3480

> <Gold.Chemscore.Internal_Hbond>
0.0000

> <Gold.Chemscore.DEClash>
0.8568

> <Gold.Chemscore.DEInternal>
1.3740

> <Gold.Chemscore.Rot>
3.3127

> <Gold.Chemscore.Internal.Correction>
   9.000000E+99

> <Gold.Chemscore.Hbonds>
donor molecule, donor type, donor heavy atom, donor atom, acceptor molecule, acceptor atom, score
      P1  H  6896  6908       L1     1  0.03
      P1  H  7989  7998       L1    16  0.78

> <Gold.Chemscore.Hbond.Weighted>
-6.1648

> <Gold.Chemscore.Metal.Weighted>
-0.0000

> <Gold.Chemscore.Lipo.Weighted>
-14.7827

> <Gold.Chemscore.Internal_Hbond.Weighted>
0.0000

> <Gold.Chemscore.DEClash.Weighted>
0.8568

> <Gold.Chemscore.DEInternal.Weighted>
1.3740

> <Gold.Chemscore.Rot.Weighted>
8.4805

> <Gold.Chemscore.Internal.Correction.Weighted>
   9.000000E+99

> <Gold.Protein.RotatedTorsions>
[ 6907 6896 6895 6894 ] final -154.74 input  -60.11 | X-H torsion
[ 7974 7965 7964 7962 ] final   96.38 input  175.53 | X-H torsion
[ 8008 7997 7996 7995 ] final -133.91 input   59.86 | X-H torsion
[ 10167 10162 10161 10158 ] final -149.24 input  -65.29 | X-H torsion
[ 10718 10713 10712 10709 ] final    0.72 input   66.30 | X-H torsion
[ 10763 10752 10751 10750 ] final -116.01 input  -60.55 | X-H torsion
[ 11005 11000 10999 10996 ] final  177.44 input  -57.11 | X-H torsion

> <Gold.Protein.ActiveResidues>
 VAL166  LYS551  ARG553  GLY616  TRP617  ASP618  TYR619  PRO620  LYS621  CYS622 
 ASP623  PHE694  ASN695  SER759  ASP760  ASP761  ALA762  ILE779  LEU786  VAL792 
 PHE793  MET794  SER795  GLU796  ALA797  LYS798  CYS799  TRP800  GLU811  SER814 

> <Gold.Protein.RotatedAtoms>
  151.2620  133.4297  159.2616 H   0  0  0  0  0  0  0  0  0  0  0  0  # atno 6907 bound_to 6896
  151.0522  134.9680  159.8227 H   0  0  0  0  0  0  0  0  0  0  0  0  # atno 6908 bound_to 6896
  152.5384  134.2574  159.8975 H   0  0  0  0  0  0  0  0  0  0  0  0  # atno 6909 bound_to 6896
  145.4395  139.2302  143.3099 H   0  0  0  0  0  0  0  0  0  0  0  0  # atno 7974 bound_to 7965
  155.3533  140.0478  157.3046 H   0  0  0  0  0  0  0  0  0  0  0  0  # atno 8008 bound_to 7997
  154.5216  140.2227  155.8930 H   0  0  0  0  0  0  0  0  0  0  0  0  # atno 8009 bound_to 7997
  156.1695  140.3099  155.8955 H   0  0  0  0  0  0  0  0  0  0  0  0  # atno 8010 bound_to 7997
  139.7460  143.8589  152.2575 H   0  0  0  0  0  0  0  0  0  0  0  0  # atno 10167 bound_to 10162
  156.8376  130.5510  149.5680 H   0  0  0  0  0  0  0  0  0  0  0  0  # atno 10718 bound_to 10713
  154.8503  135.4361  154.1753 H   0  0  0  0  0  0  0  0  0  0  0  0  # atno 10763 bound_to 10752
  153.2857  135.6957  153.7348 H   0  0  0  0  0  0  0  0  0  0  0  0  # atno 10764 bound_to 10752
  153.6535  135.3447  155.3081 H   0  0  0  0  0  0  0  0  0  0  0  0  # atno 10765 bound_to 10752
  140.3841  134.6920  157.4468 H   0  0  0  0  0  0  0  0  0  0  0  0  # atno 11005 bound_to 11000
  146.2564  140.5142  142.8872 LP  0  0  0  0  0  0  0  0  0  0  0  0  # atno 17320 bound_to 7965
  144.8130  140.6419  143.6402 LP  0  0  0  0  0  0  0  0  0  0  0  0  # atno 17321 bound_to 7965
  139.8554  144.7144  150.9163 LP  0  0  0  0  0  0  0  0  0  0  0  0  # atno 17342 bound_to 10162
  140.7792  143.3863  151.1388 LP  0  0  0  0  0  0  0  0  0  0  0  0  # atno 17343 bound_to 10162
  156.0899  130.5887  150.9714 LP  0  0  0  0  0  0  0  0  0  0  0  0  # atno 17370 bound_to 10713
  157.6373  131.0914  150.8322 LP  0  0  0  0  0  0  0  0  0  0  0  0  # atno 17371 bound_to 10713
  140.0456  134.6204  155.8925 LP  0  0  0  0  0  0  0  0  0  0  0  0  # atno 17394 bound_to 11000
  141.1913  133.6571  156.5452 LP  0  0  0  0  0  0  0  0  0  0  0  0  # atno 17395 bound_to 11000

$$$$
