AV-unprocessed.smi:3194|AV-procd|sdf|12210|dock8
  -GOLD-   2272018 43D 1   1.00000     0.00000
 Structure written by MMmdl.
 28 28  0  0  0  0  0  0  0  0  1 V2000
  147.9392  141.6439  154.4020 C   0  0  0  0  0  0  0  0  0  0  0  0
  149.0212  140.5526  154.4796 C   0  0  2  0  0  0  0  0  0  0  0  0
  148.5100  139.1460  154.1160 C   0  0  0  0  0  0  0  0  0  0  0  0
  147.9679  139.1082  152.8113 O   0  0  0  0  0  0  0  0  0  0  0  0
  149.6570  140.5247  155.7939 N   0  0  0  0  0  0  0  0  0  0  0  0
  150.9344  140.1908  156.0437 C   0  0  0  0  0  0  0  0  0  0  0  0
  151.7296  139.8680  155.1602 O   0  0  0  0  0  0  0  0  0  0  0  0
  151.3804  140.2148  157.5135 C   0  0  0  0  0  0  0  0  0  0  0  0
  150.4250  139.6576  158.2614 F   0  0  0  0  0  0  0  0  0  0  0  0
  152.4863  139.4784  157.6513 F   0  0  0  0  0  0  0  0  0  0  0  0
  151.6410  141.6496  157.9648 C   0  0  0  0  0  0  0  0  0  0  0  0
  152.2300  141.9219  159.2207 C   0  0  0  0  0  0  0  0  0  0  0  0
  152.4359  143.2640  159.5939 C   0  0  0  0  0  0  0  0  0  0  0  0
  152.0462  144.2832  158.7046 C   0  0  0  0  0  0  0  0  0  0  0  0
  151.4635  143.9132  157.4768 C   0  0  0  0  0  0  0  0  0  0  0  0
  151.2611  142.6299  157.1099 N   0  0  0  0  0  0  0  0  0  0  0  0
  149.7893  140.7978  153.7439 H   0  0  0  0  0  0  0  0  0  0  0  0
  147.4636  141.6524  153.4209 H   0  0  0  0  0  0  0  0  0  0  0  0
  148.3659  142.6335  154.5677 H   0  0  0  0  0  0  0  0  0  0  0  0
  147.1596  141.4927  155.1494 H   0  0  0  0  0  0  0  0  0  0  0  0
  149.3322  138.4311  154.1597 H   0  0  0  0  0  0  0  0  0  0  0  0
  147.7591  138.8076  154.8313 H   0  0  0  0  0  0  0  0  0  0  0  0
  148.6133  139.4432  152.2076 H   0  0  0  0  0  0  0  0  0  0  0  0
  149.0741  140.7724  156.5809 H   0  0  0  0  0  0  0  0  0  0  0  0
  152.5148  141.1230  159.8892 H   0  0  0  0  0  0  0  0  0  0  0  0
  152.8832  143.5072  160.5463 H   0  0  0  0  0  0  0  0  0  0  0  0
  152.1888  145.3233  158.9578 H   0  0  0  0  0  0  0  0  0  0  0  0
  151.1506  144.6682  156.7708 H   0  0  0  0  0  0  0  0  0  0  0  0
  1  2  1  0  0  0  0
  1 18  1  0  0  0  0
  1 19  1  0  0  0  0
  1 20  1  0  0  0  0
  2 17  1  0  0  0  0
  2  3  1  0  0  0  0
  2  5  1  0  0  0  0
  3  4  1  0  0  0  0
  3 21  1  0  0  0  0
  3 22  1  0  0  0  0
  4 23  1  0  0  0  0
  5  6  1  0  0  0  0
  5 24  1  0  0  0  0
  6  7  2  0  0  0  0
  6  8  1  0  0  0  0
  8  9  1  0  0  0  0
  8 10  1  0  0  0  0
  8 11  1  0  0  0  0
 11 16  1  0  0  0  0
 11 12  2  0  0  0  0
 12 13  1  0  0  0  0
 12 25  1  0  0  0  0
 13 14  2  0  0  0  0
 13 26  1  0  0  0  0
 14 15  1  0  0  0  0
 14 27  1  0  0  0  0
 15 16  2  0  0  0  0
 15 28  1  0  0  0  0
M  END
> <s_m_source_file>
AV-unprocessed.smi

> <i_m_source_file_index>
3194

> <i_lp_mmshare_version>
43012

> <i_f3d_flags>
0

> <s_epik_input>
W09IXVtDSDJdW0NASF0oW0NIM10pW05IXUMoPU8pQyhGKShGKWMxW2NIXVtjSF1bY0hdW2NIXW4x

> <s_epik_cmdline>
J2VwaWtfcHl0aG9uJywgJy1waCcsICc3LjAnLCAnLXRuJywgJzgnLCAnLW1hJywgJzIwMCcsICctbWV0YWxfYmluZGluZycsICctaW1hZScsICc8aW5maWxlLm1hZT4nLCAnLW9tYWUnLCAnPG91dGZpbGUubWFlPic=

> <r_lp_tautomer_probability>
1

> <r_epik_Ionization_Penalty>
3.67967e-05

> <r_epik_Ionization_Penalty_Charging>
0

> <r_epik_Ionization_Penalty_Neutral>
3.67967e-05

> <r_epik_State_Penalty>
-0

> <r_epik_Charging_Adjusted_Penalty>
0

> <i_epik_Tot_Q>
0

> <i_epik_Tot_abs_Q>
0

> <r_epik_Metal_State_Penalty>
0.0311521

> <b_epik_Metal_Only>
0

> <s_lp_Force_Field>
OPLS_2005

> <r_lp_Energy>
12.3204

> <b_lp_Chiralities_Consistent>
1

> <s_lp_Variant>
AV-unprocessed.smi:3194-2

> <Gold.Version>
5.8.1

> <Gold.Id.Protein>
6NUR|6NUR_protein|mol2

> <Gold.PLP.Fitness>
40.0612

> <Gold.PLP.PLP>
-33.9917

> <Gold.PLP.part.hbond>
-2.3680

> <Gold.PLP.part.metal>
0.0000

> <Gold.PLP.part.buried>
-3.3079

> <Gold.PLP.part.nonpolar>
-28.7855

> <Gold.PLP.part.repulsive>
0.1898

> <Gold.PLP.ligand.clash>
0.0000

> <Gold.PLP.ligand.torsion>
1.3315

> <Gold.PLP.Chemscore.Hbond>
2.0000

> <Gold.PLP.Chemscore.CHOScore>
0.8956

> <Gold.PLP.Chemscore.Metal>
0.0000

> <Gold.Chemscore.Hbonds>
donor molecule, donor type, donor heavy atom, donor atom, acceptor molecule, acceptor atom, score
      L1  H     4    23       P1  7957  1.00
      P1  H  7989  7998       L1     7  1.00
      L1  C    15    28       P1  8028  0.91

> <Gold.PLP.Chemscore.Internal.Correction>
0.0456

> <Gold.Rescore>
     Score         DG    S(hbond)    S(metal)    S(lipo)     H(rot)  DE(clash)    DE(int)     intcor
     12.43     -14.83       1.96        0.00      78.56       2.50       0.00       2.40       ----

> <Gold.Chemscore.Fitness>
12.4313

> <Gold.Chemscore.DG>
-14.8332

> <Gold.Chemscore.ZeroCoef>
-5.4800

> <Gold.Chemscore.Hbond>
1.9623

> <Gold.Chemscore.Metal>
0.0000

> <Gold.Chemscore.Lipo>
78.5578

> <Gold.Chemscore.Internal_Hbond>
0.0000

> <Gold.Chemscore.DEClash>
0.0038

> <Gold.Chemscore.DEInternal>
2.3982

> <Gold.Chemscore.Rot>
2.4970

> <Gold.Chemscore.Internal.Correction>
   9.000000E+99

> <Gold.Chemscore.Hbonds>
donor molecule, donor type, donor heavy atom, donor atom, acceptor molecule, acceptor atom, score
      L1  H     4    23       P1  7957  0.95
      P1  H  7989  7998       L1     7  0.89

> <Gold.Chemscore.Hbond.Weighted>
-6.5542

> <Gold.Chemscore.Metal.Weighted>
-0.0000

> <Gold.Chemscore.Lipo.Weighted>
-9.1913

> <Gold.Chemscore.Internal_Hbond.Weighted>
0.0000

> <Gold.Chemscore.DEClash.Weighted>
0.0038

> <Gold.Chemscore.DEInternal.Weighted>
2.3982

> <Gold.Chemscore.Rot.Weighted>
6.3922

> <Gold.Chemscore.Internal.Correction.Weighted>
   9.000000E+99

> <Gold.Protein.RotatedTorsions>
[ 6907 6896 6895 6894 ] final  -84.32 input  -60.11 | X-H torsion
[ 7974 7965 7964 7962 ] final  -56.30 input  175.53 | X-H torsion
[ 8008 7997 7996 7995 ] final  -19.06 input   59.86 | X-H torsion
[ 10167 10162 10161 10158 ] final  -39.22 input  -65.29 | X-H torsion
[ 10718 10713 10712 10709 ] final  -36.82 input   66.30 | X-H torsion
[ 10763 10752 10751 10750 ] final  -27.18 input  -60.55 | X-H torsion
[ 11005 11000 10999 10996 ] final -173.17 input  -57.11 | X-H torsion

> <Gold.Protein.ActiveResidues>
 VAL166  LYS551  ARG553  GLY616  TRP617  ASP618  TYR619  PRO620  LYS621  CYS622 
 ASP623  PHE694  ASN695  SER759  ASP760  ASP761  ALA762  ILE779  LEU786  VAL792 
 PHE793  MET794  SER795  GLU796  ALA797  LYS798  CYS799  TRP800  GLU811  SER814 

> <Gold.Protein.RotatedAtoms>
  150.6877  134.3376  159.4853 H   0  0  0  0  0  0  0  0  0  0  0  0  # atno 6907 bound_to 6896
  152.1233  134.9187  160.0571 H   0  0  0  0  0  0  0  0  0  0  0  0  # atno 6908 bound_to 6896
  152.0384  133.3932  159.4363 H   0  0  0  0  0  0  0  0  0  0  0  0  # atno 6909 bound_to 6896
  145.8643  140.8263  142.9921 H   0  0  0  0  0  0  0  0  0  0  0  0  # atno 7974 bound_to 7965
  154.4863  140.2099  155.9649 H   0  0  0  0  0  0  0  0  0  0  0  0  # atno 8008 bound_to 7997
  156.1240  140.3208  155.8219 H   0  0  0  0  0  0  0  0  0  0  0  0  # atno 8009 bound_to 7997
  155.4416  140.0510  157.3000 H   0  0  0  0  0  0  0  0  0  0  0  0  # atno 8010 bound_to 7997
  140.7070  143.3228  151.2751 H   0  0  0  0  0  0  0  0  0  0  0  0  # atno 10167 bound_to 10162
  156.3224  130.4267  149.7947 H   0  0  0  0  0  0  0  0  0  0  0  0  # atno 10718 bound_to 10713
  153.7279  135.6940  153.4996 H   0  0  0  0  0  0  0  0  0  0  0  0  # atno 10763 bound_to 10752
  153.2157  135.4387  155.0430 H   0  0  0  0  0  0  0  0  0  0  0  0  # atno 10764 bound_to 10752
  154.8263  135.3448  154.6810 H   0  0  0  0  0  0  0  0  0  0  0  0  # atno 10765 bound_to 10752
  140.4888  134.6005  157.4947 H   0  0  0  0  0  0  0  0  0  0  0  0  # atno 11005 bound_to 11000
  144.6726  140.1142  143.7453 LP  0  0  0  0  0  0  0  0  0  0  0  0  # atno 17320 bound_to 7965
  145.9212  139.2547  143.1380 LP  0  0  0  0  0  0  0  0  0  0  0  0  # atno 17321 bound_to 7965
  139.6687  144.0058  152.2739 LP  0  0  0  0  0  0  0  0  0  0  0  0  # atno 17342 bound_to 10162
  139.9650  144.6532  150.8043 LP  0  0  0  0  0  0  0  0  0  0  0  0  # atno 17343 bound_to 10162
  156.5250  130.8232  151.3217 LP  0  0  0  0  0  0  0  0  0  0  0  0  # atno 17370 bound_to 10713
  157.7414  130.9870  150.2446 LP  0  0  0  0  0  0  0  0  0  0  0  0  # atno 17371 bound_to 10713
  139.9782  134.7181  155.9910 LP  0  0  0  0  0  0  0  0  0  0  0  0  # atno 17394 bound_to 11000
  141.1495  133.6550  156.3968 LP  0  0  0  0  0  0  0  0  0  0  0  0  # atno 17395 bound_to 11000

$$$$
