AV-unprocessed.smi:934|AV-procd|sdf|4206|dock2
  -GOLD-   22720 2113D 1   1.00000     0.00000
 Structure written by MMmdl.
 42 43  0  0  0  0  0  0  0  0  1 V2000
  144.8013  138.6697  155.0437 C   0  0  0  0  0  0  0  0  0  0  0  0
  146.1940  138.2347  155.1671 N   0  0  0  0  0  0  0  0  0  0  0  0
  146.4831  138.1098  156.5967 C   0  0  0  0  0  0  0  0  0  0  0  0
  147.1715  139.0079  154.3480 C   0  0  0  0  0  0  0  0  0  0  0  0
  146.7712  138.8503  152.8445 C   0  0  0  0  0  0  0  0  0  0  0  0
  146.7962  137.4596  152.3911 N   0  0  0  0  0  0  0  0  0  0  0  0
  145.7257  136.6935  152.1387 C   0  0  0  0  0  0  0  0  0  0  0  0
  144.5656  137.0761  152.2861 O   0  0  0  0  0  0  0  0  0  0  0  0
  146.0997  135.4742  151.7144 N   0  0  0  0  0  0  0  0  0  0  0  0
  145.2956  134.3607  151.3455 C   0  0  0  0  0  0  0  0  0  0  0  0
  145.7241  133.2877  150.5255 C   0  0  0  0  0  0  0  0  0  0  0  0
  144.8221  132.2422  150.2477 C   0  0  0  0  0  0  0  0  0  0  0  0
  143.5292  132.3028  150.8023 C   0  0  0  0  0  0  0  0  0  0  0  0
  143.1101  133.3132  151.5921 N   0  0  0  0  0  0  0  0  0  0  0  0
  143.9799  134.3119  151.8535 C   0  0  0  0  0  0  0  0  0  0  0  0
  147.1806  140.5116  154.7430 C   0  0  0  0  0  0  0  0  0  0  0  0
  148.3355  141.2912  154.0839 C   0  0  0  0  0  0  0  0  0  0  0  0
  149.5851  140.6845  154.3862 O   0  0  0  0  0  0  0  0  0  0  0  0
  149.6884  139.3534  153.8968 C   0  0  0  0  0  0  0  0  0  0  0  0
  148.6197  138.4745  154.5709 C   0  0  0  0  0  0  0  0  0  0  0  0
  144.4519  138.6681  154.0133 H   0  0  0  0  0  0  0  0  0  0  0  0
  144.6519  139.6667  155.4585 H   0  0  0  0  0  0  0  0  0  0  0  0
  144.1436  137.9892  155.5858 H   0  0  0  0  0  0  0  0  0  0  0  0
  147.3980  137.5481  156.7784 H   0  0  0  0  0  0  0  0  0  0  0  0
  145.6926  137.5512  157.0992 H   0  0  0  0  0  0  0  0  0  0  0  0
  146.5607  139.0794  157.0872 H   0  0  0  0  0  0  0  0  0  0  0  0
  145.7713  139.2401  152.6602 H   0  0  0  0  0  0  0  0  0  0  0  0
  147.4025  139.4610  152.2012 H   0  0  0  0  0  0  0  0  0  0  0  0
  147.7095  137.0593  152.2337 H   0  0  0  0  0  0  0  0  0  0  0  0
  147.0953  135.3086  151.6857 H   0  0  0  0  0  0  0  0  0  0  0  0
  146.7180  133.2332  150.1117 H   0  0  0  0  0  0  0  0  0  0  0  0
  145.1164  131.4105  149.6250 H   0  0  0  0  0  0  0  0  0  0  0  0
  142.8140  131.5170  150.6090 H   0  0  0  0  0  0  0  0  0  0  0  0
  143.6098  135.1022  152.4905 H   0  0  0  0  0  0  0  0  0  0  0  0
  146.2385  140.9912  154.4762 H   0  0  0  0  0  0  0  0  0  0  0  0
  147.2832  140.6218  155.8221 H   0  0  0  0  0  0  0  0  0  0  0  0
  148.2055  141.3623  153.0037 H   0  0  0  0  0  0  0  0  0  0  0  0
  148.3498  142.3143  154.4597 H   0  0  0  0  0  0  0  0  0  0  0  0
  149.6117  139.3371  152.8098 H   0  0  0  0  0  0  0  0  0  0  0  0
  150.6815  138.9749  154.1390 H   0  0  0  0  0  0  0  0  0  0  0  0
  148.8815  138.4792  155.6276 H   0  0  0  0  0  0  0  0  0  0  0  0
  148.7165  137.4405  154.2396 H   0  0  0  0  0  0  0  0  0  0  0  0
  1  2  1  0  0  0  0
  1 21  1  0  0  0  0
  1 22  1  0  0  0  0
  1 23  1  0  0  0  0
  2  3  1  0  0  0  0
  2  4  1  0  0  0  0
  3 24  1  0  0  0  0
  3 25  1  0  0  0  0
  3 26  1  0  0  0  0
  4 20  1  0  0  0  0
  4  5  1  0  0  0  0
  4 16  1  0  0  0  0
  5  6  1  0  0  0  0
  5 27  1  0  0  0  0
  5 28  1  0  0  0  0
  6  7  1  0  0  0  0
  6 29  1  0  0  0  0
  7  8  2  0  0  0  0
  7  9  1  0  0  0  0
  9 10  1  0  0  0  0
  9 30  1  0  0  0  0
 10 15  1  0  0  0  0
 10 11  2  0  0  0  0
 11 12  1  0  0  0  0
 11 31  1  0  0  0  0
 12 13  2  0  0  0  0
 12 32  1  0  0  0  0
 13 14  1  0  0  0  0
 13 33  1  0  0  0  0
 14 15  2  0  0  0  0
 15 34  1  0  0  0  0
 16 17  1  0  0  0  0
 16 35  1  0  0  0  0
 16 36  1  0  0  0  0
 17 18  1  0  0  0  0
 17 37  1  0  0  0  0
 17 38  1  0  0  0  0
 18 19  1  0  0  0  0
 19 20  1  0  0  0  0
 19 39  1  0  0  0  0
 19 40  1  0  0  0  0
 20 41  1  0  0  0  0
 20 42  1  0  0  0  0
M  END
> <s_m_source_file>
AV-unprocessed.smi

> <i_m_source_file_index>
934

> <i_lp_mmshare_version>
43012

> <i_f3d_flags>
0

> <s_epik_input>
W0NIMl0xW0NIMl1PW0NIMl1bQ0gyXUMxKE4oW0NIM10pW0NIM10pW0NIMl1bTkhdQyg9TylbTkhdYzJbY0hdW2NIXVtjSF1uW2NIXTI=

> <s_epik_cmdline>
J2VwaWtfcHl0aG9uJywgJy1waCcsICc3LjAnLCAnLXRuJywgJzgnLCAnLW1hJywgJzIwMCcsICctbWV0YWxfYmluZGluZycsICctaW1hZScsICc8aW5maWxlLm1hZT4nLCAnLW9tYWUnLCAnPG91dGZpbGUubWFlPic=

> <r_epik_Ionization_Penalty>
2.28202

> <r_epik_Ionization_Penalty_Charging>
0

> <r_epik_Ionization_Penalty_Neutral>
2.28202

> <r_epik_State_Penalty>
2.42606

> <r_epik_Charging_Adjusted_Penalty>
2.42606

> <i_epik_Tot_Q>
0

> <i_epik_Tot_abs_Q>
0

> <r_epik_Metal_State_Penalty>
2.42536

> <b_epik_Metal_Only>
0

> <s_lp_Force_Field>
OPLS_2005

> <r_lp_Energy>
30.2098

> <b_lp_Chiralities_Consistent>
1

> <s_lp_Variant>
AV-unprocessed.smi:934-2

> <Gold.Version>
5.8.1

> <Gold.Id.Protein>
6NUR|6NUR_protein|mol2

> <Gold.PLP.Fitness>
36.2831

> <Gold.PLP.PLP>
-27.8675

> <Gold.PLP.part.hbond>
-2.9681

> <Gold.PLP.part.metal>
0.0000

> <Gold.PLP.part.buried>
-4.6935

> <Gold.PLP.part.nonpolar>
-23.0771

> <Gold.PLP.part.repulsive>
1.7389

> <Gold.PLP.ligand.clash>
0.0000

> <Gold.PLP.ligand.torsion>
0.2219

> <Gold.PLP.Chemscore.Hbond>
1.9318

> <Gold.PLP.Chemscore.CHOScore>
0.9992

> <Gold.PLP.Chemscore.Metal>
0.0000

> <Gold.Chemscore.Hbonds>
donor molecule, donor type, donor heavy atom, donor atom, acceptor molecule, acceptor atom, score
      L1  H     6    29       P1  7948  0.99
      L1  H     9    30       P1  7948  0.87
      P1  H  7989  7998       L1    18  0.05
      L1  C    13    33       P1 10952  1.00

> <Gold.PLP.Chemscore.Internal.Correction>
0.0663

> <Gold.Rescore>
     Score         DG    S(hbond)    S(metal)    S(lipo)     H(rot)  DE(clash)    DE(int)     intcor
     14.28     -16.05       1.94        0.00      66.55       1.44       0.18       1.60       ----

> <Gold.Chemscore.Fitness>
14.2778

> <Gold.Chemscore.DG>
-16.0523

> <Gold.Chemscore.ZeroCoef>
-5.4800

> <Gold.Chemscore.Hbond>
1.9387

> <Gold.Chemscore.Metal>
0.0000

> <Gold.Chemscore.Lipo>
66.5501

> <Gold.Chemscore.Internal_Hbond>
0.0000

> <Gold.Chemscore.DEClash>
0.1774

> <Gold.Chemscore.DEInternal>
1.5971

> <Gold.Chemscore.Rot>
1.4411

> <Gold.Chemscore.Internal.Correction>
   9.000000E+99

> <Gold.Chemscore.Hbonds>
donor molecule, donor type, donor heavy atom, donor atom, acceptor molecule, acceptor atom, score
      L1  H     6    29       P1  7948  0.92
      L1  H     9    30       P1  7948  0.79

> <Gold.Chemscore.Hbond.Weighted>
-6.4752

> <Gold.Chemscore.Metal.Weighted>
-0.0000

> <Gold.Chemscore.Lipo.Weighted>
-7.7864

> <Gold.Chemscore.Internal_Hbond.Weighted>
0.0000

> <Gold.Chemscore.DEClash.Weighted>
0.1774

> <Gold.Chemscore.DEInternal.Weighted>
1.5971

> <Gold.Chemscore.Rot.Weighted>
3.6892

> <Gold.Chemscore.Internal.Correction.Weighted>
   9.000000E+99

> <Gold.Protein.RotatedTorsions>
[ 6907 6896 6895 6894 ] final  160.32 input  -60.11 | X-H torsion
[ 7974 7965 7964 7962 ] final  172.02 input  175.53 | X-H torsion
[ 8008 7997 7996 7995 ] final -154.92 input   59.86 | X-H torsion
[ 10167 10162 10161 10158 ] final  -70.07 input  -65.29 | X-H torsion
[ 10718 10713 10712 10709 ] final -110.42 input   66.30 | X-H torsion
[ 10763 10752 10751 10750 ] final  -64.64 input  -60.55 | X-H torsion
[ 11005 11000 10999 10996 ] final   81.26 input  -57.11 | X-H torsion

> <Gold.Protein.ActiveResidues>
 VAL166  LYS551  ARG553  GLY616  TRP617  ASP618  TYR619  PRO620  LYS621  CYS622 
 ASP623  PHE694  ASN695  SER759  ASP760  ASP761  ALA762  ILE779  LEU786  VAL792 
 PHE793  MET794  SER795  GLU796  ALA797  LYS798  CYS799  TRP800  GLU811  SER814 

> <Gold.Protein.RotatedAtoms>
  151.9724  133.3730  159.4075 H   0  0  0  0  0  0  0  0  0  0  0  0  # atno 6907 bound_to 6896
  150.6947  134.4126  159.5178 H   0  0  0  0  0  0  0  0  0  0  0  0  # atno 6908 bound_to 6896
  152.1832  134.8736  160.0575 H   0  0  0  0  0  0  0  0  0  0  0  0  # atno 6909 bound_to 6896
  144.7279  139.9437  143.6429 H   0  0  0  0  0  0  0  0  0  0  0  0  # atno 7974 bound_to 7965
  155.6938  140.0758  157.2438 H   0  0  0  0  0  0  0  0  0  0  0  0  # atno 8008 bound_to 7997
  154.4084  140.1660  156.2168 H   0  0  0  0  0  0  0  0  0  0  0  0  # atno 8009 bound_to 7997
  155.9429  140.3383  155.6345 H   0  0  0  0  0  0  0  0  0  0  0  0  # atno 8010 bound_to 7997
  140.5382  143.2316  151.7139 H   0  0  0  0  0  0  0  0  0  0  0  0  # atno 10167 bound_to 10162
  156.0590  130.5814  150.8235 H   0  0  0  0  0  0  0  0  0  0  0  0  # atno 10718 bound_to 10713
  154.3330  135.6172  153.5560 H   0  0  0  0  0  0  0  0  0  0  0  0  # atno 10763 bound_to 10752
  152.9810  135.5751  154.4939 H   0  0  0  0  0  0  0  0  0  0  0  0  # atno 10764 bound_to 10752
  154.4629  135.2856  155.1676 H   0  0  0  0  0  0  0  0  0  0  0  0  # atno 10765 bound_to 10752
  139.9104  134.7983  156.2018 H   0  0  0  0  0  0  0  0  0  0  0  0  # atno 11005 bound_to 11000
  146.0765  139.3753  143.0491 LP  0  0  0  0  0  0  0  0  0  0  0  0  # atno 17320 bound_to 7965
  145.7898  140.9819  143.1055 LP  0  0  0  0  0  0  0  0  0  0  0  0  # atno 17321 bound_to 7965
  139.4978  144.4010  152.0181 LP  0  0  0  0  0  0  0  0  0  0  0  0  # atno 17342 bound_to 10162
  140.3117  144.3530  150.6032 LP  0  0  0  0  0  0  0  0  0  0  0  0  # atno 17343 bound_to 10162
  157.5583  131.0945  150.9596 LP  0  0  0  0  0  0  0  0  0  0  0  0  # atno 17370 bound_to 10713
  156.9839  130.5537  149.5298 LP  0  0  0  0  0  0  0  0  0  0  0  0  # atno 17371 bound_to 10713
  141.0520  133.6884  156.1789 LP  0  0  0  0  0  0  0  0  0  0  0  0  # atno 17394 bound_to 11000
  140.6796  134.4782  157.5589 LP  0  0  0  0  0  0  0  0  0  0  0  0  # atno 17395 bound_to 11000

$$$$
