AV-unprocessed.smi:2746|AV-procd|sdf|10571|dock1
  -GOLD-   2272015 23D 1   1.00000     0.00000
 Structure written by MMmdl.
 38 39  0  0  0  0  0  0  0  0  1 V2000
  153.3598  142.0265  161.8637 C   0  0  0  0  0  0  0  0  0  0  0  0
  152.7670  141.8079  160.6772 C   0  0  0  0  0  0  0  0  0  0  0  0
  152.8381  142.6991  159.4440 C   0  0  2  0  0  0  0  0  0  0  0  0
  152.3507  144.1187  159.7627 C   0  0  0  0  0  0  0  0  0  0  0  0
  152.0697  142.1598  158.3221 N   0  0  0  0  0  0  0  0  0  0  0  0
  152.2161  140.9443  157.7661 C   0  0  0  0  0  0  0  0  0  0  0  0
  153.0643  140.1286  158.1300 O   0  0  0  0  0  0  0  0  0  0  0  0
  151.2861  140.6339  156.6230 C   0  0  0  0  0  0  0  0  0  0  0  0
  150.0837  141.3644  156.4745 C   0  0  0  0  0  0  0  0  0  0  0  0
  149.2330  141.0778  155.3882 C   0  0  0  0  0  0  0  0  0  0  0  0
  148.0408  141.7994  155.2374 N   0  0  0  0  0  0  0  0  0  0  0  0
  147.1451  141.6764  156.3801 C   0  0  0  0  0  0  0  0  0  0  0  0
  145.9247  142.5951  156.1929 C   0  0  0  0  0  0  0  0  0  0  0  0
  145.2791  142.2874  154.9603 O   0  0  0  0  0  0  0  0  0  0  0  0
  146.1410  142.4813  153.8419 C   0  0  0  0  0  0  0  0  0  0  0  0
  147.3643  141.5567  153.9693 C   0  0  0  0  0  0  0  0  0  0  0  0
  149.6166  140.0635  154.4843 C   0  0  0  0  0  0  0  0  0  0  0  0
  150.8318  139.3903  154.7092 C   0  0  0  0  0  0  0  0  0  0  0  0
  151.6501  139.6652  155.7464 N   0  0  0  0  0  0  0  0  0  0  0  0
  153.9685  142.8986  162.0516 H   0  0  0  0  0  0  0  0  0  0  0  0
  153.2395  141.3228  162.6741 H   0  0  0  0  0  0  0  0  0  0  0  0
  152.1715  140.9137  160.5642 H   0  0  0  0  0  0  0  0  0  0  0  0
  153.8940  142.7638  159.1776 H   0  0  0  0  0  0  0  0  0  0  0  0
  152.9339  144.5623  160.5704 H   0  0  0  0  0  0  0  0  0  0  0  0
  151.3039  144.1198  160.0691 H   0  0  0  0  0  0  0  0  0  0  0  0
  152.4446  144.7713  158.8940 H   0  0  0  0  0  0  0  0  0  0  0  0
  151.3488  142.7550  157.9397 H   0  0  0  0  0  0  0  0  0  0  0  0
  149.8130  142.1366  157.1805 H   0  0  0  0  0  0  0  0  0  0  0  0
  146.8163  140.6412  156.4813 H   0  0  0  0  0  0  0  0  0  0  0  0
  147.6749  141.9388  157.2968 H   0  0  0  0  0  0  0  0  0  0  0  0
  145.2176  142.4528  157.0102 H   0  0  0  0  0  0  0  0  0  0  0  0
  146.2220  143.6450  156.2071 H   0  0  0  0  0  0  0  0  0  0  0  0
  145.5929  142.2572  152.9267 H   0  0  0  0  0  0  0  0  0  0  0  0
  146.4475  143.5270  153.7827 H   0  0  0  0  0  0  0  0  0  0  0  0
  148.0539  141.7300  153.1422 H   0  0  0  0  0  0  0  0  0  0  0  0
  147.0444  140.5154  153.9118 H   0  0  0  0  0  0  0  0  0  0  0  0
  148.9985  139.8030  153.6377 H   0  0  0  0  0  0  0  0  0  0  0  0
  151.1565  138.6100  154.0370 H   0  0  0  0  0  0  0  0  0  0  0  0
  1  2  2  0  0  0  0
  1 20  1  0  0  0  0
  1 21  1  0  0  0  0
  2  3  1  0  0  0  0
  2 22  1  0  0  0  0
  3  4  1  0  0  0  0
  3  5  1  0  0  0  0
  3 23  1  0  0  0  0
  4 24  1  0  0  0  0
  4 25  1  0  0  0  0
  4 26  1  0  0  0  0
  5  6  1  0  0  0  0
  5 27  1  0  0  0  0
  6  7  2  0  0  0  0
  6  8  1  0  0  0  0
  8 19  1  0  0  0  0
  8  9  2  0  0  0  0
  9 10  1  0  0  0  0
  9 28  1  0  0  0  0
 10 11  1  0  0  0  0
 10 17  2  0  0  0  0
 11 16  1  0  0  0  0
 11 12  1  0  0  0  0
 12 13  1  0  0  0  0
 12 29  1  0  0  0  0
 12 30  1  0  0  0  0
 13 14  1  0  0  0  0
 13 31  1  0  0  0  0
 13 32  1  0  0  0  0
 14 15  1  0  0  0  0
 15 16  1  0  0  0  0
 15 33  1  0  0  0  0
 15 34  1  0  0  0  0
 16 35  1  0  0  0  0
 16 36  1  0  0  0  0
 17 18  1  0  0  0  0
 17 37  1  0  0  0  0
 18 19  2  0  0  0  0
 18 38  1  0  0  0  0
M  END
> <s_m_source_file>
AV-unprocessed.smi

> <i_m_source_file_index>
2746

> <i_lp_mmshare_version>
43012

> <i_f3d_flags>
0

> <s_epik_input>
W0NIMl09W0NIXVtDQEhdKFtDSDNdKVtOSF1DKD1PKWMxW2NIXWMoW2NIXVtjSF1uMSlOMltDSDJdW0NIMl1PW0NIMl1bQ0gyXTI=

> <s_epik_cmdline>
J2VwaWtfcHl0aG9uJywgJy1waCcsICc3LjAnLCAnLXRuJywgJzgnLCAnLW1hJywgJzIwMCcsICctbWV0YWxfYmluZGluZycsICctaW1hZScsICc8aW5maWxlLm1hZT4nLCAnLW9tYWUnLCAnPG91dGZpbGUubWFlPic=

> <r_lp_tautomer_probability>
1

> <r_epik_Ionization_Penalty>
0.373275

> <r_epik_Ionization_Penalty_Charging>
0

> <r_epik_Ionization_Penalty_Neutral>
0.373275

> <r_epik_State_Penalty>
0.370855

> <r_epik_Charging_Adjusted_Penalty>
0.370855

> <i_epik_Tot_Q>
0

> <i_epik_Tot_abs_Q>
0

> <r_epik_Metal_State_Penalty>
0.225885

> <b_epik_Metal_Only>
0

> <s_lp_Force_Field>
OPLS_2005

> <r_lp_Energy>
24.2376

> <b_lp_Chiralities_Consistent>
1

> <s_lp_Variant>
AV-unprocessed.smi:2746-1

> <Gold.Version>
5.8.1

> <Gold.Id.Protein>
6NUR|6NUR_protein|mol2

> <Gold.PLP.Fitness>
42.0805

> <Gold.PLP.PLP>
-39.5047

> <Gold.PLP.part.hbond>
-1.0000

> <Gold.PLP.part.metal>
0.0000

> <Gold.PLP.part.buried>
-4.8564

> <Gold.PLP.part.nonpolar>
-33.8909

> <Gold.PLP.part.repulsive>
1.3736

> <Gold.PLP.ligand.clash>
0.0000

> <Gold.PLP.ligand.torsion>
0.2805

> <Gold.PLP.Chemscore.Hbond>
1.0000

> <Gold.PLP.Chemscore.CHOScore>
0.0000

> <Gold.PLP.Chemscore.Metal>
0.0000

> <Gold.Chemscore.Hbonds>
donor molecule, donor type, donor heavy atom, donor atom, acceptor molecule, acceptor atom, score
      P1  H  7997  8008       L1     7  0.99

> <Gold.PLP.Chemscore.Internal.Correction>
0.1367

> <Gold.Rescore>
     Score         DG    S(hbond)    S(metal)    S(lipo)     H(rot)  DE(clash)    DE(int)     intcor
     16.65     -16.95       0.93        0.00      99.39       1.27       0.07       0.22       ----

> <Gold.Chemscore.Fitness>
16.6545

> <Gold.Chemscore.DG>
-16.9503

> <Gold.Chemscore.ZeroCoef>
-5.4800

> <Gold.Chemscore.Hbond>
0.9293

> <Gold.Chemscore.Metal>
0.0000

> <Gold.Chemscore.Lipo>
99.3882

> <Gold.Chemscore.Internal_Hbond>
0.0000

> <Gold.Chemscore.DEClash>
0.0726

> <Gold.Chemscore.DEInternal>
0.2232

> <Gold.Chemscore.Rot>
1.2742

> <Gold.Chemscore.Internal.Correction>
   9.000000E+99

> <Gold.Chemscore.Hbonds>
donor molecule, donor type, donor heavy atom, donor atom, acceptor molecule, acceptor atom, score
      P1  H  7997  8008       L1     7  0.70

> <Gold.Chemscore.Hbond.Weighted>
-3.1038

> <Gold.Chemscore.Metal.Weighted>
-0.0000

> <Gold.Chemscore.Lipo.Weighted>
-11.6284

> <Gold.Chemscore.Internal_Hbond.Weighted>
0.0000

> <Gold.Chemscore.DEClash.Weighted>
0.0726

> <Gold.Chemscore.DEInternal.Weighted>
0.2232

> <Gold.Chemscore.Rot.Weighted>
3.2619

> <Gold.Chemscore.Internal.Correction.Weighted>
   9.000000E+99

> <Gold.Protein.RotatedTorsions>
[ 6907 6896 6895 6894 ] final  -28.24 input  -60.11 | X-H torsion
[ 7974 7965 7964 7962 ] final  113.43 input  175.53 | X-H torsion
[ 8008 7997 7996 7995 ] final  -75.38 input   59.86 | X-H torsion
[ 10167 10162 10161 10158 ] final  -73.92 input  -65.29 | X-H torsion
[ 10718 10713 10712 10709 ] final -137.96 input   66.30 | X-H torsion
[ 10763 10752 10751 10750 ] final  -99.33 input  -60.55 | X-H torsion
[ 11005 11000 10999 10996 ] final    6.27 input  -57.11 | X-H torsion

> <Gold.Protein.ActiveResidues>
 VAL166  LYS551  ARG553  GLY616  TRP617  ASP618  TYR619  PRO620  LYS621  CYS622 
 ASP623  PHE694  ASN695  SER759  ASP760  ASP761  ALA762  ILE779  LEU786  VAL792 
 PHE793  MET794  SER795  GLU796  ALA797  LYS798  CYS799  TRP800  GLU811  SER814 

> <Gold.Protein.RotatedAtoms>
  151.1357  135.0153  159.8602 H   0  0  0  0  0  0  0  0  0  0  0  0  # atno 6907 bound_to 6896
  152.5452  134.1558  159.8547 H   0  0  0  0  0  0  0  0  0  0  0  0  # atno 6908 bound_to 6896
  151.1629  133.4788  159.2627 H   0  0  0  0  0  0  0  0  0  0  0  0  # atno 6909 bound_to 6896
  145.2170  139.2879  143.4238 H   0  0  0  0  0  0  0  0  0  0  0  0  # atno 7974 bound_to 7965
  154.5412  140.0745  156.8513 H   0  0  0  0  0  0  0  0  0  0  0  0  # atno 8008 bound_to 7997
  155.3177  140.3394  155.4224 H   0  0  0  0  0  0  0  0  0  0  0  0  # atno 8009 bound_to 7997
  156.1876  140.1674  156.8141 H   0  0  0  0  0  0  0  0  0  0  0  0  # atno 8010 bound_to 7997
  140.5070  143.2351  151.7657 H   0  0  0  0  0  0  0  0  0  0  0  0  # atno 10167 bound_to 10162
  156.2939  130.7391  151.1424 H   0  0  0  0  0  0  0  0  0  0  0  0  # atno 10718 bound_to 10713
  154.7489  135.4976  153.9254 H   0  0  0  0  0  0  0  0  0  0  0  0  # atno 10763 bound_to 10752
  153.1122  135.6712  153.9488 H   0  0  0  0  0  0  0  0  0  0  0  0  # atno 10764 bound_to 10752
  153.9244  135.3085  155.3426 H   0  0  0  0  0  0  0  0  0  0  0  0  # atno 10765 bound_to 10752
  140.5613  134.0189  155.7973 H   0  0  0  0  0  0  0  0  0  0  0  0  # atno 11005 bound_to 11000
  146.3384  140.2464  142.8597 LP  0  0  0  0  0  0  0  0  0  0  0  0  # atno 17320 bound_to 7965
  144.9801  140.8451  143.5402 LP  0  0  0  0  0  0  0  0  0  0  0  0  # atno 17321 bound_to 7965
  139.4886  144.4443  151.9728 LP  0  0  0  0  0  0  0  0  0  0  0  0  # atno 17342 bound_to 10162
  140.3534  144.3061  150.5945 LP  0  0  0  0  0  0  0  0  0  0  0  0  # atno 17343 bound_to 10162
  157.7350  131.0576  150.5494 LP  0  0  0  0  0  0  0  0  0  0  0  0  # atno 17370 bound_to 10713
  156.5613  130.4256  149.6061 LP  0  0  0  0  0  0  0  0  0  0  0  0  # atno 17371 bound_to 10713
  141.1112  133.9613  157.2906 LP  0  0  0  0  0  0  0  0  0  0  0  0  # atno 17394 bound_to 11000
  139.9406  135.0191  156.8696 LP  0  0  0  0  0  0  0  0  0  0  0  0  # atno 17395 bound_to 11000

$$$$
