AV-unprocessed.smi:788|AV-procd|sdf|3737|dock8
  -GOLD-   22720 1173D 1   1.00000     0.00000
 Structure written by MMmdl.
 34 35  0  0  0  0  0  0  0  0  2 V2000
  153.1101  141.7686  161.5165 C   0  0  0  0  0  0  0  0  0  0  0  0
  152.8281  142.9361  160.5530 C   0  0  2  0  0  0  0  0  0  0  0  0
  152.2108  144.1238  161.3155 C   0  0  0  0  0  0  0  0  0  0  0  0
  151.9406  145.3138  160.3864 C   0  0  0  0  0  0  0  0  0  0  0  0
  151.0324  144.9024  159.2211 C   0  0  0  0  0  0  0  0  0  0  0  0
  151.6295  143.7267  158.4245 C   0  0  2  0  0  0  0  0  0  0  0  0
  150.7070  143.3502  157.2507 C   0  0  0  0  0  0  0  0  0  0  0  0
  151.9303  142.5241  159.3568 C   0  0  1  0  0  0  0  0  0  0  0  0
  152.5814  141.4617  158.5879 N   0  0  0  0  0  0  0  0  0  0  0  0
  151.9854  140.4680  157.8985 C   0  0  0  0  0  0  0  0  0  0  0  0
  150.7581  140.3875  157.9004 O   0  0  0  0  0  0  0  0  0  0  0  0
  152.7854  139.5964  157.2294 N   0  5  0  0  0  0  0  0  0  0  0  0
  152.3195  138.7786  156.2673 C   0  0  0  0  0  0  0  0  0  0  0  0
  152.7413  137.5109  156.1325 N   0  0  0  0  0  0  0  0  0  0  0  0
  152.1395  136.8455  155.0732 N   0  0  0  0  0  0  0  0  0  0  0  0
  151.2678  137.6295  154.4391 C   0  0  0  0  0  0  0  0  0  0  0  0
  151.1042  139.2519  155.0766 S   0  0  0  0  0  0  0  0  0  0  0  0
  152.1843  141.3531  161.9154 H   0  0  0  0  0  0  0  0  0  0  0  0
  153.7192  142.0945  162.3598 H   0  0  0  0  0  0  0  0  0  0  0  0
  153.6517  140.9606  161.0243 H   0  0  0  0  0  0  0  0  0  0  0  0
  153.7891  143.2659  160.1549 H   0  0  0  0  0  0  0  0  0  0  0  0
  151.2783  143.8134  161.7889 H   0  0  0  0  0  0  0  0  0  0  0  0
  152.8760  144.4368  162.1209 H   0  0  0  0  0  0  0  0  0  0  0  0
  151.4786  146.1262  160.9479 H   0  0  0  0  0  0  0  0  0  0  0  0
  152.8840  145.7010  159.9995 H   0  0  0  0  0  0  0  0  0  0  0  0
  150.0496  144.6266  159.6056 H   0  0  0  0  0  0  0  0  0  0  0  0
  150.8769  145.7585  158.5636 H   0  0  0  0  0  0  0  0  0  0  0  0
  152.5747  144.0665  157.9977 H   0  0  0  0  0  0  0  0  0  0  0  0
  149.7543  142.9584  157.6081 H   0  0  0  0  0  0  0  0  0  0  0  0
  151.1579  142.5926  156.6093 H   0  0  0  0  0  0  0  0  0  0  0  0
  150.4965  144.2168  156.6238 H   0  0  0  0  0  0  0  0  0  0  0  0
  150.9786  142.1715  159.7581 H   0  0  0  0  0  0  0  0  0  0  0  0
  153.5903  141.4849  158.5682 H   0  0  0  0  0  0  0  0  0  0  0  0
  150.7174  137.2499  153.5914 H   0  0  0  0  0  0  0  0  0  0  0  0
  1  2  1  0  0  0  0
  1 18  1  0  0  0  0
  1 19  1  0  0  0  0
  1 20  1  0  0  0  0
  2  8  1  0  0  0  0
  2  3  1  0  0  0  0
  2 21  1  0  0  0  0
  3  4  1  0  0  0  0
  3 22  1  0  0  0  0
  3 23  1  0  0  0  0
  4  5  1  0  0  0  0
  4 24  1  0  0  0  0
  4 25  1  0  0  0  0
  5  6  1  0  0  0  0
  5 26  1  0  0  0  0
  5 27  1  0  0  0  0
  6  7  1  0  0  0  0
  6  8  1  0  0  0  0
  6 28  1  0  0  0  0
  7 29  1  0  0  0  0
  7 30  1  0  0  0  0
  7 31  1  0  0  0  0
  8  9  1  0  0  0  0
  8 32  1  0  0  0  0
  9 10  1  0  0  0  0
  9 33  1  0  0  0  0
 10 11  2  0  0  0  0
 10 12  1  0  0  0  0
 12 13  1  0  0  0  0
 13 17  1  0  0  0  0
 13 14  2  0  0  0  0
 14 15  1  0  0  0  0
 15 16  2  0  0  0  0
 16 17  1  0  0  0  0
 16 34  1  0  0  0  0
M  CHG  1  12  -1
M  END
> <s_m_source_file>
AV-unprocessed.smi

> <i_m_source_file_index>
788

> <i_lp_mmshare_version>
43012

> <i_f3d_flags>
0

> <s_epik_input>
W0NIM11bQ0BASF0xW0NIMl1bQ0gyXVtDSDJdW0NAQEhdKFtDSDNdKVtDQEhdMVtOSF1DKD1PKVtOSF1jMm5uW2NIXXMy

> <s_epik_cmdline>
J2VwaWtfcHl0aG9uJywgJy1waCcsICc3LjAnLCAnLXRuJywgJzgnLCAnLW1hJywgJzIwMCcsICctbWV0YWxfYmluZGluZycsICctaW1hZScsICc8aW5maWxlLm1hZT4nLCAnLW9tYWUnLCAnPG91dGZpbGUubWFlPic=

> <r_lp_tautomer_probability>
1

> <r_epik_Ionization_Penalty>
4.58638

> <r_epik_Ionization_Penalty_Charging>
4.53816

> <r_epik_Ionization_Penalty_Neutral>
0.048215

> <r_epik_State_Penalty>
4.53788

> <r_epik_Charging_Adjusted_Penalty>
9.07605

> <i_epik_Tot_Q>
-1

> <i_epik_Tot_abs_Q>
1

> <r_epik_Metal_State_Penalty>
0.838628

> <b_epik_Metal_Only>
1

> <s_lp_Force_Field>
OPLS_2005

> <r_lp_Energy>
11.4954

> <b_lp_Chiralities_Consistent>
1

> <s_lp_Variant>
AV-unprocessed.smi:788-7

> <Gold.Version>
5.8.1

> <Gold.Id.Protein>
6NUR|6NUR_protein|mol2

> <Gold.PLP.Fitness>
48.7287

> <Gold.PLP.PLP>
-38.0753

> <Gold.PLP.part.hbond>
-2.5729

> <Gold.PLP.part.metal>
0.0000

> <Gold.PLP.part.buried>
-1.8915

> <Gold.PLP.part.nonpolar>
-35.0379

> <Gold.PLP.part.repulsive>
0.1809

> <Gold.PLP.ligand.clash>
0.0000

> <Gold.PLP.ligand.torsion>
0.7288

> <Gold.PLP.Chemscore.Hbond>
2.9120

> <Gold.PLP.Chemscore.CHOScore>
1.1229

> <Gold.PLP.Chemscore.Metal>
0.0000

> <Gold.Chemscore.Hbonds>
donor molecule, donor type, donor heavy atom, donor atom, acceptor molecule, acceptor atom, score
      P1  H  7997  8010       L1    12  2.00
      P1  H 10752 10763       L1    15  0.94
      L1  C    16    34       P1  7948  0.37
      L1  C    16    34       P1  7949  0.76

> <Gold.PLP.Chemscore.Internal.Correction>
0.0063

> <Gold.Rescore>
     Score         DG    S(hbond)    S(metal)    S(lipo)     H(rot)  DE(clash)    DE(int)     intcor
     18.52     -20.61       1.62        0.00     105.03       1.00       1.40       0.70       ----

> <Gold.Chemscore.Fitness>
18.5200

> <Gold.Chemscore.DG>
-20.6132

> <Gold.Chemscore.ZeroCoef>
-5.4800

> <Gold.Chemscore.Hbond>
1.6183

> <Gold.Chemscore.Metal>
0.0000

> <Gold.Chemscore.Lipo>
105.0266

> <Gold.Chemscore.Internal_Hbond>
0.0000

> <Gold.Chemscore.DEClash>
1.3976

> <Gold.Chemscore.DEInternal>
0.6957

> <Gold.Chemscore.Rot>
1.0000

> <Gold.Chemscore.Internal.Correction>
   9.000000E+99

> <Gold.Chemscore.Hbonds>
donor molecule, donor type, donor heavy atom, donor atom, acceptor molecule, acceptor atom, score
      P1  H  7997  8010       L1    12  0.73
      P1  H 10752 10763       L1    15  0.77

> <Gold.Chemscore.Hbond.Weighted>
-5.4051

> <Gold.Chemscore.Metal.Weighted>
-0.0000

> <Gold.Chemscore.Lipo.Weighted>
-12.2881

> <Gold.Chemscore.Internal_Hbond.Weighted>
0.0000

> <Gold.Chemscore.DEClash.Weighted>
1.3976

> <Gold.Chemscore.DEInternal.Weighted>
0.6957

> <Gold.Chemscore.Rot.Weighted>
2.5600

> <Gold.Chemscore.Internal.Correction.Weighted>
   9.000000E+99

> <Gold.Protein.RotatedTorsions>
[ 6907 6896 6895 6894 ] final -173.91 input  -60.11 | X-H torsion
[ 7974 7965 7964 7962 ] final  160.39 input  175.53 | X-H torsion
[ 8008 7997 7996 7995 ] final   44.95 input   59.86 | X-H torsion
[ 10167 10162 10161 10158 ] final  -56.23 input  -65.29 | X-H torsion
[ 10718 10713 10712 10709 ] final  142.28 input   66.30 | X-H torsion
[ 10763 10752 10751 10750 ] final   56.88 input  -60.55 | X-H torsion
[ 11005 11000 10999 10996 ] final   47.56 input  -57.11 | X-H torsion

> <Gold.Protein.ActiveResidues>
 VAL166  LYS551  ARG553  GLY616  TRP617  ASP618  TYR619  PRO620  LYS621  CYS622 
 ASP623  PHE694  ASN695  SER759  ASP760  ASP761  ALA762  ILE779  LEU786  VAL792 
 PHE793  MET794  SER795  GLU796  ALA797  LYS798  CYS799  TRP800  GLU811  SER814 

> <Gold.Protein.RotatedAtoms>
  151.5639  133.3399  159.2976 H   0  0  0  0  0  0  0  0  0  0  0  0  # atno 6907 bound_to 6896
  150.8407  134.7700  159.6941 H   0  0  0  0  0  0  0  0  0  0  0  0  # atno 6908 bound_to 6896
  152.4475  134.5471  159.9907 H   0  0  0  0  0  0  0  0  0  0  0  0  # atno 6909 bound_to 6896
  144.7739  139.7750  143.6286 H   0  0  0  0  0  0  0  0  0  0  0  0  # atno 7974 bound_to 7965
  155.3277  140.3400  155.4240 H   0  0  0  0  0  0  0  0  0  0  0  0  # atno 8008 bound_to 7997
  156.1877  140.1686  156.8190 H   0  0  0  0  0  0  0  0  0  0  0  0  # atno 8009 bound_to 7997
  154.5405  140.0726  156.8486 H   0  0  0  0  0  0  0  0  0  0  0  0  # atno 8010 bound_to 7997
  140.6329  143.2468  151.5194 H   0  0  0  0  0  0  0  0  0  0  0  0  # atno 10167 bound_to 10162
  157.3824  131.0994  151.0726 H   0  0  0  0  0  0  0  0  0  0  0  0  # atno 10718 bound_to 10713
  152.9839  135.5661  154.5300 H   0  0  0  0  0  0  0  0  0  0  0  0  # atno 10763 bound_to 10752
  154.4773  135.2787  155.1599 H   0  0  0  0  0  0  0  0  0  0  0  0  # atno 10764 bound_to 10752
  154.3122  135.6286  153.5524 H   0  0  0  0  0  0  0  0  0  0  0  0  # atno 10765 bound_to 10752
  140.1268  134.4757  155.8553 H   0  0  0  0  0  0  0  0  0  0  0  0  # atno 11005 bound_to 11000
  146.1906  139.5144  142.9807 LP  0  0  0  0  0  0  0  0  0  0  0  0  # atno 17320 bound_to 7965
  145.6241  141.0317  143.1899 LP  0  0  0  0  0  0  0  0  0  0  0  0  # atno 17321 bound_to 7965
  139.5541  144.2319  152.1583 LP  0  0  0  0  0  0  0  0  0  0  0  0  # atno 17342 bound_to 10162
  140.1568  144.5063  150.6655 LP  0  0  0  0  0  0  0  0  0  0  0  0  # atno 17343 bound_to 10162
  157.1790  130.6301  149.5665 LP  0  0  0  0  0  0  0  0  0  0  0  0  # atno 17370 bound_to 10713
  155.9779  130.4760  150.6620 LP  0  0  0  0  0  0  0  0  0  0  0  0  # atno 17371 bound_to 10713
  141.2163  133.6781  156.6994 LP  0  0  0  0  0  0  0  0  0  0  0  0  # atno 17394 bound_to 11000
  140.2893  134.8253  157.4003 LP  0  0  0  0  0  0  0  0  0  0  0  0  # atno 17395 bound_to 11000

$$$$
