AV-unprocessed.smi:1762|AV-procd|sdf|7110|dock2
  -GOLD-   22720 8333D 1   1.00000     0.00000
 Structure written by MMmdl.
 53 54  0  0  0  0  0  0  0  0  2 V2000
  151.5621  142.1055  157.3112 C   0  0  0  0  0  0  0  0  0  0  0  0
  150.7559  140.9853  156.6443 C   0  0  1  0  0  0  0  0  0  0  0  0
  149.7711  141.5280  155.5933 C   0  0  0  0  0  0  0  0  0  0  0  0
  149.0519  140.4646  154.8834 N   0  0  0  0  0  0  0  0  0  0  0  0
  148.0374  140.9962  153.9292 C   0  0  1  0  0  0  0  0  0  0  0  0
  147.0093  139.9371  153.4613 C   0  0  0  0  0  0  0  0  0  0  0  0
  146.1184  139.5497  154.2169 O   0  0  0  0  0  0  0  0  0  0  0  0
  147.1707  139.4504  152.2201 N   0  0  0  0  0  0  0  0  0  0  0  0
  146.3569  138.3966  151.6215 C   0  0  0  0  0  0  0  0  0  0  0  0
  145.9271  137.3122  152.6285 C   0  0  0  0  0  0  0  0  0  0  0  0
  145.4253  136.0370  151.9742 C   0  0  0  0  0  0  0  0  0  0  0  0
  144.0576  135.6874  151.9696 C   0  0  0  0  0  0  0  0  0  0  0  0
  143.6556  134.4837  151.3539 C   0  0  0  0  0  0  0  0  0  0  0  0
  144.6284  133.6547  150.7576 C   0  0  0  0  0  0  0  0  0  0  0  0
  145.9805  134.0518  150.7917 C   0  0  0  0  0  0  0  0  0  0  0  0
  146.3251  135.2123  151.3914 N   0  3  0  0  0  0  0  0  0  0  0  0
  147.3329  142.3147  154.3996 C   0  0  0  0  0  0  0  0  0  0  0  0
  146.6481  142.2054  155.7767 C   0  0  0  0  0  0  0  0  0  0  0  0
  146.3572  142.9011  153.3612 C   0  0  0  0  0  0  0  0  0  0  0  0
  150.0420  139.5456  154.2939 C   0  0  0  0  0  0  0  0  0  0  0  0
  151.0718  139.0148  155.3116 C   0  0  2  0  0  0  0  0  0  0  0  0
  150.4966  137.9516  156.2641 C   0  0  0  0  0  0  0  0  0  0  0  0
  151.6744  140.0945  156.0209 O   0  0  0  0  0  0  0  0  0  0  0  0
  150.9059  142.8101  157.8227 H   0  0  0  0  0  0  0  0  0  0  0  0
  152.1453  142.6630  156.5777 H   0  0  0  0  0  0  0  0  0  0  0  0
  152.2547  141.7010  158.0495 H   0  0  0  0  0  0  0  0  0  0  0  0
  150.2037  140.4552  157.4207 H   0  0  0  0  0  0  0  0  0  0  0  0
  149.0791  142.1816  156.1196 H   0  0  0  0  0  0  0  0  0  0  0  0
  150.3081  142.1529  154.8774 H   0  0  0  0  0  0  0  0  0  0  0  0
  148.5809  141.2727  153.0229 H   0  0  0  0  0  0  0  0  0  0  0  0
  147.9377  139.8065  151.6681 H   0  0  0  0  0  0  0  0  0  0  0  0
  145.4720  138.8654  151.1905 H   0  0  0  0  0  0  0  0  0  0  0  0
  146.8955  137.9415  150.7888 H   0  0  0  0  0  0  0  0  0  0  0  0
  146.7692  137.0654  153.2761 H   0  0  0  0  0  0  0  0  0  0  0  0
  145.1496  137.7034  153.2865 H   0  0  0  0  0  0  0  0  0  0  0  0
  143.3246  136.3315  152.4335 H   0  0  0  0  0  0  0  0  0  0  0  0
  142.6135  134.1996  151.3403 H   0  0  0  0  0  0  0  0  0  0  0  0
  144.3412  132.7286  150.2812 H   0  0  0  0  0  0  0  0  0  0  0  0
  146.7907  133.4810  150.3618 H   0  0  0  0  0  0  0  0  0  0  0  0
  148.1009  143.0803  154.4947 H   0  0  0  0  0  0  0  0  0  0  0  0
  145.7969  141.5260  155.7598 H   0  0  0  0  0  0  0  0  0  0  0  0
  146.2767  143.1776  156.1021 H   0  0  0  0  0  0  0  0  0  0  0  0
  147.3390  141.8541  156.5429 H   0  0  0  0  0  0  0  0  0  0  0  0
  145.4625  142.2885  153.2486 H   0  0  0  0  0  0  0  0  0  0  0  0
  146.8327  142.9930  152.3846 H   0  0  0  0  0  0  0  0  0  0  0  0
  146.0280  143.8974  153.6575 H   0  0  0  0  0  0  0  0  0  0  0  0
  149.5653  138.6744  153.8451 H   0  0  0  0  0  0  0  0  0  0  0  0
  150.5731  140.0563  153.4888 H   0  0  0  0  0  0  0  0  0  0  0  0
  151.8756  138.5342  154.7533 H   0  0  0  0  0  0  0  0  0  0  0  0
  150.1613  137.0755  155.7088 H   0  0  0  0  0  0  0  0  0  0  0  0
  149.6415  138.3241  156.8280 H   0  0  0  0  0  0  0  0  0  0  0  0
  151.2506  137.6199  156.9779 H   0  0  0  0  0  0  0  0  0  0  0  0
  147.3097  135.4799  151.4060 H   0  0  0  0  0  0  0  0  0  0  0  0
  1  2  1  0  0  0  0
  1 24  1  0  0  0  0
  1 25  1  0  0  0  0
  1 26  1  0  0  0  0
  2 23  1  0  0  0  0
  2  3  1  0  0  0  0
  2 27  1  0  0  0  0
  3  4  1  0  0  0  0
  3 28  1  0  0  0  0
  3 29  1  0  0  0  0
  4  5  1  0  0  0  0
  4 20  1  0  0  0  0
  5  6  1  0  0  0  0
  5 17  1  0  0  0  0
  5 30  1  0  0  0  0
  6  7  2  0  0  0  0
  6  8  1  0  0  0  0
  8  9  1  0  0  0  0
  8 31  1  0  0  0  0
  9 10  1  0  0  0  0
  9 32  1  0  0  0  0
  9 33  1  0  0  0  0
 10 11  1  0  0  0  0
 10 34  1  0  0  0  0
 10 35  1  0  0  0  0
 11 16  1  0  0  0  0
 11 12  2  0  0  0  0
 12 13  1  0  0  0  0
 12 36  1  0  0  0  0
 13 14  2  0  0  0  0
 13 37  1  0  0  0  0
 14 15  1  0  0  0  0
 14 38  1  0  0  0  0
 15 16  2  0  0  0  0
 15 39  1  0  0  0  0
 16 53  1  0  0  0  0
 17 18  1  0  0  0  0
 17 19  1  0  0  0  0
 17 40  1  0  0  0  0
 18 41  1  0  0  0  0
 18 42  1  0  0  0  0
 18 43  1  0  0  0  0
 19 44  1  0  0  0  0
 19 45  1  0  0  0  0
 19 46  1  0  0  0  0
 20 21  1  0  0  0  0
 20 47  1  0  0  0  0
 20 48  1  0  0  0  0
 21 22  1  0  0  0  0
 21 23  1  0  0  0  0
 21 49  1  0  0  0  0
 22 50  1  0  0  0  0
 22 51  1  0  0  0  0
 22 52  1  0  0  0  0
M  CHG  1  16   1
M  END
> <s_m_source_file>
AV-unprocessed.smi

> <i_m_source_file_index>
1762

> <i_lp_mmshare_version>
43012

> <i_f3d_flags>
0

> <s_epik_input>
W0NIM11bQ0BASF0xW0NIMl1OKFtDSDJdW0NASF0oTzEpW0NIM10pW0NAQEhdKFtDSF0oW0NIM10pW0NIM10pQyg9TylbTkhdW0NIMl1bQ0gyXWMyW2NIXVtjSF1bY0hdW2NIXW4y

> <s_epik_cmdline>
J2VwaWtfcHl0aG9uJywgJy1waCcsICc3LjAnLCAnLXRuJywgJzgnLCAnLW1hJywgJzIwMCcsICctbWV0YWxfYmluZGluZycsICctaW1hZScsICc8aW5maWxlLm1hZT4nLCAnLW9tYWUnLCAnPG91dGZpbGUubWFlPic=

> <r_epik_Ionization_Penalty>
1.86475

> <r_epik_Ionization_Penalty_Charging>
1.85347

> <r_epik_Ionization_Penalty_Neutral>
0.0112771

> <r_epik_State_Penalty>
1.99714

> <r_epik_Charging_Adjusted_Penalty>
3.85061

> <i_epik_Tot_Q>
1

> <i_epik_Tot_abs_Q>
1

> <r_epik_Metal_State_Penalty>
2.02271

> <b_epik_Metal_Only>
0

> <s_lp_Force_Field>
OPLS_2005

> <r_lp_Energy>
36.5288

> <b_lp_Chiralities_Consistent>
1

> <s_lp_Variant>
AV-unprocessed.smi:1762-12

> <Gold.Version>
5.8.1

> <Gold.Id.Protein>
6NUR|6NUR_protein|mol2

> <Gold.PLP.Fitness>
47.3915

> <Gold.PLP.PLP>
-40.0022

> <Gold.PLP.part.hbond>
-2.0000

> <Gold.PLP.part.metal>
0.0000

> <Gold.PLP.part.buried>
-3.9027

> <Gold.PLP.part.nonpolar>
-34.0698

> <Gold.PLP.part.repulsive>
0.3487

> <Gold.PLP.ligand.clash>
0.0000

> <Gold.PLP.ligand.torsion>
0.9916

> <Gold.PLP.Chemscore.Hbond>
3.0000

> <Gold.PLP.Chemscore.CHOScore>
0.0000

> <Gold.PLP.Chemscore.Metal>
0.0000

> <Gold.Chemscore.Hbonds>
donor molecule, donor type, donor heavy atom, donor atom, acceptor molecule, acceptor atom, score
      L1  H     8    31       P1  7957  1.00
      L1  H    16    53       P1  7948  2.00

> <Gold.PLP.Chemscore.Internal.Correction>
0.3725

> <Gold.Rescore>
     Score         DG    S(hbond)    S(metal)    S(lipo)     H(rot)  DE(clash)    DE(int)     intcor
     17.17     -19.59       1.93        0.00     102.96       1.72       0.05       2.37       ----

> <Gold.Chemscore.Fitness>
17.1745

> <Gold.Chemscore.DG>
-19.5919

> <Gold.Chemscore.ZeroCoef>
-5.4800

> <Gold.Chemscore.Hbond>
1.9348

> <Gold.Chemscore.Metal>
0.0000

> <Gold.Chemscore.Lipo>
102.9606

> <Gold.Chemscore.Internal_Hbond>
0.0000

> <Gold.Chemscore.DEClash>
0.0458

> <Gold.Chemscore.DEInternal>
2.3716

> <Gold.Chemscore.Rot>
1.7174

> <Gold.Chemscore.Internal.Correction>
   9.000000E+99

> <Gold.Chemscore.Hbonds>
donor molecule, donor type, donor heavy atom, donor atom, acceptor molecule, acceptor atom, score
      L1  H     8    31       P1  7957  0.99
      L1  H    16    53       P1  7948  0.93

> <Gold.Chemscore.Hbond.Weighted>
-6.4621

> <Gold.Chemscore.Metal.Weighted>
-0.0000

> <Gold.Chemscore.Lipo.Weighted>
-12.0464

> <Gold.Chemscore.Internal_Hbond.Weighted>
0.0000

> <Gold.Chemscore.DEClash.Weighted>
0.0458

> <Gold.Chemscore.DEInternal.Weighted>
2.3716

> <Gold.Chemscore.Rot.Weighted>
4.3966

> <Gold.Chemscore.Internal.Correction.Weighted>
   9.000000E+99

> <Gold.Protein.RotatedTorsions>
[ 6907 6896 6895 6894 ] final -170.92 input  -60.11 | X-H torsion
[ 7974 7965 7964 7962 ] final   52.09 input  175.53 | X-H torsion
[ 8008 7997 7996 7995 ] final  -35.33 input   59.86 | X-H torsion
[ 10167 10162 10161 10158 ] final -127.71 input  -65.29 | X-H torsion
[ 10718 10713 10712 10709 ] final   73.61 input   66.30 | X-H torsion
[ 10763 10752 10751 10750 ] final -102.77 input  -60.55 | X-H torsion
[ 11005 11000 10999 10996 ] final  -99.90 input  -57.11 | X-H torsion

> <Gold.Protein.ActiveResidues>
 VAL166  LYS551  ARG553  GLY616  TRP617  ASP618  TYR619  PRO620  LYS621  CYS622 
 ASP623  PHE694  ASN695  SER759  ASP760  ASP761  ALA762  ILE779  LEU786  VAL792 
 PHE793  MET794  SER795  GLU796  ALA797  LYS798  CYS799  TRP800  GLU811  SER814 

> <Gold.Protein.RotatedAtoms>
  151.5155  133.3476  159.2891 H   0  0  0  0  0  0  0  0  0  0  0  0  # atno 6907 bound_to 6896
  150.8685  134.8056  159.7148 H   0  0  0  0  0  0  0  0  0  0  0  0  # atno 6908 bound_to 6896
  152.4682  134.5035  159.9784 H   0  0  0  0  0  0  0  0  0  0  0  0  # atno 6909 bound_to 6896
  145.9848  139.4278  143.0110 H   0  0  0  0  0  0  0  0  0  0  0  0  # atno 7974 bound_to 7965
  154.4098  140.1660  156.2195 H   0  0  0  0  0  0  0  0  0  0  0  0  # atno 8008 bound_to 7997
  155.9376  140.3410  155.6277 H   0  0  0  0  0  0  0  0  0  0  0  0  # atno 8009 bound_to 7997
  155.7029  140.0747  157.2393 H   0  0  0  0  0  0  0  0  0  0  0  0  # atno 8010 bound_to 7997
  139.9580  143.5982  152.2454 H   0  0  0  0  0  0  0  0  0  0  0  0  # atno 10167 bound_to 10162
  157.6555  130.9637  150.1093 H   0  0  0  0  0  0  0  0  0  0  0  0  # atno 10718 bound_to 10713
  154.7759  135.4848  153.9742 H   0  0  0  0  0  0  0  0  0  0  0  0  # atno 10763 bound_to 10752
  153.1428  135.6776  153.9009 H   0  0  0  0  0  0  0  0  0  0  0  0  # atno 10764 bound_to 10752
  153.8678  135.3147  155.3419 H   0  0  0  0  0  0  0  0  0  0  0  0  # atno 10765 bound_to 10752
  141.1291  133.8357  157.1032 H   0  0  0  0  0  0  0  0  0  0  0  0  # atno 11005 bound_to 11000
  145.7717  140.9894  143.1146 LP  0  0  0  0  0  0  0  0  0  0  0  0  # atno 17320 bound_to 7965
  144.6871  139.9455  143.7476 LP  0  0  0  0  0  0  0  0  0  0  0  0  # atno 17321 bound_to 7965
  139.6576  144.7662  151.2025 LP  0  0  0  0  0  0  0  0  0  0  0  0  # atno 17342 bound_to 10162
  140.7562  143.6060  150.8652 LP  0  0  0  0  0  0  0  0  0  0  0  0  # atno 17343 bound_to 10162
  156.1994  130.3659  149.8807 LP  0  0  0  0  0  0  0  0  0  0  0  0  # atno 17370 bound_to 10713
  156.6715  130.8822  151.3563 LP  0  0  0  0  0  0  0  0  0  0  0  0  # atno 17371 bound_to 10713
  140.0321  134.9896  157.0800 LP  0  0  0  0  0  0  0  0  0  0  0  0  # atno 17394 bound_to 11000
  140.4269  134.1821  155.7166 LP  0  0  0  0  0  0  0  0  0  0  0  0  # atno 17395 bound_to 11000

$$$$
