AV-unprocessed.smi:540|AV-procd|sdf|2870|dock6
  -GOLD-   2262023363D 1   1.00000     0.00000
 Structure written by MMmdl.
 48 50  0  0  0  0  0  0  0  0  2 V2000
  151.6762  138.6124  154.4214 C   0  0  0  0  0  0  0  0  0  0  0  0
  152.2438  139.0701  155.7666 C   0  0  0  0  0  0  0  0  0  0  0  0
  151.1645  139.3695  156.6326 O   0  0  0  0  0  0  0  0  0  0  0  0
  151.4819  139.1803  158.0013 C   0  0  0  0  0  0  0  0  0  0  0  0
  152.7414  139.9834  158.3544 C   0  0  0  0  0  0  0  0  0  0  0  0
  153.2804  139.6013  159.6595 N   0  0  0  0  0  0  0  0  0  0  0  0
  153.6155  140.4159  160.6979 C   0  0  0  0  0  0  0  0  0  0  0  0
  153.4423  141.8011  160.6524 N   0  0  0  0  0  0  0  0  0  0  0  0
  153.7205  142.6086  159.4665 C   0  0  0  0  0  0  0  0  0  0  0  0
  152.5400  143.5370  159.1304 C   0  0  0  0  0  0  0  0  0  0  0  0
  152.2103  144.4637  160.3137 C   0  0  0  0  0  0  0  0  0  0  0  0
  150.9805  145.3376  160.0310 C   0  0  0  0  0  0  0  0  0  0  0  0
  152.0330  143.6198  161.5879 C   0  0  0  0  0  0  0  0  0  0  0  0
  153.2406  142.6886  161.7976 C   0  0  0  0  0  0  0  0  0  0  0  0
  154.1689  139.7911  161.7387 N   0  0  0  0  0  0  0  0  0  0  0  0
  154.1677  138.4632  161.3432 C   0  0  0  0  0  0  0  0  0  0  0  0
  153.6479  138.3207  160.0941 C   0  0  0  0  0  0  0  0  0  0  0  0
  153.5597  137.0203  159.3883 C   0  0  0  0  0  0  0  0  0  0  0  0
  153.1032  136.9391  158.2500 O   0  0  0  0  0  0  0  0  0  0  0  0
  154.0387  135.9847  160.1476 N   0  5  0  0  0  0  0  0  0  0  0  0
  154.5663  136.0858  161.4163 C   0  0  0  0  0  0  0  0  0  0  0  0
  154.9813  135.1007  162.0283 O   0  0  0  0  0  0  0  0  0  0  0  0
  154.6395  137.3098  162.0269 N   0  0  0  0  0  0  0  0  0  0  0  0
  155.2023  137.4487  163.3734 C   0  0  0  0  0  0  0  0  0  0  0  0
  152.4759  138.3737  153.7202 H   0  0  0  0  0  0  0  0  0  0  0  0
  151.0588  139.3916  153.9736 H   0  0  0  0  0  0  0  0  0  0  0  0
  151.0574  137.7227  154.5409 H   0  0  0  0  0  0  0  0  0  0  0  0
  152.8653  138.2834  156.1966 H   0  0  0  0  0  0  0  0  0  0  0  0
  152.8712  139.9515  155.6277 H   0  0  0  0  0  0  0  0  0  0  0  0
  150.6476  139.5079  158.6233 H   0  0  0  0  0  0  0  0  0  0  0  0
  151.6459  138.1216  158.2064 H   0  0  0  0  0  0  0  0  0  0  0  0
  153.4942  139.8497  157.5844 H   0  0  0  0  0  0  0  0  0  0  0  0
  152.5292  141.0494  158.3367 H   0  0  0  0  0  0  0  0  0  0  0  0
  154.6290  143.1902  159.6285 H   0  0  0  0  0  0  0  0  0  0  0  0
  153.9188  141.9537  158.6175 H   0  0  0  0  0  0  0  0  0  0  0  0
  152.7775  144.1288  158.2460 H   0  0  0  0  0  0  0  0  0  0  0  0
  151.6673  142.9341  158.8747 H   0  0  0  0  0  0  0  0  0  0  0  0
  153.0622  145.1278  160.4669 H   0  0  0  0  0  0  0  0  0  0  0  0
  150.0907  144.7293  159.8659 H   0  0  0  0  0  0  0  0  0  0  0  0
  151.1327  145.9532  159.1441 H   0  0  0  0  0  0  0  0  0  0  0  0
  150.7755  146.0075  160.8663 H   0  0  0  0  0  0  0  0  0  0  0  0
  151.9156  144.2712  162.4545 H   0  0  0  0  0  0  0  0  0  0  0  0
  151.1187  143.0299  161.5182 H   0  0  0  0  0  0  0  0  0  0  0  0
  153.1298  142.1096  162.7137 H   0  0  0  0  0  0  0  0  0  0  0  0
  154.1426  143.2854  161.9392 H   0  0  0  0  0  0  0  0  0  0  0  0
  154.6671  136.8148  164.0816 H   0  0  0  0  0  0  0  0  0  0  0  0
  155.1489  138.4701  163.7492 H   0  0  0  0  0  0  0  0  0  0  0  0
  156.2521  137.1530  163.3777 H   0  0  0  0  0  0  0  0  0  0  0  0
  1  2  1  0  0  0  0
  1 25  1  0  0  0  0
  1 26  1  0  0  0  0
  1 27  1  0  0  0  0
  2  3  1  0  0  0  0
  2 28  1  0  0  0  0
  2 29  1  0  0  0  0
  3  4  1  0  0  0  0
  4  5  1  0  0  0  0
  4 30  1  0  0  0  0
  4 31  1  0  0  0  0
  5  6  1  0  0  0  0
  5 32  1  0  0  0  0
  5 33  1  0  0  0  0
  6 17  1  0  0  0  0
  6  7  1  0  0  0  0
  7  8  1  0  0  0  0
  7 15  2  0  0  0  0
  8 14  1  0  0  0  0
  8  9  1  0  0  0  0
  9 10  1  0  0  0  0
  9 34  1  0  0  0  0
  9 35  1  0  0  0  0
 10 11  1  0  0  0  0
 10 36  1  0  0  0  0
 10 37  1  0  0  0  0
 11 12  1  0  0  0  0
 11 13  1  0  0  0  0
 11 38  1  0  0  0  0
 12 39  1  0  0  0  0
 12 40  1  0  0  0  0
 12 41  1  0  0  0  0
 13 14  1  0  0  0  0
 13 42  1  0  0  0  0
 13 43  1  0  0  0  0
 14 44  1  0  0  0  0
 14 45  1  0  0  0  0
 15 16  1  0  0  0  0
 16 23  1  0  0  0  0
 16 17  2  0  0  0  0
 17 18  1  0  0  0  0
 18 19  2  0  0  0  0
 18 20  1  0  0  0  0
 20 21  1  0  0  0  0
 21 22  2  0  0  0  0
 21 23  1  0  0  0  0
 23 24  1  0  0  0  0
 24 46  1  0  0  0  0
 24 47  1  0  0  0  0
 24 48  1  0  0  0  0
M  CHG  1  20  -1
M  END
> <s_m_source_file>
AV-unprocessed.smi

> <i_m_source_file_index>
540

> <i_lp_mmshare_version>
43012

> <i_f3d_flags>
0

> <s_epik_input>
W0NIM11uMWMoPU8pW25IXWMoPU8pYyhjMTIpbihbQ0gyXVtDSDJdT1tDSDJdW0NIM10pYyhuMilOM1tDSDJdW0NIMl1bQ0hdKFtDSDNdKVtDSDJdW0NIMl0z

> <s_epik_cmdline>
J2VwaWtfcHl0aG9uJywgJy1waCcsICc3LjAnLCAnLXRuJywgJzgnLCAnLW1hJywgJzIwMCcsICctbWV0YWxfYmluZGluZycsICctaW1hZScsICc8aW5maWxlLm1hZT4nLCAnLW9tYWUnLCAnPG91dGZpbGUubWFlPic=

> <r_lp_tautomer_probability>
1

> <r_epik_Ionization_Penalty>
5.11981

> <r_epik_Ionization_Penalty_Charging>
0.0737583

> <r_epik_Ionization_Penalty_Neutral>
5.04605

> <r_epik_State_Penalty>
5.03218

> <r_epik_Charging_Adjusted_Penalty>
5.10594

> <i_epik_Tot_Q>
-1

> <i_epik_Tot_abs_Q>
1

> <r_epik_Metal_State_Penalty>
1.14277

> <b_epik_Metal_Only>
1

> <s_lp_Force_Field>
OPLS_2005

> <r_lp_Energy>
41.1943

> <b_lp_Chiralities_Consistent>
1

> <s_lp_Variant>
AV-unprocessed.smi:540-2

> <Gold.Version>
5.8.1

> <Gold.Id.Protein>
6NUR|6NUR_protein|mol2

> <Gold.PLP.Fitness>
53.9227

> <Gold.PLP.PLP>
-48.9231

> <Gold.PLP.part.hbond>
-0.9906

> <Gold.PLP.part.metal>
0.0000

> <Gold.PLP.part.buried>
-6.3067

> <Gold.PLP.part.nonpolar>
-41.8964

> <Gold.PLP.part.repulsive>
0.0000

> <Gold.PLP.ligand.clash>
0.0000

> <Gold.PLP.ligand.torsion>
0.7642

> <Gold.PLP.Chemscore.Hbond>
2.0000

> <Gold.PLP.Chemscore.CHOScore>
0.0000

> <Gold.PLP.Chemscore.Metal>
0.0000

> <Gold.Chemscore.Hbonds>
donor molecule, donor type, donor heavy atom, donor atom, acceptor molecule, acceptor atom, score
      P1  H  6896  6909       L1    20  1.79

> <Gold.PLP.Chemscore.Internal.Correction>
0.5281

> <Gold.Rescore>
     Score         DG    S(hbond)    S(metal)    S(lipo)     H(rot)  DE(clash)    DE(int)     intcor
     13.62     -16.62       0.57        0.00     112.87       1.55       0.06       2.94       ----

> <Gold.Chemscore.Fitness>
13.6162

> <Gold.Chemscore.DG>
-16.6168

> <Gold.Chemscore.ZeroCoef>
-5.4800

> <Gold.Chemscore.Hbond>
0.5711

> <Gold.Chemscore.Metal>
0.0000

> <Gold.Chemscore.Lipo>
112.8715

> <Gold.Chemscore.Internal_Hbond>
0.0000

> <Gold.Chemscore.DEClash>
0.0632

> <Gold.Chemscore.DEInternal>
2.9374

> <Gold.Chemscore.Rot>
1.5534

> <Gold.Chemscore.Internal.Correction>
   9.000000E+99

> <Gold.Chemscore.Hbonds>
donor molecule, donor type, donor heavy atom, donor atom, acceptor molecule, acceptor atom, score
      P1  H  6896  6909       L1    20  0.17

> <Gold.Chemscore.Hbond.Weighted>
-1.9076

> <Gold.Chemscore.Metal.Weighted>
-0.0000

> <Gold.Chemscore.Lipo.Weighted>
-13.2060

> <Gold.Chemscore.Internal_Hbond.Weighted>
0.0000

> <Gold.Chemscore.DEClash.Weighted>
0.0632

> <Gold.Chemscore.DEInternal.Weighted>
2.9374

> <Gold.Chemscore.Rot.Weighted>
3.9768

> <Gold.Chemscore.Internal.Correction.Weighted>
   9.000000E+99

> <Gold.Protein.RotatedTorsions>
[ 6907 6896 6895 6894 ] final  177.95 input  -60.11 | X-H torsion
[ 7974 7965 7964 7962 ] final -160.92 input  175.53 | X-H torsion
[ 8008 7997 7996 7995 ] final  103.28 input   59.86 | X-H torsion
[ 10167 10162 10161 10158 ] final   89.65 input  -65.29 | X-H torsion
[ 10718 10713 10712 10709 ] final   14.05 input   66.30 | X-H torsion
[ 10763 10752 10751 10750 ] final   78.90 input  -60.55 | X-H torsion
[ 11005 11000 10999 10996 ] final  161.72 input  -57.11 | X-H torsion

> <Gold.Protein.ActiveResidues>
 VAL166  LYS551  ARG553  GLY616  TRP617  ASP618  TYR619  PRO620  LYS621  CYS622 
 ASP623  PHE694  ASN695  SER759  ASP760  ASP761  ALA762  ILE779  LEU786  VAL792 
 PHE793  MET794  SER795  GLU796  ALA797  LYS798  CYS799  TRP800  GLU811  SER814 

> <Gold.Protein.RotatedAtoms>
  151.6957  133.3311  159.3253 H   0  0  0  0  0  0  0  0  0  0  0  0  # atno 6907 bound_to 6896
  150.7758  134.6659  159.6374 H   0  0  0  0  0  0  0  0  0  0  0  0  # atno 6908 bound_to 6896
  152.3800  134.6608  160.0198 H   0  0  0  0  0  0  0  0  0  0  0  0  # atno 6909 bound_to 6896
  144.7409  140.3473  143.6123 H   0  0  0  0  0  0  0  0  0  0  0  0  # atno 7974 bound_to 7965
  156.1470  140.3167  155.8586 H   0  0  0  0  0  0  0  0  0  0  0  0  # atno 8008 bound_to 7997
  155.4045  140.0502  157.3052 H   0  0  0  0  0  0  0  0  0  0  0  0  # atno 8009 bound_to 7997
  154.5025  140.2134  155.9330 H   0  0  0  0  0  0  0  0  0  0  0  0  # atno 8010 bound_to 7997
  139.8551  144.6573  150.9123 H   0  0  0  0  0  0  0  0  0  0  0  0  # atno 10167 bound_to 10162
  157.0335  130.6202  149.5739 H   0  0  0  0  0  0  0  0  0  0  0  0  # atno 10718 bound_to 10713
  153.0910  135.4860  154.8690 H   0  0  0  0  0  0  0  0  0  0  0  0  # atno 10763 bound_to 10752
  154.7269  135.3051  154.8958 H   0  0  0  0  0  0  0  0  0  0  0  0  # atno 10764 bound_to 10752
  153.9605  135.6813  153.4798 H   0  0  0  0  0  0  0  0  0  0  0  0  # atno 10765 bound_to 10752
  140.2186  134.8213  157.3197 H   0  0  0  0  0  0  0  0  0  0  0  0  # atno 11005 bound_to 11000
  145.7313  139.1737  143.2429 LP  0  0  0  0  0  0  0  0  0  0  0  0  # atno 17320 bound_to 7965
  146.1204  140.7316  142.9460 LP  0  0  0  0  0  0  0  0  0  0  0  0  # atno 17321 bound_to 7965
  140.7782  143.3793  151.1506 LP  0  0  0  0  0  0  0  0  0  0  0  0  # atno 17342 bound_to 10162
  139.7427  143.8899  152.3054 LP  0  0  0  0  0  0  0  0  0  0  0  0  # atno 17343 bound_to 10162
  156.0061  130.5148  150.7835 LP  0  0  0  0  0  0  0  0  0  0  0  0  # atno 17370 bound_to 10713
  157.5159  131.0928  151.0140 LP  0  0  0  0  0  0  0  0  0  0  0  0  # atno 17371 bound_to 10713
  140.1874  134.4415  155.7736 LP  0  0  0  0  0  0  0  0  0  0  0  0  # atno 17394 bound_to 11000
  141.2224  133.7011  156.7969 LP  0  0  0  0  0  0  0  0  0  0  0  0  # atno 17395 bound_to 11000

$$$$
