AV-unprocessed.smi:3320|AV-procd|sdf|12768|dock9
  -GOLD-   2272019113D 1   1.00000     0.00000
 Structure written by MMmdl.
 37 38  0  0  0  0  0  0  0  0  1 V2000
  153.9489  139.8665  159.4831 C   0  0  0  0  0  0  0  0  0  0  0  0
  153.8481  141.2979  160.0296 C   0  0  0  0  0  0  0  0  0  0  0  0
  153.6761  141.3488  161.5545 C   0  0  0  0  0  0  0  0  0  0  0  0
  152.8040  142.0998  159.3180 C   0  0  0  0  0  0  0  0  0  0  0  0
  152.4279  143.3265  159.6925 N   0  0  0  0  0  0  0  0  0  0  0  0
  151.4353  143.8643  158.8678 C   0  0  0  0  0  0  0  0  0  0  0  0
  150.8901  145.2307  159.1516 C   0  0  0  0  0  0  0  0  0  0  0  0
  150.1359  145.2856  160.4904 C   0  0  0  0  0  0  0  0  0  0  0  0
  148.7704  144.7901  160.3608 N   0  0  0  0  0  0  0  0  0  0  0  0
  147.6776  145.4159  160.8230 C   0  0  0  0  0  0  0  0  0  0  0  0
  147.7185  146.4964  161.4128 O   0  0  0  0  0  0  0  0  0  0  0  0
  146.3398  144.7067  160.5746 C   0  0  0  0  0  0  0  0  0  0  0  0
  145.7040  144.0768  161.8270 C   0  0  0  0  0  0  0  0  0  0  0  0
  145.3961  142.8294  160.9935 C   0  0  0  0  0  0  0  0  0  0  0  0
  146.4690  143.2848  159.9998 C   0  0  0  0  0  0  0  0  0  0  0  0
  151.0622  143.0215  157.8510 C   0  0  0  0  0  0  0  0  0  0  0  0
  151.9442  141.5198  157.8953 S   0  0  0  0  0  0  0  0  0  0  0  0
  154.1528  139.8688  158.4119 H   0  0  0  0  0  0  0  0  0  0  0  0
  153.0227  139.3142  159.6449 H   0  0  0  0  0  0  0  0  0  0  0  0
  154.7531  139.3156  159.9713 H   0  0  0  0  0  0  0  0  0  0  0  0
  154.8034  141.7775  159.8123 H   0  0  0  0  0  0  0  0  0  0  0  0
  153.6892  142.3774  161.9165 H   0  0  0  0  0  0  0  0  0  0  0  0
  154.4796  140.8112  162.0585 H   0  0  0  0  0  0  0  0  0  0  0  0
  152.7317  140.8989  161.8625 H   0  0  0  0  0  0  0  0  0  0  0  0
  151.7046  145.9561  159.1566 H   0  0  0  0  0  0  0  0  0  0  0  0
  150.2220  145.5388  158.3464 H   0  0  0  0  0  0  0  0  0  0  0  0
  150.6498  144.6710  161.2299 H   0  0  0  0  0  0  0  0  0  0  0  0
  150.1277  146.3032  160.8849 H   0  0  0  0  0  0  0  0  0  0  0  0
  148.6475  143.9059  159.8889 H   0  0  0  0  0  0  0  0  0  0  0  0
  145.6236  145.3104  160.0135 H   0  0  0  0  0  0  0  0  0  0  0  0
  146.4067  143.8774  162.6382 H   0  0  0  0  0  0  0  0  0  0  0  0
  144.8171  144.5966  162.1903 H   0  0  0  0  0  0  0  0  0  0  0  0
  145.6102  141.8838  161.4927 H   0  0  0  0  0  0  0  0  0  0  0  0
  144.3922  142.8449  160.5661 H   0  0  0  0  0  0  0  0  0  0  0  0
  146.1719  143.1945  158.9546 H   0  0  0  0  0  0  0  0  0  0  0  0
  147.4371  142.8134  160.1797 H   0  0  0  0  0  0  0  0  0  0  0  0
  150.3232  143.1913  157.0822 H   0  0  0  0  0  0  0  0  0  0  0  0
  1  2  1  0  0  0  0
  1 18  1  0  0  0  0
  1 19  1  0  0  0  0
  1 20  1  0  0  0  0
  2  3  1  0  0  0  0
  2  4  1  0  0  0  0
  2 21  1  0  0  0  0
  3 22  1  0  0  0  0
  3 23  1  0  0  0  0
  3 24  1  0  0  0  0
  4 17  1  0  0  0  0
  4  5  2  0  0  0  0
  5  6  1  0  0  0  0
  6  7  1  0  0  0  0
  6 16  2  0  0  0  0
  7  8  1  0  0  0  0
  7 25  1  0  0  0  0
  7 26  1  0  0  0  0
  8  9  1  0  0  0  0
  8 27  1  0  0  0  0
  8 28  1  0  0  0  0
  9 10  1  0  0  0  0
  9 29  1  0  0  0  0
 10 11  2  0  0  0  0
 10 12  1  0  0  0  0
 12 15  1  0  0  0  0
 12 13  1  0  0  0  0
 12 30  1  0  0  0  0
 13 14  1  0  0  0  0
 13 31  1  0  0  0  0
 13 32  1  0  0  0  0
 14 15  1  0  0  0  0
 14 33  1  0  0  0  0
 14 34  1  0  0  0  0
 15 35  1  0  0  0  0
 15 36  1  0  0  0  0
 16 17  1  0  0  0  0
 16 37  1  0  0  0  0
M  END
> <s_m_source_file>
AV-unprocessed.smi

> <i_m_source_file_index>
3320

> <i_lp_mmshare_version>
43012

> <i_f3d_flags>
0

> <s_epik_input>
W0NIM11bQ0hdKFtDSDNdKWMxbmMoW2NIXXMxKVtDSDJdW0NIMl1bTkhdQyg9TylbQ0hdMltDSDJdW0NIMl1bQ0gyXTI=

> <s_epik_cmdline>
J2VwaWtfcHl0aG9uJywgJy1waCcsICc3LjAnLCAnLXRuJywgJzgnLCAnLW1hJywgJzIwMCcsICctbWV0YWxfYmluZGluZycsICctaW1hZScsICc8aW5maWxlLm1hZT4nLCAnLW9tYWUnLCAnPG91dGZpbGUubWFlPic=

> <r_epik_Ionization_Penalty>
0.000842111

> <r_epik_Ionization_Penalty_Charging>
0

> <r_epik_Ionization_Penalty_Neutral>
0.000842111

> <r_epik_State_Penalty>
0.000542609

> <r_epik_Charging_Adjusted_Penalty>
0.000542609

> <i_epik_Tot_Q>
0

> <i_epik_Tot_abs_Q>
0

> <r_epik_Metal_State_Penalty>
-0

> <b_epik_Metal_Only>
0

> <s_lp_Force_Field>
OPLS_2005

> <r_lp_Energy>
-0.445202

> <b_lp_Chiralities_Consistent>
1

> <s_lp_Variant>
AV-unprocessed.smi:3320-1

> <Gold.Version>
5.8.1

> <Gold.Id.Protein>
6NUR|6NUR_protein|mol2

> <Gold.PLP.Fitness>
42.2362

> <Gold.PLP.PLP>
-40.0372

> <Gold.PLP.part.hbond>
-1.8301

> <Gold.PLP.part.metal>
0.0000

> <Gold.PLP.part.buried>
-6.2897

> <Gold.PLP.part.nonpolar>
-32.3785

> <Gold.PLP.part.repulsive>
0.4486

> <Gold.PLP.ligand.clash>
0.0000

> <Gold.PLP.ligand.torsion>
0.6448

> <Gold.PLP.Chemscore.Hbond>
0.0000

> <Gold.PLP.Chemscore.CHOScore>
1.0000

> <Gold.PLP.Chemscore.Metal>
0.0000

> <Gold.Chemscore.Hbonds>
donor molecule, donor type, donor heavy atom, donor atom, acceptor molecule, acceptor atom, score
      L1  C    16    37       P1  8028  1.00

> <Gold.PLP.Chemscore.Internal.Correction>
0.4886

> <Gold.Rescore>
     Score         DG    S(hbond)    S(metal)    S(lipo)     H(rot)  DE(clash)    DE(int)     intcor
     12.82     -13.63       0.00        0.00     102.16       1.49       0.19       0.62       ----

> <Gold.Chemscore.Fitness>
12.8171

> <Gold.Chemscore.DG>
-13.6256

> <Gold.Chemscore.ZeroCoef>
-5.4800

> <Gold.Chemscore.Hbond>
0.0000

> <Gold.Chemscore.Metal>
0.0000

> <Gold.Chemscore.Lipo>
102.1561

> <Gold.Chemscore.Internal_Hbond>
0.0000

> <Gold.Chemscore.DEClash>
0.1931

> <Gold.Chemscore.DEInternal>
0.6154

> <Gold.Chemscore.Rot>
1.4870

> <Gold.Chemscore.Internal.Correction>
   9.000000E+99

> <Gold.Chemscore.Hbond.Weighted>
-0.0000

> <Gold.Chemscore.Metal.Weighted>
-0.0000

> <Gold.Chemscore.Lipo.Weighted>
-11.9523

> <Gold.Chemscore.Internal_Hbond.Weighted>
0.0000

> <Gold.Chemscore.DEClash.Weighted>
0.1931

> <Gold.Chemscore.DEInternal.Weighted>
0.6154

> <Gold.Chemscore.Rot.Weighted>
3.8067

> <Gold.Chemscore.Internal.Correction.Weighted>
   9.000000E+99

> <Gold.Protein.RotatedTorsions>
[ 6907 6896 6895 6894 ] final    4.34 input  -60.11 | X-H torsion
[ 7974 7965 7964 7962 ] final -128.67 input  175.53 | X-H torsion
[ 8008 7997 7996 7995 ] final   87.15 input   59.86 | X-H torsion
[ 10167 10162 10161 10158 ] final -166.51 input  -65.29 | X-H torsion
[ 10718 10713 10712 10709 ] final -137.24 input   66.30 | X-H torsion
[ 10763 10752 10751 10750 ] final  116.32 input  -60.55 | X-H torsion
[ 11005 11000 10999 10996 ] final   35.54 input  -57.11 | X-H torsion

> <Gold.Protein.ActiveResidues>
 VAL166  LYS551  ARG553  GLY616  TRP617  ASP618  TYR619  PRO620  LYS621  CYS622 
 ASP623  PHE694  ASN695  SER759  ASP760  ASP761  ALA762  ILE779  LEU786  VAL792 
 PHE793  MET794  SER795  GLU796  ALA797  LYS798  CYS799  TRP800  GLU811  SER814 

> <Gold.Protein.RotatedAtoms>
  151.6398  135.1014  160.0138 H   0  0  0  0  0  0  0  0  0  0  0  0  # atno 6907 bound_to 6896
  152.4060  133.6886  159.6365 H   0  0  0  0  0  0  0  0  0  0  0  0  # atno 6908 bound_to 6896
  150.7955  133.8624  159.3276 H   0  0  0  0  0  0  0  0  0  0  0  0  # atno 6909 bound_to 6896
  144.9648  140.7484  143.4707 H   0  0  0  0  0  0  0  0  0  0  0  0  # atno 7974 bound_to 7965
  155.9718  140.3385  155.6582 H   0  0  0  0  0  0  0  0  0  0  0  0  # atno 8008 bound_to 7997
  155.6664  140.0722  157.2554 H   0  0  0  0  0  0  0  0  0  0  0  0  # atno 8009 bound_to 7997
  154.4168  140.1699  156.1820 H   0  0  0  0  0  0  0  0  0  0  0  0  # atno 8010 bound_to 7997
  139.6110  144.0815  152.1841 H   0  0  0  0  0  0  0  0  0  0  0  0  # atno 10167 bound_to 10162
  156.2859  130.7347  151.1359 H   0  0  0  0  0  0  0  0  0  0  0  0  # atno 10718 bound_to 10713
  153.5354  135.3569  155.2695 H   0  0  0  0  0  0  0  0  0  0  0  0  # atno 10763 bound_to 10752
  154.8723  135.4078  154.3104 H   0  0  0  0  0  0  0  0  0  0  0  0  # atno 10764 bound_to 10752
  153.3800  135.7068  153.6640 H   0  0  0  0  0  0  0  0  0  0  0  0  # atno 10765 bound_to 10752
  140.2416  134.3408  155.7923 H   0  0  0  0  0  0  0  0  0  0  0  0  # atno 11005 bound_to 11000
  145.2647  139.1978  143.4873 LP  0  0  0  0  0  0  0  0  0  0  0  0  # atno 17320 bound_to 7965
  146.3364  140.2583  142.8601 LP  0  0  0  0  0  0  0  0  0  0  0  0  # atno 17321 bound_to 7965
  140.0434  144.5990  150.7393 LP  0  0  0  0  0  0  0  0  0  0  0  0  # atno 17342 bound_to 10162
  140.7319  143.2699  151.3922 LP  0  0  0  0  0  0  0  0  0  0  0  0  # atno 17343 bound_to 10162
  157.7328  131.0596  150.5608 LP  0  0  0  0  0  0  0  0  0  0  0  0  # atno 17370 bound_to 10713
  156.5719  130.4282  149.6016 LP  0  0  0  0  0  0  0  0  0  0  0  0  # atno 17371 bound_to 10713
  141.2210  133.7302  156.8895 LP  0  0  0  0  0  0  0  0  0  0  0  0  # atno 17394 bound_to 11000
  140.1647  134.9141  157.2759 LP  0  0  0  0  0  0  0  0  0  0  0  0  # atno 17395 bound_to 11000

$$$$
