AV-unprocessed.smi:2083|AV-procd|sdf|8503|dock1
  -GOLD-   2272011213D 1   1.00000     0.00000
 Structure written by MMmdl.
 44 45  0  0  0  0  0  0  0  0  3 V2000
  145.1615  136.3970  162.1522 C   0  0  0  0  0  0  0  0  0  0  0  0
  146.3753  136.2810  161.2952 C   0  0  0  0  0  0  0  0  0  0  0  0
  146.9617  135.2257  160.6562 C   0  0  0  0  0  0  0  0  0  0  0  0
  148.0916  135.8154  160.0263 C   0  0  0  0  0  0  0  0  0  0  0  0
  148.9918  135.1782  159.2620 N   0  5  0  0  0  0  0  0  0  0  0  0
  148.5805  134.3823  158.2492 C   0  0  0  0  0  0  0  0  0  0  0  0
  148.7092  133.1575  158.1810 O   0  0  0  0  0  0  0  0  0  0  0  0
  147.9767  135.0457  157.2529 N   0  0  0  0  0  0  0  0  0  0  0  0
  147.4231  134.4450  156.0426 C   0  0  0  0  0  0  0  0  0  0  0  0
  148.0657  135.0042  154.7424 C   0  0  1  0  0  0  0  0  0  0  0  0
  149.5502  134.5831  154.6559 C   0  0  0  0  0  0  0  0  0  0  0  0
  147.3539  134.6102  153.4821 N   0  3  1  0  0  0  0  0  0  0  0  0
  147.6215  133.2308  152.9797 C   0  0  0  0  0  0  0  0  0  0  0  0
  146.9601  132.9865  151.6127 C   0  0  0  0  0  0  0  0  0  0  0  0
  145.4545  133.2710  151.6562 C   0  0  0  0  0  0  0  0  0  0  0  0
  145.1771  134.6764  152.2137 C   0  0  2  0  0  0  0  0  0  0  0  0
  145.5218  135.7985  151.2184 C   0  0  0  0  0  0  0  0  0  0  0  0
  145.8856  134.8614  153.5701 C   0  0  0  0  0  0  0  0  0  0  0  0
  148.1726  137.1165  160.2477 N   0  0  0  0  0  0  0  0  0  0  0  0
  147.0785  137.4223  161.0657 O   0  0  0  0  0  0  0  0  0  0  0  0
  144.2586  136.2364  161.5632 H   0  0  0  0  0  0  0  0  0  0  0  0
  145.0960  137.3840  162.6106 H   0  0  0  0  0  0  0  0  0  0  0  0
  145.1819  135.6553  162.9507 H   0  0  0  0  0  0  0  0  0  0  0  0
  146.6380  134.1958  160.6444 H   0  0  0  0  0  0  0  0  0  0  0  0
  147.8967  136.0479  157.3460 H   0  0  0  0  0  0  0  0  0  0  0  0
  147.5779  133.3675  156.1063 H   0  0  0  0  0  0  0  0  0  0  0  0
  146.3451  134.6119  156.0610 H   0  0  0  0  0  0  0  0  0  0  0  0
  148.0235  136.0924  154.8094 H   0  0  0  0  0  0  0  0  0  0  0  0
  150.1169  134.9170  155.5254 H   0  0  0  0  0  0  0  0  0  0  0  0
  150.0560  135.0028  153.7881 H   0  0  0  0  0  0  0  0  0  0  0  0
  149.6461  133.4985  154.5983 H   0  0  0  0  0  0  0  0  0  0  0  0
  148.6894  133.0662  152.8415 H   0  0  0  0  0  0  0  0  0  0  0  0
  147.2697  132.4994  153.7095 H   0  0  0  0  0  0  0  0  0  0  0  0
  147.4350  133.6148  150.8588 H   0  0  0  0  0  0  0  0  0  0  0  0
  147.1306  131.9563  151.2986 H   0  0  0  0  0  0  0  0  0  0  0  0
  145.0163  133.1573  150.6640 H   0  0  0  0  0  0  0  0  0  0  0  0
  144.9697  132.5288  152.2920 H   0  0  0  0  0  0  0  0  0  0  0  0
  144.1034  134.7454  152.3938 H   0  0  0  0  0  0  0  0  0  0  0  0
  146.5880  135.8336  150.9953 H   0  0  0  0  0  0  0  0  0  0  0  0
  145.2387  136.7730  151.6171 H   0  0  0  0  0  0  0  0  0  0  0  0
  144.9898  135.6639  150.2761 H   0  0  0  0  0  0  0  0  0  0  0  0
  145.4555  134.1758  154.3023 H   0  0  0  0  0  0  0  0  0  0  0  0
  145.6779  135.8643  153.9396 H   0  0  0  0  0  0  0  0  0  0  0  0
  147.7110  135.2275  152.7671 H   0  0  0  0  0  0  0  0  0  0  0  0
  1  2  1  0  0  0  0
  1 21  1  0  0  0  0
  1 22  1  0  0  0  0
  1 23  1  0  0  0  0
  2 20  1  0  0  0  0
  2  3  2  0  0  0  0
  3  4  1  0  0  0  0
  3 24  1  0  0  0  0
  4  5  1  0  0  0  0
  4 19  2  0  0  0  0
  5  6  1  0  0  0  0
  6  7  2  0  0  0  0
  6  8  1  0  0  0  0
  8  9  1  0  0  0  0
  8 25  1  0  0  0  0
  9 10  1  0  0  0  0
  9 26  1  0  0  0  0
  9 27  1  0  0  0  0
 10 11  1  0  0  0  0
 10 12  1  0  0  0  0
 10 28  1  0  0  0  0
 11 29  1  0  0  0  0
 11 30  1  0  0  0  0
 11 31  1  0  0  0  0
 12 18  1  0  0  0  0
 12 13  1  0  0  0  0
 12 44  1  0  0  0  0
 13 14  1  0  0  0  0
 13 32  1  0  0  0  0
 13 33  1  0  0  0  0
 14 15  1  0  0  0  0
 14 34  1  0  0  0  0
 14 35  1  0  0  0  0
 15 16  1  0  0  0  0
 15 36  1  0  0  0  0
 15 37  1  0  0  0  0
 16 17  1  0  0  0  0
 16 18  1  0  0  0  0
 16 38  1  0  0  0  0
 17 39  1  0  0  0  0
 17 40  1  0  0  0  0
 17 41  1  0  0  0  0
 18 42  1  0  0  0  0
 18 43  1  0  0  0  0
 19 20  1  0  0  0  0
M  CHG  1   5  -1
M  CHG  1  12   1
M  END
> <s_m_source_file>
AV-unprocessed.smi

> <i_m_source_file_index>
2083

> <i_lp_mmshare_version>
43012

> <i_f3d_flags>
0

> <s_epik_input>
W0NIM11jMVtjSF1jKG5vMSlbTkhdQyg9TylbTkhdW0NIMl1bQ0BIXShbQ0gzXSlOMltDSDJdW0NIMl1bQ0gyXVtDQEBIXShbQ0gzXSlbQ0gyXTI=

> <s_epik_cmdline>
J2VwaWtfcHl0aG9uJywgJy1waCcsICc3LjAnLCAnLXRuJywgJzgnLCAnLW1hJywgJzIwMCcsICctbWV0YWxfYmluZGluZycsICctaW1hZScsICc8aW5maWxlLm1hZT4nLCAnLW9tYWUnLCAnPG91dGZpbGUubWFlPic=

> <r_epik_Ionization_Penalty>
6.22434

> <r_epik_Ionization_Penalty_Charging>
6.22425

> <r_epik_Ionization_Penalty_Neutral>
9.62407e-05

> <r_epik_State_Penalty>
6.22423

> <r_epik_Charging_Adjusted_Penalty>
12.4485

> <i_epik_Tot_Q>
0

> <i_epik_Tot_abs_Q>
2

> <r_epik_Metal_State_Penalty>
2.16764

> <b_epik_Metal_Only>
1

> <s_lp_Force_Field>
OPLS_2005

> <r_lp_Energy>
12.2098

> <b_lp_Chiralities_Consistent>
1

> <s_lp_Variant>
AV-unprocessed.smi:2083-14

> <Gold.Version>
5.8.1

> <Gold.Id.Protein>
6NUR|6NUR_protein|mol2

> <Gold.PLP.Fitness>
39.6911

> <Gold.PLP.PLP>
-27.1047

> <Gold.PLP.part.hbond>
-5.8700

> <Gold.PLP.part.metal>
0.0000

> <Gold.PLP.part.buried>
-2.1397

> <Gold.PLP.part.nonpolar>
-19.1690

> <Gold.PLP.part.repulsive>
0.0266

> <Gold.PLP.ligand.clash>
0.0000

> <Gold.PLP.ligand.torsion>
1.2961

> <Gold.PLP.Chemscore.Hbond>
4.9913

> <Gold.PLP.Chemscore.CHOScore>
0.0000

> <Gold.PLP.Chemscore.Metal>
0.0000

> <Gold.Chemscore.Hbonds>
donor molecule, donor type, donor heavy atom, donor atom, acceptor molecule, acceptor atom, score
      L1  H    12    44       P1  7948  2.00
      P1  H  6896  6909       L1     5  2.00
      P1  H  6934  6947       L1    20  0.85

> <Gold.PLP.Chemscore.Internal.Correction>
0.2049

> <Gold.Rescore>
     Score         DG    S(hbond)    S(metal)    S(lipo)     H(rot)  DE(clash)    DE(int)     intcor
     16.20     -17.76       2.79        0.00      58.56       1.52       0.22       1.34       ----

> <Gold.Chemscore.Fitness>
16.2013

> <Gold.Chemscore.DG>
-17.7649

> <Gold.Chemscore.ZeroCoef>
-5.4800

> <Gold.Chemscore.Hbond>
2.7911

> <Gold.Chemscore.Metal>
0.0000

> <Gold.Chemscore.Lipo>
58.5592

> <Gold.Chemscore.Internal_Hbond>
0.0000

> <Gold.Chemscore.DEClash>
0.2223

> <Gold.Chemscore.DEInternal>
1.3413

> <Gold.Chemscore.Rot>
1.5190

> <Gold.Chemscore.Internal.Correction>
   9.000000E+99

> <Gold.Chemscore.Hbonds>
donor molecule, donor type, donor heavy atom, donor atom, acceptor molecule, acceptor atom, score
      L1  H    12    44       P1  7948  0.99
      P1  H  6896  6909       L1     5  0.50
      P1  H  6934  6947       L1    20  0.14

> <Gold.Chemscore.Hbond.Weighted>
-9.3221

> <Gold.Chemscore.Metal.Weighted>
-0.0000

> <Gold.Chemscore.Lipo.Weighted>
-6.8514

> <Gold.Chemscore.Internal_Hbond.Weighted>
0.0000

> <Gold.Chemscore.DEClash.Weighted>
0.2223

> <Gold.Chemscore.DEInternal.Weighted>
1.3413

> <Gold.Chemscore.Rot.Weighted>
3.8886

> <Gold.Chemscore.Internal.Correction.Weighted>
   9.000000E+99

> <Gold.Protein.RotatedTorsions>
[ 6907 6896 6895 6894 ] final   55.73 input  -60.11 | X-H torsion
[ 7974 7965 7964 7962 ] final -125.45 input  175.53 | X-H torsion
[ 8008 7997 7996 7995 ] final -117.49 input   59.86 | X-H torsion
[ 10167 10162 10161 10158 ] final  -42.66 input  -65.29 | X-H torsion
[ 10718 10713 10712 10709 ] final  -91.60 input   66.30 | X-H torsion
[ 10763 10752 10751 10750 ] final -150.68 input  -60.55 | X-H torsion
[ 11005 11000 10999 10996 ] final -169.15 input  -57.11 | X-H torsion

> <Gold.Protein.ActiveResidues>
 VAL166  LYS551  ARG553  GLY616  TRP617  ASP618  TYR619  PRO620  LYS621  CYS622 
 ASP623  PHE694  ASN695  SER759  ASP760  ASP761  ALA762  ILE779  LEU786  VAL792 
 PHE793  MET794  SER795  GLU796  ALA797  LYS798  CYS799  TRP800  GLU811  SER814 

> <Gold.Protein.RotatedAtoms>
  152.3568  134.6929  160.0219 H   0  0  0  0  0  0  0  0  0  0  0  0  # atno 6907 bound_to 6896
  151.7265  133.3311  159.3337 H   0  0  0  0  0  0  0  0  0  0  0  0  # atno 6908 bound_to 6896
  150.7577  134.6335  159.6243 H   0  0  0  0  0  0  0  0  0  0  0  0  # atno 6909 bound_to 6896
  144.9975  140.7790  143.4516 H   0  0  0  0  0  0  0  0  0  0  0  0  # atno 7974 bound_to 7965
  155.0846  140.0394  157.2650 H   0  0  0  0  0  0  0  0  0  0  0  0  # atno 8008 bound_to 7997
  154.6880  140.2647  155.6816 H   0  0  0  0  0  0  0  0  0  0  0  0  # atno 8009 bound_to 7997
  156.2718  140.2765  156.1448 H   0  0  0  0  0  0  0  0  0  0  0  0  # atno 8010 bound_to 7997
  140.6961  143.3025  151.3240 H   0  0  0  0  0  0  0  0  0  0  0  0  # atno 10167 bound_to 10162
  155.9995  130.4954  150.5499 H   0  0  0  0  0  0  0  0  0  0  0  0  # atno 10718 bound_to 10713
  154.8104  135.3278  154.7320 H   0  0  0  0  0  0  0  0  0  0  0  0  # atno 10763 bound_to 10752
  153.7970  135.6906  153.4866 H   0  0  0  0  0  0  0  0  0  0  0  0  # atno 10764 bound_to 10752
  153.1879  135.4562  155.0058 H   0  0  0  0  0  0  0  0  0  0  0  0  # atno 10765 bound_to 10752
  140.5339  134.5589  157.5082 H   0  0  0  0  0  0  0  0  0  0  0  0  # atno 11005 bound_to 11000
  145.2199  139.2164  143.5098 LP  0  0  0  0  0  0  0  0  0  0  0  0  # atno 17320 bound_to 7965
  146.3445  140.2055  142.8589 LP  0  0  0  0  0  0  0  0  0  0  0  0  # atno 17321 bound_to 7965
  139.6419  144.0523  152.2561 LP  0  0  0  0  0  0  0  0  0  0  0  0  # atno 17342 bound_to 10162
  140.0031  144.6278  150.7712 LP  0  0  0  0  0  0  0  0  0  0  0  0  # atno 17343 bound_to 10162
  157.3424  131.0719  151.1778 LP  0  0  0  0  0  0  0  0  0  0  0  0  # atno 17370 bound_to 10713
  157.2622  130.6664  149.5980 LP  0  0  0  0  0  0  0  0  0  0  0  0  # atno 17371 bound_to 10713
  139.9539  134.7568  156.0385 LP  0  0  0  0  0  0  0  0  0  0  0  0  # atno 17394 bound_to 11000
  141.1265  133.6598  156.3351 LP  0  0  0  0  0  0  0  0  0  0  0  0  # atno 17395 bound_to 11000

$$$$
