AV-unprocessed.smi:2047|AV-procd|sdf|8319|dock1
  -GOLD-   2272010583D 1   1.00000     0.00000
 Structure written by MMmdl.
 42 44  0  0  0  0  0  0  0  0  3 V2000
  149.2871  135.8150  159.1681 O   0  0  0  0  0  0  0  0  0  0  0  0
  148.8197  136.9229  159.4556 C   0  0  0  0  0  0  0  0  0  0  0  0
  149.1245  138.0013  158.7140 N   0  0  0  0  0  0  0  0  0  0  0  0
  149.9587  138.0887  157.5640 C   0  0  0  0  0  0  0  0  0  0  0  0
  150.0894  137.0125  156.6505 C   0  0  0  0  0  0  0  0  0  0  0  0
  150.9347  137.1429  155.5319 C   0  0  0  0  0  0  0  0  0  0  0  0
  151.6448  138.3429  155.3503 C   0  0  0  0  0  0  0  0  0  0  0  0
  151.5138  139.3408  156.2489 N   0  3  0  0  0  0  0  0  0  0  0  0
  150.7150  139.2721  157.3431 C   0  0  0  0  0  0  0  0  0  0  0  0
  150.6772  140.3688  158.2309 N   0  0  0  0  0  0  0  0  0  0  0  0
  151.9275  140.6082  158.9476 C   0  0  0  0  0  0  0  0  0  0  0  0
  152.0776  142.1267  159.0658 C   0  0  0  0  0  0  0  0  0  0  0  0
  151.2830  142.6487  157.8751 C   0  0  0  0  0  0  0  0  0  0  0  0
  150.1316  141.6497  157.7855 C   0  0  0  0  0  0  0  0  0  0  0  0
  147.9710  137.2298  160.4727 N   0  5  0  0  0  0  0  0  0  0  0  0
  147.0371  136.2891  161.0980 C   0  0  2  0  0  0  0  0  0  0  0  0
  147.5252  135.8859  162.5035 C   0  0  0  0  0  0  0  0  0  0  0  0
  146.7297  134.6570  162.9663 C   0  0  0  0  0  0  0  0  0  0  0  0
  146.3578  133.7025  161.4442 S   0  0  0  0  0  0  0  0  0  0  0  0
  147.2732  132.5546  161.3478 O   0  0  0  0  0  0  0  0  0  0  0  0
  144.9021  133.5144  161.3409 O   0  0  0  0  0  0  0  0  0  0  0  0
  146.9007  135.0032  160.2672 C   0  0  0  0  0  0  0  0  0  0  0  0
  148.6159  138.8405  158.9500 H   0  0  0  0  0  0  0  0  0  0  0  0
  149.5610  136.0828  156.7986 H   0  0  0  0  0  0  0  0  0  0  0  0
  151.0392  136.3310  154.8273 H   0  0  0  0  0  0  0  0  0  0  0  0
  152.3167  138.5305  154.5254 H   0  0  0  0  0  0  0  0  0  0  0  0
  151.9159  140.1363  159.9303 H   0  0  0  0  0  0  0  0  0  0  0  0
  152.7668  140.1929  158.3869 H   0  0  0  0  0  0  0  0  0  0  0  0
  151.6195  142.4727  159.9935 H   0  0  0  0  0  0  0  0  0  0  0  0
  153.1182  142.4518  159.0616 H   0  0  0  0  0  0  0  0  0  0  0  0
  150.9450  143.6773  158.0034 H   0  0  0  0  0  0  0  0  0  0  0  0
  151.8914  142.5998  156.9709 H   0  0  0  0  0  0  0  0  0  0  0  0
  149.6849  141.6358  156.7917 H   0  0  0  0  0  0  0  0  0  0  0  0
  149.3415  141.9318  158.4821 H   0  0  0  0  0  0  0  0  0  0  0  0
  146.0412  136.7193  161.2158 H   0  0  0  0  0  0  0  0  0  0  0  0
  148.5820  135.6182  162.4587 H   0  0  0  0  0  0  0  0  0  0  0  0
  147.4352  136.7080  163.2143 H   0  0  0  0  0  0  0  0  0  0  0  0
  147.2832  134.0384  163.6724 H   0  0  0  0  0  0  0  0  0  0  0  0
  145.7839  134.9464  163.4271 H   0  0  0  0  0  0  0  0  0  0  0  0
  146.1825  135.0994  159.4529 H   0  0  0  0  0  0  0  0  0  0  0  0
  147.8604  134.6941  159.8515 H   0  0  0  0  0  0  0  0  0  0  0  0
  152.0508  140.1949  156.0991 H   0  0  0  0  0  0  0  0  0  0  0  0
  1  2  2  0  0  0  0
  2  3  1  0  0  0  0
  2 15  1  0  0  0  0
  3  4  1  0  0  0  0
  3 23  1  0  0  0  0
  4  9  1  0  0  0  0
  4  5  2  0  0  0  0
  5  6  1  0  0  0  0
  5 24  1  0  0  0  0
  6  7  2  0  0  0  0
  6 25  1  0  0  0  0
  7  8  1  0  0  0  0
  7 26  1  0  0  0  0
  8  9  2  0  0  0  0
  8 42  1  0  0  0  0
  9 10  1  0  0  0  0
 10 14  1  0  0  0  0
 10 11  1  0  0  0  0
 11 12  1  0  0  0  0
 11 27  1  0  0  0  0
 11 28  1  0  0  0  0
 12 13  1  0  0  0  0
 12 29  1  0  0  0  0
 12 30  1  0  0  0  0
 13 14  1  0  0  0  0
 13 31  1  0  0  0  0
 13 32  1  0  0  0  0
 14 33  1  0  0  0  0
 14 34  1  0  0  0  0
 15 16  1  0  0  0  0
 16 22  1  0  0  0  0
 16 17  1  0  0  0  0
 16 35  1  0  0  0  0
 17 18  1  0  0  0  0
 17 36  1  0  0  0  0
 17 37  1  0  0  0  0
 18 19  1  0  0  0  0
 18 38  1  0  0  0  0
 18 39  1  0  0  0  0
 19 20  2  0  0  0  0
 19 21  2  0  0  0  0
 19 22  1  0  0  0  0
 22 40  1  0  0  0  0
 22 41  1  0  0  0  0
M  CHG  1   8   1
M  CHG  1  15  -1
M  END
> <s_m_source_file>
AV-unprocessed.smi

> <i_m_source_file_index>
2047

> <i_lp_mmshare_version>
43012

> <i_f3d_flags>
0

> <s_epik_input>
Tz1TMSg9TylbQ0gyXVtDSDJdW0NASF0oW0NIMl0xKVtOSF1DKD1PKVtOSF1jMltjSF1bY0hdW2NIXW5jMk4zW0NIMl1bQ0gyXVtDSDJdW0NIMl0z

> <s_epik_cmdline>
J2VwaWtfcHl0aG9uJywgJy1waCcsICc3LjAnLCAnLXRuJywgJzgnLCAnLW1hJywgJzIwMCcsICctbWV0YWxfYmluZGluZycsICctaW1hZScsICc8aW5maWxlLm1hZT4nLCAnLW9tYWUnLCAnPG91dGZpbGUubWFlPic=

> <r_lp_tautomer_probability>
0.999994

> <r_epik_Ionization_Penalty>
8.27033

> <r_epik_Ionization_Penalty_Charging>
8.27033

> <r_epik_Ionization_Penalty_Neutral>
3.23223e-06

> <r_epik_State_Penalty>
7.90314

> <r_epik_Charging_Adjusted_Penalty>
16.1735

> <i_epik_Tot_Q>
0

> <i_epik_Tot_abs_Q>
2

> <r_epik_Metal_State_Penalty>
3.89381

> <b_epik_Metal_Only>
1

> <s_lp_Force_Field>
OPLS_2005

> <r_lp_Energy>
38.7939

> <b_lp_Chiralities_Consistent>
1

> <s_lp_Variant>
AV-unprocessed.smi:2047-5

> <Gold.Version>
5.8.1

> <Gold.Id.Protein>
6NUR|6NUR_protein|mol2

> <Gold.PLP.Fitness>
43.4495

> <Gold.PLP.PLP>
-32.6262

> <Gold.PLP.part.hbond>
-3.0000

> <Gold.PLP.part.metal>
0.0000

> <Gold.PLP.part.buried>
-5.3446

> <Gold.PLP.part.nonpolar>
-26.2069

> <Gold.PLP.part.repulsive>
0.3475

> <Gold.PLP.ligand.clash>
0.0040

> <Gold.PLP.ligand.torsion>
0.5859

> <Gold.PLP.Chemscore.Hbond>
3.9400

> <Gold.PLP.Chemscore.CHOScore>
0.0000

> <Gold.PLP.Chemscore.Metal>
0.0000

> <Gold.Chemscore.Hbonds>
donor molecule, donor type, donor heavy atom, donor atom, acceptor molecule, acceptor atom, score
      P1  H  6896  6909       L1     1  1.00
      P1  H  6931  6943       L1    15  1.41
      P1  H  6934  6947       L1    15  1.54

> <Gold.PLP.Chemscore.Internal.Correction>
0.1791

> <Gold.Rescore>
     Score         DG    S(hbond)    S(metal)    S(lipo)     H(rot)  DE(clash)    DE(int)     intcor
     14.15     -17.66       1.88        0.00      77.80       1.25       0.23       3.28       ----

> <Gold.Chemscore.Fitness>
14.1488

> <Gold.Chemscore.DG>
-17.6613

> <Gold.Chemscore.ZeroCoef>
-5.4800

> <Gold.Chemscore.Hbond>
1.8784

> <Gold.Chemscore.Metal>
0.0000

> <Gold.Chemscore.Lipo>
77.7967

> <Gold.Chemscore.Internal_Hbond>
0.0000

> <Gold.Chemscore.DEClash>
0.2330

> <Gold.Chemscore.DEInternal>
3.2795

> <Gold.Chemscore.Rot>
1.2480

> <Gold.Chemscore.Internal.Correction>
   9.000000E+99

> <Gold.Chemscore.Hbonds>
donor molecule, donor type, donor heavy atom, donor atom, acceptor molecule, acceptor atom, score
      P1  H  6896  6909       L1     1  0.99
      P1  H  6931  6943       L1    15  0.35
      P1  H  6934  6947       L1    15  0.33

> <Gold.Chemscore.Hbond.Weighted>
-6.2740

> <Gold.Chemscore.Metal.Weighted>
-0.0000

> <Gold.Chemscore.Lipo.Weighted>
-9.1022

> <Gold.Chemscore.Internal_Hbond.Weighted>
0.0000

> <Gold.Chemscore.DEClash.Weighted>
0.2330

> <Gold.Chemscore.DEInternal.Weighted>
3.2795

> <Gold.Chemscore.Rot.Weighted>
3.1948

> <Gold.Chemscore.Internal.Correction.Weighted>
   9.000000E+99

> <Gold.Protein.RotatedTorsions>
[ 6907 6896 6895 6894 ] final   45.53 input  -60.11 | X-H torsion
[ 7974 7965 7964 7962 ] final   17.12 input  175.53 | X-H torsion
[ 8008 7997 7996 7995 ] final  -18.80 input   59.86 | X-H torsion
[ 10167 10162 10161 10158 ] final  -99.50 input  -65.29 | X-H torsion
[ 10718 10713 10712 10709 ] final -137.93 input   66.30 | X-H torsion
[ 10763 10752 10751 10750 ] final   18.64 input  -60.55 | X-H torsion
[ 11005 11000 10999 10996 ] final -121.84 input  -57.11 | X-H torsion

> <Gold.Protein.ActiveResidues>
 VAL166  LYS551  ARG553  GLY616  TRP617  ASP618  TYR619  PRO620  LYS621  CYS622 
 ASP623  PHE694  ASN695  SER759  ASP760  ASP761  ALA762  ILE779  LEU786  VAL792 
 PHE793  MET794  SER795  GLU796  ALA797  LYS798  CYS799  TRP800  GLU811  SER814 

> <Gold.Protein.RotatedAtoms>
  152.2456  134.8184  160.0453 H   0  0  0  0  0  0  0  0  0  0  0  0  # atno 6907 bound_to 6896
  151.8883  133.3505  159.3797 H   0  0  0  0  0  0  0  0  0  0  0  0  # atno 6908 bound_to 6896
  150.7067  134.4876  159.5544 H   0  0  0  0  0  0  0  0  0  0  0  0  # atno 6909 bound_to 6896
  146.2228  139.8649  142.8598 H   0  0  0  0  0  0  0  0  0  0  0  0  # atno 7974 bound_to 7965
  154.4881  140.2106  155.9610 H   0  0  0  0  0  0  0  0  0  0  0  0  # atno 8008 bound_to 7997
  156.1265  140.3204  155.8254 H   0  0  0  0  0  0  0  0  0  0  0  0  # atno 8009 bound_to 7997
  155.4373  140.0507  157.3004 H   0  0  0  0  0  0  0  0  0  0  0  0  # atno 8010 bound_to 7997
  140.2618  143.3402  152.0618 H   0  0  0  0  0  0  0  0  0  0  0  0  # atno 10167 bound_to 10162
  156.2936  130.7389  151.1421 H   0  0  0  0  0  0  0  0  0  0  0  0  # atno 10718 bound_to 10713
  153.1231  135.6723  153.9302 H   0  0  0  0  0  0  0  0  0  0  0  0  # atno 10763 bound_to 10752
  153.8811  135.3058  155.3446 H   0  0  0  0  0  0  0  0  0  0  0  0  # atno 10764 bound_to 10752
  154.7640  135.4973  153.9598 H   0  0  0  0  0  0  0  0  0  0  0  0  # atno 10765 bound_to 10752
  141.0040  134.0361  157.3501 H   0  0  0  0  0  0  0  0  0  0  0  0  # atno 11005 bound_to 11000
  145.2667  141.0095  143.3795 LP  0  0  0  0  0  0  0  0  0  0  0  0  # atno 17320 bound_to 7965
  144.9256  139.4360  143.6520 LP  0  0  0  0  0  0  0  0  0  0  0  0  # atno 17321 bound_to 7965
  139.5014  144.6714  151.6234 LP  0  0  0  0  0  0  0  0  0  0  0  0  # atno 17342 bound_to 10162
  140.5960  143.9695  150.6355 LP  0  0  0  0  0  0  0  0  0  0  0  0  # atno 17343 bound_to 10162
  157.7349  131.0577  150.5498 LP  0  0  0  0  0  0  0  0  0  0  0  0  # atno 17370 bound_to 10713
  156.5617  130.4257  149.6060 LP  0  0  0  0  0  0  0  0  0  0  0  0  # atno 17371 bound_to 10713
  139.9053  135.0178  156.7459 LP  0  0  0  0  0  0  0  0  0  0  0  0  # atno 17394 bound_to 11000
  140.6843  133.9447  155.7928 LP  0  0  0  0  0  0  0  0  0  0  0  0  # atno 17395 bound_to 11000

$$$$
