AV-unprocessed.smi:3036|AV-procd|sdf|11582|dock4
  -GOLD-   2272016553D 1   1.00000     0.00000
 Structure written by MMmdl.
 42 43  0  0  0  0  0  0  0  0  2 V2000
  152.0370  144.7640  158.1545 C   0  0  0  0  0  0  0  0  0  0  0  0
  151.4181  143.3602  158.1307 C   0  0  2  0  0  0  0  0  0  0  0  0
  152.3962  142.3048  158.6826 C   0  0  0  0  0  0  0  0  0  0  0  0
  152.6895  142.5081  160.0906 N   0  0  0  0  0  0  0  0  0  0  0  0
  153.5438  141.7908  160.9011 C   0  0  0  0  0  0  0  0  0  0  0  0
  153.5019  142.3613  162.1408 C   0  0  0  0  0  0  0  0  0  0  0  0
  152.5805  143.4346  161.9891 C   0  0  0  0  0  0  0  0  0  0  0  0
  152.0975  143.5216  160.7601 N   0  0  0  0  0  0  0  0  0  0  0  0
  151.0113  143.0182  156.7497 N   0  3  0  0  0  0  0  0  0  0  0  0
  150.5471  141.6261  156.5675 C   0  0  0  0  0  0  0  0  0  0  0  0
  150.2913  141.2881  155.0853 C   0  0  0  0  0  0  0  0  0  0  0  0
  149.9608  139.8099  154.8034 C   0  0  0  0  0  0  0  0  0  0  0  0
  148.7834  139.4811  154.6490 O   0  0  0  0  0  0  0  0  0  0  0  0
  150.9742  138.9134  154.7323 N   0  0  0  0  0  0  0  0  0  0  0  0
  152.3770  139.2676  154.9679 C   0  0  0  0  0  0  0  0  0  0  0  0
  152.8649  138.5169  156.2202 C   0  0  0  0  0  0  0  0  0  0  0  0
  152.6941  137.1137  156.0369 O   0  0  0  0  0  0  0  0  0  0  0  0
  151.3420  136.7429  155.7797 C   0  0  0  0  0  0  0  0  0  0  0  0
  150.8381  137.4687  154.5194 C   0  0  0  0  0  0  0  0  0  0  0  0
  152.3209  145.0503  159.1678 H   0  0  0  0  0  0  0  0  0  0  0  0
  151.3313  145.5108  157.7885 H   0  0  0  0  0  0  0  0  0  0  0  0
  152.9308  144.8163  157.5318 H   0  0  0  0  0  0  0  0  0  0  0  0
  150.5381  143.3781  158.7761 H   0  0  0  0  0  0  0  0  0  0  0  0
  151.9993  141.2977  158.5443 H   0  0  0  0  0  0  0  0  0  0  0  0
  153.3383  142.3448  158.1341 H   0  0  0  0  0  0  0  0  0  0  0  0
  154.1057  140.9452  160.5325 H   0  0  0  0  0  0  0  0  0  0  0  0
  154.0462  142.0578  163.0229 H   0  0  0  0  0  0  0  0  0  0  0  0
  152.2523  144.1489  162.7298 H   0  0  0  0  0  0  0  0  0  0  0  0
  150.2722  143.6451  156.4630 H   0  0  0  0  0  0  0  0  0  0  0  0
  151.3092  140.9498  156.9576 H   0  0  0  0  0  0  0  0  0  0  0  0
  149.6463  141.4610  157.1609 H   0  0  0  0  0  0  0  0  0  0  0  0
  149.4781  141.9144  154.7162 H   0  0  0  0  0  0  0  0  0  0  0  0
  151.1819  141.5514  154.5135 H   0  0  0  0  0  0  0  0  0  0  0  0
  152.9725  138.9807  154.1001 H   0  0  0  0  0  0  0  0  0  0  0  0
  152.5314  140.3393  155.0988 H   0  0  0  0  0  0  0  0  0  0  0  0
  153.9203  138.7235  156.3972 H   0  0  0  0  0  0  0  0  0  0  0  0
  152.3207  138.8458  157.1069 H   0  0  0  0  0  0  0  0  0  0  0  0
  151.2936  135.6629  155.6393 H   0  0  0  0  0  0  0  0  0  0  0  0
  150.7185  136.9821  156.6426 H   0  0  0  0  0  0  0  0  0  0  0  0
  149.8230  137.1476  154.2932 H   0  0  0  0  0  0  0  0  0  0  0  0
  151.4388  137.1767  153.6567 H   0  0  0  0  0  0  0  0  0  0  0  0
  151.8095  143.1644  156.1474 H   0  0  0  0  0  0  0  0  0  0  0  0
  1  2  1  0  0  0  0
  1 20  1  0  0  0  0
  1 21  1  0  0  0  0
  1 22  1  0  0  0  0
  2  3  1  0  0  0  0
  2  9  1  0  0  0  0
  2 23  1  0  0  0  0
  3  4  1  0  0  0  0
  3 24  1  0  0  0  0
  3 25  1  0  0  0  0
  4  8  1  0  0  0  0
  4  5  1  0  0  0  0
  5  6  2  0  0  0  0
  5 26  1  0  0  0  0
  6  7  1  0  0  0  0
  6 27  1  0  0  0  0
  7  8  2  0  0  0  0
  7 28  1  0  0  0  0
  9 10  1  0  0  0  0
  9 29  1  0  0  0  0
  9 42  1  0  0  0  0
 10 11  1  0  0  0  0
 10 30  1  0  0  0  0
 10 31  1  0  0  0  0
 11 12  1  0  0  0  0
 11 32  1  0  0  0  0
 11 33  1  0  0  0  0
 12 13  2  0  0  0  0
 12 14  1  0  0  0  0
 14 19  1  0  0  0  0
 14 15  1  0  0  0  0
 15 16  1  0  0  0  0
 15 34  1  0  0  0  0
 15 35  1  0  0  0  0
 16 17  1  0  0  0  0
 16 36  1  0  0  0  0
 16 37  1  0  0  0  0
 17 18  1  0  0  0  0
 18 19  1  0  0  0  0
 18 38  1  0  0  0  0
 18 39  1  0  0  0  0
 19 40  1  0  0  0  0
 19 41  1  0  0  0  0
M  CHG  1   9   1
M  END
> <s_m_source_file>
AV-unprocessed.smi

> <i_m_source_file_index>
3036

> <i_lp_mmshare_version>
43012

> <i_f3d_flags>
0

> <s_epik_input>
bjFbY0hdW2NIXVtjSF1uMVtDSDJdW0NAQEhdKFtDSDNdKVtOSF1bQ0gyXVtDSDJdQyg9TylOMltDSDJdW0NIMl1PW0NIMl1bQ0gyXTI=

> <s_epik_cmdline>
J2VwaWtfcHl0aG9uJywgJy1waCcsICc3LjAnLCAnLXRuJywgJzgnLCAnLW1hJywgJzIwMCcsICctbWV0YWxfYmluZGluZycsICctaW1hZScsICc8aW5maWxlLm1hZT4nLCAnLW9tYWUnLCAnPG91dGZpbGUubWFlPic=

> <r_lp_tautomer_probability>
1

> <r_epik_Ionization_Penalty>
0.00797109

> <r_epik_Ionization_Penalty_Charging>
0.0079672

> <r_epik_Ionization_Penalty_Neutral>
3.88864e-06

> <r_epik_State_Penalty>
0.00597998

> <r_epik_Charging_Adjusted_Penalty>
0.0139472

> <i_epik_Tot_Q>
1

> <i_epik_Tot_abs_Q>
1

> <r_epik_Metal_State_Penalty>
0.00598029

> <b_epik_Metal_Only>
0

> <s_lp_Force_Field>
OPLS_2005

> <r_lp_Energy>
23.8433

> <b_lp_Chiralities_Consistent>
1

> <s_lp_Variant>
AV-unprocessed.smi:3036-1

> <Gold.Version>
5.8.1

> <Gold.Id.Protein>
6NUR|6NUR_protein|mol2

> <Gold.PLP.Fitness>
54.2780

> <Gold.PLP.PLP>
-46.5849

> <Gold.PLP.part.hbond>
-2.0000

> <Gold.PLP.part.metal>
0.0000

> <Gold.PLP.part.buried>
-4.2610

> <Gold.PLP.part.nonpolar>
-40.9656

> <Gold.PLP.part.repulsive>
0.2383

> <Gold.PLP.ligand.clash>
0.0000

> <Gold.PLP.ligand.torsion>
0.3733

> <Gold.PLP.Chemscore.Hbond>
2.7840

> <Gold.PLP.Chemscore.CHOScore>
0.0000

> <Gold.PLP.Chemscore.Metal>
0.0000

> <Gold.Chemscore.Hbonds>
donor molecule, donor type, donor heavy atom, donor atom, acceptor molecule, acceptor atom, score
      L1  H     9    29       P1  8028  2.00
      P1  H 10752 10764       L1    17  0.41

> <Gold.PLP.Chemscore.Internal.Correction>
0.0877

> <Gold.Rescore>
     Score         DG    S(hbond)    S(metal)    S(lipo)     H(rot)  DE(clash)    DE(int)     intcor
     16.96     -18.75       1.77        0.00     107.99       2.07       0.13       1.66       ----

> <Gold.Chemscore.Fitness>
16.9609

> <Gold.Chemscore.DG>
-18.7472

> <Gold.Chemscore.ZeroCoef>
-5.4800

> <Gold.Chemscore.Hbond>
1.7745

> <Gold.Chemscore.Metal>
0.0000

> <Gold.Chemscore.Lipo>
107.9868

> <Gold.Chemscore.Internal_Hbond>
0.0000

> <Gold.Chemscore.DEClash>
0.1271

> <Gold.Chemscore.DEInternal>
1.6592

> <Gold.Chemscore.Rot>
2.0680

> <Gold.Chemscore.Internal.Correction>
   9.000000E+99

> <Gold.Chemscore.Hbonds>
donor molecule, donor type, donor heavy atom, donor atom, acceptor molecule, acceptor atom, score
      L1  H     9    29       P1  8028  1.00
      P1  H 10752 10764       L1    17  0.03

> <Gold.Chemscore.Hbond.Weighted>
-5.9269

> <Gold.Chemscore.Metal.Weighted>
-0.0000

> <Gold.Chemscore.Lipo.Weighted>
-12.6345

> <Gold.Chemscore.Internal_Hbond.Weighted>
0.0000

> <Gold.Chemscore.DEClash.Weighted>
0.1271

> <Gold.Chemscore.DEInternal.Weighted>
1.6592

> <Gold.Chemscore.Rot.Weighted>
5.2941

> <Gold.Chemscore.Internal.Correction.Weighted>
   9.000000E+99

> <Gold.Protein.RotatedTorsions>
[ 6907 6896 6895 6894 ] final  152.23 input  -60.11 | X-H torsion
[ 7974 7965 7964 7962 ] final  -94.05 input  175.53 | X-H torsion
[ 8008 7997 7996 7995 ] final  157.93 input   59.86 | X-H torsion
[ 10167 10162 10161 10158 ] final  118.34 input  -65.29 | X-H torsion
[ 10718 10713 10712 10709 ] final  151.50 input   66.30 | X-H torsion
[ 10763 10752 10751 10750 ] final  -11.82 input  -60.55 | X-H torsion
[ 11005 11000 10999 10996 ] final  156.82 input  -57.11 | X-H torsion

> <Gold.Protein.ActiveResidues>
 VAL166  LYS551  ARG553  GLY616  TRP617  ASP618  TYR619  PRO620  LYS621  CYS622 
 ASP623  PHE694  ASN695  SER759  ASP760  ASP761  ALA762  ILE779  LEU786  VAL792 
 PHE793  MET794  SER795  GLU796  ALA797  LYS798  CYS799  TRP800  GLU811  SER814 

> <Gold.Protein.RotatedAtoms>
  152.0896  133.4193  159.4537 H   0  0  0  0  0  0  0  0  0  0  0  0  # atno 6907 bound_to 6896
  150.6862  134.2887  159.4667 H   0  0  0  0  0  0  0  0  0  0  0  0  # atno 6908 bound_to 6896
  152.0737  134.9516  160.0625 H   0  0  0  0  0  0  0  0  0  0  0  0  # atno 6909 bound_to 6896
  145.3784  140.9514  143.2407 H   0  0  0  0  0  0  0  0  0  0  0  0  # atno 7974 bound_to 7965
  156.2334  140.1872  156.7183 H   0  0  0  0  0  0  0  0  0  0  0  0  # atno 8008 bound_to 7997
  154.6063  140.0628  156.9462 H   0  0  0  0  0  0  0  0  0  0  0  0  # atno 8009 bound_to 7997
  155.2091  140.3298  155.4334 H   0  0  0  0  0  0  0  0  0  0  0  0  # atno 8010 bound_to 7997
  139.6118  144.7083  151.2828 H   0  0  0  0  0  0  0  0  0  0  0  0  # atno 10167 bound_to 10162
  157.2699  131.0815  151.1607 H   0  0  0  0  0  0  0  0  0  0  0  0  # atno 10718 bound_to 10713
  153.4894  135.7017  153.5892 H   0  0  0  0  0  0  0  0  0  0  0  0  # atno 10763 bound_to 10752
  153.4071  135.3857  155.2026 H   0  0  0  0  0  0  0  0  0  0  0  0  # atno 10764 bound_to 10752
  154.8717  135.3895  154.4353 H   0  0  0  0  0  0  0  0  0  0  0  0  # atno 10765 bound_to 10752
  140.1711  134.8542  157.2692 H   0  0  0  0  0  0  0  0  0  0  0  0  # atno 11005 bound_to 11000
  144.8525  139.5300  143.6850 LP  0  0  0  0  0  0  0  0  0  0  0  0  # atno 17320 bound_to 7965
  146.2853  139.6987  142.9200 LP  0  0  0  0  0  0  0  0  0  0  0  0  # atno 17321 bound_to 7965
  140.7324  143.6824  150.7989 LP  0  0  0  0  0  0  0  0  0  0  0  0  # atno 17342 bound_to 10162
  140.0420  143.5336  152.2713 LP  0  0  0  0  0  0  0  0  0  0  0  0  # atno 17343 bound_to 10162
  157.3082  130.6877  149.6201 LP  0  0  0  0  0  0  0  0  0  0  0  0  # atno 17370 bound_to 10713
  155.9663  130.4371  150.5163 LP  0  0  0  0  0  0  0  0  0  0  0  0  # atno 17371 bound_to 10713
  140.2376  134.3834  155.7494 LP  0  0  0  0  0  0  0  0  0  0  0  0  # atno 17394 bound_to 11000
  141.2217  133.7248  156.8738 LP  0  0  0  0  0  0  0  0  0  0  0  0  # atno 17395 bound_to 11000

$$$$
