AV-unprocessed.smi:2881|AV-procd|sdf|11061|dock2
  -GOLD-   2272015533D 1   1.00000     0.00000
 Structure written by MMmdl.
 40 42  0  0  0  0  0  0  0  0  1 V2000
  148.1578  124.2495  149.2621 C   0  0  0  0  0  0  0  0  0  0  0  0
  148.2274  125.2663  150.3503 C   0  0  0  0  0  0  0  0  0  0  0  0
  148.5769  126.5868  150.3321 C   0  0  0  0  0  0  0  0  0  0  0  0
  148.4327  127.0098  151.6868 C   0  0  0  0  0  0  0  0  0  0  0  0
  148.6601  128.3852  152.2557 C   0  0  0  0  0  0  0  0  0  0  0  0
  147.3149  129.0134  152.6173 C   0  0  0  0  0  0  0  0  0  0  0  0
  146.6407  128.5440  153.5338 O   0  0  0  0  0  0  0  0  0  0  0  0
  146.9587  130.0964  151.9097 N   0  0  0  0  0  0  0  0  0  0  0  0
  145.8010  130.9482  152.1819 C   0  0  2  0  0  0  0  0  0  0  0  0
  144.9550  131.2268  150.9151 C   0  0  2  0  0  0  0  0  0  0  0  0
  145.8351  131.7098  149.7423 C   0  0  0  0  0  0  0  0  0  0  0  0
  146.2565  133.1181  150.1974 C   0  0  0  0  0  0  0  0  0  0  0  0
  145.5417  133.2713  151.5569 C   0  0  1  0  0  0  0  0  0  0  0  0
  144.2414  132.5213  151.2921 C   0  0  0  0  0  0  0  0  0  0  0  0
  146.1779  132.3828  152.6546 C   0  0  2  0  0  0  0  0  0  0  0  0
  147.6678  132.6580  152.9688 C   0  0  0  0  0  0  0  0  0  0  0  0
  147.8566  134.0122  153.3198 O   0  0  0  0  0  0  0  0  0  0  0  0
  148.0323  126.0265  152.4819 N   0  0  0  0  0  0  0  0  0  0  0  0
  147.9090  124.9710  151.6557 N   0  0  0  0  0  0  0  0  0  0  0  0
  147.6123  124.0660  151.9926 H   0  0  0  0  0  0  0  0  0  0  0  0
  148.5897  124.6369  148.3391 H   0  0  0  0  0  0  0  0  0  0  0  0
  147.1236  123.9713  149.0588 H   0  0  0  0  0  0  0  0  0  0  0  0
  148.7050  123.3473  149.5363 H   0  0  0  0  0  0  0  0  0  0  0  0
  148.8825  127.1710  149.4765 H   0  0  0  0  0  0  0  0  0  0  0  0
  149.2969  128.3469  153.1409 H   0  0  0  0  0  0  0  0  0  0  0  0
  149.1728  129.0169  151.5295 H   0  0  0  0  0  0  0  0  0  0  0  0
  147.5796  130.4003  151.1734 H   0  0  0  0  0  0  0  0  0  0  0  0
  145.1591  130.4817  152.9317 H   0  0  0  0  0  0  0  0  0  0  0  0
  144.2927  130.4031  150.6473 H   0  0  0  0  0  0  0  0  0  0  0  0
  146.6864  131.0621  149.5329 H   0  0  0  0  0  0  0  0  0  0  0  0
  145.2452  131.7712  148.8266 H   0  0  0  0  0  0  0  0  0  0  0  0
  147.3373  133.2348  150.2610 H   0  0  0  0  0  0  0  0  0  0  0  0
  145.8939  133.8652  149.4904 H   0  0  0  0  0  0  0  0  0  0  0  0
  145.4085  134.3094  151.8628 H   0  0  0  0  0  0  0  0  0  0  0  0
  143.6525  132.9462  150.4769 H   0  0  0  0  0  0  0  0  0  0  0  0
  143.6068  132.4251  152.1750 H   0  0  0  0  0  0  0  0  0  0  0  0
  145.6285  132.5682  153.5796 H   0  0  0  0  0  0  0  0  0  0  0  0
  147.9931  132.0452  153.8097 H   0  0  0  0  0  0  0  0  0  0  0  0
  148.3199  132.4114  152.1316 H   0  0  0  0  0  0  0  0  0  0  0  0
  148.1348  134.4851  152.5503 H   0  0  0  0  0  0  0  0  0  0  0  0
  1  2  1  0  0  0  0
  1 21  1  0  0  0  0
  1 22  1  0  0  0  0
  1 23  1  0  0  0  0
  2 19  1  0  0  0  0
  2  3  2  0  0  0  0
  3  4  1  0  0  0  0
  3 24  1  0  0  0  0
  4  5  1  0  0  0  0
  4 18  2  0  0  0  0
  5  6  1  0  0  0  0
  5 25  1  0  0  0  0
  5 26  1  0  0  0  0
  6  7  2  0  0  0  0
  6  8  1  0  0  0  0
  8  9  1  0  0  0  0
  8 27  1  0  0  0  0
  9 15  1  0  0  0  0
  9 10  1  0  0  0  0
  9 28  1  0  0  0  0
 10 14  1  0  0  0  0
 10 11  1  0  0  0  0
 10 29  1  0  0  0  0
 11 12  1  0  0  0  0
 11 30  1  0  0  0  0
 11 31  1  0  0  0  0
 12 13  1  0  0  0  0
 12 32  1  0  0  0  0
 12 33  1  0  0  0  0
 13 14  1  0  0  0  0
 13 15  1  0  0  0  0
 13 34  1  0  0  0  0
 14 35  1  0  0  0  0
 14 36  1  0  0  0  0
 15 16  1  0  0  0  0
 15 37  1  0  0  0  0
 16 17  1  0  0  0  0
 16 38  1  0  0  0  0
 16 39  1  0  0  0  0
 17 40  1  0  0  0  0
 18 19  1  0  0  0  0
 19 20  1  0  0  0  0
M  END
> <s_m_source_file>
AV-unprocessed.smi

> <i_m_source_file_index>
2881

> <i_lp_mmshare_version>
43012

> <i_f3d_flags>
0

> <s_epik_input>
W0NIM11jMVtjSF1jKG5bbkhdMSlbQ0gyXUMoPU8pW05IXVtDQEhdKFtDQEBIXTIzKVtDQEhdKFtDSDJdW09IXSlbQ0BASF0oW0NIMl0zKVtDSDJdW0NIMl0y

> <s_epik_cmdline>
J2VwaWtfcHl0aG9uJywgJy1waCcsICc3LjAnLCAnLXRuJywgJzgnLCAnLW1hJywgJzIwMCcsICctbWV0YWxfYmluZGluZycsICctaW1hZScsICc8aW5maWxlLm1hZT4nLCAnLW9tYWUnLCAnPG91dGZpbGUubWFlPic=

> <r_lp_tautomer_probability>
0.5

> <r_epik_Ionization_Penalty>
9.4349e-05

> <r_epik_Ionization_Penalty_Charging>
0

> <r_epik_Ionization_Penalty_Neutral>
9.4349e-05

> <r_epik_State_Penalty>
0.41068

> <r_epik_Charging_Adjusted_Penalty>
0.41068

> <i_epik_Tot_Q>
0

> <i_epik_Tot_abs_Q>
0

> <r_epik_Metal_State_Penalty>
0.4107

> <b_epik_Metal_Only>
0

> <s_lp_Force_Field>
OPLS_2005

> <r_lp_Energy>
48.5283

> <b_lp_Chiralities_Consistent>
1

> <s_lp_Variant>
AV-unprocessed.smi:2881-7

> <Gold.Version>
5.8.1

> <Gold.Id.Protein>
6NUR|6NUR_protein|mol2

> <Gold.PLP.Fitness>
43.6464

> <Gold.PLP.PLP>
-38.1595

> <Gold.PLP.part.hbond>
-2.0000

> <Gold.PLP.part.metal>
0.0000

> <Gold.PLP.part.buried>
-4.9162

> <Gold.PLP.part.nonpolar>
-30.9182

> <Gold.PLP.part.repulsive>
0.5487

> <Gold.PLP.ligand.clash>
0.0000

> <Gold.PLP.ligand.torsion>
0.2517

> <Gold.PLP.Chemscore.Hbond>
1.9920

> <Gold.PLP.Chemscore.CHOScore>
0.0000

> <Gold.PLP.Chemscore.Metal>
0.0000

> <Gold.Chemscore.Hbonds>
donor molecule, donor type, donor heavy atom, donor atom, acceptor molecule, acceptor atom, score
      L1  H     8    27       P1 10747  1.00
      L1  H    17    40       P1  7948  0.93

> <Gold.PLP.Chemscore.Internal.Correction>
0.0144

> <Gold.Rescore>
     Score         DG    S(hbond)    S(metal)    S(lipo)     H(rot)  DE(clash)    DE(int)     intcor
     15.98     -16.73       1.47        0.00     103.98       2.28       0.18       0.57       ----

> <Gold.Chemscore.Fitness>
15.9769

> <Gold.Chemscore.DG>
-16.7294

> <Gold.Chemscore.ZeroCoef>
-5.4800

> <Gold.Chemscore.Hbond>
1.4699

> <Gold.Chemscore.Metal>
0.0000

> <Gold.Chemscore.Lipo>
103.9761

> <Gold.Chemscore.Internal_Hbond>
0.0000

> <Gold.Chemscore.DEClash>
0.1800

> <Gold.Chemscore.DEInternal>
0.5724

> <Gold.Chemscore.Rot>
2.2755

> <Gold.Chemscore.Internal.Correction>
   9.000000E+99

> <Gold.Chemscore.Hbonds>
donor molecule, donor type, donor heavy atom, donor atom, acceptor molecule, acceptor atom, score
      L1  H     8    27       P1 10747  1.00
      L1  H    17    40       P1  7948  0.30

> <Gold.Chemscore.Hbond.Weighted>
-4.9094

> <Gold.Chemscore.Metal.Weighted>
-0.0000

> <Gold.Chemscore.Lipo.Weighted>
-12.1652

> <Gold.Chemscore.Internal_Hbond.Weighted>
0.0000

> <Gold.Chemscore.DEClash.Weighted>
0.1800

> <Gold.Chemscore.DEInternal.Weighted>
0.5724

> <Gold.Chemscore.Rot.Weighted>
5.8252

> <Gold.Chemscore.Internal.Correction.Weighted>
   9.000000E+99

> <Gold.Protein.RotatedTorsions>
[ 6907 6896 6895 6894 ] final  -18.25 input  -60.11 | X-H torsion
[ 7974 7965 7964 7962 ] final -126.70 input  175.53 | X-H torsion
[ 8008 7997 7996 7995 ] final  131.61 input   59.86 | X-H torsion
[ 10167 10162 10161 10158 ] final  146.72 input  -65.29 | X-H torsion
[ 10718 10713 10712 10709 ] final  108.09 input   66.30 | X-H torsion
[ 10763 10752 10751 10750 ] final   46.14 input  -60.55 | X-H torsion
[ 11005 11000 10999 10996 ] final  -96.90 input  -57.11 | X-H torsion

> <Gold.Protein.ActiveResidues>
 VAL166  LYS551  ARG553  GLY616  TRP617  ASP618  TYR619  PRO620  LYS621  CYS622 
 ASP623  PHE694  ASN695  SER759  ASP760  ASP761  ALA762  ILE779  LEU786  VAL792 
 PHE793  MET794  SER795  GLU796  ALA797  LYS798  CYS799  TRP800  GLU811  SER814 

> <Gold.Protein.RotatedAtoms>
  151.2811  135.0714  159.9169 H   0  0  0  0  0  0  0  0  0  0  0  0  # atno 6907 bound_to 6896
  152.5334  134.0030  159.7913 H   0  0  0  0  0  0  0  0  0  0  0  0  # atno 6908 bound_to 6896
  151.0284  133.5762  159.2694 H   0  0  0  0  0  0  0  0  0  0  0  0  # atno 6909 bound_to 6896
  144.9846  140.7674  143.4591 H   0  0  0  0  0  0  0  0  0  0  0  0  # atno 7974 bound_to 7965
  156.2972  140.2567  156.2954 H   0  0  0  0  0  0  0  0  0  0  0  0  # atno 8008 bound_to 7997
  154.9469  140.0395  157.2143 H   0  0  0  0  0  0  0  0  0  0  0  0  # atno 8009 bound_to 7997
  154.8073  140.2838  155.5883 H   0  0  0  0  0  0  0  0  0  0  0  0  # atno 8010 bound_to 7997
  139.4902  144.5809  151.6874 H   0  0  0  0  0  0  0  0  0  0  0  0  # atno 10167 bound_to 10162
  157.6601  131.0886  150.6254 H   0  0  0  0  0  0  0  0  0  0  0  0  # atno 10718 bound_to 10713
  152.9814  135.6017  154.3552 H   0  0  0  0  0  0  0  0  0  0  0  0  # atno 10763 bound_to 10752
  154.3238  135.2769  155.2508 H   0  0  0  0  0  0  0  0  0  0  0  0  # atno 10764 bound_to 10752
  154.4663  135.5953  153.6346 H   0  0  0  0  0  0  0  0  0  0  0  0  # atno 10765 bound_to 10752
  141.1396  133.8131  157.0634 H   0  0  0  0  0  0  0  0  0  0  0  0  # atno 11005 bound_to 11000
  145.2372  139.2088  143.5012 LP  0  0  0  0  0  0  0  0  0  0  0  0  # atno 17320 bound_to 7965
  146.3417  140.2260  142.8592 LP  0  0  0  0  0  0  0  0  0  0  0  0  # atno 17321 bound_to 7965
  140.5415  144.0572  150.6090 LP  0  0  0  0  0  0  0  0  0  0  0  0  # atno 17342 bound_to 10162
  140.3596  143.2916  152.0399 LP  0  0  0  0  0  0  0  0  0  0  0  0  # atno 17343 bound_to 10162
  156.6557  130.4498  149.5704 LP  0  0  0  0  0  0  0  0  0  0  0  0  # atno 17370 bound_to 10713
  156.2104  130.6675  151.1263 LP  0  0  0  0  0  0  0  0  0  0  0  0  # atno 17371 bound_to 10713
  140.0557  134.9782  157.1216 LP  0  0  0  0  0  0  0  0  0  0  0  0  # atno 17394 bound_to 11000
  140.3923  134.2171  155.7166 LP  0  0  0  0  0  0  0  0  0  0  0  0  # atno 17395 bound_to 11000

$$$$
