AV-unprocessed.smi:3261|AV-procd|sdf|12478|dock7
  -GOLD-   2272018383D 1   1.00000     0.00000
 Structure written by MMmdl.
 30 31  0  0  0  0  0  0  0  0  1 V2000
  147.0610  132.4647  154.1503 O   0  0  0  0  0  0  0  0  0  0  0  0
  147.5109  133.4001  153.4924 C   0  0  0  0  0  0  0  0  0  0  0  0
  147.0485  133.7875  152.2868 N   0  0  0  0  0  0  0  0  0  0  0  0
  146.0252  133.2083  151.4881 C   0  0  0  0  0  0  0  0  0  0  0  0
  145.8708  131.8076  151.5429 C   0  0  0  0  0  0  0  0  0  0  0  0
  144.8533  131.2051  150.7769 C   0  0  0  0  0  0  0  0  0  0  0  0
  144.0052  131.9021  149.9922 N   0  0  0  0  0  0  0  0  0  0  0  0
  144.1458  133.2438  149.9500 C   0  0  0  0  0  0  0  0  0  0  0  0
  145.1295  133.9450  150.6757 C   0  0  0  0  0  0  0  0  0  0  0  0
  148.5194  134.1555  153.9642 N   0  0  0  0  0  0  0  0  0  0  0  0
  149.2446  134.0131  155.2278 C   0  0  2  0  0  0  0  0  0  0  0  0
  150.5263  134.8669  155.2275 C   0  0  0  0  0  0  0  0  0  0  0  0
  151.4154  134.4193  156.3942 C   0  0  0  0  0  0  0  0  0  0  0  0
  151.0779  132.6336  156.6361 S   0  0  0  0  0  0  0  0  0  0  0  0
  152.1857  131.8407  156.0822 O   0  0  0  0  0  0  0  0  0  0  0  0
  150.6079  132.4202  158.0133 O   0  0  0  0  0  0  0  0  0  0  0  0
  149.6524  132.5541  155.4884 C   0  0  0  0  0  0  0  0  0  0  0  0
  147.4633  134.6262  151.9084 H   0  0  0  0  0  0  0  0  0  0  0  0
  146.5203  131.2007  152.1568 H   0  0  0  0  0  0  0  0  0  0  0  0
  144.7159  130.1341  150.7970 H   0  0  0  0  0  0  0  0  0  0  0  0
  143.4481  133.7780  149.3224 H   0  0  0  0  0  0  0  0  0  0  0  0
  145.1641  135.0207  150.6023 H   0  0  0  0  0  0  0  0  0  0  0  0
  148.7965  134.9375  153.3882 H   0  0  0  0  0  0  0  0  0  0  0  0
  148.6259  134.3603  156.0575 H   0  0  0  0  0  0  0  0  0  0  0  0
  151.0678  134.7027  154.2944 H   0  0  0  0  0  0  0  0  0  0  0  0
  150.3041  135.9332  155.2820 H   0  0  0  0  0  0  0  0  0  0  0  0
  152.4770  134.5811  156.2070 H   0  0  0  0  0  0  0  0  0  0  0  0
  151.1407  134.9405  157.3117 H   0  0  0  0  0  0  0  0  0  0  0  0
  148.8540  131.9532  155.9241 H   0  0  0  0  0  0  0  0  0  0  0  0
  149.9920  132.0700  154.5718 H   0  0  0  0  0  0  0  0  0  0  0  0
  1  2  2  0  0  0  0
  2  3  1  0  0  0  0
  2 10  1  0  0  0  0
  3  4  1  0  0  0  0
  3 18  1  0  0  0  0
  4  9  1  0  0  0  0
  4  5  2  0  0  0  0
  5  6  1  0  0  0  0
  5 19  1  0  0  0  0
  6  7  2  0  0  0  0
  6 20  1  0  0  0  0
  7  8  1  0  0  0  0
  8  9  2  0  0  0  0
  8 21  1  0  0  0  0
  9 22  1  0  0  0  0
 10 11  1  0  0  0  0
 10 23  1  0  0  0  0
 11 17  1  0  0  0  0
 11 12  1  0  0  0  0
 11 24  1  0  0  0  0
 12 13  1  0  0  0  0
 12 25  1  0  0  0  0
 12 26  1  0  0  0  0
 13 14  1  0  0  0  0
 13 27  1  0  0  0  0
 13 28  1  0  0  0  0
 14 15  2  0  0  0  0
 14 16  2  0  0  0  0
 14 17  1  0  0  0  0
 17 29  1  0  0  0  0
 17 30  1  0  0  0  0
M  END
> <s_m_source_file>
AV-unprocessed.smi

> <i_m_source_file_index>
3261

> <i_lp_mmshare_version>
43012

> <i_f3d_flags>
0

> <s_epik_input>
Tz1TMSg9TylbQ0gyXVtDSDJdW0NASF0oW0NIMl0xKVtOSF1DKD1PKVtOSF1jMltjSF1bY0hdbltjSF1bY0hdMg==

> <s_epik_cmdline>
J2VwaWtfcHl0aG9uJywgJy1waCcsICc3LjAnLCAnLXRuJywgJzgnLCAnLW1hJywgJzIwMCcsICctbWV0YWxfYmluZGluZycsICctaW1hZScsICc8aW5maWxlLm1hZT4nLCAnLW9tYWUnLCAnPG91dGZpbGUubWFlPic=

> <r_epik_Ionization_Penalty>
0.0999693

> <r_epik_Ionization_Penalty_Charging>
0

> <r_epik_Ionization_Penalty_Neutral>
0.0999693

> <r_epik_State_Penalty>
0.0899812

> <r_epik_Charging_Adjusted_Penalty>
0.0899812

> <i_epik_Tot_Q>
0

> <i_epik_Tot_abs_Q>
0

> <r_epik_Metal_State_Penalty>
0.0778619

> <b_epik_Metal_Only>
0

> <s_lp_Force_Field>
OPLS_2005

> <r_lp_Energy>
18.6703

> <b_lp_Chiralities_Consistent>
1

> <s_lp_Variant>
AV-unprocessed.smi:3261-1

> <Gold.Version>
5.8.1

> <Gold.Id.Protein>
6NUR|6NUR_protein|mol2

> <Gold.PLP.Fitness>
36.6051

> <Gold.PLP.PLP>
-25.4990

> <Gold.PLP.part.hbond>
-3.5065

> <Gold.PLP.part.metal>
0.0000

> <Gold.PLP.part.buried>
-4.0918

> <Gold.PLP.part.nonpolar>
-18.9977

> <Gold.PLP.part.repulsive>
0.2451

> <Gold.PLP.ligand.clash>
0.0000

> <Gold.PLP.ligand.torsion>
0.3968

> <Gold.PLP.Chemscore.Hbond>
2.9720

> <Gold.PLP.Chemscore.CHOScore>
0.9943

> <Gold.PLP.Chemscore.Metal>
0.0000

> <Gold.Chemscore.Hbonds>
donor molecule, donor type, donor heavy atom, donor atom, acceptor molecule, acceptor atom, score
      L1  H     3    18       P1  7948  0.73
      L1  H    10    23       P1  7948  1.00
      P1  H  6896  6909       L1    16  1.00
      P1  H 10785 10796       L1     7  0.22
      L1  C     8    21       P1 10186  1.00

> <Gold.PLP.Chemscore.Internal.Correction>
0.0006

> <Gold.Rescore>
     Score         DG    S(hbond)    S(metal)    S(lipo)     H(rot)  DE(clash)    DE(int)     intcor
     15.24     -18.43       2.54        0.00      60.03       1.00       0.03       3.17       ----

> <Gold.Chemscore.Fitness>
15.2402

> <Gold.Chemscore.DG>
-18.4347

> <Gold.Chemscore.ZeroCoef>
-5.4800

> <Gold.Chemscore.Hbond>
2.5423

> <Gold.Chemscore.Metal>
0.0000

> <Gold.Chemscore.Lipo>
60.0278

> <Gold.Chemscore.Internal_Hbond>
0.0000

> <Gold.Chemscore.DEClash>
0.0268

> <Gold.Chemscore.DEInternal>
3.1677

> <Gold.Chemscore.Rot>
1.0000

> <Gold.Chemscore.Internal.Correction>
   9.000000E+99

> <Gold.Chemscore.Hbonds>
donor molecule, donor type, donor heavy atom, donor atom, acceptor molecule, acceptor atom, score
      L1  H     3    18       P1  7948  0.43
      L1  H    10    23       P1  7948  0.44
      P1  H  6896  6909       L1    16  0.97
      P1  H 10785 10796       L1     7  0.04

> <Gold.Chemscore.Hbond.Weighted>
-8.4914

> <Gold.Chemscore.Metal.Weighted>
-0.0000

> <Gold.Chemscore.Lipo.Weighted>
-7.0233

> <Gold.Chemscore.Internal_Hbond.Weighted>
0.0000

> <Gold.Chemscore.DEClash.Weighted>
0.0268

> <Gold.Chemscore.DEInternal.Weighted>
3.1677

> <Gold.Chemscore.Rot.Weighted>
2.5600

> <Gold.Chemscore.Internal.Correction.Weighted>
   9.000000E+99

> <Gold.Protein.RotatedTorsions>
[ 6907 6896 6895 6894 ] final  -27.31 input  -60.11 | X-H torsion
[ 7974 7965 7964 7962 ] final  127.65 input  175.53 | X-H torsion
[ 8008 7997 7996 7995 ] final  -61.79 input   59.86 | X-H torsion
[ 10167 10162 10161 10158 ] final -146.56 input  -65.29 | X-H torsion
[ 10718 10713 10712 10709 ] final  146.61 input   66.30 | X-H torsion
[ 10763 10752 10751 10750 ] final   62.19 input  -60.55 | X-H torsion
[ 11005 11000 10999 10996 ] final   32.21 input  -57.11 | X-H torsion

> <Gold.Protein.ActiveResidues>
 VAL166  LYS551  ARG553  GLY616  TRP617  ASP618  TYR619  PRO620  LYS621  CYS622 
 ASP623  PHE694  ASN695  SER759  ASP760  ASP761  ALA762  ILE779  LEU786  VAL792 
 PHE793  MET794  SER795  GLU796  ALA797  LYS798  CYS799  TRP800  GLU811  SER814 

> <Gold.Protein.RotatedAtoms>
  151.1487  135.0216  159.8658 H   0  0  0  0  0  0  0  0  0  0  0  0  # atno 6907 bound_to 6896
  152.5453  134.1414  159.8490 H   0  0  0  0  0  0  0  0  0  0  0  0  # atno 6908 bound_to 6896
  151.1497  133.4870  159.2628 H   0  0  0  0  0  0  0  0  0  0  0  0  # atno 6909 bound_to 6896
  145.0483  139.3905  143.5067 H   0  0  0  0  0  0  0  0  0  0  0  0  # atno 7974 bound_to 7965
  154.4466  140.1010  156.6487 H   0  0  0  0  0  0  0  0  0  0  0  0  # atno 8008 bound_to 7997
  155.5422  140.3484  155.4431 H   0  0  0  0  0  0  0  0  0  0  0  0  # atno 8009 bound_to 7997
  156.0589  140.1321  156.9953 H   0  0  0  0  0  0  0  0  0  0  0  0  # atno 8010 bound_to 7997
  139.7702  143.8249  152.2623 H   0  0  0  0  0  0  0  0  0  0  0  0  # atno 10167 bound_to 10162
  157.3311  131.0920  151.1161 H   0  0  0  0  0  0  0  0  0  0  0  0  # atno 10718 bound_to 10713
  152.9974  135.5474  154.6153 H   0  0  0  0  0  0  0  0  0  0  0  0  # atno 10763 bound_to 10752
  154.5464  135.2823  155.1050 H   0  0  0  0  0  0  0  0  0  0  0  0  # atno 10764 bound_to 10752
  154.2307  135.6434  153.5227 H   0  0  0  0  0  0  0  0  0  0  0  0  # atno 10765 bound_to 10752
  140.2759  134.3029  155.7814 H   0  0  0  0  0  0  0  0  0  0  0  0  # atno 11005 bound_to 11000
  146.3516  140.0119  142.8666 LP  0  0  0  0  0  0  0  0  0  0  0  0  # atno 17320 bound_to 7965
  145.1560  140.9648  143.4405 LP  0  0  0  0  0  0  0  0  0  0  0  0  # atno 17321 bound_to 7965
  139.8281  144.7266  150.9486 LP  0  0  0  0  0  0  0  0  0  0  0  0  # atno 17342 bound_to 10162
  140.7813  143.4096  151.1015 LP  0  0  0  0  0  0  0  0  0  0  0  0  # atno 17343 bound_to 10162
  157.2409  130.6569  149.5889 LP  0  0  0  0  0  0  0  0  0  0  0  0  # atno 17370 bound_to 10713
  155.9696  130.4568  150.5941 LP  0  0  0  0  0  0  0  0  0  0  0  0  # atno 17371 bound_to 10713
  141.2170  133.7495  156.9406 LP  0  0  0  0  0  0  0  0  0  0  0  0  # atno 17394 bound_to 11000
  140.1329  134.9344  157.2362 LP  0  0  0  0  0  0  0  0  0  0  0  0  # atno 17395 bound_to 11000

$$$$
