AV-unprocessed.smi:2594|AV-procd|sdf|10167|dock1
  -GOLD-   2272014183D 1   1.00000     0.00000
 Structure written by MMmdl.
 29 30  0  0  0  0  0  0  0  0  1 V2000
  150.0882  140.2160  154.4268 O   0  0  0  0  0  0  0  0  0  0  0  0
  149.4091  141.1429  154.8720 C   0  0  0  0  0  0  0  0  0  0  0  0
  148.0300  141.4662  154.2813 C   0  0  0  0  0  0  0  0  0  0  0  0
  146.9922  141.6444  155.2978 N   0  0  0  0  0  0  0  0  0  0  0  0
  147.2113  141.1299  156.5378 N   0  0  0  0  0  0  0  0  0  0  0  0
  146.2199  141.3500  157.3191 C   0  0  0  0  0  0  0  0  0  0  0  0
  144.8602  142.2407  156.6227 S   0  0  0  0  0  0  0  0  0  0  0  0
  145.7827  142.3033  155.0956 C   0  0  0  0  0  0  0  0  0  0  0  0
  145.3689  142.8487  154.0741 O   0  0  0  0  0  0  0  0  0  0  0  0
  149.8013  141.9122  155.8985 N   0  0  0  0  0  0  0  0  0  0  0  0
  151.0603  141.7700  156.6204 C   0  0  0  0  0  0  0  0  0  0  0  0
  151.1473  142.7469  157.8046 C   0  0  1  0  0  0  0  0  0  0  0  0
  152.3218  142.4752  158.7412 C   0  0  0  0  0  0  0  0  0  0  0  0
  152.4974  143.8240  159.4009 C   0  0  0  0  0  0  0  0  0  0  0  0
  152.2130  144.7824  158.2465 C   0  0  0  0  0  0  0  0  0  0  0  0
  151.3602  144.0792  157.3452 O   0  0  0  0  0  0  0  0  0  0  0  0
  148.1171  142.3669  153.6711 H   0  0  0  0  0  0  0  0  0  0  0  0
  147.7287  140.6649  153.6044 H   0  0  0  0  0  0  0  0  0  0  0  0
  146.1412  141.0414  158.3613 H   0  0  0  0  0  0  0  0  0  0  0  0
  149.1789  142.6443  156.2088 H   0  0  0  0  0  0  0  0  0  0  0  0
  151.1726  140.7421  156.9693 H   0  0  0  0  0  0  0  0  0  0  0  0
  151.8793  141.9513  155.9235 H   0  0  0  0  0  0  0  0  0  0  0  0
  150.2232  142.7310  158.3850 H   0  0  0  0  0  0  0  0  0  0  0  0
  152.1220  141.6734  159.4525 H   0  0  0  0  0  0  0  0  0  0  0  0
  153.2177  142.2171  158.1745 H   0  0  0  0  0  0  0  0  0  0  0  0
  151.7530  143.9525  160.1876 H   0  0  0  0  0  0  0  0  0  0  0  0
  153.4857  143.9639  159.8396 H   0  0  0  0  0  0  0  0  0  0  0  0
  151.7513  145.7097  158.5866 H   0  0  0  0  0  0  0  0  0  0  0  0
  153.1348  145.0363  157.7219 H   0  0  0  0  0  0  0  0  0  0  0  0
  1  2  2  0  0  0  0
  2  3  1  0  0  0  0
  2 10  1  0  0  0  0
  3  4  1  0  0  0  0
  3 17  1  0  0  0  0
  3 18  1  0  0  0  0
  4  8  1  0  0  0  0
  4  5  1  0  0  0  0
  5  6  2  0  0  0  0
  6  7  1  0  0  0  0
  6 19  1  0  0  0  0
  7  8  1  0  0  0  0
  8  9  2  0  0  0  0
 10 11  1  0  0  0  0
 10 20  1  0  0  0  0
 11 12  1  0  0  0  0
 11 21  1  0  0  0  0
 11 22  1  0  0  0  0
 12 16  1  0  0  0  0
 12 13  1  0  0  0  0
 12 23  1  0  0  0  0
 13 14  1  0  0  0  0
 13 24  1  0  0  0  0
 13 25  1  0  0  0  0
 14 15  1  0  0  0  0
 14 26  1  0  0  0  0
 14 27  1  0  0  0  0
 15 16  1  0  0  0  0
 15 28  1  0  0  0  0
 15 29  1  0  0  0  0
M  END
> <s_m_source_file>
AV-unprocessed.smi

> <i_m_source_file_index>
2594

> <i_lp_mmshare_version>
43012

> <i_f3d_flags>
0

> <s_epik_input>
TzFbQ0gyXVtDSDJdW0NIMl1bQ0BIXTFbQ0gyXVtOSF1DKD1PKVtDSDJdbjJuW2NIXXNjMj1P

> <s_epik_cmdline>
J2VwaWtfcHl0aG9uJywgJy1waCcsICc3LjAnLCAnLXRuJywgJzgnLCAnLW1hJywgJzIwMCcsICctbWV0YWxfYmluZGluZycsICctaW1hZScsICc8aW5maWxlLm1hZT4nLCAnLW9tYWUnLCAnPG91dGZpbGUubWFlPic=

> <r_lp_tautomer_probability>
1

> <r_epik_Ionization_Penalty>
2.49222e-07

> <r_epik_Ionization_Penalty_Charging>
1.4085e-08

> <r_epik_Ionization_Penalty_Neutral>
2.35137e-07

> <r_epik_State_Penalty>
-0

> <r_epik_Charging_Adjusted_Penalty>
1.4085e-08

> <i_epik_Tot_Q>
0

> <i_epik_Tot_abs_Q>
0

> <r_epik_Metal_State_Penalty>
-0

> <b_epik_Metal_Only>
0

> <s_lp_Force_Field>
OPLS_2005

> <r_lp_Energy>
18.288

> <b_lp_Chiralities_Consistent>
1

> <s_lp_Variant>
AV-unprocessed.smi:2594-2

> <Gold.Version>
5.8.1

> <Gold.Id.Protein>
6NUR|6NUR_protein|mol2

> <Gold.PLP.Fitness>
40.1235

> <Gold.PLP.PLP>
-35.1484

> <Gold.PLP.part.hbond>
-2.0000

> <Gold.PLP.part.metal>
0.0000

> <Gold.PLP.part.buried>
-4.7872

> <Gold.PLP.part.nonpolar>
-28.6661

> <Gold.PLP.part.repulsive>
0.6912

> <Gold.PLP.ligand.clash>
0.0000

> <Gold.PLP.ligand.torsion>
0.4972

> <Gold.PLP.Chemscore.Hbond>
1.9760

> <Gold.PLP.Chemscore.CHOScore>
0.0000

> <Gold.PLP.Chemscore.Metal>
0.0000

> <Gold.Chemscore.Hbonds>
donor molecule, donor type, donor heavy atom, donor atom, acceptor molecule, acceptor atom, score
      L1  H    10    20       P1  8028  0.46
      P1  H  7989  7998       L1     1  1.00

> <Gold.PLP.Chemscore.Internal.Correction>
0.0416

> <Gold.Rescore>
     Score         DG    S(hbond)    S(metal)    S(lipo)     H(rot)  DE(clash)    DE(int)     intcor
     13.50     -13.67       1.65        0.00      66.71       2.00       0.01       0.16       ----

> <Gold.Chemscore.Fitness>
13.5046

> <Gold.Chemscore.DG>
-13.6740

> <Gold.Chemscore.ZeroCoef>
-5.4800

> <Gold.Chemscore.Hbond>
1.6457

> <Gold.Chemscore.Metal>
0.0000

> <Gold.Chemscore.Lipo>
66.7117

> <Gold.Chemscore.Internal_Hbond>
0.0000

> <Gold.Chemscore.DEClash>
0.0136

> <Gold.Chemscore.DEInternal>
0.1558

> <Gold.Chemscore.Rot>
1.9952

> <Gold.Chemscore.Internal.Correction>
   9.000000E+99

> <Gold.Chemscore.Hbonds>
donor molecule, donor type, donor heavy atom, donor atom, acceptor molecule, acceptor atom, score
      L1  H    10    20       P1  8028  0.47
      P1  H  7989  7998       L1     1  0.74

> <Gold.Chemscore.Hbond.Weighted>
-5.4965

> <Gold.Chemscore.Metal.Weighted>
-0.0000

> <Gold.Chemscore.Lipo.Weighted>
-7.8053

> <Gold.Chemscore.Internal_Hbond.Weighted>
0.0000

> <Gold.Chemscore.DEClash.Weighted>
0.0136

> <Gold.Chemscore.DEInternal.Weighted>
0.1558

> <Gold.Chemscore.Rot.Weighted>
5.1077

> <Gold.Chemscore.Internal.Correction.Weighted>
   9.000000E+99

> <Gold.Protein.RotatedTorsions>
[ 6907 6896 6895 6894 ] final  -63.87 input  -60.11 | X-H torsion
[ 7974 7965 7964 7962 ] final -154.89 input  175.53 | X-H torsion
[ 8008 7997 7996 7995 ] final  135.31 input   59.86 | X-H torsion
[ 10167 10162 10161 10158 ] final  108.54 input  -65.29 | X-H torsion
[ 10718 10713 10712 10709 ] final   -3.18 input   66.30 | X-H torsion
[ 10763 10752 10751 10750 ] final  -26.89 input  -60.55 | X-H torsion
[ 11005 11000 10999 10996 ] final  112.88 input  -57.11 | X-H torsion

> <Gold.Protein.ActiveResidues>
 VAL166  LYS551  ARG553  GLY616  TRP617  ASP618  TYR619  PRO620  LYS621  CYS622 
 ASP623  PHE694  ASN695  SER759  ASP760  ASP761  ALA762  ILE779  LEU786  VAL792 
 PHE793  MET794  SER795  GLU796  ALA797  LYS798  CYS799  TRP800  GLU811  SER814 

> <Gold.Protein.RotatedAtoms>
  150.7621  134.6376  159.6219 H   0  0  0  0  0  0  0  0  0  0  0  0  # atno 6907 bound_to 6896
  152.3634  134.6836  160.0208 H   0  0  0  0  0  0  0  0  0  0  0  0  # atno 6908 bound_to 6896
  151.7218  133.3278  159.3354 H   0  0  0  0  0  0  0  0  0  0  0  0  # atno 6909 bound_to 6896
  144.7666  140.4325  143.5937 H   0  0  0  0  0  0  0  0  0  0  0  0  # atno 7974 bound_to 7965
  156.3002  140.2474  156.3560 H   0  0  0  0  0  0  0  0  0  0  0  0  # atno 8008 bound_to 7997
  154.8921  140.0409  157.1864 H   0  0  0  0  0  0  0  0  0  0  0  0  # atno 8009 bound_to 7997
  154.8586  140.2917  155.5557 H   0  0  0  0  0  0  0  0  0  0  0  0  # atno 8010 bound_to 7997
  139.6838  144.7115  151.1468 H   0  0  0  0  0  0  0  0  0  0  0  0  # atno 10167 bound_to 10162
  156.7799  130.5327  149.5752 H   0  0  0  0  0  0  0  0  0  0  0  0  # atno 10718 bound_to 10713
  153.7232  135.6943  153.5007 H   0  0  0  0  0  0  0  0  0  0  0  0  # atno 10763 bound_to 10752
  153.2189  135.4377  155.0465 H   0  0  0  0  0  0  0  0  0  0  0  0  # atno 10764 bound_to 10752
  154.8277  135.3455  154.6765 H   0  0  0  0  0  0  0  0  0  0  0  0  # atno 10765 bound_to 10752
  139.8938  134.9539  156.6654 H   0  0  0  0  0  0  0  0  0  0  0  0  # atno 11005 bound_to 11000
  145.6450  139.1556  143.2894 LP  0  0  0  0  0  0  0  0  0  0  0  0  # atno 17320 bound_to 7965
  146.1779  140.6543  142.9202 LP  0  0  0  0  0  0  0  0  0  0  0  0  # atno 17321 bound_to 7965
  140.7661  143.5660  150.9047 LP  0  0  0  0  0  0  0  0  0  0  0  0  # atno 17342 bound_to 10162
  139.9333  143.6467  152.3071 LP  0  0  0  0  0  0  0  0  0  0  0  0  # atno 17343 bound_to 10162
  156.1224  130.6120  151.0214 LP  0  0  0  0  0  0  0  0  0  0  0  0  # atno 17370 bound_to 10713
  157.6651  131.0873  150.7747 LP  0  0  0  0  0  0  0  0  0  0  0  0  # atno 17371 bound_to 10713
  140.7415  133.8974  155.8281 LP  0  0  0  0  0  0  0  0  0  0  0  0  # atno 17394 bound_to 11000
  141.0074  134.1067  157.4256 LP  0  0  0  0  0  0  0  0  0  0  0  0  # atno 17395 bound_to 11000

$$$$
