AV-unprocessed.smi:3056|AV-procd|sdf|11645|dock4
  -GOLD-   2272017 43D 1   1.00000     0.00000
 Structure written by MMmdl.
 48 49  0  0  0  0  0  0  0  0  2 V2000
  151.9977  144.1912  159.3274 C   0  0  0  0  0  0  0  0  0  0  0  0
  152.6123  143.1264  160.1899 C   0  0  0  0  0  0  0  0  0  0  0  0
  152.5107  142.9761  161.6013 C   0  0  0  0  0  0  0  0  0  0  0  0
  153.1708  141.9227  162.0538 N   0  0  0  0  0  0  0  0  0  0  0  0
  153.7325  141.3701  160.9562 N   0  0  0  0  0  0  0  0  0  0  0  0
  154.5245  140.1509  161.0992 C   0  0  2  0  0  0  0  0  0  0  0  0
  155.9406  140.3252  160.5195 C   0  0  0  0  0  0  0  0  0  0  0  0
  153.8011  138.9004  160.5253 C   0  0  2  0  0  0  0  0  0  0  0  0
  154.5661  137.5837  160.7504 C   0  0  0  0  0  0  0  0  0  0  0  0
  153.5339  139.0553  159.0746 N   0  3  0  0  0  0  0  0  0  0  0  0
  152.7461  137.9721  158.4398 C   0  0  0  0  0  0  0  0  0  0  0  0
  151.5319  138.4842  157.6447 C   0  0  0  0  0  0  0  0  0  0  0  0
  150.5022  138.7755  158.2560 O   0  0  0  0  0  0  0  0  0  0  0  0
  151.6279  138.5963  156.2982 N   0  0  0  0  0  0  0  0  0  0  0  0
  152.8123  138.2959  155.4878 C   0  0  0  0  0  0  0  0  0  0  0  0
  153.2844  139.5990  154.8194 C   0  0  0  0  0  0  0  0  0  0  0  0
  152.2261  140.1467  154.0370 O   0  0  0  0  0  0  0  0  0  0  0  0
  151.0495  140.4294  154.7929 C   0  0  1  0  0  0  0  0  0  0  0  0
  150.0062  141.0350  153.8477 C   0  0  0  0  0  0  0  0  0  0  0  0
  150.5521  139.1295  155.4573 C   0  0  0  0  0  0  0  0  0  0  0  0
  153.3957  142.0726  159.8142 C   0  0  0  0  0  0  0  0  0  0  0  0
  151.5826  145.0059  159.9213 H   0  0  0  0  0  0  0  0  0  0  0  0
  151.1880  143.7946  158.7147 H   0  0  0  0  0  0  0  0  0  0  0  0
  152.7289  144.6311  158.6489 H   0  0  0  0  0  0  0  0  0  0  0  0
  151.9757  143.5960  162.3059 H   0  0  0  0  0  0  0  0  0  0  0  0
  154.6733  140.0005  162.1692 H   0  0  0  0  0  0  0  0  0  0  0  0
  156.5561  139.4494  160.7260 H   0  0  0  0  0  0  0  0  0  0  0  0
  156.4416  141.1860  160.9635 H   0  0  0  0  0  0  0  0  0  0  0  0
  155.9306  140.4698  159.4394 H   0  0  0  0  0  0  0  0  0  0  0  0
  152.8400  138.7989  161.0315 H   0  0  0  0  0  0  0  0  0  0  0  0
  154.7694  137.4137  161.8074 H   0  0  0  0  0  0  0  0  0  0  0  0
  155.5186  137.5692  160.2199 H   0  0  0  0  0  0  0  0  0  0  0  0
  153.9840  136.7334  160.3939 H   0  0  0  0  0  0  0  0  0  0  0  0
  153.0496  139.9326  158.9450 H   0  0  0  0  0  0  0  0  0  0  0  0
  153.3889  137.3644  157.8032 H   0  0  0  0  0  0  0  0  0  0  0  0
  152.3792  137.3279  159.2395 H   0  0  0  0  0  0  0  0  0  0  0  0
  153.6332  137.8535  156.0492 H   0  0  0  0  0  0  0  0  0  0  0  0
  152.5465  137.5619  154.7257 H   0  0  0  0  0  0  0  0  0  0  0  0
  153.6109  140.3243  155.5665 H   0  0  0  0  0  0  0  0  0  0  0  0
  154.1373  139.4026  154.1696 H   0  0  0  0  0  0  0  0  0  0  0  0
  151.2908  141.1654  155.5620 H   0  0  0  0  0  0  0  0  0  0  0  0
  149.0917  141.2894  154.3840 H   0  0  0  0  0  0  0  0  0  0  0  0
  149.7444  140.3395  153.0497 H   0  0  0  0  0  0  0  0  0  0  0  0
  150.3838  141.9466  153.3840 H   0  0  0  0  0  0  0  0  0  0  0  0
  150.2877  138.3909  154.6987 H   0  0  0  0  0  0  0  0  0  0  0  0
  149.6368  139.3281  156.0165 H   0  0  0  0  0  0  0  0  0  0  0  0
  153.7352  141.7723  158.8340 H   0  0  0  0  0  0  0  0  0  0  0  0
  154.4193  139.1028  158.5907 H   0  0  0  0  0  0  0  0  0  0  0  0
  1  2  1  0  0  0  0
  1 22  1  0  0  0  0
  1 23  1  0  0  0  0
  1 24  1  0  0  0  0
  2 21  2  0  0  0  0
  2  3  1  0  0  0  0
  3  4  2  0  0  0  0
  3 25  1  0  0  0  0
  4  5  1  0  0  0  0
  5  6  1  0  0  0  0
  5 21  1  0  0  0  0
  6  7  1  0  0  0  0
  6  8  1  0  0  0  0
  6 26  1  0  0  0  0
  7 27  1  0  0  0  0
  7 28  1  0  0  0  0
  7 29  1  0  0  0  0
  8  9  1  0  0  0  0
  8 10  1  0  0  0  0
  8 30  1  0  0  0  0
  9 31  1  0  0  0  0
  9 32  1  0  0  0  0
  9 33  1  0  0  0  0
 10 11  1  0  0  0  0
 10 34  1  0  0  0  0
 10 48  1  0  0  0  0
 11 12  1  0  0  0  0
 11 35  1  0  0  0  0
 11 36  1  0  0  0  0
 12 13  2  0  0  0  0
 12 14  1  0  0  0  0
 14 20  1  0  0  0  0
 14 15  1  0  0  0  0
 15 16  1  0  0  0  0
 15 37  1  0  0  0  0
 15 38  1  0  0  0  0
 16 17  1  0  0  0  0
 16 39  1  0  0  0  0
 16 40  1  0  0  0  0
 17 18  1  0  0  0  0
 18 19  1  0  0  0  0
 18 20  1  0  0  0  0
 18 41  1  0  0  0  0
 19 42  1  0  0  0  0
 19 43  1  0  0  0  0
 19 44  1  0  0  0  0
 20 45  1  0  0  0  0
 20 46  1  0  0  0  0
 21 47  1  0  0  0  0
M  CHG  1  10   1
M  END
> <s_m_source_file>
AV-unprocessed.smi

> <i_m_source_file_index>
3056

> <i_lp_mmshare_version>
43012

> <i_f3d_flags>
0

> <s_epik_input>
W0NIM11jMVtjSF1ubihbY0hdMSlbQ0BIXShbQ0gzXSlbQ0BIXShbQ0gzXSlbTkhdW0NIMl1DKD1PKU4yW0NIMl1bQ0gyXU9bQ0BASF0oW0NIM10pW0NIMl0y

> <s_epik_cmdline>
J2VwaWtfcHl0aG9uJywgJy1waCcsICc3LjAnLCAnLXRuJywgJzgnLCAnLW1hJywgJzIwMCcsICctbWV0YWxfYmluZGluZycsICctaW1hZScsICc8aW5maWxlLm1hZT4nLCAnLW9tYWUnLCAnPG91dGZpbGUubWFlPic=

> <r_lp_tautomer_probability>
1

> <r_epik_Ionization_Penalty>
0.233715

> <r_epik_Ionization_Penalty_Charging>
0.233698

> <r_epik_Ionization_Penalty_Neutral>
1.68157e-05

> <r_epik_State_Penalty>
0.225221

> <r_epik_Charging_Adjusted_Penalty>
0.458919

> <i_epik_Tot_Q>
1

> <i_epik_Tot_abs_Q>
1

> <r_epik_Metal_State_Penalty>
0.225535

> <b_epik_Metal_Only>
0

> <s_lp_Force_Field>
OPLS_2005

> <r_lp_Energy>
27.9094

> <b_lp_Chiralities_Consistent>
1

> <s_lp_Variant>
AV-unprocessed.smi:3056-1

> <Gold.Version>
5.8.1

> <Gold.Id.Protein>
6NUR|6NUR_protein|mol2

> <Gold.PLP.Fitness>
43.2994

> <Gold.PLP.PLP>
-41.7253

> <Gold.PLP.part.hbond>
-1.5405

> <Gold.PLP.part.metal>
0.0000

> <Gold.PLP.part.buried>
-4.7317

> <Gold.PLP.part.nonpolar>
-35.5628

> <Gold.PLP.part.repulsive>
0.2288

> <Gold.PLP.ligand.clash>
0.0000

> <Gold.PLP.ligand.torsion>
0.7910

> <Gold.PLP.Chemscore.Hbond>
1.0000

> <Gold.PLP.Chemscore.CHOScore>
0.0000

> <Gold.PLP.Chemscore.Metal>
0.0000

> <Gold.PLP.Chemscore.Internal.Correction>
0.1560

> <Gold.Rescore>
     Score         DG    S(hbond)    S(metal)    S(lipo)     H(rot)  DE(clash)    DE(int)     intcor
     15.68     -16.76       0.81        0.00     111.40       1.74       0.00       1.08       ----

> <Gold.Chemscore.Fitness>
15.6830

> <Gold.Chemscore.DG>
-16.7650

> <Gold.Chemscore.ZeroCoef>
-5.4800

> <Gold.Chemscore.Hbond>
0.8066

> <Gold.Chemscore.Metal>
0.0000

> <Gold.Chemscore.Lipo>
111.3966

> <Gold.Chemscore.Internal_Hbond>
0.0000

> <Gold.Chemscore.DEClash>
0.0048

> <Gold.Chemscore.DEInternal>
1.0772

> <Gold.Chemscore.Rot>
1.7354

> <Gold.Chemscore.Internal.Correction>
   9.000000E+99

> <Gold.Chemscore.Hbond.Weighted>
-2.6942

> <Gold.Chemscore.Metal.Weighted>
-0.0000

> <Gold.Chemscore.Lipo.Weighted>
-13.0334

> <Gold.Chemscore.Internal_Hbond.Weighted>
0.0000

> <Gold.Chemscore.DEClash.Weighted>
0.0048

> <Gold.Chemscore.DEInternal.Weighted>
1.0772

> <Gold.Chemscore.Rot.Weighted>
4.4426

> <Gold.Chemscore.Internal.Correction.Weighted>
   9.000000E+99

> <Gold.Protein.RotatedTorsions>
[ 6907 6896 6895 6894 ] final -152.32 input  -60.11 | X-H torsion
[ 7974 7965 7964 7962 ] final -123.98 input  175.53 | X-H torsion
[ 8008 7997 7996 7995 ] final  171.95 input   59.86 | X-H torsion
[ 10167 10162 10161 10158 ] final -135.44 input  -65.29 | X-H torsion
[ 10718 10713 10712 10709 ] final  -47.97 input   66.30 | X-H torsion
[ 10763 10752 10751 10750 ] final  -88.98 input  -60.55 | X-H torsion
[ 11005 11000 10999 10996 ] final  -20.07 input  -57.11 | X-H torsion

> <Gold.Protein.ActiveResidues>
 VAL166  LYS551  ARG553  GLY616  TRP617  ASP618  TYR619  PRO620  LYS621  CYS622 
 ASP623  PHE694  ASN695  SER759  ASP760  ASP761  ALA762  ILE779  LEU786  VAL792 
 PHE793  MET794  SER795  GLU796  ALA797  LYS798  CYS799  TRP800  GLU811  SER814 

> <Gold.Protein.RotatedAtoms>
  151.2261  133.4476  159.2601 H   0  0  0  0  0  0  0  0  0  0  0  0  # atno 6907 bound_to 6896
  151.0839  134.9875  159.8379 H   0  0  0  0  0  0  0  0  0  0  0  0  # atno 6908 bound_to 6896
  152.5427  134.2199  159.8836 H   0  0  0  0  0  0  0  0  0  0  0  0  # atno 6909 bound_to 6896
  145.0129  140.7921  143.4427 H   0  0  0  0  0  0  0  0  0  0  0  0  # atno 7974 bound_to 7965
  156.1222  140.1498  156.9188 H   0  0  0  0  0  0  0  0  0  0  0  0  # atno 8008 bound_to 7997
  154.4844  140.0869  156.7494 H   0  0  0  0  0  0  0  0  0  0  0  0  # atno 8009 bound_to 7997
  155.4408  140.3431  155.4292 H   0  0  0  0  0  0  0  0  0  0  0  0  # atno 8010 bound_to 7997
  139.8779  143.6876  152.2631 H   0  0  0  0  0  0  0  0  0  0  0  0  # atno 10167 bound_to 10162
  156.2033  130.4157  149.9212 H   0  0  0  0  0  0  0  0  0  0  0  0  # atno 10718 bound_to 10713
  154.6504  135.5357  153.7895 H   0  0  0  0  0  0  0  0  0  0  0  0  # atno 10763 bound_to 10752
  153.0383  135.6481  154.1025 H   0  0  0  0  0  0  0  0  0  0  0  0  # atno 10764 bound_to 10752
  154.0943  135.2938  155.3245 H   0  0  0  0  0  0  0  0  0  0  0  0  # atno 10765 bound_to 10752
  140.8429  133.7913  155.9880 H   0  0  0  0  0  0  0  0  0  0  0  0  # atno 11005 bound_to 11000
  145.1999  139.2257  143.5198 LP  0  0  0  0  0  0  0  0  0  0  0  0  # atno 17320 bound_to 7965
  146.3473  140.1813  142.8589 LP  0  0  0  0  0  0  0  0  0  0  0  0  # atno 17321 bound_to 7965
  139.7223  144.7600  151.0934 LP  0  0  0  0  0  0  0  0  0  0  0  0  # atno 17342 bound_to 10162
  140.7750  143.5191  150.9558 LP  0  0  0  0  0  0  0  0  0  0  0  0  # atno 17343 bound_to 10162
  156.6915  130.8897  151.3588 LP  0  0  0  0  0  0  0  0  0  0  0  0  # atno 17370 bound_to 10713
  157.6998  130.9320  150.0751 LP  0  0  0  0  0  0  0  0  0  0  0  0  # atno 17371 bound_to 10713
  140.8876  134.2535  157.5112 LP  0  0  0  0  0  0  0  0  0  0  0  0  # atno 17394 bound_to 11000
  139.8703  134.9645  156.4499 LP  0  0  0  0  0  0  0  0  0  0  0  0  # atno 17395 bound_to 11000

$$$$
