AV-unprocessed.smi:670|AV-procd|sdf|3268|dock1
  -GOLD-   22720 0223D 1   1.00000     0.00000
 Structure written by MMmdl.
 44 45  0  0  0  0  0  0  0  0  2 V2000
  150.4066  142.3148  156.8882 C   0  0  0  0  0  0  0  0  0  0  0  0
  151.6513  142.6218  157.7363 C   0  0  1  0  0  0  0  0  0  0  0  0
  151.3409  143.7046  158.7901 C   0  0  0  0  0  0  0  0  0  0  0  0
  152.5687  144.0279  159.6553 C   0  0  0  0  0  0  0  0  0  0  0  0
  153.1141  142.7619  160.3298 C   0  0  0  0  0  0  0  0  0  0  0  0
  153.4361  141.6839  159.2866 C   0  0  0  0  0  0  0  0  0  0  0  0
  152.2112  141.3492  158.4107 C   0  0  2  0  0  0  0  0  0  0  0  0
  152.6229  140.4501  157.3907 O   0  0  0  0  0  0  0  0  0  0  0  0
  151.6073  139.5625  156.9452 C   0  0  0  0  0  0  0  0  0  0  0  0
  151.6265  138.3147  157.8328 C   0  0  0  0  0  0  0  0  0  0  0  0
  150.2605  137.8649  158.0669 N   0  0  0  0  0  0  0  0  0  0  0  0
  149.8165  137.1800  159.1328 C   0  0  0  0  0  0  0  0  0  0  0  0
  150.5342  136.8849  160.0884 O   0  0  0  0  0  0  0  0  0  0  0  0
  148.3429  136.7370  159.1326 C   0  0  0  0  0  0  0  0  0  0  0  0
  147.8542  136.2234  160.4238 N   0  0  0  0  0  0  0  0  0  0  0  0
  147.8311  137.2213  161.4897 N   0  5  0  0  0  0  0  0  0  0  0  0
  147.3815  136.8644  162.7221 C   0  0  0  0  0  0  0  0  0  0  0  0
  147.3136  137.6537  163.6610 O   0  0  0  0  0  0  0  0  0  0  0  0
  146.9668  135.4865  162.9268 C   0  0  0  0  0  0  0  0  0  0  0  0
  147.0035  134.5850  161.9259 C   0  0  0  0  0  0  0  0  0  0  0  0
  147.4515  134.9300  160.5823 C   0  0  0  0  0  0  0  0  0  0  0  0
  147.4611  134.1181  159.6573 O   0  0  0  0  0  0  0  0  0  0  0  0
  149.6037  141.9003  157.4986 H   0  0  0  0  0  0  0  0  0  0  0  0
  150.6312  141.5949  156.1007 H   0  0  0  0  0  0  0  0  0  0  0  0
  150.0280  143.2169  156.4074 H   0  0  0  0  0  0  0  0  0  0  0  0
  152.4187  143.0168  157.0684 H   0  0  0  0  0  0  0  0  0  0  0  0
  150.9935  144.6144  158.2990 H   0  0  0  0  0  0  0  0  0  0  0  0
  150.5247  143.3705  159.4321 H   0  0  0  0  0  0  0  0  0  0  0  0
  153.3464  144.4762  159.0357 H   0  0  0  0  0  0  0  0  0  0  0  0
  152.3084  144.7694  160.4110 H   0  0  0  0  0  0  0  0  0  0  0  0
  154.0094  143.0013  160.9042 H   0  0  0  0  0  0  0  0  0  0  0  0
  152.3813  142.3776  161.0404 H   0  0  0  0  0  0  0  0  0  0  0  0
  154.2448  142.0346  158.6452 H   0  0  0  0  0  0  0  0  0  0  0  0
  153.8099  140.7928  159.7902 H   0  0  0  0  0  0  0  0  0  0  0  0
  151.4249  140.8999  159.0211 H   0  0  0  0  0  0  0  0  0  0  0  0
  150.6185  140.0215  156.9856 H   0  0  0  0  0  0  0  0  0  0  0  0
  151.7965  139.2977  155.9045 H   0  0  0  0  0  0  0  0  0  0  0  0
  152.2219  137.5373  157.3518 H   0  0  0  0  0  0  0  0  0  0  0  0
  152.1010  138.5335  158.7898 H   0  0  0  0  0  0  0  0  0  0  0  0
  149.5874  138.0723  157.3419 H   0  0  0  0  0  0  0  0  0  0  0  0
  147.7243  137.5747  158.8065 H   0  0  0  0  0  0  0  0  0  0  0  0
  148.2237  135.9749  158.3608 H   0  0  0  0  0  0  0  0  0  0  0  0
  146.6200  135.1794  163.9023 H   0  0  0  0  0  0  0  0  0  0  0  0
  146.6823  133.5731  162.1224 H   0  0  0  0  0  0  0  0  0  0  0  0
  1  2  1  0  0  0  0
  1 23  1  0  0  0  0
  1 24  1  0  0  0  0
  1 25  1  0  0  0  0
  2  7  1  0  0  0  0
  2  3  1  0  0  0  0
  2 26  1  0  0  0  0
  3  4  1  0  0  0  0
  3 27  1  0  0  0  0
  3 28  1  0  0  0  0
  4  5  1  0  0  0  0
  4 29  1  0  0  0  0
  4 30  1  0  0  0  0
  5  6  1  0  0  0  0
  5 31  1  0  0  0  0
  5 32  1  0  0  0  0
  6  7  1  0  0  0  0
  6 33  1  0  0  0  0
  6 34  1  0  0  0  0
  7  8  1  0  0  0  0
  7 35  1  0  0  0  0
  8  9  1  0  0  0  0
  9 10  1  0  0  0  0
  9 36  1  0  0  0  0
  9 37  1  0  0  0  0
 10 11  1  0  0  0  0
 10 38  1  0  0  0  0
 10 39  1  0  0  0  0
 11 12  1  0  0  0  0
 11 40  1  0  0  0  0
 12 13  2  0  0  0  0
 12 14  1  0  0  0  0
 14 41  1  0  0  0  0
 14 42  1  0  0  0  0
 14 15  1  0  0  0  0
 15 16  1  0  0  0  0
 15 21  1  0  0  0  0
 16 17  1  0  0  0  0
 17 18  2  0  0  0  0
 17 19  1  0  0  0  0
 19 43  1  0  0  0  0
 19 20  2  0  0  0  0
 20 44  1  0  0  0  0
 20 21  1  0  0  0  0
 21 22  2  0  0  0  0
M  CHG  1  16  -1
M  END
> <s_m_source_file>
AV-unprocessed.smi

> <i_m_source_file_index>
670

> <i_lp_mmshare_version>
43012

> <i_f3d_flags>
0

> <s_epik_input>
W0NIM11bQ0BASF0xW0NIMl1bQ0gyXVtDSDJdW0NIMl1bQ0BIXTFPW0NIMl1bQ0gyXVtOSF1DKD1PKVtDSDJdbjJbbkhdYyg9TylbY0hdW2NIXWMyPU8=

> <s_epik_cmdline>
J2VwaWtfcHl0aG9uJywgJy1waCcsICc3LjAnLCAnLXRuJywgJzgnLCAnLW1hJywgJzIwMCcsICctbWV0YWxfYmluZGluZycsICctaW1hZScsICc8aW5maWxlLm1hZT4nLCAnLW9tYWUnLCAnPG91dGZpbGUubWFlPic=

> <r_lp_tautomer_probability>
1

> <r_epik_Ionization_Penalty>
0.0975638

> <r_epik_Ionization_Penalty_Charging>
0.0975637

> <r_epik_Ionization_Penalty_Neutral>
2.78599e-08

> <r_epik_State_Penalty>
0.0343507

> <r_epik_Charging_Adjusted_Penalty>
0.131914

> <i_epik_Tot_Q>
-1

> <i_epik_Tot_abs_Q>
1

> <r_epik_Metal_State_Penalty>
0.0343507

> <b_epik_Metal_Only>
0

> <s_lp_Force_Field>
OPLS_2005

> <r_lp_Energy>
24.2447

> <b_lp_Chiralities_Consistent>
1

> <s_lp_Variant>
AV-unprocessed.smi:670-4

> <Gold.Version>
5.8.1

> <Gold.Id.Protein>
6NUR|6NUR_protein|mol2

> <Gold.PLP.Fitness>
54.8325

> <Gold.PLP.PLP>
-40.8094

> <Gold.PLP.part.hbond>
-5.5332

> <Gold.PLP.part.metal>
0.0000

> <Gold.PLP.part.buried>
1.8115

> <Gold.PLP.part.nonpolar>
-36.5664

> <Gold.PLP.part.repulsive>
0.1215

> <Gold.PLP.ligand.clash>
0.0000

> <Gold.PLP.ligand.torsion>
1.1178

> <Gold.PLP.Chemscore.Hbond>
5.3604

> <Gold.PLP.Chemscore.CHOScore>
0.0000

> <Gold.PLP.Chemscore.Metal>
0.0000

> <Gold.Chemscore.Hbonds>
donor molecule, donor type, donor heavy atom, donor atom, acceptor molecule, acceptor atom, score
      P1  H  6896  6908       L1    13  1.00
      P1  H  6931  6943       L1    16  2.00
      P1  H  6934  6947       L1    16  1.41
      P1  H  7997  8008       L1     8  0.88

> <Gold.PLP.Chemscore.Internal.Correction>
0.1775

> <Gold.Rescore>
     Score         DG    S(hbond)    S(metal)    S(lipo)     H(rot)  DE(clash)    DE(int)     intcor
     18.43     -20.71       2.98        0.00      98.73       2.45       1.05       1.23       ----

> <Gold.Chemscore.Fitness>
18.4323

> <Gold.Chemscore.DG>
-20.7107

> <Gold.Chemscore.ZeroCoef>
-5.4800

> <Gold.Chemscore.Hbond>
2.9787

> <Gold.Chemscore.Metal>
0.0000

> <Gold.Chemscore.Lipo>
98.7295

> <Gold.Chemscore.Internal_Hbond>
0.0000

> <Gold.Chemscore.DEClash>
1.0481

> <Gold.Chemscore.DEInternal>
1.2303

> <Gold.Chemscore.Rot>
2.4490

> <Gold.Chemscore.Internal.Correction>
   9.000000E+99

> <Gold.Chemscore.Hbonds>
donor molecule, donor type, donor heavy atom, donor atom, acceptor molecule, acceptor atom, score
      P1  H  6896  6908       L1    13  0.54
      P1  H  6931  6943       L1    16  0.24
      P1  H  6934  6947       L1    16  0.52
      P1  H  7997  8008       L1     8  0.80

> <Gold.Chemscore.Hbond.Weighted>
-9.9487

> <Gold.Chemscore.Metal.Weighted>
-0.0000

> <Gold.Chemscore.Lipo.Weighted>
-11.5513

> <Gold.Chemscore.Internal_Hbond.Weighted>
0.0000

> <Gold.Chemscore.DEClash.Weighted>
1.0481

> <Gold.Chemscore.DEInternal.Weighted>
1.2303

> <Gold.Chemscore.Rot.Weighted>
6.2694

> <Gold.Chemscore.Internal.Correction.Weighted>
   9.000000E+99

> <Gold.Protein.RotatedTorsions>
[ 6907 6896 6895 6894 ] final -155.67 input  -60.11 | X-H torsion
[ 7974 7965 7964 7962 ] final  102.53 input  175.53 | X-H torsion
[ 8008 7997 7996 7995 ] final  -66.66 input   59.86 | X-H torsion
[ 10167 10162 10161 10158 ] final  -91.00 input  -65.29 | X-H torsion
[ 10718 10713 10712 10709 ] final  -89.28 input   66.30 | X-H torsion
[ 10763 10752 10751 10750 ] final -143.04 input  -60.55 | X-H torsion
[ 11005 11000 10999 10996 ] final  174.00 input  -57.11 | X-H torsion

> <Gold.Protein.ActiveResidues>
 VAL166  LYS551  ARG553  GLY616  TRP617  ASP618  TYR619  PRO620  LYS621  CYS622 
 ASP623  PHE694  ASN695  SER759  ASP760  ASP761  ALA762  ILE779  LEU786  VAL792 
 PHE793  MET794  SER795  GLU796  ALA797  LYS798  CYS799  TRP800  GLU811  SER814 

> <Gold.Protein.RotatedAtoms>
  151.2760  133.4232  159.2623 H   0  0  0  0  0  0  0  0  0  0  0  0  # atno 6907 bound_to 6896
  151.0403  134.9602  159.8168 H   0  0  0  0  0  0  0  0  0  0  0  0  # atno 6908 bound_to 6896
  152.5363  134.2718  159.9027 H   0  0  0  0  0  0  0  0  0  0  0  0  # atno 6909 bound_to 6896
  145.3579  139.2424  143.3522 H   0  0  0  0  0  0  0  0  0  0  0  0  # atno 7974 bound_to 7965
  154.4749  140.0908  156.7236 H   0  0  0  0  0  0  0  0  0  0  0  0  # atno 8008 bound_to 7997
  155.4624  140.3461  155.4296 H   0  0  0  0  0  0  0  0  0  0  0  0  # atno 8009 bound_to 7997
  156.1100  140.1445  156.9340 H   0  0  0  0  0  0  0  0  0  0  0  0  # atno 8010 bound_to 7997
  140.3492  143.2900  151.9746 H   0  0  0  0  0  0  0  0  0  0  0  0  # atno 10167 bound_to 10162
  155.9984  130.4866  150.5147 H   0  0  0  0  0  0  0  0  0  0  0  0  # atno 10718 bound_to 10713
  154.8486  135.3479  154.6124 H   0  0  0  0  0  0  0  0  0  0  0  0  # atno 10763 bound_to 10752
  153.6732  135.6984  153.5145 H   0  0  0  0  0  0  0  0  0  0  0  0  # atno 10764 bound_to 10752
  153.2726  135.4288  155.0958 H   0  0  0  0  0  0  0  0  0  0  0  0  # atno 10765 bound_to 10752
  140.3465  134.7231  157.4239 H   0  0  0  0  0  0  0  0  0  0  0  0  # atno 11005 bound_to 11000
  146.2940  140.4207  142.8729 LP  0  0  0  0  0  0  0  0  0  0  0  0  # atno 17320 bound_to 7965
  144.8668  140.7217  143.6072 LP  0  0  0  0  0  0  0  0  0  0  0  0  # atno 17321 bound_to 7965
  139.4829  144.6090  151.7468 LP  0  0  0  0  0  0  0  0  0  0  0  0  # atno 17342 bound_to 10162
  140.5235  144.0842  150.6030 LP  0  0  0  0  0  0  0  0  0  0  0  0  # atno 17343 bound_to 10162
  157.3116  131.0665  151.1997 LP  0  0  0  0  0  0  0  0  0  0  0  0  # atno 17370 bound_to 10713
  157.2941  130.6810  149.6129 LP  0  0  0  0  0  0  0  0  0  0  0  0  # atno 17371 bound_to 10713
  140.0738  134.5826  155.8613 LP  0  0  0  0  0  0  0  0  0  0  0  0  # atno 17394 bound_to 11000
  141.2024  133.6625  156.6004 LP  0  0  0  0  0  0  0  0  0  0  0  0  # atno 17395 bound_to 11000

$$$$
