AV-unprocessed.smi:1006|AV-procd|sdf|4397|dock2
  -GOLD-   22720 2333D 1   1.00000     0.00000
 Structure written by MMmdl.
 47 49  0  0  0  0  0  0  0  0  3 V2000
  148.3462  132.9625  153.0497 C   0  0  0  0  0  0  0  0  0  0  0  0
  149.3447  133.4299  154.0874 C   0  0  0  0  0  0  0  0  0  0  0  0
  149.8895  132.5542  155.0488 C   0  0  0  0  0  0  0  0  0  0  0  0
  150.8051  133.1052  155.9623 C   0  0  0  0  0  0  0  0  0  0  0  0
  151.3949  132.3169  156.9470 N   0  0  0  0  0  0  0  0  0  0  0  0
  151.1439  134.4089  155.9202 N   0  0  0  0  0  0  0  0  0  0  0  0
  150.5876  135.1869  154.9819 C   0  0  0  0  0  0  0  0  0  0  0  0
  151.0151  136.9178  154.9011 S   0  0  0  0  0  0  0  0  0  0  0  0
  150.4310  137.5541  156.5040 C   0  0  0  0  0  0  0  0  0  0  0  0
  151.5231  138.3446  157.2433 C   0  0  1  0  0  0  0  0  0  0  0  0
  152.5394  137.4539  157.6624 O   0  0  0  0  0  0  0  0  0  0  0  0
  152.1281  139.4552  156.3625 C   0  0  0  0  0  0  0  0  0  0  0  0
  151.5549  140.7802  156.6421 N   0  0  0  0  0  0  0  0  0  0  0  0
  150.6756  141.5160  155.9088 C   0  0  0  0  0  0  0  0  0  0  0  0
  150.4453  142.6754  156.5844 N   0  3  0  0  0  0  0  0  0  0  0  0
  151.1876  142.6810  157.7669 C   0  0  0  0  0  0  0  0  0  0  0  0
  151.2840  143.6330  158.7750 C   0  0  0  0  0  0  0  0  0  0  0  0
  152.1335  143.3353  159.8641 C   0  0  0  0  0  0  0  0  0  0  0  0
  152.2610  144.3539  160.9842 C   0  0  0  0  0  0  0  0  0  0  0  0
  152.8522  142.1130  159.9162 C   0  0  0  0  0  0  0  0  0  0  0  0
  153.7592  141.8011  161.0946 C   0  0  0  0  0  0  0  0  0  0  0  0
  152.7422  141.1586  158.8795 C   0  0  0  0  0  0  0  0  0  0  0  0
  151.9016  141.4676  157.8121 C   0  0  0  0  0  0  0  0  0  0  0  0
  149.7080  134.7370  154.0753 N   0  3  0  0  0  0  0  0  0  0  0  0
  148.3256  131.8738  152.9889 H   0  0  0  0  0  0  0  0  0  0  0  0
  148.6049  133.3516  152.0643 H   0  0  0  0  0  0  0  0  0  0  0  0
  147.3449  133.3095  153.3057 H   0  0  0  0  0  0  0  0  0  0  0  0
  149.6159  131.5092  155.0816 H   0  0  0  0  0  0  0  0  0  0  0  0
  151.1852  131.3328  157.0352 H   0  0  0  0  0  0  0  0  0  0  0  0
  152.0489  132.7058  157.6114 H   0  0  0  0  0  0  0  0  0  0  0  0
  149.5523  138.1815  156.3478 H   0  0  0  0  0  0  0  0  0  0  0  0
  150.1174  136.7058  157.1135 H   0  0  0  0  0  0  0  0  0  0  0  0
  151.0902  138.8006  158.1349 H   0  0  0  0  0  0  0  0  0  0  0  0
  153.0610  137.8805  158.3247 H   0  0  0  0  0  0  0  0  0  0  0  0
  153.2126  139.4991  156.4657 H   0  0  0  0  0  0  0  0  0  0  0  0
  151.9322  139.2401  155.3112 H   0  0  0  0  0  0  0  0  0  0  0  0
  150.2384  141.2318  154.9626 H   0  0  0  0  0  0  0  0  0  0  0  0
  150.7320  144.5605  158.7293 H   0  0  0  0  0  0  0  0  0  0  0  0
  153.2976  144.6727  161.0968 H   0  0  0  0  0  0  0  0  0  0  0  0
  151.9243  143.9272  161.9294 H   0  0  0  0  0  0  0  0  0  0  0  0
  151.6598  145.2417  160.7863 H   0  0  0  0  0  0  0  0  0  0  0  0
  154.2315  140.8240  160.9877 H   0  0  0  0  0  0  0  0  0  0  0  0
  153.1902  141.7950  162.0246 H   0  0  0  0  0  0  0  0  0  0  0  0
  154.5506  142.5463  161.1767 H   0  0  0  0  0  0  0  0  0  0  0  0
  153.2879  140.2282  158.9238 H   0  0  0  0  0  0  0  0  0  0  0  0
  149.3103  135.3676  153.3787 H   0  0  0  0  0  0  0  0  0  0  0  0
  149.8249  143.4065  156.2607 H   0  0  0  0  0  0  0  0  0  0  0  0
  1  2  1  0  0  0  0
  1 25  1  0  0  0  0
  1 26  1  0  0  0  0
  1 27  1  0  0  0  0
  2 24  1  0  0  0  0
  2  3  2  0  0  0  0
  3  4  1  0  0  0  0
  3 28  1  0  0  0  0
  4  5  1  0  0  0  0
  4  6  2  0  0  0  0
  5 29  1  0  0  0  0
  5 30  1  0  0  0  0
  6  7  1  0  0  0  0
  7  8  1  0  0  0  0
  7 24  2  0  0  0  0
  8  9  1  0  0  0  0
  9 10  1  0  0  0  0
  9 31  1  0  0  0  0
  9 32  1  0  0  0  0
 10 11  1  0  0  0  0
 10 12  1  0  0  0  0
 10 33  1  0  0  0  0
 11 34  1  0  0  0  0
 12 13  1  0  0  0  0
 12 35  1  0  0  0  0
 12 36  1  0  0  0  0
 13 23  1  0  0  0  0
 13 14  1  0  0  0  0
 14 15  2  0  0  0  0
 14 37  1  0  0  0  0
 15 16  1  0  0  0  0
 15 47  1  0  0  0  0
 16 23  2  0  0  0  0
 16 17  1  0  0  0  0
 17 18  2  0  0  0  0
 17 38  1  0  0  0  0
 18 19  1  0  0  0  0
 18 20  1  0  0  0  0
 19 39  1  0  0  0  0
 19 40  1  0  0  0  0
 19 41  1  0  0  0  0
 20 21  1  0  0  0  0
 20 22  2  0  0  0  0
 21 42  1  0  0  0  0
 21 43  1  0  0  0  0
 21 44  1  0  0  0  0
 22 23  1  0  0  0  0
 22 45  1  0  0  0  0
 24 46  1  0  0  0  0
M  CHG  1  15   1
M  CHG  1  24   1
M  END
> <s_m_source_file>
AV-unprocessed.smi

> <i_m_source_file_index>
1006

> <i_lp_mmshare_version>
43012

> <i_f3d_flags>
0

> <s_epik_input>
W0NIM11jMVtjSF1jKFtOSDJdKW5jKG4xKVNbQ0gyXVtDQEhdKFtPSF0pW0NIMl1uKFtjSF1uMiljKGMyMylbY0hdYyhbQ0gzXSljKFtjSF0zKVtDSDNd

> <s_epik_cmdline>
J2VwaWtfcHl0aG9uJywgJy1waCcsICc3LjAnLCAnLXRuJywgJzgnLCAnLW1hJywgJzIwMCcsICctbWV0YWxfYmluZGluZycsICctaW1hZScsICc8aW5maWxlLm1hZT4nLCAnLW9tYWUnLCAnPG91dGZpbGUubWFlPic=

> <r_lp_tautomer_probability>
0.999762

> <r_epik_Ionization_Penalty>
1.50932

> <r_epik_Ionization_Penalty_Charging>
1.50929

> <r_epik_Ionization_Penalty_Neutral>
3.48853e-05

> <r_epik_State_Penalty>
1.56619

> <r_epik_Charging_Adjusted_Penalty>
3.07548

> <i_epik_Tot_Q>
2

> <i_epik_Tot_abs_Q>
2

> <r_epik_Metal_State_Penalty>
1.82892

> <b_epik_Metal_Only>
0

> <s_lp_Force_Field>
OPLS_2005

> <r_lp_Energy>
17.0634

> <b_lp_Chiralities_Consistent>
1

> <s_lp_Variant>
AV-unprocessed.smi:1006-8

> <Gold.Version>
5.8.1

> <Gold.Id.Protein>
6NUR|6NUR_protein|mol2

> <Gold.PLP.Fitness>
57.6020

> <Gold.PLP.PLP>
-47.7552

> <Gold.PLP.part.hbond>
-2.3716

> <Gold.PLP.part.metal>
0.0000

> <Gold.PLP.part.buried>
-5.6453

> <Gold.PLP.part.nonpolar>
-39.7518

> <Gold.PLP.part.repulsive>
0.2188

> <Gold.PLP.ligand.clash>
0.0000

> <Gold.PLP.ligand.torsion>
1.1147

> <Gold.PLP.Chemscore.Hbond>
4.0000

> <Gold.PLP.Chemscore.CHOScore>
0.0000

> <Gold.PLP.Chemscore.Metal>
0.0000

> <Gold.Chemscore.Hbonds>
donor molecule, donor type, donor heavy atom, donor atom, acceptor molecule, acceptor atom, score
      L1  H    15    47       P1  8028  2.00
      L1  H    24    46       P1  7948  1.80

> <Gold.PLP.Chemscore.Internal.Correction>
0.0760

> <Gold.Rescore>
     Score         DG    S(hbond)    S(metal)    S(lipo)     H(rot)  DE(clash)    DE(int)     intcor
     16.31     -17.40       1.78        0.00     115.82       2.96       0.01       1.08       ----

> <Gold.Chemscore.Fitness>
16.3096

> <Gold.Chemscore.DG>
-17.4011

> <Gold.Chemscore.ZeroCoef>
-5.4800

> <Gold.Chemscore.Hbond>
1.7808

> <Gold.Chemscore.Metal>
0.0000

> <Gold.Chemscore.Lipo>
115.8171

> <Gold.Chemscore.Internal_Hbond>
0.0000

> <Gold.Chemscore.DEClash>
0.0144

> <Gold.Chemscore.DEInternal>
1.0771

> <Gold.Chemscore.Rot>
2.9599

> <Gold.Chemscore.Internal.Correction>
   9.000000E+99

> <Gold.Chemscore.Hbonds>
donor molecule, donor type, donor heavy atom, donor atom, acceptor molecule, acceptor atom, score
      L1  H    15    47       P1  8028  1.00
      L1  H    24    46       P1  7948  0.18

> <Gold.Chemscore.Hbond.Weighted>
-5.9477

> <Gold.Chemscore.Metal.Weighted>
-0.0000

> <Gold.Chemscore.Lipo.Weighted>
-13.5506

> <Gold.Chemscore.Internal_Hbond.Weighted>
0.0000

> <Gold.Chemscore.DEClash.Weighted>
0.0144

> <Gold.Chemscore.DEInternal.Weighted>
1.0771

> <Gold.Chemscore.Rot.Weighted>
7.5772

> <Gold.Chemscore.Internal.Correction.Weighted>
   9.000000E+99

> <Gold.Protein.RotatedTorsions>
[ 6907 6896 6895 6894 ] final  170.03 input  -60.11 | X-H torsion
[ 7974 7965 7964 7962 ] final   12.47 input  175.53 | X-H torsion
[ 8008 7997 7996 7995 ] final  -35.78 input   59.86 | X-H torsion
[ 10167 10162 10161 10158 ] final -128.28 input  -65.29 | X-H torsion
[ 10718 10713 10712 10709 ] final  110.90 input   66.30 | X-H torsion
[ 10763 10752 10751 10750 ] final  -46.47 input  -60.55 | X-H torsion
[ 11005 11000 10999 10996 ] final -150.34 input  -57.11 | X-H torsion

> <Gold.Protein.ActiveResidues>
 VAL166  LYS551  ARG553  GLY616  TRP617  ASP618  TYR619  PRO620  LYS621  CYS622 
 ASP623  PHE694  ASN695  SER759  ASP760  ASP761  ALA762  ILE779  LEU786  VAL792 
 PHE793  MET794  SER795  GLU796  ALA797  LYS798  CYS799  TRP800  GLU811  SER814 

> <Gold.Protein.RotatedAtoms>
  151.8225  133.3396  159.3588 H   0  0  0  0  0  0  0  0  0  0  0  0  # atno 6907 bound_to 6896
  150.7290  134.5560  159.5828 H   0  0  0  0  0  0  0  0  0  0  0  0  # atno 6908 bound_to 6896
  152.2995  134.7628  160.0412 H   0  0  0  0  0  0  0  0  0  0  0  0  # atno 6909 bound_to 6896
  146.2350  139.9332  142.8493 H   0  0  0  0  0  0  0  0  0  0  0  0  # atno 7974 bound_to 7965
  154.4087  140.1648  156.2268 H   0  0  0  0  0  0  0  0  0  0  0  0  # atno 8008 bound_to 7997
  155.9317  140.3414  155.6231 H   0  0  0  0  0  0  0  0  0  0  0  0  # atno 8009 bound_to 7997
  155.7098  140.0755  157.2366 H   0  0  0  0  0  0  0  0  0  0  0  0  # atno 8010 bound_to 7997
  139.9520  143.6045  152.2472 H   0  0  0  0  0  0  0  0  0  0  0  0  # atno 10167 bound_to 10162
  157.6471  131.0941  150.6670 H   0  0  0  0  0  0  0  0  0  0  0  0  # atno 10718 bound_to 10713
  154.0455  135.6638  153.4794 H   0  0  0  0  0  0  0  0  0  0  0  0  # atno 10763 bound_to 10752
  153.0484  135.5099  154.7801 H   0  0  0  0  0  0  0  0  0  0  0  0  # atno 10764 bound_to 10752
  154.6791  135.3042  154.9604 H   0  0  0  0  0  0  0  0  0  0  0  0  # atno 10765 bound_to 10752
  140.7412  134.3511  157.5147 H   0  0  0  0  0  0  0  0  0  0  0  0  # atno 11005 bound_to 11000
  145.2024  140.9860  143.4148 LP  0  0  0  0  0  0  0  0  0  0  0  0  # atno 17320 bound_to 7965
  144.9762  139.3830  143.6284 LP  0  0  0  0  0  0  0  0  0  0  0  0  # atno 17321 bound_to 7965
  139.6621  144.7662  151.1943 LP  0  0  0  0  0  0  0  0  0  0  0  0  # atno 17342 bound_to 10162
  140.7580  143.5994  150.8715 LP  0  0  0  0  0  0  0  0  0  0  0  0  # atno 17343 bound_to 10162
  156.6985  130.4616  149.5579 LP  0  0  0  0  0  0  0  0  0  0  0  0  # atno 17370 bound_to 10713
  156.1812  130.6500  151.0953 LP  0  0  0  0  0  0  0  0  0  0  0  0  # atno 17371 bound_to 10713
  139.8805  134.9082  156.2963 LP  0  0  0  0  0  0  0  0  0  0  0  0  # atno 17394 bound_to 11000
  140.9834  133.7253  156.0706 LP  0  0  0  0  0  0  0  0  0  0  0  0  # atno 17395 bound_to 11000

$$$$
