AV-unprocessed.smi:2359|AV-procd|sdf|9407|dock3
  -GOLD-   2272013 43D 1   1.00000     0.00000
 Structure written by MMmdl.
 40 41  0  0  0  0  0  0  0  0  1 V2000
  151.6457  141.5477  158.3041 C   0  0  0  0  0  0  0  0  0  0  0  0
  150.9267  141.0326  157.0751 C   0  0  0  0  0  0  0  0  0  0  0  0
  149.5358  141.1891  156.9237 C   0  0  0  0  0  0  0  0  0  0  0  0
  148.9196  140.6880  155.7610 C   0  0  0  0  0  0  0  0  0  0  0  0
  149.7052  140.0430  154.7794 C   0  0  0  0  0  0  0  0  0  0  0  0
  148.9847  139.5686  153.6511 N   0  0  0  0  0  0  0  0  0  0  0  0
  147.7334  139.0784  153.6079 C   0  0  0  0  0  0  0  0  0  0  0  0
  146.9912  138.9307  154.5795 O   0  0  0  0  0  0  0  0  0  0  0  0
  147.3816  138.7595  152.3538 N   0  0  0  0  0  0  0  0  0  0  0  0
  146.0912  138.2062  151.9603 C   0  0  0  0  0  0  0  0  0  0  0  0
  145.7498  136.9406  152.7650 C   0  0  0  0  0  0  0  0  0  0  0  0
  144.7042  136.0562  152.0677 C   0  0  2  0  0  0  0  0  0  0  0  0
  143.9275  135.1807  153.0706 C   0  0  0  0  0  0  0  0  0  0  0  0
  142.9512  134.2549  152.3359 C   0  0  0  0  0  0  0  0  0  0  0  0
  143.6991  133.4643  151.2572 C   0  0  0  0  0  0  0  0  0  0  0  0
  144.4917  134.4177  150.3495 C   0  0  0  0  0  0  0  0  0  0  0  0
  145.3761  135.2110  151.1350 O   0  0  0  0  0  0  0  0  0  0  0  0
  151.0450  139.8983  154.9339 N   0  0  0  0  0  0  0  0  0  0  0  0
  151.6350  140.3788  156.0484 C   0  0  0  0  0  0  0  0  0  0  0  0
  150.9660  142.0888  158.9629 H   0  0  0  0  0  0  0  0  0  0  0  0
  152.4512  142.2236  158.0161 H   0  0  0  0  0  0  0  0  0  0  0  0
  152.0765  140.7176  158.8642 H   0  0  0  0  0  0  0  0  0  0  0  0
  148.9471  141.6824  157.6830 H   0  0  0  0  0  0  0  0  0  0  0  0
  147.8529  140.7984  155.6294 H   0  0  0  0  0  0  0  0  0  0  0  0
  149.4756  139.6202  152.7709 H   0  0  0  0  0  0  0  0  0  0  0  0
  148.0534  138.9131  151.6162 H   0  0  0  0  0  0  0  0  0  0  0  0
  145.3077  138.9569  152.0763 H   0  0  0  0  0  0  0  0  0  0  0  0
  146.1388  137.9716  150.8966 H   0  0  0  0  0  0  0  0  0  0  0  0
  146.6567  136.3622  152.9463 H   0  0  0  0  0  0  0  0  0  0  0  0
  145.3706  137.2323  153.7454 H   0  0  0  0  0  0  0  0  0  0  0  0
  144.0030  136.6981  151.5310 H   0  0  0  0  0  0  0  0  0  0  0  0
  144.6269  134.5819  153.6556 H   0  0  0  0  0  0  0  0  0  0  0  0
  143.3839  135.8068  153.7789 H   0  0  0  0  0  0  0  0  0  0  0  0
  142.4674  133.5760  153.0385 H   0  0  0  0  0  0  0  0  0  0  0  0
  142.1599  134.8474  151.8747 H   0  0  0  0  0  0  0  0  0  0  0  0
  144.3840  132.7583  151.7282 H   0  0  0  0  0  0  0  0  0  0  0  0
  142.9980  132.8744  150.6666 H   0  0  0  0  0  0  0  0  0  0  0  0
  145.0775  133.8475  149.6281 H   0  0  0  0  0  0  0  0  0  0  0  0
  143.8205  135.0603  149.7776 H   0  0  0  0  0  0  0  0  0  0  0  0
  152.7031  140.2353  156.1224 H   0  0  0  0  0  0  0  0  0  0  0  0
  1  2  1  0  0  0  0
  1 20  1  0  0  0  0
  1 21  1  0  0  0  0
  1 22  1  0  0  0  0
  2 19  1  0  0  0  0
  2  3  2  0  0  0  0
  3  4  1  0  0  0  0
  3 23  1  0  0  0  0
  4  5  2  0  0  0  0
  4 24  1  0  0  0  0
  5  6  1  0  0  0  0
  5 18  1  0  0  0  0
  6  7  1  0  0  0  0
  6 25  1  0  0  0  0
  7  8  2  0  0  0  0
  7  9  1  0  0  0  0
  9 10  1  0  0  0  0
  9 26  1  0  0  0  0
 10 11  1  0  0  0  0
 10 27  1  0  0  0  0
 10 28  1  0  0  0  0
 11 12  1  0  0  0  0
 11 29  1  0  0  0  0
 11 30  1  0  0  0  0
 12 17  1  0  0  0  0
 12 13  1  0  0  0  0
 12 31  1  0  0  0  0
 13 14  1  0  0  0  0
 13 32  1  0  0  0  0
 13 33  1  0  0  0  0
 14 15  1  0  0  0  0
 14 34  1  0  0  0  0
 14 35  1  0  0  0  0
 15 16  1  0  0  0  0
 15 36  1  0  0  0  0
 15 37  1  0  0  0  0
 16 17  1  0  0  0  0
 16 38  1  0  0  0  0
 16 39  1  0  0  0  0
 18 19  2  0  0  0  0
 19 40  1  0  0  0  0
M  END
> <s_m_source_file>
AV-unprocessed.smi

> <i_m_source_file_index>
2359

> <i_lp_mmshare_version>
43012

> <i_f3d_flags>
0

> <s_epik_input>
W0NIM11jMVtjSF1bY0hdYyhuW2NIXTEpW05IXUMoPU8pW05IXVtDSDJdW0NIMl1bQ0BASF0yW0NIMl1bQ0gyXVtDSDJdW0NIMl1PMg==

> <s_epik_cmdline>
J2VwaWtfcHl0aG9uJywgJy1waCcsICc3LjAnLCAnLXRuJywgJzgnLCAnLW1hJywgJzIwMCcsICctbWV0YWxfYmluZGluZycsICctaW1hZScsICc8aW5maWxlLm1hZT4nLCAnLW9tYWUnLCAnPG91dGZpbGUubWFlPic=

> <r_lp_tautomer_probability>
1

> <r_epik_Ionization_Penalty>
5.73679e-05

> <r_epik_Ionization_Penalty_Charging>
0

> <r_epik_Ionization_Penalty_Neutral>
5.73679e-05

> <r_epik_State_Penalty>
-0

> <r_epik_Charging_Adjusted_Penalty>
0

> <i_epik_Tot_Q>
0

> <i_epik_Tot_abs_Q>
0

> <r_epik_Metal_State_Penalty>
-0

> <b_epik_Metal_Only>
0

> <s_lp_Force_Field>
OPLS_2005

> <r_lp_Energy>
10.9797

> <b_lp_Chiralities_Consistent>
1

> <s_lp_Variant>
AV-unprocessed.smi:2359-1

> <Gold.Version>
5.8.1

> <Gold.Id.Protein>
6NUR|6NUR_protein|mol2

> <Gold.PLP.Fitness>
41.2166

> <Gold.PLP.PLP>
-34.3331

> <Gold.PLP.part.hbond>
-3.8748

> <Gold.PLP.part.metal>
0.0000

> <Gold.PLP.part.buried>
-3.7848

> <Gold.PLP.part.nonpolar>
-27.3072

> <Gold.PLP.part.repulsive>
0.5805

> <Gold.PLP.ligand.clash>
0.0000

> <Gold.PLP.ligand.torsion>
0.6287

> <Gold.PLP.Chemscore.Hbond>
2.7120

> <Gold.PLP.Chemscore.CHOScore>
0.0000

> <Gold.PLP.Chemscore.Metal>
0.0000

> <Gold.Chemscore.Hbonds>
donor molecule, donor type, donor heavy atom, donor atom, acceptor molecule, acceptor atom, score
      L1  H     6    25       P1  7957  1.00
      L1  H     9    26       P1  7957  0.86
      P1  H  7989  7998       L1    18  1.00

> <Gold.PLP.Chemscore.Internal.Correction>
0.0050

> <Gold.Rescore>
     Score         DG    S(hbond)    S(metal)    S(lipo)     H(rot)  DE(clash)    DE(int)     intcor
     15.58     -18.76       2.76        0.00      66.03       1.42       0.08       3.10       ----

> <Gold.Chemscore.Fitness>
15.5767

> <Gold.Chemscore.DG>
-18.7600

> <Gold.Chemscore.ZeroCoef>
-5.4800

> <Gold.Chemscore.Hbond>
2.7551

> <Gold.Chemscore.Metal>
0.0000

> <Gold.Chemscore.Lipo>
66.0302

> <Gold.Chemscore.Internal_Hbond>
0.0000

> <Gold.Chemscore.DEClash>
0.0801

> <Gold.Chemscore.DEInternal>
3.1032

> <Gold.Chemscore.Rot>
1.4248

> <Gold.Chemscore.Internal.Correction>
   9.000000E+99

> <Gold.Chemscore.Hbonds>
donor molecule, donor type, donor heavy atom, donor atom, acceptor molecule, acceptor atom, score
      L1  H     6    25       P1  7957  0.97
      L1  H     9    26       P1  7957  0.69
      P1  H  7989  7998       L1    18  0.17

> <Gold.Chemscore.Hbond.Weighted>
-9.2021

> <Gold.Chemscore.Metal.Weighted>
-0.0000

> <Gold.Chemscore.Lipo.Weighted>
-7.7255

> <Gold.Chemscore.Internal_Hbond.Weighted>
0.0000

> <Gold.Chemscore.DEClash.Weighted>
0.0801

> <Gold.Chemscore.DEInternal.Weighted>
3.1032

> <Gold.Chemscore.Rot.Weighted>
3.6476

> <Gold.Chemscore.Internal.Correction.Weighted>
   9.000000E+99

> <Gold.Protein.RotatedTorsions>
[ 6907 6896 6895 6894 ] final  112.00 input  -60.11 | X-H torsion
[ 7974 7965 7964 7962 ] final -134.71 input  175.53 | X-H torsion
[ 8008 7997 7996 7995 ] final   17.71 input   59.86 | X-H torsion
[ 10167 10162 10161 10158 ] final  -22.02 input  -65.29 | X-H torsion
[ 10718 10713 10712 10709 ] final  172.66 input   66.30 | X-H torsion
[ 10763 10752 10751 10750 ] final  -55.54 input  -60.55 | X-H torsion
[ 11005 11000 10999 10996 ] final  -13.82 input  -57.11 | X-H torsion

> <Gold.Protein.ActiveResidues>
 VAL166  LYS551  ARG553  GLY616  TRP617  ASP618  TYR619  PRO620  LYS621  CYS622 
 ASP623  PHE694  ASN695  SER759  ASP760  ASP761  ALA762  ILE779  LEU786  VAL792 
 PHE793  MET794  SER795  GLU796  ALA797  LYS798  CYS799  TRP800  GLU811  SER814 

> <Gold.Protein.RotatedAtoms>
  152.4940  133.8578  159.7234 H   0  0  0  0  0  0  0  0  0  0  0  0  # atno 6907 bound_to 6896
  150.9097  133.7003  159.2864 H   0  0  0  0  0  0  0  0  0  0  0  0  # atno 6908 bound_to 6896
  151.4417  135.1025  159.9724 H   0  0  0  0  0  0  0  0  0  0  0  0  # atno 6909 bound_to 6896
  144.9079  140.6856  143.5044 H   0  0  0  0  0  0  0  0  0  0  0  0  # atno 7974 bound_to 7965
  154.8954  140.2993  155.5347 H   0  0  0  0  0  0  0  0  0  0  0  0  # atno 8008 bound_to 7997
  156.3020  140.2417  156.3909 H   0  0  0  0  0  0  0  0  0  0  0  0  # atno 8009 bound_to 7997
  154.8576  140.0406  157.1633 H   0  0  0  0  0  0  0  0  0  0  0  0  # atno 8010 bound_to 7997
  140.7284  143.4573  151.0430 H   0  0  0  0  0  0  0  0  0  0  0  0  # atno 10167 bound_to 10162
  156.9756  131.0103  151.2894 H   0  0  0  0  0  0  0  0  0  0  0  0  # atno 10718 bound_to 10713
  154.1923  135.6425  153.5063 H   0  0  0  0  0  0  0  0  0  0  0  0  # atno 10763 bound_to 10752
  153.0032  135.5431  154.6402 H   0  0  0  0  0  0  0  0  0  0  0  0  # atno 10764 bound_to 10752
  154.5794  135.2924  155.0721 H   0  0  0  0  0  0  0  0  0  0  0  0  # atno 10765 bound_to 10752
  140.7801  133.8370  155.9284 H   0  0  0  0  0  0  0  0  0  0  0  0  # atno 11005 bound_to 11000
  145.3505  139.1707  143.4437 LP  0  0  0  0  0  0  0  0  0  0  0  0  # atno 17320 bound_to 7965
  146.3143  140.3556  142.8660 LP  0  0  0  0  0  0  0  0  0  0  0  0  # atno 17321 bound_to 7965
  139.8255  143.7762  152.3178 LP  0  0  0  0  0  0  0  0  0  0  0  0  # atno 17342 bound_to 10162
  139.7860  144.7428  151.0022 LP  0  0  0  0  0  0  0  0  0  0  0  0  # atno 17343 bound_to 10162
  157.5562  130.8215  149.8207 LP  0  0  0  0  0  0  0  0  0  0  0  0  # atno 17370 bound_to 10713
  156.0265  130.3778  150.1809 LP  0  0  0  0  0  0  0  0  0  0  0  0  # atno 17371 bound_to 10713
  140.9491  134.1802  157.4741 LP  0  0  0  0  0  0  0  0  0  0  0  0  # atno 17394 bound_to 11000
  139.8744  134.9902  156.5492 LP  0  0  0  0  0  0  0  0  0  0  0  0  # atno 17395 bound_to 11000

$$$$
