AV-unprocessed.smi:1287|AV-procd|sdf|5379|dock1
  -GOLD-   22720 4523D 1   1.00000     0.00000
 Structure written by MMmdl.
 44 45  0  0  0  0  0  0  0  0  1 V2000
  145.9581  142.5742  154.8810 C   0  0  0  0  0  0  0  0  0  0  0  0
  146.8398  141.5473  154.1789 C   0  0  0  0  0  0  0  0  0  0  0  0
  148.0559  141.7224  154.1064 O   0  0  0  0  0  0  0  0  0  0  0  0
  146.2122  140.4765  153.6667 N   0  0  0  0  0  0  0  0  0  0  0  0
  146.8661  139.3651  152.9776 C   0  0  2  0  0  0  0  0  0  0  0  0
  145.7983  138.3068  152.6546 C   0  0  0  0  0  0  0  0  0  0  0  0
  147.9263  138.7242  153.8871 C   0  0  0  0  0  0  0  0  0  0  0  0
  147.6162  138.2783  154.9933 O   0  0  0  0  0  0  0  0  0  0  0  0
  149.1778  138.6882  153.4051 N   0  0  0  0  0  0  0  0  0  0  0  0
  150.3358  138.1765  154.1308 C   0  0  0  0  0  0  0  0  0  0  0  0
  150.7728  139.0449  155.3030 C   0  0  0  0  0  0  0  0  0  0  0  0
  150.1663  138.9530  156.5738 C   0  0  0  0  0  0  0  0  0  0  0  0
  150.6214  139.7891  157.6109 C   0  0  0  0  0  0  0  0  0  0  0  0
  151.6729  140.7007  157.3537 C   0  0  0  0  0  0  0  0  0  0  0  0
  152.1503  141.5445  158.3808 N   0  0  0  0  0  0  0  0  0  0  0  0
  152.8267  140.9232  159.5184 C   0  0  0  0  0  0  0  0  0  0  0  0
  153.5203  141.9914  160.3803 C   0  0  0  0  0  0  0  0  0  0  0  0
  152.5728  142.9771  160.7766 O   0  0  0  0  0  0  0  0  0  0  0  0
  152.0088  143.6487  159.6552 C   0  0  0  0  0  0  0  0  0  0  0  0
  151.2634  142.6409  158.7630 C   0  0  0  0  0  0  0  0  0  0  0  0
  152.2420  140.7964  156.1263 N   0  0  0  0  0  0  0  0  0  0  0  0
  151.8030  139.9915  155.1360 C   0  0  0  0  0  0  0  0  0  0  0  0
  145.3483  142.0941  155.6473 H   0  0  0  0  0  0  0  0  0  0  0  0
  145.2954  143.0596  154.1640 H   0  0  0  0  0  0  0  0  0  0  0  0
  146.5652  143.3427  155.3610 H   0  0  0  0  0  0  0  0  0  0  0  0
  145.2111  140.4136  153.7817 H   0  0  0  0  0  0  0  0  0  0  0  0
  147.3224  139.7188  152.0505 H   0  0  0  0  0  0  0  0  0  0  0  0
  146.2340  137.4487  152.1412 H   0  0  0  0  0  0  0  0  0  0  0  0
  145.0293  138.7185  152.0003 H   0  0  0  0  0  0  0  0  0  0  0  0
  145.3026  137.9400  153.5548 H   0  0  0  0  0  0  0  0  0  0  0  0
  149.3454  139.0715  152.4861 H   0  0  0  0  0  0  0  0  0  0  0  0
  150.1325  137.1619  154.4778 H   0  0  0  0  0  0  0  0  0  0  0  0
  151.1695  138.1019  153.4324 H   0  0  0  0  0  0  0  0  0  0  0  0
  149.3614  138.2573  156.7602 H   0  0  0  0  0  0  0  0  0  0  0  0
  150.1510  139.7298  158.5809 H   0  0  0  0  0  0  0  0  0  0  0  0
  152.0971  140.3762  160.1174 H   0  0  0  0  0  0  0  0  0  0  0  0
  153.5694  140.2041  159.1701 H   0  0  0  0  0  0  0  0  0  0  0  0
  153.9501  141.5334  161.2712 H   0  0  0  0  0  0  0  0  0  0  0  0
  154.3418  142.4588  159.8348 H   0  0  0  0  0  0  0  0  0  0  0  0
  151.3196  144.4148  160.0106 H   0  0  0  0  0  0  0  0  0  0  0  0
  152.7913  144.1608  159.0928 H   0  0  0  0  0  0  0  0  0  0  0  0
  150.8688  143.1648  157.8938 H   0  0  0  0  0  0  0  0  0  0  0  0
  150.4078  142.2296  159.3001 H   0  0  0  0  0  0  0  0  0  0  0  0
  152.2932  140.1065  154.1804 H   0  0  0  0  0  0  0  0  0  0  0  0
  1  2  1  0  0  0  0
  1 23  1  0  0  0  0
  1 24  1  0  0  0  0
  1 25  1  0  0  0  0
  2  3  2  0  0  0  0
  2  4  1  0  0  0  0
  4  5  1  0  0  0  0
  4 26  1  0  0  0  0
  5  6  1  0  0  0  0
  5  7  1  0  0  0  0
  5 27  1  0  0  0  0
  6 28  1  0  0  0  0
  6 29  1  0  0  0  0
  6 30  1  0  0  0  0
  7  8  2  0  0  0  0
  7  9  1  0  0  0  0
  9 10  1  0  0  0  0
  9 31  1  0  0  0  0
 10 11  1  0  0  0  0
 10 32  1  0  0  0  0
 10 33  1  0  0  0  0
 11 22  1  0  0  0  0
 11 12  2  0  0  0  0
 12 13  1  0  0  0  0
 12 34  1  0  0  0  0
 13 14  2  0  0  0  0
 13 35  1  0  0  0  0
 14 15  1  0  0  0  0
 14 21  1  0  0  0  0
 15 20  1  0  0  0  0
 15 16  1  0  0  0  0
 16 17  1  0  0  0  0
 16 36  1  0  0  0  0
 16 37  1  0  0  0  0
 17 18  1  0  0  0  0
 17 38  1  0  0  0  0
 17 39  1  0  0  0  0
 18 19  1  0  0  0  0
 19 20  1  0  0  0  0
 19 40  1  0  0  0  0
 19 41  1  0  0  0  0
 20 42  1  0  0  0  0
 20 43  1  0  0  0  0
 21 22  2  0  0  0  0
 22 44  1  0  0  0  0
M  END
> <s_m_source_file>
AV-unprocessed.smi

> <i_m_source_file_index>
1287

> <i_lp_mmshare_version>
43012

> <i_f3d_flags>
0

> <s_epik_input>
W0NIM11DKD1PKVtOSF1bQ0BIXShbQ0gzXSlDKD1PKVtOSF1bQ0gyXWMxW2NIXVtjSF1jKG5bY0hdMSlOMltDSDJdW0NIMl1PW0NIMl1bQ0gyXTI=

> <s_epik_cmdline>
J2VwaWtfcHl0aG9uJywgJy1waCcsICc3LjAnLCAnLXRuJywgJzgnLCAnLW1hJywgJzIwMCcsICctbWV0YWxfYmluZGluZycsICctaW1hZScsICc8aW5maWxlLm1hZT4nLCAnLW9tYWUnLCAnPG91dGZpbGUubWFlPic=

> <r_lp_tautomer_probability>
1

> <r_epik_Ionization_Penalty>
0.00481935

> <r_epik_Ionization_Penalty_Charging>
0

> <r_epik_Ionization_Penalty_Neutral>
0.00481935

> <r_epik_State_Penalty>
0.00349439

> <r_epik_Charging_Adjusted_Penalty>
0.00349439

> <i_epik_Tot_Q>
0

> <i_epik_Tot_abs_Q>
0

> <r_epik_Metal_State_Penalty>
-0

> <b_epik_Metal_Only>
0

> <s_lp_Force_Field>
OPLS_2005

> <r_lp_Energy>
14.7746

> <b_lp_Chiralities_Consistent>
1

> <s_lp_Variant>
AV-unprocessed.smi:1287-1

> <Gold.Version>
5.8.1

> <Gold.Id.Protein>
6NUR|6NUR_protein|mol2

> <Gold.PLP.Fitness>
47.7319

> <Gold.PLP.PLP>
-37.8675

> <Gold.PLP.part.hbond>
-5.0000

> <Gold.PLP.part.metal>
0.0000

> <Gold.PLP.part.buried>
-0.3592

> <Gold.PLP.part.nonpolar>
-32.8444

> <Gold.PLP.part.repulsive>
0.3704

> <Gold.PLP.ligand.clash>
0.0000

> <Gold.PLP.ligand.torsion>
0.5824

> <Gold.PLP.Chemscore.Hbond>
3.5136

> <Gold.PLP.Chemscore.CHOScore>
0.0000

> <Gold.PLP.Chemscore.Metal>
0.0000

> <Gold.Chemscore.Hbonds>
donor molecule, donor type, donor heavy atom, donor atom, acceptor molecule, acceptor atom, score
      L1  H     4    26       P1 10175  0.66
      L1  H     9    31       P1  7957  1.00
      P1  H  7997  8010       L1    21  0.48

> <Gold.PLP.Chemscore.Internal.Correction>
0.4885

> <Gold.Rescore>
     Score         DG    S(hbond)    S(metal)    S(lipo)     H(rot)  DE(clash)    DE(int)     intcor
     14.49     -17.88       2.42        0.00      84.23       2.16       0.54       2.84       ----

> <Gold.Chemscore.Fitness>
14.4895

> <Gold.Chemscore.DG>
-17.8755

> <Gold.Chemscore.ZeroCoef>
-5.4800

> <Gold.Chemscore.Hbond>
2.4174

> <Gold.Chemscore.Metal>
0.0000

> <Gold.Chemscore.Lipo>
84.2302

> <Gold.Chemscore.Internal_Hbond>
0.0000

> <Gold.Chemscore.DEClash>
0.5419

> <Gold.Chemscore.DEInternal>
2.8441

> <Gold.Chemscore.Rot>
2.1616

> <Gold.Chemscore.Internal.Correction>
   9.000000E+99

> <Gold.Chemscore.Hbonds>
donor molecule, donor type, donor heavy atom, donor atom, acceptor molecule, acceptor atom, score
      L1  H     4    26       P1 10175  0.63
      L1  H     9    31       P1  7957  0.97
      P1  H  7997  8010       L1    21  0.10

> <Gold.Chemscore.Hbond.Weighted>
-8.0742

> <Gold.Chemscore.Metal.Weighted>
-0.0000

> <Gold.Chemscore.Lipo.Weighted>
-9.8549

> <Gold.Chemscore.Internal_Hbond.Weighted>
0.0000

> <Gold.Chemscore.DEClash.Weighted>
0.5419

> <Gold.Chemscore.DEInternal.Weighted>
2.8441

> <Gold.Chemscore.Rot.Weighted>
5.5336

> <Gold.Chemscore.Internal.Correction.Weighted>
   9.000000E+99

> <Gold.Protein.RotatedTorsions>
[ 6907 6896 6895 6894 ] final  117.49 input  -60.11 | X-H torsion
[ 7974 7965 7964 7962 ] final   -7.51 input  175.53 | X-H torsion
[ 8008 7997 7996 7995 ] final   76.86 input   59.86 | X-H torsion
[ 10167 10162 10161 10158 ] final  -42.40 input  -65.29 | X-H torsion
[ 10718 10713 10712 10709 ] final -140.28 input   66.30 | X-H torsion
[ 10763 10752 10751 10750 ] final -171.07 input  -60.55 | X-H torsion
[ 11005 11000 10999 10996 ] final -105.67 input  -57.11 | X-H torsion

> <Gold.Protein.ActiveResidues>
 VAL166  LYS551  ARG553  GLY616  TRP617  ASP618  TYR619  PRO620  LYS621  CYS622 
 ASP623  PHE694  ASN695  SER759  ASP760  ASP761  ALA762  ILE779  LEU786  VAL792 
 PHE793  MET794  SER795  GLU796  ALA797  LYS798  CYS799  TRP800  GLU811  SER814 

> <Gold.Protein.RotatedAtoms>
  152.4608  133.7819  159.6854 H   0  0  0  0  0  0  0  0  0  0  0  0  # atno 6907 bound_to 6896
  150.8552  133.7716  159.3018 H   0  0  0  0  0  0  0  0  0  0  0  0  # atno 6908 bound_to 6896
  151.5299  135.1071  159.9952 H   0  0  0  0  0  0  0  0  0  0  0  0  # atno 6909 bound_to 6896
  146.2305  140.2330  142.8341 H   0  0  0  0  0  0  0  0  0  0  0  0  # atno 7974 bound_to 7965
  155.8334  140.3465  155.5586 H   0  0  0  0  0  0  0  0  0  0  0  0  # atno 8008 bound_to 7997
  155.8217  140.0914  157.1864 H   0  0  0  0  0  0  0  0  0  0  0  0  # atno 8009 bound_to 7997
  154.4004  140.1428  156.3496 H   0  0  0  0  0  0  0  0  0  0  0  0  # atno 8010 bound_to 7997
  140.6970  143.3040  151.3203 H   0  0  0  0  0  0  0  0  0  0  0  0  # atno 10167 bound_to 10162
  156.3205  130.7531  151.1628 H   0  0  0  0  0  0  0  0  0  0  0  0  # atno 10718 bound_to 10713
  154.6346  135.2891  155.0177 H   0  0  0  0  0  0  0  0  0  0  0  0  # atno 10763 bound_to 10752
  154.1325  135.6531  153.4929 H   0  0  0  0  0  0  0  0  0  0  0  0  # atno 10764 bound_to 10752
  153.0296  135.5313  154.7187 H   0  0  0  0  0  0  0  0  0  0  0  0  # atno 10765 bound_to 10752
  141.1042  133.8828  157.1763 H   0  0  0  0  0  0  0  0  0  0  0  0  # atno 11005 bound_to 11000
  144.9543  140.8210  143.5553 LP  0  0  0  0  0  0  0  0  0  0  0  0  # atno 17320 bound_to 7965
  145.2294  139.2122  143.5051 LP  0  0  0  0  0  0  0  0  0  0  0  0  # atno 17321 bound_to 7965
  139.6439  144.0488  152.2575 LP  0  0  0  0  0  0  0  0  0  0  0  0  # atno 17342 bound_to 10162
  140.0003  144.6298  150.7736 LP  0  0  0  0  0  0  0  0  0  0  0  0  # atno 17343 bound_to 10162
  157.7411  131.0509  150.5122 LP  0  0  0  0  0  0  0  0  0  0  0  0  # atno 17370 bound_to 10713
  156.5274  130.4176  149.6219 LP  0  0  0  0  0  0  0  0  0  0  0  0  # atno 17371 bound_to 10713
  139.9905  135.0066  156.9964 LP  0  0  0  0  0  0  0  0  0  0  0  0  # atno 17394 bound_to 11000
  140.4945  134.1160  155.7239 LP  0  0  0  0  0  0  0  0  0  0  0  0  # atno 17395 bound_to 11000

$$$$
