AV-unprocessed.smi:2446|AV-procd|sdf|9643|dock3
  -GOLD-   2272013273D 1   1.00000     0.00000
 Structure written by MMmdl.
 39 40  0  0  0  0  0  0  0  0  1 V2000
  146.4070  142.4080  154.1675 C   0  0  0  0  0  0  0  0  0  0  0  0
  147.1666  141.0973  154.0526 C   0  0  0  0  0  0  0  0  0  0  0  0
  146.7162  140.0980  153.1634 C   0  0  0  0  0  0  0  0  0  0  0  0
  147.3343  138.9102  153.0007 N   0  0  0  0  0  0  0  0  0  0  0  0
  148.4459  138.6753  153.7273 C   0  0  0  0  0  0  0  0  0  0  0  0
  148.9833  139.5999  154.6438 C   0  0  0  0  0  0  0  0  0  0  0  0
  148.3252  140.8405  154.8253 C   0  0  0  0  0  0  0  0  0  0  0  0
  148.7886  141.8540  155.7102 N   0  0  0  0  0  0  0  0  0  0  0  0
  149.4642  141.7345  156.8703 C   0  0  0  0  0  0  0  0  0  0  0  0
  149.8306  140.6708  157.3649 O   0  0  0  0  0  0  0  0  0  0  0  0
  149.7065  142.9060  157.4875 N   0  0  0  0  0  0  0  0  0  0  0  0
  150.4081  143.1415  158.7519 C   0  0  2  0  0  0  0  0  0  0  0  0
  150.7884  144.6291  158.8578 C   0  0  0  0  0  0  0  0  0  0  0  0
  151.5798  144.9126  160.1435 C   0  0  0  0  0  0  0  0  0  0  0  0
  152.8261  144.0186  160.2410 C   0  0  0  0  0  0  0  0  0  0  0  0
  152.4603  142.5223  160.1481 C   0  0  2  0  0  0  0  0  0  0  0  0
  153.7006  141.6127  160.2649 C   0  0  0  0  0  0  0  0  0  0  0  0
  153.4004  140.3557  159.9364 F   0  0  0  0  0  0  0  0  0  0  0  0
  154.6658  142.0509  159.4568 F   0  0  0  0  0  0  0  0  0  0  0  0
  154.1640  141.6326  161.5149 F   0  0  0  0  0  0  0  0  0  0  0  0
  151.6660  142.2519  158.8528 C   0  0  0  0  0  0  0  0  0  0  0  0
  145.5576  142.4347  153.4843 H   0  0  0  0  0  0  0  0  0  0  0  0
  147.0584  143.2490  153.9282 H   0  0  0  0  0  0  0  0  0  0  0  0
  146.0285  142.5409  155.1814 H   0  0  0  0  0  0  0  0  0  0  0  0
  145.8333  140.2549  152.5610 H   0  0  0  0  0  0  0  0  0  0  0  0
  148.9275  137.7214  153.5696 H   0  0  0  0  0  0  0  0  0  0  0  0
  149.8876  139.3431  155.1728 H   0  0  0  0  0  0  0  0  0  0  0  0
  148.5023  142.7916  155.4704 H   0  0  0  0  0  0  0  0  0  0  0  0
  149.3663  143.7334  157.0190 H   0  0  0  0  0  0  0  0  0  0  0  0
  149.7415  142.9132  159.5856 H   0  0  0  0  0  0  0  0  0  0  0  0
  151.3861  144.9230  157.9936 H   0  0  0  0  0  0  0  0  0  0  0  0
  149.8898  145.2471  158.8371 H   0  0  0  0  0  0  0  0  0  0  0  0
  151.8730  145.9623  160.1742 H   0  0  0  0  0  0  0  0  0  0  0  0
  150.9404  144.7449  161.0110 H   0  0  0  0  0  0  0  0  0  0  0  0
  153.5227  144.2798  159.4434 H   0  0  0  0  0  0  0  0  0  0  0  0
  153.3427  144.2216  161.1793 H   0  0  0  0  0  0  0  0  0  0  0  0
  151.8072  142.2885  160.9906 H   0  0  0  0  0  0  0  0  0  0  0  0
  151.3809  141.2007  158.8130 H   0  0  0  0  0  0  0  0  0  0  0  0
  152.3072  142.4254  157.9874 H   0  0  0  0  0  0  0  0  0  0  0  0
  1  2  1  0  0  0  0
  1 22  1  0  0  0  0
  1 23  1  0  0  0  0
  1 24  1  0  0  0  0
  2  7  1  0  0  0  0
  2  3  2  0  0  0  0
  3  4  1  0  0  0  0
  3 25  1  0  0  0  0
  4  5  2  0  0  0  0
  5  6  1  0  0  0  0
  5 26  1  0  0  0  0
  6  7  2  0  0  0  0
  6 27  1  0  0  0  0
  7  8  1  0  0  0  0
  8  9  1  0  0  0  0
  8 28  1  0  0  0  0
  9 10  2  0  0  0  0
  9 11  1  0  0  0  0
 11 12  1  0  0  0  0
 11 29  1  0  0  0  0
 12 21  1  0  0  0  0
 12 13  1  0  0  0  0
 12 30  1  0  0  0  0
 13 14  1  0  0  0  0
 13 31  1  0  0  0  0
 13 32  1  0  0  0  0
 14 15  1  0  0  0  0
 14 33  1  0  0  0  0
 14 34  1  0  0  0  0
 15 16  1  0  0  0  0
 15 35  1  0  0  0  0
 15 36  1  0  0  0  0
 16 17  1  0  0  0  0
 16 21  1  0  0  0  0
 16 37  1  0  0  0  0
 17 18  1  0  0  0  0
 17 19  1  0  0  0  0
 17 20  1  0  0  0  0
 21 38  1  0  0  0  0
 21 39  1  0  0  0  0
M  END
> <s_m_source_file>
AV-unprocessed.smi

> <i_m_source_file_index>
2446

> <i_lp_mmshare_version>
43012

> <i_f3d_flags>
0

> <s_epik_input>
W0NIM11jMVtjSF1uW2NIXVtjSF1jMVtOSF1DKD1PKVtOSF1bQ0BASF0yW0NIMl1bQ0gyXVtDSDJdW0NAQEhdKEMoRikoRilGKVtDSDJdMg==

> <s_epik_cmdline>
J2VwaWtfcHl0aG9uJywgJy1waCcsICc3LjAnLCAnLXRuJywgJzgnLCAnLW1hJywgJzIwMCcsICctbWV0YWxfYmluZGluZycsICctaW1hZScsICc8aW5maWxlLm1hZT4nLCAnLW9tYWUnLCAnPG91dGZpbGUubWFlPic=

> <r_epik_Ionization_Penalty>
0.20168

> <r_epik_Ionization_Penalty_Charging>
0

> <r_epik_Ionization_Penalty_Neutral>
0.20168

> <r_epik_State_Penalty>
0.191514

> <r_epik_Charging_Adjusted_Penalty>
0.191514

> <i_epik_Tot_Q>
0

> <i_epik_Tot_abs_Q>
0

> <r_epik_Metal_State_Penalty>
0.142371

> <b_epik_Metal_Only>
0

> <s_lp_Force_Field>
OPLS_2005

> <r_lp_Energy>
26.2068

> <b_lp_Chiralities_Consistent>
1

> <s_lp_Variant>
AV-unprocessed.smi:2446-3

> <Gold.Version>
5.8.1

> <Gold.Id.Protein>
6NUR|6NUR_protein|mol2

> <Gold.PLP.Fitness>
53.0882

> <Gold.PLP.PLP>
-42.4565

> <Gold.PLP.part.hbond>
-2.0000

> <Gold.PLP.part.metal>
0.0000

> <Gold.PLP.part.buried>
-4.4033

> <Gold.PLP.part.nonpolar>
-36.9515

> <Gold.PLP.part.repulsive>
1.4223

> <Gold.PLP.ligand.clash>
0.0000

> <Gold.PLP.ligand.torsion>
0.6943

> <Gold.PLP.Chemscore.Hbond>
2.0000

> <Gold.PLP.Chemscore.CHOScore>
2.0000

> <Gold.PLP.Chemscore.Metal>
0.0000

> <Gold.Chemscore.Hbonds>
donor molecule, donor type, donor heavy atom, donor atom, acceptor molecule, acceptor atom, score
      L1  H     8    28       P1  8028  0.94
      L1  H    11    29       P1  8028  1.00
      L1  C     3    25       P1 10175  1.00
      L1  C     5    26       P1  7948  1.00

> <Gold.PLP.Chemscore.Internal.Correction>
0.0204

> <Gold.Rescore>
     Score         DG    S(hbond)    S(metal)    S(lipo)     H(rot)  DE(clash)    DE(int)     intcor
     17.50     -21.71       1.87        0.00     107.13       1.00       1.58       2.63       ----

> <Gold.Chemscore.Fitness>
17.4989

> <Gold.Chemscore.DG>
-21.7069

> <Gold.Chemscore.ZeroCoef>
-5.4800

> <Gold.Chemscore.Hbond>
1.8721

> <Gold.Chemscore.Metal>
0.0000

> <Gold.Chemscore.Lipo>
107.1293

> <Gold.Chemscore.Internal_Hbond>
0.0000

> <Gold.Chemscore.DEClash>
1.5812

> <Gold.Chemscore.DEInternal>
2.6268

> <Gold.Chemscore.Rot>
1.0000

> <Gold.Chemscore.Internal.Correction>
   9.000000E+99

> <Gold.Chemscore.Hbonds>
donor molecule, donor type, donor heavy atom, donor atom, acceptor molecule, acceptor atom, score
      L1  H     8    28       P1  8028  0.90
      L1  H    11    29       P1  8028  0.78

> <Gold.Chemscore.Hbond.Weighted>
-6.2528

> <Gold.Chemscore.Metal.Weighted>
-0.0000

> <Gold.Chemscore.Lipo.Weighted>
-12.5341

> <Gold.Chemscore.Internal_Hbond.Weighted>
0.0000

> <Gold.Chemscore.DEClash.Weighted>
1.5812

> <Gold.Chemscore.DEInternal.Weighted>
2.6268

> <Gold.Chemscore.Rot.Weighted>
2.5600

> <Gold.Chemscore.Internal.Correction.Weighted>
   9.000000E+99

> <Gold.Protein.RotatedTorsions>
[ 6907 6896 6895 6894 ] final  -56.56 input  -60.11 | X-H torsion
[ 7974 7965 7964 7962 ] final  -44.19 input  175.53 | X-H torsion
[ 8008 7997 7996 7995 ] final -131.56 input   59.86 | X-H torsion
[ 10167 10162 10161 10158 ] final  -95.55 input  -65.29 | X-H torsion
[ 10718 10713 10712 10709 ] final   -6.79 input   66.30 | X-H torsion
[ 10763 10752 10751 10750 ] final -147.96 input  -60.55 | X-H torsion
[ 11005 11000 10999 10996 ] final  -62.10 input  -57.11 | X-H torsion

> <Gold.Protein.ActiveResidues>
 VAL166  LYS551  ARG553  GLY616  TRP617  ASP618  TYR619  PRO620  LYS621  CYS622 
 ASP623  PHE694  ASN695  SER759  ASP760  ASP761  ALA762  ILE779  LEU786  VAL792 
 PHE793  MET794  SER795  GLU796  ALA797  LYS798  CYS799  TRP800  GLU811  SER814 

> <Gold.Protein.RotatedAtoms>
  150.8157  134.7338  159.6727 H   0  0  0  0  0  0  0  0  0  0  0  0  # atno 6907 bound_to 6896
  152.4276  134.5836  159.9964 H   0  0  0  0  0  0  0  0  0  0  0  0  # atno 6908 bound_to 6896
  151.6033  133.3317  159.3088 H   0  0  0  0  0  0  0  0  0  0  0  0  # atno 6909 bound_to 6896
  145.9945  140.7144  142.9300 H   0  0  0  0  0  0  0  0  0  0  0  0  # atno 7974 bound_to 7965
  155.3144  140.0459  157.3036 H   0  0  0  0  0  0  0  0  0  0  0  0  # atno 8008 bound_to 7997
  154.5415  140.2289  155.8600 H   0  0  0  0  0  0  0  0  0  0  0  0  # atno 8009 bound_to 7997
  156.1885  140.3056  155.9292 H   0  0  0  0  0  0  0  0  0  0  0  0  # atno 8010 bound_to 7997
  140.3030  143.3151  152.0228 H   0  0  0  0  0  0  0  0  0  0  0  0  # atno 10167 bound_to 10162
  156.7268  130.5167  149.5855 H   0  0  0  0  0  0  0  0  0  0  0  0  # atno 10718 bound_to 10713
  154.8258  135.3347  154.6899 H   0  0  0  0  0  0  0  0  0  0  0  0  # atno 10763 bound_to 10752
  153.7525  135.6938  153.4947 H   0  0  0  0  0  0  0  0  0  0  0  0  # atno 10764 bound_to 10752
  153.2166  135.4463  155.0392 H   0  0  0  0  0  0  0  0  0  0  0  0  # atno 10765 bound_to 10752
  141.1348  133.6636  156.5476 H   0  0  0  0  0  0  0  0  0  0  0  0  # atno 11005 bound_to 11000
  144.6899  140.3127  143.7245 LP  0  0  0  0  0  0  0  0  0  0  0  0  # atno 17320 bound_to 7965
  145.7580  139.1815  143.2283 LP  0  0  0  0  0  0  0  0  0  0  0  0  # atno 17321 bound_to 7965
  139.4911  144.6442  151.6814 LP  0  0  0  0  0  0  0  0  0  0  0  0  # atno 17342 bound_to 10162
  140.5634  144.0230  150.6181 LP  0  0  0  0  0  0  0  0  0  0  0  0  # atno 17343 bound_to 10162
  156.1556  130.6340  151.0653 LP  0  0  0  0  0  0  0  0  0  0  0  0  # atno 17370 bound_to 10713
  157.6875  131.0820  150.7200 LP  0  0  0  0  0  0  0  0  0  0  0  0  # atno 17371 bound_to 10713
  140.4089  134.7290  157.4824 LP  0  0  0  0  0  0  0  0  0  0  0  0  # atno 17394 bound_to 11000
  140.0441  134.6224  155.8943 LP  0  0  0  0  0  0  0  0  0  0  0  0  # atno 17395 bound_to 11000

$$$$
