AV-unprocessed.smi:2296|AV-procd|sdf|9221|dock9
  -GOLD-   2272012443D 1   1.00000     0.00000
 Structure written by MMmdl.
 24 24  0  0  0  0  0  0  0  0  2 V2000
  145.1696  136.4776  150.0082 N   0  3  0  0  0  0  0  0  0  0  0  0
  145.9695  136.2821  151.2330 C   0  0  1  0  0  0  0  0  0  0  0  0
  146.1607  137.6224  151.9633 C   0  0  0  0  0  0  0  0  0  0  0  0
  146.9785  138.4828  151.1984 O   0  0  0  0  0  0  0  0  0  0  0  0
  145.3108  135.2325  152.1493 C   0  0  0  0  0  0  0  0  0  0  0  0
  145.0023  133.9271  151.4368 C   0  0  0  0  0  0  0  0  0  0  0  0
  146.0027  133.2445  150.7139 C   0  0  0  0  0  0  0  0  0  0  0  0
  145.6630  132.0344  150.0754 C   0  0  0  0  0  0  0  0  0  0  0  0
  144.4272  131.4927  150.1235 N   0  0  0  0  0  0  0  0  0  0  0  0
  143.4735  132.1525  150.8153 C   0  0  0  0  0  0  0  0  0  0  0  0
  143.7085  133.3685  151.4883 C   0  0  0  0  0  0  0  0  0  0  0  0
  144.9476  137.4569  149.9010 H   0  0  0  0  0  0  0  0  0  0  0  0
  144.3157  135.9420  150.0737 H   0  0  0  0  0  0  0  0  0  0  0  0
  146.9501  135.9090  150.9329 H   0  0  0  0  0  0  0  0  0  0  0  0
  145.2033  138.1059  152.1613 H   0  0  0  0  0  0  0  0  0  0  0  0
  146.6472  137.4646  152.9265 H   0  0  0  0  0  0  0  0  0  0  0  0
  146.8174  139.3742  151.4703 H   0  0  0  0  0  0  0  0  0  0  0  0
  145.9710  135.0087  152.9885 H   0  0  0  0  0  0  0  0  0  0  0  0
  144.3949  135.6347  152.5849 H   0  0  0  0  0  0  0  0  0  0  0  0
  147.0077  133.6348  150.6447 H   0  0  0  0  0  0  0  0  0  0  0  0
  146.4048  131.4863  149.5139 H   0  0  0  0  0  0  0  0  0  0  0  0
  142.4944  131.6973  150.8348 H   0  0  0  0  0  0  0  0  0  0  0  0
  142.9116  133.8574  152.0297 H   0  0  0  0  0  0  0  0  0  0  0  0
  145.7044  136.1647  149.2104 H   0  0  0  0  0  0  0  0  0  0  0  0
  1  2  1  0  0  0  0
  1 12  1  0  0  0  0
  1 13  1  0  0  0  0
  1 24  1  0  0  0  0
  2  3  1  0  0  0  0
  2  5  1  0  0  0  0
  2 14  1  0  0  0  0
  3  4  1  0  0  0  0
  3 15  1  0  0  0  0
  3 16  1  0  0  0  0
  4 17  1  0  0  0  0
  5  6  1  0  0  0  0
  5 18  1  0  0  0  0
  5 19  1  0  0  0  0
  6 11  1  0  0  0  0
  6  7  2  0  0  0  0
  7  8  1  0  0  0  0
  7 20  1  0  0  0  0
  8  9  2  0  0  0  0
  8 21  1  0  0  0  0
  9 10  1  0  0  0  0
 10 11  2  0  0  0  0
 10 22  1  0  0  0  0
 11 23  1  0  0  0  0
M  CHG  1   1   1
M  END
> <s_m_source_file>
AV-unprocessed.smi

> <i_m_source_file_index>
2296

> <i_lp_mmshare_version>
43012

> <i_f3d_flags>
0

> <s_epik_input>
W09IXVtDSDJdW0NAQEhdKFtOSDJdKVtDSDJdYzFbY0hdW2NIXW5bY0hdW2NIXTE=

> <s_epik_cmdline>
J2VwaWtfcHl0aG9uJywgJy1waCcsICc3LjAnLCAnLXRuJywgJzgnLCAnLW1hJywgJzIwMCcsICctbWV0YWxfYmluZGluZycsICctaW1hZScsICc8aW5maWxlLm1hZT4nLCAnLW9tYWUnLCAnPG91dGZpbGUubWFlPic=

> <r_epik_Ionization_Penalty>
0.0199414

> <r_epik_Ionization_Penalty_Charging>
0.0188044

> <r_epik_Ionization_Penalty_Neutral>
0.00113699

> <r_epik_State_Penalty>
0.00788343

> <r_epik_Charging_Adjusted_Penalty>
0.0266878

> <i_epik_Tot_Q>
1

> <i_epik_Tot_abs_Q>
1

> <r_epik_Metal_State_Penalty>
-0

> <b_epik_Metal_Only>
0

> <s_lp_Force_Field>
OPLS_2005

> <r_lp_Energy>
8.03463

> <b_lp_Chiralities_Consistent>
1

> <s_lp_Variant>
AV-unprocessed.smi:2296-2

> <Gold.Version>
5.8.1

> <Gold.Id.Protein>
6NUR|6NUR_protein|mol2

> <Gold.PLP.Fitness>
40.2547

> <Gold.PLP.PLP>
-25.3592

> <Gold.PLP.part.hbond>
-5.7963

> <Gold.PLP.part.metal>
0.0000

> <Gold.PLP.part.buried>
-2.1366

> <Gold.PLP.part.nonpolar>
-19.3063

> <Gold.PLP.part.repulsive>
0.2692

> <Gold.PLP.ligand.clash>
0.0000

> <Gold.PLP.ligand.torsion>
0.1200

> <Gold.PLP.Chemscore.Hbond>
3.0423

> <Gold.PLP.Chemscore.CHOScore>
2.0000

> <Gold.PLP.Chemscore.Metal>
0.0000

> <Gold.Chemscore.Hbonds>
donor molecule, donor type, donor heavy atom, donor atom, acceptor molecule, acceptor atom, score
      L1  H     1    12       P1 10171  0.99
      L1  H     1    24       P1  7921  0.84
      P1  H  7954  7966       L1     4  1.00
      P1  H 10785 10796       L1     9  0.20
      L1  C     8    21       P1 10747  0.48
      L1  C    10    22       P1 10952  0.92

> <Gold.PLP.Chemscore.Internal.Correction>
0.0085

> <Gold.Rescore>
     Score         DG    S(hbond)    S(metal)    S(lipo)     H(rot)  DE(clash)    DE(int)     intcor
     16.32     -16.46       2.91        0.00      57.62       2.14       0.12       0.01       ----

> <Gold.Chemscore.Fitness>
16.3209

> <Gold.Chemscore.DG>
-16.4556

> <Gold.Chemscore.ZeroCoef>
-5.4800

> <Gold.Chemscore.Hbond>
2.9084

> <Gold.Chemscore.Metal>
0.0000

> <Gold.Chemscore.Lipo>
57.6188

> <Gold.Chemscore.Internal_Hbond>
0.0000

> <Gold.Chemscore.DEClash>
0.1240

> <Gold.Chemscore.DEInternal>
0.0107

> <Gold.Chemscore.Rot>
2.1405

> <Gold.Chemscore.Internal.Correction>
   9.000000E+99

> <Gold.Chemscore.Hbonds>
donor molecule, donor type, donor heavy atom, donor atom, acceptor molecule, acceptor atom, score
      L1  H     1    12       P1 10171  0.88
      L1  H     1    24       P1  7921  0.80
      P1  H  7954  7966       L1     4  0.98
      P1  H 10785 10796       L1     9  0.08

> <Gold.Chemscore.Hbond.Weighted>
-9.7139

> <Gold.Chemscore.Metal.Weighted>
-0.0000

> <Gold.Chemscore.Lipo.Weighted>
-6.7414

> <Gold.Chemscore.Internal_Hbond.Weighted>
0.0000

> <Gold.Chemscore.DEClash.Weighted>
0.1240

> <Gold.Chemscore.DEInternal.Weighted>
0.0107

> <Gold.Chemscore.Rot.Weighted>
5.4797

> <Gold.Chemscore.Internal.Correction.Weighted>
   9.000000E+99

> <Gold.Protein.RotatedTorsions>
[ 6907 6896 6895 6894 ] final  -51.63 input  -60.11 | X-H torsion
[ 7974 7965 7964 7962 ] final   61.29 input  175.53 | X-H torsion
[ 8008 7997 7996 7995 ] final  125.16 input   59.86 | X-H torsion
[ 10167 10162 10161 10158 ] final  -52.44 input  -65.29 | X-H torsion
[ 10718 10713 10712 10709 ] final  -10.17 input   66.30 | X-H torsion
[ 10763 10752 10751 10750 ] final   22.41 input  -60.55 | X-H torsion
[ 11005 11000 10999 10996 ] final  -74.35 input  -57.11 | X-H torsion

> <Gold.Protein.ActiveResidues>
 VAL166  LYS551  ARG553  GLY616  TRP617  ASP618  TYR619  PRO620  LYS621  CYS622 
 ASP623  PHE694  ASN695  SER759  ASP760  ASP761  ALA762  ILE779  LEU786  VAL792 
 PHE793  MET794  SER795  GLU796  ALA797  LYS798  CYS799  TRP800  GLU811  SER814 

> <Gold.Protein.RotatedAtoms>
  150.8593  134.7941  159.7069 H   0  0  0  0  0  0  0  0  0  0  0  0  # atno 6907 bound_to 6896
  152.4635  134.5126  159.9768 H   0  0  0  0  0  0  0  0  0  0  0  0  # atno 6908 bound_to 6896
  151.5233  133.3424  159.2941 H   0  0  0  0  0  0  0  0  0  0  0  0  # atno 6909 bound_to 6896
  145.8864  139.3479  143.0675 H   0  0  0  0  0  0  0  0  0  0  0  0  # atno 7974 bound_to 7965
  156.2825  140.2723  156.1905 H   0  0  0  0  0  0  0  0  0  0  0  0  # atno 8008 bound_to 7997
  155.0463  140.0386  157.2546 H   0  0  0  0  0  0  0  0  0  0  0  0  # atno 8009 bound_to 7997
  154.7232  140.2692  155.6528 H   0  0  0  0  0  0  0  0  0  0  0  0  # atno 8010 bound_to 7997
  140.6537  143.2584  151.4648 H   0  0  0  0  0  0  0  0  0  0  0  0  # atno 10167 bound_to 10162
  156.6775  130.5027  149.5981 H   0  0  0  0  0  0  0  0  0  0  0  0  # atno 10718 bound_to 10713
  153.0918  135.6649  153.9839 H   0  0  0  0  0  0  0  0  0  0  0  0  # atno 10763 bound_to 10752
  153.9434  135.2991  155.3443 H   0  0  0  0  0  0  0  0  0  0  0  0  # atno 10764 bound_to 10752
  154.7333  135.5113  153.9073 H   0  0  0  0  0  0  0  0  0  0  0  0  # atno 10765 bound_to 10752
  141.1634  133.6908  156.7351 H   0  0  0  0  0  0  0  0  0  0  0  0  # atno 11005 bound_to 11000
  145.8961  140.9272  143.0527 LP  0  0  0  0  0  0  0  0  0  0  0  0  # atno 17320 bound_to 7965
  144.6729  140.0971  143.7462 LP  0  0  0  0  0  0  0  0  0  0  0  0  # atno 17321 bound_to 7965
  139.5756  144.1827  152.1898 LP  0  0  0  0  0  0  0  0  0  0  0  0  # atno 17342 bound_to 10162
  140.1136  144.5435  150.6908 LP  0  0  0  0  0  0  0  0  0  0  0  0  # atno 17343 bound_to 10162
  156.1893  130.6549  151.1042 LP  0  0  0  0  0  0  0  0  0  0  0  0  # atno 17370 bound_to 10713
  157.7055  131.0758  150.6679 LP  0  0  0  0  0  0  0  0  0  0  0  0  # atno 17371 bound_to 10713
  140.2716  134.8387  157.3852 LP  0  0  0  0  0  0  0  0  0  0  0  0  # atno 17394 bound_to 11000
  140.1516  134.4843  155.7957 LP  0  0  0  0  0  0  0  0  0  0  0  0  # atno 17395 bound_to 11000

$$$$
