AV-unprocessed.smi:33|AV-procd|sdf|204|dock5
  -GOLD-   2262015483D 1   1.00000     0.00000
 Structure written by MMmdl.
 67 72  0  0  0  0  0  0  0  0  1 V2000
  153.5799  139.2695  158.7317 O   0  0  0  0  0  0  0  0  0  0  0  0
  152.5265  139.8847  158.5544 C   0  0  0  0  0  0  0  0  0  0  0  0
  151.4751  139.3816  157.8695 O   0  0  0  0  0  0  0  0  0  0  0  0
  151.5980  138.1241  157.2189 C   0  0  0  0  0  0  0  0  0  0  0  0
  151.4233  138.2046  155.6892 C   0  0  1  0  0  0  0  0  0  0  0  0
  151.5968  136.9406  155.0537 O   0  0  0  0  0  0  0  0  0  0  0  0
  150.3620  136.3705  154.7185 C   0  0  1  0  0  0  0  0  0  0  0  0
  150.1564  135.1689  155.5891 N   0  0  0  0  0  0  0  0  0  0  0  0
  150.2244  135.0608  156.9630 C   0  0  0  0  0  0  0  0  0  0  0  0
  149.9845  133.8709  157.4444 N   0  0  0  0  0  0  0  0  0  0  0  0
  149.7903  133.0874  156.3152 C   0  0  0  0  0  0  0  0  0  0  0  0
  149.5169  131.7098  156.1030 C   0  0  0  0  0  0  0  0  0  0  0  0
  149.3565  130.8350  157.1223 N   0  0  0  0  0  0  0  0  0  0  0  0
  148.3181  131.1482  158.1111 C   0  0  0  0  0  0  0  0  0  0  0  0
  147.2868  131.7216  157.7563 O   0  0  0  0  0  0  0  0  0  0  0  0
  148.4875  130.7204  159.5410 C   0  0  0  0  0  0  0  0  0  0  0  0
  147.3728  130.6809  160.4069 C   0  0  0  0  0  0  0  0  0  0  0  0
  147.5345  130.3046  161.7544 C   0  0  0  0  0  0  0  0  0  0  0  0
  148.8134  129.9840  162.2486 C   0  0  0  0  0  0  0  0  0  0  0  0
  149.9327  130.0480  161.3971 C   0  0  0  0  0  0  0  0  0  0  0  0
  149.7719  130.4225  160.0494 C   0  0  0  0  0  0  0  0  0  0  0  0
  150.2550  129.6711  157.1706 C   0  0  0  0  0  0  0  0  0  0  0  0
  149.9553  128.6917  157.8564 O   0  0  0  0  0  0  0  0  0  0  0  0
  151.5212  129.6528  156.3619 C   0  0  0  0  0  0  0  0  0  0  0  0
  151.8936  128.4833  155.6638 C   0  0  0  0  0  0  0  0  0  0  0  0
  153.0855  128.4529  154.9141 C   0  0  0  0  0  0  0  0  0  0  0  0
  153.9213  129.5850  154.8726 C   0  0  0  0  0  0  0  0  0  0  0  0
  153.5696  130.7452  155.5884 C   0  0  0  0  0  0  0  0  0  0  0  0
  152.3775  130.7768  156.3376 C   0  0  0  0  0  0  0  0  0  0  0  0
  149.4130  131.2693  154.8228 N   0  0  0  0  0  0  0  0  0  0  0  0
  149.5514  132.1328  153.8120 C   0  0  0  0  0  0  0  0  0  0  0  0
  149.7946  133.4450  153.8608 N   0  0  0  0  0  0  0  0  0  0  0  0
  149.9100  133.8868  155.1467 C   0  0  0  0  0  0  0  0  0  0  0  0
  149.2726  137.4256  154.9954 C   0  0  2  0  0  0  0  0  0  0  0  0
  148.3407  137.5698  153.9419 O   0  0  0  0  0  0  0  0  0  0  0  0
  150.0728  138.7066  155.1860 C   0  0  2  0  0  0  0  0  0  0  0  0
  150.2871  139.3097  154.0130 F   0  0  0  0  0  0  0  0  0  0  0  0
  152.2782  141.2512  159.0976 C   0  0  0  0  0  0  0  0  0  0  0  0
  151.3781  142.1092  158.4227 C   0  0  0  0  0  0  0  0  0  0  0  0
  151.1233  143.4068  158.9067 C   0  0  0  0  0  0  0  0  0  0  0  0
  151.7621  143.8603  160.0747 C   0  0  0  0  0  0  0  0  0  0  0  0
  152.6625  143.0185  160.7530 C   0  0  0  0  0  0  0  0  0  0  0  0
  152.9198  141.7220  160.2686 C   0  0  0  0  0  0  0  0  0  0  0  0
  152.5829  137.7173  157.4505 H   0  0  0  0  0  0  0  0  0  0  0  0
  150.8645  137.4208  157.6164 H   0  0  0  0  0  0  0  0  0  0  0  0
  152.2144  138.8612  155.3250 H   0  0  0  0  0  0  0  0  0  0  0  0
  150.3731  135.9817  153.6995 H   0  0  0  0  0  0  0  0  0  0  0  0
  150.4345  135.8999  157.6099 H   0  0  0  0  0  0  0  0  0  0  0  0
  146.3871  130.9272  160.0389 H   0  0  0  0  0  0  0  0  0  0  0  0
  146.6769  130.2640  162.4096 H   0  0  0  0  0  0  0  0  0  0  0  0
  148.9370  129.6963  163.2823 H   0  0  0  0  0  0  0  0  0  0  0  0
  150.9156  129.8121  161.7776 H   0  0  0  0  0  0  0  0  0  0  0  0
  150.6397  130.4776  159.4076 H   0  0  0  0  0  0  0  0  0  0  0  0
  151.2594  127.6088  155.6884 H   0  0  0  0  0  0  0  0  0  0  0  0
  153.3587  127.5601  154.3716 H   0  0  0  0  0  0  0  0  0  0  0  0
  154.8351  129.5612  154.2975 H   0  0  0  0  0  0  0  0  0  0  0  0
  154.2146  131.6111  155.5640 H   0  0  0  0  0  0  0  0  0  0  0  0
  152.1205  131.6713  156.8867 H   0  0  0  0  0  0  0  0  0  0  0  0
  149.4513  131.7127  152.8221 H   0  0  0  0  0  0  0  0  0  0  0  0
  148.7423  137.1802  155.9139 H   0  0  0  0  0  0  0  0  0  0  0  0
  148.6656  137.1005  153.1887 H   0  0  0  0  0  0  0  0  0  0  0  0
  149.5948  139.4301  155.8472 H   0  0  0  0  0  0  0  0  0  0  0  0
  150.8750  141.7829  157.5238 H   0  0  0  0  0  0  0  0  0  0  0  0
  150.4372  144.0546  158.3809 H   0  0  0  0  0  0  0  0  0  0  0  0
  151.5691  144.8563  160.4453 H   0  0  0  0  0  0  0  0  0  0  0  0
  153.1604  143.3695  161.6451 H   0  0  0  0  0  0  0  0  0  0  0  0
  153.6143  141.1035  160.8142 H   0  0  0  0  0  0  0  0  0  0  0  0
  1  2  2  0  0  0  0
  2  3  1  0  0  0  0
  2 38  1  0  0  0  0
  3  4  1  0  0  0  0
  4  5  1  0  0  0  0
  4 44  1  0  0  0  0
  4 45  1  0  0  0  0
  5 36  1  0  0  0  0
  5  6  1  0  0  0  0
  5 46  1  0  0  0  0
  6  7  1  0  0  0  0
  7  8  1  0  0  0  0
  7 34  1  0  0  0  0
  7 47  1  0  0  0  0
  8 33  1  0  0  0  0
  8  9  1  0  0  0  0
  9 10  2  0  0  0  0
  9 48  1  0  0  0  0
 10 11  1  0  0  0  0
 11 33  2  0  0  0  0
 11 12  1  0  0  0  0
 12 13  1  0  0  0  0
 12 30  2  0  0  0  0
 13 14  1  0  0  0  0
 13 22  1  0  0  0  0
 14 15  2  0  0  0  0
 14 16  1  0  0  0  0
 16 21  1  0  0  0  0
 16 17  2  0  0  0  0
 17 18  1  0  0  0  0
 17 49  1  0  0  0  0
 18 19  2  0  0  0  0
 18 50  1  0  0  0  0
 19 20  1  0  0  0  0
 19 51  1  0  0  0  0
 20 21  2  0  0  0  0
 20 52  1  0  0  0  0
 21 53  1  0  0  0  0
 22 23  2  0  0  0  0
 22 24  1  0  0  0  0
 24 29  1  0  0  0  0
 24 25  2  0  0  0  0
 25 26  1  0  0  0  0
 25 54  1  0  0  0  0
 26 27  2  0  0  0  0
 26 55  1  0  0  0  0
 27 28  1  0  0  0  0
 27 56  1  0  0  0  0
 28 29  2  0  0  0  0
 28 57  1  0  0  0  0
 29 58  1  0  0  0  0
 30 31  1  0  0  0  0
 31 32  2  0  0  0  0
 31 59  1  0  0  0  0
 32 33  1  0  0  0  0
 34 35  1  0  0  0  0
 34 36  1  0  0  0  0
 34 60  1  0  0  0  0
 35 61  1  0  0  0  0
 36 37  1  0  0  0  0
 36 62  1  0  0  0  0
 38 43  1  0  0  0  0
 38 39  2  0  0  0  0
 39 40  1  0  0  0  0
 39 63  1  0  0  0  0
 40 41  2  0  0  0  0
 40 64  1  0  0  0  0
 41 42  1  0  0  0  0
 41 65  1  0  0  0  0
 42 43  2  0  0  0  0
 42 66  1  0  0  0  0
 43 67  1  0  0  0  0
M  END
> <s_m_source_file>
AV-unprocessed.smi

> <i_m_source_file_index>
33

> <i_lp_mmshare_version>
43012

> <i_f3d_flags>
0

> <s_epik_input>
W2NIXTFbY0hdW2NIXVtjSF1bY0hdYzFDKD1PKU9bQ0gyXVtDQEBIXTJPW0NASF0oW0NAQEhdKFtPSF0pW0NAQEhdMkYpbihbY0hdbjMpYyhjMzQpbltjSF1uYzROKEMoPU8pYzVbY0hdW2NIXVtjSF1bY0hdW2NIXTUpQyg9TyljNltjSF1bY0hdW2NIXVtjSF1bY0hdNg==

> <s_epik_cmdline>
J2VwaWtfcHl0aG9uJywgJy1waCcsICc3LjAnLCAnLXRuJywgJzgnLCAnLW1hJywgJzIwMCcsICctbWV0YWxfYmluZGluZycsICctaW1hZScsICc8aW5maWxlLm1hZT4nLCAnLW9tYWUnLCAnPG91dGZpbGUubWFlPic=

> <r_lp_tautomer_probability>
1

> <r_epik_Ionization_Penalty>
0.00067664

> <r_epik_Ionization_Penalty_Charging>
0

> <r_epik_Ionization_Penalty_Neutral>
0.00067664

> <r_epik_State_Penalty>
0.000428095

> <r_epik_Charging_Adjusted_Penalty>
0.000428095

> <i_epik_Tot_Q>
0

> <i_epik_Tot_abs_Q>
0

> <r_epik_Metal_State_Penalty>
-0

> <b_epik_Metal_Only>
0

> <s_epik_Chemistry_Notes>
This compound has an ester and may undergo hydrolysis at high or low pH. This compound contains an acetal/aminal-like group ( X-CH(R)-Y where X, Y are N, S, or O) that may be acid/base labile, releasing an aldehyde.

> <s_lp_Force_Field>
OPLS_2005

> <r_lp_Energy>
67.2923

> <b_lp_Chiralities_Consistent>
1

> <s_lp_Variant>
AV-unprocessed.smi:33-6

> <Gold.Version>
5.8.1

> <Gold.Id.Protein>
6NUR|6NUR_protein|mol2

> <Gold.PLP.Fitness>
64.2825

> <Gold.PLP.PLP>
-53.1392

> <Gold.PLP.part.hbond>
-4.0000

> <Gold.PLP.part.metal>
0.0000

> <Gold.PLP.part.buried>
-1.7222

> <Gold.PLP.part.nonpolar>
-46.4228

> <Gold.PLP.part.repulsive>
0.3138

> <Gold.PLP.ligand.clash>
0.0000

> <Gold.PLP.ligand.torsion>
3.2376

> <Gold.PLP.Chemscore.Hbond>
3.9600

> <Gold.PLP.Chemscore.CHOScore>
0.6307

> <Gold.PLP.Chemscore.Metal>
0.0000

> <Gold.Chemscore.Hbonds>
donor molecule, donor type, donor heavy atom, donor atom, acceptor molecule, acceptor atom, score
      L1  H    35    61       P1  7948  1.00
      P1  H  6896  6909       L1    10  0.99
      P1  H  7997  8009       L1     1  0.83
      P1  H 10752 10763       L1     6  1.00
      L1  C    31    59       P1 10747  0.60

> <Gold.PLP.Chemscore.Internal.Correction>
3.8464

> <Gold.Rescore>
     Score         DG    S(hbond)    S(metal)    S(lipo)     H(rot)  DE(clash)    DE(int)     intcor
     20.76     -26.78       3.69        0.00     132.01       2.52       0.27       5.75       ----

> <Gold.Chemscore.Fitness>
20.7613

> <Gold.Chemscore.DG>
-26.7762

> <Gold.Chemscore.ZeroCoef>
-5.4800

> <Gold.Chemscore.Hbond>
3.6869

> <Gold.Chemscore.Metal>
0.0000

> <Gold.Chemscore.Lipo>
132.0093

> <Gold.Chemscore.Internal_Hbond>
0.0000

> <Gold.Chemscore.DEClash>
0.2653

> <Gold.Chemscore.DEInternal>
5.7497

> <Gold.Chemscore.Rot>
2.5247

> <Gold.Chemscore.Internal.Correction>
   9.000000E+99

> <Gold.Chemscore.Hbonds>
donor molecule, donor type, donor heavy atom, donor atom, acceptor molecule, acceptor atom, score
      L1  H    35    61       P1  7948  0.99
      P1  H  6896  6909       L1    10  0.60
      P1  H  7997  8009       L1     1  0.36
      P1  H 10752 10763       L1     6  0.54

> <Gold.Chemscore.Hbond.Weighted>
-12.3144

> <Gold.Chemscore.Metal.Weighted>
-0.0000

> <Gold.Chemscore.Lipo.Weighted>
-15.4451

> <Gold.Chemscore.Internal_Hbond.Weighted>
0.0000

> <Gold.Chemscore.DEClash.Weighted>
0.2653

> <Gold.Chemscore.DEInternal.Weighted>
5.7497

> <Gold.Chemscore.Rot.Weighted>
6.4633

> <Gold.Chemscore.Internal.Correction.Weighted>
   9.000000E+99

> <Gold.Protein.RotatedTorsions>
[ 6907 6896 6895 6894 ] final   -2.43 input  -60.11 | X-H torsion
[ 7974 7965 7964 7962 ] final -139.21 input  175.53 | X-H torsion
[ 8008 7997 7996 7995 ] final  134.58 input   59.86 | X-H torsion
[ 10167 10162 10161 10158 ] final  -49.06 input  -65.29 | X-H torsion
[ 10718 10713 10712 10709 ] final  -18.34 input   66.30 | X-H torsion
[ 10763 10752 10751 10750 ] final   58.28 input  -60.55 | X-H torsion
[ 11005 11000 10999 10996 ] final  -94.13 input  -57.11 | X-H torsion

> <Gold.Protein.ActiveResidues>
 VAL166  LYS551  ARG553  GLY616  TRP617  ASP618  TYR619  PRO620  LYS621  CYS622 
 ASP623  PHE694  ASN695  SER759  ASP760  ASP761  ALA762  ILE779  LEU786  VAL792 
 PHE793  MET794  SER795  GLU796  ALA797  LYS798  CYS799  TRP800  GLU811  SER814 

> <Gold.Protein.RotatedAtoms>
  151.5301  135.1068  159.9900 H   0  0  0  0  0  0  0  0  0  0  0  0  # atno 6907 bound_to 6896
  152.4582  133.7763  159.6837 H   0  0  0  0  0  0  0  0  0  0  0  0  # atno 6908 bound_to 6896
  150.8534  133.7687  159.3042 H   0  0  0  0  0  0  0  0  0  0  0  0  # atno 6909 bound_to 6896
  144.8696  140.6346  143.5276 H   0  0  0  0  0  0  0  0  0  0  0  0  # atno 7974 bound_to 7965
  156.3000  140.2492  156.3441 H   0  0  0  0  0  0  0  0  0  0  0  0  # atno 8008 bound_to 7997
  154.9027  140.0405  157.1921 H   0  0  0  0  0  0  0  0  0  0  0  0  # atno 8009 bound_to 7997
  154.8484  140.2902  155.5618 H   0  0  0  0  0  0  0  0  0  0  0  0  # atno 8010 bound_to 7997
  140.6702  143.2713  151.4160 H   0  0  0  0  0  0  0  0  0  0  0  0  # atno 10167 bound_to 10162
  156.5609  130.4725  149.6407 H   0  0  0  0  0  0  0  0  0  0  0  0  # atno 10718 bound_to 10713
  152.9867  135.5612  154.5527 H   0  0  0  0  0  0  0  0  0  0  0  0  # atno 10763 bound_to 10752
  154.4961  135.2795  155.1460 H   0  0  0  0  0  0  0  0  0  0  0  0  # atno 10764 bound_to 10752
  154.2910  135.6326  153.5438 H   0  0  0  0  0  0  0  0  0  0  0  0  # atno 10765 bound_to 10752
  141.1479  133.7935  157.0255 H   0  0  0  0  0  0  0  0  0  0  0  0  # atno 11005 bound_to 11000
  145.4156  139.1572  143.4102 LP  0  0  0  0  0  0  0  0  0  0  0  0  # atno 17320 bound_to 7965
  146.2920  140.4263  142.8736 LP  0  0  0  0  0  0  0  0  0  0  0  0  # atno 17321 bound_to 7965
  139.5968  144.1381  152.2153 LP  0  0  0  0  0  0  0  0  0  0  0  0  # atno 17342 bound_to 10162
  140.0752  144.5746  150.7162 LP  0  0  0  0  0  0  0  0  0  0  0  0  # atno 17343 bound_to 10162
  156.2799  130.7065  151.1886 LP  0  0  0  0  0  0  0  0  0  0  0  0  # atno 17370 bound_to 10713
  157.7368  131.0558  150.5390 LP  0  0  0  0  0  0  0  0  0  0  0  0  # atno 17371 bound_to 10713
  140.0788  134.9660  157.1589 LP  0  0  0  0  0  0  0  0  0  0  0  0  # atno 17394 bound_to 11000
  140.3606  134.2498  155.7187 LP  0  0  0  0  0  0  0  0  0  0  0  0  # atno 17395 bound_to 11000

$$$$
