AV-unprocessed.smi:845|AV-procd|sdf|3930|dock3
  -GOLD-   22720 1393D 1   1.00000     0.00000
 Structure written by MMmdl.
 42 43  0  0  0  0  0  0  0  0  1 V2000
  147.0751  141.1517  154.5180 C   0  0  0  0  0  0  0  0  0  0  0  0
  147.6897  139.9759  153.7337 C   0  0  0  0  0  0  0  0  0  0  0  0
  147.0861  139.8782  152.3225 C   0  0  0  0  0  0  0  0  0  0  0  0
  147.7298  138.5921  154.4568 C   0  0  1  0  0  0  0  0  0  0  0  0
  146.4986  137.6913  154.1533 C   0  0  0  0  0  0  0  0  0  0  0  0
  146.7570  136.7142  153.1001 N   0  0  0  0  0  0  0  0  0  0  0  0
  145.9093  135.7432  152.7316 C   0  0  0  0  0  0  0  0  0  0  0  0
  144.8096  135.5686  153.2564 O   0  0  0  0  0  0  0  0  0  0  0  0
  146.4170  135.0086  151.7289 N   0  0  0  0  0  0  0  0  0  0  0  0
  145.8222  133.8988  151.0792 C   0  0  0  0  0  0  0  0  0  0  0  0
  146.6101  132.9407  150.5875 N   0  0  0  0  0  0  0  0  0  0  0  0
  145.8759  131.9181  149.9799 C   0  0  0  0  0  0  0  0  0  0  0  0
  144.5176  132.1145  150.0203 C   0  0  0  0  0  0  0  0  0  0  0  0
  144.1001  133.6023  150.8266 S   0  0  0  0  0  0  0  0  0  0  0  0
  149.0307  137.8966  154.4003 N   0  0  0  0  0  0  0  0  0  0  0  0
  150.1644  138.7947  154.6133 C   0  0  0  0  0  0  0  0  0  0  0  0
  151.5089  138.0726  154.4216 C   0  0  0  0  0  0  0  0  0  0  0  0
  151.5771  136.9518  155.2969 O   0  0  0  0  0  0  0  0  0  0  0  0
  150.5143  136.0276  155.0890 C   0  0  0  0  0  0  0  0  0  0  0  0
  149.1634  136.7379  155.2830 C   0  0  0  0  0  0  0  0  0  0  0  0
  145.9885  141.1076  154.5514 H   0  0  0  0  0  0  0  0  0  0  0  0
  147.3268  142.0961  154.0350 H   0  0  0  0  0  0  0  0  0  0  0  0
  147.4491  141.2118  155.5391 H   0  0  0  0  0  0  0  0  0  0  0  0
  148.7316  140.2565  153.5756 H   0  0  0  0  0  0  0  0  0  0  0  0
  146.0202  139.6515  152.3576 H   0  0  0  0  0  0  0  0  0  0  0  0
  147.5741  139.0972  151.7388 H   0  0  0  0  0  0  0  0  0  0  0  0
  147.2053  140.8161  151.7795 H   0  0  0  0  0  0  0  0  0  0  0  0
  147.6095  138.8734  155.5041 H   0  0  0  0  0  0  0  0  0  0  0  0
  146.1912  137.1434  155.0434 H   0  0  0  0  0  0  0  0  0  0  0  0
  145.6347  138.2900  153.8640 H   0  0  0  0  0  0  0  0  0  0  0  0
  147.6394  136.7888  152.6152 H   0  0  0  0  0  0  0  0  0  0  0  0
  147.3317  135.2705  151.3923 H   0  0  0  0  0  0  0  0  0  0  0  0
  146.4029  131.0830  149.5420 H   0  0  0  0  0  0  0  0  0  0  0  0
  143.7405  131.4764  149.6262 H   0  0  0  0  0  0  0  0  0  0  0  0
  150.1096  139.6358  153.9213 H   0  0  0  0  0  0  0  0  0  0  0  0
  150.1328  139.2138  155.6189 H   0  0  0  0  0  0  0  0  0  0  0  0
  151.6277  137.7441  153.3879 H   0  0  0  0  0  0  0  0  0  0  0  0
  152.3363  138.7475  154.6414 H   0  0  0  0  0  0  0  0  0  0  0  0
  150.5852  135.6002  154.0875 H   0  0  0  0  0  0  0  0  0  0  0  0
  150.6148  135.2048  155.7967 H   0  0  0  0  0  0  0  0  0  0  0  0
  149.0768  137.0475  156.3249 H   0  0  0  0  0  0  0  0  0  0  0  0
  148.3714  136.0187  155.1030 H   0  0  0  0  0  0  0  0  0  0  0  0
  1  2  1  0  0  0  0
  1 21  1  0  0  0  0
  1 22  1  0  0  0  0
  1 23  1  0  0  0  0
  2  3  1  0  0  0  0
  2  4  1  0  0  0  0
  2 24  1  0  0  0  0
  3 25  1  0  0  0  0
  3 26  1  0  0  0  0
  3 27  1  0  0  0  0
  4  5  1  0  0  0  0
  4 15  1  0  0  0  0
  4 28  1  0  0  0  0
  5  6  1  0  0  0  0
  5 29  1  0  0  0  0
  5 30  1  0  0  0  0
  6  7  1  0  0  0  0
  6 31  1  0  0  0  0
  7  8  2  0  0  0  0
  7  9  1  0  0  0  0
  9 10  1  0  0  0  0
  9 32  1  0  0  0  0
 10 14  1  0  0  0  0
 10 11  2  0  0  0  0
 11 12  1  0  0  0  0
 12 13  2  0  0  0  0
 12 33  1  0  0  0  0
 13 14  1  0  0  0  0
 13 34  1  0  0  0  0
 15 20  1  0  0  0  0
 15 16  1  0  0  0  0
 16 17  1  0  0  0  0
 16 35  1  0  0  0  0
 16 36  1  0  0  0  0
 17 18  1  0  0  0  0
 17 37  1  0  0  0  0
 17 38  1  0  0  0  0
 18 19  1  0  0  0  0
 19 20  1  0  0  0  0
 19 39  1  0  0  0  0
 19 40  1  0  0  0  0
 20 41  1  0  0  0  0
 20 42  1  0  0  0  0
M  END
> <s_m_source_file>
AV-unprocessed.smi

> <i_m_source_file_index>
845

> <i_lp_mmshare_version>
43012

> <i_f3d_flags>
0

> <s_epik_input>
W0NIMl0xW0NIMl1PW0NIMl1bQ0gyXU4xW0NASF0oW0NIXShbQ0gzXSlbQ0gzXSlbQ0gyXVtOSF1DKD1PKVtOSF1jMm5bY0hdW2NIXXMy

> <s_epik_cmdline>
J2VwaWtfcHl0aG9uJywgJy1waCcsICc3LjAnLCAnLXRuJywgJzgnLCAnLW1hJywgJzIwMCcsICctbWV0YWxfYmluZGluZycsICctaW1hZScsICc8aW5maWxlLm1hZT4nLCAnLW9tYWUnLCAnPG91dGZpbGUubWFlPic=

> <r_lp_tautomer_probability>
0.999

> <r_epik_Ionization_Penalty>
0.423897

> <r_epik_Ionization_Penalty_Charging>
0

> <r_epik_Ionization_Penalty_Neutral>
0.423897

> <r_epik_State_Penalty>
0.424384

> <r_epik_Charging_Adjusted_Penalty>
0.424384

> <i_epik_Tot_Q>
0

> <i_epik_Tot_abs_Q>
0

> <r_epik_Metal_State_Penalty>
0.434476

> <b_epik_Metal_Only>
0

> <s_lp_Force_Field>
OPLS_2005

> <r_lp_Energy>
35.7747

> <b_lp_Chiralities_Consistent>
1

> <s_lp_Variant>
AV-unprocessed.smi:845-4

> <Gold.Version>
5.8.1

> <Gold.Id.Protein>
6NUR|6NUR_protein|mol2

> <Gold.PLP.Fitness>
36.3261

> <Gold.PLP.PLP>
-30.1591

> <Gold.PLP.part.hbond>
-3.0000

> <Gold.PLP.part.metal>
0.0000

> <Gold.PLP.part.buried>
-2.7345

> <Gold.PLP.part.nonpolar>
-26.1206

> <Gold.PLP.part.repulsive>
1.3698

> <Gold.PLP.ligand.clash>
0.0000

> <Gold.PLP.ligand.torsion>
1.6458

> <Gold.PLP.Chemscore.Hbond>
2.5068

> <Gold.PLP.Chemscore.CHOScore>
0.4341

> <Gold.PLP.Chemscore.Metal>
0.0000

> <Gold.Chemscore.Hbonds>
donor molecule, donor type, donor heavy atom, donor atom, acceptor molecule, acceptor atom, score
      L1  H     6    31       P1  7948  1.00
      L1  H     9    32       P1  7948  0.91
      P1  H 10752 10763       L1    18  0.52
      L1  C    12    33       P1 10747  0.48

> <Gold.PLP.Chemscore.Internal.Correction>
0.6360

> <Gold.Rescore>
     Score         DG    S(hbond)    S(metal)    S(lipo)     H(rot)  DE(clash)    DE(int)     intcor
     14.14     -15.92       1.95        0.00      71.96       1.75       0.31       1.47       ----

> <Gold.Chemscore.Fitness>
14.1353

> <Gold.Chemscore.DG>
-15.9218

> <Gold.Chemscore.ZeroCoef>
-5.4800

> <Gold.Chemscore.Hbond>
1.9477

> <Gold.Chemscore.Metal>
0.0000

> <Gold.Chemscore.Lipo>
71.9559

> <Gold.Chemscore.Internal_Hbond>
0.0000

> <Gold.Chemscore.DEClash>
0.3145

> <Gold.Chemscore.DEInternal>
1.4720

> <Gold.Chemscore.Rot>
1.7509

> <Gold.Chemscore.Internal.Correction>
   9.000000E+99

> <Gold.Chemscore.Hbonds>
donor molecule, donor type, donor heavy atom, donor atom, acceptor molecule, acceptor atom, score
      L1  H     6    31       P1  7948  0.97
      L1  H     9    32       P1  7948  0.73
      P1  H 10752 10763       L1    18  0.02

> <Gold.Chemscore.Hbond.Weighted>
-6.5052

> <Gold.Chemscore.Metal.Weighted>
-0.0000

> <Gold.Chemscore.Lipo.Weighted>
-8.4188

> <Gold.Chemscore.Internal_Hbond.Weighted>
0.0000

> <Gold.Chemscore.DEClash.Weighted>
0.3145

> <Gold.Chemscore.DEInternal.Weighted>
1.4720

> <Gold.Chemscore.Rot.Weighted>
4.4823

> <Gold.Chemscore.Internal.Correction.Weighted>
   9.000000E+99

> <Gold.Protein.RotatedTorsions>
[ 6907 6896 6895 6894 ] final  178.07 input  -60.11 | X-H torsion
[ 7974 7965 7964 7962 ] final   71.12 input  175.53 | X-H torsion
[ 8008 7997 7996 7995 ] final  -81.06 input   59.86 | X-H torsion
[ 10167 10162 10161 10158 ] final    5.99 input  -65.29 | X-H torsion
[ 10718 10713 10712 10709 ] final   12.84 input   66.30 | X-H torsion
[ 10763 10752 10751 10750 ] final   56.18 input  -60.55 | X-H torsion
[ 11005 11000 10999 10996 ] final   46.90 input  -57.11 | X-H torsion

> <Gold.Protein.ActiveResidues>
 VAL166  LYS551  ARG553  GLY616  TRP617  ASP618  TYR619  PRO620  LYS621  CYS622 
 ASP623  PHE694  ASN695  SER759  ASP760  ASP761  ALA762  ILE779  LEU786  VAL792 
 PHE793  MET794  SER795  GLU796  ALA797  LYS798  CYS799  TRP800  GLU811  SER814 

> <Gold.Protein.RotatedAtoms>
  151.6938  133.3311  159.3249 H   0  0  0  0  0  0  0  0  0  0  0  0  # atno 6907 bound_to 6896
  150.7767  134.6675  159.6383 H   0  0  0  0  0  0  0  0  0  0  0  0  # atno 6908 bound_to 6896
  152.3811  134.6592  160.0194 H   0  0  0  0  0  0  0  0  0  0  0  0  # atno 6909 bound_to 6896
  145.7698  139.2838  143.1327 H   0  0  0  0  0  0  0  0  0  0  0  0  # atno 7974 bound_to 7965
  154.5946  140.0653  156.9285 H   0  0  0  0  0  0  0  0  0  0  0  0  # atno 8008 bound_to 7997
  155.2237  140.3332  155.4294 H   0  0  0  0  0  0  0  0  0  0  0  0  # atno 8009 bound_to 7997
  156.2278  140.1827  156.7303 H   0  0  0  0  0  0  0  0  0  0  0  0  # atno 8010 bound_to 7997
  140.6452  143.7678  150.7488 H   0  0  0  0  0  0  0  0  0  0  0  0  # atno 10167 bound_to 10162
  157.0160  130.6136  149.5714 H   0  0  0  0  0  0  0  0  0  0  0  0  # atno 10718 bound_to 10713
  152.9828  135.5685  154.5187 H   0  0  0  0  0  0  0  0  0  0  0  0  # atno 10763 bound_to 10752
  154.4679  135.2784  155.1667 H   0  0  0  0  0  0  0  0  0  0  0  0  # atno 10764 bound_to 10752
  154.3227  135.6265  153.5568 H   0  0  0  0  0  0  0  0  0  0  0  0  # atno 10765 bound_to 10752
  140.1327  134.4684  155.8509 H   0  0  0  0  0  0  0  0  0  0  0  0  # atno 11005 bound_to 11000
  146.0181  140.8373  142.9937 LP  0  0  0  0  0  0  0  0  0  0  0  0  # atno 17320 bound_to 7965
  144.6815  140.2588  143.7322 LP  0  0  0  0  0  0  0  0  0  0  0  0  # atno 17321 bound_to 7965
  140.1318  143.4519  152.2249 LP  0  0  0  0  0  0  0  0  0  0  0  0  # atno 17342 bound_to 10162
  139.5663  144.7437  151.4014 LP  0  0  0  0  0  0  0  0  0  0  0  0  # atno 17343 bound_to 10162
  156.0119  130.5211  150.8015 LP  0  0  0  0  0  0  0  0  0  0  0  0  # atno 17370 bound_to 10713
  157.5285  131.0935  150.9986 LP  0  0  0  0  0  0  0  0  0  0  0  0  # atno 17371 bound_to 10713
  141.2173  133.6802  156.7100 LP  0  0  0  0  0  0  0  0  0  0  0  0  # atno 17394 bound_to 11000
  140.2821  134.8308  157.3942 LP  0  0  0  0  0  0  0  0  0  0  0  0  # atno 17395 bound_to 11000

$$$$
