AV-unprocessed.smi:1240|AV-procd|sdf|5198|dock10
  -GOLD-   22720 4283D 1   1.00000     0.00000
 Structure written by MMmdl.
 47 49  0  0  0  0  0  0  0  0  1 V2000
  144.4847  136.0278  152.8801 O   0  0  0  0  0  0  0  0  0  0  0  0
  145.6790  135.9719  152.5874 C   0  0  0  0  0  0  0  0  0  0  0  0
  146.5541  136.9465  152.8727 N   0  0  0  0  0  0  0  0  0  0  0  0
  146.2330  138.1750  153.5927 C   0  0  0  0  0  0  0  0  0  0  0  0
  147.0289  138.3190  154.9218 C   0  0  1  0  0  0  0  0  0  0  0  0
  147.7534  137.0006  155.3314 C   0  0  1  0  0  0  0  0  0  0  0  0
  148.7300  137.0505  156.5092 C   0  0  0  0  0  0  0  0  0  0  0  0
  148.4164  135.7808  157.3037 C   0  0  0  0  0  0  0  0  0  0  0  0
  147.7160  134.9505  156.3899 O   0  0  0  0  0  0  0  0  0  0  0  0
  146.8565  135.7978  155.6458 C   0  0  0  0  0  0  0  0  0  0  0  0
  147.8521  139.5398  155.0243 N   0  0  0  0  0  0  0  0  0  0  0  0
  149.2427  139.4010  154.5973 C   0  0  0  0  0  0  0  0  0  0  0  0
  150.0423  140.6959  154.8272 C   0  0  0  0  0  0  0  0  0  0  0  0
  149.3988  141.7873  154.1782 O   0  0  0  0  0  0  0  0  0  0  0  0
  148.0622  141.9811  154.6285 C   0  0  0  0  0  0  0  0  0  0  0  0
  147.2492  140.7014  154.3746 C   0  0  0  0  0  0  0  0  0  0  0  0
  146.2852  134.9397  151.9760 N   0  0  0  0  0  0  0  0  0  0  0  0
  145.7216  133.7052  151.5543 C   0  0  0  0  0  0  0  0  0  0  0  0
  146.5980  132.7191  151.0560 C   0  0  0  0  0  0  0  0  0  0  0  0
  146.0612  131.4917  150.6195 C   0  0  0  0  0  0  0  0  0  0  0  0
  144.7416  131.2094  150.6428 N   0  0  0  0  0  0  0  0  0  0  0  0
  143.9027  132.1604  151.1053 C   0  0  0  0  0  0  0  0  0  0  0  0
  144.3351  133.4198  151.5665 C   0  0  0  0  0  0  0  0  0  0  0  0
  147.5167  136.8202  152.5964 H   0  0  0  0  0  0  0  0  0  0  0  0
  146.4418  139.0100  152.9248 H   0  0  0  0  0  0  0  0  0  0  0  0
  145.1577  138.1950  153.7701 H   0  0  0  0  0  0  0  0  0  0  0  0
  146.2693  138.4326  155.6966 H   0  0  0  0  0  0  0  0  0  0  0  0
  148.3510  136.6917  154.4723 H   0  0  0  0  0  0  0  0  0  0  0  0
  149.7560  137.0280  156.1400 H   0  0  0  0  0  0  0  0  0  0  0  0
  148.6358  137.9381  157.1323 H   0  0  0  0  0  0  0  0  0  0  0  0
  149.3125  135.2907  157.6848 H   0  0  0  0  0  0  0  0  0  0  0  0
  147.7665  136.0082  158.1500 H   0  0  0  0  0  0  0  0  0  0  0  0
  146.0013  136.0620  156.2690 H   0  0  0  0  0  0  0  0  0  0  0  0
  146.4855  135.3045  154.7472 H   0  0  0  0  0  0  0  0  0  0  0  0
  149.7325  138.6053  155.1534 H   0  0  0  0  0  0  0  0  0  0  0  0
  149.2880  139.1331  153.5415 H   0  0  0  0  0  0  0  0  0  0  0  0
  150.1347  140.9050  155.8941 H   0  0  0  0  0  0  0  0  0  0  0  0
  151.0531  140.5917  154.4334 H   0  0  0  0  0  0  0  0  0  0  0  0
  148.0591  142.2392  155.6886 H   0  0  0  0  0  0  0  0  0  0  0  0
  147.6233  142.8222  154.0920 H   0  0  0  0  0  0  0  0  0  0  0  0
  147.1846  140.5428  153.2985 H   0  0  0  0  0  0  0  0  0  0  0  0
  146.2296  140.8437  154.7348 H   0  0  0  0  0  0  0  0  0  0  0  0
  147.2864  135.0141  151.8721 H   0  0  0  0  0  0  0  0  0  0  0  0
  147.6634  132.8924  151.0134 H   0  0  0  0  0  0  0  0  0  0  0  0
  146.7100  130.7162  150.2398 H   0  0  0  0  0  0  0  0  0  0  0  0
  142.8514  131.9129  151.1023 H   0  0  0  0  0  0  0  0  0  0  0  0
  143.6021  134.1358  151.9047 H   0  0  0  0  0  0  0  0  0  0  0  0
  1  2  2  0  0  0  0
  2  3  1  0  0  0  0
  2 17  1  0  0  0  0
  3  4  1  0  0  0  0
  3 24  1  0  0  0  0
  4  5  1  0  0  0  0
  4 25  1  0  0  0  0
  4 26  1  0  0  0  0
  5  6  1  0  0  0  0
  5 11  1  0  0  0  0
  5 27  1  0  0  0  0
  6 10  1  0  0  0  0
  6  7  1  0  0  0  0
  6 28  1  0  0  0  0
  7  8  1  0  0  0  0
  7 29  1  0  0  0  0
  7 30  1  0  0  0  0
  8  9  1  0  0  0  0
  8 31  1  0  0  0  0
  8 32  1  0  0  0  0
  9 10  1  0  0  0  0
 10 33  1  0  0  0  0
 10 34  1  0  0  0  0
 11 16  1  0  0  0  0
 11 12  1  0  0  0  0
 12 13  1  0  0  0  0
 12 35  1  0  0  0  0
 12 36  1  0  0  0  0
 13 14  1  0  0  0  0
 13 37  1  0  0  0  0
 13 38  1  0  0  0  0
 14 15  1  0  0  0  0
 15 16  1  0  0  0  0
 15 39  1  0  0  0  0
 15 40  1  0  0  0  0
 16 41  1  0  0  0  0
 16 42  1  0  0  0  0
 17 18  1  0  0  0  0
 17 43  1  0  0  0  0
 18 23  1  0  0  0  0
 18 19  2  0  0  0  0
 19 20  1  0  0  0  0
 19 44  1  0  0  0  0
 20 21  2  0  0  0  0
 20 45  1  0  0  0  0
 21 22  1  0  0  0  0
 22 23  2  0  0  0  0
 22 46  1  0  0  0  0
 23 47  1  0  0  0  0
M  END
> <s_m_source_file>
AV-unprocessed.smi

> <i_m_source_file_index>
1240

> <i_lp_mmshare_version>
43012

> <i_f3d_flags>
0

> <s_epik_input>
W2NIXTFbY0hdbltjSF1bY0hdYzFbTkhdQyg9TylbTkhdW0NIMl1bQ0BIXShbQ0BASF0yW0NIMl1bQ0gyXU9bQ0gyXTIpTjNbQ0gyXVtDSDJdT1tDSDJdW0NIMl0z

> <s_epik_cmdline>
J2VwaWtfcHl0aG9uJywgJy1waCcsICc3LjAnLCAnLXRuJywgJzgnLCAnLW1hJywgJzIwMCcsICctbWV0YWxfYmluZGluZycsICctaW1hZScsICc8aW5maWxlLm1hZT4nLCAnLW9tYWUnLCAnPG91dGZpbGUubWFlPic=

> <r_epik_Ionization_Penalty>
0.238664

> <r_epik_Ionization_Penalty_Charging>
0

> <r_epik_Ionization_Penalty_Neutral>
0.238664

> <r_epik_State_Penalty>
0.217087

> <r_epik_Charging_Adjusted_Penalty>
0.217087

> <i_epik_Tot_Q>
0

> <i_epik_Tot_abs_Q>
0

> <r_epik_Metal_State_Penalty>
0.199194

> <b_epik_Metal_Only>
0

> <s_lp_Force_Field>
OPLS_2005

> <r_lp_Energy>
57.1619

> <b_lp_Chiralities_Consistent>
1

> <s_lp_Variant>
AV-unprocessed.smi:1240-4

> <Gold.Version>
5.8.1

> <Gold.Id.Protein>
6NUR|6NUR_protein|mol2

> <Gold.PLP.Fitness>
41.6693

> <Gold.PLP.PLP>
-31.1292

> <Gold.PLP.part.hbond>
-5.0000

> <Gold.PLP.part.metal>
0.0000

> <Gold.PLP.part.buried>
0.0612

> <Gold.PLP.part.nonpolar>
-26.5338

> <Gold.PLP.part.repulsive>
0.8906

> <Gold.PLP.ligand.clash>
0.5000

> <Gold.PLP.ligand.torsion>
1.4360

> <Gold.PLP.Chemscore.Hbond>
2.7284

> <Gold.PLP.Chemscore.CHOScore>
1.7945

> <Gold.PLP.Chemscore.Metal>
0.0000

> <Gold.Chemscore.Hbonds>
donor molecule, donor type, donor heavy atom, donor atom, acceptor molecule, acceptor atom, score
      L1  H     3    24       P1  7948  1.00
      L1  H    17    43       P1  7948  0.98
      P1  H  8011  8017       L1    14  0.50
      L1  C    20    45       P1 10747  0.89

> <Gold.PLP.Chemscore.Internal.Correction>
0.3434

> <Gold.Rescore>
     Score         DG    S(hbond)    S(metal)    S(lipo)     H(rot)  DE(clash)    DE(int)     intcor
     14.28     -18.27       2.20        0.00      82.75       1.65       1.39       2.61       ----

> <Gold.Chemscore.Fitness>
14.2761

> <Gold.Chemscore.DG>
-18.2727

> <Gold.Chemscore.ZeroCoef>
-5.4800

> <Gold.Chemscore.Hbond>
2.1968

> <Gold.Chemscore.Metal>
0.0000

> <Gold.Chemscore.Lipo>
82.7486

> <Gold.Chemscore.Internal_Hbond>
0.0000

> <Gold.Chemscore.DEClash>
1.3900

> <Gold.Chemscore.DEInternal>
2.6066

> <Gold.Chemscore.Rot>
1.6508

> <Gold.Chemscore.Internal.Correction>
   9.000000E+99

> <Gold.Chemscore.Hbonds>
donor molecule, donor type, donor heavy atom, donor atom, acceptor molecule, acceptor atom, score
      L1  H     3    24       P1  7948  1.00
      L1  H    17    43       P1  7948  0.82
      P1  H  8011  8017       L1    14  0.45

> <Gold.Chemscore.Hbond.Weighted>
-7.3373

> <Gold.Chemscore.Metal.Weighted>
-0.0000

> <Gold.Chemscore.Lipo.Weighted>
-9.6816

> <Gold.Chemscore.Internal_Hbond.Weighted>
0.0000

> <Gold.Chemscore.DEClash.Weighted>
1.3900

> <Gold.Chemscore.DEInternal.Weighted>
2.6066

> <Gold.Chemscore.Rot.Weighted>
4.2262

> <Gold.Chemscore.Internal.Correction.Weighted>
   9.000000E+99

> <Gold.Protein.RotatedTorsions>
[ 6907 6896 6895 6894 ] final  115.13 input  -60.11 | X-H torsion
[ 7974 7965 7964 7962 ] final   -7.03 input  175.53 | X-H torsion
[ 8008 7997 7996 7995 ] final -120.93 input   59.86 | X-H torsion
[ 10167 10162 10161 10158 ] final -133.86 input  -65.29 | X-H torsion
[ 10718 10713 10712 10709 ] final  -47.97 input   66.30 | X-H torsion
[ 10763 10752 10751 10750 ] final   40.98 input  -60.55 | X-H torsion
[ 11005 11000 10999 10996 ] final  120.61 input  -57.11 | X-H torsion

> <Gold.Protein.ActiveResidues>
 VAL166  LYS551  ARG553  GLY616  TRP617  ASP618  TYR619  PRO620  LYS621  CYS622 
 ASP623  PHE694  ASN695  SER759  ASP760  ASP761  ALA762  ILE779  LEU786  VAL792 
 PHE793  MET794  SER795  GLU796  ALA797  LYS798  CYS799  TRP800  GLU811  SER814 

> <Gold.Protein.RotatedAtoms>
  152.4761  133.8141  159.7018 H   0  0  0  0  0  0  0  0  0  0  0  0  # atno 6907 bound_to 6896
  150.8778  133.7404  159.2947 H   0  0  0  0  0  0  0  0  0  0  0  0  # atno 6908 bound_to 6896
  151.4918  135.1061  159.9857 H   0  0  0  0  0  0  0  0  0  0  0  0  # atno 6909 bound_to 6896
  146.2317  140.2259  142.8339 H   0  0  0  0  0  0  0  0  0  0  0  0  # atno 7974 bound_to 7965
  155.1398  140.0401  157.2796 H   0  0  0  0  0  0  0  0  0  0  0  0  # atno 8008 bound_to 7997
  154.6481  140.2563  155.7219 H   0  0  0  0  0  0  0  0  0  0  0  0  # atno 8009 bound_to 7997
  156.2564  140.2842  156.0903 H   0  0  0  0  0  0  0  0  0  0  0  0  # atno 8010 bound_to 7997
  139.8939  143.6689  152.2607 H   0  0  0  0  0  0  0  0  0  0  0  0  # atno 10167 bound_to 10162
  156.2033  130.4157  149.9212 H   0  0  0  0  0  0  0  0  0  0  0  0  # atno 10718 bound_to 10713
  152.9921  135.6175  154.2714 H   0  0  0  0  0  0  0  0  0  0  0  0  # atno 10763 bound_to 10752
  154.2446  135.2787  155.2842 H   0  0  0  0  0  0  0  0  0  0  0  0  # atno 10764 bound_to 10752
  154.5340  135.5780  153.6840 H   0  0  0  0  0  0  0  0  0  0  0  0  # atno 10765 bound_to 10752
  139.9192  134.9635  156.7833 H   0  0  0  0  0  0  0  0  0  0  0  0  # atno 11005 bound_to 11000
  144.9596  140.8261  143.5522 LP  0  0  0  0  0  0  0  0  0  0  0  0  # atno 17320 bound_to 7965
  145.2228  139.2151  143.5084 LP  0  0  0  0  0  0  0  0  0  0  0  0  # atno 17321 bound_to 7965
  139.7085  144.7624  151.1152 LP  0  0  0  0  0  0  0  0  0  0  0  0  # atno 17342 bound_to 10162
  140.7721  143.5362  150.9365 LP  0  0  0  0  0  0  0  0  0  0  0  0  # atno 17343 bound_to 10162
  156.6915  130.8897  151.3588 LP  0  0  0  0  0  0  0  0  0  0  0  0  # atno 17370 bound_to 10713
  157.6998  130.9320  150.0751 LP  0  0  0  0  0  0  0  0  0  0  0  0  # atno 17371 bound_to 10713
  140.6526  133.9717  155.7763 LP  0  0  0  0  0  0  0  0  0  0  0  0  # atno 17394 bound_to 11000
  141.0698  134.0223  157.3543 LP  0  0  0  0  0  0  0  0  0  0  0  0  # atno 17395 bound_to 11000

$$$$
