AV-unprocessed.smi:1540|AV-procd|sdf|6200|dock6
  -GOLD-   22720 6373D 1   1.00000     0.00000
 Structure written by MMmdl.
 32 32  0  0  0  0  0  0  0  0  2 V2000
  146.8272  141.6086  154.4344 C   0  0  0  0  0  0  0  0  0  0  0  0
  147.5463  140.7852  153.6569 C   0  0  0  0  0  0  0  0  0  0  0  0
  147.9560  139.3813  154.0437 C   0  0  0  0  0  0  0  0  0  0  0  0
  148.9574  139.4218  155.0530 O   0  0  0  0  0  0  0  0  0  0  0  0
  150.3023  139.4287  154.5800 C   0  0  2  0  0  0  0  0  0  0  0  0
  150.6831  137.9791  154.2455 C   0  0  0  0  0  0  0  0  0  0  0  0
  151.2412  140.0175  155.6454 C   0  0  0  0  0  0  0  0  0  0  0  0
  152.4590  139.9029  155.5071 O   0  0  0  0  0  0  0  0  0  0  0  0
  150.6298  140.6339  156.6758 N   0  0  0  0  0  0  0  0  0  0  0  0
  151.1901  141.2307  157.8176 C   0  0  0  0  0  0  0  0  0  0  0  0
  150.9520  142.5096  158.2206 C   0  0  0  0  0  0  0  0  0  0  0  0
  151.5732  143.0812  159.4089 C   0  0  0  0  0  0  0  0  0  0  0  0
  151.3885  144.5236  159.8462 C   0  0  0  0  0  0  0  0  0  0  0  0
  152.0188  144.7318  161.0013 F   0  0  0  0  0  0  0  0  0  0  0  0
  151.8888  145.3666  158.9423 F   0  0  0  0  0  0  0  0  0  0  0  0
  150.0979  144.8099  160.0191 F   0  0  0  0  0  0  0  0  0  0  0  0
  152.4319  142.1945  160.0293 C   0  0  0  0  0  0  0  0  0  0  0  0
  152.7186  140.9158  159.7001 N   0  5  0  0  0  0  0  0  0  0  0  0
  152.1251  140.3886  158.5922 C   0  0  0  0  0  0  0  0  0  0  0  0
  152.3504  139.2340  158.2281 O   0  0  0  0  0  0  0  0  0  0  0  0
  146.4893  141.3033  155.4140 H   0  0  0  0  0  0  0  0  0  0  0  0
  146.5663  142.6016  154.0988 H   0  0  0  0  0  0  0  0  0  0  0  0
  147.8665  141.1247  152.6826 H   0  0  0  0  0  0  0  0  0  0  0  0
  147.0752  138.8542  154.4126 H   0  0  0  0  0  0  0  0  0  0  0  0
  148.3088  138.8519  153.1576 H   0  0  0  0  0  0  0  0  0  0  0  0
  150.3596  140.0188  153.6631 H   0  0  0  0  0  0  0  0  0  0  0  0
  151.7112  137.9128  153.8873 H   0  0  0  0  0  0  0  0  0  0  0  0
  150.0363  137.5808  153.4636 H   0  0  0  0  0  0  0  0  0  0  0  0
  150.5881  137.3274  155.1150 H   0  0  0  0  0  0  0  0  0  0  0  0
  149.6255  140.7191  156.6136 H   0  0  0  0  0  0  0  0  0  0  0  0
  150.3002  143.1546  157.6549 H   0  0  0  0  0  0  0  0  0  0  0  0
  152.9738  142.5710  160.9231 H   0  0  0  0  0  0  0  0  0  0  0  0
  1  2  2  0  0  0  0
  1 21  1  0  0  0  0
  1 22  1  0  0  0  0
  2  3  1  0  0  0  0
  2 23  1  0  0  0  0
  3  4  1  0  0  0  0
  3 24  1  0  0  0  0
  3 25  1  0  0  0  0
  4  5  1  0  0  0  0
  5  6  1  0  0  0  0
  5  7  1  0  0  0  0
  5 26  1  0  0  0  0
  6 27  1  0  0  0  0
  6 28  1  0  0  0  0
  6 29  1  0  0  0  0
  7  8  2  0  0  0  0
  7  9  1  0  0  0  0
  9 10  1  0  0  0  0
  9 30  1  0  0  0  0
 10 19  1  0  0  0  0
 10 11  2  0  0  0  0
 11 12  1  0  0  0  0
 11 31  1  0  0  0  0
 12 13  1  0  0  0  0
 12 17  2  0  0  0  0
 13 14  1  0  0  0  0
 13 15  1  0  0  0  0
 13 16  1  0  0  0  0
 17 18  1  0  0  0  0
 17 32  1  0  0  0  0
 18 19  1  0  0  0  0
 19 20  2  0  0  0  0
M  CHG  1  18  -1
M  END
> <s_m_source_file>
AV-unprocessed.smi

> <i_m_source_file_index>
1540

> <i_lp_mmshare_version>
43012

> <i_f3d_flags>
0

> <s_epik_input>
W0NIMl09W0NIXVtDSDJdT1tDQEhdKFtDSDNdKUMoPU8pW05IXWMxW2NIXWMoQyhGKShGKUYpW2NIXVtuSF1jMT1P

> <s_epik_cmdline>
J2VwaWtfcHl0aG9uJywgJy1waCcsICc3LjAnLCAnLXRuJywgJzgnLCAnLW1hJywgJzIwMCcsICctbWV0YWxfYmluZGluZycsICctaW1hZScsICc8aW5maWxlLm1hZT4nLCAnLW9tYWUnLCAnPG91dGZpbGUubWFlPic=

> <r_epik_Ionization_Penalty>
2.56803

> <r_epik_Ionization_Penalty_Charging>
0.0609694

> <r_epik_Ionization_Penalty_Neutral>
2.50706

> <r_epik_State_Penalty>
2.67253

> <r_epik_Charging_Adjusted_Penalty>
2.7335

> <i_epik_Tot_Q>
-1

> <i_epik_Tot_abs_Q>
1

> <r_epik_Metal_State_Penalty>
0.517713

> <b_epik_Metal_Only>
0

> <s_lp_Force_Field>
OPLS_2005

> <r_lp_Energy>
19.8511

> <b_lp_Chiralities_Consistent>
1

> <s_lp_Variant>
AV-unprocessed.smi:1540-3

> <Gold.Version>
5.8.1

> <Gold.Id.Protein>
6NUR|6NUR_protein|mol2

> <Gold.PLP.Fitness>
45.1983

> <Gold.PLP.PLP>
-44.8430

> <Gold.PLP.part.hbond>
-1.5652

> <Gold.PLP.part.metal>
0.0000

> <Gold.PLP.part.buried>
-3.7526

> <Gold.PLP.part.nonpolar>
-38.6833

> <Gold.PLP.part.repulsive>
0.1438

> <Gold.PLP.ligand.clash>
0.0611

> <Gold.PLP.ligand.torsion>
1.3244

> <Gold.PLP.Chemscore.Hbond>
1.0000

> <Gold.PLP.Chemscore.CHOScore>
0.0000

> <Gold.PLP.Chemscore.Metal>
0.0000

> <Gold.Chemscore.Hbonds>
donor molecule, donor type, donor heavy atom, donor atom, acceptor molecule, acceptor atom, score
      P1  H  7997  8010       L1     8  0.88

> <Gold.PLP.Chemscore.Internal.Correction>
0.0652

> <Gold.Rescore>
     Score         DG    S(hbond)    S(metal)    S(lipo)     H(rot)  DE(clash)    DE(int)     intcor
      9.73     -13.72       0.98        0.00      81.20       1.77       0.03       3.95       ----

> <Gold.Chemscore.Fitness>
9.7320

> <Gold.Chemscore.DG>
-13.7156

> <Gold.Chemscore.ZeroCoef>
-5.4800

> <Gold.Chemscore.Hbond>
0.9817

> <Gold.Chemscore.Metal>
0.0000

> <Gold.Chemscore.Lipo>
81.2023

> <Gold.Chemscore.Internal_Hbond>
0.0000

> <Gold.Chemscore.DEClash>
0.0318

> <Gold.Chemscore.DEInternal>
3.9518

> <Gold.Chemscore.Rot>
1.7750

> <Gold.Chemscore.Internal.Correction>
   9.000000E+99

> <Gold.Chemscore.Hbonds>
donor molecule, donor type, donor heavy atom, donor atom, acceptor molecule, acceptor atom, score
      P1  H  7997  8010       L1     8  0.82

> <Gold.Chemscore.Hbond.Weighted>
-3.2788

> <Gold.Chemscore.Metal.Weighted>
-0.0000

> <Gold.Chemscore.Lipo.Weighted>
-9.5007

> <Gold.Chemscore.Internal_Hbond.Weighted>
0.0000

> <Gold.Chemscore.DEClash.Weighted>
0.0318

> <Gold.Chemscore.DEInternal.Weighted>
3.9518

> <Gold.Chemscore.Rot.Weighted>
4.5439

> <Gold.Chemscore.Internal.Correction.Weighted>
   9.000000E+99

> <Gold.Protein.RotatedTorsions>
[ 6907 6896 6895 6894 ] final  114.29 input  -60.11 | X-H torsion
[ 7974 7965 7964 7962 ] final  127.74 input  175.53 | X-H torsion
[ 8008 7997 7996 7995 ] final   73.81 input   59.86 | X-H torsion
[ 10167 10162 10161 10158 ] final  -25.38 input  -65.29 | X-H torsion
[ 10718 10713 10712 10709 ] final  -72.14 input   66.30 | X-H torsion
[ 10763 10752 10751 10750 ] final -109.04 input  -60.55 | X-H torsion
[ 11005 11000 10999 10996 ] final  -83.44 input  -57.11 | X-H torsion

> <Gold.Protein.ActiveResidues>
 VAL166  LYS551  ARG553  GLY616  TRP617  ASP618  TYR619  PRO620  LYS621  CYS622 
 ASP623  PHE694  ASN695  SER759  ASP760  ASP761  ALA762  ILE779  LEU786  VAL792 
 PHE793  MET794  SER795  GLU796  ALA797  LYS798  CYS799  TRP800  GLU811  SER814 

> <Gold.Protein.RotatedAtoms>
  152.4811  133.8257  159.7076 H   0  0  0  0  0  0  0  0  0  0  0  0  # atno 6907 bound_to 6896
  150.8862  133.7295  159.2924 H   0  0  0  0  0  0  0  0  0  0  0  0  # atno 6908 bound_to 6896
  151.4783  135.1054  159.9823 H   0  0  0  0  0  0  0  0  0  0  0  0  # atno 6909 bound_to 6896
  145.0472  139.3913  143.5072 H   0  0  0  0  0  0  0  0  0  0  0  0  # atno 7974 bound_to 7965
  155.7892  140.3479  155.5340 H   0  0  0  0  0  0  0  0  0  0  0  0  # atno 8008 bound_to 7997
  155.8651  140.0977  157.1608 H   0  0  0  0  0  0  0  0  0  0  0  0  # atno 8009 bound_to 7997
  154.4014  140.1351  156.3996 H   0  0  0  0  0  0  0  0  0  0  0  0  # atno 8010 bound_to 7997
  140.7286  143.4270  151.0862 H   0  0  0  0  0  0  0  0  0  0  0  0  # atno 10167 bound_to 10162
  156.0333  130.4366  150.2549 H   0  0  0  0  0  0  0  0  0  0  0  0  # atno 10718 bound_to 10713
  154.8170  135.4616  154.0671 H   0  0  0  0  0  0  0  0  0  0  0  0  # atno 10763 bound_to 10752
  153.2056  135.6875  153.8183 H   0  0  0  0  0  0  0  0  0  0  0  0  # atno 10764 bound_to 10752
  153.7653  135.3278  155.3320 H   0  0  0  0  0  0  0  0  0  0  0  0  # atno 10765 bound_to 10752
  141.1657  133.7294  156.8721 H   0  0  0  0  0  0  0  0  0  0  0  0  # atno 11005 bound_to 11000
  146.3515  140.0104  142.8667 LP  0  0  0  0  0  0  0  0  0  0  0  0  # atno 17320 bound_to 7965
  145.1573  140.9654  143.4398 LP  0  0  0  0  0  0  0  0  0  0  0  0  # atno 17321 bound_to 7965
  139.7922  143.8202  152.3153 LP  0  0  0  0  0  0  0  0  0  0  0  0  # atno 17342 bound_to 10162
  139.8190  144.7304  150.9597 LP  0  0  0  0  0  0  0  0  0  0  0  0  # atno 17343 bound_to 10162
  157.0650  131.0100  151.3210 LP  0  0  0  0  0  0  0  0  0  0  0  0  # atno 17370 bound_to 10713
  157.5042  130.7899  149.7637 LP  0  0  0  0  0  0  0  0  0  0  0  0  # atno 17371 bound_to 10713
  140.1774  134.9057  157.2908 LP  0  0  0  0  0  0  0  0  0  0  0  0  # atno 17394 bound_to 11000
  140.2433  134.3770  155.7472 LP  0  0  0  0  0  0  0  0  0  0  0  0  # atno 17395 bound_to 11000

$$$$
