AV-unprocessed.smi:2061|AV-procd|sdf|8394|dock5
  -GOLD-   2272011 83D 1   1.00000     0.00000
 Structure written by MMmdl.
 45 46  0  0  0  0  0  0  0  0  3 V2000
  147.3963  135.8144  162.9334 C   0  0  0  0  0  0  0  0  0  0  0  0
  147.4529  135.8469  161.4447 C   0  0  0  0  0  0  0  0  0  0  0  0
  147.3457  134.8770  160.4881 C   0  0  0  0  0  0  0  0  0  0  0  0
  147.4959  135.6024  159.2759 C   0  0  0  0  0  0  0  0  0  0  0  0
  147.4461  134.9371  158.0219 N   0  0  0  0  0  0  0  0  0  0  0  0
  147.1223  133.6572  157.7600 C   0  0  0  0  0  0  0  0  0  0  0  0
  146.8234  132.8888  158.6820 O   0  0  0  0  0  0  0  0  0  0  0  0
  147.1724  133.3737  156.4293 N   0  5  0  0  0  0  0  0  0  0  0  0
  146.0461  133.5341  155.5095 C   0  0  0  0  0  0  0  0  0  0  0  0
  146.3542  132.8689  154.1360 C   0  0  2  0  0  0  0  0  0  0  0  0
  147.6281  133.4930  153.4952 C   0  0  0  0  0  0  0  0  0  0  0  0
  145.1284  132.9267  153.2622 N   0  3  1  0  0  0  0  0  0  0  0  0
  144.5340  134.2610  152.9709 C   0  0  0  0  0  0  0  0  0  0  0  0
  145.3092  134.9994  151.8586 C   0  0  2  0  0  0  0  0  0  0  0  0
  144.6608  136.3405  151.4992 C   0  0  0  0  0  0  0  0  0  0  0  0
  145.3185  134.1881  150.6907 O   0  0  0  0  0  0  0  0  0  0  0  0
  145.9763  132.9435  150.8961 C   0  0  2  0  0  0  0  0  0  0  0  0
  145.9989  132.1949  149.5590 C   0  0  0  0  0  0  0  0  0  0  0  0
  145.2291  132.1520  151.9903 C   0  0  0  0  0  0  0  0  0  0  0  0
  147.6747  136.8997  159.4770 N   0  0  0  0  0  0  0  0  0  0  0  0
  147.6480  137.0628  160.8670 O   0  0  0  0  0  0  0  0  0  0  0  0
  147.4994  134.7947  163.3048 H   0  0  0  0  0  0  0  0  0  0  0  0
  146.4465  136.2110  163.2917 H   0  0  0  0  0  0  0  0  0  0  0  0
  148.1986  136.4131  163.3649 H   0  0  0  0  0  0  0  0  0  0  0  0
  147.1877  133.8186  160.6335 H   0  0  0  0  0  0  0  0  0  0  0  0
  147.6749  135.5035  157.2188 H   0  0  0  0  0  0  0  0  0  0  0  0
  145.1451  133.0848  155.9285 H   0  0  0  0  0  0  0  0  0  0  0  0
  145.7959  134.5831  155.3449 H   0  0  0  0  0  0  0  0  0  0  0  0
  146.5805  131.8158  154.3080 H   0  0  0  0  0  0  0  0  0  0  0  0
  148.5029  133.4073  154.1432 H   0  0  0  0  0  0  0  0  0  0  0  0
  147.5033  134.5527  153.2637 H   0  0  0  0  0  0  0  0  0  0  0  0
  147.9117  132.9876  152.5740 H   0  0  0  0  0  0  0  0  0  0  0  0
  143.5121  134.0920  152.6281 H   0  0  0  0  0  0  0  0  0  0  0  0
  144.4270  134.8728  153.8655 H   0  0  0  0  0  0  0  0  0  0  0  0
  146.3387  135.1878  152.1637 H   0  0  0  0  0  0  0  0  0  0  0  0
  144.6414  137.0100  152.3595 H   0  0  0  0  0  0  0  0  0  0  0  0
  143.6345  136.2045  151.1571 H   0  0  0  0  0  0  0  0  0  0  0  0
  145.2137  136.8395  150.7031 H   0  0  0  0  0  0  0  0  0  0  0  0
  147.0074  133.1284  151.2009 H   0  0  0  0  0  0  0  0  0  0  0  0
  146.5066  131.2349  149.6559 H   0  0  0  0  0  0  0  0  0  0  0  0
  146.5236  132.7725  148.7978 H   0  0  0  0  0  0  0  0  0  0  0  0
  144.9888  132.0047  149.1949 H   0  0  0  0  0  0  0  0  0  0  0  0
  145.7057  131.1840  152.1462 H   0  0  0  0  0  0  0  0  0  0  0  0
  144.2162  131.9335  151.6493 H   0  0  0  0  0  0  0  0  0  0  0  0
  144.4301  132.4529  153.8177 H   0  0  0  0  0  0  0  0  0  0  0  0
  1  2  1  0  0  0  0
  1 22  1  0  0  0  0
  1 23  1  0  0  0  0
  1 24  1  0  0  0  0
  2 21  1  0  0  0  0
  2  3  2  0  0  0  0
  3  4  1  0  0  0  0
  3 25  1  0  0  0  0
  4  5  1  0  0  0  0
  4 20  2  0  0  0  0
  5  6  1  0  0  0  0
  5 26  1  0  0  0  0
  6  7  2  0  0  0  0
  6  8  1  0  0  0  0
  8  9  1  0  0  0  0
  9 10  1  0  0  0  0
  9 27  1  0  0  0  0
  9 28  1  0  0  0  0
 10 11  1  0  0  0  0
 10 12  1  0  0  0  0
 10 29  1  0  0  0  0
 11 30  1  0  0  0  0
 11 31  1  0  0  0  0
 11 32  1  0  0  0  0
 12 19  1  0  0  0  0
 12 13  1  0  0  0  0
 12 45  1  0  0  0  0
 13 14  1  0  0  0  0
 13 33  1  0  0  0  0
 13 34  1  0  0  0  0
 14 15  1  0  0  0  0
 14 16  1  0  0  0  0
 14 35  1  0  0  0  0
 15 36  1  0  0  0  0
 15 37  1  0  0  0  0
 15 38  1  0  0  0  0
 16 17  1  0  0  0  0
 17 18  1  0  0  0  0
 17 19  1  0  0  0  0
 17 39  1  0  0  0  0
 18 40  1  0  0  0  0
 18 41  1  0  0  0  0
 18 42  1  0  0  0  0
 19 43  1  0  0  0  0
 19 44  1  0  0  0  0
 20 21  1  0  0  0  0
M  CHG  1   8  -1
M  CHG  1  12   1
M  END
> <s_m_source_file>
AV-unprocessed.smi

> <i_m_source_file_index>
2061

> <i_lp_mmshare_version>
43012

> <i_f3d_flags>
0

> <s_epik_input>
W0NIM11jMVtjSF1jKG5vMSlbTkhdQyg9TylbTkhdW0NIMl1bQ0BIXShbQ0gzXSlOMltDSDJdW0NAQEhdKFtDSDNdKU9bQ0BASF0oW0NIM10pW0NIMl0y

> <s_epik_cmdline>
J2VwaWtfcHl0aG9uJywgJy1waCcsICc3LjAnLCAnLXRuJywgJzgnLCAnLW1hJywgJzIwMCcsICctbWV0YWxfYmluZGluZycsICctaW1hZScsICc8aW5maWxlLm1hZT4nLCAnLW9tYWUnLCAnPG91dGZpbGUubWFlPic=

> <r_epik_Ionization_Penalty>
6.8073

> <r_epik_Ionization_Penalty_Charging>
6.80729

> <r_epik_Ionization_Penalty_Neutral>
5.65391e-06

> <r_epik_State_Penalty>
7.47323

> <r_epik_Charging_Adjusted_Penalty>
14.2805

> <i_epik_Tot_Q>
0

> <i_epik_Tot_abs_Q>
2

> <r_epik_Metal_State_Penalty>
3.40035

> <b_epik_Metal_Only>
1

> <s_lp_Force_Field>
OPLS_2005

> <r_lp_Energy>
21.662

> <b_lp_Chiralities_Consistent>
1

> <s_lp_Variant>
AV-unprocessed.smi:2061-35

> <Gold.Version>
5.8.1

> <Gold.Id.Protein>
6NUR|6NUR_protein|mol2

> <Gold.PLP.Fitness>
38.2749

> <Gold.PLP.PLP>
-29.5106

> <Gold.PLP.part.hbond>
-2.9966

> <Gold.PLP.part.metal>
0.0000

> <Gold.PLP.part.buried>
-3.8405

> <Gold.PLP.part.nonpolar>
-23.4816

> <Gold.PLP.part.repulsive>
0.1863

> <Gold.PLP.ligand.clash>
0.4958

> <Gold.PLP.ligand.torsion>
0.8648

> <Gold.PLP.Chemscore.Hbond>
3.6250

> <Gold.PLP.Chemscore.CHOScore>
0.0000

> <Gold.PLP.Chemscore.Metal>
0.0000

> <Gold.Chemscore.Hbonds>
donor molecule, donor type, donor heavy atom, donor atom, acceptor molecule, acceptor atom, score
      L1  H    12    45       P1 10957  1.59
      P1  H  6931  6943       L1    21  0.74
      P1  H  6934  6947       L1    21  0.91

> <Gold.PLP.Chemscore.Internal.Correction>
0.1146

> <Gold.Rescore>
     Score         DG    S(hbond)    S(metal)    S(lipo)     H(rot)  DE(clash)    DE(int)     intcor
     14.74     -17.17       2.27        0.00      69.08       1.56       0.07       2.37       ----

> <Gold.Chemscore.Fitness>
14.7370

> <Gold.Chemscore.DG>
-17.1672

> <Gold.Chemscore.ZeroCoef>
-5.4800

> <Gold.Chemscore.Hbond>
2.2713

> <Gold.Chemscore.Metal>
0.0000

> <Gold.Chemscore.Lipo>
69.0772

> <Gold.Chemscore.Internal_Hbond>
0.0000

> <Gold.Chemscore.DEClash>
0.0650

> <Gold.Chemscore.DEInternal>
2.3652

> <Gold.Chemscore.Rot>
1.5550

> <Gold.Chemscore.Internal.Correction>
   9.000000E+99

> <Gold.Chemscore.Hbonds>
donor molecule, donor type, donor heavy atom, donor atom, acceptor molecule, acceptor atom, score
      L1  H    12    45       P1 10957  0.31
      P1  H  6931  6943       L1    21  0.61
      P1  H  6934  6947       L1    21  0.19

> <Gold.Chemscore.Hbond.Weighted>
-7.5861

> <Gold.Chemscore.Metal.Weighted>
-0.0000

> <Gold.Chemscore.Lipo.Weighted>
-8.0820

> <Gold.Chemscore.Internal_Hbond.Weighted>
0.0000

> <Gold.Chemscore.DEClash.Weighted>
0.0650

> <Gold.Chemscore.DEInternal.Weighted>
2.3652

> <Gold.Chemscore.Rot.Weighted>
3.9809

> <Gold.Chemscore.Internal.Correction.Weighted>
   9.000000E+99

> <Gold.Protein.RotatedTorsions>
[ 6907 6896 6895 6894 ] final  101.79 input  -60.11 | X-H torsion
[ 7974 7965 7964 7962 ] final   81.22 input  175.53 | X-H torsion
[ 8008 7997 7996 7995 ] final  -77.12 input   59.86 | X-H torsion
[ 10167 10162 10161 10158 ] final -169.90 input  -65.29 | X-H torsion
[ 10718 10713 10712 10709 ] final -134.85 input   66.30 | X-H torsion
[ 10763 10752 10751 10750 ] final    5.64 input  -60.55 | X-H torsion
[ 11005 11000 10999 10996 ] final  -54.11 input  -57.11 | X-H torsion

> <Gold.Protein.ActiveResidues>
 VAL166  LYS551  ARG553  GLY616  TRP617  ASP618  TYR619  PRO620  LYS621  CYS622 
 ASP623  PHE694  ASN695  SER759  ASP760  ASP761  ALA762  ILE779  LEU786  VAL792 
 PHE793  MET794  SER795  GLU796  ALA797  LYS798  CYS799  TRP800  GLU811  SER814 

> <Gold.Protein.RotatedAtoms>
  152.5340  134.0073  159.7921 H   0  0  0  0  0  0  0  0  0  0  0  0  # atno 6907 bound_to 6896
  151.0281  133.5807  159.2671 H   0  0  0  0  0  0  0  0  0  0  0  0  # atno 6908 bound_to 6896
  151.2822  135.0724  159.9227 H   0  0  0  0  0  0  0  0  0  0  0  0  # atno 6909 bound_to 6896
  145.6410  139.2425  143.2031 H   0  0  0  0  0  0  0  0  0  0  0  0  # atno 7974 bound_to 7965
  154.5567  140.0715  156.8755 H   0  0  0  0  0  0  0  0  0  0  0  0  # atno 8008 bound_to 7997
  155.2888  140.3376  155.4235 H   0  0  0  0  0  0  0  0  0  0  0  0  # atno 8009 bound_to 7997
  156.2008  140.1721  156.7889 H   0  0  0  0  0  0  0  0  0  0  0  0  # atno 8010 bound_to 7997
  139.5894  144.1246  152.1616 H   0  0  0  0  0  0  0  0  0  0  0  0  # atno 10167 bound_to 10162
  156.2599  130.7203  151.1134 H   0  0  0  0  0  0  0  0  0  0  0  0  # atno 10718 bound_to 10713
  153.2570  135.6919  153.7618 H   0  0  0  0  0  0  0  0  0  0  0  0  # atno 10763 bound_to 10752
  153.6691  135.3347  155.3149 H   0  0  0  0  0  0  0  0  0  0  0  0  # atno 10764 bound_to 10752
  154.8416  135.4495  154.1548 H   0  0  0  0  0  0  0  0  0  0  0  0  # atno 10765 bound_to 10752
  141.1009  133.6618  156.4272 H   0  0  0  0  0  0  0  0  0  0  0  0  # atno 11005 bound_to 11000
  146.1281  140.7222  142.9425 LP  0  0  0  0  0  0  0  0  0  0  0  0  # atno 17320 bound_to 7965
  144.7157  140.4202  143.7046 LP  0  0  0  0  0  0  0  0  0  0  0  0  # atno 17321 bound_to 7965
  140.0817  144.5695  150.7118 LP  0  0  0  0  0  0  0  0  0  0  0  0  # atno 17342 bound_to 10162
  140.7160  143.2545  151.4432 LP  0  0  0  0  0  0  0  0  0  0  0  0  # atno 17343 bound_to 10162
  157.7246  131.0658  150.5986 LP  0  0  0  0  0  0  0  0  0  0  0  0  # atno 17370 bound_to 10713
  156.6073  130.4370  149.5873 LP  0  0  0  0  0  0  0  0  0  0  0  0  # atno 17371 bound_to 10713
  140.5023  134.6474  157.5253 LP  0  0  0  0  0  0  0  0  0  0  0  0  # atno 17394 bound_to 11000
  139.9861  134.7059  155.9772 LP  0  0  0  0  0  0  0  0  0  0  0  0  # atno 17395 bound_to 11000

$$$$
