AV-unprocessed.smi:3028|AV-procd|sdf|11517|dock10
  -GOLD-   2272016453D 1   1.00000     0.00000
 Structure written by MMmdl.
 48 49  0  0  0  0  0  0  0  0  2 V2000
  151.2386  142.0690  158.0124 C   0  0  0  0  0  0  0  0  0  0  0  0
  150.7986  141.4403  156.7218 C   0  0  0  0  0  0  0  0  0  0  0  0
  151.5045  140.4978  155.9218 C   0  0  0  0  0  0  0  0  0  0  0  0
  150.8338  140.1381  154.8398 N   0  0  0  0  0  0  0  0  0  0  0  0
  149.6807  140.8374  154.9052 N   0  0  0  0  0  0  0  0  0  0  0  0
  148.6810  140.6827  153.8561 C   0  0  2  0  0  0  0  0  0  0  0  0
  147.6494  141.8215  153.9521 C   0  0  0  0  0  0  0  0  0  0  0  0
  148.0372  139.2703  153.8767 C   0  0  2  0  0  0  0  0  0  0  0  0
  148.8292  138.2575  154.7236 C   0  0  0  0  0  0  0  0  0  0  0  0
  147.9081  138.7398  152.5010 N   0  3  0  0  0  0  0  0  0  0  0  0
  146.5291  138.7129  151.9670 C   0  0  0  0  0  0  0  0  0  0  0  0
  145.8105  137.3922  152.2730 C   0  0  0  0  0  0  0  0  0  0  0  0
  144.7947  137.3917  152.9666 O   0  0  0  0  0  0  0  0  0  0  0  0
  146.3037  136.2440  151.7789 N   0  0  0  0  0  0  0  0  0  0  0  0
  145.7814  134.8882  151.9466 C   0  0  0  0  0  0  0  0  0  0  0  0
  146.6149  133.9005  151.1160 C   0  0  0  0  0  0  0  0  0  0  0  0
  145.9756  132.5024  151.1295 C   0  0  0  0  0  0  0  0  0  0  0  0
  144.6331  132.5753  150.6620 O   0  0  0  0  0  0  0  0  0  0  0  0
  143.8011  133.3848  151.4859 C   0  0  0  0  0  0  0  0  0  0  0  0
  144.3158  134.8334  151.4890 C   0  0  0  0  0  0  0  0  0  0  0  0
  149.6344  141.6317  156.0336 C   0  0  0  0  0  0  0  0  0  0  0  0
  152.1893  141.6624  158.3578 H   0  0  0  0  0  0  0  0  0  0  0  0
  150.5116  141.9052  158.8082 H   0  0  0  0  0  0  0  0  0  0  0  0
  151.3681  143.1466  157.9108 H   0  0  0  0  0  0  0  0  0  0  0  0
  152.4791  140.0656  156.0953 H   0  0  0  0  0  0  0  0  0  0  0  0
  149.1971  140.7962  152.9004 H   0  0  0  0  0  0  0  0  0  0  0  0
  146.9745  141.8236  153.0965 H   0  0  0  0  0  0  0  0  0  0  0  0
  148.1433  142.7938  153.9710 H   0  0  0  0  0  0  0  0  0  0  0  0
  147.0441  141.7396  154.8554 H   0  0  0  0  0  0  0  0  0  0  0  0
  147.0441  139.3473  154.3229 H   0  0  0  0  0  0  0  0  0  0  0  0
  148.8608  138.5430  155.7753 H   0  0  0  0  0  0  0  0  0  0  0  0
  149.8578  138.1661  154.3732 H   0  0  0  0  0  0  0  0  0  0  0  0
  148.3732  137.2680  154.6771 H   0  0  0  0  0  0  0  0  0  0  0  0
  148.4850  139.2951  151.8852 H   0  0  0  0  0  0  0  0  0  0  0  0
  145.9661  139.5388  152.4039 H   0  0  0  0  0  0  0  0  0  0  0  0
  146.5561  138.8604  150.8871 H   0  0  0  0  0  0  0  0  0  0  0  0
  147.1446  136.3191  151.2240 H   0  0  0  0  0  0  0  0  0  0  0  0
  145.8162  134.5671  152.9873 H   0  0  0  0  0  0  0  0  0  0  0  0
  146.6862  134.2493  150.0846 H   0  0  0  0  0  0  0  0  0  0  0  0
  147.6347  133.8493  151.4993 H   0  0  0  0  0  0  0  0  0  0  0  0
  146.5372  131.8282  150.4826 H   0  0  0  0  0  0  0  0  0  0  0  0
  145.9995  132.0737  152.1325 H   0  0  0  0  0  0  0  0  0  0  0  0
  142.7823  133.3501  151.0994 H   0  0  0  0  0  0  0  0  0  0  0  0
  143.7703  132.9803  152.4988 H   0  0  0  0  0  0  0  0  0  0  0  0
  143.6930  135.4502  152.1379 H   0  0  0  0  0  0  0  0  0  0  0  0
  144.2233  135.2458  150.4829 H   0  0  0  0  0  0  0  0  0  0  0  0
  148.7844  142.2611  156.2530 H   0  0  0  0  0  0  0  0  0  0  0  0
  148.2583  137.7924  152.4910 H   0  0  0  0  0  0  0  0  0  0  0  0
  1  2  1  0  0  0  0
  1 22  1  0  0  0  0
  1 23  1  0  0  0  0
  1 24  1  0  0  0  0
  2 21  2  0  0  0  0
  2  3  1  0  0  0  0
  3  4  2  0  0  0  0
  3 25  1  0  0  0  0
  4  5  1  0  0  0  0
  5  6  1  0  0  0  0
  5 21  1  0  0  0  0
  6  7  1  0  0  0  0
  6  8  1  0  0  0  0
  6 26  1  0  0  0  0
  7 27  1  0  0  0  0
  7 28  1  0  0  0  0
  7 29  1  0  0  0  0
  8  9  1  0  0  0  0
  8 10  1  0  0  0  0
  8 30  1  0  0  0  0
  9 31  1  0  0  0  0
  9 32  1  0  0  0  0
  9 33  1  0  0  0  0
 10 11  1  0  0  0  0
 10 34  1  0  0  0  0
 10 48  1  0  0  0  0
 11 12  1  0  0  0  0
 11 35  1  0  0  0  0
 11 36  1  0  0  0  0
 12 13  2  0  0  0  0
 12 14  1  0  0  0  0
 14 15  1  0  0  0  0
 14 37  1  0  0  0  0
 15 20  1  0  0  0  0
 15 16  1  0  0  0  0
 15 38  1  0  0  0  0
 16 17  1  0  0  0  0
 16 39  1  0  0  0  0
 16 40  1  0  0  0  0
 17 18  1  0  0  0  0
 17 41  1  0  0  0  0
 17 42  1  0  0  0  0
 18 19  1  0  0  0  0
 19 20  1  0  0  0  0
 19 43  1  0  0  0  0
 19 44  1  0  0  0  0
 20 45  1  0  0  0  0
 20 46  1  0  0  0  0
 21 47  1  0  0  0  0
M  CHG  1  10   1
M  END
> <s_m_source_file>
AV-unprocessed.smi

> <i_m_source_file_index>
3028

> <i_lp_mmshare_version>
43012

> <i_f3d_flags>
0

> <s_epik_input>
W0NIM11jMVtjSF1ubihbY0hdMSlbQ0BIXShbQ0gzXSlbQ0BIXShbQ0gzXSlbTkhdW0NIMl1DKD1PKVtOSF1bQ0hdMltDSDJdW0NIMl1PW0NIMl1bQ0gyXTI=

> <s_epik_cmdline>
J2VwaWtfcHl0aG9uJywgJy1waCcsICc3LjAnLCAnLXRuJywgJzgnLCAnLW1hJywgJzIwMCcsICctbWV0YWxfYmluZGluZycsICctaW1hZScsICc8aW5maWxlLm1hZT4nLCAnLW9tYWUnLCAnPG91dGZpbGUubWFlPic=

> <r_lp_tautomer_probability>
1

> <r_epik_Ionization_Penalty>
0.151514

> <r_epik_Ionization_Penalty_Charging>
0.151494

> <r_epik_Ionization_Penalty_Neutral>
1.95502e-05

> <r_epik_State_Penalty>
0.141395

> <r_epik_Charging_Adjusted_Penalty>
0.292889

> <i_epik_Tot_Q>
1

> <i_epik_Tot_abs_Q>
1

> <r_epik_Metal_State_Penalty>
0.141632

> <b_epik_Metal_Only>
0

> <s_lp_Force_Field>
OPLS_2005

> <r_lp_Energy>
18.1204

> <b_lp_Chiralities_Consistent>
1

> <s_lp_Variant>
AV-unprocessed.smi:3028-1

> <Gold.Version>
5.8.1

> <Gold.Id.Protein>
6NUR|6NUR_protein|mol2

> <Gold.PLP.Fitness>
53.7026

> <Gold.PLP.PLP>
-42.2687

> <Gold.PLP.part.hbond>
-3.9269

> <Gold.PLP.part.metal>
0.0000

> <Gold.PLP.part.buried>
-4.0219

> <Gold.PLP.part.nonpolar>
-34.7803

> <Gold.PLP.part.repulsive>
0.5401

> <Gold.PLP.ligand.clash>
0.0000

> <Gold.PLP.ligand.torsion>
2.3367

> <Gold.PLP.Chemscore.Hbond>
4.5348

> <Gold.PLP.Chemscore.CHOScore>
0.7956

> <Gold.PLP.Chemscore.Metal>
0.0000

> <Gold.Chemscore.Hbonds>
donor molecule, donor type, donor heavy atom, donor atom, acceptor molecule, acceptor atom, score
      L1  H    10    34       P1  7957  0.94
      L1  H    10    48       P1  7948  2.00
      L1  H    14    37       P1  7948  0.58
      P1  H  7989  7998       L1     4  1.00
      L1  C    21    47       P1  8028  0.79

> <Gold.PLP.Chemscore.Internal.Correction>
0.1164

> <Gold.Rescore>
     Score         DG    S(hbond)    S(metal)    S(lipo)     H(rot)  DE(clash)    DE(int)     intcor
     18.40     -22.12       3.65        0.00      81.46       1.99       0.02       3.70       ----

> <Gold.Chemscore.Fitness>
18.4004

> <Gold.Chemscore.DG>
-22.1239

> <Gold.Chemscore.ZeroCoef>
-5.4800

> <Gold.Chemscore.Hbond>
3.6548

> <Gold.Chemscore.Metal>
0.0000

> <Gold.Chemscore.Lipo>
81.4568

> <Gold.Chemscore.Internal_Hbond>
0.0000

> <Gold.Chemscore.DEClash>
0.0231

> <Gold.Chemscore.DEInternal>
3.7004

> <Gold.Chemscore.Rot>
1.9897

> <Gold.Chemscore.Internal.Correction>
   9.000000E+99

> <Gold.Chemscore.Hbonds>
donor molecule, donor type, donor heavy atom, donor atom, acceptor molecule, acceptor atom, score
      L1  H    10    34       P1  7957  0.90
      L1  H    10    48       P1  7948  0.99
      L1  H    14    37       P1  7948  0.58
      P1  H  7989  7998       L1     4  0.21

> <Gold.Chemscore.Hbond.Weighted>
-12.2070

> <Gold.Chemscore.Metal.Weighted>
-0.0000

> <Gold.Chemscore.Lipo.Weighted>
-9.5304

> <Gold.Chemscore.Internal_Hbond.Weighted>
0.0000

> <Gold.Chemscore.DEClash.Weighted>
0.0231

> <Gold.Chemscore.DEInternal.Weighted>
3.7004

> <Gold.Chemscore.Rot.Weighted>
5.0936

> <Gold.Chemscore.Internal.Correction.Weighted>
   9.000000E+99

> <Gold.Protein.RotatedTorsions>
[ 6907 6896 6895 6894 ] final -139.10 input  -60.11 | X-H torsion
[ 7974 7965 7964 7962 ] final   59.88 input  175.53 | X-H torsion
[ 8008 7997 7996 7995 ] final -174.85 input   59.86 | X-H torsion
[ 10167 10162 10161 10158 ] final  169.29 input  -65.29 | X-H torsion
[ 10718 10713 10712 10709 ] final  -84.25 input   66.30 | X-H torsion
[ 10763 10752 10751 10750 ] final  -55.34 input  -60.55 | X-H torsion
[ 11005 11000 10999 10996 ] final   56.61 input  -57.11 | X-H torsion

> <Gold.Protein.ActiveResidues>
 VAL166  LYS551  ARG553  GLY616  TRP617  ASP618  TYR619  PRO620  LYS621  CYS622 
 ASP623  PHE694  ASN695  SER759  ASP760  ASP761  ALA762  ILE779  LEU786  VAL792 
 PHE793  MET794  SER795  GLU796  ALA797  LYS798  CYS799  TRP800  GLU811  SER814 

> <Gold.Protein.RotatedAtoms>
  151.0435  133.5685  159.2648 H   0  0  0  0  0  0  0  0  0  0  0  0  # atno 6907 bound_to 6896
  151.2723  135.0687  159.9148 H   0  0  0  0  0  0  0  0  0  0  0  0  # atno 6908 bound_to 6896
  152.5369  134.0163  159.8015 H   0  0  0  0  0  0  0  0  0  0  0  0  # atno 6909 bound_to 6896
  145.9023  139.3590  143.0585 H   0  0  0  0  0  0  0  0  0  0  0  0  # atno 7974 bound_to 7965
  155.9753  140.1171  157.0776 H   0  0  0  0  0  0  0  0  0  0  0  0  # atno 8008 bound_to 7997
  154.4167  140.1155  156.5429 H   0  0  0  0  0  0  0  0  0  0  0  0  # atno 8009 bound_to 7997
  155.6543  140.3473  155.4761 H   0  0  0  0  0  0  0  0  0  0  0  0  # atno 8010 bound_to 7997
  139.4989  144.3722  151.9713 H   0  0  0  0  0  0  0  0  0  0  0  0  # atno 10167 bound_to 10162
  156.0008  130.4691  150.4380 H   0  0  0  0  0  0  0  0  0  0  0  0  # atno 10718 bound_to 10713
  154.1892  135.6430  153.5055 H   0  0  0  0  0  0  0  0  0  0  0  0  # atno 10763 bound_to 10752
  153.0039  135.5424  154.6433 H   0  0  0  0  0  0  0  0  0  0  0  0  # atno 10764 bound_to 10752
  154.5817  135.2926  155.0698 H   0  0  0  0  0  0  0  0  0  0  0  0  # atno 10765 bound_to 10752
  140.0515  134.5730  155.9257 H   0  0  0  0  0  0  0  0  0  0  0  0  # atno 11005 bound_to 11000
  145.8776  140.9382  143.0618 LP  0  0  0  0  0  0  0  0  0  0  0  0  # atno 17320 bound_to 7965
  144.6736  140.0737  143.7472 LP  0  0  0  0  0  0  0  0  0  0  0  0  # atno 17321 bound_to 7965
  140.3158  144.3485  150.6022 LP  0  0  0  0  0  0  0  0  0  0  0  0  # atno 17342 bound_to 10162
  140.5762  143.2176  151.7510 LP  0  0  0  0  0  0  0  0  0  0  0  0  # atno 17343 bound_to 10162
  157.2424  131.0528  151.2428 LP  0  0  0  0  0  0  0  0  0  0  0  0  # atno 17370 bound_to 10713
  157.3607  130.7130  149.6500 LP  0  0  0  0  0  0  0  0  0  0  0  0  # atno 17371 bound_to 10713
  141.1932  133.6578  156.5540 LP  0  0  0  0  0  0  0  0  0  0  0  0  # atno 17394 bound_to 11000
  140.3909  134.7441  157.4721 LP  0  0  0  0  0  0  0  0  0  0  0  0  # atno 17395 bound_to 11000

$$$$
