AV-unprocessed.smi:3157|AV-procd|sdf|12037|dock2
  -GOLD-   2272017453D 1   1.00000     0.00000
 Structure written by MMmdl.
 40 41  0  0  0  0  0  0  0  0  2 V2000
  147.2718  142.0639  154.8625 C   0  0  0  0  0  0  0  0  0  0  0  0
  148.4015  141.1006  155.2751 C   0  0  2  0  0  0  0  0  0  0  0  0
  149.5480  141.8728  155.8097 N   0  3  0  0  0  0  0  0  0  0  0  0
  149.7472  141.7832  157.2709 C   0  0  0  0  0  0  0  0  0  0  0  0
  151.1004  142.3855  157.6813 C   0  0  0  0  0  0  0  0  0  0  0  0
  151.4475  142.1568  159.1541 C   0  0  0  0  0  0  0  0  0  0  0  0
  152.5185  143.2041  159.4771 C   0  0  0  0  0  0  0  0  0  0  0  0
  152.3354  144.3353  158.4538 C   0  0  0  0  0  0  0  0  0  0  0  0
  151.1768  143.9097  157.5448 C   0  0  0  0  0  0  0  0  0  0  0  0
  148.8759  140.2008  154.1040 C   0  0  2  0  0  0  0  0  0  0  0  0
  147.7946  139.2292  153.5946 C   0  0  0  0  0  0  0  0  0  0  0  0
  150.0719  139.4542  154.4800 N   0  0  0  0  0  0  0  0  0  0  0  0
  150.2791  138.0886  154.4751 C   0  0  0  0  0  0  0  0  0  0  0  0
  151.5416  137.8648  154.9439 C   0  0  0  0  0  0  0  0  0  0  0  0
  152.0345  139.1694  155.2235 C   0  0  0  0  0  0  0  0  0  0  0  0
  151.1499  140.1161  154.9553 N   0  0  0  0  0  0  0  0  0  0  0  0
  146.3772  141.5252  154.5510 H   0  0  0  0  0  0  0  0  0  0  0  0
  147.5801  142.7051  154.0361 H   0  0  0  0  0  0  0  0  0  0  0  0
  146.9711  142.7101  155.6868 H   0  0  0  0  0  0  0  0  0  0  0  0
  148.0291  140.4495  156.0679 H   0  0  0  0  0  0  0  0  0  0  0  0
  150.3850  141.5124  155.3728 H   0  0  0  0  0  0  0  0  0  0  0  0
  148.9359  142.2872  157.7961 H   0  0  0  0  0  0  0  0  0  0  0  0
  149.7137  140.7329  157.5640 H   0  0  0  0  0  0  0  0  0  0  0  0
  151.8921  141.9404  157.0758 H   0  0  0  0  0  0  0  0  0  0  0  0
  150.5688  142.3354  159.7759 H   0  0  0  0  0  0  0  0  0  0  0  0
  151.7883  141.1398  159.3506 H   0  0  0  0  0  0  0  0  0  0  0  0
  152.4293  143.5620  160.5034 H   0  0  0  0  0  0  0  0  0  0  0  0
  153.5130  142.7694  159.3694 H   0  0  0  0  0  0  0  0  0  0  0  0
  152.1298  145.2916  158.9361 H   0  0  0  0  0  0  0  0  0  0  0  0
  153.2486  144.4550  157.8696 H   0  0  0  0  0  0  0  0  0  0  0  0
  151.3211  144.2317  156.5130 H   0  0  0  0  0  0  0  0  0  0  0  0
  150.2518  144.3630  157.9042 H   0  0  0  0  0  0  0  0  0  0  0  0
  149.1432  140.8472  153.2654 H   0  0  0  0  0  0  0  0  0  0  0  0
  146.9620  139.7595  153.1333 H   0  0  0  0  0  0  0  0  0  0  0  0
  147.3936  138.6147  154.4011 H   0  0  0  0  0  0  0  0  0  0  0  0
  148.1995  138.5583  152.8359 H   0  0  0  0  0  0  0  0  0  0  0  0
  149.5202  137.3956  154.1425 H   0  0  0  0  0  0  0  0  0  0  0  0
  152.0373  136.9136  155.0698 H   0  0  0  0  0  0  0  0  0  0  0  0
  152.9998  139.4545  155.6155 H   0  0  0  0  0  0  0  0  0  0  0  0
  149.4441  142.8412  155.5424 H   0  0  0  0  0  0  0  0  0  0  0  0
  1  2  1  0  0  0  0
  1 17  1  0  0  0  0
  1 18  1  0  0  0  0
  1 19  1  0  0  0  0
  2  3  1  0  0  0  0
  2 10  1  0  0  0  0
  2 20  1  0  0  0  0
  3  4  1  0  0  0  0
  3 21  1  0  0  0  0
  3 40  1  0  0  0  0
  4  5  1  0  0  0  0
  4 22  1  0  0  0  0
  4 23  1  0  0  0  0
  5  9  1  0  0  0  0
  5  6  1  0  0  0  0
  5 24  1  0  0  0  0
  6  7  1  0  0  0  0
  6 25  1  0  0  0  0
  6 26  1  0  0  0  0
  7  8  1  0  0  0  0
  7 27  1  0  0  0  0
  7 28  1  0  0  0  0
  8  9  1  0  0  0  0
  8 29  1  0  0  0  0
  8 30  1  0  0  0  0
  9 31  1  0  0  0  0
  9 32  1  0  0  0  0
 10 11  1  0  0  0  0
 10 12  1  0  0  0  0
 10 33  1  0  0  0  0
 11 34  1  0  0  0  0
 11 35  1  0  0  0  0
 11 36  1  0  0  0  0
 12 16  1  0  0  0  0
 12 13  1  0  0  0  0
 13 14  2  0  0  0  0
 13 37  1  0  0  0  0
 14 15  1  0  0  0  0
 14 38  1  0  0  0  0
 15 16  2  0  0  0  0
 15 39  1  0  0  0  0
M  CHG  1   3   1
M  END
> <s_m_source_file>
AV-unprocessed.smi

> <i_m_source_file_index>
3157

> <i_lp_mmshare_version>
43012

> <i_f3d_flags>
0

> <s_epik_input>
bjFbY0hdW2NIXVtjSF1uMVtDQEBIXShbQ0gzXSlbQ0BIXShbQ0gzXSlbTkhdW0NIMl1bQ0hdMltDSDJdW0NIMl1bQ0gyXVtDSDJdMg==

> <s_epik_cmdline>
J2VwaWtfcHl0aG9uJywgJy1waCcsICc3LjAnLCAnLXRuJywgJzgnLCAnLW1hJywgJzIwMCcsICctbWV0YWxfYmluZGluZycsICctaW1hZScsICc8aW5maWxlLm1hZT4nLCAnLW9tYWUnLCAnPG91dGZpbGUubWFlPic=

> <r_lp_tautomer_probability>
1

> <r_epik_Ionization_Penalty>
0.00132192

> <r_epik_Ionization_Penalty_Charging>
0.0013111

> <r_epik_Ionization_Penalty_Neutral>
1.08112e-05

> <r_epik_State_Penalty>
-0

> <r_epik_Charging_Adjusted_Penalty>
0.0013111

> <i_epik_Tot_Q>
1

> <i_epik_Tot_abs_Q>
1

> <r_epik_Metal_State_Penalty>
-0

> <b_epik_Metal_Only>
0

> <s_lp_Force_Field>
OPLS_2005

> <r_lp_Energy>
31.0944

> <b_lp_Chiralities_Consistent>
1

> <s_lp_Variant>
AV-unprocessed.smi:3157-1

> <Gold.Version>
5.8.1

> <Gold.Id.Protein>
6NUR|6NUR_protein|mol2

> <Gold.PLP.Fitness>
49.0072

> <Gold.PLP.PLP>
-38.5604

> <Gold.PLP.part.hbond>
-2.0000

> <Gold.PLP.part.metal>
0.0000

> <Gold.PLP.part.buried>
-0.6147

> <Gold.PLP.part.nonpolar>
-36.7251

> <Gold.PLP.part.repulsive>
0.1888

> <Gold.PLP.ligand.clash>
0.0000

> <Gold.PLP.ligand.torsion>
0.8628

> <Gold.PLP.Chemscore.Hbond>
3.0000

> <Gold.PLP.Chemscore.CHOScore>
1.0000

> <Gold.PLP.Chemscore.Metal>
0.0000

> <Gold.Chemscore.Hbonds>
donor molecule, donor type, donor heavy atom, donor atom, acceptor molecule, acceptor atom, score
      L1  H     3    40       P1  8028  2.00
      P1  H  7989  7998       L1    16  0.95
      L1  C    13    37       P1  7948  0.83

> <Gold.PLP.Chemscore.Internal.Correction>
0.1723

> <Gold.Rescore>
     Score         DG    S(hbond)    S(metal)    S(lipo)     H(rot)  DE(clash)    DE(int)     intcor
     17.50     -20.33       1.95        0.00     104.20       1.50       0.02       2.81       ----

> <Gold.Chemscore.Fitness>
17.4952

> <Gold.Chemscore.DG>
-20.3272

> <Gold.Chemscore.ZeroCoef>
-5.4800

> <Gold.Chemscore.Hbond>
1.9486

> <Gold.Chemscore.Metal>
0.0000

> <Gold.Chemscore.Lipo>
104.1964

> <Gold.Chemscore.Internal_Hbond>
0.0000

> <Gold.Chemscore.DEClash>
0.0250

> <Gold.Chemscore.DEInternal>
2.8071

> <Gold.Chemscore.Rot>
1.5047

> <Gold.Chemscore.Internal.Correction>
   9.000000E+99

> <Gold.Chemscore.Hbonds>
donor molecule, donor type, donor heavy atom, donor atom, acceptor molecule, acceptor atom, score
      L1  H     3    40       P1  8028  0.98
      P1  H  7989  7998       L1    16  0.13

> <Gold.Chemscore.Hbond.Weighted>
-6.5082

> <Gold.Chemscore.Metal.Weighted>
-0.0000

> <Gold.Chemscore.Lipo.Weighted>
-12.1910

> <Gold.Chemscore.Internal_Hbond.Weighted>
0.0000

> <Gold.Chemscore.DEClash.Weighted>
0.0250

> <Gold.Chemscore.DEInternal.Weighted>
2.8071

> <Gold.Chemscore.Rot.Weighted>
3.8520

> <Gold.Chemscore.Internal.Correction.Weighted>
   9.000000E+99

> <Gold.Protein.RotatedTorsions>
[ 6907 6896 6895 6894 ] final  126.31 input  -60.11 | X-H torsion
[ 7974 7965 7964 7962 ] final   75.36 input  175.53 | X-H torsion
[ 8008 7997 7996 7995 ] final  -66.90 input   59.86 | X-H torsion
[ 10167 10162 10161 10158 ] final  112.99 input  -65.29 | X-H torsion
[ 10718 10713 10712 10709 ] final   97.62 input   66.30 | X-H torsion
[ 10763 10752 10751 10750 ] final -104.99 input  -60.55 | X-H torsion
[ 11005 11000 10999 10996 ] final  -35.65 input  -57.11 | X-H torsion

> <Gold.Protein.ActiveResidues>
 VAL166  LYS551  ARG553  GLY616  TRP617  ASP618  TYR619  PRO620  LYS621  CYS622 
 ASP623  PHE694  ASN695  SER759  ASP760  ASP761  ALA762  ILE779  LEU786  VAL792 
 PHE793  MET794  SER795  GLU796  ALA797  LYS798  CYS799  TRP800  GLU811  SER814 

> <Gold.Protein.RotatedAtoms>
  152.3914  133.6685  159.6240 H   0  0  0  0  0  0  0  0  0  0  0  0  # atno 6907 bound_to 6896
  150.7822  133.8947  159.3332 H   0  0  0  0  0  0  0  0  0  0  0  0  # atno 6908 bound_to 6896
  151.6733  135.0974  160.0253 H   0  0  0  0  0  0  0  0  0  0  0  0  # atno 6909 bound_to 6896
  145.7165  139.2633  143.1620 H   0  0  0  0  0  0  0  0  0  0  0  0  # atno 7974 bound_to 7965
  154.4764  140.0903  156.7272 H   0  0  0  0  0  0  0  0  0  0  0  0  # atno 8008 bound_to 7997
  155.4585  140.3460  155.4291 H   0  0  0  0  0  0  0  0  0  0  0  0  # atno 8009 bound_to 7997
  156.1123  140.1451  156.9310 H   0  0  0  0  0  0  0  0  0  0  0  0  # atno 8010 bound_to 7997
  139.6494  144.7128  151.2077 H   0  0  0  0  0  0  0  0  0  0  0  0  # atno 10167 bound_to 10162
  157.6909  131.0615  150.4671 H   0  0  0  0  0  0  0  0  0  0  0  0  # atno 10718 bound_to 10713
  154.7916  135.4765  154.0066 H   0  0  0  0  0  0  0  0  0  0  0  0  # atno 10763 bound_to 10752
  153.1640  135.6813  153.8709 H   0  0  0  0  0  0  0  0  0  0  0  0  # atno 10764 bound_to 10752
  153.8313  135.3191  155.3397 H   0  0  0  0  0  0  0  0  0  0  0  0  # atno 10765 bound_to 10752
  140.9813  133.7055  156.1688 H   0  0  0  0  0  0  0  0  0  0  0  0  # atno 11005 bound_to 11000
  146.0664  140.7915  142.9709 LP  0  0  0  0  0  0  0  0  0  0  0  0  # atno 17320 bound_to 7965
  144.6928  140.3276  143.7221 LP  0  0  0  0  0  0  0  0  0  0  0  0  # atno 17321 bound_to 7965
  140.7530  143.6175  150.8545 LP  0  0  0  0  0  0  0  0  0  0  0  0  # atno 17342 bound_to 10162
  139.9821  143.5939  152.2939 LP  0  0  0  0  0  0  0  0  0  0  0  0  # atno 17343 bound_to 10162
  156.5012  130.4117  149.6352 LP  0  0  0  0  0  0  0  0  0  0  0  0  # atno 17370 bound_to 10713
  156.3327  130.7340  151.2272 LP  0  0  0  0  0  0  0  0  0  0  0  0  # atno 17371 bound_to 10713
  140.7182  134.4387  157.5577 LP  0  0  0  0  0  0  0  0  0  0  0  0  # atno 17394 bound_to 11000
  139.8951  134.8690  156.2146 LP  0  0  0  0  0  0  0  0  0  0  0  0  # atno 17395 bound_to 11000

$$$$
