AV-unprocessed.smi:199|AV-procd|sdf|1571|dock4
  -GOLD-   2262019453D 1   1.00000     0.00000
 Structure written by MMmdl.
 51 55  0  0  0  0  0  0  0  0  1 V2000
  146.9360  133.6381  152.6445 C   0  0  0  0  0  0  0  0  0  0  0  0
  146.4084  133.7463  151.2053 C   0  0  1  0  0  0  0  0  0  0  0  0
  146.0735  132.4308  150.7699 O   0  0  0  0  0  0  0  0  0  0  0  0
  145.0001  132.5112  149.8490 C   0  0  0  0  0  0  0  0  0  0  0  0
  144.1170  133.5822  150.4698 C   0  0  0  0  0  0  0  0  0  0  0  0
  145.1271  134.6014  150.9899 C   0  0  2  0  0  0  0  0  0  0  0  0
  145.3948  135.5174  149.9408 O   0  0  0  0  0  0  0  0  0  0  0  0
  144.6213  135.4132  152.2120 C   0  0  0  0  0  0  0  0  0  0  0  0
  145.5668  136.4237  152.6629 N   0  0  0  0  0  0  0  0  0  0  0  0
  145.8628  137.6135  152.0393 C   0  0  0  0  0  0  0  0  0  0  0  0
  146.7446  138.3554  152.6502 N   0  0  0  0  0  0  0  0  0  0  0  0
  147.0877  137.6260  153.7833 C   0  0  0  0  0  0  0  0  0  0  0  0
  147.9738  137.8376  154.8812 C   0  0  0  0  0  0  0  0  0  0  0  0
  148.7397  138.9518  155.0487 N   0  0  0  0  0  0  0  0  0  0  0  0
  148.5455  140.1253  154.2084 C   0  0  1  0  0  0  0  0  0  0  0  0
  147.2296  140.7385  154.7255 C   0  0  0  0  0  0  0  0  0  0  0  0
  147.3252  140.4250  156.2263 C   0  0  0  0  0  0  0  0  0  0  0  0
  148.6887  139.6980  156.2999 C   0  0  2  0  0  0  0  0  0  0  0  0
  149.8654  140.6806  156.1161 C   0  0  2  0  0  0  0  0  0  0  0  0
  149.9131  141.8792  157.0820 C   0  0  0  0  0  0  0  0  0  0  0  0
  150.8810  142.8100  156.6472 O   0  0  0  0  0  0  0  0  0  0  0  0
  149.7141  141.0368  154.6255 C   0  0  0  0  0  0  0  0  0  0  0  0
  148.0660  136.8419  155.8028 N   0  0  0  0  0  0  0  0  0  0  0  0
  147.3305  135.7339  155.6848 C   0  0  0  0  0  0  0  0  0  0  0  0
  146.4536  135.4143  154.7332 N   0  0  0  0  0  0  0  0  0  0  0  0
  146.3653  136.3975  153.7929 C   0  0  0  0  0  0  0  0  0  0  0  0
  147.2185  134.6138  153.0401 H   0  0  0  0  0  0  0  0  0  0  0  0
  147.8213  133.0030  152.6815 H   0  0  0  0  0  0  0  0  0  0  0  0
  146.1936  133.1989  153.3110 H   0  0  0  0  0  0  0  0  0  0  0  0
  147.2185  134.1076  150.5689 H   0  0  0  0  0  0  0  0  0  0  0  0
  145.3722  132.8222  148.8714 H   0  0  0  0  0  0  0  0  0  0  0  0
  144.4905  131.5538  149.7392 H   0  0  0  0  0  0  0  0  0  0  0  0
  143.3879  133.9978  149.7727 H   0  0  0  0  0  0  0  0  0  0  0  0
  143.5673  133.1398  151.3013 H   0  0  0  0  0  0  0  0  0  0  0  0
  145.8197  135.0511  149.2374 H   0  0  0  0  0  0  0  0  0  0  0  0
  143.6867  135.9213  151.9740 H   0  0  0  0  0  0  0  0  0  0  0  0
  144.4061  134.7495  153.0505 H   0  0  0  0  0  0  0  0  0  0  0  0
  145.3966  137.9189  151.1138 H   0  0  0  0  0  0  0  0  0  0  0  0
  148.5428  139.9457  153.1353 H   0  0  0  0  0  0  0  0  0  0  0  0
  147.1511  141.8060  154.5181 H   0  0  0  0  0  0  0  0  0  0  0  0
  146.3649  140.2428  154.2824 H   0  0  0  0  0  0  0  0  0  0  0  0
  147.2615  141.3108  156.8565 H   0  0  0  0  0  0  0  0  0  0  0  0
  146.5145  139.7591  156.5241 H   0  0  0  0  0  0  0  0  0  0  0  0
  148.8026  139.0887  157.1973 H   0  0  0  0  0  0  0  0  0  0  0  0
  150.7855  140.1066  156.2436 H   0  0  0  0  0  0  0  0  0  0  0  0
  148.9504  142.3854  157.1477 H   0  0  0  0  0  0  0  0  0  0  0  0
  150.1789  141.5466  158.0856 H   0  0  0  0  0  0  0  0  0  0  0  0
  150.4921  143.3605  155.9847 H   0  0  0  0  0  0  0  0  0  0  0  0
  150.6235  140.7840  154.0790 H   0  0  0  0  0  0  0  0  0  0  0  0
  149.4997  142.0915  154.4495 H   0  0  0  0  0  0  0  0  0  0  0  0
  147.4635  134.9990  156.4649 H   0  0  0  0  0  0  0  0  0  0  0  0
  1  2  1  0  0  0  0
  1 27  1  0  0  0  0
  1 28  1  0  0  0  0
  1 29  1  0  0  0  0
  2  6  1  0  0  0  0
  2  3  1  0  0  0  0
  2 30  1  0  0  0  0
  3  4  1  0  0  0  0
  4  5  1  0  0  0  0
  4 31  1  0  0  0  0
  4 32  1  0  0  0  0
  5  6  1  0  0  0  0
  5 33  1  0  0  0  0
  5 34  1  0  0  0  0
  6  7  1  0  0  0  0
  6  8  1  0  0  0  0
  7 35  1  0  0  0  0
  8  9  1  0  0  0  0
  8 36  1  0  0  0  0
  8 37  1  0  0  0  0
  9 26  1  0  0  0  0
  9 10  1  0  0  0  0
 10 11  2  0  0  0  0
 10 38  1  0  0  0  0
 11 12  1  0  0  0  0
 12 26  2  0  0  0  0
 12 13  1  0  0  0  0
 13 14  1  0  0  0  0
 13 23  2  0  0  0  0
 14 18  1  0  0  0  0
 14 15  1  0  0  0  0
 15 22  1  0  0  0  0
 15 16  1  0  0  0  0
 15 39  1  0  0  0  0
 16 17  1  0  0  0  0
 16 40  1  0  0  0  0
 16 41  1  0  0  0  0
 17 18  1  0  0  0  0
 17 42  1  0  0  0  0
 17 43  1  0  0  0  0
 18 19  1  0  0  0  0
 18 44  1  0  0  0  0
 19 20  1  0  0  0  0
 19 22  1  0  0  0  0
 19 45  1  0  0  0  0
 20 21  1  0  0  0  0
 20 46  1  0  0  0  0
 20 47  1  0  0  0  0
 21 48  1  0  0  0  0
 22 49  1  0  0  0  0
 22 50  1  0  0  0  0
 23 24  1  0  0  0  0
 24 25  2  0  0  0  0
 24 51  1  0  0  0  0
 25 26  1  0  0  0  0
M  END
> <s_m_source_file>
AV-unprocessed.smi

> <i_m_source_file_index>
199

> <i_lp_mmshare_version>
43012

> <i_f3d_flags>
0

> <s_epik_input>
W0NIMl0xW0NIMl1PW0NAQEhdKFtDSDNdKVtDQEBdMShbT0hdKVtDSDJdbihbY0hdbjIpYyhjMjMpbltjSF1uYzNOKFtDQEBIXTQ1KVtDQEhdKFtDSDJdW0NIMl00KVtDQEhdKFtDSDJdNSlbQ0gyXVtPSF0=

> <s_epik_cmdline>
J2VwaWtfcHl0aG9uJywgJy1waCcsICc3LjAnLCAnLXRuJywgJzgnLCAnLW1hJywgJzIwMCcsICctbWV0YWxfYmluZGluZycsICctaW1hZScsICc8aW5maWxlLm1hZT4nLCAnLW9tYWUnLCAnPG91dGZpbGUubWFlPic=

> <r_lp_tautomer_probability>
1

> <r_epik_Ionization_Penalty>
0.00583903

> <r_epik_Ionization_Penalty_Charging>
0

> <r_epik_Ionization_Penalty_Neutral>
0.00583903

> <r_epik_State_Penalty>
-0

> <r_epik_Charging_Adjusted_Penalty>
0

> <i_epik_Tot_Q>
0

> <i_epik_Tot_abs_Q>
0

> <r_epik_Metal_State_Penalty>
-0

> <b_epik_Metal_Only>
0

> <s_lp_Force_Field>
OPLS_2005

> <r_lp_Energy>
83.1527

> <b_lp_Chiralities_Consistent>
1

> <s_lp_Variant>
AV-unprocessed.smi:199-12

> <Gold.Version>
5.8.1

> <Gold.Id.Protein>
6NUR|6NUR_protein|mol2

> <Gold.PLP.Fitness>
37.9705

> <Gold.PLP.PLP>
-29.6266

> <Gold.PLP.part.hbond>
-2.1343

> <Gold.PLP.part.metal>
0.0000

> <Gold.PLP.part.buried>
-3.3789

> <Gold.PLP.part.nonpolar>
-24.5556

> <Gold.PLP.part.repulsive>
0.6464

> <Gold.PLP.ligand.clash>
0.0000

> <Gold.PLP.ligand.torsion>
0.3368

> <Gold.PLP.Chemscore.Hbond>
2.0000

> <Gold.PLP.Chemscore.CHOScore>
1.0000

> <Gold.PLP.Chemscore.Metal>
0.0000

> <Gold.Chemscore.Hbonds>
donor molecule, donor type, donor heavy atom, donor atom, acceptor molecule, acceptor atom, score
      L1  H     7    35       P1  7921  1.00
      L1  H    21    48       P1  8028  0.66
      L1  C    10    38       P1 10171  1.00

> <Gold.PLP.Chemscore.Internal.Correction>
0.0174

> <Gold.Rescore>
     Score         DG    S(hbond)    S(metal)    S(lipo)     H(rot)  DE(clash)    DE(int)     intcor
      9.71     -12.88       2.00        0.00      73.41       3.07       0.25       2.92       ----

> <Gold.Chemscore.Fitness>
9.7069

> <Gold.Chemscore.DG>
-12.8812

> <Gold.Chemscore.ZeroCoef>
-5.4800

> <Gold.Chemscore.Hbond>
1.9998

> <Gold.Chemscore.Metal>
0.0000

> <Gold.Chemscore.Lipo>
73.4060

> <Gold.Chemscore.Internal_Hbond>
0.0000

> <Gold.Chemscore.DEClash>
0.2537

> <Gold.Chemscore.DEInternal>
2.9206

> <Gold.Chemscore.Rot>
3.0729

> <Gold.Chemscore.Internal.Correction>
   9.000000E+99

> <Gold.Chemscore.Hbonds>
donor molecule, donor type, donor heavy atom, donor atom, acceptor molecule, acceptor atom, score
      L1  H     7    35       P1  7921  0.93
      L1  H    21    48       P1  8028  0.65

> <Gold.Chemscore.Hbond.Weighted>
-6.6794

> <Gold.Chemscore.Metal.Weighted>
-0.0000

> <Gold.Chemscore.Lipo.Weighted>
-8.5885

> <Gold.Chemscore.Internal_Hbond.Weighted>
0.0000

> <Gold.Chemscore.DEClash.Weighted>
0.2537

> <Gold.Chemscore.DEInternal.Weighted>
2.9206

> <Gold.Chemscore.Rot.Weighted>
7.8667

> <Gold.Chemscore.Internal.Correction.Weighted>
   9.000000E+99

> <Gold.Protein.RotatedTorsions>
[ 6907 6896 6895 6894 ] final -112.70 input  -60.11 | X-H torsion
[ 7974 7965 7964 7962 ] final   45.79 input  175.53 | X-H torsion
[ 8008 7997 7996 7995 ] final   -3.62 input   59.86 | X-H torsion
[ 10167 10162 10161 10158 ] final  126.46 input  -65.29 | X-H torsion
[ 10718 10713 10712 10709 ] final  -33.98 input   66.30 | X-H torsion
[ 10763 10752 10751 10750 ] final  115.64 input  -60.55 | X-H torsion
[ 11005 11000 10999 10996 ] final  -35.92 input  -57.11 | X-H torsion

> <Gold.Protein.ActiveResidues>
 VAL166  LYS551  ARG553  GLY616  TRP617  ASP618  TYR619  PRO620  LYS621  CYS622 
 ASP623  PHE694  ASN695  SER759  ASP760  ASP761  ALA762  ILE779  LEU786  VAL792 
 PHE793  MET794  SER795  GLU796  ALA797  LYS798  CYS799  TRP800  GLU811  SER814 

> <Gold.Protein.RotatedAtoms>
  150.7777  133.9052  159.3352 H   0  0  0  0  0  0  0  0  0  0  0  0  # atno 6907 bound_to 6896
  151.6922  135.0942  160.0245 H   0  0  0  0  0  0  0  0  0  0  0  0  # atno 6908 bound_to 6896
  152.3818  133.6518  159.6202 H   0  0  0  0  0  0  0  0  0  0  0  0  # atno 6909 bound_to 6896
  146.0449  139.4926  142.9755 H   0  0  0  0  0  0  0  0  0  0  0  0  # atno 7974 bound_to 7965
  154.6229  140.2504  155.7527 H   0  0  0  0  0  0  0  0  0  0  0  0  # atno 8008 bound_to 7997
  156.2437  140.2923  156.0465 H   0  0  0  0  0  0  0  0  0  0  0  0  # atno 8009 bound_to 7997
  155.1867  140.0390  157.2883 H   0  0  0  0  0  0  0  0  0  0  0  0  # atno 8010 bound_to 7997
  139.5630  144.6894  151.3989 H   0  0  0  0  0  0  0  0  0  0  0  0  # atno 10167 bound_to 10162
  156.3560  130.4316  149.7663 H   0  0  0  0  0  0  0  0  0  0  0  0  # atno 10718 bound_to 10713
  153.5252  135.3589  155.2650 H   0  0  0  0  0  0  0  0  0  0  0  0  # atno 10763 bound_to 10752
  154.8732  135.4055  154.3214 H   0  0  0  0  0  0  0  0  0  0  0  0  # atno 10764 bound_to 10752
  153.3892  135.7071  153.6574 H   0  0  0  0  0  0  0  0  0  0  0  0  # atno 10765 bound_to 10752
  140.9834  133.7044  156.1723 H   0  0  0  0  0  0  0  0  0  0  0  0  # atno 11005 bound_to 11000
  145.6823  141.0187  143.1600 LP  0  0  0  0  0  0  0  0  0  0  0  0  # atno 17320 bound_to 7965
  144.7092  139.8436  143.7420 LP  0  0  0  0  0  0  0  0  0  0  0  0  # atno 17321 bound_to 7965
  140.6911  143.7858  150.7257 LP  0  0  0  0  0  0  0  0  0  0  0  0  # atno 17342 bound_to 10162
  140.1341  143.4499  152.2236 LP  0  0  0  0  0  0  0  0  0  0  0  0  # atno 17343 bound_to 10162
  156.4846  130.8056  151.3069 LP  0  0  0  0  0  0  0  0  0  0  0  0  # atno 17370 bound_to 10713
  157.7467  130.9995  150.2891 LP  0  0  0  0  0  0  0  0  0  0  0  0  # atno 17371 bound_to 10713
  140.7152  134.4418  157.5579 LP  0  0  0  0  0  0  0  0  0  0  0  0  # atno 17394 bound_to 11000
  139.8960  134.8670  156.2108 LP  0  0  0  0  0  0  0  0  0  0  0  0  # atno 17395 bound_to 11000

$$$$
