AV-unprocessed.smi:1273|AV-procd|sdf|5338|dock4
  -GOLD-   22720 4473D 1   1.00000     0.00000
 Structure written by MMmdl.
 40 41  0  0  0  0  0  0  0  0  1 V2000
  155.1331  141.3033  167.8208 C   0  0  0  0  0  0  0  0  0  0  0  0
  155.9868  141.3621  166.5437 C   0  0  2  0  0  0  0  0  0  0  0  0
  155.2111  141.9704  165.3670 C   0  0  0  0  0  0  0  0  0  0  0  0
  154.6924  143.0802  165.4834 O   0  0  0  0  0  0  0  0  0  0  0  0
  155.1404  141.2082  164.2593 N   0  0  0  0  0  0  0  0  0  0  0  0
  154.4927  141.4900  163.0267 C   0  0  0  0  0  0  0  0  0  0  0  0
  153.6373  142.6071  162.9708 C   0  0  0  0  0  0  0  0  0  0  0  0
  152.9654  142.9019  161.7696 C   0  0  0  0  0  0  0  0  0  0  0  0
  153.1611  142.0644  160.6462 C   0  0  0  0  0  0  0  0  0  0  0  0
  152.5007  142.3402  159.4287 N   0  0  0  0  0  0  0  0  0  0  0  0
  152.1968  143.7354  159.1141 C   0  0  0  0  0  0  0  0  0  0  0  0
  151.7546  143.8711  157.6474 C   0  0  0  0  0  0  0  0  0  0  0  0
  150.6580  142.9995  157.3945 O   0  0  0  0  0  0  0  0  0  0  0  0
  151.0096  141.6353  157.5988 C   0  0  0  0  0  0  0  0  0  0  0  0
  151.4280  141.4178  159.0633 C   0  0  0  0  0  0  0  0  0  0  0  0
  153.9689  140.9773  160.7071 N   0  0  0  0  0  0  0  0  0  0  0  0
  154.6128  140.6986  161.8600 C   0  0  0  0  0  0  0  0  0  0  0  0
  156.5816  139.6618  166.1031 S   0  0  0  0  0  0  0  0  0  0  0  0
  155.0197  138.6943  165.9624 C   0  0  0  0  0  0  0  0  0  0  0  0
  157.2011  139.7287  164.7705 O   0  0  0  0  0  0  0  0  0  0  0  0
  157.3552  139.1173  167.2298 O   0  0  0  0  0  0  0  0  0  0  0  0
  154.7460  142.2880  168.0857 H   0  0  0  0  0  0  0  0  0  0  0  0
  155.7232  140.9456  168.6647 H   0  0  0  0  0  0  0  0  0  0  0  0
  154.2839  140.6288  167.7053 H   0  0  0  0  0  0  0  0  0  0  0  0
  156.8708  141.9684  166.7455 H   0  0  0  0  0  0  0  0  0  0  0  0
  155.5503  140.2882  164.3296 H   0  0  0  0  0  0  0  0  0  0  0  0
  153.4942  143.2351  163.8382 H   0  0  0  0  0  0  0  0  0  0  0  0
  152.3005  143.7517  161.7305 H   0  0  0  0  0  0  0  0  0  0  0  0
  151.4065  144.0911  159.7767 H   0  0  0  0  0  0  0  0  0  0  0  0
  153.0731  144.3621  159.2847 H   0  0  0  0  0  0  0  0  0  0  0  0
  151.4485  144.8967  157.4410 H   0  0  0  0  0  0  0  0  0  0  0  0
  152.5792  143.6425  156.9700 H   0  0  0  0  0  0  0  0  0  0  0  0
  150.1513  141.0082  157.3572 H   0  0  0  0  0  0  0  0  0  0  0  0
  151.8136  141.3497  156.9187 H   0  0  0  0  0  0  0  0  0  0  0  0
  151.7243  140.3783  159.1944 H   0  0  0  0  0  0  0  0  0  0  0  0
  150.5769  141.5903  159.7231 H   0  0  0  0  0  0  0  0  0  0  0  0
  155.2156  139.8046  161.8321 H   0  0  0  0  0  0  0  0  0  0  0  0
  155.2521  137.6873  165.6162 H   0  0  0  0  0  0  0  0  0  0  0  0
  154.3528  139.1760  165.2479 H   0  0  0  0  0  0  0  0  0  0  0  0
  154.5323  138.6306  166.9351 H   0  0  0  0  0  0  0  0  0  0  0  0
  1  2  1  0  0  0  0
  1 22  1  0  0  0  0
  1 23  1  0  0  0  0
  1 24  1  0  0  0  0
  2  3  1  0  0  0  0
  2 18  1  0  0  0  0
  2 25  1  0  0  0  0
  3  4  2  0  0  0  0
  3  5  1  0  0  0  0
  5  6  1  0  0  0  0
  5 26  1  0  0  0  0
  6 17  1  0  0  0  0
  6  7  2  0  0  0  0
  7  8  1  0  0  0  0
  7 27  1  0  0  0  0
  8  9  2  0  0  0  0
  8 28  1  0  0  0  0
  9 10  1  0  0  0  0
  9 16  1  0  0  0  0
 10 15  1  0  0  0  0
 10 11  1  0  0  0  0
 11 12  1  0  0  0  0
 11 29  1  0  0  0  0
 11 30  1  0  0  0  0
 12 13  1  0  0  0  0
 12 31  1  0  0  0  0
 12 32  1  0  0  0  0
 13 14  1  0  0  0  0
 14 15  1  0  0  0  0
 14 33  1  0  0  0  0
 14 34  1  0  0  0  0
 15 35  1  0  0  0  0
 15 36  1  0  0  0  0
 16 17  2  0  0  0  0
 17 37  1  0  0  0  0
 18 19  1  0  0  0  0
 18 20  2  0  0  0  0
 18 21  2  0  0  0  0
 19 38  1  0  0  0  0
 19 39  1  0  0  0  0
 19 40  1  0  0  0  0
M  END
> <s_m_source_file>
AV-unprocessed.smi

> <i_m_source_file_index>
1273

> <i_lp_mmshare_version>
43012

> <i_f3d_flags>
0

> <s_epik_input>
W0NIM11TKD1PKSg9TylbQ0BIXShbQ0gzXSlDKD1PKVtOSF1jMVtjSF1bY0hdYyhuW2NIXTEpTjJbQ0gyXVtDSDJdT1tDSDJdW0NIMl0y

> <s_epik_cmdline>
J2VwaWtfcHl0aG9uJywgJy1waCcsICc3LjAnLCAnLXRuJywgJzgnLCAnLW1hJywgJzIwMCcsICctbWV0YWxfYmluZGluZycsICctaW1hZScsICc8aW5maWxlLm1hZT4nLCAnLW9tYWUnLCAnPG91dGZpbGUubWFlPic=

> <r_lp_tautomer_probability>
1

> <r_epik_Ionization_Penalty>
0.000253983

> <r_epik_Ionization_Penalty_Charging>
0

> <r_epik_Ionization_Penalty_Neutral>
0.000253983

> <r_epik_State_Penalty>
-0

> <r_epik_Charging_Adjusted_Penalty>
0

> <i_epik_Tot_Q>
0

> <i_epik_Tot_abs_Q>
0

> <r_epik_Metal_State_Penalty>
-0

> <b_epik_Metal_Only>
0

> <s_lp_Force_Field>
OPLS_2005

> <r_lp_Energy>
19.002

> <b_lp_Chiralities_Consistent>
1

> <s_lp_Variant>
AV-unprocessed.smi:1273-1

> <Gold.Version>
5.8.1

> <Gold.Id.Protein>
6NUR|6NUR_protein|mol2

> <Gold.PLP.Fitness>
39.6236

> <Gold.PLP.PLP>
-40.4784

> <Gold.PLP.part.hbond>
-1.6248

> <Gold.PLP.part.metal>
0.0000

> <Gold.PLP.part.buried>
-2.3746

> <Gold.PLP.part.nonpolar>
-36.1512

> <Gold.PLP.part.repulsive>
0.6882

> <Gold.PLP.ligand.clash>
0.0000

> <Gold.PLP.ligand.torsion>
0.6750

> <Gold.PLP.Chemscore.Hbond>
0.0000

> <Gold.PLP.Chemscore.CHOScore>
0.0000

> <Gold.PLP.Chemscore.Metal>
0.0000

> <Gold.PLP.Chemscore.Internal.Correction>
0.4952

> <Gold.Rescore>
     Score         DG    S(hbond)    S(metal)    S(lipo)     H(rot)  DE(clash)    DE(int)     intcor
      7.38     -12.55       0.00        0.00      94.58       1.56       1.17       3.99       ----

> <Gold.Chemscore.Fitness>
7.3826

> <Gold.Chemscore.DG>
-12.5464

> <Gold.Chemscore.ZeroCoef>
-5.4800

> <Gold.Chemscore.Hbond>
0.0000

> <Gold.Chemscore.Metal>
0.0000

> <Gold.Chemscore.Lipo>
94.5813

> <Gold.Chemscore.Internal_Hbond>
0.0000

> <Gold.Chemscore.DEClash>
1.1709

> <Gold.Chemscore.DEInternal>
3.9929

> <Gold.Chemscore.Rot>
1.5624

> <Gold.Chemscore.Internal.Correction>
   9.000000E+99

> <Gold.Chemscore.Hbond.Weighted>
-0.0000

> <Gold.Chemscore.Metal.Weighted>
-0.0000

> <Gold.Chemscore.Lipo.Weighted>
-11.0660

> <Gold.Chemscore.Internal_Hbond.Weighted>
0.0000

> <Gold.Chemscore.DEClash.Weighted>
1.1709

> <Gold.Chemscore.DEInternal.Weighted>
3.9929

> <Gold.Chemscore.Rot.Weighted>
3.9996

> <Gold.Chemscore.Internal.Correction.Weighted>
   9.000000E+99

> <Gold.Protein.RotatedTorsions>
[ 6907 6896 6895 6894 ] final  -69.07 input  -60.11 | X-H torsion
[ 7974 7965 7964 7962 ] final  145.94 input  175.53 | X-H torsion
[ 8008 7997 7996 7995 ] final   40.58 input   59.86 | X-H torsion
[ 10167 10162 10161 10158 ] final  -38.08 input  -65.29 | X-H torsion
[ 10718 10713 10712 10709 ] final  167.86 input   66.30 | X-H torsion
[ 10763 10752 10751 10750 ] final   16.60 input  -60.55 | X-H torsion
[ 11005 11000 10999 10996 ] final   27.44 input  -57.11 | X-H torsion

> <Gold.Protein.ActiveResidues>
 VAL166  LYS551  ARG553  GLY616  TRP617  ASP618  TYR619  PRO620  LYS621  CYS622 
 ASP623  PHE694  ASN695  SER759  ASP760  ASP761  ALA762  ILE779  LEU786  VAL792 
 PHE793  MET794  SER795  GLU796  ALA797  LYS798  CYS799  TRP800  GLU811  SER814 

> <Gold.Protein.RotatedAtoms>
  150.7324  134.5648  159.5860 H   0  0  0  0  0  0  0  0  0  0  0  0  # atno 6907 bound_to 6896
  152.3102  134.7503  160.0347 H   0  0  0  0  0  0  0  0  0  0  0  0  # atno 6908 bound_to 6896
  151.8054  133.3339  159.3576 H   0  0  0  0  0  0  0  0  0  0  0  0  # atno 6909 bound_to 6896
  144.8711  139.5845  143.5886 H   0  0  0  0  0  0  0  0  0  0  0  0  # atno 7974 bound_to 7965
  155.2554  140.3355  155.4278 H   0  0  0  0  0  0  0  0  0  0  0  0  # atno 8008 bound_to 7997
  156.2198  140.1804  156.7548 H   0  0  0  0  0  0  0  0  0  0  0  0  # atno 8009 bound_to 7997
  154.5807  140.0654  156.9085 H   0  0  0  0  0  0  0  0  0  0  0  0  # atno 8010 bound_to 7997
  140.7101  143.3300  151.2591 H   0  0  0  0  0  0  0  0  0  0  0  0  # atno 10167 bound_to 10162
  157.0454  131.0298  151.2699 H   0  0  0  0  0  0  0  0  0  0  0  0  # atno 10718 bound_to 10713
  153.1415  135.6761  153.9019 H   0  0  0  0  0  0  0  0  0  0  0  0  # atno 10763 bound_to 10752
  153.8475  135.3097  155.3431 H   0  0  0  0  0  0  0  0  0  0  0  0  # atno 10764 bound_to 10752
  154.7791  135.4898  153.9891 H   0  0  0  0  0  0  0  0  0  0  0  0  # atno 10765 bound_to 10752
  140.3262  134.2488  155.7709 H   0  0  0  0  0  0  0  0  0  0  0  0  # atno 11005 bound_to 11000
  146.2931  139.7196  142.9147 LP  0  0  0  0  0  0  0  0  0  0  0  0  # atno 17320 bound_to 7965
  145.4129  141.0398  143.3007 LP  0  0  0  0  0  0  0  0  0  0  0  0  # atno 17321 bound_to 7965
  139.6779  143.9905  152.2792 LP  0  0  0  0  0  0  0  0  0  0  0  0  # atno 17342 bound_to 10162
  139.9525  144.6611  150.8158 LP  0  0  0  0  0  0  0  0  0  0  0  0  # atno 17343 bound_to 10162
  157.5072  130.7916  149.7666 LP  0  0  0  0  0  0  0  0  0  0  0  0  # atno 17370 bound_to 10713
  156.0024  130.3873  150.2554 LP  0  0  0  0  0  0  0  0  0  0  0  0  # atno 17371 bound_to 10713
  141.2074  133.7805  157.0118 LP  0  0  0  0  0  0  0  0  0  0  0  0  # atno 17394 bound_to 11000
  140.0899  134.9598  157.1760 LP  0  0  0  0  0  0  0  0  0  0  0  0  # atno 17395 bound_to 11000

$$$$
