AV-unprocessed.smi:1547|AV-procd|sdf|6220|dock2
  -GOLD-   22720 6393D 1   1.00000     0.00000
 Structure written by MMmdl.
 40 41  0  0  0  0  0  0  0  0  2 V2000
  151.6827  141.5243  158.1163 C   0  0  0  0  0  0  0  0  0  0  0  0
  151.3875  140.7258  156.8810 C   0  0  0  0  0  0  0  0  0  0  0  0
  150.2383  140.8015  156.0415 C   0  0  0  0  0  0  0  0  0  0  0  0
  150.5029  139.8614  155.0832 C   0  0  0  0  0  0  0  0  0  0  0  0
  149.7506  139.4987  154.0102 N   0  0  0  0  0  0  0  0  0  0  0  0
  148.4218  139.3040  153.9444 C   0  0  0  0  0  0  0  0  0  0  0  0
  147.6367  139.3993  154.8882 O   0  0  0  0  0  0  0  0  0  0  0  0
  148.0369  138.9857  152.6999 N   0  0  0  0  0  0  0  0  0  0  0  0
  146.6615  138.7091  152.3020 C   0  0  0  0  0  0  0  0  0  0  0  0
  146.0728  137.5193  153.0833 C   0  0  0  0  0  0  0  0  0  0  0  0
  146.3029  136.2312  152.3894 N   0  3  0  0  0  0  0  0  0  0  0  0
  145.9006  135.0238  153.1526 C   0  0  0  0  0  0  0  0  0  0  0  0
  145.1537  134.1057  152.1763 C   0  0  0  0  0  0  0  0  0  0  0  0
  145.5017  134.6515  150.7955 C   0  0  0  0  0  0  0  0  0  0  0  0
  145.6710  136.1442  151.0570 C   0  0  0  0  0  0  0  0  0  0  0  0
  151.7243  139.2845  155.3515 N   0  0  0  0  0  0  0  0  0  0  0  0
  152.4313  138.2450  154.6288 C   0  0  0  0  0  0  0  0  0  0  0  0
  152.2668  139.8211  156.4659 N   0  0  0  0  0  0  0  0  0  0  0  0
  150.8929  142.2490  158.3151 H   0  0  0  0  0  0  0  0  0  0  0  0
  152.6187  142.0739  158.0149 H   0  0  0  0  0  0  0  0  0  0  0  0
  151.7669  140.8779  158.9902 H   0  0  0  0  0  0  0  0  0  0  0  0
  149.3780  141.4457  156.1438 H   0  0  0  0  0  0  0  0  0  0  0  0
  150.2642  139.3653  153.1516 H   0  0  0  0  0  0  0  0  0  0  0  0
  148.7438  138.9244  151.9813 H   0  0  0  0  0  0  0  0  0  0  0  0
  146.0678  139.6048  152.4862 H   0  0  0  0  0  0  0  0  0  0  0  0
  146.6261  138.5303  151.2261 H   0  0  0  0  0  0  0  0  0  0  0  0
  146.4886  137.4651  154.0907 H   0  0  0  0  0  0  0  0  0  0  0  0
  144.9978  137.6678  153.1967 H   0  0  0  0  0  0  0  0  0  0  0  0
  146.7988  134.5392  153.5366 H   0  0  0  0  0  0  0  0  0  0  0  0
  145.2662  135.2662  154.0069 H   0  0  0  0  0  0  0  0  0  0  0  0
  145.4236  133.0557  152.2943 H   0  0  0  0  0  0  0  0  0  0  0  0
  144.0791  134.1926  152.3422 H   0  0  0  0  0  0  0  0  0  0  0  0
  146.4443  134.2234  150.4517 H   0  0  0  0  0  0  0  0  0  0  0  0
  144.7382  134.4349  150.0477 H   0  0  0  0  0  0  0  0  0  0  0  0
  144.6907  136.6239  151.0807 H   0  0  0  0  0  0  0  0  0  0  0  0
  146.2711  136.6397  150.2932 H   0  0  0  0  0  0  0  0  0  0  0  0
  152.5014  138.5131  153.5744 H   0  0  0  0  0  0  0  0  0  0  0  0
  151.8911  137.3030  154.7228 H   0  0  0  0  0  0  0  0  0  0  0  0
  153.4389  138.1174  155.0269 H   0  0  0  0  0  0  0  0  0  0  0  0
  147.2967  136.1481  152.2301 H   0  0  0  0  0  0  0  0  0  0  0  0
  1  2  1  0  0  0  0
  1 19  1  0  0  0  0
  1 20  1  0  0  0  0
  1 21  1  0  0  0  0
  2 18  2  0  0  0  0
  2  3  1  0  0  0  0
  3  4  2  0  0  0  0
  3 22  1  0  0  0  0
  4  5  1  0  0  0  0
  4 16  1  0  0  0  0
  5  6  1  0  0  0  0
  5 23  1  0  0  0  0
  6  7  2  0  0  0  0
  6  8  1  0  0  0  0
  8  9  1  0  0  0  0
  8 24  1  0  0  0  0
  9 10  1  0  0  0  0
  9 25  1  0  0  0  0
  9 26  1  0  0  0  0
 10 11  1  0  0  0  0
 10 27  1  0  0  0  0
 10 28  1  0  0  0  0
 11 15  1  0  0  0  0
 11 12  1  0  0  0  0
 11 40  1  0  0  0  0
 12 13  1  0  0  0  0
 12 29  1  0  0  0  0
 12 30  1  0  0  0  0
 13 14  1  0  0  0  0
 13 31  1  0  0  0  0
 13 32  1  0  0  0  0
 14 15  1  0  0  0  0
 14 33  1  0  0  0  0
 14 34  1  0  0  0  0
 15 35  1  0  0  0  0
 15 36  1  0  0  0  0
 16 17  1  0  0  0  0
 16 18  1  0  0  0  0
 17 37  1  0  0  0  0
 17 38  1  0  0  0  0
 17 39  1  0  0  0  0
M  CHG  1  11   1
M  END
> <s_m_source_file>
AV-unprocessed.smi

> <i_m_source_file_index>
1547

> <i_lp_mmshare_version>
43012

> <i_f3d_flags>
0

> <s_epik_input>
W0NIM11jMVtjSF1jKG4objEpW0NIM10pW05IXUMoPU8pW05IXVtDSDJdW0NIMl1OMltDSDJdW0NIMl1bQ0gyXVtDSDJdMg==

> <s_epik_cmdline>
J2VwaWtfcHl0aG9uJywgJy1waCcsICc3LjAnLCAnLXRuJywgJzgnLCAnLW1hJywgJzIwMCcsICctbWV0YWxfYmluZGluZycsICctaW1hZScsICc8aW5maWxlLm1hZT4nLCAnLW9tYWUnLCAnPG91dGZpbGUubWFlPic=

> <r_lp_tautomer_probability>
1

> <r_epik_Ionization_Penalty>
0.00226577

> <r_epik_Ionization_Penalty_Charging>
0.00218899

> <r_epik_Ionization_Penalty_Neutral>
7.67743e-05

> <r_epik_State_Penalty>
0.00150446

> <r_epik_Charging_Adjusted_Penalty>
0.00369345

> <i_epik_Tot_Q>
1

> <i_epik_Tot_abs_Q>
1

> <r_epik_Metal_State_Penalty>
-0

> <b_epik_Metal_Only>
0

> <s_lp_Force_Field>
OPLS_2005

> <r_lp_Energy>
27.1917

> <b_lp_Chiralities_Consistent>
1

> <s_lp_Variant>
AV-unprocessed.smi:1547-1

> <Gold.Version>
5.8.1

> <Gold.Id.Protein>
6NUR|6NUR_protein|mol2

> <Gold.PLP.Fitness>
46.4539

> <Gold.PLP.PLP>
-34.4118

> <Gold.PLP.part.hbond>
-4.7084

> <Gold.PLP.part.metal>
0.0000

> <Gold.PLP.part.buried>
-2.1297

> <Gold.PLP.part.nonpolar>
-27.1863

> <Gold.PLP.part.repulsive>
0.3021

> <Gold.PLP.ligand.clash>
0.0000

> <Gold.PLP.ligand.torsion>
0.5405

> <Gold.PLP.Chemscore.Hbond>
4.3608

> <Gold.PLP.Chemscore.CHOScore>
0.0000

> <Gold.PLP.Chemscore.Metal>
0.0000

> <Gold.Chemscore.Hbonds>
donor molecule, donor type, donor heavy atom, donor atom, acceptor molecule, acceptor atom, score
      L1  H     5    23       P1  7957  0.32
      L1  H     8    24       P1  7957  0.69
      L1  H    11    40       P1  7948  2.00
      P1  H  7997  8008       L1    18  0.81

> <Gold.PLP.Chemscore.Internal.Correction>
0.0408

> <Gold.Rescore>
     Score         DG    S(hbond)    S(metal)    S(lipo)     H(rot)  DE(clash)    DE(int)     intcor
     20.08     -20.85       3.65        0.00      60.34       1.52       0.26       0.51       ----

> <Gold.Chemscore.Fitness>
20.0791

> <Gold.Chemscore.DG>
-20.8519

> <Gold.Chemscore.ZeroCoef>
-5.4800

> <Gold.Chemscore.Hbond>
3.6507

> <Gold.Chemscore.Metal>
0.0000

> <Gold.Chemscore.Lipo>
60.3373

> <Gold.Chemscore.Internal_Hbond>
0.0000

> <Gold.Chemscore.DEClash>
0.2606

> <Gold.Chemscore.DEInternal>
0.5123

> <Gold.Chemscore.Rot>
1.5160

> <Gold.Chemscore.Internal.Correction>
   9.000000E+99

> <Gold.Chemscore.Hbonds>
donor molecule, donor type, donor heavy atom, donor atom, acceptor molecule, acceptor atom, score
      L1  H     5    23       P1  7957  0.30
      L1  H     8    24       P1  7957  0.61
      L1  H    11    40       P1  7948  1.00
      P1  H  7997  8008       L1    18  0.66

> <Gold.Chemscore.Hbond.Weighted>
-12.1934

> <Gold.Chemscore.Metal.Weighted>
-0.0000

> <Gold.Chemscore.Lipo.Weighted>
-7.0595

> <Gold.Chemscore.Internal_Hbond.Weighted>
0.0000

> <Gold.Chemscore.DEClash.Weighted>
0.2606

> <Gold.Chemscore.DEInternal.Weighted>
0.5123

> <Gold.Chemscore.Rot.Weighted>
3.8809

> <Gold.Chemscore.Internal.Correction.Weighted>
   9.000000E+99

> <Gold.Protein.RotatedTorsions>
[ 6907 6896 6895 6894 ] final  -96.60 input  -60.11 | X-H torsion
[ 7974 7965 7964 7962 ] final    8.49 input  175.53 | X-H torsion
[ 8008 7997 7996 7995 ] final  -38.17 input   59.86 | X-H torsion
[ 10167 10162 10161 10158 ] final  123.80 input  -65.29 | X-H torsion
[ 10718 10713 10712 10709 ] final   78.81 input   66.30 | X-H torsion
[ 10763 10752 10751 10750 ] final  -50.47 input  -60.55 | X-H torsion
[ 11005 11000 10999 10996 ] final  138.25 input  -57.11 | X-H torsion

> <Gold.Protein.ActiveResidues>
 VAL166  LYS551  ARG553  GLY616  TRP617  ASP618  TYR619  PRO620  LYS621  CYS622 
 ASP623  PHE694  ASN695  SER759  ASP760  ASP761  ALA762  ILE779  LEU786  VAL792 
 PHE793  MET794  SER795  GLU796  ALA797  LYS798  CYS799  TRP800  GLU811  SER814 

> <Gold.Protein.RotatedAtoms>
  150.6993  134.1478  159.4128 H   0  0  0  0  0  0  0  0  0  0  0  0  # atno 6907 bound_to 6896
  151.9462  135.0188  160.0548 H   0  0  0  0  0  0  0  0  0  0  0  0  # atno 6908 bound_to 6896
  152.2051  133.4834  159.5116 H   0  0  0  0  0  0  0  0  0  0  0  0  # atno 6909 bound_to 6896
  146.2415  139.9925  142.8424 H   0  0  0  0  0  0  0  0  0  0  0  0  # atno 7974 bound_to 7965
  154.4041  140.1585  156.2656 H   0  0  0  0  0  0  0  0  0  0  0  0  # atno 8008 bound_to 7997
  155.8998  140.3434  155.5995 H   0  0  0  0  0  0  0  0  0  0  0  0  # atno 8009 bound_to 7997
  155.7461  140.0799  157.2213 H   0  0  0  0  0  0  0  0  0  0  0  0  # atno 8010 bound_to 7997
  139.5778  144.6972  151.3606 H   0  0  0  0  0  0  0  0  0  0  0  0  # atno 10167 bound_to 10162
  157.6757  130.9885  150.1841 H   0  0  0  0  0  0  0  0  0  0  0  0  # atno 10718 bound_to 10713
  154.1108  135.6549  153.4885 H   0  0  0  0  0  0  0  0  0  0  0  0  # atno 10763 bound_to 10752
  153.0257  135.5247  154.7193 H   0  0  0  0  0  0  0  0  0  0  0  0  # atno 10764 bound_to 10752
  154.6373  135.2984  155.0115 H   0  0  0  0  0  0  0  0  0  0  0  0  # atno 10765 bound_to 10752
  140.0171  134.9413  157.0398 H   0  0  0  0  0  0  0  0  0  0  0  0  # atno 11005 bound_to 11000
  145.1490  140.9613  143.4444 LP  0  0  0  0  0  0  0  0  0  0  0  0  # atno 17320 bound_to 7965
  145.0223  139.3413  143.6066 LP  0  0  0  0  0  0  0  0  0  0  0  0  # atno 17321 bound_to 7965
  140.7060  143.7513  150.7482 LP  0  0  0  0  0  0  0  0  0  0  0  0  # atno 17342 bound_to 10162
  140.1038  143.4763  152.2410 LP  0  0  0  0  0  0  0  0  0  0  0  0  # atno 17343 bound_to 10162
  156.2567  130.3706  149.8174 LP  0  0  0  0  0  0  0  0  0  0  0  0  # atno 17370 bound_to 10713
  156.5932  130.8515  151.3413 LP  0  0  0  0  0  0  0  0  0  0  0  0  # atno 17371 bound_to 10713
  140.4452  134.1639  155.7177 LP  0  0  0  0  0  0  0  0  0  0  0  0  # atno 17394 bound_to 11000
  141.1750  133.8533  157.1451 LP  0  0  0  0  0  0  0  0  0  0  0  0  # atno 17395 bound_to 11000

$$$$
