AV-unprocessed.smi:2061|AV-procd|sdf|8367|dock7
  -GOLD-   2272011 43D 1   1.00000     0.00000
 Structure written by MMmdl.
 46 47  0  0  0  0  0  0  0  0  2 V2000
  150.1385  142.2753  157.8455 C   0  0  0  0  0  0  0  0  0  0  0  0
  150.0614  141.4644  156.5977 C   0  0  0  0  0  0  0  0  0  0  0  0
  149.0297  141.1375  155.7632 C   0  0  0  0  0  0  0  0  0  0  0  0
  149.6610  140.3401  154.7718 C   0  0  0  0  0  0  0  0  0  0  0  0
  148.9149  139.7874  153.7000 N   0  0  0  0  0  0  0  0  0  0  0  0
  147.8280  139.0012  153.7785 C   0  0  0  0  0  0  0  0  0  0  0  0
  147.3117  138.6029  154.8228 O   0  0  0  0  0  0  0  0  0  0  0  0
  147.3542  138.7009  152.5605 N   0  0  0  0  0  0  0  0  0  0  0  0
  146.1651  137.8936  152.3018 C   0  0  0  0  0  0  0  0  0  0  0  0
  146.0482  136.6554  153.2339 C   0  0  1  0  0  0  0  0  0  0  0  0
  144.6150  136.5602  153.8142 C   0  0  0  0  0  0  0  0  0  0  0  0
  146.4792  135.4096  152.5166 N   0  3  1  0  0  0  0  0  0  0  0  0
  146.9233  134.3335  153.4446 C   0  0  0  0  0  0  0  0  0  0  0  0
  147.4428  133.1087  152.6698 C   0  0  1  0  0  0  0  0  0  0  0  0
  147.8524  131.9643  153.6036 C   0  0  0  0  0  0  0  0  0  0  0  0
  146.4115  132.6336  151.8160 O   0  0  0  0  0  0  0  0  0  0  0  0
  146.0311  133.5996  150.8463 C   0  0  1  0  0  0  0  0  0  0  0  0
  144.9887  132.9587  149.9231 C   0  0  0  0  0  0  0  0  0  0  0  0
  145.4841  134.8522  151.5585 C   0  0  0  0  0  0  0  0  0  0  0  0
  150.9603  140.1940  154.9809 N   0  0  0  0  0  0  0  0  0  0  0  0
  151.2237  140.9142  156.1524 O   0  0  0  0  0  0  0  0  0  0  0  0
  149.1547  142.6512  158.1271 H   0  0  0  0  0  0  0  0  0  0  0  0
  150.8010  143.1303  157.7100 H   0  0  0  0  0  0  0  0  0  0  0  0
  150.5211  141.6772  158.6727 H   0  0  0  0  0  0  0  0  0  0  0  0
  147.9921  141.4231  155.8521 H   0  0  0  0  0  0  0  0  0  0  0  0
  149.2324  140.0334  152.7741 H   0  0  0  0  0  0  0  0  0  0  0  0
  147.8429  139.0645  151.7554 H   0  0  0  0  0  0  0  0  0  0  0  0
  145.2924  138.5346  152.4314 H   0  0  0  0  0  0  0  0  0  0  0  0
  146.1828  137.6167  151.2489 H   0  0  0  0  0  0  0  0  0  0  0  0
  146.7223  136.7891  154.0814 H   0  0  0  0  0  0  0  0  0  0  0  0
  144.3077  137.4885  154.2951 H   0  0  0  0  0  0  0  0  0  0  0  0
  144.5353  135.7958  154.5871 H   0  0  0  0  0  0  0  0  0  0  0  0
  143.8838  136.3388  153.0360 H   0  0  0  0  0  0  0  0  0  0  0  0
  147.7188  134.6814  154.1003 H   0  0  0  0  0  0  0  0  0  0  0  0
  146.0904  134.0431  154.0876 H   0  0  0  0  0  0  0  0  0  0  0  0
  148.3094  133.3919  152.0693 H   0  0  0  0  0  0  0  0  0  0  0  0
  148.6526  132.2735  154.2767 H   0  0  0  0  0  0  0  0  0  0  0  0
  148.2111  131.1067  153.0340 H   0  0  0  0  0  0  0  0  0  0  0  0
  147.0119  131.6312  154.2134 H   0  0  0  0  0  0  0  0  0  0  0  0
  146.9027  133.8701  150.2473 H   0  0  0  0  0  0  0  0  0  0  0  0
  144.6669  133.6554  149.1486 H   0  0  0  0  0  0  0  0  0  0  0  0
  144.1053  132.6466  150.4809 H   0  0  0  0  0  0  0  0  0  0  0  0
  145.3971  132.0775  149.4275 H   0  0  0  0  0  0  0  0  0  0  0  0
  144.5615  134.6143  152.0910 H   0  0  0  0  0  0  0  0  0  0  0  0
  145.2397  135.5811  150.7866 H   0  0  0  0  0  0  0  0  0  0  0  0
  147.2820  135.6675  151.9605 H   0  0  0  0  0  0  0  0  0  0  0  0
  1  2  1  0  0  0  0
  1 22  1  0  0  0  0
  1 23  1  0  0  0  0
  1 24  1  0  0  0  0
  2 21  1  0  0  0  0
  2  3  2  0  0  0  0
  3  4  1  0  0  0  0
  3 25  1  0  0  0  0
  4  5  1  0  0  0  0
  4 20  2  0  0  0  0
  5  6  1  0  0  0  0
  5 26  1  0  0  0  0
  6  7  2  0  0  0  0
  6  8  1  0  0  0  0
  8  9  1  0  0  0  0
  8 27  1  0  0  0  0
  9 10  1  0  0  0  0
  9 28  1  0  0  0  0
  9 29  1  0  0  0  0
 10 11  1  0  0  0  0
 10 12  1  0  0  0  0
 10 30  1  0  0  0  0
 11 31  1  0  0  0  0
 11 32  1  0  0  0  0
 11 33  1  0  0  0  0
 12 19  1  0  0  0  0
 12 13  1  0  0  0  0
 12 46  1  0  0  0  0
 13 14  1  0  0  0  0
 13 34  1  0  0  0  0
 13 35  1  0  0  0  0
 14 15  1  0  0  0  0
 14 16  1  0  0  0  0
 14 36  1  0  0  0  0
 15 37  1  0  0  0  0
 15 38  1  0  0  0  0
 15 39  1  0  0  0  0
 16 17  1  0  0  0  0
 17 18  1  0  0  0  0
 17 19  1  0  0  0  0
 17 40  1  0  0  0  0
 18 41  1  0  0  0  0
 18 42  1  0  0  0  0
 18 43  1  0  0  0  0
 19 44  1  0  0  0  0
 19 45  1  0  0  0  0
 20 21  1  0  0  0  0
M  CHG  1  12   1
M  END
> <s_m_source_file>
AV-unprocessed.smi

> <i_m_source_file_index>
2061

> <i_lp_mmshare_version>
43012

> <i_f3d_flags>
0

> <s_epik_input>
W0NIM11jMVtjSF1jKG5vMSlbTkhdQyg9TylbTkhdW0NIMl1bQ0BIXShbQ0gzXSlOMltDSDJdW0NAQEhdKFtDSDNdKU9bQ0BASF0oW0NIM10pW0NIMl0y

> <s_epik_cmdline>
J2VwaWtfcHl0aG9uJywgJy1waCcsICc3LjAnLCAnLXRuJywgJzgnLCAnLW1hJywgJzIwMCcsICctbWV0YWxfYmluZGluZycsICctaW1hZScsICc8aW5maWxlLm1hZT4nLCAnLW9tYWUnLCAnPG91dGZpbGUubWFlPic=

> <r_epik_Ionization_Penalty>
0.707076

> <r_epik_Ionization_Penalty_Charging>
0.707039

> <r_epik_Ionization_Penalty_Neutral>
3.6548e-05

> <r_epik_State_Penalty>
0.730276

> <r_epik_Charging_Adjusted_Penalty>
1.43732

> <i_epik_Tot_Q>
1

> <i_epik_Tot_abs_Q>
1

> <r_epik_Metal_State_Penalty>
0.743132

> <b_epik_Metal_Only>
0

> <s_lp_Force_Field>
OPLS_2005

> <r_lp_Energy>
16.4142

> <b_lp_Chiralities_Consistent>
1

> <s_lp_Variant>
AV-unprocessed.smi:2061-8

> <Gold.Version>
5.8.1

> <Gold.Id.Protein>
6NUR|6NUR_protein|mol2

> <Gold.PLP.Fitness>
43.8279

> <Gold.PLP.PLP>
-32.3850

> <Gold.PLP.part.hbond>
-5.0143

> <Gold.PLP.part.metal>
0.0000

> <Gold.PLP.part.buried>
-3.6188

> <Gold.PLP.part.nonpolar>
-24.0357

> <Gold.PLP.part.repulsive>
0.5011

> <Gold.PLP.ligand.clash>
0.0000

> <Gold.PLP.ligand.torsion>
1.5994

> <Gold.PLP.Chemscore.Hbond>
4.8640

> <Gold.PLP.Chemscore.CHOScore>
0.0000

> <Gold.PLP.Chemscore.Metal>
0.0000

> <Gold.Chemscore.Hbonds>
donor molecule, donor type, donor heavy atom, donor atom, acceptor molecule, acceptor atom, score
      L1  H     5    26       P1  7957  1.00
      L1  H     8    27       P1  7957  0.82
      L1  H    12    46       P1  7948  2.00
      P1  H  7989  7998       L1    20  1.00

> <Gold.PLP.Chemscore.Internal.Correction>
0.0498

> <Gold.Rescore>
     Score         DG    S(hbond)    S(metal)    S(lipo)     H(rot)  DE(clash)    DE(int)     intcor
     17.39     -20.28       3.49        0.00      61.47       1.58       0.08       2.80       ----

> <Gold.Chemscore.Fitness>
17.3871

> <Gold.Chemscore.DG>
-20.2763

> <Gold.Chemscore.ZeroCoef>
-5.4800

> <Gold.Chemscore.Hbond>
3.4904

> <Gold.Chemscore.Metal>
0.0000

> <Gold.Chemscore.Lipo>
61.4672

> <Gold.Chemscore.Internal_Hbond>
0.0000

> <Gold.Chemscore.DEClash>
0.0845

> <Gold.Chemscore.DEInternal>
2.8047

> <Gold.Chemscore.Rot>
1.5834

> <Gold.Chemscore.Internal.Correction>
   9.000000E+99

> <Gold.Chemscore.Hbonds>
donor molecule, donor type, donor heavy atom, donor atom, acceptor molecule, acceptor atom, score
      L1  H     5    26       P1  7957  1.00
      L1  H     8    27       P1  7957  0.73
      L1  H    12    46       P1  7948  0.95
      P1  H  7989  7998       L1    20  0.31

> <Gold.Chemscore.Hbond.Weighted>
-11.6581

> <Gold.Chemscore.Metal.Weighted>
-0.0000

> <Gold.Chemscore.Lipo.Weighted>
-7.1917

> <Gold.Chemscore.Internal_Hbond.Weighted>
0.0000

> <Gold.Chemscore.DEClash.Weighted>
0.0845

> <Gold.Chemscore.DEInternal.Weighted>
2.8047

> <Gold.Chemscore.Rot.Weighted>
4.0535

> <Gold.Chemscore.Internal.Correction.Weighted>
   9.000000E+99

> <Gold.Protein.RotatedTorsions>
[ 6907 6896 6895 6894 ] final -114.91 input  -60.11 | X-H torsion
[ 7974 7965 7964 7962 ] final   94.90 input  175.53 | X-H torsion
[ 8008 7997 7996 7995 ] final  159.58 input   59.86 | X-H torsion
[ 10167 10162 10161 10158 ] final  132.62 input  -65.29 | X-H torsion
[ 10718 10713 10712 10709 ] final  -70.69 input   66.30 | X-H torsion
[ 10763 10752 10751 10750 ] final  -92.95 input  -60.55 | X-H torsion
[ 11005 11000 10999 10996 ] final -124.77 input  -57.11 | X-H torsion

> <Gold.Protein.ActiveResidues>
 VAL166  LYS551  ARG553  GLY616  TRP617  ASP618  TYR619  PRO620  LYS621  CYS622 
 ASP623  PHE694  ASN695  SER759  ASP760  ASP761  ALA762  ILE779  LEU786  VAL792 
 PHE793  MET794  SER795  GLU796  ALA797  LYS798  CYS799  TRP800  GLU811  SER814 

> <Gold.Protein.RotatedAtoms>
  150.7938  133.8733  159.3264 H   0  0  0  0  0  0  0  0  0  0  0  0  # atno 6907 bound_to 6896
  151.6564  135.0993  160.0180 H   0  0  0  0  0  0  0  0  0  0  0  0  # atno 6908 bound_to 6896
  152.4016  133.6787  159.6356 H   0  0  0  0  0  0  0  0  0  0  0  0  # atno 6909 bound_to 6896
  145.4594  139.2288  143.2996 H   0  0  0  0  0  0  0  0  0  0  0  0  # atno 7974 bound_to 7965
  156.2229  140.1827  156.7432 H   0  0  0  0  0  0  0  0  0  0  0  0  # atno 8008 bound_to 7997
  154.5895  140.0653  156.9247 H   0  0  0  0  0  0  0  0  0  0  0  0  # atno 8009 bound_to 7997
  155.2361  140.3318  155.4300 H   0  0  0  0  0  0  0  0  0  0  0  0  # atno 8010 bound_to 7997
  139.5332  144.6653  151.4878 H   0  0  0  0  0  0  0  0  0  0  0  0  # atno 10167 bound_to 10162
  156.0396  130.4336  150.2333 H   0  0  0  0  0  0  0  0  0  0  0  0  # atno 10718 bound_to 10713
  154.6911  135.5212  153.8393 H   0  0  0  0  0  0  0  0  0  0  0  0  # atno 10763 bound_to 10752
  153.0633  135.6576  154.0422 H   0  0  0  0  0  0  0  0  0  0  0  0  # atno 10764 bound_to 10752
  154.0296  135.2986  155.3350 H   0  0  0  0  0  0  0  0  0  0  0  0  # atno 10765 bound_to 10752
  140.9815  134.0667  157.3760 H   0  0  0  0  0  0  0  0  0  0  0  0  # atno 11005 bound_to 11000
  146.2460  140.5361  142.8914 LP  0  0  0  0  0  0  0  0  0  0  0  0  # atno 17320 bound_to 7965
  144.8012  140.6217  143.6477 LP  0  0  0  0  0  0  0  0  0  0  0  0  # atno 17321 bound_to 7965
  140.6522  143.8672  150.6798 LP  0  0  0  0  0  0  0  0  0  0  0  0  # atno 17342 bound_to 10162
  140.2041  143.3936  152.1769 LP  0  0  0  0  0  0  0  0  0  0  0  0  # atno 17343 bound_to 10162
  157.0430  131.0040  151.3278 LP  0  0  0  0  0  0  0  0  0  0  0  0  # atno 17370 bound_to 10713
  157.5196  130.7989  149.7794 LP  0  0  0  0  0  0  0  0  0  0  0  0  # atno 17371 bound_to 10713
  139.8952  135.0140  156.6990 LP  0  0  0  0  0  0  0  0  0  0  0  0  # atno 17394 bound_to 11000
  140.7179  133.9166  155.8127 LP  0  0  0  0  0  0  0  0  0  0  0  0  # atno 17395 bound_to 11000

$$$$
