AV-unprocessed.smi:862|AV-procd|sdf|3983|dock7
  -GOLD-   22720 1463D 1   1.00000     0.00000
 Structure written by MMmdl.
 45 47  0  0  0  0  0  0  0  0  3 V2000
  151.9224  144.6786  161.8901 N   0  0  0  0  0  0  0  0  0  0  0  0
  152.1500  143.4423  161.4362 C   0  0  0  0  0  0  0  0  0  0  0  0
  152.0363  142.4660  162.1751 O   0  0  0  0  0  0  0  0  0  0  0  0
  152.4638  143.3572  160.1186 N   0  0  0  0  0  0  0  0  0  0  0  0
  152.9308  142.1517  159.4135 C   0  0  0  0  0  0  0  0  0  0  0  0
  151.7830  141.6063  158.5436 C   0  0  0  0  0  0  0  0  0  0  0  0
  151.2737  142.6791  157.5532 C   0  0  0  0  0  0  0  0  0  0  0  0
  150.0739  142.2150  156.8200 N   0  3  0  0  0  0  0  0  0  0  0  0
  150.3217  141.3560  155.6378 C   0  0  1  0  0  0  0  0  0  0  0  0
  151.5527  140.4564  155.7807 C   0  0  0  0  0  0  0  0  0  0  0  0
  151.3286  139.3190  154.7788 C   0  0  0  0  0  0  0  0  0  0  0  0
  149.8094  139.2153  154.5721 C   0  0  0  0  0  0  0  0  0  0  0  0
  149.1867  140.3447  155.4120 C   0  0  2  0  0  0  0  0  0  0  0  0
  147.9726  140.9254  154.8146 N   0  0  0  0  0  0  0  0  0  0  0  0
  147.7830  142.2348  154.4507 C   0  0  0  0  0  0  0  0  0  0  0  0
  146.5119  142.3232  153.9442 C   0  0  0  0  0  0  0  0  0  0  0  0
  145.9768  141.0657  154.0188 N   0  3  0  0  0  0  0  0  0  0  0  0
  146.8648  140.2175  154.5470 C   0  0  0  0  0  0  0  0  0  0  0  0
  150.9566  143.9932  158.2967 C   0  0  0  0  0  0  0  0  0  0  0  0
  152.1414  144.4344  159.1746 C   0  0  0  0  0  0  0  0  0  0  0  0
  151.6747  144.8160  162.8592 H   0  0  0  0  0  0  0  0  0  0  0  0
  151.9893  145.4681  161.2646 H   0  0  0  0  0  0  0  0  0  0  0  0
  153.7830  142.4138  158.7845 H   0  0  0  0  0  0  0  0  0  0  0  0
  153.2930  141.3659  160.0760 H   0  0  0  0  0  0  0  0  0  0  0  0
  152.1271  140.7201  158.0127 H   0  0  0  0  0  0  0  0  0  0  0  0
  150.9662  141.2802  159.1894 H   0  0  0  0  0  0  0  0  0  0  0  0
  152.0670  142.8969  156.8360 H   0  0  0  0  0  0  0  0  0  0  0  0
  149.4531  141.7443  157.4630 H   0  0  0  0  0  0  0  0  0  0  0  0
  150.4381  141.9802  154.7504 H   0  0  0  0  0  0  0  0  0  0  0  0
  152.4862  140.9868  155.5911 H   0  0  0  0  0  0  0  0  0  0  0  0
  151.6009  140.0437  156.7898 H   0  0  0  0  0  0  0  0  0  0  0  0
  151.8111  139.5595  153.8304 H   0  0  0  0  0  0  0  0  0  0  0  0
  151.7599  138.3819  155.1329 H   0  0  0  0  0  0  0  0  0  0  0  0
  149.5811  139.3183  153.5105 H   0  0  0  0  0  0  0  0  0  0  0  0
  149.4287  138.2426  154.8864 H   0  0  0  0  0  0  0  0  0  0  0  0
  148.9022  139.9212  156.3775 H   0  0  0  0  0  0  0  0  0  0  0  0
  148.5442  142.9914  154.5783 H   0  0  0  0  0  0  0  0  0  0  0  0
  145.9616  143.1652  153.5492 H   0  0  0  0  0  0  0  0  0  0  0  0
  146.7111  139.1682  154.7272 H   0  0  0  0  0  0  0  0  0  0  0  0
  150.7151  144.7796  157.5807 H   0  0  0  0  0  0  0  0  0  0  0  0
  150.0734  143.8639  158.9247 H   0  0  0  0  0  0  0  0  0  0  0  0
  151.9062  145.3746  159.6756 H   0  0  0  0  0  0  0  0  0  0  0  0
  153.0136  144.6432  158.5536 H   0  0  0  0  0  0  0  0  0  0  0  0
  149.6064  143.0435  156.4808 H   0  0  0  0  0  0  0  0  0  0  0  0
  145.0418  140.8130  153.7231 H   0  0  0  0  0  0  0  0  0  0  0  0
  1  2  1  0  0  0  0
  1 21  1  0  0  0  0
  1 22  1  0  0  0  0
  2  3  2  0  0  0  0
  2  4  1  0  0  0  0
  4 20  1  0  0  0  0
  4  5  1  0  0  0  0
  5  6  1  0  0  0  0
  5 23  1  0  0  0  0
  5 24  1  0  0  0  0
  6  7  1  0  0  0  0
  6 25  1  0  0  0  0
  6 26  1  0  0  0  0
  7  8  1  0  0  0  0
  7 19  1  0  0  0  0
  7 27  1  0  0  0  0
  8  9  1  0  0  0  0
  8 28  1  0  0  0  0
  8 44  1  0  0  0  0
  9 13  1  0  0  0  0
  9 10  1  0  0  0  0
  9 29  1  0  0  0  0
 10 11  1  0  0  0  0
 10 30  1  0  0  0  0
 10 31  1  0  0  0  0
 11 12  1  0  0  0  0
 11 32  1  0  0  0  0
 11 33  1  0  0  0  0
 12 13  1  0  0  0  0
 12 34  1  0  0  0  0
 12 35  1  0  0  0  0
 13 14  1  0  0  0  0
 13 36  1  0  0  0  0
 14 18  1  0  0  0  0
 14 15  1  0  0  0  0
 15 16  2  0  0  0  0
 15 37  1  0  0  0  0
 16 17  1  0  0  0  0
 16 38  1  0  0  0  0
 17 18  2  0  0  0  0
 17 45  1  0  0  0  0
 18 39  1  0  0  0  0
 19 20  1  0  0  0  0
 19 40  1  0  0  0  0
 19 41  1  0  0  0  0
 20 42  1  0  0  0  0
 20 43  1  0  0  0  0
M  CHG  1   8   1
M  CHG  1  17   1
M  END
> <s_m_source_file>
AV-unprocessed.smi

> <i_m_source_file_index>
862

> <i_lp_mmshare_version>
43012

> <i_f3d_flags>
0

> <s_epik_input>
W05IMl1DKD1PKU4xW0NIMl1bQ0gyXVtDSF0oW0NIMl1bQ0gyXTEpW05IXVtDQEBIXTJbQ0gyXVtDSDJdW0NIMl1bQ0BIXTJuM1tjSF1bY0hdbltjSF0z

> <s_epik_cmdline>
J2VwaWtfcHl0aG9uJywgJy1waCcsICc3LjAnLCAnLXRuJywgJzgnLCAnLW1hJywgJzIwMCcsICctbWV0YWxfYmluZGluZycsICctaW1hZScsICc8aW5maWxlLm1hZT4nLCAnLW9tYWUnLCAnPG91dGZpbGUubWFlPic=

> <r_lp_tautomer_probability>
1

> <r_epik_Ionization_Penalty>
1.30217

> <r_epik_Ionization_Penalty_Charging>
0.00439521

> <r_epik_Ionization_Penalty_Neutral>
1.29777

> <r_epik_State_Penalty>
0.977606

> <r_epik_Charging_Adjusted_Penalty>
0.982001

> <i_epik_Tot_Q>
2

> <i_epik_Tot_abs_Q>
2

> <r_epik_Metal_State_Penalty>
1.03289

> <b_epik_Metal_Only>
0

> <s_lp_Force_Field>
OPLS_2005

> <r_lp_Energy>
66.2462

> <b_lp_Chiralities_Consistent>
1

> <s_lp_Variant>
AV-unprocessed.smi:862-8

> <Gold.Version>
5.8.1

> <Gold.Id.Protein>
6NUR|6NUR_protein|mol2

> <Gold.PLP.Fitness>
62.9239

> <Gold.PLP.PLP>
-47.4454

> <Gold.PLP.part.hbond>
-4.0313

> <Gold.PLP.part.metal>
0.0000

> <Gold.PLP.part.buried>
-3.5055

> <Gold.PLP.part.nonpolar>
-41.8469

> <Gold.PLP.part.repulsive>
0.5226

> <Gold.PLP.ligand.clash>
0.5379

> <Gold.PLP.ligand.torsion>
0.7316

> <Gold.PLP.Chemscore.Hbond>
4.8125

> <Gold.PLP.Chemscore.CHOScore>
1.0000

> <Gold.PLP.Chemscore.Metal>
0.0000

> <Gold.Chemscore.Hbonds>
donor molecule, donor type, donor heavy atom, donor atom, acceptor molecule, acceptor atom, score
      L1  H     8    44       P1  8028  2.00
      L1  H    17    45       P1 10175  2.00
      P1  H  6933  6945       L1     3  0.80
      L1  C    15    37       P1  8028  1.00

> <Gold.PLP.Chemscore.Internal.Correction>
0.0421

> <Gold.Rescore>
     Score         DG    S(hbond)    S(metal)    S(lipo)     H(rot)  DE(clash)    DE(int)     intcor
     16.64     -20.06       2.62        0.00      86.52       1.68       1.14       2.28       ----

> <Gold.Chemscore.Fitness>
16.6446

> <Gold.Chemscore.DG>
-20.0602

> <Gold.Chemscore.ZeroCoef>
-5.4800

> <Gold.Chemscore.Hbond>
2.6233

> <Gold.Chemscore.Metal>
0.0000

> <Gold.Chemscore.Lipo>
86.5203

> <Gold.Chemscore.Internal_Hbond>
0.0000

> <Gold.Chemscore.DEClash>
1.1359

> <Gold.Chemscore.DEInternal>
2.2797

> <Gold.Chemscore.Rot>
1.6814

> <Gold.Chemscore.Internal.Correction>
   9.000000E+99

> <Gold.Chemscore.Hbonds>
donor molecule, donor type, donor heavy atom, donor atom, acceptor molecule, acceptor atom, score
      L1  H     8    44       P1  8028  0.96
      L1  H    17    45       P1 10175  0.91
      P1  H  6933  6945       L1     3  0.61

> <Gold.Chemscore.Hbond.Weighted>
-8.7617

> <Gold.Chemscore.Metal.Weighted>
-0.0000

> <Gold.Chemscore.Lipo.Weighted>
-10.1229

> <Gold.Chemscore.Internal_Hbond.Weighted>
0.0000

> <Gold.Chemscore.DEClash.Weighted>
1.1359

> <Gold.Chemscore.DEInternal.Weighted>
2.2797

> <Gold.Chemscore.Rot.Weighted>
4.3043

> <Gold.Chemscore.Internal.Correction.Weighted>
   9.000000E+99

> <Gold.Protein.RotatedTorsions>
[ 6907 6896 6895 6894 ] final -152.19 input  -60.11 | X-H torsion
[ 7974 7965 7964 7962 ] final   97.60 input  175.53 | X-H torsion
[ 8008 7997 7996 7995 ] final  134.88 input   59.86 | X-H torsion
[ 10167 10162 10161 10158 ] final -155.18 input  -65.29 | X-H torsion
[ 10718 10713 10712 10709 ] final   41.77 input   66.30 | X-H torsion
[ 10763 10752 10751 10750 ] final -174.03 input  -60.55 | X-H torsion
[ 11005 11000 10999 10996 ] final  165.44 input  -57.11 | X-H torsion

> <Gold.Protein.ActiveResidues>
 VAL166  LYS551  ARG553  GLY616  TRP617  ASP618  TYR619  PRO620  LYS621  CYS622 
 ASP623  PHE694  ASN695  SER759  ASP760  ASP761  ALA762  ILE779  LEU786  VAL792 
 PHE793  MET794  SER795  GLU796  ALA797  LYS798  CYS799  TRP800  GLU811  SER814 

> <Gold.Protein.RotatedAtoms>
  151.2241  133.4486  159.2601 H   0  0  0  0  0  0  0  0  0  0  0  0  # atno 6907 bound_to 6896
  151.0856  134.9885  159.8388 H   0  0  0  0  0  0  0  0  0  0  0  0  # atno 6908 bound_to 6896
  152.5429  134.2178  159.8828 H   0  0  0  0  0  0  0  0  0  0  0  0  # atno 6909 bound_to 6896
  145.4233  139.2319  143.3184 H   0  0  0  0  0  0  0  0  0  0  0  0  # atno 7974 bound_to 7965
  156.3001  140.2485  156.3489 H   0  0  0  0  0  0  0  0  0  0  0  0  # atno 8008 bound_to 7997
  154.8984  140.0407  157.1898 H   0  0  0  0  0  0  0  0  0  0  0  0  # atno 8009 bound_to 7997
  154.8526  140.2908  155.5593 H   0  0  0  0  0  0  0  0  0  0  0  0  # atno 8010 bound_to 7997
  139.6952  143.9353  152.2404 H   0  0  0  0  0  0  0  0  0  0  0  0  # atno 10167 bound_to 10162
  157.3974  130.7840  149.7319 H   0  0  0  0  0  0  0  0  0  0  0  0  # atno 10718 bound_to 10713
  154.6009  135.2854  155.0536 H   0  0  0  0  0  0  0  0  0  0  0  0  # atno 10763 bound_to 10752
  154.1801  135.6458  153.5036 H   0  0  0  0  0  0  0  0  0  0  0  0  # atno 10764 bound_to 10752
  153.0156  135.5421  154.6728 H   0  0  0  0  0  0  0  0  0  0  0  0  # atno 10765 bound_to 10752
  140.2561  134.7939  157.3547 H   0  0  0  0  0  0  0  0  0  0  0  0  # atno 11005 bound_to 11000
  146.2645  140.4960  142.8840 LP  0  0  0  0  0  0  0  0  0  0  0  0  # atno 17320 bound_to 7965
  144.8231  140.6583  143.6340 LP  0  0  0  0  0  0  0  0  0  0  0  0  # atno 17321 bound_to 7965
  139.9181  144.6816  150.8491 LP  0  0  0  0  0  0  0  0  0  0  0  0  # atno 17342 bound_to 10162
  140.7694  143.3395  151.2238 LP  0  0  0  0  0  0  0  0  0  0  0  0  # atno 17343 bound_to 10162
  155.9814  130.4020  150.3474 LP  0  0  0  0  0  0  0  0  0  0  0  0  # atno 17370 bound_to 10713
  157.1598  131.0342  151.2846 LP  0  0  0  0  0  0  0  0  0  0  0  0  # atno 17371 bound_to 10713
  140.1510  134.4850  155.7961 LP  0  0  0  0  0  0  0  0  0  0  0  0  # atno 17394 bound_to 11000
  141.2196  133.6862  156.7378 LP  0  0  0  0  0  0  0  0  0  0  0  0  # atno 17395 bound_to 11000

$$$$
