AV-unprocessed.smi:2171|AV-procd|sdf|8827|dock9
  -GOLD-   2272012 23D 1   1.00000     0.00000
 Structure written by MMmdl.
 39 41  0  0  0  0  0  0  0  0  2 V2000
  152.8315  139.7286  156.4404 O   0  0  0  0  0  0  0  0  0  0  0  0
  151.8803  139.9712  157.1826 C   0  0  0  0  0  0  0  0  0  0  0  0
  152.1082  140.1983  158.6763 C   0  0  0  0  0  0  0  0  0  0  0  0
  152.1907  141.6185  158.9681 N   0  0  0  0  0  0  0  0  0  0  0  0
  152.6796  142.2315  160.1029 C   0  0  0  0  0  0  0  0  0  0  0  0
  152.5733  143.5797  159.9142 C   0  0  0  0  0  0  0  0  0  0  0  0
  152.0017  143.6960  158.6162 C   0  0  0  0  0  0  0  0  0  0  0  0
  151.7758  142.5210  158.0511 N   0  0  0  0  0  0  0  0  0  0  0  0
  150.6156  140.0868  156.7505 N   0  0  0  0  0  0  0  0  0  0  0  0
  150.2054  140.0426  155.3512 C   0  0  1  0  0  0  0  0  0  0  0  0
  149.5314  138.7210  154.9579 C   0  0  0  0  0  0  0  0  0  0  0  0
  148.4945  139.1020  153.8858 C   0  0  0  0  0  0  0  0  0  0  0  0
  148.5880  140.5704  153.7254 N   0  3  1  0  0  0  0  0  0  0  0  0
  147.3751  141.2600  153.2159 C   0  0  0  0  0  0  0  0  0  0  0  0
  146.3045  141.4592  154.3018 C   0  0  0  0  0  0  0  0  0  0  0  0
  146.8993  142.1636  155.5254 C   0  0  0  0  0  0  0  0  0  0  0  0
  148.0804  141.3500  156.0645 C   0  0  0  0  0  0  0  0  0  0  0  0
  149.1618  141.1101  154.9781 C   0  0  1  0  0  0  0  0  0  0  0  0
  151.2990  139.7519  159.2566 H   0  0  0  0  0  0  0  0  0  0  0  0
  153.0355  139.7182  158.9920 H   0  0  0  0  0  0  0  0  0  0  0  0
  153.0608  141.6630  160.9385 H   0  0  0  0  0  0  0  0  0  0  0  0
  152.8605  144.3636  160.5990 H   0  0  0  0  0  0  0  0  0  0  0  0
  151.7474  144.5932  158.0714 H   0  0  0  0  0  0  0  0  0  0  0  0
  149.8996  140.2872  157.4346 H   0  0  0  0  0  0  0  0  0  0  0  0
  151.0828  140.1736  154.7143 H   0  0  0  0  0  0  0  0  0  0  0  0
  150.2570  137.9955  154.5883 H   0  0  0  0  0  0  0  0  0  0  0  0
  149.0252  138.2707  155.8132 H   0  0  0  0  0  0  0  0  0  0  0  0
  148.6916  138.6096  152.9332 H   0  0  0  0  0  0  0  0  0  0  0  0
  147.4969  138.8074  154.2129 H   0  0  0  0  0  0  0  0  0  0  0  0
  147.6817  142.2348  152.8348 H   0  0  0  0  0  0  0  0  0  0  0  0
  146.9670  140.7108  152.3667 H   0  0  0  0  0  0  0  0  0  0  0  0
  145.4773  142.0462  153.9015 H   0  0  0  0  0  0  0  0  0  0  0  0
  145.8825  140.4980  154.5972 H   0  0  0  0  0  0  0  0  0  0  0  0
  147.2289  143.1679  155.2562 H   0  0  0  0  0  0  0  0  0  0  0  0
  146.1396  142.2793  156.2991 H   0  0  0  0  0  0  0  0  0  0  0  0
  148.5144  141.8697  156.9195 H   0  0  0  0  0  0  0  0  0  0  0  0
  147.7090  140.3974  156.4446 H   0  0  0  0  0  0  0  0  0  0  0  0
  149.6528  142.0594  154.7588 H   0  0  0  0  0  0  0  0  0  0  0  0
  149.3030  140.7060  153.0248 H   0  0  0  0  0  0  0  0  0  0  0  0
  1  2  2  0  0  0  0
  2  3  1  0  0  0  0
  2  9  1  0  0  0  0
  3  4  1  0  0  0  0
  3 19  1  0  0  0  0
  3 20  1  0  0  0  0
  4  8  1  0  0  0  0
  4  5  1  0  0  0  0
  5  6  2  0  0  0  0
  5 21  1  0  0  0  0
  6  7  1  0  0  0  0
  6 22  1  0  0  0  0
  7  8  2  0  0  0  0
  7 23  1  0  0  0  0
  9 10  1  0  0  0  0
  9 24  1  0  0  0  0
 10 18  1  0  0  0  0
 10 11  1  0  0  0  0
 10 25  1  0  0  0  0
 11 12  1  0  0  0  0
 11 26  1  0  0  0  0
 11 27  1  0  0  0  0
 12 13  1  0  0  0  0
 12 28  1  0  0  0  0
 12 29  1  0  0  0  0
 13 18  1  0  0  0  0
 13 14  1  0  0  0  0
 13 39  1  0  0  0  0
 14 15  1  0  0  0  0
 14 30  1  0  0  0  0
 14 31  1  0  0  0  0
 15 16  1  0  0  0  0
 15 32  1  0  0  0  0
 15 33  1  0  0  0  0
 16 17  1  0  0  0  0
 16 34  1  0  0  0  0
 16 35  1  0  0  0  0
 17 18  1  0  0  0  0
 17 36  1  0  0  0  0
 17 37  1  0  0  0  0
 18 38  1  0  0  0  0
M  CHG  1  13   1
M  END
> <s_m_source_file>
AV-unprocessed.smi

> <i_m_source_file_index>
2171

> <i_lp_mmshare_version>
43012

> <i_f3d_flags>
0

> <s_epik_input>
bjFbY0hdW2NIXVtjSF1uMVtDSDJdQyg9TylbTkhdW0NASF0oW0NIMl1bQ0gyXTIpW0NAQEhdKE4yMylbQ0gyXVtDSDJdW0NIMl1bQ0gyXTM=

> <s_epik_cmdline>
J2VwaWtfcHl0aG9uJywgJy1waCcsICc3LjAnLCAnLXRuJywgJzgnLCAnLW1hJywgJzIwMCcsICctbWV0YWxfYmluZGluZycsICctaW1hZScsICc8aW5maWxlLm1hZT4nLCAnLW9tYWUnLCAnPG91dGZpbGUubWFlPic=

> <r_lp_tautomer_probability>
1

> <r_epik_Ionization_Penalty>
0.00204179

> <r_epik_Ionization_Penalty_Charging>
0.00203239

> <r_epik_Ionization_Penalty_Neutral>
9.40205e-06

> <r_epik_State_Penalty>
0.00138983

> <r_epik_Charging_Adjusted_Penalty>
0.00342221

> <i_epik_Tot_Q>
1

> <i_epik_Tot_abs_Q>
1

> <r_epik_Metal_State_Penalty>
-0

> <b_epik_Metal_Only>
0

> <s_lp_Force_Field>
OPLS_2005

> <r_lp_Energy>
35.3096

> <b_lp_Chiralities_Consistent>
1

> <s_lp_Variant>
AV-unprocessed.smi:2171-2

> <Gold.Version>
5.8.1

> <Gold.Id.Protein>
6NUR|6NUR_protein|mol2

> <Gold.PLP.Fitness>
37.1100

> <Gold.PLP.PLP>
-33.1442

> <Gold.PLP.part.hbond>
-2.0000

> <Gold.PLP.part.metal>
0.0000

> <Gold.PLP.part.buried>
-3.4449

> <Gold.PLP.part.nonpolar>
-28.4240

> <Gold.PLP.part.repulsive>
0.2101

> <Gold.PLP.ligand.clash>
0.0000

> <Gold.PLP.ligand.torsion>
0.7194

> <Gold.PLP.Chemscore.Hbond>
1.8000

> <Gold.PLP.Chemscore.CHOScore>
0.0000

> <Gold.PLP.Chemscore.Metal>
0.0000

> <Gold.Chemscore.Hbonds>
donor molecule, donor type, donor heavy atom, donor atom, acceptor molecule, acceptor atom, score
      L1  H    13    39       P1  7957  0.70
      P1  H  7997  8010       L1     1  1.00

> <Gold.PLP.Chemscore.Internal.Correction>
0.0047

> <Gold.Rescore>
     Score         DG    S(hbond)    S(metal)    S(lipo)     H(rot)  DE(clash)    DE(int)     intcor
     17.82     -18.57       1.92        0.00      88.50       1.44       0.05       0.70       ----

> <Gold.Chemscore.Fitness>
17.8197

> <Gold.Chemscore.DG>
-18.5726

> <Gold.Chemscore.ZeroCoef>
-5.4800

> <Gold.Chemscore.Hbond>
1.9244

> <Gold.Chemscore.Metal>
0.0000

> <Gold.Chemscore.Lipo>
88.4962

> <Gold.Chemscore.Internal_Hbond>
0.0000

> <Gold.Chemscore.DEClash>
0.0528

> <Gold.Chemscore.DEInternal>
0.7001

> <Gold.Chemscore.Rot>
1.4410

> <Gold.Chemscore.Internal.Correction>
   9.000000E+99

> <Gold.Chemscore.Hbonds>
donor molecule, donor type, donor heavy atom, donor atom, acceptor molecule, acceptor atom, score
      L1  H    13    39       P1  7957  0.69
      P1  H  7997  8010       L1     1  0.97

> <Gold.Chemscore.Hbond.Weighted>
-6.4275

> <Gold.Chemscore.Metal.Weighted>
-0.0000

> <Gold.Chemscore.Lipo.Weighted>
-10.3541

> <Gold.Chemscore.Internal_Hbond.Weighted>
0.0000

> <Gold.Chemscore.DEClash.Weighted>
0.0528

> <Gold.Chemscore.DEInternal.Weighted>
0.7001

> <Gold.Chemscore.Rot.Weighted>
3.6889

> <Gold.Chemscore.Internal.Correction.Weighted>
   9.000000E+99

> <Gold.Protein.RotatedTorsions>
[ 6907 6896 6895 6894 ] final  -52.12 input  -60.11 | X-H torsion
[ 7974 7965 7964 7962 ] final  -80.95 input  175.53 | X-H torsion
[ 8008 7997 7996 7995 ] final   64.97 input   59.86 | X-H torsion
[ 10167 10162 10161 10158 ] final   19.50 input  -65.29 | X-H torsion
[ 10718 10713 10712 10709 ] final  106.90 input   66.30 | X-H torsion
[ 10763 10752 10751 10750 ] final -168.00 input  -60.55 | X-H torsion
[ 11005 11000 10999 10996 ] final  -59.82 input  -57.11 | X-H torsion

> <Gold.Protein.ActiveResidues>
 VAL166  LYS551  ARG553  GLY616  TRP617  ASP618  TYR619  PRO620  LYS621  CYS622 
 ASP623  PHE694  ASN695  SER759  ASP760  ASP761  ALA762  ILE779  LEU786  VAL792 
 PHE793  MET794  SER795  GLU796  ALA797  LYS798  CYS799  TRP800  GLU811  SER814 

> <Gold.Protein.RotatedAtoms>
  150.8548  134.7883  159.7036 H   0  0  0  0  0  0  0  0  0  0  0  0  # atno 6907 bound_to 6896
  152.4602  134.5197  159.9788 H   0  0  0  0  0  0  0  0  0  0  0  0  # atno 6908 bound_to 6896
  151.5312  133.3411  159.2954 H   0  0  0  0  0  0  0  0  0  0  0  0  # atno 6909 bound_to 6896
  145.5531  140.9493  143.1488 H   0  0  0  0  0  0  0  0  0  0  0  0  # atno 7974 bound_to 7965
  155.6544  140.3497  155.4759 H   0  0  0  0  0  0  0  0  0  0  0  0  # atno 8008 bound_to 7997
  155.9821  140.1176  157.0740 H   0  0  0  0  0  0  0  0  0  0  0  0  # atno 8009 bound_to 7997
  154.4194  140.1136  156.5436 H   0  0  0  0  0  0  0  0  0  0  0  0  # atno 8010 bound_to 7997
  140.5574  143.9399  150.6619 H   0  0  0  0  0  0  0  0  0  0  0  0  # atno 10167 bound_to 10162
  157.6650  131.0861  150.6076 H   0  0  0  0  0  0  0  0  0  0  0  0  # atno 10718 bound_to 10713
  154.6673  135.2934  154.9788 H   0  0  0  0  0  0  0  0  0  0  0  0  # atno 10763 bound_to 10752
  154.0827  135.6602  153.4844 H   0  0  0  0  0  0  0  0  0  0  0  0  # atno 10764 bound_to 10752
  153.0465  135.5201  154.7653 H   0  0  0  0  0  0  0  0  0  0  0  0  # atno 10765 bound_to 10752
  141.1263  133.6618  156.5130 H   0  0  0  0  0  0  0  0  0  0  0  0  # atno 11005 bound_to 11000
  144.7519  139.7171  143.7269 LP  0  0  0  0  0  0  0  0  0  0  0  0  # atno 17320 bound_to 7965
  146.1903  139.5140  142.9809 LP  0  0  0  0  0  0  0  0  0  0  0  0  # atno 17321 bound_to 7965
  140.2841  143.3369  152.1124 LP  0  0  0  0  0  0  0  0  0  0  0  0  # atno 17342 bound_to 10162
  139.5054  144.6795  151.6045 LP  0  0  0  0  0  0  0  0  0  0  0  0  # atno 17343 bound_to 10162
  156.6377  130.4449  149.5763 LP  0  0  0  0  0  0  0  0  0  0  0  0  # atno 17370 bound_to 10713
  156.2233  130.6750  151.1390 LP  0  0  0  0  0  0  0  0  0  0  0  0  # atno 17371 bound_to 10713
  140.4354  134.7064  157.4964 LP  0  0  0  0  0  0  0  0  0  0  0  0  # atno 17394 bound_to 11000
  140.0265  134.6469  155.9165 LP  0  0  0  0  0  0  0  0  0  0  0  0  # atno 17395 bound_to 11000

$$$$
