AV-unprocessed.smi:72|AV-procd|sdf|678|dock1
  -GOLD-   2262016583D 1   1.00000     0.00000
 Structure written by MMmdl.
 29 30  0  0  0  0  0  0  0  0  1 V2000
  146.4149  139.0785  152.8561 N   0  0  0  0  0  0  0  0  0  0  0  0
  147.3861  139.5682  153.5409 C   0  0  0  0  0  0  0  0  0  0  0  0
  147.3694  140.8073  154.1995 N   0  0  0  0  0  0  0  0  0  0  0  0
  148.4306  141.1833  154.8443 C   0  0  0  0  0  0  0  0  0  0  0  0
  149.6323  140.3665  154.9025 N   0  0  0  0  0  0  0  0  0  0  0  0
  150.8521  140.8337  155.6624 C   0  0  1  0  0  0  0  0  0  0  0  0
  150.6059  142.1138  156.1648 O   0  0  0  0  0  0  0  0  0  0  0  0
  151.0608  142.1972  157.5109 C   0  0  1  0  0  0  0  0  0  0  0  0
  150.2825  143.2943  158.2534 C   0  0  0  0  0  0  0  0  0  0  0  0
  150.5384  144.5526  157.6671 O   0  0  0  0  0  0  0  0  0  0  0  0
  150.7846  140.7873  158.0367 C   0  0  2  0  0  0  0  0  0  0  0  0
  151.5109  140.4796  159.2120 O   0  0  0  0  0  0  0  0  0  0  0  0
  151.1489  139.9016  156.8481 C   0  0  2  0  0  0  0  0  0  0  0  0
  152.5102  139.5133  156.8546 O   0  0  0  0  0  0  0  0  0  0  0  0
  149.6559  139.0997  154.2703 C   0  0  0  0  0  0  0  0  0  0  0  0
  150.6298  138.3491  154.3229 O   0  0  0  0  0  0  0  0  0  0  0  0
  148.5294  138.7595  153.6070 N   0  0  0  0  0  0  0  0  0  0  0  0
  151.6702  140.9008  154.9435 H   0  0  0  0  0  0  0  0  0  0  0  0
  152.1354  142.3913  157.5208 H   0  0  0  0  0  0  0  0  0  0  0  0
  149.7192  140.6797  158.2457 H   0  0  0  0  0  0  0  0  0  0  0  0
  150.5322  139.0025  156.8101 H   0  0  0  0  0  0  0  0  0  0  0  0
  145.6284  139.7111  152.8514 H   0  0  0  0  0  0  0  0  0  0  0  0
  148.4896  142.1293  155.3841 H   0  0  0  0  0  0  0  0  0  0  0  0
  149.2118  143.0873  158.2579 H   0  0  0  0  0  0  0  0  0  0  0  0
  150.6069  143.3468  159.2930 H   0  0  0  0  0  0  0  0  0  0  0  0
  149.7252  145.0310  157.6152 H   0  0  0  0  0  0  0  0  0  0  0  0
  151.7730  141.2889  159.6233 H   0  0  0  0  0  0  0  0  0  0  0  0
  152.5959  138.7285  157.3742 H   0  0  0  0  0  0  0  0  0  0  0  0
  148.5178  137.8650  153.1395 H   0  0  0  0  0  0  0  0  0  0  0  0
  1  2  2  0  0  0  0
  1 22  1  0  0  0  0
  2 17  1  0  0  0  0
  2  3  1  0  0  0  0
  3  4  2  0  0  0  0
  4  5  1  0  0  0  0
  4 23  1  0  0  0  0
  5  6  1  0  0  0  0
  5 15  1  0  0  0  0
  6 18  1  0  0  0  0
  6 13  1  0  0  0  0
  6  7  1  0  0  0  0
  7  8  1  0  0  0  0
  8 19  1  0  0  0  0
  8  9  1  0  0  0  0
  8 11  1  0  0  0  0
  9 10  1  0  0  0  0
  9 24  1  0  0  0  0
  9 25  1  0  0  0  0
 10 26  1  0  0  0  0
 11 20  1  0  0  0  0
 11 12  1  0  0  0  0
 11 13  1  0  0  0  0
 12 27  1  0  0  0  0
 13 21  1  0  0  0  0
 13 14  1  0  0  0  0
 14 28  1  0  0  0  0
 15 16  2  0  0  0  0
 15 17  1  0  0  0  0
 17 29  1  0  0  0  0
M  END
> <s_m_source_file>
AV-unprocessed.smi

> <i_m_source_file_index>
72

> <i_lp_mmshare_version>
43012

> <i_f3d_flags>
0

> <s_epik_input>
W05IMl1jMW5bY0hdbihjKD1PKW4xKVtDQEBIXTJPW0NASF0oW0NIMl1bT0hdKVtDQEBIXShbT0hdKVtDQEhdMltPSF0=

> <s_epik_cmdline>
J2VwaWtfcHl0aG9uJywgJy1waCcsICc3LjAnLCAnLXRuJywgJzgnLCAnLW1hJywgJzIwMCcsICctbWV0YWxfYmluZGluZycsICctaW1hZScsICc8aW5maWxlLm1hZT4nLCAnLW9tYWUnLCAnPG91dGZpbGUubWFlPic=

> <r_lp_tautomer_probability>
7.17554e-07

> <r_epik_Ionization_Penalty>
0.0066451

> <r_epik_Ionization_Penalty_Charging>
0.00663793

> <r_epik_Ionization_Penalty_Neutral>
7.17052e-06

> <r_epik_State_Penalty>
0.419231

> <r_epik_Charging_Adjusted_Penalty>
0.425868

> <i_epik_Tot_Q>
0

> <i_epik_Tot_abs_Q>
0

> <r_epik_Metal_State_Penalty>
1.44144

> <b_epik_Metal_Only>
0

> <s_epik_Chemistry_Notes>
This compound contains an acetal/aminal-like group ( X-CH(R)-Y where X, Y are N, S, or O) that may be acid/base labile, releasing an aldehyde.

> <s_lp_Force_Field>
OPLS_2005

> <r_lp_Energy>
43.4665

> <b_lp_Chiralities_Consistent>
1

> <s_lp_Variant>
AV-unprocessed.smi:72-16

> <Gold.Version>
5.8.1

> <Gold.Id.Protein>
6NUR|6NUR_protein|mol2

> <Gold.PLP.Fitness>
37.8692

> <Gold.PLP.PLP>
-25.8572

> <Gold.PLP.part.hbond>
-5.4744

> <Gold.PLP.part.metal>
0.0000

> <Gold.PLP.part.buried>
-2.5592

> <Gold.PLP.part.nonpolar>
-18.5757

> <Gold.PLP.part.repulsive>
0.5411

> <Gold.PLP.ligand.clash>
0.0000

> <Gold.PLP.ligand.torsion>
0.0235

> <Gold.PLP.Chemscore.Hbond>
3.0150

> <Gold.PLP.Chemscore.CHOScore>
1.0000

> <Gold.PLP.Chemscore.Metal>
0.0000

> <Gold.Chemscore.Hbonds>
donor molecule, donor type, donor heavy atom, donor atom, acceptor molecule, acceptor atom, score
      L1  H     1    22       P1 10175  0.76
      L1  H    10    26       P1  8029  0.28
      L1  H    17    29       P1  7948  0.81
      P1  H  7997  8008       L1    14  1.00
      L1  C     4    23       P1  8028  0.77

> <Gold.PLP.Chemscore.Internal.Correction>
0.0140

> <Gold.Rescore>
     Score         DG    S(hbond)    S(metal)    S(lipo)     H(rot)  DE(clash)    DE(int)     intcor
      6.39      -6.59       2.61        0.00      23.91       4.06       0.04       0.15       ----

> <Gold.Chemscore.Fitness>
6.3928

> <Gold.Chemscore.DG>
-6.5861

> <Gold.Chemscore.ZeroCoef>
-5.4800

> <Gold.Chemscore.Hbond>
2.6054

> <Gold.Chemscore.Metal>
0.0000

> <Gold.Chemscore.Lipo>
23.9118

> <Gold.Chemscore.Internal_Hbond>
0.0000

> <Gold.Chemscore.DEClash>
0.0440

> <Gold.Chemscore.DEInternal>
0.1493

> <Gold.Chemscore.Rot>
4.0600

> <Gold.Chemscore.Internal.Correction>
   9.000000E+99

> <Gold.Chemscore.Hbonds>
donor molecule, donor type, donor heavy atom, donor atom, acceptor molecule, acceptor atom, score
      L1  H     1    22       P1 10175  0.76
      L1  H    17    29       P1  7948  0.80
      P1  H  7997  8008       L1    14  0.44

> <Gold.Chemscore.Hbond.Weighted>
-8.7021

> <Gold.Chemscore.Metal.Weighted>
-0.0000

> <Gold.Chemscore.Lipo.Weighted>
-2.7977

> <Gold.Chemscore.Internal_Hbond.Weighted>
0.0000

> <Gold.Chemscore.DEClash.Weighted>
0.0440

> <Gold.Chemscore.DEInternal.Weighted>
0.1493

> <Gold.Chemscore.Rot.Weighted>
10.3936

> <Gold.Chemscore.Internal.Correction.Weighted>
   9.000000E+99

> <Gold.Protein.RotatedTorsions>
[ 6907 6896 6895 6894 ] final   68.63 input  -60.11 | X-H torsion
[ 7974 7965 7964 7962 ] final  -99.08 input  175.53 | X-H torsion
[ 8008 7997 7996 7995 ] final  -57.36 input   59.86 | X-H torsion
[ 10167 10162 10161 10158 ] final   64.59 input  -65.29 | X-H torsion
[ 10718 10713 10712 10709 ] final   -5.54 input   66.30 | X-H torsion
[ 10763 10752 10751 10750 ] final   36.68 input  -60.55 | X-H torsion
[ 11005 11000 10999 10996 ] final -144.00 input  -57.11 | X-H torsion

> <Gold.Protein.ActiveResidues>
 VAL166  LYS551  ARG553  GLY616  TRP617  ASP618  TYR619  PRO620  LYS621  CYS622 
 ASP623  PHE694  ASN695  SER759  ASP760  ASP761  ALA762  ILE779  LEU786  VAL792 
 PHE793  MET794  SER795  GLU796  ALA797  LYS798  CYS799  TRP800  GLU811  SER814 

> <Gold.Protein.RotatedAtoms>
  152.4633  134.5134  159.9760 H   0  0  0  0  0  0  0  0  0  0  0  0  # atno 6907 bound_to 6896
  151.5177  133.3466  159.2904 H   0  0  0  0  0  0  0  0  0  0  0  0  # atno 6908 bound_to 6896
  150.8606  134.7986  159.7142 H   0  0  0  0  0  0  0  0  0  0  0  0  # atno 6909 bound_to 6896
  145.3122  140.9403  143.2763 H   0  0  0  0  0  0  0  0  0  0  0  0  # atno 7974 bound_to 7965
  154.4265  140.1108  156.5785 H   0  0  0  0  0  0  0  0  0  0  0  0  # atno 8008 bound_to 7997
  155.6137  140.3494  155.4611 H   0  0  0  0  0  0  0  0  0  0  0  0  # atno 8009 bound_to 7997
  156.0079  140.1213  157.0473 H   0  0  0  0  0  0  0  0  0  0  0  0  # atno 8010 bound_to 7997
  140.1205  144.4735  150.6923 H   0  0  0  0  0  0  0  0  0  0  0  0  # atno 10167 bound_to 10162
  156.7450  130.5221  149.5816 H   0  0  0  0  0  0  0  0  0  0  0  0  # atno 10718 bound_to 10713
  153.0067  135.6299  154.2023 H   0  0  0  0  0  0  0  0  0  0  0  0  # atno 10763 bound_to 10752
  154.1767  135.2815  155.3066 H   0  0  0  0  0  0  0  0  0  0  0  0  # atno 10764 bound_to 10752
  154.5867  135.5630  153.7298 H   0  0  0  0  0  0  0  0  0  0  0  0  # atno 10765 bound_to 10752
  140.8068  134.2791  157.4957 H   0  0  0  0  0  0  0  0  0  0  0  0  # atno 11005 bound_to 11000
  144.9006  139.4654  143.6634 LP  0  0  0  0  0  0  0  0  0  0  0  0  # atno 17320 bound_to 7965
  146.3113  139.7758  142.9017 LP  0  0  0  0  0  0  0  0  0  0  0  0  # atno 17321 bound_to 7965
  140.6874  143.2357  151.5222 LP  0  0  0  0  0  0  0  0  0  0  0  0  # atno 17342 bound_to 10162
  139.5571  144.2248  152.1630 LP  0  0  0  0  0  0  0  0  0  0  0  0  # atno 17343 bound_to 10162
  156.1439  130.6263  151.0505 LP  0  0  0  0  0  0  0  0  0  0  0  0  # atno 17370 bound_to 10713
  157.6802  131.0840  150.7390 LP  0  0  0  0  0  0  0  0  0  0  0  0  # atno 17371 bound_to 10713
  139.8717  134.9461  156.3928 LP  0  0  0  0  0  0  0  0  0  0  0  0  # atno 17394 bound_to 11000
  140.9238  133.7626  155.9939 LP  0  0  0  0  0  0  0  0  0  0  0  0  # atno 17395 bound_to 11000

$$$$
