AV-unprocessed.smi:317|AV-procd|sdf|2328|dock5
  -GOLD-   2262022233D 1   1.00000     0.00000
 Structure written by MMmdl.
 40 41  0  0  0  0  0  0  0  0  2 V2000
  155.5571  139.3784  161.5508 C   0  0  0  0  0  0  0  0  0  0  0  0
  154.2220  138.6995  161.2084 C   0  0  2  0  0  0  0  0  0  0  0  0
  154.4122  137.2465  160.7295 C   0  0  0  0  0  0  0  0  0  0  0  0
  153.1707  136.6809  160.3667 O   0  0  0  0  0  0  0  0  0  0  0  0
  153.5355  139.4867  160.1875 N   0  0  0  0  0  0  0  0  0  0  0  0
  153.2693  140.7985  160.2653 C   0  0  0  0  0  0  0  0  0  0  0  0
  153.5624  141.4975  161.2348 O   0  0  0  0  0  0  0  0  0  0  0  0
  152.6299  141.2298  159.1651 N   0  0  0  0  0  0  0  0  0  0  0  0
  152.1646  142.5434  158.8701 C   0  0  0  0  0  0  0  0  0  0  0  0
  152.6643  143.6771  159.5622 C   0  0  0  0  0  0  0  0  0  0  0  0
  152.1691  144.9600  159.2621 C   0  0  0  0  0  0  0  0  0  0  0  0
  151.1833  145.0934  158.2699 C   0  0  0  0  0  0  0  0  0  0  0  0
  150.7435  143.9996  157.6146 N   0  3  0  0  0  0  0  0  0  0  0  0
  151.1911  142.7402  157.8468 C   0  0  0  0  0  0  0  0  0  0  0  0
  150.6447  141.6948  157.0676 N   0  0  0  0  0  0  0  0  0  0  0  0
  151.4988  140.9073  156.1858 C   0  0  0  0  0  0  0  0  0  0  0  0
  150.6563  139.6956  155.7971 C   0  0  0  0  0  0  0  0  0  0  0  0
  149.8555  139.4319  157.0687 C   0  0  0  0  0  0  0  0  0  0  0  0
  149.6222  140.8310  157.6493 C   0  0  0  0  0  0  0  0  0  0  0  0
  156.0806  138.8433  162.3435 H   0  0  0  0  0  0  0  0  0  0  0  0
  155.4010  140.4010  161.8960 H   0  0  0  0  0  0  0  0  0  0  0  0
  156.2180  139.4164  160.6841 H   0  0  0  0  0  0  0  0  0  0  0  0
  153.6050  138.6965  162.1095 H   0  0  0  0  0  0  0  0  0  0  0  0
  155.0596  137.2092  159.8526 H   0  0  0  0  0  0  0  0  0  0  0  0
  154.8815  136.6362  161.5018 H   0  0  0  0  0  0  0  0  0  0  0  0
  152.6696  137.3301  159.8968 H   0  0  0  0  0  0  0  0  0  0  0  0
  153.2516  138.9919  159.3547 H   0  0  0  0  0  0  0  0  0  0  0  0
  152.3691  140.5174  158.4997 H   0  0  0  0  0  0  0  0  0  0  0  0
  153.4287  143.5858  160.3186 H   0  0  0  0  0  0  0  0  0  0  0  0
  152.5404  145.8281  159.7874 H   0  0  0  0  0  0  0  0  0  0  0  0
  150.7426  146.0347  157.9749 H   0  0  0  0  0  0  0  0  0  0  0  0
  151.8089  141.4816  155.3123 H   0  0  0  0  0  0  0  0  0  0  0  0
  152.3923  140.5759  156.7164 H   0  0  0  0  0  0  0  0  0  0  0  0
  149.9822  139.9550  154.9796 H   0  0  0  0  0  0  0  0  0  0  0  0
  151.2575  138.8415  155.4845 H   0  0  0  0  0  0  0  0  0  0  0  0
  148.9281  138.8898  156.8833 H   0  0  0  0  0  0  0  0  0  0  0  0
  150.4558  138.8419  157.7624 H   0  0  0  0  0  0  0  0  0  0  0  0
  149.6643  140.8196  158.7393 H   0  0  0  0  0  0  0  0  0  0  0  0
  148.6406  141.1986  157.3491 H   0  0  0  0  0  0  0  0  0  0  0  0
  150.0353  144.1306  156.8920 H   0  0  0  0  0  0  0  0  0  0  0  0
  1  2  1  0  0  0  0
  1 20  1  0  0  0  0
  1 21  1  0  0  0  0
  1 22  1  0  0  0  0
  2  3  1  0  0  0  0
  2  5  1  0  0  0  0
  2 23  1  0  0  0  0
  3  4  1  0  0  0  0
  3 24  1  0  0  0  0
  3 25  1  0  0  0  0
  4 26  1  0  0  0  0
  5  6  1  0  0  0  0
  5 27  1  0  0  0  0
  6  7  2  0  0  0  0
  6  8  1  0  0  0  0
  8  9  1  0  0  0  0
  8 28  1  0  0  0  0
  9 14  1  0  0  0  0
  9 10  2  0  0  0  0
 10 11  1  0  0  0  0
 10 29  1  0  0  0  0
 11 12  2  0  0  0  0
 11 30  1  0  0  0  0
 12 13  1  0  0  0  0
 12 31  1  0  0  0  0
 13 14  2  0  0  0  0
 13 40  1  0  0  0  0
 14 15  1  0  0  0  0
 15 19  1  0  0  0  0
 15 16  1  0  0  0  0
 16 17  1  0  0  0  0
 16 32  1  0  0  0  0
 16 33  1  0  0  0  0
 17 18  1  0  0  0  0
 17 34  1  0  0  0  0
 17 35  1  0  0  0  0
 18 19  1  0  0  0  0
 18 36  1  0  0  0  0
 18 37  1  0  0  0  0
 19 38  1  0  0  0  0
 19 39  1  0  0  0  0
M  CHG  1  13   1
M  END
> <s_m_source_file>
AV-unprocessed.smi

> <i_m_source_file_index>
317

> <i_lp_mmshare_version>
43012

> <i_f3d_flags>
0

> <s_epik_input>
W09IXVtDSDJdW0NAQEhdKFtDSDNdKVtOSF1DKD1PKVtOSF1jMVtjSF1bY0hdW2NIXW5jMU4yW0NIMl1bQ0gyXVtDSDJdW0NIMl0y

> <s_epik_cmdline>
J2VwaWtfcHl0aG9uJywgJy1waCcsICc3LjAnLCAnLXRuJywgJzgnLCAnLW1hJywgJzIwMCcsICctbWV0YWxfYmluZGluZycsICctaW1hZScsICc8aW5maWxlLm1hZT4nLCAnLW9tYWUnLCAnPG91dGZpbGUubWFlPic=

> <r_lp_tautomer_probability>
0.999994

> <r_epik_Ionization_Penalty>
1.11558

> <r_epik_Ionization_Penalty_Charging>
1.11556

> <r_epik_Ionization_Penalty_Neutral>
2.02999e-05

> <r_epik_State_Penalty>
1.17393

> <r_epik_Charging_Adjusted_Penalty>
2.28949

> <i_epik_Tot_Q>
1

> <i_epik_Tot_abs_Q>
1

> <r_epik_Metal_State_Penalty>
1.25924

> <b_epik_Metal_Only>
0

> <s_lp_Force_Field>
OPLS_2005

> <r_lp_Energy>
37.9657

> <b_lp_Chiralities_Consistent>
1

> <s_lp_Variant>
AV-unprocessed.smi:317-3

> <Gold.Version>
5.8.1

> <Gold.Id.Protein>
6NUR|6NUR_protein|mol2

> <Gold.PLP.Fitness>
42.1124

> <Gold.PLP.PLP>
-33.4215

> <Gold.PLP.part.hbond>
-1.9691

> <Gold.PLP.part.metal>
0.0000

> <Gold.PLP.part.buried>
-6.8505

> <Gold.PLP.part.nonpolar>
-24.5178

> <Gold.PLP.part.repulsive>
0.2432

> <Gold.PLP.ligand.clash>
0.0000

> <Gold.PLP.ligand.torsion>
0.3546

> <Gold.PLP.Chemscore.Hbond>
3.0000

> <Gold.PLP.Chemscore.CHOScore>
0.0000

> <Gold.PLP.Chemscore.Metal>
0.0000

> <Gold.Chemscore.Hbonds>
donor molecule, donor type, donor heavy atom, donor atom, acceptor molecule, acceptor atom, score
      L1  H    13    40       P1  8028  2.00
      P1  H  6896  6909       L1     4  1.00

> <Gold.PLP.Chemscore.Internal.Correction>
0.4001

> <Gold.Rescore>
     Score         DG    S(hbond)    S(metal)    S(lipo)     H(rot)  DE(clash)    DE(int)     intcor
     13.79     -16.65       1.96        0.00      85.65       2.11       0.07       2.78       ----

> <Gold.Chemscore.Fitness>
13.7928

> <Gold.Chemscore.DG>
-16.6456

> <Gold.Chemscore.ZeroCoef>
-5.4800

> <Gold.Chemscore.Hbond>
1.9600

> <Gold.Chemscore.Metal>
0.0000

> <Gold.Chemscore.Lipo>
85.6475

> <Gold.Chemscore.Internal_Hbond>
0.0000

> <Gold.Chemscore.DEClash>
0.0749

> <Gold.Chemscore.DEInternal>
2.7779

> <Gold.Chemscore.Rot>
2.1099

> <Gold.Chemscore.Internal.Correction>
   9.000000E+99

> <Gold.Chemscore.Hbonds>
donor molecule, donor type, donor heavy atom, donor atom, acceptor molecule, acceptor atom, score
      L1  H    13    40       P1  8028  0.94
      P1  H  6896  6909       L1     4  0.43

> <Gold.Chemscore.Hbond.Weighted>
-6.5463

> <Gold.Chemscore.Metal.Weighted>
-0.0000

> <Gold.Chemscore.Lipo.Weighted>
-10.0208

> <Gold.Chemscore.Internal_Hbond.Weighted>
0.0000

> <Gold.Chemscore.DEClash.Weighted>
0.0749

> <Gold.Chemscore.DEInternal.Weighted>
2.7779

> <Gold.Chemscore.Rot.Weighted>
5.4015

> <Gold.Chemscore.Internal.Correction.Weighted>
   9.000000E+99

> <Gold.Protein.RotatedTorsions>
[ 6907 6896 6895 6894 ] final  155.70 input  -60.11 | X-H torsion
[ 7974 7965 7964 7962 ] final  107.50 input  175.53 | X-H torsion
[ 8008 7997 7996 7995 ] final -134.61 input   59.86 | X-H torsion
[ 10167 10162 10161 10158 ] final  -19.07 input  -65.29 | X-H torsion
[ 10718 10713 10712 10709 ] final  131.53 input   66.30 | X-H torsion
[ 10763 10752 10751 10750 ] final -144.75 input  -60.55 | X-H torsion
[ 11005 11000 10999 10996 ] final -173.46 input  -57.11 | X-H torsion

> <Gold.Protein.ActiveResidues>
 VAL166  LYS551  ARG553  GLY616  TRP617  ASP618  TYR619  PRO620  LYS621  CYS622 
 ASP623  PHE694  ASN695  SER759  ASP760  ASP761  ALA762  ILE779  LEU786  VAL792 
 PHE793  MET794  SER795  GLU796  ALA797  LYS798  CYS799  TRP800  GLU811  SER814 

> <Gold.Protein.RotatedAtoms>
  152.0403  133.3974  159.4333 H   0  0  0  0  0  0  0  0  0  0  0  0  # atno 6907 bound_to 6896
  150.6876  134.3422  159.4882 H   0  0  0  0  0  0  0  0  0  0  0  0  # atno 6908 bound_to 6896
  152.1220  134.9198  160.0613 H   0  0  0  0  0  0  0  0  0  0  0  0  # atno 6909 bound_to 6896
  145.2929  139.2594  143.3855 H   0  0  0  0  0  0  0  0  0  0  0  0  # atno 7974 bound_to 7965
  155.3649  140.0485  157.3046 H   0  0  0  0  0  0  0  0  0  0  0  0  # atno 8008 bound_to 7997
  154.5159  140.2208  155.9030 H   0  0  0  0  0  0  0  0  0  0  0  0  # atno 8009 bound_to 7997
  156.1636  140.3111  155.8855 H   0  0  0  0  0  0  0  0  0  0  0  0  # atno 8010 bound_to 7997
  140.7265  143.4855  151.0061 H   0  0  0  0  0  0  0  0  0  0  0  0  # atno 10167 bound_to 10162
  157.4958  131.1092  150.9494 H   0  0  0  0  0  0  0  0  0  0  0  0  # atno 10718 bound_to 10713
  154.8414  135.3432  154.6395 H   0  0  0  0  0  0  0  0  0  0  0  0  # atno 10763 bound_to 10752
  153.7006  135.6970  153.5069 H   0  0  0  0  0  0  0  0  0  0  0  0  # atno 10764 bound_to 10752
  153.2526  135.4348  155.0767 H   0  0  0  0  0  0  0  0  0  0  0  0  # atno 10765 bound_to 10752
  140.4855  134.6034  157.4935 H   0  0  0  0  0  0  0  0  0  0  0  0  # atno 11005 bound_to 11000
  146.3179  140.3424  142.8649 LP  0  0  0  0  0  0  0  0  0  0  0  0  # atno 17320 bound_to 7965
  144.9158  140.7810  143.5779 LP  0  0  0  0  0  0  0  0  0  0  0  0  # atno 17321 bound_to 7965
  139.8556  143.7381  152.3176 LP  0  0  0  0  0  0  0  0  0  0  0  0  # atno 17342 bound_to 10162
  139.7578  144.7515  151.0408 LP  0  0  0  0  0  0  0  0  0  0  0  0  # atno 17343 bound_to 10162
  157.0181  130.5663  149.5328 LP  0  0  0  0  0  0  0  0  0  0  0  0  # atno 17370 bound_to 10713
  156.0200  130.5295  150.8247 LP  0  0  0  0  0  0  0  0  0  0  0  0  # atno 17371 bound_to 10713
  139.9800  134.7152  155.9877 LP  0  0  0  0  0  0  0  0  0  0  0  0  # atno 17394 bound_to 11000
  141.1510  133.6548  156.4013 LP  0  0  0  0  0  0  0  0  0  0  0  0  # atno 17395 bound_to 11000

$$$$
