AV-unprocessed.smi:2261|AV-procd|sdf|9137|dock8
  -GOLD-   2272012343D 1   1.00000     0.00000
 Structure written by MMmdl.
 41 42  0  0  0  0  0  0  0  0  1 V2000
  150.4920  135.9594  158.6266 C   0  0  0  0  0  0  0  0  0  0  0  0
  149.9622  137.1045  159.5067 C   0  0  0  0  0  0  0  0  0  0  0  0
  148.7907  136.6313  160.3807 C   0  0  0  0  0  0  0  0  0  0  0  0
  151.0789  137.7547  160.3335 C   0  0  0  0  0  0  0  0  0  0  0  0
  151.5750  138.8624  159.4265 C   0  0  2  0  0  0  0  0  0  0  0  0
  152.2250  139.9295  160.1820 N   0  0  0  0  0  0  0  0  0  0  0  0
  153.4942  140.3322  160.0199 C   0  0  0  0  0  0  0  0  0  0  0  0
  154.2917  139.7854  159.2588 O   0  0  0  0  0  0  0  0  0  0  0  0
  153.9213  141.5600  160.8233 C   0  0  0  0  0  0  0  0  0  0  0  0
  153.0215  142.7350  160.4843 C   0  0  0  0  0  0  0  0  0  0  0  0
  152.7849  143.1014  159.1430 C   0  0  0  0  0  0  0  0  0  0  0  0
  151.9263  144.1853  158.8775 C   0  0  0  0  0  0  0  0  0  0  0  0
  151.3389  144.8583  159.9673 C   0  0  0  0  0  0  0  0  0  0  0  0
  151.5589  144.5175  161.2554 N   0  0  0  0  0  0  0  0  0  0  0  0
  152.3855  143.4788  161.5015 C   0  0  0  0  0  0  0  0  0  0  0  0
  150.2810  139.3124  158.7148 C   0  0  0  0  0  0  0  0  0  0  0  0
  149.4459  140.3446  159.5032 C   0  0  0  0  0  0  0  0  0  0  0  0
  150.5457  139.8118  157.2860 C   0  0  0  0  0  0  0  0  0  0  0  0
  149.4903  138.1277  158.6305 O   0  0  0  0  0  0  0  0  0  0  0  0
  150.8856  135.1442  159.2342 H   0  0  0  0  0  0  0  0  0  0  0  0
  151.2919  136.2986  157.9680 H   0  0  0  0  0  0  0  0  0  0  0  0
  149.7017  135.5511  157.9960 H   0  0  0  0  0  0  0  0  0  0  0  0
  149.1106  135.8651  161.0874 H   0  0  0  0  0  0  0  0  0  0  0  0
  147.9904  136.2101  159.7719 H   0  0  0  0  0  0  0  0  0  0  0  0
  148.3664  137.4567  160.9532 H   0  0  0  0  0  0  0  0  0  0  0  0
  150.6719  138.1794  161.2528 H   0  0  0  0  0  0  0  0  0  0  0  0
  151.8662  137.0557  160.6184 H   0  0  0  0  0  0  0  0  0  0  0  0
  152.2684  138.4244  158.7057 H   0  0  0  0  0  0  0  0  0  0  0  0
  151.6467  140.4417  160.8318 H   0  0  0  0  0  0  0  0  0  0  0  0
  153.8711  141.3433  161.8913 H   0  0  0  0  0  0  0  0  0  0  0  0
  154.9589  141.8102  160.5978 H   0  0  0  0  0  0  0  0  0  0  0  0
  153.2478  142.5582  158.3320 H   0  0  0  0  0  0  0  0  0  0  0  0
  151.7203  144.4920  157.8626 H   0  0  0  0  0  0  0  0  0  0  0  0
  150.6742  145.6928  159.8000 H   0  0  0  0  0  0  0  0  0  0  0  0
  152.5338  143.2263  162.5412 H   0  0  0  0  0  0  0  0  0  0  0  0
  149.9541  141.3069  159.5697 H   0  0  0  0  0  0  0  0  0  0  0  0
  149.2384  140.0071  160.5187 H   0  0  0  0  0  0  0  0  0  0  0  0
  148.4857  140.5205  159.0176 H   0  0  0  0  0  0  0  0  0  0  0  0
  151.1489  140.7200  157.2906 H   0  0  0  0  0  0  0  0  0  0  0  0
  149.6126  140.0367  156.7689 H   0  0  0  0  0  0  0  0  0  0  0  0
  151.0755  139.0632  156.6963 H   0  0  0  0  0  0  0  0  0  0  0  0
  1  2  1  0  0  0  0
  1 20  1  0  0  0  0
  1 21  1  0  0  0  0
  1 22  1  0  0  0  0
  2 19  1  0  0  0  0
  2  3  1  0  0  0  0
  2  4  1  0  0  0  0
  3 23  1  0  0  0  0
  3 24  1  0  0  0  0
  3 25  1  0  0  0  0
  4  5  1  0  0  0  0
  4 26  1  0  0  0  0
  4 27  1  0  0  0  0
  5  6  1  0  0  0  0
  5 16  1  0  0  0  0
  5 28  1  0  0  0  0
  6  7  1  0  0  0  0
  6 29  1  0  0  0  0
  7  8  2  0  0  0  0
  7  9  1  0  0  0  0
  9 10  1  0  0  0  0
  9 30  1  0  0  0  0
  9 31  1  0  0  0  0
 10 15  1  0  0  0  0
 10 11  2  0  0  0  0
 11 12  1  0  0  0  0
 11 32  1  0  0  0  0
 12 13  2  0  0  0  0
 12 33  1  0  0  0  0
 13 14  1  0  0  0  0
 13 34  1  0  0  0  0
 14 15  2  0  0  0  0
 15 35  1  0  0  0  0
 16 17  1  0  0  0  0
 16 18  1  0  0  0  0
 16 19  1  0  0  0  0
 17 36  1  0  0  0  0
 17 37  1  0  0  0  0
 17 38  1  0  0  0  0
 18 39  1  0  0  0  0
 18 40  1  0  0  0  0
 18 41  1  0  0  0  0
M  END
> <s_m_source_file>
AV-unprocessed.smi

> <i_m_source_file_index>
2261

> <i_lp_mmshare_version>
43012

> <i_f3d_flags>
0

> <s_epik_input>
W0NIM11DMShbQ0gzXSlbQ0gyXVtDQEhdKEMoTzEpKFtDSDNdKVtDSDNdKVtOSF1DKD1PKVtDSDJdYzJbY0hdW2NIXVtjSF1uW2NIXTI=

> <s_epik_cmdline>
J2VwaWtfcHl0aG9uJywgJy1waCcsICc3LjAnLCAnLXRuJywgJzgnLCAnLW1hJywgJzIwMCcsICctbWV0YWxfYmluZGluZycsICctaW1hZScsICc8aW5maWxlLm1hZT4nLCAnLW9tYWUnLCAnPG91dGZpbGUubWFlPic=

> <r_epik_Ionization_Penalty>
0.00420617

> <r_epik_Ionization_Penalty_Charging>
0

> <r_epik_Ionization_Penalty_Neutral>
0.00420617

> <r_epik_State_Penalty>
0.0030219

> <r_epik_Charging_Adjusted_Penalty>
0.0030219

> <i_epik_Tot_Q>
0

> <i_epik_Tot_abs_Q>
0

> <r_epik_Metal_State_Penalty>
-0

> <b_epik_Metal_Only>
0

> <s_lp_Force_Field>
OPLS_2005

> <r_lp_Energy>
16.2034

> <b_lp_Chiralities_Consistent>
1

> <s_lp_Variant>
AV-unprocessed.smi:2261-2

> <Gold.Version>
5.8.1

> <Gold.Id.Protein>
6NUR|6NUR_protein|mol2

> <Gold.PLP.Fitness>
42.4368

> <Gold.PLP.PLP>
-39.5961

> <Gold.PLP.part.hbond>
-1.0000

> <Gold.PLP.part.metal>
0.0000

> <Gold.PLP.part.buried>
-5.5293

> <Gold.PLP.part.nonpolar>
-33.7542

> <Gold.PLP.part.repulsive>
0.3024

> <Gold.PLP.ligand.clash>
0.0000

> <Gold.PLP.ligand.torsion>
0.0866

> <Gold.PLP.Chemscore.Hbond>
1.0000

> <Gold.PLP.Chemscore.CHOScore>
0.0000

> <Gold.PLP.Chemscore.Metal>
0.0000

> <Gold.Chemscore.Hbonds>
donor molecule, donor type, donor heavy atom, donor atom, acceptor molecule, acceptor atom, score
      P1  H  7997  8009       L1     8  0.75

> <Gold.PLP.Chemscore.Internal.Correction>
0.0140

> <Gold.Rescore>
     Score         DG    S(hbond)    S(metal)    S(lipo)     H(rot)  DE(clash)    DE(int)     intcor
     17.54     -17.88       0.99        0.00     105.72       1.28       0.01       0.34       ----

> <Gold.Chemscore.Fitness>
17.5403

> <Gold.Chemscore.DG>
-17.8842

> <Gold.Chemscore.ZeroCoef>
-5.4800

> <Gold.Chemscore.Hbond>
0.9947

> <Gold.Chemscore.Metal>
0.0000

> <Gold.Chemscore.Lipo>
105.7213

> <Gold.Chemscore.Internal_Hbond>
0.0000

> <Gold.Chemscore.DEClash>
0.0071

> <Gold.Chemscore.DEInternal>
0.3368

> <Gold.Chemscore.Rot>
1.2842

> <Gold.Chemscore.Internal.Correction>
   9.000000E+99

> <Gold.Chemscore.Hbonds>
donor molecule, donor type, donor heavy atom, donor atom, acceptor molecule, acceptor atom, score
      P1  H  7997  8009       L1     8  0.71

> <Gold.Chemscore.Hbond.Weighted>
-3.3223

> <Gold.Chemscore.Metal.Weighted>
-0.0000

> <Gold.Chemscore.Lipo.Weighted>
-12.3694

> <Gold.Chemscore.Internal_Hbond.Weighted>
0.0000

> <Gold.Chemscore.DEClash.Weighted>
0.0071

> <Gold.Chemscore.DEInternal.Weighted>
0.3368

> <Gold.Chemscore.Rot.Weighted>
3.2875

> <Gold.Chemscore.Internal.Correction.Weighted>
   9.000000E+99

> <Gold.Protein.RotatedTorsions>
[ 6907 6896 6895 6894 ] final    9.90 input  -60.11 | X-H torsion
[ 7974 7965 7964 7962 ] final  165.15 input  175.53 | X-H torsion
[ 8008 7997 7996 7995 ] final  112.03 input   59.86 | X-H torsion
[ 10167 10162 10161 10158 ] final  171.35 input  -65.29 | X-H torsion
[ 10718 10713 10712 10709 ] final  125.77 input   66.30 | X-H torsion
[ 10763 10752 10751 10750 ] final -152.06 input  -60.55 | X-H torsion
[ 11005 11000 10999 10996 ] final  113.18 input  -57.11 | X-H torsion

> <Gold.Protein.ActiveResidues>
 VAL166  LYS551  ARG553  GLY616  TRP617  ASP618  TYR619  PRO620  LYS621  CYS622 
 ASP623  PHE694  ASN695  SER759  ASP760  ASP761  ALA762  ILE779  LEU786  VAL792 
 PHE793  MET794  SER795  GLU796  ALA797  LYS798  CYS799  TRP800  GLU811  SER814 

> <Gold.Protein.RotatedAtoms>
  151.7296  135.0877  160.0297 H   0  0  0  0  0  0  0  0  0  0  0  0  # atno 6907 bound_to 6896
  152.3549  133.6221  159.5981 H   0  0  0  0  0  0  0  0  0  0  0  0  # atno 6908 bound_to 6896
  150.7565  133.9431  159.3504 H   0  0  0  0  0  0  0  0  0  0  0  0  # atno 6909 bound_to 6896
  144.7515  139.8428  143.6364 H   0  0  0  0  0  0  0  0  0  0  0  0  # atno 7974 bound_to 7965
  156.2165  140.3007  155.9851 H   0  0  0  0  0  0  0  0  0  0  0  0  # atno 8008 bound_to 7997
  155.2592  140.0429  157.3012 H   0  0  0  0  0  0  0  0  0  0  0  0  # atno 8009 bound_to 7997
  154.5775  140.2366  155.8109 H   0  0  0  0  0  0  0  0  0  0  0  0  # atno 8010 bound_to 7997
  139.5044  144.3495  151.9937 H   0  0  0  0  0  0  0  0  0  0  0  0  # atno 10167 bound_to 10162
  157.5475  131.1095  150.8757 H   0  0  0  0  0  0  0  0  0  0  0  0  # atno 10718 bound_to 10713
  154.8018  135.3245  154.7530 H   0  0  0  0  0  0  0  0  0  0  0  0  # atno 10763 bound_to 10752
  153.8197  135.6888  153.4833 H   0  0  0  0  0  0  0  0  0  0  0  0  # atno 10764 bound_to 10752
  153.1740  135.4612  154.9883 H   0  0  0  0  0  0  0  0  0  0  0  0  # atno 10765 bound_to 10752
  139.8946  134.9545  156.6700 H   0  0  0  0  0  0  0  0  0  0  0  0  # atno 11005 bound_to 11000
  146.1470  139.4543  143.0072 LP  0  0  0  0  0  0  0  0  0  0  0  0  # atno 17320 bound_to 7965
  145.6929  141.0159  143.1546 LP  0  0  0  0  0  0  0  0  0  0  0  0  # atno 17321 bound_to 7965
  140.2932  144.3730  150.6082 LP  0  0  0  0  0  0  0  0  0  0  0  0  # atno 17342 bound_to 10162
  140.5930  143.2167  151.7216 LP  0  0  0  0  0  0  0  0  0  0  0  0  # atno 17343 bound_to 10162
  156.9291  130.5343  149.5279 LP  0  0  0  0  0  0  0  0  0  0  0  0  # atno 17370 bound_to 10713
  156.0548  130.5612  150.9068 LP  0  0  0  0  0  0  0  0  0  0  0  0  # atno 17371 bound_to 10713
  140.7381  133.9002  155.8258 LP  0  0  0  0  0  0  0  0  0  0  0  0  # atno 17394 bound_to 11000
  141.0100  134.1033  157.4231 LP  0  0  0  0  0  0  0  0  0  0  0  0  # atno 17395 bound_to 11000

$$$$
