AV-unprocessed.smi:2489|AV-procd|sdf|9800|dock2
  -GOLD-   2272013433D 1   1.00000     0.00000
 Structure written by MMmdl.
 33 34  0  0  0  0  0  0  0  0  1 V2000
  151.4708  145.3806  160.1121 C   0  0  0  0  0  0  0  0  0  0  0  0
  152.1436  144.9502  158.9372 O   0  0  0  0  0  0  0  0  0  0  0  0
  152.1765  143.5982  158.6838 C   0  0  0  0  0  0  0  0  0  0  0  0
  152.8078  142.6284  159.5754 C   0  0  0  0  0  0  0  0  0  0  0  0
  152.7818  141.3336  159.2264 C   0  0  0  0  0  0  0  0  0  0  0  0
  152.1803  140.8944  158.0561 N   0  0  0  0  0  0  0  0  0  0  0  0
  151.5537  141.7717  157.1531 C   0  0  0  0  0  0  0  0  0  0  0  0
  150.9733  141.4234  156.0415 N   0  0  0  0  0  0  0  0  0  0  0  0
  150.9136  140.1020  155.6062 C   0  0  0  0  0  0  0  0  0  0  0  0
  151.5070  139.1090  156.0372 O   0  0  0  0  0  0  0  0  0  0  0  0
  149.9585  139.9405  154.4158 C   0  0  1  0  0  0  0  0  0  0  0  0
  148.7900  138.9814  154.7042 C   0  0  0  0  0  0  0  0  0  0  0  0
  147.5827  139.8959  154.7630 C   0  0  0  0  0  0  0  0  0  0  0  0
  147.9886  141.0135  153.8096 C   0  0  1  0  0  0  0  0  0  0  0  0
  147.2082  142.3177  154.0049 C   0  0  0  0  0  0  0  0  0  0  0  0
  149.3618  141.2029  154.1141 O   0  0  0  0  0  0  0  0  0  0  0  0
  151.5860  143.1752  157.5414 C   0  0  0  0  0  0  0  0  0  0  0  0
  151.5299  146.4667  160.1807 H   0  0  0  0  0  0  0  0  0  0  0  0
  151.9325  144.9701  161.0112 H   0  0  0  0  0  0  0  0  0  0  0  0
  150.4140  145.1107  160.0906 H   0  0  0  0  0  0  0  0  0  0  0  0
  153.2887  142.9150  160.4983 H   0  0  0  0  0  0  0  0  0  0  0  0
  153.2218  140.5503  159.8256 H   0  0  0  0  0  0  0  0  0  0  0  0
  150.5148  139.6001  153.5408 H   0  0  0  0  0  0  0  0  0  0  0  0
  148.6841  138.2732  153.8814 H   0  0  0  0  0  0  0  0  0  0  0  0
  148.9055  138.4025  155.6219 H   0  0  0  0  0  0  0  0  0  0  0  0
  146.6565  139.4002  154.4716 H   0  0  0  0  0  0  0  0  0  0  0  0
  147.4606  140.2837  155.7754 H   0  0  0  0  0  0  0  0  0  0  0  0
  147.9028  140.6719  152.7765 H   0  0  0  0  0  0  0  0  0  0  0  0
  146.1467  142.1715  153.8042 H   0  0  0  0  0  0  0  0  0  0  0  0
  147.5721  143.0929  153.3303 H   0  0  0  0  0  0  0  0  0  0  0  0
  147.3090  142.6896  155.0250 H   0  0  0  0  0  0  0  0  0  0  0  0
  151.1317  143.9279  156.9128 H   0  0  0  0  0  0  0  0  0  0  0  0
  152.2107  139.9000  157.8804 H   0  0  0  0  0  0  0  0  0  0  0  0
  1  2  1  0  0  0  0
  1 18  1  0  0  0  0
  1 19  1  0  0  0  0
  1 20  1  0  0  0  0
  2  3  1  0  0  0  0
  3 17  2  0  0  0  0
  3  4  1  0  0  0  0
  4  5  2  0  0  0  0
  4 21  1  0  0  0  0
  5  6  1  0  0  0  0
  5 22  1  0  0  0  0
  6  7  1  0  0  0  0
  6 33  1  0  0  0  0
  7  8  2  0  0  0  0
  7 17  1  0  0  0  0
  8  9  1  0  0  0  0
  9 10  2  0  0  0  0
  9 11  1  0  0  0  0
 11 16  1  0  0  0  0
 11 12  1  0  0  0  0
 11 23  1  0  0  0  0
 12 13  1  0  0  0  0
 12 24  1  0  0  0  0
 12 25  1  0  0  0  0
 13 14  1  0  0  0  0
 13 26  1  0  0  0  0
 13 27  1  0  0  0  0
 14 15  1  0  0  0  0
 14 16  1  0  0  0  0
 14 28  1  0  0  0  0
 15 29  1  0  0  0  0
 15 30  1  0  0  0  0
 15 31  1  0  0  0  0
 17 32  1  0  0  0  0
M  END
> <s_m_source_file>
AV-unprocessed.smi

> <i_m_source_file_index>
2489

> <i_lp_mmshare_version>
43012

> <i_f3d_flags>
0

> <s_epik_input>
W0NIM11PYzFbY0hdW2NIXW5jKFtjSF0xKVtOSF1DKD1PKVtDQEBIXTJbQ0gyXVtDSDJdW0NASF0oTzIpW0NIM10=

> <s_epik_cmdline>
J2VwaWtfcHl0aG9uJywgJy1waCcsICc3LjAnLCAnLXRuJywgJzgnLCAnLW1hJywgJzIwMCcsICctbWV0YWxfYmluZGluZycsICctaW1hZScsICc8aW5maWxlLm1hZT4nLCAnLW9tYWUnLCAnPG91dGZpbGUubWFlPic=

> <r_epik_Ionization_Penalty>
0.410206

> <r_epik_Ionization_Penalty_Charging>
0.410206

> <r_epik_Ionization_Penalty_Neutral>
6.57528e-13

> <r_epik_State_Penalty>
1.30987

> <r_epik_Charging_Adjusted_Penalty>
1.72007

> <i_epik_Tot_Q>
0

> <i_epik_Tot_abs_Q>
0

> <r_epik_Metal_State_Penalty>
1.32171

> <b_epik_Metal_Only>
0

> <s_lp_Force_Field>
OPLS_2005

> <r_lp_Energy>
35.4329

> <b_lp_Chiralities_Consistent>
1

> <s_lp_Variant>
AV-unprocessed.smi:2489-6

> <Gold.Version>
5.8.1

> <Gold.Id.Protein>
6NUR|6NUR_protein|mol2

> <Gold.PLP.Fitness>
36.1932

> <Gold.PLP.PLP>
-35.0874

> <Gold.PLP.part.hbond>
-2.0000

> <Gold.PLP.part.metal>
0.0000

> <Gold.PLP.part.buried>
-4.7875

> <Gold.PLP.part.nonpolar>
-27.9670

> <Gold.PLP.part.repulsive>
0.3533

> <Gold.PLP.ligand.clash>
0.0000

> <Gold.PLP.ligand.torsion>
0.0315

> <Gold.PLP.Chemscore.Hbond>
0.3873

> <Gold.PLP.Chemscore.CHOScore>
0.0000

> <Gold.PLP.Chemscore.Metal>
0.0000

> <Gold.Chemscore.Hbonds>
donor molecule, donor type, donor heavy atom, donor atom, acceptor molecule, acceptor atom, score
      P1  H  8011  8017       L1    16  0.34

> <Gold.PLP.Chemscore.Internal.Correction>
0.0068

> <Gold.Rescore>
     Score         DG    S(hbond)    S(metal)    S(lipo)     H(rot)  DE(clash)    DE(int)     intcor
     10.82     -12.50       0.07        0.00      84.70       1.23       0.22       1.45       ----

> <Gold.Chemscore.Fitness>
10.8217

> <Gold.Chemscore.DG>
-12.4973

> <Gold.Chemscore.ZeroCoef>
-5.4800

> <Gold.Chemscore.Hbond>
0.0741

> <Gold.Chemscore.Metal>
0.0000

> <Gold.Chemscore.Lipo>
84.6967

> <Gold.Chemscore.Internal_Hbond>
0.0000

> <Gold.Chemscore.DEClash>
0.2233

> <Gold.Chemscore.DEInternal>
1.4523

> <Gold.Chemscore.Rot>
1.2264

> <Gold.Chemscore.Internal.Correction>
   9.000000E+99

> <Gold.Chemscore.Hbonds>
donor molecule, donor type, donor heavy atom, donor atom, acceptor molecule, acceptor atom, score
      P1  H  8011  8017       L1    16  0.04

> <Gold.Chemscore.Hbond.Weighted>
-0.2474

> <Gold.Chemscore.Metal.Weighted>
-0.0000

> <Gold.Chemscore.Lipo.Weighted>
-9.9095

> <Gold.Chemscore.Internal_Hbond.Weighted>
0.0000

> <Gold.Chemscore.DEClash.Weighted>
0.2233

> <Gold.Chemscore.DEInternal.Weighted>
1.4523

> <Gold.Chemscore.Rot.Weighted>
3.1396

> <Gold.Chemscore.Internal.Correction.Weighted>
   9.000000E+99

> <Gold.Protein.RotatedTorsions>
[ 6907 6896 6895 6894 ] final  113.54 input  -60.11 | X-H torsion
[ 7974 7965 7964 7962 ] final  -91.75 input  175.53 | X-H torsion
[ 8008 7997 7996 7995 ] final  122.76 input   59.86 | X-H torsion
[ 10167 10162 10161 10158 ] final  -22.99 input  -65.29 | X-H torsion
[ 10718 10713 10712 10709 ] final  -32.36 input   66.30 | X-H torsion
[ 10763 10752 10751 10750 ] final -107.63 input  -60.55 | X-H torsion
[ 11005 11000 10999 10996 ] final  168.04 input  -57.11 | X-H torsion

> <Gold.Protein.ActiveResidues>
 VAL166  LYS551  ARG553  GLY616  TRP617  ASP618  TYR619  PRO620  LYS621  CYS622 
 ASP623  PHE694  ASN695  SER759  ASP760  ASP761  ALA762  ILE779  LEU786  VAL792 
 PHE793  MET794  SER795  GLU796  ALA797  LYS798  CYS799  TRP800  GLU811  SER814 

> <Gold.Protein.RotatedAtoms>
  152.4854  133.8360  159.7127 H   0  0  0  0  0  0  0  0  0  0  0  0  # atno 6907 bound_to 6896
  150.8937  133.7200  159.2904 H   0  0  0  0  0  0  0  0  0  0  0  0  # atno 6908 bound_to 6896
  151.4664  135.1046  159.9791 H   0  0  0  0  0  0  0  0  0  0  0  0  # atno 6909 bound_to 6896
  145.4090  140.9543  143.2245 H   0  0  0  0  0  0  0  0  0  0  0  0  # atno 7974 bound_to 7965
  156.2740  140.2778  156.1519 H   0  0  0  0  0  0  0  0  0  0  0  0  # atno 8008 bound_to 7997
  155.0845  140.0388  157.2667 H   0  0  0  0  0  0  0  0  0  0  0  0  # atno 8009 bound_to 7997
  154.6938  140.2635  155.6792 H   0  0  0  0  0  0  0  0  0  0  0  0  # atno 8010 bound_to 7997
  140.7287  143.4484  151.0553 H   0  0  0  0  0  0  0  0  0  0  0  0  # atno 10167 bound_to 10162
  156.3759  130.4347  149.7508 H   0  0  0  0  0  0  0  0  0  0  0  0  # atno 10718 bound_to 10713
  154.8087  135.4667  154.0460 H   0  0  0  0  0  0  0  0  0  0  0  0  # atno 10763 bound_to 10752
  153.1908  135.6855  153.8362 H   0  0  0  0  0  0  0  0  0  0  0  0  # atno 10764 bound_to 10752
  153.7881  135.3247  155.3352 H   0  0  0  0  0  0  0  0  0  0  0  0  # atno 10765 bound_to 10752
  140.2831  134.7734  157.3775 H   0  0  0  0  0  0  0  0  0  0  0  0  # atno 11005 bound_to 11000
  144.8322  139.5609  143.6938 LP  0  0  0  0  0  0  0  0  0  0  0  0  # atno 17320 bound_to 7965
  146.2714  139.6646  142.9293 LP  0  0  0  0  0  0  0  0  0  0  0  0  # atno 17321 bound_to 7965
  139.8158  143.7888  152.3174 LP  0  0  0  0  0  0  0  0  0  0  0  0  # atno 17342 bound_to 10162
  139.7954  144.7394  150.9898 LP  0  0  0  0  0  0  0  0  0  0  0  0  # atno 17343 bound_to 10162
  156.4617  130.7955  151.2975 LP  0  0  0  0  0  0  0  0  0  0  0  0  # atno 17370 bound_to 10713
  157.7488  131.0063  150.3149 LP  0  0  0  0  0  0  0  0  0  0  0  0  # atno 17371 bound_to 10713
  140.1265  134.5151  155.8140 LP  0  0  0  0  0  0  0  0  0  0  0  0  # atno 17394 bound_to 11000
  141.2159  133.6774  156.6961 LP  0  0  0  0  0  0  0  0  0  0  0  0  # atno 17395 bound_to 11000

$$$$
