AV-unprocessed.smi:212|AV-procd|sdf|1629|dock4
  -GOLD-   2262019583D 1   1.00000     0.00000
 Structure written by MMmdl.
 65 68  0  0  0  0  0  0  0  0  2 V2000
  146.5581  135.4456  156.0036 C   0  0  0  0  0  0  0  0  0  0  0  0
  145.6504  135.4424  154.7586 C   0  0  2  0  0  0  0  0  0  0  0  0
  146.2286  134.6326  153.5771 C   0  0  0  0  0  0  0  0  0  0  0  0
  145.2842  134.6113  152.4294 N   0  3  2  0  0  0  0  0  0  0  0  0
  145.7682  133.7871  151.2901 C   0  0  0  0  0  0  0  0  0  0  0  0
  144.6238  133.3318  150.3540 C   0  0  0  0  0  0  0  0  0  0  0  0
  145.1232  132.2271  149.4075 C   0  0  0  0  0  0  0  0  0  0  0  0
  143.3887  132.8454  151.1350 C   0  0  0  0  0  0  0  0  0  0  0  0
  144.2337  134.4162  149.5347 O   0  0  0  0  0  0  0  0  0  0  0  0
  144.8486  135.9745  152.0264 C   0  0  0  0  0  0  0  0  0  0  0  0
  144.2617  136.7458  153.2234 C   0  0  0  0  0  0  0  0  0  0  0  0
  145.2083  136.7770  154.3344 N   0  0  0  0  0  0  0  0  0  0  0  0
  146.0820  137.8129  154.2469 C   0  0  0  0  0  0  0  0  0  0  0  0
  146.4238  138.3353  153.0396 N   0  0  0  0  0  0  0  0  0  0  0  0
  147.2600  139.3756  152.9683 C   0  0  0  0  0  0  0  0  0  0  0  0
  147.8504  140.0416  153.9628 N   0  0  0  0  0  0  0  0  0  0  0  0
  147.5015  139.5273  155.1764 C   0  0  0  0  0  0  0  0  0  0  0  0
  146.6323  138.4246  155.4057 C   0  0  0  0  0  0  0  0  0  0  0  0
  146.5144  138.1857  156.7692 N   0  0  0  0  0  0  0  0  0  0  0  0
  147.2691  139.0994  157.3167 C   0  0  0  0  0  0  0  0  0  0  0  0
  147.8912  139.9530  156.4332 N   0  0  0  0  0  0  0  0  0  0  0  0
  148.7720  141.0593  156.7622 C   0  0  0  0  0  0  0  0  0  0  0  0
  150.1445  140.6219  157.3408 C   0  0  1  0  0  0  0  0  0  0  0  0
  151.2054  140.3838  156.2351 C   0  0  0  0  0  0  0  0  0  0  0  0
  150.6261  139.9003  155.0400 O   0  0  0  0  0  0  0  0  0  0  0  0
  150.6479  141.6588  158.3789 C   0  0  1  0  0  0  0  0  0  0  0  0
  151.9605  141.3028  159.0576 C   0  0  0  0  0  0  0  0  0  0  0  0
  152.4098  142.6484  159.6123 C   0  0  0  0  0  0  0  0  0  0  0  0
  151.9885  143.6060  158.6506 O   0  0  0  0  0  0  0  0  0  0  0  0
  150.9995  143.0360  157.7982 C   0  0  0  0  0  0  0  0  0  0  0  0
  146.7133  134.4296  156.3674 H   0  0  0  0  0  0  0  0  0  0  0  0
  146.1064  136.0166  156.8153 H   0  0  0  0  0  0  0  0  0  0  0  0
  147.5427  135.8672  155.8043 H   0  0  0  0  0  0  0  0  0  0  0  0
  144.7368  134.9314  155.0664 H   0  0  0  0  0  0  0  0  0  0  0  0
  147.1863  135.0392  153.2521 H   0  0  0  0  0  0  0  0  0  0  0  0
  146.4185  133.6083  153.9009 H   0  0  0  0  0  0  0  0  0  0  0  0
  146.5324  134.3301  150.7308 H   0  0  0  0  0  0  0  0  0  0  0  0
  146.2696  132.8952  151.6700 H   0  0  0  0  0  0  0  0  0  0  0  0
  145.4402  131.3442  149.9640 H   0  0  0  0  0  0  0  0  0  0  0  0
  145.9744  132.5640  148.8142 H   0  0  0  0  0  0  0  0  0  0  0  0
  144.3428  131.9130  148.7131 H   0  0  0  0  0  0  0  0  0  0  0  0
  143.6421  132.0139  151.7937 H   0  0  0  0  0  0  0  0  0  0  0  0
  142.6044  132.5007  150.4600 H   0  0  0  0  0  0  0  0  0  0  0  0
  142.9593  133.6356  151.7518 H   0  0  0  0  0  0  0  0  0  0  0  0
  144.7426  134.3910  148.7383 H   0  0  0  0  0  0  0  0  0  0  0  0
  145.6989  136.5189  151.6125 H   0  0  0  0  0  0  0  0  0  0  0  0
  144.1018  135.9106  151.2354 H   0  0  0  0  0  0  0  0  0  0  0  0
  143.9787  137.7539  152.9167 H   0  0  0  0  0  0  0  0  0  0  0  0
  143.3451  136.2626  153.5636 H   0  0  0  0  0  0  0  0  0  0  0  0
  147.4865  139.7265  151.9723 H   0  0  0  0  0  0  0  0  0  0  0  0
  147.3853  139.1829  158.3874 H   0  0  0  0  0  0  0  0  0  0  0  0
  148.9196  141.6600  155.8638 H   0  0  0  0  0  0  0  0  0  0  0  0
  148.2395  141.6925  157.4718 H   0  0  0  0  0  0  0  0  0  0  0  0
  150.0010  139.6802  157.8734 H   0  0  0  0  0  0  0  0  0  0  0  0
  151.7631  141.2982  156.0296 H   0  0  0  0  0  0  0  0  0  0  0  0
  151.9352  139.6357  156.5408 H   0  0  0  0  0  0  0  0  0  0  0  0
  150.6397  138.9554  155.0602 H   0  0  0  0  0  0  0  0  0  0  0  0
  149.8900  141.7924  159.1529 H   0  0  0  0  0  0  0  0  0  0  0  0
  151.8541  140.5502  159.8390 H   0  0  0  0  0  0  0  0  0  0  0  0
  152.6836  140.9382  158.3263 H   0  0  0  0  0  0  0  0  0  0  0  0
  151.9062  142.8574  160.5570 H   0  0  0  0  0  0  0  0  0  0  0  0
  153.4859  142.6956  159.7817 H   0  0  0  0  0  0  0  0  0  0  0  0
  151.4276  142.9403  156.7996 H   0  0  0  0  0  0  0  0  0  0  0  0
  150.1306  143.6908  157.7295 H   0  0  0  0  0  0  0  0  0  0  0  0
  144.4562  134.1447  152.7709 H   0  0  0  0  0  0  0  0  0  0  0  0
  1  2  1  0  0  0  0
  1 31  1  0  0  0  0
  1 32  1  0  0  0  0
  1 33  1  0  0  0  0
  2 12  1  0  0  0  0
  2  3  1  0  0  0  0
  2 34  1  0  0  0  0
  3  4  1  0  0  0  0
  3 35  1  0  0  0  0
  3 36  1  0  0  0  0
  4  5  1  0  0  0  0
  4 10  1  0  0  0  0
  4 65  1  0  0  0  0
  5  6  1  0  0  0  0
  5 37  1  0  0  0  0
  5 38  1  0  0  0  0
  6  7  1  0  0  0  0
  6  8  1  0  0  0  0
  6  9  1  0  0  0  0
  7 39  1  0  0  0  0
  7 40  1  0  0  0  0
  7 41  1  0  0  0  0
  8 42  1  0  0  0  0
  8 43  1  0  0  0  0
  8 44  1  0  0  0  0
  9 45  1  0  0  0  0
 10 11  1  0  0  0  0
 10 46  1  0  0  0  0
 10 47  1  0  0  0  0
 11 12  1  0  0  0  0
 11 48  1  0  0  0  0
 11 49  1  0  0  0  0
 12 13  1  0  0  0  0
 13 18  1  0  0  0  0
 13 14  2  0  0  0  0
 14 15  1  0  0  0  0
 15 16  2  0  0  0  0
 15 50  1  0  0  0  0
 16 17  1  0  0  0  0
 17 21  1  0  0  0  0
 17 18  2  0  0  0  0
 18 19  1  0  0  0  0
 19 20  2  0  0  0  0
 20 21  1  0  0  0  0
 20 51  1  0  0  0  0
 21 22  1  0  0  0  0
 22 23  1  0  0  0  0
 22 52  1  0  0  0  0
 22 53  1  0  0  0  0
 23 24  1  0  0  0  0
 23 26  1  0  0  0  0
 23 54  1  0  0  0  0
 24 25  1  0  0  0  0
 24 55  1  0  0  0  0
 24 56  1  0  0  0  0
 25 57  1  0  0  0  0
 26 30  1  0  0  0  0
 26 27  1  0  0  0  0
 26 58  1  0  0  0  0
 27 28  1  0  0  0  0
 27 59  1  0  0  0  0
 27 60  1  0  0  0  0
 28 29  1  0  0  0  0
 28 61  1  0  0  0  0
 28 62  1  0  0  0  0
 29 30  1  0  0  0  0
 30 63  1  0  0  0  0
 30 64  1  0  0  0  0
M  CHG  1   4   1
M  END
> <s_m_source_file>
AV-unprocessed.smi

> <i_m_source_file_index>
212

> <i_lp_mmshare_version>
43012

> <i_f3d_flags>
0

> <s_epik_input>
W0NIM11bQ0BASF0xW0NIMl1OKFtDSDJdQyhbQ0gzXSkoW0NIM10pW09IXSlbQ0gyXVtDSDJdTjFjKG5bY0hdbjIpYyhjMjMpbltjSF1uM1tDSDJdW0NASF0oW0NIMl1bT0hdKVtDQEBIXTRbQ0gyXVtDSDJdT1tDSDJdNA==

> <s_epik_cmdline>
J2VwaWtfcHl0aG9uJywgJy1waCcsICc3LjAnLCAnLXRuJywgJzgnLCAnLW1hJywgJzIwMCcsICctbWV0YWxfYmluZGluZycsICctaW1hZScsICc8aW5maWxlLm1hZT4nLCAnLW9tYWUnLCAnPG91dGZpbGUubWFlPic=

> <r_lp_tautomer_probability>
1

> <r_epik_Ionization_Penalty>
0.00182193

> <r_epik_Ionization_Penalty_Charging>
0.00173996

> <r_epik_Ionization_Penalty_Neutral>
8.19718e-05

> <r_epik_State_Penalty>
-0

> <r_epik_Charging_Adjusted_Penalty>
0.00173996

> <i_epik_Tot_Q>
1

> <i_epik_Tot_abs_Q>
1

> <r_epik_Metal_State_Penalty>
-0

> <b_epik_Metal_Only>
0

> <s_lp_Force_Field>
OPLS_2005

> <r_lp_Energy>
57.8479

> <b_lp_Chiralities_Consistent>
1

> <s_lp_Variant>
AV-unprocessed.smi:212-13

> <Gold.Version>
5.8.1

> <Gold.Id.Protein>
6NUR|6NUR_protein|mol2

> <Gold.PLP.Fitness>
45.4684

> <Gold.PLP.PLP>
-39.0578

> <Gold.PLP.part.hbond>
-2.7952

> <Gold.PLP.part.metal>
0.0000

> <Gold.PLP.part.buried>
-7.1385

> <Gold.PLP.part.nonpolar>
-29.5166

> <Gold.PLP.part.repulsive>
0.4749

> <Gold.PLP.ligand.clash>
0.0000

> <Gold.PLP.ligand.torsion>
1.5705

> <Gold.PLP.Chemscore.Hbond>
2.0000

> <Gold.PLP.Chemscore.CHOScore>
0.7511

> <Gold.PLP.Chemscore.Metal>
0.0000

> <Gold.Chemscore.Hbonds>
donor molecule, donor type, donor heavy atom, donor atom, acceptor molecule, acceptor atom, score
      L1  H     9    45       P1  7921  1.00
      P1  H  7989  7998       L1    25  0.88
      L1  C    15    50       P1  7957  0.91

> <Gold.PLP.Chemscore.Internal.Correction>
1.2982

> <Gold.Rescore>
     Score         DG    S(hbond)    S(metal)    S(lipo)     H(rot)  DE(clash)    DE(int)     intcor
      6.84     -13.03       1.93        0.00      90.04       3.68       0.00       6.19       ----

> <Gold.Chemscore.Fitness>
6.8377

> <Gold.Chemscore.DG>
-13.0326

> <Gold.Chemscore.ZeroCoef>
-5.4800

> <Gold.Chemscore.Hbond>
1.9286

> <Gold.Chemscore.Metal>
0.0000

> <Gold.Chemscore.Lipo>
90.0422

> <Gold.Chemscore.Internal_Hbond>
0.0000

> <Gold.Chemscore.DEClash>
0.0000

> <Gold.Chemscore.DEInternal>
6.1949

> <Gold.Chemscore.Rot>
3.6812

> <Gold.Chemscore.Internal.Correction>
   9.000000E+99

> <Gold.Chemscore.Hbonds>
donor molecule, donor type, donor heavy atom, donor atom, acceptor molecule, acceptor atom, score
      L1  H     9    45       P1  7921  0.99
      P1  H  7989  7998       L1    25  0.45

> <Gold.Chemscore.Hbond.Weighted>
-6.4416

> <Gold.Chemscore.Metal.Weighted>
-0.0000

> <Gold.Chemscore.Lipo.Weighted>
-10.5349

> <Gold.Chemscore.Internal_Hbond.Weighted>
0.0000

> <Gold.Chemscore.DEClash.Weighted>
0.0000

> <Gold.Chemscore.DEInternal.Weighted>
6.1949

> <Gold.Chemscore.Rot.Weighted>
9.4239

> <Gold.Chemscore.Internal.Correction.Weighted>
   9.000000E+99

> <Gold.Protein.RotatedTorsions>
[ 6907 6896 6895 6894 ] final  -46.87 input  -60.11 | X-H torsion
[ 7974 7965 7964 7962 ] final -123.64 input  175.53 | X-H torsion
[ 8008 7997 7996 7995 ] final  114.99 input   59.86 | X-H torsion
[ 10167 10162 10161 10158 ] final   83.28 input  -65.29 | X-H torsion
[ 10718 10713 10712 10709 ] final -129.78 input   66.30 | X-H torsion
[ 10763 10752 10751 10750 ] final   59.40 input  -60.55 | X-H torsion
[ 11005 11000 10999 10996 ] final   64.85 input  -57.11 | X-H torsion

> <Gold.Protein.ActiveResidues>
 VAL166  LYS551  ARG553  GLY616  TRP617  ASP618  TYR619  PRO620  LYS621  CYS622 
 ASP623  PHE694  ASN695  SER759  ASP760  ASP761  ALA762  ILE779  LEU786  VAL792 
 PHE793  MET794  SER795  GLU796  ALA797  LYS798  CYS799  TRP800  GLU811  SER814 

> <Gold.Protein.RotatedAtoms>
  150.9068  134.8483  159.7397 H   0  0  0  0  0  0  0  0  0  0  0  0  # atno 6907 bound_to 6896
  152.4922  134.4420  159.9556 H   0  0  0  0  0  0  0  0  0  0  0  0  # atno 6908 bound_to 6896
  151.4466  133.3589  159.2824 H   0  0  0  0  0  0  0  0  0  0  0  0  # atno 6909 bound_to 6896
  145.0165  140.7951  143.4407 H   0  0  0  0  0  0  0  0  0  0  0  0  # atno 7974 bound_to 7965
  156.2355  140.2948  156.0300 H   0  0  0  0  0  0  0  0  0  0  0  0  # atno 8008 bound_to 7997
  155.2105  140.0412  157.2949 H   0  0  0  0  0  0  0  0  0  0  0  0  # atno 8009 bound_to 7997
  154.6070  140.2442  155.7725 H   0  0  0  0  0  0  0  0  0  0  0  0  # atno 8010 bound_to 7997
  139.9200  144.6218  150.8450 H   0  0  0  0  0  0  0  0  0  0  0  0  # atno 10167 bound_to 10162
  156.2080  130.6900  151.0617 H   0  0  0  0  0  0  0  0  0  0  0  0  # atno 10718 bound_to 10713
  152.9893  135.5573  154.5706 H   0  0  0  0  0  0  0  0  0  0  0  0  # atno 10763 bound_to 10752
  154.5107  135.2802  155.1347 H   0  0  0  0  0  0  0  0  0  0  0  0  # atno 10764 bound_to 10752
  154.2739  135.6357  153.5374 H   0  0  0  0  0  0  0  0  0  0  0  0  # atno 10765 bound_to 10752
  139.9932  134.6558  156.0055 H   0  0  0  0  0  0  0  0  0  0  0  0  # atno 11005 bound_to 11000
  145.1953  139.2280  143.5221 LP  0  0  0  0  0  0  0  0  0  0  0  0  # atno 17320 bound_to 7965
  146.3478  140.1758  142.8589 LP  0  0  0  0  0  0  0  0  0  0  0  0  # atno 17321 bound_to 7965
  140.7664  143.3304  151.2424 LP  0  0  0  0  0  0  0  0  0  0  0  0  # atno 17342 bound_to 10162
  139.6869  143.9758  152.2839 LP  0  0  0  0  0  0  0  0  0  0  0  0  # atno 17343 bound_to 10162
  157.7023  131.0771  150.6781 LP  0  0  0  0  0  0  0  0  0  0  0  0  # atno 17370 bound_to 10713
  156.6840  130.4575  149.5619 LP  0  0  0  0  0  0  0  0  0  0  0  0  # atno 17371 bound_to 10713
  141.1583  133.6541  156.4234 LP  0  0  0  0  0  0  0  0  0  0  0  0  # atno 17394 bound_to 11000
  140.4868  134.6613  157.5194 LP  0  0  0  0  0  0  0  0  0  0  0  0  # atno 17395 bound_to 11000

$$$$
