AV-unprocessed.smi:656|AV-procd|sdf|3219|dock1
  -GOLD-   22720 0153D 1   1.00000     0.00000
 Structure written by MMmdl.
 41 42  0  0  0  0  0  0  0  0  2 V2000
  143.6661  132.7270  148.9471 C   0  0  0  0  0  0  0  0  0  0  0  0
  144.6139  132.2737  150.0629 C   0  0  0  0  0  0  0  0  0  0  0  0
  144.9037  133.3963  151.0744 C   0  0  0  0  0  0  0  0  0  0  0  0
  145.8121  132.9626  152.1666 N   0  3  2  0  0  0  0  0  0  0  0  0
  145.7012  133.8361  153.3638 C   0  0  0  0  0  0  0  0  0  0  0  0
  146.5487  133.3013  154.5331 C   0  0  0  0  0  0  0  0  0  0  0  0
  148.0227  133.1100  154.1374 C   0  0  2  0  0  0  0  0  0  0  0  0
  148.6797  134.4062  153.9684 N   0  0  0  0  0  0  0  0  0  0  0  0
  149.6680  134.8815  154.7407 C   0  0  0  0  0  0  0  0  0  0  0  0
  150.1457  134.2589  155.6891 O   0  0  0  0  0  0  0  0  0  0  0  0
  150.0525  136.1059  154.3403 N   0  0  0  0  0  0  0  0  0  0  0  0
  151.0834  136.9186  154.8810 C   0  0  0  0  0  0  0  0  0  0  0  0
  150.9965  138.2922  154.5689 C   0  0  0  0  0  0  0  0  0  0  0  0
  151.9889  139.1532  155.0675 C   0  0  0  0  0  0  0  0  0  0  0  0
  153.0064  138.5783  155.8481 C   0  0  0  0  0  0  0  0  0  0  0  0
  153.0501  137.2565  156.1225 N   0  0  0  0  0  0  0  0  0  0  0  0
  152.1020  136.4431  155.6445 N   0  0  0  0  0  0  0  0  0  0  0  0
  148.1029  132.2498  152.8608 C   0  0  0  0  0  0  0  0  0  0  0  0
  147.2258  132.8131  151.7291 C   0  0  0  0  0  0  0  0  0  0  0  0
  143.4788  131.9155  148.2434 H   0  0  0  0  0  0  0  0  0  0  0  0
  144.0879  133.5621  148.3871 H   0  0  0  0  0  0  0  0  0  0  0  0
  142.7043  133.0453  149.3504 H   0  0  0  0  0  0  0  0  0  0  0  0
  144.1745  131.4194  150.5796 H   0  0  0  0  0  0  0  0  0  0  0  0
  145.5374  131.9184  149.6071 H   0  0  0  0  0  0  0  0  0  0  0  0
  145.3165  134.2735  150.5735 H   0  0  0  0  0  0  0  0  0  0  0  0
  143.9523  133.7094  151.5071 H   0  0  0  0  0  0  0  0  0  0  0  0
  146.0077  134.8507  153.1042 H   0  0  0  0  0  0  0  0  0  0  0  0
  144.6592  133.8944  153.6809 H   0  0  0  0  0  0  0  0  0  0  0  0
  146.4704  133.9709  155.3905 H   0  0  0  0  0  0  0  0  0  0  0  0
  146.1396  132.3441  154.8593 H   0  0  0  0  0  0  0  0  0  0  0  0
  148.5268  132.5839  154.9503 H   0  0  0  0  0  0  0  0  0  0  0  0
  148.3461  134.9915  153.2166 H   0  0  0  0  0  0  0  0  0  0  0  0
  149.5574  136.5002  153.5544 H   0  0  0  0  0  0  0  0  0  0  0  0
  150.1909  138.6801  153.9625 H   0  0  0  0  0  0  0  0  0  0  0  0
  151.9711  140.2127  154.8594 H   0  0  0  0  0  0  0  0  0  0  0  0
  153.7983  139.1867  156.2592 H   0  0  0  0  0  0  0  0  0  0  0  0
  149.1351  132.1556  152.5215 H   0  0  0  0  0  0  0  0  0  0  0  0
  147.7731  131.2365  153.0938 H   0  0  0  0  0  0  0  0  0  0  0  0
  147.2897  132.1403  150.8748 H   0  0  0  0  0  0  0  0  0  0  0  0
  147.6114  133.7781  151.3966 H   0  0  0  0  0  0  0  0  0  0  0  0
  145.4945  132.0485  152.4560 H   0  0  0  0  0  0  0  0  0  0  0  0
  1  2  1  0  0  0  0
  1 20  1  0  0  0  0
  1 21  1  0  0  0  0
  1 22  1  0  0  0  0
  2  3  1  0  0  0  0
  2 23  1  0  0  0  0
  2 24  1  0  0  0  0
  3  4  1  0  0  0  0
  3 25  1  0  0  0  0
  3 26  1  0  0  0  0
  4 19  1  0  0  0  0
  4  5  1  0  0  0  0
  4 41  1  0  0  0  0
  5  6  1  0  0  0  0
  5 27  1  0  0  0  0
  5 28  1  0  0  0  0
  6  7  1  0  0  0  0
  6 29  1  0  0  0  0
  6 30  1  0  0  0  0
  7  8  1  0  0  0  0
  7 18  1  0  0  0  0
  7 31  1  0  0  0  0
  8  9  1  0  0  0  0
  8 32  1  0  0  0  0
  9 10  2  0  0  0  0
  9 11  1  0  0  0  0
 11 12  1  0  0  0  0
 11 33  1  0  0  0  0
 12 17  1  0  0  0  0
 12 13  2  0  0  0  0
 13 14  1  0  0  0  0
 13 34  1  0  0  0  0
 14 15  2  0  0  0  0
 14 35  1  0  0  0  0
 15 16  1  0  0  0  0
 15 36  1  0  0  0  0
 16 17  2  0  0  0  0
 18 19  1  0  0  0  0
 18 37  1  0  0  0  0
 18 38  1  0  0  0  0
 19 39  1  0  0  0  0
 19 40  1  0  0  0  0
M  CHG  1   4   1
M  END
> <s_m_source_file>
AV-unprocessed.smi

> <i_m_source_file_index>
656

> <i_lp_mmshare_version>
43012

> <i_f3d_flags>
0

> <s_epik_input>
W0NIM11bQ0gyXVtDSDJdTjFbQ0gyXVtDSDJdW0NIXShbQ0gyXVtDSDJdMSlbTkhdQyg9TylbTkhdYzJbY0hdW2NIXVtjSF1ubjI=

> <s_epik_cmdline>
J2VwaWtfcHl0aG9uJywgJy1waCcsICc3LjAnLCAnLXRuJywgJzgnLCAnLW1hJywgJzIwMCcsICctbWV0YWxfYmluZGluZycsICctaW1hZScsICc8aW5maWxlLm1hZT4nLCAnLW9tYWUnLCAnPG91dGZpbGUubWFlPic=

> <r_lp_tautomer_probability>
1

> <r_epik_Ionization_Penalty>
0.00614766

> <r_epik_Ionization_Penalty_Charging>
0.00269617

> <r_epik_Ionization_Penalty_Neutral>
0.00345149

> <r_epik_State_Penalty>
-0

> <r_epik_Charging_Adjusted_Penalty>
0.00269617

> <i_epik_Tot_Q>
1

> <i_epik_Tot_abs_Q>
1

> <r_epik_Metal_State_Penalty>
-0

> <b_epik_Metal_Only>
0

> <s_lp_Force_Field>
OPLS_2005

> <r_lp_Energy>
22.9398

> <b_lp_Chiralities_Consistent>
1

> <s_lp_Variant>
AV-unprocessed.smi:656-2

> <Gold.Version>
5.8.1

> <Gold.Id.Protein>
6NUR|6NUR_protein|mol2

> <Gold.PLP.Fitness>
40.3641

> <Gold.PLP.PLP>
-32.4783

> <Gold.PLP.part.hbond>
-4.6455

> <Gold.PLP.part.metal>
0.0000

> <Gold.PLP.part.buried>
-0.6350

> <Gold.PLP.part.nonpolar>
-27.3836

> <Gold.PLP.part.repulsive>
0.1174

> <Gold.PLP.ligand.clash>
0.0000

> <Gold.PLP.ligand.torsion>
0.2554

> <Gold.PLP.Chemscore.Hbond>
2.7900

> <Gold.PLP.Chemscore.CHOScore>
0.0000

> <Gold.PLP.Chemscore.Metal>
0.0000

> <Gold.Chemscore.Hbonds>
donor molecule, donor type, donor heavy atom, donor atom, acceptor molecule, acceptor atom, score
      L1  H     8    32       P1  7948  0.83
      L1  H    11    33       P1  7948  0.91
      P1  H 10752 10763       L1    17  1.00

> <Gold.PLP.Chemscore.Internal.Correction>
0.0265

> <Gold.Rescore>
     Score         DG    S(hbond)    S(metal)    S(lipo)     H(rot)  DE(clash)    DE(int)     intcor
     14.06     -16.10       1.63        0.00      75.94       1.45       0.55       1.50       ----

> <Gold.Chemscore.Fitness>
14.0580

> <Gold.Chemscore.DG>
-16.1018

> <Gold.Chemscore.ZeroCoef>
-5.4800

> <Gold.Chemscore.Hbond>
1.6328

> <Gold.Chemscore.Metal>
0.0000

> <Gold.Chemscore.Lipo>
75.9392

> <Gold.Chemscore.Internal_Hbond>
0.0000

> <Gold.Chemscore.DEClash>
0.5476

> <Gold.Chemscore.DEInternal>
1.4962

> <Gold.Chemscore.Rot>
1.4518

> <Gold.Chemscore.Internal.Correction>
   9.000000E+99

> <Gold.Chemscore.Hbonds>
donor molecule, donor type, donor heavy atom, donor atom, acceptor molecule, acceptor atom, score
      L1  H     8    32       P1  7948  0.69
      L1  H    11    33       P1  7948  0.58
      P1  H 10752 10763       L1    17  0.12

> <Gold.Chemscore.Hbond.Weighted>
-5.4534

> <Gold.Chemscore.Metal.Weighted>
-0.0000

> <Gold.Chemscore.Lipo.Weighted>
-8.8849

> <Gold.Chemscore.Internal_Hbond.Weighted>
0.0000

> <Gold.Chemscore.DEClash.Weighted>
0.5476

> <Gold.Chemscore.DEInternal.Weighted>
1.4962

> <Gold.Chemscore.Rot.Weighted>
3.7165

> <Gold.Chemscore.Internal.Correction.Weighted>
   9.000000E+99

> <Gold.Protein.RotatedTorsions>
[ 6907 6896 6895 6894 ] final -145.44 input  -60.11 | X-H torsion
[ 7974 7965 7964 7962 ] final    4.79 input  175.53 | X-H torsion
[ 8008 7997 7996 7995 ] final  -65.38 input   59.86 | X-H torsion
[ 10167 10162 10161 10158 ] final  172.82 input  -65.29 | X-H torsion
[ 10718 10713 10712 10709 ] final  156.29 input   66.30 | X-H torsion
[ 10763 10752 10751 10750 ] final   63.27 input  -60.55 | X-H torsion
[ 11005 11000 10999 10996 ] final   82.80 input  -57.11 | X-H torsion

> <Gold.Protein.ActiveResidues>
 VAL166  LYS551  ARG553  GLY616  TRP617  ASP618  TYR619  PRO620  LYS621  CYS622 
 ASP623  PHE694  ASN695  SER759  ASP760  ASP761  ALA762  ILE779  LEU786  VAL792 
 PHE793  MET794  SER795  GLU796  ALA797  LYS798  CYS799  TRP800  GLU811  SER814 

> <Gold.Protein.RotatedAtoms>
  151.1277  133.5058  159.2599 H   0  0  0  0  0  0  0  0  0  0  0  0  # atno 6907 bound_to 6896
  151.1791  135.0352  159.8795 H   0  0  0  0  0  0  0  0  0  0  0  0  # atno 6908 bound_to 6896
  152.5458  134.1132  159.8420 H   0  0  0  0  0  0  0  0  0  0  0  0  # atno 6909 bound_to 6896
  146.2443  140.0481  142.8377 H   0  0  0  0  0  0  0  0  0  0  0  0  # atno 7974 bound_to 7965
  154.4668  140.0934  156.7042 H   0  0  0  0  0  0  0  0  0  0  0  0  # atno 8008 bound_to 7997
  155.4834  140.3468  155.4325 H   0  0  0  0  0  0  0  0  0  0  0  0  # atno 8009 bound_to 7997
  156.0971  140.1412  156.9505 H   0  0  0  0  0  0  0  0  0  0  0  0  # atno 8010 bound_to 7997
  139.5088  144.3330  152.0092 H   0  0  0  0  0  0  0  0  0  0  0  0  # atno 10167 bound_to 10162
  157.2069  131.0689  151.1992 H   0  0  0  0  0  0  0  0  0  0  0  0  # atno 10718 bound_to 10713
  153.0012  135.5435  154.6326 H   0  0  0  0  0  0  0  0  0  0  0  0  # atno 10763 bound_to 10752
  154.5600  135.2833  155.0930 H   0  0  0  0  0  0  0  0  0  0  0  0  # atno 10764 bound_to 10752
  154.2137  135.6463  153.5175 H   0  0  0  0  0  0  0  0  0  0  0  0  # atno 10765 bound_to 10752
  139.9052  134.8098  156.2223 H   0  0  0  0  0  0  0  0  0  0  0  0  # atno 11005 bound_to 11000
  145.1009  140.9345  143.4713 LP  0  0  0  0  0  0  0  0  0  0  0  0  # atno 17320 bound_to 7965
  145.0674  139.3058  143.5849 LP  0  0  0  0  0  0  0  0  0  0  0  0  # atno 17321 bound_to 7965
  140.2770  144.3902  150.6132 LP  0  0  0  0  0  0  0  0  0  0  0  0  # atno 17342 bound_to 10162
  140.6046  143.2167  151.7005 LP  0  0  0  0  0  0  0  0  0  0  0  0  # atno 17343 bound_to 10162
  157.3711  130.7181  149.6565 LP  0  0  0  0  0  0  0  0  0  0  0  0  # atno 17370 bound_to 10713
  155.9694  130.4198  150.4395 LP  0  0  0  0  0  0  0  0  0  0  0  0  # atno 17371 bound_to 10713
  141.0398  133.6944  156.1577 LP  0  0  0  0  0  0  0  0  0  0  0  0  # atno 17394 bound_to 11000
  140.6973  134.4602  157.5587 LP  0  0  0  0  0  0  0  0  0  0  0  0  # atno 17395 bound_to 11000

$$$$
