AV-unprocessed.smi:158|AV-procd|sdf|1323|dock6
  -GOLD-   2262019 13D 1   1.00000     0.00000
 Structure written by MMmdl.
 31 33  0  0  0  0  0  0  0  0  1 V2000
  155.6420  140.1478  160.1457 N   0  0  0  0  0  0  0  0  0  0  0  0
  154.3996  140.6350  160.0187 C   0  0  0  0  0  0  0  0  0  0  0  0
  153.9895  141.5897  160.8859 N   0  0  0  0  0  0  0  0  0  0  0  0
  152.7566  142.1024  160.7923 C   0  0  0  0  0  0  0  0  0  0  0  0
  152.3361  143.3126  161.9461 Cl  0  0  0  0  0  0  0  0  0  0  0  0
  151.8111  141.7817  159.9033 N   0  0  0  0  0  0  0  0  0  0  0  0
  152.2192  140.8193  159.0267 C   0  0  0  0  0  0  0  0  0  0  0  0
  153.4966  140.1978  159.0190 C   0  0  0  0  0  0  0  0  0  0  0  0
  153.5654  139.2685  157.9902 N   0  0  0  0  0  0  0  0  0  0  0  0
  152.3907  139.3412  157.4236 C   0  0  0  0  0  0  0  0  0  0  0  0
  151.5168  140.2469  157.9848 N   0  0  0  0  0  0  0  0  0  0  0  0
  150.1128  140.5437  157.5548 C   0  0  2  0  0  0  0  0  0  0  0  0
  149.7001  139.5186  156.7022 O   0  0  0  0  0  0  0  0  0  0  0  0
  149.1124  140.0655  155.5265 C   0  0  2  0  0  0  0  0  0  0  0  0
  149.2885  139.0806  154.3594 C   0  0  0  0  0  0  0  0  0  0  0  0
  148.5866  139.5311  153.2198 O   0  0  0  0  0  0  0  0  0  0  0  0
  149.8192  141.4121  155.3432 C   0  0  1  0  0  0  0  0  0  0  0  0
  149.0136  142.3308  154.6330 O   0  0  0  0  0  0  0  0  0  0  0  0
  150.0136  141.8685  156.7781 C   0  0  2  0  0  0  0  0  0  0  0  0
  151.1050  142.6230  156.9299 F   0  0  0  0  0  0  0  0  0  0  0  0
  149.5342  140.5435  158.4792 H   0  0  0  0  0  0  0  0  0  0  0  0
  148.0530  140.2195  155.7413 H   0  0  0  0  0  0  0  0  0  0  0  0
  150.7803  141.2859  154.8443 H   0  0  0  0  0  0  0  0  0  0  0  0
  149.1515  142.4245  157.1497 H   0  0  0  0  0  0  0  0  0  0  0  0
  155.9686  139.4353  159.5090 H   0  0  0  0  0  0  0  0  0  0  0  0
  156.2481  140.4924  160.8762 H   0  0  0  0  0  0  0  0  0  0  0  0
  152.1256  138.7276  156.5747 H   0  0  0  0  0  0  0  0  0  0  0  0
  150.3418  138.9460  154.1123 H   0  0  0  0  0  0  0  0  0  0  0  0
  148.8955  138.1019  154.6355 H   0  0  0  0  0  0  0  0  0  0  0  0
  149.1980  139.6113  152.5035 H   0  0  0  0  0  0  0  0  0  0  0  0
  149.1752  143.1961  154.9785 H   0  0  0  0  0  0  0  0  0  0  0  0
  1  2  1  0  0  0  0
  1 25  1  0  0  0  0
  1 26  1  0  0  0  0
  2  8  1  0  0  0  0
  2  3  2  0  0  0  0
  3  4  1  0  0  0  0
  4  5  1  0  0  0  0
  4  6  2  0  0  0  0
  6  7  1  0  0  0  0
  7 11  1  0  0  0  0
  7  8  2  0  0  0  0
  8  9  1  0  0  0  0
  9 10  2  0  0  0  0
 10 11  1  0  0  0  0
 10 27  1  0  0  0  0
 11 12  1  0  0  0  0
 12 21  1  0  0  0  0
 12 19  1  0  0  0  0
 12 13  1  0  0  0  0
 13 14  1  0  0  0  0
 14 22  1  0  0  0  0
 14 15  1  0  0  0  0
 14 17  1  0  0  0  0
 15 16  1  0  0  0  0
 15 28  1  0  0  0  0
 15 29  1  0  0  0  0
 16 30  1  0  0  0  0
 17 23  1  0  0  0  0
 17 18  1  0  0  0  0
 17 19  1  0  0  0  0
 18 31  1  0  0  0  0
 19 24  1  0  0  0  0
 19 20  1  0  0  0  0
M  END
> <s_m_source_file>
AV-unprocessed.smi

> <i_m_source_file_index>
158

> <i_lp_mmshare_version>
43012

> <i_f3d_flags>
0

> <s_epik_input>
Q2xjKG4xKW5jKFtOSDJdKWMoYzEyKW5bY0hdbjJbQ0BASF0zT1tDQEhdKFtDSDJdW09IXSlbQ0BASF0oW09IXSlbQ0BASF0zRg==

> <s_epik_cmdline>
J2VwaWtfcHl0aG9uJywgJy1waCcsICc3LjAnLCAnLXRuJywgJzgnLCAnLW1hJywgJzIwMCcsICctbWV0YWxfYmluZGluZycsICctaW1hZScsICc8aW5maWxlLm1hZT4nLCAnLW9tYWUnLCAnPG91dGZpbGUubWFlPic=

> <r_lp_tautomer_probability>
1

> <r_epik_Ionization_Penalty>
6.51543e-05

> <r_epik_Ionization_Penalty_Charging>
0

> <r_epik_Ionization_Penalty_Neutral>
6.51543e-05

> <r_epik_State_Penalty>
-0

> <r_epik_Charging_Adjusted_Penalty>
0

> <i_epik_Tot_Q>
0

> <i_epik_Tot_abs_Q>
0

> <r_epik_Metal_State_Penalty>
-0

> <b_epik_Metal_Only>
0

> <s_epik_Chemistry_Notes>
This compound contains an acetal/aminal-like group ( X-CH(R)-Y where X, Y are N, S, or O) that may be acid/base labile, releasing an aldehyde.

> <s_lp_Force_Field>
OPLS_2005

> <r_lp_Energy>
34.2201

> <b_lp_Chiralities_Consistent>
1

> <s_lp_Variant>
AV-unprocessed.smi:158-1

> <Gold.Version>
5.8.1

> <Gold.Id.Protein>
6NUR|6NUR_protein|mol2

> <Gold.PLP.Fitness>
42.7229

> <Gold.PLP.PLP>
-35.1229

> <Gold.PLP.part.hbond>
-3.9499

> <Gold.PLP.part.metal>
0.0000

> <Gold.PLP.part.buried>
-6.1018

> <Gold.PLP.part.nonpolar>
-24.9076

> <Gold.PLP.part.repulsive>
0.0683

> <Gold.PLP.ligand.clash>
0.6034

> <Gold.PLP.ligand.torsion>
0.4370

> <Gold.PLP.Chemscore.Hbond>
3.0156

> <Gold.PLP.Chemscore.CHOScore>
0.0000

> <Gold.PLP.Chemscore.Metal>
0.0000

> <Gold.Chemscore.Hbonds>
donor molecule, donor type, donor heavy atom, donor atom, acceptor molecule, acceptor atom, score
      L1  H    16    30       P1  7957  0.84
      L1  H    18    31       P1  8028  1.00
      P1  H  7997  8009       L1     9  0.95
      P1  H  8011  8017       L1    18  0.01

> <Gold.PLP.Chemscore.Internal.Correction>
0.0306

> <Gold.Rescore>
     Score         DG    S(hbond)    S(metal)    S(lipo)     H(rot)  DE(clash)    DE(int)     intcor
      8.06      -9.67       2.20        0.00      41.25       3.12       0.01       1.59       ----

> <Gold.Chemscore.Fitness>
8.0614

> <Gold.Chemscore.DG>
-9.6662

> <Gold.Chemscore.ZeroCoef>
-5.4800

> <Gold.Chemscore.Hbond>
2.2020

> <Gold.Chemscore.Metal>
0.0000

> <Gold.Chemscore.Lipo>
41.2512

> <Gold.Chemscore.Internal_Hbond>
0.0000

> <Gold.Chemscore.DEClash>
0.0120

> <Gold.Chemscore.DEInternal>
1.5928

> <Gold.Chemscore.Rot>
3.1230

> <Gold.Chemscore.Internal.Correction>
   9.000000E+99

> <Gold.Chemscore.Hbonds>
donor molecule, donor type, donor heavy atom, donor atom, acceptor molecule, acceptor atom, score
      L1  H    16    30       P1  7957  0.80
      L1  H    18    31       P1  8028  0.99
      P1  H  7997  8009       L1     9  0.08
      P1  H  8011  8017       L1    18  0.01

> <Gold.Chemscore.Hbond.Weighted>
-7.3547

> <Gold.Chemscore.Metal.Weighted>
-0.0000

> <Gold.Chemscore.Lipo.Weighted>
-4.8264

> <Gold.Chemscore.Internal_Hbond.Weighted>
0.0000

> <Gold.Chemscore.DEClash.Weighted>
0.0120

> <Gold.Chemscore.DEInternal.Weighted>
1.5928

> <Gold.Chemscore.Rot.Weighted>
7.9950

> <Gold.Chemscore.Internal.Correction.Weighted>
   9.000000E+99

> <Gold.Protein.RotatedTorsions>
[ 6907 6896 6895 6894 ] final  -20.19 input  -60.11 | X-H torsion
[ 7974 7965 7964 7962 ] final   99.52 input  175.53 | X-H torsion
[ 8008 7997 7996 7995 ] final  170.14 input   59.86 | X-H torsion
[ 10167 10162 10161 10158 ] final   48.60 input  -65.29 | X-H torsion
[ 10718 10713 10712 10709 ] final -147.03 input   66.30 | X-H torsion
[ 10763 10752 10751 10750 ] final  158.16 input  -60.55 | X-H torsion
[ 11005 11000 10999 10996 ] final   55.41 input  -57.11 | X-H torsion

> <Gold.Protein.ActiveResidues>
 VAL166  LYS551  ARG553  GLY616  TRP617  ASP618  TYR619  PRO620  LYS621  CYS622 
 ASP623  PHE694  ASN695  SER759  ASP760  ASP761  ALA762  ILE779  LEU786  VAL792 
 PHE793  MET794  SER795  GLU796  ALA797  LYS798  CYS799  TRP800  GLU811  SER814 

> <Gold.Protein.RotatedAtoms>
  151.2519  135.0625  159.9064 H   0  0  0  0  0  0  0  0  0  0  0  0  # atno 6907 bound_to 6896
  152.5379  134.0323  159.8040 H   0  0  0  0  0  0  0  0  0  0  0  0  # atno 6908 bound_to 6896
  151.0533  133.5557  159.2671 H   0  0  0  0  0  0  0  0  0  0  0  0  # atno 6909 bound_to 6896
  145.3978  139.2352  143.3316 H   0  0  0  0  0  0  0  0  0  0  0  0  # atno 7974 bound_to 7965
  156.1392  140.1545  156.8946 H   0  0  0  0  0  0  0  0  0  0  0  0  # atno 8008 bound_to 7997
  154.4973  140.0834  156.7763 H   0  0  0  0  0  0  0  0  0  0  0  0  # atno 8009 bound_to 7997
  155.4110  140.3419  155.4266 H   0  0  0  0  0  0  0  0  0  0  0  0  # atno 8010 bound_to 7997
  140.2916  144.3039  150.6239 H   0  0  0  0  0  0  0  0  0  0  0  0  # atno 10167 bound_to 10162
  156.4023  130.7940  151.2152 H   0  0  0  0  0  0  0  0  0  0  0  0  # atno 10718 bound_to 10713
  154.2116  135.2786  155.2956 H   0  0  0  0  0  0  0  0  0  0  0  0  # atno 10763 bound_to 10752
  154.5774  135.5600  153.7156 H   0  0  0  0  0  0  0  0  0  0  0  0  # atno 10764 bound_to 10752
  153.0063  135.6336  154.2255 H   0  0  0  0  0  0  0  0  0  0  0  0  # atno 10765 bound_to 10752
  140.0609  134.5603  155.9153 H   0  0  0  0  0  0  0  0  0  0  0  0  # atno 11005 bound_to 11000
  146.2766  140.4671  142.8793 LP  0  0  0  0  0  0  0  0  0  0  0  0  # atno 17320 bound_to 7965
  144.8395  140.6835  143.6238 LP  0  0  0  0  0  0  0  0  0  0  0  0  # atno 17321 bound_to 7965
  140.5727  143.2179  151.7570 LP  0  0  0  0  0  0  0  0  0  0  0  0  # atno 17342 bound_to 10162
  139.4936  144.4193  151.9995 LP  0  0  0  0  0  0  0  0  0  0  0  0  # atno 17343 bound_to 10162
  157.7504  131.0283  150.4042 LP  0  0  0  0  0  0  0  0  0  0  0  0  # atno 17370 bound_to 10713
  156.4324  130.3975  149.6751 LP  0  0  0  0  0  0  0  0  0  0  0  0  # atno 17371 bound_to 10713
  141.1973  133.6595  156.5733 LP  0  0  0  0  0  0  0  0  0  0  0  0  # atno 17394 bound_to 11000
  140.3771  134.7555  157.4637 LP  0  0  0  0  0  0  0  0  0  0  0  0  # atno 17395 bound_to 11000

$$$$
