AV-unprocessed.smi:72|AV-procd|sdf|732|dock9
  -GOLD-   2262017 63D 1   1.00000     0.00000
 Structure written by MMmdl.
 28 29  0  0  0  0  0  0  0  0  2 V2000
  153.8386  137.5162  156.0024 N   0  0  0  0  0  0  0  0  0  0  0  0
  152.8097  138.1163  155.5884 C   0  0  0  0  0  0  0  0  0  0  0  0
  151.9910  137.5190  154.5563 N   0  0  0  0  0  0  0  0  0  0  0  0
  150.9367  138.1685  154.1684 C   0  0  0  0  0  0  0  0  0  0  0  0
  150.5703  139.4565  154.7445 N   0  0  0  0  0  0  0  0  0  0  0  0
  149.3342  140.2222  154.2993 C   0  0  1  0  0  0  0  0  0  0  0  0
  148.7783  139.6176  153.1655 O   0  0  0  0  0  0  0  0  0  0  0  0
  147.5481  138.9860  153.5008 C   0  0  2  0  0  0  0  0  0  0  0  0
  146.6744  138.7835  152.2505 C   0  0  0  0  0  0  0  0  0  0  0  0
  147.3788  138.0489  151.2718 O   0  0  0  0  0  0  0  0  0  0  0  0
  146.9792  139.8736  154.6147 C   0  0  2  0  0  0  0  0  0  0  0  0
  146.3251  141.0106  154.0822 O   0  0  0  0  0  0  0  0  0  0  0  0
  148.2276  140.2881  155.3833 C   0  0  1  0  0  0  0  0  0  0  0  0
  148.4333  139.4032  156.4714 O   0  0  0  0  0  0  0  0  0  0  0  0
  151.3965  140.0203  155.7533 C   0  0  0  0  0  0  0  0  0  0  0  0
  151.0679  141.1068  156.2306 O   0  0  0  0  0  0  0  0  0  0  0  0
  152.5066  139.3369  156.1495 N   0  5  0  0  0  0  0  0  0  0  0  0
  149.6937  141.2061  153.9941 H   0  0  0  0  0  0  0  0  0  0  0  0
  147.7855  138.0097  153.9267 H   0  0  0  0  0  0  0  0  0  0  0  0
  146.2618  139.3359  155.2364 H   0  0  0  0  0  0  0  0  0  0  0  0
  148.1563  141.3028  155.7775 H   0  0  0  0  0  0  0  0  0  0  0  0
  154.3269  138.0297  156.7213 H   0  0  0  0  0  0  0  0  0  0  0  0
  150.2700  137.7895  153.3946 H   0  0  0  0  0  0  0  0  0  0  0  0
  145.7395  138.2768  152.4903 H   0  0  0  0  0  0  0  0  0  0  0  0
  146.4080  139.7518  151.8261 H   0  0  0  0  0  0  0  0  0  0  0  0
  147.7937  137.3107  151.6917 H   0  0  0  0  0  0  0  0  0  0  0  0
  145.5309  140.7254  153.6573 H   0  0  0  0  0  0  0  0  0  0  0  0
  148.0387  139.7794  157.2430 H   0  0  0  0  0  0  0  0  0  0  0  0
  1  2  2  0  0  0  0
  1 22  1  0  0  0  0
  2 17  1  0  0  0  0
  2  3  1  0  0  0  0
  3  4  2  0  0  0  0
  4  5  1  0  0  0  0
  4 23  1  0  0  0  0
  5  6  1  0  0  0  0
  5 15  1  0  0  0  0
  6 18  1  0  0  0  0
  6 13  1  0  0  0  0
  6  7  1  0  0  0  0
  7  8  1  0  0  0  0
  8 19  1  0  0  0  0
  8  9  1  0  0  0  0
  8 11  1  0  0  0  0
  9 10  1  0  0  0  0
  9 24  1  0  0  0  0
  9 25  1  0  0  0  0
 10 26  1  0  0  0  0
 11 20  1  0  0  0  0
 11 12  1  0  0  0  0
 11 13  1  0  0  0  0
 12 27  1  0  0  0  0
 13 21  1  0  0  0  0
 13 14  1  0  0  0  0
 14 28  1  0  0  0  0
 15 16  2  0  0  0  0
 15 17  1  0  0  0  0
M  CHG  1  17  -1
M  END
> <s_m_source_file>
AV-unprocessed.smi

> <i_m_source_file_index>
72

> <i_lp_mmshare_version>
43012

> <i_f3d_flags>
0

> <s_epik_input>
W05IMl1jMW5bY0hdbihjKD1PKW4xKVtDQEBIXTJPW0NASF0oW0NIMl1bT0hdKVtDQEBIXShbT0hdKVtDQEhdMltPSF0=

> <s_epik_cmdline>
J2VwaWtfcHl0aG9uJywgJy1waCcsICc3LjAnLCAnLXRuJywgJzgnLCAnLW1hJywgJzIwMCcsICctbWV0YWxfYmluZGluZycsICctaW1hZScsICc8aW5maWxlLm1hZT4nLCAnLW9tYWUnLCAnPG91dGZpbGUubWFlPic=

> <r_lp_tautomer_probability>
7.17554e-07

> <r_epik_Ionization_Penalty>
12.8705

> <r_epik_Ionization_Penalty_Charging>
5.64144

> <r_epik_Ionization_Penalty_Neutral>
7.22905

> <r_epik_State_Penalty>
3.30104

> <r_epik_Charging_Adjusted_Penalty>
8.94249

> <i_epik_Tot_Q>
-1

> <i_epik_Tot_abs_Q>
1

> <r_epik_Metal_State_Penalty>
0.529074

> <b_epik_Metal_Only>
1

> <s_epik_Chemistry_Notes>
This compound contains an acetal/aminal-like group ( X-CH(R)-Y where X, Y are N, S, or O) that may be acid/base labile, releasing an aldehyde.

> <s_lp_Force_Field>
OPLS_2005

> <r_lp_Energy>
37.8021

> <b_lp_Chiralities_Consistent>
1

> <s_lp_Variant>
AV-unprocessed.smi:72-70

> <Gold.Version>
5.8.1

> <Gold.Id.Protein>
6NUR|6NUR_protein|mol2

> <Gold.PLP.Fitness>
42.0161

> <Gold.PLP.PLP>
-23.5921

> <Gold.PLP.part.hbond>
-6.3014

> <Gold.PLP.part.metal>
0.0000

> <Gold.PLP.part.buried>
-4.9107

> <Gold.PLP.part.nonpolar>
-19.5343

> <Gold.PLP.part.repulsive>
6.0380

> <Gold.PLP.ligand.clash>
0.0000

> <Gold.PLP.ligand.torsion>
0.1664

> <Gold.PLP.Chemscore.Hbond>
5.1559

> <Gold.PLP.Chemscore.CHOScore>
1.0829

> <Gold.PLP.Chemscore.Metal>
0.0000

> <Gold.Chemscore.Hbonds>
donor molecule, donor type, donor heavy atom, donor atom, acceptor molecule, acceptor atom, score
      L1  H    10    26       P1  7948  1.00
      L1  H    12    27       P1 10175  0.57
      P1  H  7954  7966       L1    10  0.70
      P1  H  7997  8008       L1    17  2.00
      P1  H 10752 10763       L1     1  0.07
      P1  H 10752 10765       L1     3  0.69
      L1  C     4    23       P1  7948  0.96
      L1  C     4    23       P1  7949  0.12

> <Gold.PLP.Chemscore.Internal.Correction>
0.0404

> <Gold.Rescore>
     Score         DG    S(hbond)    S(metal)    S(lipo)     H(rot)  DE(clash)    DE(int)     intcor
      5.40      -7.67       3.05        0.00      19.91       4.04       1.95       0.31       ----

> <Gold.Chemscore.Fitness>
5.4038

> <Gold.Chemscore.DG>
-7.6655

> <Gold.Chemscore.ZeroCoef>
-5.4800

> <Gold.Chemscore.Hbond>
3.0538

> <Gold.Chemscore.Metal>
0.0000

> <Gold.Chemscore.Lipo>
19.9053

> <Gold.Chemscore.Internal_Hbond>
0.0000

> <Gold.Chemscore.DEClash>
1.9504

> <Gold.Chemscore.DEInternal>
0.3112

> <Gold.Chemscore.Rot>
4.0403

> <Gold.Chemscore.Internal.Correction>
   9.000000E+99

> <Gold.Chemscore.Hbonds>
donor molecule, donor type, donor heavy atom, donor atom, acceptor molecule, acceptor atom, score
      L1  H    10    26       P1  7948  0.92
      L1  H    12    27       P1 10175  0.52
      P1  H  7954  7966       L1    10  0.07
      P1  H  7997  8008       L1    17  0.28
      P1  H 10752 10763       L1     1  0.08
      P1  H 10752 10765       L1     3  0.23

> <Gold.Chemscore.Hbond.Weighted>
-10.1996

> <Gold.Chemscore.Metal.Weighted>
-0.0000

> <Gold.Chemscore.Lipo.Weighted>
-2.3289

> <Gold.Chemscore.Internal_Hbond.Weighted>
0.0000

> <Gold.Chemscore.DEClash.Weighted>
1.9504

> <Gold.Chemscore.DEInternal.Weighted>
0.3112

> <Gold.Chemscore.Rot.Weighted>
10.3431

> <Gold.Chemscore.Internal.Correction.Weighted>
   9.000000E+99

> <Gold.Protein.RotatedTorsions>
[ 6907 6896 6895 6894 ] final   93.19 input  -60.11 | X-H torsion
[ 7974 7965 7964 7962 ] final   17.51 input  175.53 | X-H torsion
[ 8008 7997 7996 7995 ] final  -51.10 input   59.86 | X-H torsion
[ 10167 10162 10161 10158 ] final   56.99 input  -65.29 | X-H torsion
[ 10718 10713 10712 10709 ] final -145.68 input   66.30 | X-H torsion
[ 10763 10752 10751 10750 ] final  154.75 input  -60.55 | X-H torsion
[ 11005 11000 10999 10996 ] final  175.10 input  -57.11 | X-H torsion

> <Gold.Protein.ActiveResidues>
 VAL166  LYS551  ARG553  GLY616  TRP617  ASP618  TYR619  PRO620  LYS621  CYS622 
 ASP623  PHE694  ASN695  SER759  ASP760  ASP761  ALA762  ILE779  LEU786  VAL792 
 PHE793  MET794  SER795  GLU796  ALA797  LYS798  CYS799  TRP800  GLU811  SER814 

> <Gold.Protein.RotatedAtoms>
  152.5452  134.1386  159.8468 H   0  0  0  0  0  0  0  0  0  0  0  0  # atno 6907 bound_to 6896
  151.1424  133.4955  159.2604 H   0  0  0  0  0  0  0  0  0  0  0  0  # atno 6908 bound_to 6896
  151.1559  135.0260  159.8743 H   0  0  0  0  0  0  0  0  0  0  0  0  # atno 6909 bound_to 6896
  146.2216  139.8591  142.8608 H   0  0  0  0  0  0  0  0  0  0  0  0  # atno 7974 bound_to 7965
  154.4075  140.1256  156.4773 H   0  0  0  0  0  0  0  0  0  0  0  0  # atno 8008 bound_to 7997
  155.7119  140.3493  155.4958 H   0  0  0  0  0  0  0  0  0  0  0  0  # atno 8009 bound_to 7997
  155.9292  140.1066  157.1136 H   0  0  0  0  0  0  0  0  0  0  0  0  # atno 8010 bound_to 7997
  140.2028  144.3970  150.6522 H   0  0  0  0  0  0  0  0  0  0  0  0  # atno 10167 bound_to 10162
  156.3855  130.7859  151.2056 H   0  0  0  0  0  0  0  0  0  0  0  0  # atno 10718 bound_to 10713
  154.1573  135.2811  155.3119 H   0  0  0  0  0  0  0  0  0  0  0  0  # atno 10763 bound_to 10752
  154.6173  135.5479  153.7540 H   0  0  0  0  0  0  0  0  0  0  0  0  # atno 10764 bound_to 10752
  153.0203  135.6430  154.1715 H   0  0  0  0  0  0  0  0  0  0  0  0  # atno 10765 bound_to 10752
  140.3585  134.7133  157.4315 H   0  0  0  0  0  0  0  0  0  0  0  0  # atno 11005 bound_to 11000
  145.2723  141.0112  143.3765 LP  0  0  0  0  0  0  0  0  0  0  0  0  # atno 17320 bound_to 7965
  144.9214  139.4407  143.6539 LP  0  0  0  0  0  0  0  0  0  0  0  0  # atno 17321 bound_to 7965
  140.6378  143.2198  151.6356 LP  0  0  0  0  0  0  0  0  0  0  0  0  # atno 17342 bound_to 10162
  139.5210  144.3205  152.0915 LP  0  0  0  0  0  0  0  0  0  0  0  0  # atno 17343 bound_to 10162
  157.7495  131.0331  150.4257 LP  0  0  0  0  0  0  0  0  0  0  0  0  # atno 17370 bound_to 10713
  156.4509  130.4011  149.6636 LP  0  0  0  0  0  0  0  0  0  0  0  0  # atno 17371 bound_to 10713
  140.0645  134.5948  155.8710 LP  0  0  0  0  0  0  0  0  0  0  0  0  # atno 17394 bound_to 11000
  141.1991  133.6605  156.5826 LP  0  0  0  0  0  0  0  0  0  0  0  0  # atno 17395 bound_to 11000

$$$$
