AV-unprocessed.smi:1742|AV-procd|sdf|7021|dock5
  -GOLD-   22720 8243D 1   1.00000     0.00000
 Structure written by MMmdl.
 34 35  0  0  0  0  0  0  0  0  1 V2000
  151.8973  141.2741  158.1748 C   0  0  0  0  0  0  0  0  0  0  0  0
  151.1962  141.4100  156.8184 C   0  0  0  0  0  0  0  0  0  0  0  0
  151.2688  140.1810  156.0529 N   0  0  0  0  0  0  0  0  0  0  0  0
  150.2561  139.2803  155.7902 C   0  0  0  0  0  0  0  0  0  0  0  0
  150.8229  138.2985  155.0276 C   0  0  0  0  0  0  0  0  0  0  0  0
  150.2334  137.1310  154.4810 N   0  0  0  0  0  0  0  0  0  0  0  0
  149.9666  135.9737  155.1162 C   0  0  0  0  0  0  0  0  0  0  0  0
  150.2022  135.7617  156.3040 O   0  0  0  0  0  0  0  0  0  0  0  0
  149.3987  135.0323  154.3415 N   0  0  0  0  0  0  0  0  0  0  0  0
  148.9852  133.6781  154.7118 C   0  0  1  0  0  0  0  0  0  0  0  0
  148.5519  132.8791  153.4683 C   0  0  0  0  0  0  0  0  0  0  0  0
  148.4837  131.3908  153.8331 C   0  0  0  0  0  0  0  0  0  0  0  0
  149.7351  131.1293  155.1469 S   0  0  0  0  0  0  0  0  0  0  0  0
  149.0629  130.6050  156.3453 O   0  0  0  0  0  0  0  0  0  0  0  0
  150.9126  130.4533  154.5815 O   0  0  0  0  0  0  0  0  0  0  0  0
  150.1233  132.9021  155.3946 C   0  0  0  0  0  0  0  0  0  0  0  0
  152.1831  138.6704  154.8669 C   0  0  0  0  0  0  0  0  0  0  0  0
  152.4446  139.8108  155.4878 N   0  0  0  0  0  0  0  0  0  0  0  0
  151.8498  142.2103  158.7310 H   0  0  0  0  0  0  0  0  0  0  0  0
  152.9488  141.0140  158.0499 H   0  0  0  0  0  0  0  0  0  0  0  0
  151.4302  140.5003  158.7847 H   0  0  0  0  0  0  0  0  0  0  0  0
  150.1484  141.6801  156.9574 H   0  0  0  0  0  0  0  0  0  0  0  0
  151.6551  142.2097  156.2358 H   0  0  0  0  0  0  0  0  0  0  0  0
  149.2524  139.4232  156.1622 H   0  0  0  0  0  0  0  0  0  0  0  0
  149.9861  137.1801  153.5035 H   0  0  0  0  0  0  0  0  0  0  0  0
  149.2213  135.2945  153.3825 H   0  0  0  0  0  0  0  0  0  0  0  0
  148.1289  133.7185  155.3878 H   0  0  0  0  0  0  0  0  0  0  0  0
  147.6026  133.2355  153.0672 H   0  0  0  0  0  0  0  0  0  0  0  0
  149.2966  133.0084  152.6814 H   0  0  0  0  0  0  0  0  0  0  0  0
  147.5067  131.1367  154.2445 H   0  0  0  0  0  0  0  0  0  0  0  0
  148.6847  130.7364  152.9846 H   0  0  0  0  0  0  0  0  0  0  0  0
  151.0809  133.1024  154.9127 H   0  0  0  0  0  0  0  0  0  0  0  0
  150.2177  133.1199  156.4585 H   0  0  0  0  0  0  0  0  0  0  0  0
  152.9724  138.1631  154.3319 H   0  0  0  0  0  0  0  0  0  0  0  0
  1  2  1  0  0  0  0
  1 19  1  0  0  0  0
  1 20  1  0  0  0  0
  1 21  1  0  0  0  0
  2  3  1  0  0  0  0
  2 22  1  0  0  0  0
  2 23  1  0  0  0  0
  3 18  1  0  0  0  0
  3  4  1  0  0  0  0
  4  5  2  0  0  0  0
  4 24  1  0  0  0  0
  5  6  1  0  0  0  0
  5 17  1  0  0  0  0
  6  7  1  0  0  0  0
  6 25  1  0  0  0  0
  7  8  2  0  0  0  0
  7  9  1  0  0  0  0
  9 10  1  0  0  0  0
  9 26  1  0  0  0  0
 10 16  1  0  0  0  0
 10 11  1  0  0  0  0
 10 27  1  0  0  0  0
 11 12  1  0  0  0  0
 11 28  1  0  0  0  0
 11 29  1  0  0  0  0
 12 13  1  0  0  0  0
 12 30  1  0  0  0  0
 12 31  1  0  0  0  0
 13 14  2  0  0  0  0
 13 15  2  0  0  0  0
 13 16  1  0  0  0  0
 16 32  1  0  0  0  0
 16 33  1  0  0  0  0
 17 18  2  0  0  0  0
 17 34  1  0  0  0  0
M  END
> <s_m_source_file>
AV-unprocessed.smi

> <i_m_source_file_index>
1742

> <i_lp_mmshare_version>
43012

> <i_f3d_flags>
0

> <s_epik_input>
W0NIM11bQ0gyXW4xW2NIXWMoW2NIXW4xKVtOSF1DKD1PKVtOSF1bQ0BASF0oW0NIMl0yKVtDSDJdW0NIMl1TMig9Tyk9Tw==

> <s_epik_cmdline>
J2VwaWtfcHl0aG9uJywgJy1waCcsICc3LjAnLCAnLXRuJywgJzgnLCAnLW1hJywgJzIwMCcsICctbWV0YWxfYmluZGluZycsICctaW1hZScsICc8aW5maWxlLm1hZT4nLCAnLW9tYWUnLCAnPG91dGZpbGUubWFlPic=

> <r_lp_tautomer_probability>
1

> <r_epik_Ionization_Penalty>
0.000152028

> <r_epik_Ionization_Penalty_Charging>
0

> <r_epik_Ionization_Penalty_Neutral>
0.000152028

> <r_epik_State_Penalty>
-0

> <r_epik_Charging_Adjusted_Penalty>
0

> <i_epik_Tot_Q>
0

> <i_epik_Tot_abs_Q>
0

> <r_epik_Metal_State_Penalty>
-0

> <b_epik_Metal_Only>
0

> <s_lp_Force_Field>
OPLS_2005

> <r_lp_Energy>
18.8672

> <b_lp_Chiralities_Consistent>
1

> <s_lp_Variant>
AV-unprocessed.smi:1742-2

> <Gold.Version>
5.8.1

> <Gold.Id.Protein>
6NUR|6NUR_protein|mol2

> <Gold.PLP.Fitness>
37.5812

> <Gold.PLP.PLP>
-31.0680

> <Gold.PLP.part.hbond>
-4.2946

> <Gold.PLP.part.metal>
0.0000

> <Gold.PLP.part.buried>
-2.4588

> <Gold.PLP.part.nonpolar>
-24.2010

> <Gold.PLP.part.repulsive>
0.1551

> <Gold.PLP.ligand.clash>
0.0000

> <Gold.PLP.ligand.torsion>
0.9241

> <Gold.PLP.Chemscore.Hbond>
2.7860

> <Gold.PLP.Chemscore.CHOScore>
0.0000

> <Gold.PLP.Chemscore.Metal>
0.0000

> <Gold.Chemscore.Hbonds>
donor molecule, donor type, donor heavy atom, donor atom, acceptor molecule, acceptor atom, score
      L1  H     6    25       P1  7948  0.74
      L1  H     9    26       P1  7948  1.00
      P1  H  7989  7998       L1    18  0.01
      P1  H  7997  8010       L1    18  0.94

> <Gold.PLP.Chemscore.Internal.Correction>
0.0036

> <Gold.Rescore>
     Score         DG    S(hbond)    S(metal)    S(lipo)     H(rot)  DE(clash)    DE(int)     intcor
     14.01     -16.08       2.24        0.00      54.13       1.26       0.08       1.99       ----

> <Gold.Chemscore.Fitness>
14.0101

> <Gold.Chemscore.DG>
-16.0805

> <Gold.Chemscore.ZeroCoef>
-5.4800

> <Gold.Chemscore.Hbond>
2.2400

> <Gold.Chemscore.Metal>
0.0000

> <Gold.Chemscore.Lipo>
54.1274

> <Gold.Chemscore.Internal_Hbond>
0.0000

> <Gold.Chemscore.DEClash>
0.0785

> <Gold.Chemscore.DEInternal>
1.9919

> <Gold.Chemscore.Rot>
1.2554

> <Gold.Chemscore.Internal.Correction>
   9.000000E+99

> <Gold.Chemscore.Hbonds>
donor molecule, donor type, donor heavy atom, donor atom, acceptor molecule, acceptor atom, score
      L1  H     6    25       P1  7948  0.24
      L1  H     9    26       P1  7948  0.26
      P1  H  7997  8010       L1    18  0.86

> <Gold.Chemscore.Hbond.Weighted>
-7.4815

> <Gold.Chemscore.Metal.Weighted>
-0.0000

> <Gold.Chemscore.Lipo.Weighted>
-6.3329

> <Gold.Chemscore.Internal_Hbond.Weighted>
0.0000

> <Gold.Chemscore.DEClash.Weighted>
0.0785

> <Gold.Chemscore.DEInternal.Weighted>
1.9919

> <Gold.Chemscore.Rot.Weighted>
3.2139

> <Gold.Chemscore.Internal.Correction.Weighted>
   9.000000E+99

> <Gold.Protein.RotatedTorsions>
[ 6907 6896 6895 6894 ] final  122.87 input  -60.11 | X-H torsion
[ 7974 7965 7964 7962 ] final   49.92 input  175.53 | X-H torsion
[ 8008 7997 7996 7995 ] final   95.77 input   59.86 | X-H torsion
[ 10167 10162 10161 10158 ] final  -40.61 input  -65.29 | X-H torsion
[ 10718 10713 10712 10709 ] final  -23.89 input   66.30 | X-H torsion
[ 10763 10752 10751 10750 ] final  136.97 input  -60.55 | X-H torsion
[ 11005 11000 10999 10996 ] final  159.83 input  -57.11 | X-H torsion

> <Gold.Protein.ActiveResidues>
 VAL166  LYS551  ARG553  GLY616  TRP617  ASP618  TYR619  PRO620  LYS621  CYS622 
 ASP623  PHE694  ASN695  SER759  ASP760  ASP761  ALA762  ILE779  LEU786  VAL792 
 PHE793  MET794  SER795  GLU796  ALA797  LYS798  CYS799  TRP800  GLU811  SER814 

> <Gold.Protein.RotatedAtoms>
  152.4208  133.7113  159.6479 H   0  0  0  0  0  0  0  0  0  0  0  0  # atno 6907 bound_to 6896
  150.8084  133.8457  159.3200 H   0  0  0  0  0  0  0  0  0  0  0  0  # atno 6908 bound_to 6896
  151.6174  135.1037  160.0146 H   0  0  0  0  0  0  0  0  0  0  0  0  # atno 6909 bound_to 6896
  146.0062  139.4493  142.9984 H   0  0  0  0  0  0  0  0  0  0  0  0  # atno 7974 bound_to 7965
  156.0725  140.3282  155.7593 H   0  0  0  0  0  0  0  0  0  0  0  0  # atno 8008 bound_to 7997
  155.5283  140.0591  157.2911 H   0  0  0  0  0  0  0  0  0  0  0  0  # atno 8009 bound_to 7997
  154.4538  140.1932  156.0458 H   0  0  0  0  0  0  0  0  0  0  0  0  # atno 8010 bound_to 7997
  140.7029  143.3143  151.2949 H   0  0  0  0  0  0  0  0  0  0  0  0  # atno 10167 bound_to 10162
  156.4850  130.4553  149.6789 H   0  0  0  0  0  0  0  0  0  0  0  0  # atno 10718 bound_to 10713
  153.8652  135.3062  155.3439 H   0  0  0  0  0  0  0  0  0  0  0  0  # atno 10763 bound_to 10752
  154.7830  135.4825  153.9889 H   0  0  0  0  0  0  0  0  0  0  0  0  # atno 10764 bound_to 10752
  153.1438  135.6829  153.9081 H   0  0  0  0  0  0  0  0  0  0  0  0  # atno 10765 bound_to 10752
  140.2000  134.8344  157.3008 H   0  0  0  0  0  0  0  0  0  0  0  0  # atno 11005 bound_to 11000
  145.7412  141.0007  143.1300 LP  0  0  0  0  0  0  0  0  0  0  0  0  # atno 17320 bound_to 7965
  144.6936  139.9101  143.7463 LP  0  0  0  0  0  0  0  0  0  0  0  0  # atno 17321 bound_to 7965
  139.6576  144.0247  152.2670 LP  0  0  0  0  0  0  0  0  0  0  0  0  # atno 17342 bound_to 10162
  139.9804  144.6432  150.7906 LP  0  0  0  0  0  0  0  0  0  0  0  0  # atno 17343 bound_to 10162
  156.3483  130.7418  151.2374 LP  0  0  0  0  0  0  0  0  0  0  0  0  # atno 17370 bound_to 10713
  157.7479  131.0384  150.4502 LP  0  0  0  0  0  0  0  0  0  0  0  0  # atno 17371 bound_to 10713
  140.2064  134.4191  155.7635 LP  0  0  0  0  0  0  0  0  0  0  0  0  # atno 17394 bound_to 11000
  141.2227  133.7097  156.8268 LP  0  0  0  0  0  0  0  0  0  0  0  0  # atno 17395 bound_to 11000

$$$$
