AV-unprocessed.smi:2088|AV-procd|sdf|8526|dock8
  -GOLD-   2272011243D 1   1.00000     0.00000
 Structure written by MMmdl.
 33 34  0  0  0  0  0  0  0  0  1 V2000
  149.7002  139.9598  156.0994 O   0  0  0  0  0  0  0  0  0  0  0  0
  149.5139  141.1236  155.7438 C   0  0  0  0  0  0  0  0  0  0  0  0
  148.8311  141.4143  154.4058 C   0  0  0  0  0  0  0  0  0  0  0  0
  147.5148  141.9942  154.6044 N   0  0  0  0  0  0  0  0  0  0  0  0
  146.6035  142.3979  153.6522 C   0  0  0  0  0  0  0  0  0  0  0  0
  145.5085  142.8731  154.3142 C   0  0  0  0  0  0  0  0  0  0  0  0
  145.8420  142.7198  155.6914 C   0  0  0  0  0  0  0  0  0  0  0  0
  145.0140  143.0777  156.8976 C   0  0  0  0  0  0  0  0  0  0  0  0
  143.8768  142.3822  156.9004 F   0  0  0  0  0  0  0  0  0  0  0  0
  145.6889  142.8000  158.0131 F   0  0  0  0  0  0  0  0  0  0  0  0
  144.7213  144.3780  156.8777 F   0  0  0  0  0  0  0  0  0  0  0  0
  147.0484  142.1927  155.8561 N   0  0  0  0  0  0  0  0  0  0  0  0
  149.8815  142.1866  156.4756 N   0  0  0  0  0  0  0  0  0  0  0  0
  150.5392  142.1214  157.7758 C   0  0  0  0  0  0  0  0  0  0  0  0
  150.7054  143.5160  158.4032 C   0  0  2  0  0  0  0  0  0  0  0  0
  151.8678  144.3162  157.8226 C   0  0  0  0  0  0  0  0  0  0  0  0
  152.1246  145.3164  158.9266 C   0  0  0  0  0  0  0  0  0  0  0  0
  151.8719  144.4843  160.1826 C   0  0  0  0  0  0  0  0  0  0  0  0
  151.0130  143.4149  159.7904 O   0  0  0  0  0  0  0  0  0  0  0  0
  149.4371  142.0869  153.7960 H   0  0  0  0  0  0  0  0  0  0  0  0
  148.7225  140.4850  153.8455 H   0  0  0  0  0  0  0  0  0  0  0  0
  146.8072  142.3112  152.5949 H   0  0  0  0  0  0  0  0  0  0  0  0
  144.6032  143.2703  153.8798 H   0  0  0  0  0  0  0  0  0  0  0  0
  149.6928  143.1070  156.1058 H   0  0  0  0  0  0  0  0  0  0  0  0
  149.9456  141.4840  158.4314 H   0  0  0  0  0  0  0  0  0  0  0  0
  151.5111  141.6366  157.6701 H   0  0  0  0  0  0  0  0  0  0  0  0
  149.7885  144.0988  158.2983 H   0  0  0  0  0  0  0  0  0  0  0  0
  152.7430  143.6799  157.6828 H   0  0  0  0  0  0  0  0  0  0  0  0
  151.6270  144.7849  156.8680 H   0  0  0  0  0  0  0  0  0  0  0  0
  153.1261  145.7459  158.8930 H   0  0  0  0  0  0  0  0  0  0  0  0
  151.4019  146.1311  158.8647 H   0  0  0  0  0  0  0  0  0  0  0  0
  152.8036  144.0605  160.5586 H   0  0  0  0  0  0  0  0  0  0  0  0
  151.4236  145.0771  160.9803 H   0  0  0  0  0  0  0  0  0  0  0  0
  1  2  2  0  0  0  0
  2  3  1  0  0  0  0
  2 13  1  0  0  0  0
  3  4  1  0  0  0  0
  3 20  1  0  0  0  0
  3 21  1  0  0  0  0
  4 12  1  0  0  0  0
  4  5  1  0  0  0  0
  5  6  2  0  0  0  0
  5 22  1  0  0  0  0
  6  7  1  0  0  0  0
  6 23  1  0  0  0  0
  7  8  1  0  0  0  0
  7 12  2  0  0  0  0
  8  9  1  0  0  0  0
  8 10  1  0  0  0  0
  8 11  1  0  0  0  0
 13 14  1  0  0  0  0
 13 24  1  0  0  0  0
 14 15  1  0  0  0  0
 14 25  1  0  0  0  0
 14 26  1  0  0  0  0
 15 19  1  0  0  0  0
 15 16  1  0  0  0  0
 15 27  1  0  0  0  0
 16 17  1  0  0  0  0
 16 28  1  0  0  0  0
 16 29  1  0  0  0  0
 17 18  1  0  0  0  0
 17 30  1  0  0  0  0
 17 31  1  0  0  0  0
 18 19  1  0  0  0  0
 18 32  1  0  0  0  0
 18 33  1  0  0  0  0
M  END
> <s_m_source_file>
AV-unprocessed.smi

> <i_m_source_file_index>
2088

> <i_lp_mmshare_version>
43012

> <i_f3d_flags>
0

> <s_epik_input>
TzFbQ0gyXVtDSDJdW0NIMl1bQ0BIXTFbQ0gyXVtOSF1DKD1PKVtDSDJdbjJbY0hdW2NIXWMobjIpQyhGKShGKUY=

> <s_epik_cmdline>
J2VwaWtfcHl0aG9uJywgJy1waCcsICc3LjAnLCAnLXRuJywgJzgnLCAnLW1hJywgJzIwMCcsICctbWV0YWxfYmluZGluZycsICctaW1hZScsICc8aW5maWxlLm1hZT4nLCAnLW9tYWUnLCAnPG91dGZpbGUubWFlPic=

> <r_lp_tautomer_probability>
1

> <r_epik_Ionization_Penalty>
2.25732e-07

> <r_epik_Ionization_Penalty_Charging>
0

> <r_epik_Ionization_Penalty_Neutral>
2.25732e-07

> <r_epik_State_Penalty>
-0

> <r_epik_Charging_Adjusted_Penalty>
0

> <i_epik_Tot_Q>
0

> <i_epik_Tot_abs_Q>
0

> <r_epik_Metal_State_Penalty>
-0

> <b_epik_Metal_Only>
0

> <s_lp_Force_Field>
OPLS_2005

> <r_lp_Energy>
20.6352

> <b_lp_Chiralities_Consistent>
1

> <s_lp_Variant>
AV-unprocessed.smi:2088-1

> <Gold.Version>
5.8.1

> <Gold.Id.Protein>
6NUR|6NUR_protein|mol2

> <Gold.PLP.Fitness>
41.1356

> <Gold.PLP.PLP>
-38.5819

> <Gold.PLP.part.hbond>
-1.1239

> <Gold.PLP.part.metal>
0.0000

> <Gold.PLP.part.buried>
-5.8815

> <Gold.PLP.part.nonpolar>
-31.8232

> <Gold.PLP.part.repulsive>
0.5739

> <Gold.PLP.ligand.clash>
0.0000

> <Gold.PLP.ligand.torsion>
0.2290

> <Gold.PLP.Chemscore.Hbond>
1.0000

> <Gold.PLP.Chemscore.CHOScore>
0.0000

> <Gold.PLP.Chemscore.Metal>
0.0000

> <Gold.Chemscore.Hbonds>
donor molecule, donor type, donor heavy atom, donor atom, acceptor molecule, acceptor atom, score
      L1  H    13    24       P1  8028  1.00

> <Gold.PLP.Chemscore.Internal.Correction>
0.0118

> <Gold.Rescore>
     Score         DG    S(hbond)    S(metal)    S(lipo)     H(rot)  DE(clash)    DE(int)     intcor
     13.35     -13.56       1.00        0.00      81.97       1.89       0.10       0.10       ----

> <Gold.Chemscore.Fitness>
13.3528

> <Gold.Chemscore.DG>
-13.5566

> <Gold.Chemscore.ZeroCoef>
-5.4800

> <Gold.Chemscore.Hbond>
0.9974

> <Gold.Chemscore.Metal>
0.0000

> <Gold.Chemscore.Lipo>
81.9737

> <Gold.Chemscore.Internal_Hbond>
0.0000

> <Gold.Chemscore.DEClash>
0.1042

> <Gold.Chemscore.DEInternal>
0.0996

> <Gold.Chemscore.Rot>
1.8928

> <Gold.Chemscore.Internal.Correction>
   9.000000E+99

> <Gold.Chemscore.Hbonds>
donor molecule, donor type, donor heavy atom, donor atom, acceptor molecule, acceptor atom, score
      L1  H    13    24       P1  8028  1.00

> <Gold.Chemscore.Hbond.Weighted>
-3.3312

> <Gold.Chemscore.Metal.Weighted>
-0.0000

> <Gold.Chemscore.Lipo.Weighted>
-9.5909

> <Gold.Chemscore.Internal_Hbond.Weighted>
0.0000

> <Gold.Chemscore.DEClash.Weighted>
0.1042

> <Gold.Chemscore.DEInternal.Weighted>
0.0996

> <Gold.Chemscore.Rot.Weighted>
4.8455

> <Gold.Chemscore.Internal.Correction.Weighted>
   9.000000E+99

> <Gold.Protein.RotatedTorsions>
[ 6907 6896 6895 6894 ] final  120.37 input  -60.11 | X-H torsion
[ 7974 7965 7964 7962 ] final   -2.95 input  175.53 | X-H torsion
[ 8008 7997 7996 7995 ] final   -4.01 input   59.86 | X-H torsion
[ 10167 10162 10161 10158 ] final  149.77 input  -65.29 | X-H torsion
[ 10718 10713 10712 10709 ] final   90.62 input   66.30 | X-H torsion
[ 10763 10752 10751 10750 ] final -152.98 input  -60.55 | X-H torsion
[ 11005 11000 10999 10996 ] final -153.51 input  -57.11 | X-H torsion

> <Gold.Protein.ActiveResidues>
 VAL166  LYS551  ARG553  GLY616  TRP617  ASP618  TYR619  PRO620  LYS621  CYS622 
 ASP623  PHE694  ASN695  SER759  ASP760  ASP761  ALA762  ILE779  LEU786  VAL792 
 PHE793  MET794  SER795  GLU796  ALA797  LYS798  CYS799  TRP800  GLU811  SER814 

> <Gold.Protein.RotatedAtoms>
  152.4403  133.7436  159.6654 H   0  0  0  0  0  0  0  0  0  0  0  0  # atno 6907 bound_to 6896
  150.8293  133.8108  159.3111 H   0  0  0  0  0  0  0  0  0  0  0  0  # atno 6908 bound_to 6896
  151.5766  135.1062  160.0059 H   0  0  0  0  0  0  0  0  0  0  0  0  # atno 6909 bound_to 6896
  146.2397  140.1649  142.8332 H   0  0  0  0  0  0  0  0  0  0  0  0  # atno 7974 bound_to 7965
  154.6188  140.2494  155.7576 H   0  0  0  0  0  0  0  0  0  0  0  0  # atno 8008 bound_to 7997
  156.2414  140.2931  156.0405 H   0  0  0  0  0  0  0  0  0  0  0  0  # atno 8009 bound_to 7997
  155.1931  140.0392  157.2894 H   0  0  0  0  0  0  0  0  0  0  0  0  # atno 8010 bound_to 7997
  139.4857  144.5576  151.7290 H   0  0  0  0  0  0  0  0  0  0  0  0  # atno 10167 bound_to 10162
  157.6959  131.0377  150.3605 H   0  0  0  0  0  0  0  0  0  0  0  0  # atno 10718 bound_to 10713
  154.7958  135.3223  154.7670 H   0  0  0  0  0  0  0  0  0  0  0  0  # atno 10763 bound_to 10752
  153.8349  135.6876  153.4814 H   0  0  0  0  0  0  0  0  0  0  0  0  # atno 10764 bound_to 10752
  153.1649  135.4646  154.9765 H   0  0  0  0  0  0  0  0  0  0  0  0  # atno 10765 bound_to 10752
  140.7074  134.3871  157.5202 H   0  0  0  0  0  0  0  0  0  0  0  0  # atno 11005 bound_to 11000
  145.0059  140.8672  143.5253 LP  0  0  0  0  0  0  0  0  0  0  0  0  # atno 17320 bound_to 7965
  145.1675  139.2423  143.5359 LP  0  0  0  0  0  0  0  0  0  0  0  0  # atno 17321 bound_to 7965
  140.5140  144.0982  150.6003 LP  0  0  0  0  0  0  0  0  0  0  0  0  # atno 17342 bound_to 10162
  140.3917  143.2749  152.0052 LP  0  0  0  0  0  0  0  0  0  0  0  0  # atno 17343 bound_to 10162
  156.4042  130.3921  149.6938 LP  0  0  0  0  0  0  0  0  0  0  0  0  # atno 17370 bound_to 10713
  156.4244  130.7785  151.2803 LP  0  0  0  0  0  0  0  0  0  0  0  0  # atno 17371 bound_to 10713
  139.8881  134.8866  156.2494 LP  0  0  0  0  0  0  0  0  0  0  0  0  # atno 17394 bound_to 11000
  141.0113  133.7094  156.1117 LP  0  0  0  0  0  0  0  0  0  0  0  0  # atno 17395 bound_to 11000

$$$$
