AV-unprocessed.smi:1107|AV-procd|sdf|4782|dock3
  -GOLD-   22720 3323D 1   1.00000     0.00000
 Structure written by MMmdl.
 49 50  0  0  0  0  0  0  0  0  2 V2000
  151.2305  142.9036  157.5228 C   0  0  0  0  0  0  0  0  0  0  0  0
  151.1588  141.6518  156.6741 C   0  0  0  0  0  0  0  0  0  0  0  0
  151.8950  140.6066  156.8651 N   0  0  0  0  0  0  0  0  0  0  0  0
  151.7386  139.5052  156.0121 C   0  0  0  0  0  0  0  0  0  0  0  0
  152.6352  138.3154  156.3101 C   0  0  0  0  0  0  0  0  0  0  0  0
  150.8326  139.5160  154.9901 C   0  0  0  0  0  0  0  0  0  0  0  0
  150.6360  138.3440  154.0284 C   0  0  0  0  0  0  0  0  0  0  0  0
  150.3766  136.9782  154.6705 C   0  0  0  0  0  0  0  0  0  0  0  0
  149.8126  136.9145  155.7618 O   0  0  0  0  0  0  0  0  0  0  0  0
  150.8042  135.8960  153.9993 N   0  0  0  0  0  0  0  0  0  0  0  0
  150.6274  134.5012  154.4012 C   0  0  1  0  0  0  0  0  0  0  0  0
  151.5201  134.2200  155.6171 C   0  0  0  0  0  0  0  0  0  0  0  0
  149.1454  134.1855  154.7089 C   0  0  0  0  0  0  0  0  0  0  0  0
  148.2985  134.1148  153.4905 N   0  3  0  0  0  0  0  0  0  0  0  0
  146.8789  134.4639  153.7538 C   0  0  0  0  0  0  0  0  0  0  0  0
  146.0780  134.5375  152.4424 C   0  0  0  0  0  0  0  0  0  0  0  0
  146.1844  133.2241  151.6560 C   0  0  0  0  0  0  0  0  0  0  0  0
  147.6590  132.8629  151.4334 C   0  0  0  0  0  0  0  0  0  0  0  0
  148.4206  132.8207  152.7682 C   0  0  0  0  0  0  0  0  0  0  0  0
  150.0018  140.7166  154.7776 C   0  0  0  0  0  0  0  0  0  0  0  0
  149.1691  140.8352  153.8803 O   0  0  0  0  0  0  0  0  0  0  0  0
  150.2161  141.7261  155.6503 N   0  0  0  0  0  0  0  0  0  0  0  0
  149.6697  142.5688  155.5475 H   0  0  0  0  0  0  0  0  0  0  0  0
  150.5231  143.6618  157.1832 H   0  0  0  0  0  0  0  0  0  0  0  0
  152.2332  143.3298  157.4803 H   0  0  0  0  0  0  0  0  0  0  0  0
  151.0021  142.6655  158.5617 H   0  0  0  0  0  0  0  0  0  0  0  0
  152.0400  137.4675  156.6494 H   0  0  0  0  0  0  0  0  0  0  0  0
  153.3569  138.5505  157.0932 H   0  0  0  0  0  0  0  0  0  0  0  0
  153.1945  138.0142  155.4251 H   0  0  0  0  0  0  0  0  0  0  0  0
  149.8033  138.5532  153.3574 H   0  0  0  0  0  0  0  0  0  0  0  0
  151.5044  138.2672  153.3721 H   0  0  0  0  0  0  0  0  0  0  0  0
  151.2614  136.0521  153.1120 H   0  0  0  0  0  0  0  0  0  0  0  0
  150.9766  133.8517  153.5975 H   0  0  0  0  0  0  0  0  0  0  0  0
  151.4448  133.1771  155.9259 H   0  0  0  0  0  0  0  0  0  0  0  0
  151.2405  134.8403  156.4697 H   0  0  0  0  0  0  0  0  0  0  0  0
  152.5679  134.4198  155.3899 H   0  0  0  0  0  0  0  0  0  0  0  0
  149.0560  133.2540  155.2700 H   0  0  0  0  0  0  0  0  0  0  0  0
  148.7657  134.9702  155.3652 H   0  0  0  0  0  0  0  0  0  0  0  0
  146.4389  133.7264  154.4268 H   0  0  0  0  0  0  0  0  0  0  0  0
  146.8232  135.4293  154.2583 H   0  0  0  0  0  0  0  0  0  0  0  0
  145.0321  134.7608  152.6549 H   0  0  0  0  0  0  0  0  0  0  0  0
  146.4525  135.3605  151.8317 H   0  0  0  0  0  0  0  0  0  0  0  0
  145.6878  132.4236  152.2058 H   0  0  0  0  0  0  0  0  0  0  0  0
  145.6688  133.3137  150.6995 H   0  0  0  0  0  0  0  0  0  0  0  0
  147.7348  131.8991  150.9291 H   0  0  0  0  0  0  0  0  0  0  0  0
  148.1220  133.5960  150.7711 H   0  0  0  0  0  0  0  0  0  0  0  0
  149.4679  132.5937  152.5716 H   0  0  0  0  0  0  0  0  0  0  0  0
  148.0361  132.0141  153.3943 H   0  0  0  0  0  0  0  0  0  0  0  0
  148.6495  134.8282  152.8671 H   0  0  0  0  0  0  0  0  0  0  0  0
  1  2  1  0  0  0  0
  1 24  1  0  0  0  0
  1 25  1  0  0  0  0
  1 26  1  0  0  0  0
  2 22  1  0  0  0  0
  2  3  2  0  0  0  0
  3  4  1  0  0  0  0
  4  5  1  0  0  0  0
  4  6  2  0  0  0  0
  5 27  1  0  0  0  0
  5 28  1  0  0  0  0
  5 29  1  0  0  0  0
  6  7  1  0  0  0  0
  6 20  1  0  0  0  0
  7  8  1  0  0  0  0
  7 30  1  0  0  0  0
  7 31  1  0  0  0  0
  8  9  2  0  0  0  0
  8 10  1  0  0  0  0
 10 11  1  0  0  0  0
 10 32  1  0  0  0  0
 11 12  1  0  0  0  0
 11 13  1  0  0  0  0
 11 33  1  0  0  0  0
 12 34  1  0  0  0  0
 12 35  1  0  0  0  0
 12 36  1  0  0  0  0
 13 14  1  0  0  0  0
 13 37  1  0  0  0  0
 13 38  1  0  0  0  0
 14 19  1  0  0  0  0
 14 15  1  0  0  0  0
 14 49  1  0  0  0  0
 15 16  1  0  0  0  0
 15 39  1  0  0  0  0
 15 40  1  0  0  0  0
 16 17  1  0  0  0  0
 16 41  1  0  0  0  0
 16 42  1  0  0  0  0
 17 18  1  0  0  0  0
 17 43  1  0  0  0  0
 17 44  1  0  0  0  0
 18 19  1  0  0  0  0
 18 45  1  0  0  0  0
 18 46  1  0  0  0  0
 19 47  1  0  0  0  0
 19 48  1  0  0  0  0
 20 21  2  0  0  0  0
 20 22  1  0  0  0  0
 22 23  1  0  0  0  0
M  CHG  1  14   1
M  END
> <s_m_source_file>
AV-unprocessed.smi

> <i_m_source_file_index>
1107

> <i_lp_mmshare_version>
43012

> <i_f3d_flags>
0

> <s_epik_input>
W0NIM11jMW5jKFtDSDNdKWMoYyg9TylbbkhdMSlbQ0gyXUMoPU8pW05IXVtDQEhdKFtDSDNdKVtDSDJdTjJbQ0gyXVtDSDJdW0NIMl1bQ0gyXVtDSDJdMg==

> <s_epik_cmdline>
J2VwaWtfcHl0aG9uJywgJy1waCcsICc3LjAnLCAnLXRuJywgJzgnLCAnLW1hJywgJzIwMCcsICctbWV0YWxfYmluZGluZycsICctaW1hZScsICc8aW5maWxlLm1hZT4nLCAnLW9tYWUnLCAnPG91dGZpbGUubWFlPic=

> <r_lp_tautomer_probability>
0.839158

> <r_epik_Ionization_Penalty>
0.00280224

> <r_epik_Ionization_Penalty_Charging>
0.00277925

> <r_epik_Ionization_Penalty_Neutral>
2.29856e-05

> <r_epik_State_Penalty>
0.09125

> <r_epik_Charging_Adjusted_Penalty>
0.0940293

> <i_epik_Tot_Q>
1

> <i_epik_Tot_abs_Q>
1

> <r_epik_Metal_State_Penalty>
0.283823

> <b_epik_Metal_Only>
0

> <s_lp_Force_Field>
OPLS_2005

> <r_lp_Energy>
24.1298

> <b_lp_Chiralities_Consistent>
1

> <s_lp_Variant>
AV-unprocessed.smi:1107-2

> <Gold.Version>
5.8.1

> <Gold.Id.Protein>
6NUR|6NUR_protein|mol2

> <Gold.PLP.Fitness>
48.2542

> <Gold.PLP.PLP>
-35.6443

> <Gold.PLP.part.hbond>
-6.0000

> <Gold.PLP.part.metal>
0.0000

> <Gold.PLP.part.buried>
-1.2087

> <Gold.PLP.part.nonpolar>
-29.0155

> <Gold.PLP.part.repulsive>
1.2077

> <Gold.PLP.ligand.clash>
0.0000

> <Gold.PLP.ligand.torsion>
0.8511

> <Gold.PLP.Chemscore.Hbond>
4.7402

> <Gold.PLP.Chemscore.CHOScore>
0.0000

> <Gold.PLP.Chemscore.Metal>
0.0000

> <Gold.Chemscore.Hbonds>
donor molecule, donor type, donor heavy atom, donor atom, acceptor molecule, acceptor atom, score
      L1  H    10    32       P1  7949  0.94
      L1  H    14    49       P1  7948  2.00
      L1  H    22    23       P1  8028  0.36
      P1  H  8011  8017       L1    21  0.32

> <Gold.PLP.Chemscore.Internal.Correction>
0.0914

> <Gold.Rescore>
     Score         DG    S(hbond)    S(metal)    S(lipo)     H(rot)  DE(clash)    DE(int)     intcor
     15.66     -18.12       2.77        0.00      72.48       1.98       0.26       2.20       ----

> <Gold.Chemscore.Fitness>
15.6590

> <Gold.Chemscore.DG>
-18.1210

> <Gold.Chemscore.ZeroCoef>
-5.4800

> <Gold.Chemscore.Hbond>
2.7661

> <Gold.Chemscore.Metal>
0.0000

> <Gold.Chemscore.Lipo>
72.4828

> <Gold.Chemscore.Internal_Hbond>
0.0000

> <Gold.Chemscore.DEClash>
0.2626

> <Gold.Chemscore.DEInternal>
2.1994

> <Gold.Chemscore.Rot>
1.9837

> <Gold.Chemscore.Internal.Correction>
   9.000000E+99

> <Gold.Chemscore.Hbonds>
donor molecule, donor type, donor heavy atom, donor atom, acceptor molecule, acceptor atom, score
      L1  H    10    32       P1  7949  0.50
      L1  H    14    49       P1  7948  0.26
      L1  H    22    23       P1  8028  0.35
      P1  H  8011  8017       L1    21  0.26

> <Gold.Chemscore.Hbond.Weighted>
-9.2388

> <Gold.Chemscore.Metal.Weighted>
-0.0000

> <Gold.Chemscore.Lipo.Weighted>
-8.4805

> <Gold.Chemscore.Internal_Hbond.Weighted>
0.0000

> <Gold.Chemscore.DEClash.Weighted>
0.2626

> <Gold.Chemscore.DEInternal.Weighted>
2.1994

> <Gold.Chemscore.Rot.Weighted>
5.0783

> <Gold.Chemscore.Internal.Correction.Weighted>
   9.000000E+99

> <Gold.Protein.RotatedTorsions>
[ 6907 6896 6895 6894 ] final   10.24 input  -60.11 | X-H torsion
[ 7974 7965 7964 7962 ] final  -24.13 input  175.53 | X-H torsion
[ 8008 7997 7996 7995 ] final   75.27 input   59.86 | X-H torsion
[ 10167 10162 10161 10158 ] final   46.41 input  -65.29 | X-H torsion
[ 10718 10713 10712 10709 ] final  164.08 input   66.30 | X-H torsion
[ 10763 10752 10751 10750 ] final  116.03 input  -60.55 | X-H torsion
[ 11005 11000 10999 10996 ] final  117.07 input  -57.11 | X-H torsion

> <Gold.Protein.ActiveResidues>
 VAL166  LYS551  ARG553  GLY616  TRP617  ASP618  TYR619  PRO620  LYS621  CYS622 
 ASP623  PHE694  ASN695  SER759  ASP760  ASP761  ALA762  ILE779  LEU786  VAL792 
 PHE793  MET794  SER795  GLU796  ALA797  LYS798  CYS799  TRP800  GLU811  SER814 

> <Gold.Protein.RotatedAtoms>
  151.7351  135.0866  160.0306 H   0  0  0  0  0  0  0  0  0  0  0  0  # atno 6907 bound_to 6896
  152.3516  133.6182  159.5957 H   0  0  0  0  0  0  0  0  0  0  0  0  # atno 6908 bound_to 6896
  150.7543  133.9482  159.3519 H   0  0  0  0  0  0  0  0  0  0  0  0  # atno 6909 bound_to 6896
  146.1574  140.4710  142.8586 H   0  0  0  0  0  0  0  0  0  0  0  0  # atno 7974 bound_to 7965
  155.8105  140.3473  155.5455 H   0  0  0  0  0  0  0  0  0  0  0  0  # atno 8008 bound_to 7997
  155.8445  140.0947  157.1734 H   0  0  0  0  0  0  0  0  0  0  0  0  # atno 8009 bound_to 7997
  154.4006  140.1388  156.3757 H   0  0  0  0  0  0  0  0  0  0  0  0  # atno 8010 bound_to 7997
  140.3142  144.2784  150.6194 H   0  0  0  0  0  0  0  0  0  0  0  0  # atno 10167 bound_to 10162
  157.0994  131.0439  151.2504 H   0  0  0  0  0  0  0  0  0  0  0  0  # atno 10718 bound_to 10713
  153.5311  135.3578  155.2676 H   0  0  0  0  0  0  0  0  0  0  0  0  # atno 10763 bound_to 10752
  154.8726  135.4068  154.3150 H   0  0  0  0  0  0  0  0  0  0  0  0  # atno 10764 bound_to 10752
  153.3839  135.7069  153.6612 H   0  0  0  0  0  0  0  0  0  0  0  0  # atno 10765 bound_to 10752
  139.9062  134.9606  156.7294 H   0  0  0  0  0  0  0  0  0  0  0  0  # atno 11005 bound_to 11000
  144.7981  140.6161  143.6496 LP  0  0  0  0  0  0  0  0  0  0  0  0  # atno 17320 bound_to 7965
  145.4675  139.1506  143.3832 LP  0  0  0  0  0  0  0  0  0  0  0  0  # atno 17321 bound_to 7965
  140.5541  143.2201  151.7877 LP  0  0  0  0  0  0  0  0  0  0  0  0  # atno 17342 bound_to 10162
  139.4887  144.4437  151.9735 LP  0  0  0  0  0  0  0  0  0  0  0  0  # atno 17343 bound_to 10162
  157.4654  130.7677  149.7274 LP  0  0  0  0  0  0  0  0  0  0  0  0  # atno 17370 bound_to 10713
  155.9877  130.3964  150.3151 LP  0  0  0  0  0  0  0  0  0  0  0  0  # atno 17371 bound_to 10713
  140.6937  133.9367  155.7982 LP  0  0  0  0  0  0  0  0  0  0  0  0  # atno 17394 bound_to 11000
  141.0423  134.0604  157.3887 LP  0  0  0  0  0  0  0  0  0  0  0  0  # atno 17395 bound_to 11000

$$$$
