AV-unprocessed.smi:2007|AV-procd|sdf|8136|dock9
  -GOLD-   2272010373D 1   1.00000     0.00000
 Structure written by MMmdl.
 37 38  0  0  0  0  0  0  0  0  2 V2000
  150.1347  132.6197  154.8251 C   0  0  0  0  0  0  0  0  0  0  0  0
  149.4701  133.9957  154.9688 C   0  0  1  0  0  0  0  0  0  0  0  0
  150.5269  135.1070  155.1703 C   0  0  0  0  0  0  0  0  0  0  0  0
  150.0547  136.4484  154.7430 N   0  3  0  0  0  0  0  0  0  0  0  0
  148.8210  136.8911  155.4372 C   0  0  0  0  0  0  0  0  0  0  0  0
  148.3567  138.2471  154.8804 C   0  0  0  0  0  0  0  0  0  0  0  0
  149.4005  139.2029  155.0252 O   0  0  0  0  0  0  0  0  0  0  0  0
  150.5681  138.8310  154.3026 C   0  0  0  0  0  0  0  0  0  0  0  0
  151.1028  137.4909  154.8362 C   0  0  0  0  0  0  0  0  0  0  0  0
  148.6423  134.2472  153.7880 N   0  0  0  0  0  0  0  0  0  0  0  0
  147.6718  133.4478  153.3195 C   0  0  0  0  0  0  0  0  0  0  0  0
  147.3335  132.3991  153.8688 O   0  0  0  0  0  0  0  0  0  0  0  0
  147.1276  133.9469  152.1962 N   0  0  0  0  0  0  0  0  0  0  0  0
  146.0553  133.4165  151.4319 C   0  0  0  0  0  0  0  0  0  0  0  0
  145.6623  133.8992  150.2472 N   0  0  0  0  0  0  0  0  0  0  0  0
  144.5860  133.1810  149.7196 C   0  0  0  0  0  0  0  0  0  0  0  0
  144.1721  132.1453  150.5198 C   0  0  0  0  0  0  0  0  0  0  0  0
  145.1236  132.0292  151.9760 S   0  0  0  0  0  0  0  0  0  0  0  0
  150.7289  132.3776  155.7068 H   0  0  0  0  0  0  0  0  0  0  0  0
  150.7965  132.5846  153.9589 H   0  0  0  0  0  0  0  0  0  0  0  0
  149.3889  131.8329  154.7069 H   0  0  0  0  0  0  0  0  0  0  0  0
  148.8277  133.9439  155.8490 H   0  0  0  0  0  0  0  0  0  0  0  0
  150.8486  135.1501  156.2120 H   0  0  0  0  0  0  0  0  0  0  0  0
  151.4128  134.8391  154.5922 H   0  0  0  0  0  0  0  0  0  0  0  0
  148.0266  136.1567  155.3085 H   0  0  0  0  0  0  0  0  0  0  0  0
  149.0099  136.9729  156.5088 H   0  0  0  0  0  0  0  0  0  0  0  0
  148.0680  138.1596  153.8315 H   0  0  0  0  0  0  0  0  0  0  0  0
  147.4792  138.5965  155.4245 H   0  0  0  0  0  0  0  0  0  0  0  0
  150.3439  138.7636  153.2368 H   0  0  0  0  0  0  0  0  0  0  0  0
  151.3209  139.6103  154.4211 H   0  0  0  0  0  0  0  0  0  0  0  0
  151.4226  137.5984  155.8739 H   0  0  0  0  0  0  0  0  0  0  0  0
  151.9777  137.1915  154.2581 H   0  0  0  0  0  0  0  0  0  0  0  0
  148.8479  135.0883  153.2682 H   0  0  0  0  0  0  0  0  0  0  0  0
  147.5230  134.8074  151.8469 H   0  0  0  0  0  0  0  0  0  0  0  0
  144.1755  133.4757  148.7651 H   0  0  0  0  0  0  0  0  0  0  0  0
  143.3684  131.4462  150.3411 H   0  0  0  0  0  0  0  0  0  0  0  0
  149.8240  136.3682  153.7625 H   0  0  0  0  0  0  0  0  0  0  0  0
  1  2  1  0  0  0  0
  1 19  1  0  0  0  0
  1 20  1  0  0  0  0
  1 21  1  0  0  0  0
  2  3  1  0  0  0  0
  2 10  1  0  0  0  0
  2 22  1  0  0  0  0
  3  4  1  0  0  0  0
  3 23  1  0  0  0  0
  3 24  1  0  0  0  0
  4  9  1  0  0  0  0
  4  5  1  0  0  0  0
  4 37  1  0  0  0  0
  5  6  1  0  0  0  0
  5 25  1  0  0  0  0
  5 26  1  0  0  0  0
  6  7  1  0  0  0  0
  6 27  1  0  0  0  0
  6 28  1  0  0  0  0
  7  8  1  0  0  0  0
  8  9  1  0  0  0  0
  8 29  1  0  0  0  0
  8 30  1  0  0  0  0
  9 31  1  0  0  0  0
  9 32  1  0  0  0  0
 10 11  1  0  0  0  0
 10 33  1  0  0  0  0
 11 12  2  0  0  0  0
 11 13  1  0  0  0  0
 13 14  1  0  0  0  0
 13 34  1  0  0  0  0
 14 18  1  0  0  0  0
 14 15  2  0  0  0  0
 15 16  1  0  0  0  0
 16 17  2  0  0  0  0
 16 35  1  0  0  0  0
 17 18  1  0  0  0  0
 17 36  1  0  0  0  0
M  CHG  1   4   1
M  END
> <s_m_source_file>
AV-unprocessed.smi

> <i_m_source_file_index>
2007

> <i_lp_mmshare_version>
43012

> <i_f3d_flags>
0

> <s_epik_input>
W0NIMl0xW0NIMl1PW0NIMl1bQ0gyXU4xW0NIMl1bQ0BASF0oW0NIM10pW05IXUMoPU8pW05IXWMybltjSF1bY0hdczI=

> <s_epik_cmdline>
J2VwaWtfcHl0aG9uJywgJy1waCcsICc3LjAnLCAnLXRuJywgJzgnLCAnLW1hJywgJzIwMCcsICctbWV0YWxfYmluZGluZycsICctaW1hZScsICc8aW5maWxlLm1hZT4nLCAnLW9tYWUnLCAnPG91dGZpbGUubWFlPic=

> <r_lp_tautomer_probability>
0.999

> <r_epik_Ionization_Penalty>
0.695848

> <r_epik_Ionization_Penalty_Charging>
0.695697

> <r_epik_Ionization_Penalty_Neutral>
0.000150585

> <r_epik_State_Penalty>
0.717972

> <r_epik_Charging_Adjusted_Penalty>
1.41367

> <i_epik_Tot_Q>
1

> <i_epik_Tot_abs_Q>
1

> <r_epik_Metal_State_Penalty>
0.763271

> <b_epik_Metal_Only>
0

> <s_lp_Force_Field>
OPLS_2005

> <r_lp_Energy>
20.6539

> <b_lp_Chiralities_Consistent>
1

> <s_lp_Variant>
AV-unprocessed.smi:2007-4

> <Gold.Version>
5.8.1

> <Gold.Id.Protein>
6NUR|6NUR_protein|mol2

> <Gold.PLP.Fitness>
41.7142

> <Gold.PLP.PLP>
-28.4792

> <Gold.PLP.part.hbond>
-3.0000

> <Gold.PLP.part.metal>
0.0000

> <Gold.PLP.part.buried>
-4.8190

> <Gold.PLP.part.nonpolar>
-21.6293

> <Gold.PLP.part.repulsive>
2.5039

> <Gold.PLP.ligand.clash>
0.0000

> <Gold.PLP.ligand.torsion>
0.3256

> <Gold.PLP.Chemscore.Hbond>
3.9913

> <Gold.PLP.Chemscore.CHOScore>
0.6302

> <Gold.PLP.Chemscore.Metal>
0.0000

> <Gold.Chemscore.Hbonds>
donor molecule, donor type, donor heavy atom, donor atom, acceptor molecule, acceptor atom, score
      L1  H     4    37       P1  7948  1.85
      L1  H    10    33       P1  7948  1.00
      L1  H    13    34       P1  7948  1.00
      L1  C    16    35       P1  7921  0.38
      L1  C    17    36       P1 10952  0.13

> <Gold.PLP.Chemscore.Internal.Correction>
0.0218

> <Gold.Rescore>
     Score         DG    S(hbond)    S(metal)    S(lipo)     H(rot)  DE(clash)    DE(int)     intcor
     13.19     -15.97       2.36        0.00      57.98       1.63       0.39       2.40       ----

> <Gold.Chemscore.Fitness>
13.1878

> <Gold.Chemscore.DG>
-15.9732

> <Gold.Chemscore.ZeroCoef>
-5.4800

> <Gold.Chemscore.Hbond>
2.3604

> <Gold.Chemscore.Metal>
0.0000

> <Gold.Chemscore.Lipo>
57.9821

> <Gold.Chemscore.Internal_Hbond>
0.0000

> <Gold.Chemscore.DEClash>
0.3884

> <Gold.Chemscore.DEInternal>
2.3970

> <Gold.Chemscore.Rot>
1.6306

> <Gold.Chemscore.Internal.Correction>
   9.000000E+99

> <Gold.Chemscore.Hbonds>
donor molecule, donor type, donor heavy atom, donor atom, acceptor molecule, acceptor atom, score
      L1  H     4    37       P1  7948  0.31
      L1  H    10    33       P1  7948  0.44
      L1  H    13    34       P1  7948  0.61

> <Gold.Chemscore.Hbond.Weighted>
-7.8836

> <Gold.Chemscore.Metal.Weighted>
-0.0000

> <Gold.Chemscore.Lipo.Weighted>
-6.7839

> <Gold.Chemscore.Internal_Hbond.Weighted>
0.0000

> <Gold.Chemscore.DEClash.Weighted>
0.3884

> <Gold.Chemscore.DEInternal.Weighted>
2.3970

> <Gold.Chemscore.Rot.Weighted>
4.1743

> <Gold.Chemscore.Internal.Correction.Weighted>
   9.000000E+99

> <Gold.Protein.RotatedTorsions>
[ 6907 6896 6895 6894 ] final   76.83 input  -60.11 | X-H torsion
[ 7974 7965 7964 7962 ] final   47.27 input  175.53 | X-H torsion
[ 8008 7997 7996 7995 ] final  -89.13 input   59.86 | X-H torsion
[ 10167 10162 10161 10158 ] final  169.27 input  -65.29 | X-H torsion
[ 10718 10713 10712 10709 ] final  -35.60 input   66.30 | X-H torsion
[ 10763 10752 10751 10750 ] final    7.29 input  -60.55 | X-H torsion
[ 11005 11000 10999 10996 ] final   49.79 input  -57.11 | X-H torsion

> <Gold.Protein.ActiveResidues>
 VAL166  LYS551  ARG553  GLY616  TRP617  ASP618  TYR619  PRO620  LYS621  CYS622 
 ASP623  PHE694  ASN695  SER759  ASP760  ASP761  ALA762  ILE779  LEU786  VAL792 
 PHE793  MET794  SER795  GLU796  ALA797  LYS798  CYS799  TRP800  GLU811  SER814 

> <Gold.Protein.RotatedAtoms>
  152.5091  134.3909  159.9383 H   0  0  0  0  0  0  0  0  0  0  0  0  # atno 6907 bound_to 6896
  151.3869  133.3796  159.2724 H   0  0  0  0  0  0  0  0  0  0  0  0  # atno 6908 bound_to 6896
  150.9462  134.8887  159.7702 H   0  0  0  0  0  0  0  0  0  0  0  0  # atno 6909 bound_to 6896
  146.0313  139.4767  142.9836 H   0  0  0  0  0  0  0  0  0  0  0  0  # atno 7974 bound_to 7965
  154.6830  140.0545  157.0285 H   0  0  0  0  0  0  0  0  0  0  0  0  # atno 8008 bound_to 7997
  155.0925  140.3220  155.4551 H   0  0  0  0  0  0  0  0  0  0  0  0  # atno 8009 bound_to 7997
  156.2701  140.2045  156.6052 H   0  0  0  0  0  0  0  0  0  0  0  0  # atno 8010 bound_to 7997
  139.4988  144.3725  151.9710 H   0  0  0  0  0  0  0  0  0  0  0  0  # atno 10167 bound_to 10162
  156.3367  130.4287  149.7823 H   0  0  0  0  0  0  0  0  0  0  0  0  # atno 10718 bound_to 10713
  153.2379  135.6900  153.7815 H   0  0  0  0  0  0  0  0  0  0  0  0  # atno 10763 bound_to 10752
  153.6956  135.3306  155.3213 H   0  0  0  0  0  0  0  0  0  0  0  0  # atno 10764 bound_to 10752
  154.8343  135.4555  154.1290 H   0  0  0  0  0  0  0  0  0  0  0  0  # atno 10765 bound_to 10752
  140.1073  134.5001  155.8709 H   0  0  0  0  0  0  0  0  0  0  0  0  # atno 11005 bound_to 11000
  145.7035  141.0128  143.1491 LP  0  0  0  0  0  0  0  0  0  0  0  0  # atno 17320 bound_to 7965
  144.7032  139.8673  143.7438 LP  0  0  0  0  0  0  0  0  0  0  0  0  # atno 17321 bound_to 7965
  140.3161  144.3482  150.6021 LP  0  0  0  0  0  0  0  0  0  0  0  0  # atno 17342 bound_to 10162
  140.5760  143.2176  151.7514 LP  0  0  0  0  0  0  0  0  0  0  0  0  # atno 17343 bound_to 10162
  156.5075  130.8157  151.3156 LP  0  0  0  0  0  0  0  0  0  0  0  0  # atno 17370 bound_to 10713
  157.7440  130.9924  150.2637 LP  0  0  0  0  0  0  0  0  0  0  0  0  # atno 17371 bound_to 10713
  141.2121  133.6715  156.6636 LP  0  0  0  0  0  0  0  0  0  0  0  0  # atno 17394 bound_to 11000
  140.3138  134.8064  157.4198 LP  0  0  0  0  0  0  0  0  0  0  0  0  # atno 17395 bound_to 11000

$$$$
