AV-unprocessed.smi:1453|AV-procd|sdf|5911|dock8
  -GOLD-   22720 5593D 1   1.00000     0.00000
 Structure written by MMmdl.
 43 44  0  0  0  0  0  0  0  0  1 V2000
  149.2438  134.0406  154.0682 C   0  0  0  0  0  0  0  0  0  0  0  0
  149.3641  134.8971  155.3386 C   0  0  2  0  0  0  0  0  0  0  0  0
  150.5469  135.8704  155.2526 C   0  0  0  0  0  0  0  0  0  0  0  0
  151.4461  135.8361  156.0929 O   0  0  0  0  0  0  0  0  0  0  0  0
  150.5334  136.7393  154.2293 N   0  0  0  0  0  0  0  0  0  0  0  0
  151.5464  137.7618  153.9928 C   0  0  0  0  0  0  0  0  0  0  0  0
  151.5455  138.8535  155.0490 C   0  0  0  0  0  0  0  0  0  0  0  0
  150.5627  139.8630  155.0550 C   0  0  0  0  0  0  0  0  0  0  0  0
  150.5999  140.8464  156.0615 C   0  0  0  0  0  0  0  0  0  0  0  0
  151.6240  140.7976  157.0374 C   0  0  0  0  0  0  0  0  0  0  0  0
  151.6781  141.7701  158.0599 N   0  0  0  0  0  0  0  0  0  0  0  0
  152.6751  141.5374  159.1021 C   0  0  0  0  0  0  0  0  0  0  0  0
  152.4330  142.4778  160.2956 C   0  0  0  0  0  0  0  0  0  0  0  0
  152.4060  143.8290  159.8480 O   0  0  0  0  0  0  0  0  0  0  0  0
  151.3533  144.0572  158.9172 C   0  0  0  0  0  0  0  0  0  0  0  0
  151.5615  143.1756  157.6744 C   0  0  0  0  0  0  0  0  0  0  0  0
  152.5760  139.8315  157.0175 N   0  0  0  0  0  0  0  0  0  0  0  0
  152.5341  138.8890  156.0526 C   0  0  0  0  0  0  0  0  0  0  0  0
  149.5451  133.7995  156.8227 S   0  0  0  0  0  0  0  0  0  0  0  0
  151.1557  132.9558  156.5267 C   0  0  0  0  0  0  0  0  0  0  0  0
  149.6892  134.6604  158.0066 O   0  0  0  0  0  0  0  0  0  0  0  0
  148.4847  132.7801  156.7994 O   0  0  0  0  0  0  0  0  0  0  0  0
  149.1478  134.6631  153.1778 H   0  0  0  0  0  0  0  0  0  0  0  0
  148.3639  133.3987  154.1156 H   0  0  0  0  0  0  0  0  0  0  0  0
  150.1136  133.3958  153.9348 H   0  0  0  0  0  0  0  0  0  0  0  0
  148.4397  135.4608  155.4697 H   0  0  0  0  0  0  0  0  0  0  0  0
  149.7647  136.6980  153.5760 H   0  0  0  0  0  0  0  0  0  0  0  0
  152.5343  137.3035  153.9194 H   0  0  0  0  0  0  0  0  0  0  0  0
  151.3482  138.2209  153.0241 H   0  0  0  0  0  0  0  0  0  0  0  0
  149.7889  139.8848  154.3016 H   0  0  0  0  0  0  0  0  0  0  0  0
  149.8560  141.6290  156.0643 H   0  0  0  0  0  0  0  0  0  0  0  0
  152.6590  140.5075  159.4555 H   0  0  0  0  0  0  0  0  0  0  0  0
  153.6673  141.7137  158.6847 H   0  0  0  0  0  0  0  0  0  0  0  0
  151.4974  142.2313  160.8005 H   0  0  0  0  0  0  0  0  0  0  0  0
  153.2301  142.3640  161.0302 H   0  0  0  0  0  0  0  0  0  0  0  0
  150.3887  143.8504  159.3839 H   0  0  0  0  0  0  0  0  0  0  0  0
  151.3513  145.1100  158.6343 H   0  0  0  0  0  0  0  0  0  0  0  0
  152.4664  143.4815  157.1473 H   0  0  0  0  0  0  0  0  0  0  0  0
  150.7225  143.3124  156.9908 H   0  0  0  0  0  0  0  0  0  0  0  0
  153.3109  138.1394  156.0884 H   0  0  0  0  0  0  0  0  0  0  0  0
  151.4175  132.3637  157.4032 H   0  0  0  0  0  0  0  0  0  0  0  0
  151.9330  133.6981  156.3472 H   0  0  0  0  0  0  0  0  0  0  0  0
  151.0721  132.2937  155.6658 H   0  0  0  0  0  0  0  0  0  0  0  0
  1  2  1  0  0  0  0
  1 23  1  0  0  0  0
  1 24  1  0  0  0  0
  1 25  1  0  0  0  0
  2  3  1  0  0  0  0
  2 19  1  0  0  0  0
  2 26  1  0  0  0  0
  3  4  2  0  0  0  0
  3  5  1  0  0  0  0
  5  6  1  0  0  0  0
  5 27  1  0  0  0  0
  6  7  1  0  0  0  0
  6 28  1  0  0  0  0
  6 29  1  0  0  0  0
  7 18  1  0  0  0  0
  7  8  2  0  0  0  0
  8  9  1  0  0  0  0
  8 30  1  0  0  0  0
  9 10  2  0  0  0  0
  9 31  1  0  0  0  0
 10 11  1  0  0  0  0
 10 17  1  0  0  0  0
 11 16  1  0  0  0  0
 11 12  1  0  0  0  0
 12 13  1  0  0  0  0
 12 32  1  0  0  0  0
 12 33  1  0  0  0  0
 13 14  1  0  0  0  0
 13 34  1  0  0  0  0
 13 35  1  0  0  0  0
 14 15  1  0  0  0  0
 15 16  1  0  0  0  0
 15 36  1  0  0  0  0
 15 37  1  0  0  0  0
 16 38  1  0  0  0  0
 16 39  1  0  0  0  0
 17 18  2  0  0  0  0
 18 40  1  0  0  0  0
 19 20  1  0  0  0  0
 19 21  2  0  0  0  0
 19 22  2  0  0  0  0
 20 41  1  0  0  0  0
 20 42  1  0  0  0  0
 20 43  1  0  0  0  0
M  END
> <s_m_source_file>
AV-unprocessed.smi

> <i_m_source_file_index>
1453

> <i_lp_mmshare_version>
43012

> <i_f3d_flags>
0

> <s_epik_input>
W0NIM11TKD1PKSg9TylbQ0BIXShbQ0gzXSlDKD1PKVtOSF1bQ0gyXWMxW2NIXVtjSF1jKG5bY0hdMSlOMltDSDJdW0NIMl1PW0NIMl1bQ0gyXTI=

> <s_epik_cmdline>
J2VwaWtfcHl0aG9uJywgJy1waCcsICc3LjAnLCAnLXRuJywgJzgnLCAnLW1hJywgJzIwMCcsICctbWV0YWxfYmluZGluZycsICctaW1hZScsICc8aW5maWxlLm1hZT4nLCAnLW9tYWUnLCAnPG91dGZpbGUubWFlPic=

> <r_lp_tautomer_probability>
1

> <r_epik_Ionization_Penalty>
0.00349781

> <r_epik_Ionization_Penalty_Charging>
0

> <r_epik_Ionization_Penalty_Neutral>
0.00349781

> <r_epik_State_Penalty>
0.00248024

> <r_epik_Charging_Adjusted_Penalty>
0.00248024

> <i_epik_Tot_Q>
0

> <i_epik_Tot_abs_Q>
0

> <r_epik_Metal_State_Penalty>
-0

> <b_epik_Metal_Only>
0

> <s_lp_Force_Field>
OPLS_2005

> <r_lp_Energy>
14.1024

> <b_lp_Chiralities_Consistent>
1

> <s_lp_Variant>
AV-unprocessed.smi:1453-1

> <Gold.Version>
5.8.1

> <Gold.Id.Protein>
6NUR|6NUR_protein|mol2

> <Gold.PLP.Fitness>
50.1139

> <Gold.PLP.PLP>
-39.7684

> <Gold.PLP.part.hbond>
-5.0000

> <Gold.PLP.part.metal>
0.0000

> <Gold.PLP.part.buried>
-1.7767

> <Gold.PLP.part.nonpolar>
-32.4397

> <Gold.PLP.part.repulsive>
0.1168

> <Gold.PLP.ligand.clash>
0.0000

> <Gold.PLP.ligand.torsion>
0.4975

> <Gold.PLP.Chemscore.Hbond>
3.6144

> <Gold.PLP.Chemscore.CHOScore>
0.0000

> <Gold.PLP.Chemscore.Metal>
0.0000

> <Gold.Chemscore.Hbonds>
donor molecule, donor type, donor heavy atom, donor atom, acceptor molecule, acceptor atom, score
      L1  H     5    27       P1  7948  1.00
      P1  H  6896  6907       L1    21  1.00
      P1  H  7997  8009       L1    17  0.60
      P1  H 10752 10764       L1     4  1.00

> <Gold.PLP.Chemscore.Internal.Correction>
0.4973

> <Gold.Rescore>
     Score         DG    S(hbond)    S(metal)    S(lipo)     H(rot)  DE(clash)    DE(int)     intcor
     17.47     -20.78       2.94        0.00      92.16       2.08       0.22       3.09       ----

> <Gold.Chemscore.Fitness>
17.4688

> <Gold.Chemscore.DG>
-20.7784

> <Gold.Chemscore.ZeroCoef>
-5.4800

> <Gold.Chemscore.Hbond>
2.9436

> <Gold.Chemscore.Metal>
0.0000

> <Gold.Chemscore.Lipo>
92.1570

> <Gold.Chemscore.Internal_Hbond>
0.0000

> <Gold.Chemscore.DEClash>
0.2215

> <Gold.Chemscore.DEInternal>
3.0881

> <Gold.Chemscore.Rot>
2.0764

> <Gold.Chemscore.Internal.Correction>
   9.000000E+99

> <Gold.Chemscore.Hbonds>
donor molecule, donor type, donor heavy atom, donor atom, acceptor molecule, acceptor atom, score
      L1  H     5    27       P1  7948  0.43
      P1  H  6896  6907       L1    21  0.97
      P1  H  7997  8009       L1    17  0.07
      P1  H 10752 10764       L1     4  0.38

> <Gold.Chemscore.Hbond.Weighted>
-9.8316

> <Gold.Chemscore.Metal.Weighted>
-0.0000

> <Gold.Chemscore.Lipo.Weighted>
-10.7824

> <Gold.Chemscore.Internal_Hbond.Weighted>
0.0000

> <Gold.Chemscore.DEClash.Weighted>
0.2215

> <Gold.Chemscore.DEInternal.Weighted>
3.0881

> <Gold.Chemscore.Rot.Weighted>
5.3155

> <Gold.Chemscore.Internal.Correction.Weighted>
   9.000000E+99

> <Gold.Protein.RotatedTorsions>
[ 6907 6896 6895 6894 ] final  -95.15 input  -60.11 | X-H torsion
[ 7974 7965 7964 7962 ] final  -47.17 input  175.53 | X-H torsion
[ 8008 7997 7996 7995 ] final  156.66 input   59.86 | X-H torsion
[ 10167 10162 10161 10158 ] final -102.10 input  -65.29 | X-H torsion
[ 10718 10713 10712 10709 ] final   74.99 input   66.30 | X-H torsion
[ 10763 10752 10751 10750 ] final  -34.40 input  -60.55 | X-H torsion
[ 11005 11000 10999 10996 ] final  168.76 input  -57.11 | X-H torsion

> <Gold.Protein.ActiveResidues>
 VAL166  LYS551  ARG553  GLY616  TRP617  ASP618  TYR619  PRO620  LYS621  CYS622 
 ASP623  PHE694  ASN695  SER759  ASP760  ASP761  ALA762  ILE779  LEU786  VAL792 
 PHE793  MET794  SER795  GLU796  ALA797  LYS798  CYS799  TRP800  GLU811  SER814 

> <Gold.Protein.RotatedAtoms>
  150.6957  134.1701  159.4208 H   0  0  0  0  0  0  0  0  0  0  0  0  # atno 6907 bound_to 6896
  151.9679  135.0089  160.0560 H   0  0  0  0  0  0  0  0  0  0  0  0  # atno 6908 bound_to 6896
  152.1868  133.4710  159.5023 H   0  0  0  0  0  0  0  0  0  0  0  0  # atno 6909 bound_to 6896
  145.9644  140.7447  142.9441 H   0  0  0  0  0  0  0  0  0  0  0  0  # atno 7974 bound_to 7965
  156.2409  140.1906  156.6990 H   0  0  0  0  0  0  0  0  0  0  0  0  # atno 8008 bound_to 7997
  154.6196  140.0610  156.9624 H   0  0  0  0  0  0  0  0  0  0  0  0  # atno 8009 bound_to 7997
  155.1883  140.3282  155.4365 H   0  0  0  0  0  0  0  0  0  0  0  0  # atno 8010 bound_to 7997
  140.2342  143.3584  152.0859 H   0  0  0  0  0  0  0  0  0  0  0  0  # atno 10167 bound_to 10162
  157.6615  130.9705  150.1290 H   0  0  0  0  0  0  0  0  0  0  0  0  # atno 10718 bound_to 10713
  153.8461  135.6853  153.4797 H   0  0  0  0  0  0  0  0  0  0  0  0  # atno 10763 bound_to 10752
  153.1425  135.4651  154.9515 H   0  0  0  0  0  0  0  0  0  0  0  0  # atno 10764 bound_to 10752
  154.7823  135.3273  154.7909 H   0  0  0  0  0  0  0  0  0  0  0  0  # atno 10765 bound_to 10752
  140.2907  134.7676  157.3836 H   0  0  0  0  0  0  0  0  0  0  0  0  # atno 11005 bound_to 11000
  144.6822  140.2644  143.7314 LP  0  0  0  0  0  0  0  0  0  0  0  0  # atno 17320 bound_to 7965
  145.7995  139.1958  143.2056 LP  0  0  0  0  0  0  0  0  0  0  0  0  # atno 17321 bound_to 7965
  139.5099  144.6875  151.5847 LP  0  0  0  0  0  0  0  0  0  0  0  0  # atno 17342 bound_to 10162
  140.6162  143.9344  150.6490 LP  0  0  0  0  0  0  0  0  0  0  0  0  # atno 17343 bound_to 10162
  156.2141  130.3669  149.8634 LP  0  0  0  0  0  0  0  0  0  0  0  0  # atno 17370 bound_to 10713
  156.6505  130.8741  151.3530 LP  0  0  0  0  0  0  0  0  0  0  0  0  # atno 17371 bound_to 10713
  140.1198  134.5234  155.8193 LP  0  0  0  0  0  0  0  0  0  0  0  0  # atno 17394 bound_to 11000
  141.2147  133.6752  156.6845 LP  0  0  0  0  0  0  0  0  0  0  0  0  # atno 17395 bound_to 11000

$$$$
