AV-unprocessed.smi:33|AV-procd|sdf|204|dock10
  -GOLD-   2262015493D 1   1.00000     0.00000
 Structure written by MMmdl.
 67 72  0  0  0  0  0  0  0  0  1 V2000
  151.9991  139.6519  158.8655 O   0  0  0  0  0  0  0  0  0  0  0  0
  151.8331  140.7002  158.2383 C   0  0  0  0  0  0  0  0  0  0  0  0
  151.5180  140.7413  156.9243 O   0  0  0  0  0  0  0  0  0  0  0  0
  150.9830  139.5852  156.2942 C   0  0  0  0  0  0  0  0  0  0  0  0
  150.3226  139.8785  154.9322 C   0  0  1  0  0  0  0  0  0  0  0  0
  149.9425  138.6896  154.2437 O   0  0  0  0  0  0  0  0  0  0  0  0
  148.5660  138.4574  154.3600 C   0  0  1  0  0  0  0  0  0  0  0  0
  148.3731  137.2421  155.2143 N   0  0  0  0  0  0  0  0  0  0  0  0
  147.9991  135.9651  154.8489 C   0  0  0  0  0  0  0  0  0  0  0  0
  147.9233  135.1020  155.8257 N   0  0  0  0  0  0  0  0  0  0  0  0
  148.2136  135.8523  156.9569 C   0  0  0  0  0  0  0  0  0  0  0  0
  148.2842  135.5606  158.3452 C   0  0  0  0  0  0  0  0  0  0  0  0
  148.0727  134.3191  158.8390 N   0  0  0  0  0  0  0  0  0  0  0  0
  147.3760  134.2249  160.1274 C   0  0  0  0  0  0  0  0  0  0  0  0
  147.6625  133.3212  160.9145 O   0  0  0  0  0  0  0  0  0  0  0  0
  146.3567  135.2603  160.5088 C   0  0  0  0  0  0  0  0  0  0  0  0
  146.1832  135.6202  161.8631 C   0  0  0  0  0  0  0  0  0  0  0  0
  145.2102  136.5722  162.2248 C   0  0  0  0  0  0  0  0  0  0  0  0
  144.3929  137.1554  161.2378 C   0  0  0  0  0  0  0  0  0  0  0  0
  144.5426  136.7804  159.8891 C   0  0  0  0  0  0  0  0  0  0  0  0
  145.5160  135.8301  159.5262 C   0  0  0  0  0  0  0  0  0  0  0  0
  148.5875  133.1795  158.0641 C   0  0  0  0  0  0  0  0  0  0  0  0
  149.4529  133.3612  157.2053 O   0  0  0  0  0  0  0  0  0  0  0  0
  148.0903  131.7878  158.3354 C   0  0  0  0  0  0  0  0  0  0  0  0
  148.9165  130.6778  158.0539 C   0  0  0  0  0  0  0  0  0  0  0  0
  148.4536  129.3693  158.2926 C   0  0  0  0  0  0  0  0  0  0  0  0
  147.1557  129.1616  158.7968 C   0  0  0  0  0  0  0  0  0  0  0  0
  146.3168  130.2626  159.0540 C   0  0  0  0  0  0  0  0  0  0  0  0
  146.7791  131.5715  158.8164 C   0  0  0  0  0  0  0  0  0  0  0  0
  148.5786  136.5764  159.1968 N   0  0  0  0  0  0  0  0  0  0  0  0
  148.8075  137.8011  158.7129 C   0  0  0  0  0  0  0  0  0  0  0  0
  148.7892  138.2153  157.4434 N   0  0  0  0  0  0  0  0  0  0  0  0
  148.4828  137.1976  156.5876 C   0  0  0  0  0  0  0  0  0  0  0  0
  147.9418  139.6934  155.0376 C   0  0  2  0  0  0  0  0  0  0  0  0
  146.7750  140.1656  154.3937 O   0  0  0  0  0  0  0  0  0  0  0  0
  149.0555  140.7285  154.9615 C   0  0  2  0  0  0  0  0  0  0  0  0
  149.0015  141.3978  153.8061 F   0  0  0  0  0  0  0  0  0  0  0  0
  151.9366  142.0502  158.8633 C   0  0  0  0  0  0  0  0  0  0  0  0
  152.2818  142.1528  160.2315 C   0  0  0  0  0  0  0  0  0  0  0  0
  152.3849  143.4118  160.8537 C   0  0  0  0  0  0  0  0  0  0  0  0
  152.1490  144.5841  160.1134 C   0  0  0  0  0  0  0  0  0  0  0  0
  151.8009  144.4958  158.7531 C   0  0  0  0  0  0  0  0  0  0  0  0
  151.6950  143.2375  158.1308 C   0  0  0  0  0  0  0  0  0  0  0  0
  151.7930  138.8680  156.1575 H   0  0  0  0  0  0  0  0  0  0  0  0
  150.2460  139.1093  156.9429 H   0  0  0  0  0  0  0  0  0  0  0  0
  151.0804  140.3755  154.3254 H   0  0  0  0  0  0  0  0  0  0  0  0
  148.1295  138.1959  153.3951 H   0  0  0  0  0  0  0  0  0  0  0  0
  147.8048  135.6786  153.8257 H   0  0  0  0  0  0  0  0  0  0  0  0
  146.8033  135.1772  162.6291 H   0  0  0  0  0  0  0  0  0  0  0  0
  145.0897  136.8533  163.2606 H   0  0  0  0  0  0  0  0  0  0  0  0
  143.6463  137.8848  161.5158 H   0  0  0  0  0  0  0  0  0  0  0  0
  143.9094  137.2196  159.1324 H   0  0  0  0  0  0  0  0  0  0  0  0
  145.6153  135.5426  158.4891 H   0  0  0  0  0  0  0  0  0  0  0  0
  149.9146  130.8257  157.6671 H   0  0  0  0  0  0  0  0  0  0  0  0
  149.0947  128.5248  158.0878 H   0  0  0  0  0  0  0  0  0  0  0  0
  146.8013  128.1580  158.9798 H   0  0  0  0  0  0  0  0  0  0  0  0
  145.3180  130.1037  159.4326 H   0  0  0  0  0  0  0  0  0  0  0  0
  146.1246  132.4084  159.0132 H   0  0  0  0  0  0  0  0  0  0  0  0
  149.0405  138.5575  159.4478 H   0  0  0  0  0  0  0  0  0  0  0  0
  147.7135  139.4712  156.0786 H   0  0  0  0  0  0  0  0  0  0  0  0
  146.9838  140.9743  153.9514 H   0  0  0  0  0  0  0  0  0  0  0  0
  149.0320  141.4609  155.7691 H   0  0  0  0  0  0  0  0  0  0  0  0
  152.4683  141.2664  160.8207 H   0  0  0  0  0  0  0  0  0  0  0  0
  152.6453  143.4778  161.9000 H   0  0  0  0  0  0  0  0  0  0  0  0
  152.2255  145.5501  160.5905 H   0  0  0  0  0  0  0  0  0  0  0  0
  151.6105  145.3954  158.1862 H   0  0  0  0  0  0  0  0  0  0  0  0
  151.4278  143.2071  157.0867 H   0  0  0  0  0  0  0  0  0  0  0  0
  1  2  2  0  0  0  0
  2  3  1  0  0  0  0
  2 38  1  0  0  0  0
  3  4  1  0  0  0  0
  4  5  1  0  0  0  0
  4 44  1  0  0  0  0
  4 45  1  0  0  0  0
  5 36  1  0  0  0  0
  5  6  1  0  0  0  0
  5 46  1  0  0  0  0
  6  7  1  0  0  0  0
  7  8  1  0  0  0  0
  7 34  1  0  0  0  0
  7 47  1  0  0  0  0
  8 33  1  0  0  0  0
  8  9  1  0  0  0  0
  9 10  2  0  0  0  0
  9 48  1  0  0  0  0
 10 11  1  0  0  0  0
 11 33  2  0  0  0  0
 11 12  1  0  0  0  0
 12 13  1  0  0  0  0
 12 30  2  0  0  0  0
 13 14  1  0  0  0  0
 13 22  1  0  0  0  0
 14 15  2  0  0  0  0
 14 16  1  0  0  0  0
 16 21  1  0  0  0  0
 16 17  2  0  0  0  0
 17 18  1  0  0  0  0
 17 49  1  0  0  0  0
 18 19  2  0  0  0  0
 18 50  1  0  0  0  0
 19 20  1  0  0  0  0
 19 51  1  0  0  0  0
 20 21  2  0  0  0  0
 20 52  1  0  0  0  0
 21 53  1  0  0  0  0
 22 23  2  0  0  0  0
 22 24  1  0  0  0  0
 24 29  1  0  0  0  0
 24 25  2  0  0  0  0
 25 26  1  0  0  0  0
 25 54  1  0  0  0  0
 26 27  2  0  0  0  0
 26 55  1  0  0  0  0
 27 28  1  0  0  0  0
 27 56  1  0  0  0  0
 28 29  2  0  0  0  0
 28 57  1  0  0  0  0
 29 58  1  0  0  0  0
 30 31  1  0  0  0  0
 31 32  2  0  0  0  0
 31 59  1  0  0  0  0
 32 33  1  0  0  0  0
 34 35  1  0  0  0  0
 34 36  1  0  0  0  0
 34 60  1  0  0  0  0
 35 61  1  0  0  0  0
 36 37  1  0  0  0  0
 36 62  1  0  0  0  0
 38 43  1  0  0  0  0
 38 39  2  0  0  0  0
 39 40  1  0  0  0  0
 39 63  1  0  0  0  0
 40 41  2  0  0  0  0
 40 64  1  0  0  0  0
 41 42  1  0  0  0  0
 41 65  1  0  0  0  0
 42 43  2  0  0  0  0
 42 66  1  0  0  0  0
 43 67  1  0  0  0  0
M  END
> <s_m_source_file>
AV-unprocessed.smi

> <i_m_source_file_index>
33

> <i_lp_mmshare_version>
43012

> <i_f3d_flags>
0

> <s_epik_input>
W2NIXTFbY0hdW2NIXVtjSF1bY0hdYzFDKD1PKU9bQ0gyXVtDQEBIXTJPW0NASF0oW0NAQEhdKFtPSF0pW0NAQEhdMkYpbihbY0hdbjMpYyhjMzQpbltjSF1uYzROKEMoPU8pYzVbY0hdW2NIXVtjSF1bY0hdW2NIXTUpQyg9TyljNltjSF1bY0hdW2NIXVtjSF1bY0hdNg==

> <s_epik_cmdline>
J2VwaWtfcHl0aG9uJywgJy1waCcsICc3LjAnLCAnLXRuJywgJzgnLCAnLW1hJywgJzIwMCcsICctbWV0YWxfYmluZGluZycsICctaW1hZScsICc8aW5maWxlLm1hZT4nLCAnLW9tYWUnLCAnPG91dGZpbGUubWFlPic=

> <r_lp_tautomer_probability>
1

> <r_epik_Ionization_Penalty>
0.00067664

> <r_epik_Ionization_Penalty_Charging>
0

> <r_epik_Ionization_Penalty_Neutral>
0.00067664

> <r_epik_State_Penalty>
0.000428095

> <r_epik_Charging_Adjusted_Penalty>
0.000428095

> <i_epik_Tot_Q>
0

> <i_epik_Tot_abs_Q>
0

> <r_epik_Metal_State_Penalty>
-0

> <b_epik_Metal_Only>
0

> <s_epik_Chemistry_Notes>
This compound has an ester and may undergo hydrolysis at high or low pH. This compound contains an acetal/aminal-like group ( X-CH(R)-Y where X, Y are N, S, or O) that may be acid/base labile, releasing an aldehyde.

> <s_lp_Force_Field>
OPLS_2005

> <r_lp_Energy>
67.2923

> <b_lp_Chiralities_Consistent>
1

> <s_lp_Variant>
AV-unprocessed.smi:33-6

> <Gold.Version>
5.8.1

> <Gold.Id.Protein>
6NUR|6NUR_protein|mol2

> <Gold.PLP.Fitness>
48.5429

> <Gold.PLP.PLP>
-47.0181

> <Gold.PLP.part.hbond>
-0.4133

> <Gold.PLP.part.metal>
0.0000

> <Gold.PLP.part.buried>
-4.2240

> <Gold.PLP.part.nonpolar>
-42.3345

> <Gold.PLP.part.repulsive>
0.2306

> <Gold.PLP.ligand.clash>
0.0000

> <Gold.PLP.ligand.torsion>
2.6674

> <Gold.PLP.Chemscore.Hbond>
0.0237

> <Gold.PLP.Chemscore.CHOScore>
0.9967

> <Gold.PLP.Chemscore.Metal>
0.0000

> <Gold.Chemscore.Hbonds>
donor molecule, donor type, donor heavy atom, donor atom, acceptor molecule, acceptor atom, score
      L1  C     9    48       P1  7948  1.00

> <Gold.PLP.Chemscore.Internal.Correction>
3.7985

> <Gold.Rescore>
     Score         DG    S(hbond)    S(metal)    S(lipo)     H(rot)  DE(clash)    DE(int)     intcor
      3.64     -13.18       0.00        0.00     121.06       2.52       0.09       9.45       ----

> <Gold.Chemscore.Fitness>
3.6354

> <Gold.Chemscore.DG>
-13.1813

> <Gold.Chemscore.ZeroCoef>
-5.4800

> <Gold.Chemscore.Hbond>
0.0002

> <Gold.Chemscore.Metal>
0.0000

> <Gold.Chemscore.Lipo>
121.0582

> <Gold.Chemscore.Internal_Hbond>
0.0000

> <Gold.Chemscore.DEClash>
0.0916

> <Gold.Chemscore.DEInternal>
9.4543

> <Gold.Chemscore.Rot>
2.5247

> <Gold.Chemscore.Internal.Correction>
   9.000000E+99

> <Gold.Chemscore.Hbond.Weighted>
-0.0007

> <Gold.Chemscore.Metal.Weighted>
-0.0000

> <Gold.Chemscore.Lipo.Weighted>
-14.1638

> <Gold.Chemscore.Internal_Hbond.Weighted>
0.0000

> <Gold.Chemscore.DEClash.Weighted>
0.0916

> <Gold.Chemscore.DEInternal.Weighted>
9.4543

> <Gold.Chemscore.Rot.Weighted>
6.4633

> <Gold.Chemscore.Internal.Correction.Weighted>
   9.000000E+99

> <Gold.Protein.RotatedTorsions>
[ 6907 6896 6895 6894 ] final  -26.19 input  -60.11 | X-H torsion
[ 7974 7965 7964 7962 ] final -168.93 input  175.53 | X-H torsion
[ 8008 7997 7996 7995 ] final  103.28 input   59.86 | X-H torsion
[ 10167 10162 10161 10158 ] final  -57.13 input  -65.29 | X-H torsion
[ 10718 10713 10712 10709 ] final  -19.27 input   66.30 | X-H torsion
[ 10763 10752 10751 10750 ] final  -66.92 input  -60.55 | X-H torsion
[ 11005 11000 10999 10996 ] final  -88.23 input  -57.11 | X-H torsion

> <Gold.Protein.ActiveResidues>
 VAL166  LYS551  ARG553  GLY616  TRP617  ASP618  TYR619  PRO620  LYS621  CYS622 
 ASP623  PHE694  ASN695  SER759  ASP760  ASP761  ALA762  ILE779  LEU786  VAL792 
 PHE793  MET794  SER795  GLU796  ALA797  LYS798  CYS799  TRP800  GLU811  SER814 

> <Gold.Protein.RotatedAtoms>
  151.1644  135.0289  159.8724 H   0  0  0  0  0  0  0  0  0  0  0  0  # atno 6907 bound_to 6896
  152.5450  134.1242  159.8422 H   0  0  0  0  0  0  0  0  0  0  0  0  # atno 6908 bound_to 6896
  151.1341  133.4970  159.2631 H   0  0  0  0  0  0  0  0  0  0  0  0  # atno 6909 bound_to 6896
  144.7194  140.2296  143.6306 H   0  0  0  0  0  0  0  0  0  0  0  0  # atno 7974 bound_to 7965
  156.1470  140.3167  155.8586 H   0  0  0  0  0  0  0  0  0  0  0  0  # atno 8008 bound_to 7997
  155.4045  140.0502  157.3052 H   0  0  0  0  0  0  0  0  0  0  0  0  # atno 8009 bound_to 7997
  154.5025  140.2134  155.9330 H   0  0  0  0  0  0  0  0  0  0  0  0  # atno 8010 bound_to 7997
  140.6276  143.2445  151.5324 H   0  0  0  0  0  0  0  0  0  0  0  0  # atno 10167 bound_to 10162
  156.5480  130.4694  149.6466 H   0  0  0  0  0  0  0  0  0  0  0  0  # atno 10718 bound_to 10713
  154.3668  135.6104  153.5719 H   0  0  0  0  0  0  0  0  0  0  0  0  # atno 10763 bound_to 10752
  152.9791  135.5828  154.4568 H   0  0  0  0  0  0  0  0  0  0  0  0  # atno 10764 bound_to 10752
  154.4315  135.2848  155.1886 H   0  0  0  0  0  0  0  0  0  0  0  0  # atno 10765 bound_to 10752
  141.1605  133.7558  156.9422 H   0  0  0  0  0  0  0  0  0  0  0  0  # atno 11005 bound_to 11000
  145.8423  139.2136  143.1820 LP  0  0  0  0  0  0  0  0  0  0  0  0  # atno 17320 bound_to 7965
  146.0335  140.8235  142.9864 LP  0  0  0  0  0  0  0  0  0  0  0  0  # atno 17321 bound_to 7965
  139.5494  144.2435  152.1503 LP  0  0  0  0  0  0  0  0  0  0  0  0  # atno 17342 bound_to 10162
  140.1670  144.4972  150.6600 LP  0  0  0  0  0  0  0  0  0  0  0  0  # atno 17343 bound_to 10162
  156.2911  130.7124  151.1973 LP  0  0  0  0  0  0  0  0  0  0  0  0  # atno 17370 bound_to 10713
  157.7393  131.0531  150.5240 LP  0  0  0  0  0  0  0  0  0  0  0  0  # atno 17371 bound_to 10713
  140.1314  134.9353  157.2342 LP  0  0  0  0  0  0  0  0  0  0  0  0  # atno 17394 bound_to 11000
  140.2949  134.3198  155.7305 LP  0  0  0  0  0  0  0  0  0  0  0  0  # atno 17395 bound_to 11000

$$$$
