AV-unprocessed.smi:2095|AV-procd|sdf|8558|dock2
  -GOLD-   2272011283D 1   1.00000     0.00000
 Structure written by MMmdl.
 42 43  0  0  0  0  0  0  0  0  2 V2000
  152.9569  142.7362  162.1682 C   0  0  0  0  0  0  0  0  0  0  0  0
  152.8936  143.2768  160.7327 C   0  0  2  0  0  0  0  0  0  0  0  0
  152.1169  144.5997  160.6684 C   0  0  0  0  0  0  0  0  0  0  0  0
  152.0580  145.1009  159.2226 C   0  0  0  0  0  0  0  0  0  0  0  0
  151.4670  144.0349  158.2851 C   0  0  0  0  0  0  0  0  0  0  0  0
  152.2290  142.7545  158.3644 N   0  3  2  0  0  0  0  0  0  0  0  0
  151.8272  141.6821  157.3945 C   0  0  1  0  0  0  0  0  0  0  0  0
  152.2296  140.2512  157.8293 C   0  0  0  0  0  0  0  0  0  0  0  0
  150.3025  141.7582  157.1389 C   0  0  0  0  0  0  0  0  0  0  0  0
  149.7995  140.5754  156.4506 N   0  0  0  0  0  0  0  0  0  0  0  0
  150.4085  139.9850  155.4119 C   0  0  0  0  0  0  0  0  0  0  0  0
  151.4674  140.3868  154.9308 O   0  0  0  0  0  0  0  0  0  0  0  0
  149.7206  138.7514  154.8274 C   0  0  0  0  0  0  0  0  0  0  0  0
  150.3942  137.5372  155.2459 N   0  0  0  0  0  0  0  0  0  0  0  0
  151.0004  136.5817  154.5383 C   0  0  0  0  0  0  0  0  0  0  0  0
  151.5068  135.6413  155.3214 N   0  0  0  0  0  0  0  0  0  0  0  0
  151.1727  136.0763  156.5931 N   0  0  0  0  0  0  0  0  0  0  0  0
  150.5131  137.2014  156.5549 N   0  0  0  0  0  0  0  0  0  0  0  0
  152.2676  142.2506  159.7679 C   0  0  0  0  0  0  0  0  0  0  0  0
  151.9606  142.5232  162.5567 H   0  0  0  0  0  0  0  0  0  0  0  0
  153.4278  143.4564  162.8379 H   0  0  0  0  0  0  0  0  0  0  0  0
  153.5374  141.8145  162.2167 H   0  0  0  0  0  0  0  0  0  0  0  0
  153.9181  143.4663  160.4082 H   0  0  0  0  0  0  0  0  0  0  0  0
  151.1047  144.4595  161.0506 H   0  0  0  0  0  0  0  0  0  0  0  0
  152.5902  145.3498  161.3032 H   0  0  0  0  0  0  0  0  0  0  0  0
  151.4633  146.0135  159.1701 H   0  0  0  0  0  0  0  0  0  0  0  0
  153.0613  145.3676  158.8872 H   0  0  0  0  0  0  0  0  0  0  0  0
  150.4186  143.8551  158.5286 H   0  0  0  0  0  0  0  0  0  0  0  0
  151.5018  144.4478  157.2776 H   0  0  0  0  0  0  0  0  0  0  0  0
  152.3463  141.8738  156.4536 H   0  0  0  0  0  0  0  0  0  0  0  0
  151.9175  139.5049  157.0990 H   0  0  0  0  0  0  0  0  0  0  0  0
  151.7749  139.9801  158.7829 H   0  0  0  0  0  0  0  0  0  0  0  0
  153.3104  140.1399  157.9192 H   0  0  0  0  0  0  0  0  0  0  0  0
  149.7784  141.8724  158.0897 H   0  0  0  0  0  0  0  0  0  0  0  0
  150.0424  142.6266  156.5343 H   0  0  0  0  0  0  0  0  0  0  0  0
  148.9348  140.1766  156.7870 H   0  0  0  0  0  0  0  0  0  0  0  0
  148.6758  138.7136  155.1400 H   0  0  0  0  0  0  0  0  0  0  0  0
  149.7297  138.8006  153.7378 H   0  0  0  0  0  0  0  0  0  0  0  0
  151.0737  136.5779  153.4608 H   0  0  0  0  0  0  0  0  0  0  0  0
  152.8390  141.3251  159.8247 H   0  0  0  0  0  0  0  0  0  0  0  0
  151.2537  142.0060  160.0899 H   0  0  0  0  0  0  0  0  0  0  0  0
  153.1783  142.9973  158.1197 H   0  0  0  0  0  0  0  0  0  0  0  0
  1  2  1  0  0  0  0
  1 20  1  0  0  0  0
  1 21  1  0  0  0  0
  1 22  1  0  0  0  0
  2 19  1  0  0  0  0
  2  3  1  0  0  0  0
  2 23  1  0  0  0  0
  3  4  1  0  0  0  0
  3 24  1  0  0  0  0
  3 25  1  0  0  0  0
  4  5  1  0  0  0  0
  4 26  1  0  0  0  0
  4 27  1  0  0  0  0
  5  6  1  0  0  0  0
  5 28  1  0  0  0  0
  5 29  1  0  0  0  0
  6  7  1  0  0  0  0
  6 19  1  0  0  0  0
  6 42  1  0  0  0  0
  7  8  1  0  0  0  0
  7  9  1  0  0  0  0
  7 30  1  0  0  0  0
  8 31  1  0  0  0  0
  8 32  1  0  0  0  0
  8 33  1  0  0  0  0
  9 10  1  0  0  0  0
  9 34  1  0  0  0  0
  9 35  1  0  0  0  0
 10 11  1  0  0  0  0
 10 36  1  0  0  0  0
 11 12  2  0  0  0  0
 11 13  1  0  0  0  0
 13 14  1  0  0  0  0
 13 37  1  0  0  0  0
 13 38  1  0  0  0  0
 14 18  1  0  0  0  0
 14 15  1  0  0  0  0
 15 16  2  0  0  0  0
 15 39  1  0  0  0  0
 16 17  1  0  0  0  0
 17 18  2  0  0  0  0
 19 40  1  0  0  0  0
 19 41  1  0  0  0  0
M  CHG  1   6   1
M  END
> <s_m_source_file>
AV-unprocessed.smi

> <i_m_source_file_index>
2095

> <i_lp_mmshare_version>
43012

> <i_f3d_flags>
0

> <s_epik_input>
W0NIM11bQ0BASF0xW0NIMl1bQ0gyXVtDSDJdTihbQ0gyXTEpW0NASF0oW0NIM10pW0NIMl1bTkhdQyg9TylbQ0gyXW4yW2NIXW5ubjI=

> <s_epik_cmdline>
J2VwaWtfcHl0aG9uJywgJy1waCcsICc3LjAnLCAnLXRuJywgJzgnLCAnLW1hJywgJzIwMCcsICctbWV0YWxfYmluZGluZycsICctaW1hZScsICc8aW5maWxlLm1hZT4nLCAnLW9tYWUnLCAnPG91dGZpbGUubWFlPic=

> <r_lp_tautomer_probability>
1

> <r_epik_Ionization_Penalty>
0.00268321

> <r_epik_Ionization_Penalty_Charging>
0.00267875

> <r_epik_Ionization_Penalty_Neutral>
4.46125e-06

> <r_epik_State_Penalty>
0.00186642

> <r_epik_Charging_Adjusted_Penalty>
0.00454517

> <i_epik_Tot_Q>
1

> <i_epik_Tot_abs_Q>
1

> <r_epik_Metal_State_Penalty>
-0

> <b_epik_Metal_Only>
0

> <s_lp_Force_Field>
OPLS_2005

> <r_lp_Energy>
25.5327

> <b_lp_Chiralities_Consistent>
1

> <s_lp_Variant>
AV-unprocessed.smi:2095-5

> <Gold.Version>
5.8.1

> <Gold.Id.Protein>
6NUR|6NUR_protein|mol2

> <Gold.PLP.Fitness>
44.6734

> <Gold.PLP.PLP>
-37.9195

> <Gold.PLP.part.hbond>
-2.0000

> <Gold.PLP.part.metal>
0.0000

> <Gold.PLP.part.buried>
-4.5056

> <Gold.PLP.part.nonpolar>
-30.8526

> <Gold.PLP.part.repulsive>
0.2153

> <Gold.PLP.ligand.clash>
0.0000

> <Gold.PLP.ligand.torsion>
1.1392

> <Gold.PLP.Chemscore.Hbond>
2.0000

> <Gold.PLP.Chemscore.CHOScore>
0.9745

> <Gold.PLP.Chemscore.Metal>
0.0000

> <Gold.Chemscore.Hbonds>
donor molecule, donor type, donor heavy atom, donor atom, acceptor molecule, acceptor atom, score
      P1  H  7989  7998       L1    12  0.94
      P1  H 10752 10765       L1    16  0.94
      L1  C    15    39       P1  7949  1.00

> <Gold.PLP.Chemscore.Internal.Correction>
0.1088

> <Gold.Rescore>
     Score         DG    S(hbond)    S(metal)    S(lipo)     H(rot)  DE(clash)    DE(int)     intcor
     13.27     -15.67       1.71        0.00      96.14       2.64       0.18       2.21       ----

> <Gold.Chemscore.Fitness>
13.2749

> <Gold.Chemscore.DG>
-15.6722

> <Gold.Chemscore.ZeroCoef>
-5.4800

> <Gold.Chemscore.Hbond>
1.7101

> <Gold.Chemscore.Metal>
0.0000

> <Gold.Chemscore.Lipo>
96.1432

> <Gold.Chemscore.Internal_Hbond>
0.0000

> <Gold.Chemscore.DEClash>
0.1840

> <Gold.Chemscore.DEInternal>
2.2132

> <Gold.Chemscore.Rot>
2.6439

> <Gold.Chemscore.Internal.Correction>
   9.000000E+99

> <Gold.Chemscore.Hbonds>
donor molecule, donor type, donor heavy atom, donor atom, acceptor molecule, acceptor atom, score
      P1  H  7989  7998       L1    12  0.85
      P1  H 10752 10765       L1    16  0.62

> <Gold.Chemscore.Hbond.Weighted>
-5.7119

> <Gold.Chemscore.Metal.Weighted>
-0.0000

> <Gold.Chemscore.Lipo.Weighted>
-11.2487

> <Gold.Chemscore.Internal_Hbond.Weighted>
0.0000

> <Gold.Chemscore.DEClash.Weighted>
0.1840

> <Gold.Chemscore.DEInternal.Weighted>
2.2132

> <Gold.Chemscore.Rot.Weighted>
6.7685

> <Gold.Chemscore.Internal.Correction.Weighted>
   9.000000E+99

> <Gold.Protein.RotatedTorsions>
[ 6907 6896 6895 6894 ] final -107.29 input  -60.11 | X-H torsion
[ 7974 7965 7964 7962 ] final  -12.41 input  175.53 | X-H torsion
[ 8008 7997 7996 7995 ] final   -6.93 input   59.86 | X-H torsion
[ 10167 10162 10161 10158 ] final   85.32 input  -65.29 | X-H torsion
[ 10718 10713 10712 10709 ] final  -15.10 input   66.30 | X-H torsion
[ 10763 10752 10751 10750 ] final -151.19 input  -60.55 | X-H torsion
[ 11005 11000 10999 10996 ] final   41.12 input  -57.11 | X-H torsion

> <Gold.Protein.ActiveResidues>
 VAL166  LYS551  ARG553  GLY616  TRP617  ASP618  TYR619  PRO620  LYS621  CYS622 
 ASP623  PHE694  ASN695  SER759  ASP760  ASP761  ALA762  ILE779  LEU786  VAL792 
 PHE793  MET794  SER795  GLU796  ALA797  LYS798  CYS799  TRP800  GLU811  SER814 

> <Gold.Protein.RotatedAtoms>
  150.7436  133.9849  159.3587 H   0  0  0  0  0  0  0  0  0  0  0  0  # atno 6907 bound_to 6896
  151.7792  135.0764  160.0380 H   0  0  0  0  0  0  0  0  0  0  0  0  # atno 6908 bound_to 6896
  152.3285  133.5895  159.5830 H   0  0  0  0  0  0  0  0  0  0  0  0  # atno 6909 bound_to 6896
  146.2153  140.3053  142.8378 H   0  0  0  0  0  0  0  0  0  0  0  0  # atno 7974 bound_to 7965
  154.5888  140.2420  155.7949 H   0  0  0  0  0  0  0  0  0  0  0  0  # atno 8008 bound_to 7997
  156.2233  140.2991  155.9959 H   0  0  0  0  0  0  0  0  0  0  0  0  # atno 8009 bound_to 7997
  155.2410  140.0407  157.2965 H   0  0  0  0  0  0  0  0  0  0  0  0  # atno 8010 bound_to 7997
  139.8990  144.6341  150.8658 H   0  0  0  0  0  0  0  0  0  0  0  0  # atno 10167 bound_to 10162
  156.6065  130.4838  149.6218 H   0  0  0  0  0  0  0  0  0  0  0  0  # atno 10718 bound_to 10713
  154.8073  135.3266  154.7397 H   0  0  0  0  0  0  0  0  0  0  0  0  # atno 10763 bound_to 10752
  153.8053  135.6900  153.4853 H   0  0  0  0  0  0  0  0  0  0  0  0  # atno 10764 bound_to 10752
  153.1827  135.4580  154.9994 H   0  0  0  0  0  0  0  0  0  0  0  0  # atno 10765 bound_to 10752
  140.1865  134.4039  155.8170 H   0  0  0  0  0  0  0  0  0  0  0  0  # atno 11005 bound_to 11000
  144.9027  140.7662  143.5857 LP  0  0  0  0  0  0  0  0  0  0  0  0  # atno 17320 bound_to 7965
  145.2980  139.1860  143.4705 LP  0  0  0  0  0  0  0  0  0  0  0  0  # atno 17321 bound_to 7965
  140.7711  143.3451  151.2127 LP  0  0  0  0  0  0  0  0  0  0  0  0  # atno 17342 bound_to 10162
  139.7042  143.9482  152.2919 LP  0  0  0  0  0  0  0  0  0  0  0  0  # atno 17343 bound_to 10162
  156.2425  130.6859  151.1569 LP  0  0  0  0  0  0  0  0  0  0  0  0  # atno 17370 bound_to 10713
  157.7266  131.0645  150.5904 LP  0  0  0  0  0  0  0  0  0  0  0  0  # atno 17371 bound_to 10713
  141.2225  133.7025  156.8021 LP  0  0  0  0  0  0  0  0  0  0  0  0  # atno 17394 bound_to 11000
  140.2208  134.8758  157.3375 LP  0  0  0  0  0  0  0  0  0  0  0  0  # atno 17395 bound_to 11000

$$$$
