AV-unprocessed.smi:655|AV-procd|sdf|3217|dock9
  -GOLD-   22720 0153D 1   1.00000     0.00000
 Structure written by MMmdl.
 34 35  0  0  0  0  0  0  0  0  2 V2000
  153.4668  142.4642  160.8171 C   0  0  0  0  0  0  0  0  0  0  0  0
  152.2523  142.4553  159.8779 C   0  0  2  0  0  0  0  0  0  0  0  0
  151.8701  141.0225  159.4658 C   0  0  0  0  0  0  0  0  0  0  0  0
  150.6589  141.0022  158.5146 C   0  0  0  0  0  0  0  0  0  0  0  0
  150.8719  141.8772  157.2550 C   0  0  2  0  0  0  0  0  0  0  0  0
  149.6152  142.0340  156.6235 O   0  0  0  0  0  0  0  0  0  0  0  0
  151.8571  141.2922  156.1976 C   0  0  0  0  0  0  0  0  0  0  0  0
  151.6743  139.8560  155.9046 N   0  0  0  0  0  0  0  0  0  0  0  0
  152.2684  138.9416  156.7935 C   0  0  0  0  0  0  0  0  0  0  0  0
  152.1665  137.6085  156.6314 C   0  0  0  0  0  0  0  0  0  0  0  0
  152.9142  136.5158  157.7413 Cl  0  0  0  0  0  0  0  0  0  0  0  0
  151.4012  137.1147  155.4897 C   0  0  0  0  0  0  0  0  0  0  0  0
  151.3019  135.9032  155.3004 O   0  0  0  0  0  0  0  0  0  0  0  0
  150.8181  138.0386  154.6721 N   0  5  0  0  0  0  0  0  0  0  0  0
  150.9228  139.3902  154.8609 C   0  0  0  0  0  0  0  0  0  0  0  0
  150.3607  140.1948  154.1198 O   0  0  0  0  0  0  0  0  0  0  0  0
  151.2887  143.3049  157.6827 C   0  0  0  0  0  0  0  0  0  0  0  0
  152.5018  143.3193  158.6289 C   0  0  0  0  0  0  0  0  0  0  0  0
  154.3460  142.0389  160.3318 H   0  0  0  0  0  0  0  0  0  0  0  0
  153.2707  141.8829  161.7185 H   0  0  0  0  0  0  0  0  0  0  0  0
  153.7161  143.4792  161.1272 H   0  0  0  0  0  0  0  0  0  0  0  0
  151.4110  142.8852  160.4234 H   0  0  0  0  0  0  0  0  0  0  0  0
  152.7268  140.5455  158.9934 H   0  0  0  0  0  0  0  0  0  0  0  0
  151.6431  140.4290  160.3518 H   0  0  0  0  0  0  0  0  0  0  0  0
  150.4107  139.9762  158.2430 H   0  0  0  0  0  0  0  0  0  0  0  0
  149.7939  141.3740  159.0663 H   0  0  0  0  0  0  0  0  0  0  0  0
  149.4666  142.9571  156.4856 H   0  0  0  0  0  0  0  0  0  0  0  0
  151.7603  141.8517  155.2655 H   0  0  0  0  0  0  0  0  0  0  0  0
  152.8848  141.4789  156.5093 H   0  0  0  0  0  0  0  0  0  0  0  0
  152.8096  139.3897  157.6140 H   0  0  0  0  0  0  0  0  0  0  0  0
  151.4975  143.9183  156.8052 H   0  0  0  0  0  0  0  0  0  0  0  0
  150.4559  143.7904  158.1948 H   0  0  0  0  0  0  0  0  0  0  0  0
  152.7144  144.3466  158.9266 H   0  0  0  0  0  0  0  0  0  0  0  0
  153.3898  142.9670  158.1037 H   0  0  0  0  0  0  0  0  0  0  0  0
  1  2  1  0  0  0  0
  1 19  1  0  0  0  0
  1 20  1  0  0  0  0
  1 21  1  0  0  0  0
  2 18  1  0  0  0  0
  2  3  1  0  0  0  0
  2 22  1  0  0  0  0
  3  4  1  0  0  0  0
  3 23  1  0  0  0  0
  3 24  1  0  0  0  0
  4  5  1  0  0  0  0
  4 25  1  0  0  0  0
  4 26  1  0  0  0  0
  5  6  1  0  0  0  0
  5  7  1  0  0  0  0
  5 17  1  0  0  0  0
  6 27  1  0  0  0  0
  7  8  1  0  0  0  0
  7 28  1  0  0  0  0
  7 29  1  0  0  0  0
  8 15  1  0  0  0  0
  8  9  1  0  0  0  0
  9 10  2  0  0  0  0
  9 30  1  0  0  0  0
 10 11  1  0  0  0  0
 10 12  1  0  0  0  0
 12 13  2  0  0  0  0
 12 14  1  0  0  0  0
 14 15  1  0  0  0  0
 15 16  2  0  0  0  0
 17 18  1  0  0  0  0
 17 31  1  0  0  0  0
 17 32  1  0  0  0  0
 18 33  1  0  0  0  0
 18 34  1  0  0  0  0
M  CHG  1  14  -1
M  END
> <s_m_source_file>
AV-unprocessed.smi

> <i_m_source_file_index>
655

> <i_lp_mmshare_version>
43012

> <i_f3d_flags>
0

> <s_epik_input>
W0NIMl0xW0NIMl1bQ0BIXShbQ0gzXSlbQ0gyXVtDSDJdW0NAQF0xKFtPSF0pW0NIMl1uMltjSF1jKENsKWMoPU8pW25IXWMyPU8=

> <s_epik_cmdline>
J2VwaWtfcHl0aG9uJywgJy1waCcsICc3LjAnLCAnLXRuJywgJzgnLCAnLW1hJywgJzIwMCcsICctbWV0YWxfYmluZGluZycsICctaW1hZScsICc8aW5maWxlLm1hZT4nLCAnLW9tYWUnLCAnPG91dGZpbGUubWFlPic=

> <r_epik_Ionization_Penalty>
2.34257

> <r_epik_Ionization_Penalty_Charging>
1.00552e-07

> <r_epik_Ionization_Penalty_Neutral>
2.34257

> <r_epik_State_Penalty>
2.4963

> <r_epik_Charging_Adjusted_Penalty>
2.4963

> <i_epik_Tot_Q>
-1

> <i_epik_Tot_abs_Q>
1

> <r_epik_Metal_State_Penalty>
0.0381881

> <b_epik_Metal_Only>
0

> <s_lp_Force_Field>
OPLS_2005

> <r_lp_Energy>
26.7084

> <b_lp_Chiralities_Consistent>
1

> <s_lp_Variant>
AV-unprocessed.smi:655-4

> <Gold.Version>
5.8.1

> <Gold.Id.Protein>
6NUR|6NUR_protein|mol2

> <Gold.PLP.Fitness>
39.7968

> <Gold.PLP.PLP>
-31.6680

> <Gold.PLP.part.hbond>
-2.8384

> <Gold.PLP.part.metal>
0.0000

> <Gold.PLP.part.buried>
-4.5806

> <Gold.PLP.part.nonpolar>
-24.8623

> <Gold.PLP.part.repulsive>
0.9188

> <Gold.PLP.ligand.clash>
0.0000

> <Gold.PLP.ligand.torsion>
0.4752

> <Gold.PLP.Chemscore.Hbond>
3.0000

> <Gold.PLP.Chemscore.CHOScore>
0.0000

> <Gold.PLP.Chemscore.Metal>
0.0000

> <Gold.Chemscore.Hbonds>
donor molecule, donor type, donor heavy atom, donor atom, acceptor molecule, acceptor atom, score
      L1  H     6    27       P1  8028  0.99
      P1  H  7989  7998       L1    16  1.00
      P1  H 10752 10763       L1    13  1.00

> <Gold.PLP.Chemscore.Internal.Correction>
0.0791

> <Gold.Rescore>
     Score         DG    S(hbond)    S(metal)    S(lipo)     H(rot)  DE(clash)    DE(int)     intcor
     16.62     -18.86       2.34        0.00      87.26       1.81       1.68       0.56       ----

> <Gold.Chemscore.Fitness>
16.6238

> <Gold.Chemscore.DG>
-18.8637

> <Gold.Chemscore.ZeroCoef>
-5.4800

> <Gold.Chemscore.Hbond>
2.3370

> <Gold.Chemscore.Metal>
0.0000

> <Gold.Chemscore.Lipo>
87.2611

> <Gold.Chemscore.Internal_Hbond>
0.0000

> <Gold.Chemscore.DEClash>
1.6771

> <Gold.Chemscore.DEInternal>
0.5628

> <Gold.Chemscore.Rot>
1.8092

> <Gold.Chemscore.Internal.Correction>
   9.000000E+99

> <Gold.Chemscore.Hbonds>
donor molecule, donor type, donor heavy atom, donor atom, acceptor molecule, acceptor atom, score
      L1  H     6    27       P1  8028  0.93
      P1  H  7989  7998       L1    16  0.23
      P1  H 10752 10763       L1    13  0.26

> <Gold.Chemscore.Hbond.Weighted>
-7.8057

> <Gold.Chemscore.Metal.Weighted>
-0.0000

> <Gold.Chemscore.Lipo.Weighted>
-10.2096

> <Gold.Chemscore.Internal_Hbond.Weighted>
0.0000

> <Gold.Chemscore.DEClash.Weighted>
1.6771

> <Gold.Chemscore.DEInternal.Weighted>
0.5628

> <Gold.Chemscore.Rot.Weighted>
4.6316

> <Gold.Chemscore.Internal.Correction.Weighted>
   9.000000E+99

> <Gold.Protein.RotatedTorsions>
[ 6907 6896 6895 6894 ] final   52.38 input  -60.11 | X-H torsion
[ 7974 7965 7964 7962 ] final   51.93 input  175.53 | X-H torsion
[ 8008 7997 7996 7995 ] final  -50.54 input   59.86 | X-H torsion
[ 10167 10162 10161 10158 ] final  153.10 input  -65.29 | X-H torsion
[ 10718 10713 10712 10709 ] final  -60.52 input   66.30 | X-H torsion
[ 10763 10752 10751 10750 ] final   77.26 input  -60.55 | X-H torsion
[ 11005 11000 10999 10996 ] final -120.81 input  -57.11 | X-H torsion

> <Gold.Protein.ActiveResidues>
 VAL166  LYS551  ARG553  GLY616  TRP617  ASP618  TYR619  PRO620  LYS621  CYS622 
 ASP623  PHE694  ASN695  SER759  ASP760  ASP761  ALA762  ILE779  LEU786  VAL792 
 PHE793  MET794  SER795  GLU796  ALA797  LYS798  CYS799  TRP800  GLU811  SER814 

> <Gold.Protein.RotatedAtoms>
  152.3226  134.7361  160.0309 H   0  0  0  0  0  0  0  0  0  0  0  0  # atno 6907 bound_to 6896
  151.7804  133.3344  159.3478 H   0  0  0  0  0  0  0  0  0  0  0  0  # atno 6908 bound_to 6896
  150.7378  134.5867  159.6011 H   0  0  0  0  0  0  0  0  0  0  0  0  # atno 6909 bound_to 6896
  145.9864  139.4294  143.0100 H   0  0  0  0  0  0  0  0  0  0  0  0  # atno 7974 bound_to 7965
  154.4064  140.1270  156.4683 H   0  0  0  0  0  0  0  0  0  0  0  0  # atno 8008 bound_to 7997
  155.7205  140.3493  155.4994 H   0  0  0  0  0  0  0  0  0  0  0  0  # atno 8009 bound_to 7997
  155.9219  140.1054  157.1190 H   0  0  0  0  0  0  0  0  0  0  0  0  # atno 8010 bound_to 7997
  139.4829  144.5301  151.7736 H   0  0  0  0  0  0  0  0  0  0  0  0  # atno 10167 bound_to 10162
  156.0985  130.4189  150.0865 H   0  0  0  0  0  0  0  0  0  0  0  0  # atno 10718 bound_to 10713
  153.0786  135.4921  154.8455 H   0  0  0  0  0  0  0  0  0  0  0  0  # atno 10763 bound_to 10752
  154.7120  135.3022  154.9184 H   0  0  0  0  0  0  0  0  0  0  0  0  # atno 10764 bound_to 10752
  153.9875  135.6782  153.4805 H   0  0  0  0  0  0  0  0  0  0  0  0  # atno 10765 bound_to 10752
  141.0116  134.0256  157.3406 H   0  0  0  0  0  0  0  0  0  0  0  0  # atno 11005 bound_to 11000
  145.7694  140.9903  143.1158 LP  0  0  0  0  0  0  0  0  0  0  0  0  # atno 17320 bound_to 7965
  144.6876  139.9428  143.7475 LP  0  0  0  0  0  0  0  0  0  0  0  0  # atno 17321 bound_to 7965
  140.4826  144.1427  150.5935 LP  0  0  0  0  0  0  0  0  0  0  0  0  # atno 17342 bound_to 10162
  140.4260  143.2589  151.9655 LP  0  0  0  0  0  0  0  0  0  0  0  0  # atno 17343 bound_to 10162
  156.8859  130.9572  151.3594 LP  0  0  0  0  0  0  0  0  0  0  0  0  # atno 17370 bound_to 10713
  157.6151  130.8612  149.9014 LP  0  0  0  0  0  0  0  0  0  0  0  0  # atno 17371 bound_to 10713
  139.9093  135.0187  156.7623 LP  0  0  0  0  0  0  0  0  0  0  0  0  # atno 17394 bound_to 11000
  140.6724  133.9548  155.7864 LP  0  0  0  0  0  0  0  0  0  0  0  0  # atno 17395 bound_to 11000

$$$$
