AV-unprocessed.smi:2126|AV-procd|sdf|8675|dock3
  -GOLD-   2272011423D 1   1.00000     0.00000
 Structure written by MMmdl.
 40 42  0  0  0  0  0  0  0  0  1 V2000
  143.6548  145.1015  154.1062 C   0  0  0  0  0  0  0  0  0  0  0  0
  143.9189  144.1915  155.1639 O   0  0  0  0  0  0  0  0  0  0  0  0
  145.0745  143.4428  155.1012 C   0  0  0  0  0  0  0  0  0  0  0  0
  145.7833  143.1684  153.9060 C   0  0  0  0  0  0  0  0  0  0  0  0
  146.9572  142.3910  153.9366 C   0  0  0  0  0  0  0  0  0  0  0  0
  147.4523  141.8721  155.1492 C   0  0  0  0  0  0  0  0  0  0  0  0
  148.6079  141.1232  155.0862 O   0  0  0  0  0  0  0  0  0  0  0  0
  149.3552  140.9391  156.2815 C   0  0  0  0  0  0  0  0  0  0  0  0
  150.8431  141.1793  155.9866 C   0  0  2  0  0  0  0  0  0  0  0  0
  151.2934  140.1615  155.1141 O   0  0  0  0  0  0  0  0  0  0  0  0
  151.7035  141.1922  157.2654 C   0  0  0  0  0  0  0  0  0  0  0  0
  151.6473  142.4659  157.9609 N   0  0  0  0  0  0  0  0  0  0  0  0
  151.2069  143.6393  157.4679 C   0  0  0  0  0  0  0  0  0  0  0  0
  151.2430  144.6930  158.2786 N   0  0  0  0  0  0  0  0  0  0  0  0
  151.7673  144.1390  159.4340 C   0  0  0  0  0  0  0  0  0  0  0  0
  152.0621  144.7307  160.6832 C   0  0  0  0  0  0  0  0  0  0  0  0
  152.6033  143.9563  161.7306 C   0  0  0  0  0  0  0  0  0  0  0  0
  152.8581  142.5819  161.5460 C   0  0  0  0  0  0  0  0  0  0  0  0
  152.5725  141.9700  160.3104 C   0  0  0  0  0  0  0  0  0  0  0  0
  152.0317  142.7459  159.2680 C   0  0  0  0  0  0  0  0  0  0  0  0
  146.7430  142.1467  156.3443 C   0  0  0  0  0  0  0  0  0  0  0  0
  145.5692  142.9235  156.3137 C   0  0  0  0  0  0  0  0  0  0  0  0
  142.7088  145.6082  154.2960 H   0  0  0  0  0  0  0  0  0  0  0  0
  143.5662  144.5860  153.1490 H   0  0  0  0  0  0  0  0  0  0  0  0
  144.4301  145.8657  154.0354 H   0  0  0  0  0  0  0  0  0  0  0  0
  145.4474  143.5426  152.9509 H   0  0  0  0  0  0  0  0  0  0  0  0
  147.4843  142.1907  153.0154 H   0  0  0  0  0  0  0  0  0  0  0  0
  149.0143  141.6226  157.0611 H   0  0  0  0  0  0  0  0  0  0  0  0
  149.2132  139.9182  156.6406 H   0  0  0  0  0  0  0  0  0  0  0  0
  150.9528  142.1304  155.4640 H   0  0  0  0  0  0  0  0  0  0  0  0
  151.6924  139.4785  155.6315 H   0  0  0  0  0  0  0  0  0  0  0  0
  151.3699  140.4140  157.9531 H   0  0  0  0  0  0  0  0  0  0  0  0
  152.7447  140.9695  157.0289 H   0  0  0  0  0  0  0  0  0  0  0  0
  150.8412  143.7251  156.4549 H   0  0  0  0  0  0  0  0  0  0  0  0
  151.8729  145.7829  160.8358 H   0  0  0  0  0  0  0  0  0  0  0  0
  152.8250  144.4197  162.6806 H   0  0  0  0  0  0  0  0  0  0  0  0
  153.2741  141.9978  162.3540 H   0  0  0  0  0  0  0  0  0  0  0  0
  152.7690  140.9182  160.1641 H   0  0  0  0  0  0  0  0  0  0  0  0
  147.0774  141.7725  157.2996 H   0  0  0  0  0  0  0  0  0  0  0  0
  145.0411  143.1226  157.2347 H   0  0  0  0  0  0  0  0  0  0  0  0
  1  2  1  0  0  0  0
  1 23  1  0  0  0  0
  1 24  1  0  0  0  0
  1 25  1  0  0  0  0
  2  3  1  0  0  0  0
  3 22  1  0  0  0  0
  3  4  2  0  0  0  0
  4  5  1  0  0  0  0
  4 26  1  0  0  0  0
  5  6  2  0  0  0  0
  5 27  1  0  0  0  0
  6  7  1  0  0  0  0
  6 21  1  0  0  0  0
  7  8  1  0  0  0  0
  8  9  1  0  0  0  0
  8 28  1  0  0  0  0
  8 29  1  0  0  0  0
  9 10  1  0  0  0  0
  9 11  1  0  0  0  0
  9 30  1  0  0  0  0
 10 31  1  0  0  0  0
 11 12  1  0  0  0  0
 11 32  1  0  0  0  0
 11 33  1  0  0  0  0
 12 20  1  0  0  0  0
 12 13  1  0  0  0  0
 13 14  2  0  0  0  0
 13 34  1  0  0  0  0
 14 15  1  0  0  0  0
 15 20  2  0  0  0  0
 15 16  1  0  0  0  0
 16 17  2  0  0  0  0
 16 35  1  0  0  0  0
 17 18  1  0  0  0  0
 17 36  1  0  0  0  0
 18 19  2  0  0  0  0
 18 37  1  0  0  0  0
 19 20  1  0  0  0  0
 19 38  1  0  0  0  0
 21 22  2  0  0  0  0
 21 39  1  0  0  0  0
 22 40  1  0  0  0  0
M  END
> <s_m_source_file>
AV-unprocessed.smi

> <i_m_source_file_index>
2126

> <i_lp_mmshare_version>
43012

> <i_f3d_flags>
0

> <s_epik_input>
W0NIM11PYzFbY0hdW2NIXWMoW2NIXVtjSF0xKU9bQ0gyXVtDQEhdKFtPSF0pW0NIMl1uKFtjSF1uMiljKGMyMylbY0hdW2NIXVtjSF1bY0hdMw==

> <s_epik_cmdline>
J2VwaWtfcHl0aG9uJywgJy1waCcsICc3LjAnLCAnLXRuJywgJzgnLCAnLW1hJywgJzIwMCcsICctbWV0YWxfYmluZGluZycsICctaW1hZScsICc8aW5maWxlLm1hZT4nLCAnLW9tYWUnLCAnPG91dGZpbGUubWFlPic=

> <r_lp_tautomer_probability>
1

> <r_epik_Ionization_Penalty>
0.0608933

> <r_epik_Ionization_Penalty_Charging>
0

> <r_epik_Ionization_Penalty_Neutral>
0.0608933

> <r_epik_State_Penalty>
0.0528196

> <r_epik_Charging_Adjusted_Penalty>
0.0528196

> <i_epik_Tot_Q>
0

> <i_epik_Tot_abs_Q>
0

> <r_epik_Metal_State_Penalty>
5.52429e-05

> <b_epik_Metal_Only>
0

> <s_lp_Force_Field>
OPLS_2005

> <r_lp_Energy>
18.1491

> <b_lp_Chiralities_Consistent>
1

> <s_lp_Variant>
AV-unprocessed.smi:2126-1

> <Gold.Version>
5.8.1

> <Gold.Id.Protein>
6NUR|6NUR_protein|mol2

> <Gold.PLP.Fitness>
54.2664

> <Gold.PLP.PLP>
-50.9793

> <Gold.PLP.part.hbond>
-1.0000

> <Gold.PLP.part.metal>
0.0000

> <Gold.PLP.part.buried>
-7.0807

> <Gold.PLP.part.nonpolar>
-42.0155

> <Gold.PLP.part.repulsive>
0.3777

> <Gold.PLP.ligand.clash>
0.0000

> <Gold.PLP.ligand.torsion>
1.3447

> <Gold.PLP.Chemscore.Hbond>
1.0000

> <Gold.PLP.Chemscore.CHOScore>
0.9504

> <Gold.PLP.Chemscore.Metal>
0.0000

> <Gold.Chemscore.Hbonds>
donor molecule, donor type, donor heavy atom, donor atom, acceptor molecule, acceptor atom, score
      P1  H  7989  7998       L1    10  1.00
      L1  C    13    34       P1  8028  0.99

> <Gold.PLP.Chemscore.Internal.Correction>
0.1252

> <Gold.Rescore>
     Score         DG    S(hbond)    S(metal)    S(lipo)     H(rot)  DE(clash)    DE(int)     intcor
     15.00     -16.28       0.89        0.00     121.73       2.51       0.38       0.90       ----

> <Gold.Chemscore.Fitness>
15.0026

> <Gold.Chemscore.DG>
-16.2814

> <Gold.Chemscore.ZeroCoef>
-5.4800

> <Gold.Chemscore.Hbond>
0.8922

> <Gold.Chemscore.Metal>
0.0000

> <Gold.Chemscore.Lipo>
121.7314

> <Gold.Chemscore.Internal_Hbond>
0.0000

> <Gold.Chemscore.DEClash>
0.3813

> <Gold.Chemscore.DEInternal>
0.8976

> <Gold.Chemscore.Rot>
2.5083

> <Gold.Chemscore.Internal.Correction>
   9.000000E+99

> <Gold.Chemscore.Hbonds>
donor molecule, donor type, donor heavy atom, donor atom, acceptor molecule, acceptor atom, score
      P1  H  7989  7998       L1    10  0.69

> <Gold.Chemscore.Hbond.Weighted>
-2.9800

> <Gold.Chemscore.Metal.Weighted>
-0.0000

> <Gold.Chemscore.Lipo.Weighted>
-14.2426

> <Gold.Chemscore.Internal_Hbond.Weighted>
0.0000

> <Gold.Chemscore.DEClash.Weighted>
0.3813

> <Gold.Chemscore.DEInternal.Weighted>
0.8976

> <Gold.Chemscore.Rot.Weighted>
6.4212

> <Gold.Chemscore.Internal.Correction.Weighted>
   9.000000E+99

> <Gold.Protein.RotatedTorsions>
[ 6907 6896 6895 6894 ] final  170.62 input  -60.11 | X-H torsion
[ 7974 7965 7964 7962 ] final -151.12 input  175.53 | X-H torsion
[ 8008 7997 7996 7995 ] final -119.17 input   59.86 | X-H torsion
[ 10167 10162 10161 10158 ] final -166.42 input  -65.29 | X-H torsion
[ 10718 10713 10712 10709 ] final  179.64 input   66.30 | X-H torsion
[ 10763 10752 10751 10750 ] final   57.92 input  -60.55 | X-H torsion
[ 11005 11000 10999 10996 ] final  -42.41 input  -57.11 | X-H torsion

> <Gold.Protein.ActiveResidues>
 VAL166  LYS551  ARG553  GLY616  TRP617  ASP618  TYR619  PRO620  LYS621  CYS622 
 ASP623  PHE694  ASN695  SER759  ASP760  ASP761  ALA762  ILE779  LEU786  VAL792 
 PHE793  MET794  SER795  GLU796  ALA797  LYS798  CYS799  TRP800  GLU811  SER814 

> <Gold.Protein.RotatedAtoms>
  151.8131  133.3384  159.3561 H   0  0  0  0  0  0  0  0  0  0  0  0  # atno 6907 bound_to 6896
  150.7319  134.5644  159.5868 H   0  0  0  0  0  0  0  0  0  0  0  0  # atno 6908 bound_to 6896
  152.3060  134.7555  160.0398 H   0  0  0  0  0  0  0  0  0  0  0  0  # atno 6909 bound_to 6896
  144.7868  140.4840  143.5801 H   0  0  0  0  0  0  0  0  0  0  0  0  # atno 7974 bound_to 7965
  155.1115  140.0397  157.2725 H   0  0  0  0  0  0  0  0  0  0  0  0  # atno 8008 bound_to 7997
  154.6682  140.2606  155.7010 H   0  0  0  0  0  0  0  0  0  0  0  0  # atno 8009 bound_to 7997
  156.2647  140.2803  156.1180 H   0  0  0  0  0  0  0  0  0  0  0  0  # atno 8010 bound_to 7997
  139.6116  144.0803  152.1848 H   0  0  0  0  0  0  0  0  0  0  0  0  # atno 10167 bound_to 10162
  156.8728  130.9789  151.3071 H   0  0  0  0  0  0  0  0  0  0  0  0  # atno 10718 bound_to 10713
  152.9860  135.5625  154.5469 H   0  0  0  0  0  0  0  0  0  0  0  0  # atno 10763 bound_to 10752
  154.4913  135.2793  155.1496 H   0  0  0  0  0  0  0  0  0  0  0  0  # atno 10764 bound_to 10752
  154.2965  135.6316  153.5460 H   0  0  0  0  0  0  0  0  0  0  0  0  # atno 10765 bound_to 10752
  141.0314  133.6818  156.2591 H   0  0  0  0  0  0  0  0  0  0  0  0  # atno 11005 bound_to 11000
  145.5901  139.1495  143.3187 LP  0  0  0  0  0  0  0  0  0  0  0  0  # atno 17320 bound_to 7965
  146.2103  140.6027  142.9062 LP  0  0  0  0  0  0  0  0  0  0  0  0  # atno 17321 bound_to 7965
  140.0423  144.5998  150.7401 LP  0  0  0  0  0  0  0  0  0  0  0  0  # atno 17342 bound_to 10162
  140.7323  143.2704  151.3907 LP  0  0  0  0  0  0  0  0  0  0  0  0  # atno 17343 bound_to 10162
  157.6185  130.8637  149.9069 LP  0  0  0  0  0  0  0  0  0  0  0  0  # atno 17370 bound_to 10713
  156.0717  130.3684  150.0761 LP  0  0  0  0  0  0  0  0  0  0  0  0  # atno 17371 bound_to 10713
  140.6400  134.5175  157.5568 LP  0  0  0  0  0  0  0  0  0  0  0  0  # atno 17394 bound_to 11000
  139.9210  134.8148  156.1211 LP  0  0  0  0  0  0  0  0  0  0  0  0  # atno 17395 bound_to 11000

$$$$
