AV-unprocessed.smi:982|AV-procd|sdf|4314|dock1
  -GOLD-   22720 2223D 1   1.00000     0.00000
 Structure written by MMmdl.
 30 31  0  0  0  0  0  0  0  0  2 V2000
  149.6418  138.5501  153.1810 N   0  3  0  0  0  0  0  0  0  0  0  0
  150.8899  138.3461  153.9347 C   0  0  0  0  0  0  0  0  0  0  0  0
  151.0273  139.3692  155.0442 C   0  0  0  0  0  0  0  0  0  0  0  0
  150.0891  140.4113  155.1921 C   0  0  0  0  0  0  0  0  0  0  0  0
  150.2633  141.3390  156.2370 C   0  0  0  0  0  0  0  0  0  0  0  0
  151.3703  141.1920  157.0991 C   0  0  0  0  0  0  0  0  0  0  0  0
  151.5495  142.1152  158.1390 N   0  0  0  0  0  0  0  0  0  0  0  0
  152.6210  141.7523  159.0584 C   0  0  0  0  0  0  0  0  0  0  0  0
  152.6675  142.7461  160.2321 C   0  0  0  0  0  0  0  0  0  0  0  0
  152.8086  144.0722  159.7306 O   0  0  0  0  0  0  0  0  0  0  0  0
  151.7192  144.4459  158.8917 C   0  0  0  0  0  0  0  0  0  0  0  0
  151.6511  143.4964  157.6830 C   0  0  0  0  0  0  0  0  0  0  0  0
  152.2726  140.1903  156.9622 N   0  0  0  0  0  0  0  0  0  0  0  0
  152.0984  139.3035  155.9598 C   0  0  0  0  0  0  0  0  0  0  0  0
  149.4208  137.7133  152.6604 H   0  0  0  0  0  0  0  0  0  0  0  0
  149.7572  139.3231  152.5413 H   0  0  0  0  0  0  0  0  0  0  0  0
  150.8992  137.3385  154.3520 H   0  0  0  0  0  0  0  0  0  0  0  0
  151.7382  138.4212  153.2538 H   0  0  0  0  0  0  0  0  0  0  0  0
  149.2502  140.5017  154.5175 H   0  0  0  0  0  0  0  0  0  0  0  0
  149.5597  142.1476  156.3735 H   0  0  0  0  0  0  0  0  0  0  0  0
  152.4625  140.7393  159.4307 H   0  0  0  0  0  0  0  0  0  0  0  0
  153.5766  141.7578  158.5323 H   0  0  0  0  0  0  0  0  0  0  0  0
  151.7660  142.6710  160.8426 H   0  0  0  0  0  0  0  0  0  0  0  0
  153.5127  142.5210  160.8824 H   0  0  0  0  0  0  0  0  0  0  0  0
  150.7863  144.4245  159.4578 H   0  0  0  0  0  0  0  0  0  0  0  0
  151.8653  145.4725  158.5565 H   0  0  0  0  0  0  0  0  0  0  0  0
  152.5441  143.6184  157.0684 H   0  0  0  0  0  0  0  0  0  0  0  0
  150.7921  143.7448  157.0585 H   0  0  0  0  0  0  0  0  0  0  0  0
  152.8394  138.5215  155.8828 H   0  0  0  0  0  0  0  0  0  0  0  0
  148.8896  138.7555  153.8231 H   0  0  0  0  0  0  0  0  0  0  0  0
  1  2  1  0  0  0  0
  1 15  1  0  0  0  0
  1 16  1  0  0  0  0
  1 30  1  0  0  0  0
  2  3  1  0  0  0  0
  2 17  1  0  0  0  0
  2 18  1  0  0  0  0
  3 14  1  0  0  0  0
  3  4  2  0  0  0  0
  4  5  1  0  0  0  0
  4 19  1  0  0  0  0
  5  6  2  0  0  0  0
  5 20  1  0  0  0  0
  6  7  1  0  0  0  0
  6 13  1  0  0  0  0
  7 12  1  0  0  0  0
  7  8  1  0  0  0  0
  8  9  1  0  0  0  0
  8 21  1  0  0  0  0
  8 22  1  0  0  0  0
  9 10  1  0  0  0  0
  9 23  1  0  0  0  0
  9 24  1  0  0  0  0
 10 11  1  0  0  0  0
 11 12  1  0  0  0  0
 11 25  1  0  0  0  0
 11 26  1  0  0  0  0
 12 27  1  0  0  0  0
 12 28  1  0  0  0  0
 13 14  2  0  0  0  0
 14 29  1  0  0  0  0
M  CHG  1   1   1
M  END
> <s_m_source_file>
AV-unprocessed.smi

> <i_m_source_file_index>
982

> <i_lp_mmshare_version>
43012

> <i_f3d_flags>
0

> <s_epik_input>
W05IMl1bQ0gyXWMxW2NIXVtjSF1jKG5bY0hdMSlOMltDSDJdW0NIMl1PW0NIMl1bQ0gyXTI=

> <s_epik_cmdline>
J2VwaWtfcHl0aG9uJywgJy1waCcsICc3LjAnLCAnLXRuJywgJzgnLCAnLW1hJywgJzIwMCcsICctbWV0YWxfYmluZGluZycsICctaW1hZScsICc8aW5maWxlLm1hZT4nLCAnLW9tYWUnLCAnPG91dGZpbGUubWFlPic=

> <r_lp_tautomer_probability>
1

> <r_epik_Ionization_Penalty>
0.0609618

> <r_epik_Ionization_Penalty_Charging>
0.0601937

> <r_epik_Ionization_Penalty_Neutral>
0.000768071

> <r_epik_State_Penalty>
0.0525568

> <r_epik_Charging_Adjusted_Penalty>
0.112751

> <i_epik_Tot_Q>
1

> <i_epik_Tot_abs_Q>
1

> <r_epik_Metal_State_Penalty>
0.0526295

> <b_epik_Metal_Only>
0

> <s_lp_Force_Field>
OPLS_2005

> <r_lp_Energy>
17.8415

> <b_lp_Chiralities_Consistent>
1

> <s_lp_Variant>
AV-unprocessed.smi:982-1

> <Gold.Version>
5.8.1

> <Gold.Id.Protein>
6NUR|6NUR_protein|mol2

> <Gold.PLP.Fitness>
42.3914

> <Gold.PLP.PLP>
-32.2383

> <Gold.PLP.part.hbond>
-2.9562

> <Gold.PLP.part.metal>
0.0000

> <Gold.PLP.part.buried>
-2.8327

> <Gold.PLP.part.nonpolar>
-26.2904

> <Gold.PLP.part.repulsive>
0.1285

> <Gold.PLP.ligand.clash>
0.0000

> <Gold.PLP.ligand.torsion>
0.0865

> <Gold.PLP.Chemscore.Hbond>
3.4078

> <Gold.PLP.Chemscore.CHOScore>
0.0000

> <Gold.PLP.Chemscore.Metal>
0.0000

> <Gold.Chemscore.Hbonds>
donor molecule, donor type, donor heavy atom, donor atom, acceptor molecule, acceptor atom, score
      L1  H     1    15       P1  7948  2.00
      L1  H     1    16       P1  7957  1.00
      P1  H  7997  8008       L1    13  0.40

> <Gold.PLP.Chemscore.Internal.Correction>
0.1027

> <Gold.Rescore>
     Score         DG    S(hbond)    S(metal)    S(lipo)     H(rot)  DE(clash)    DE(int)     intcor
     18.40     -18.53       2.02        0.00      82.74       1.32       0.01       0.11       ----

> <Gold.Chemscore.Fitness>
18.4033

> <Gold.Chemscore.DG>
-18.5259

> <Gold.Chemscore.ZeroCoef>
-5.4800

> <Gold.Chemscore.Hbond>
2.0159

> <Gold.Chemscore.Metal>
0.0000

> <Gold.Chemscore.Lipo>
82.7447

> <Gold.Chemscore.Internal_Hbond>
0.0000

> <Gold.Chemscore.DEClash>
0.0110

> <Gold.Chemscore.DEInternal>
0.1115

> <Gold.Chemscore.Rot>
1.3158

> <Gold.Chemscore.Internal.Correction>
   9.000000E+99

> <Gold.Chemscore.Hbonds>
donor molecule, donor type, donor heavy atom, donor atom, acceptor molecule, acceptor atom, score
      L1  H     1    15       P1  7948  0.82
      L1  H     1    16       P1  7957  0.89
      P1  H  7997  8008       L1    13  0.02

> <Gold.Chemscore.Hbond.Weighted>
-6.7332

> <Gold.Chemscore.Metal.Weighted>
-0.0000

> <Gold.Chemscore.Lipo.Weighted>
-9.6811

> <Gold.Chemscore.Internal_Hbond.Weighted>
0.0000

> <Gold.Chemscore.DEClash.Weighted>
0.0110

> <Gold.Chemscore.DEInternal.Weighted>
0.1115

> <Gold.Chemscore.Rot.Weighted>
3.3684

> <Gold.Chemscore.Internal.Correction.Weighted>
   9.000000E+99

> <Gold.Protein.RotatedTorsions>
[ 6907 6896 6895 6894 ] final   18.49 input  -60.11 | X-H torsion
[ 7974 7965 7964 7962 ] final -151.79 input  175.53 | X-H torsion
[ 8008 7997 7996 7995 ] final  -64.64 input   59.86 | X-H torsion
[ 10167 10162 10161 10158 ] final   13.72 input  -65.29 | X-H torsion
[ 10718 10713 10712 10709 ] final  -49.10 input   66.30 | X-H torsion
[ 10763 10752 10751 10750 ] final  -80.24 input  -60.55 | X-H torsion
[ 11005 11000 10999 10996 ] final  -24.09 input  -57.11 | X-H torsion

> <Gold.Protein.ActiveResidues>
 VAL166  LYS551  ARG553  GLY616  TRP617  ASP618  TYR619  PRO620  LYS621  CYS622 
 ASP623  PHE694  ASN695  SER759  ASP760  ASP761  ALA762  ILE779  LEU786  VAL792 
 PHE793  MET794  SER795  GLU796  ALA797  LYS798  CYS799  TRP800  GLU811  SER814 

> <Gold.Protein.RotatedAtoms>
  151.8661  135.0506  160.0474 H   0  0  0  0  0  0  0  0  0  0  0  0  # atno 6907 bound_to 6896
  152.2625  133.5305  159.5398 H   0  0  0  0  0  0  0  0  0  0  0  0  # atno 6908 bound_to 6896
  150.7121  134.0727  159.3912 H   0  0  0  0  0  0  0  0  0  0  0  0  # atno 6909 bound_to 6896
  144.7830  140.4750  143.5826 H   0  0  0  0  0  0  0  0  0  0  0  0  # atno 7974 bound_to 7965
  154.4624  140.0949  156.6928 H   0  0  0  0  0  0  0  0  0  0  0  0  # atno 8008 bound_to 7997
  155.4956  140.3472  155.4344 H   0  0  0  0  0  0  0  0  0  0  0  0  # atno 8009 bound_to 7997
  156.0894  140.1393  156.9600 H   0  0  0  0  0  0  0  0  0  0  0  0  # atno 8010 bound_to 7997
  140.5983  143.8656  150.6940 H   0  0  0  0  0  0  0  0  0  0  0  0  # atno 10167 bound_to 10162
  156.1925  130.4153  149.9351 H   0  0  0  0  0  0  0  0  0  0  0  0  # atno 10718 bound_to 10713
  154.5487  135.5668  153.6903 H   0  0  0  0  0  0  0  0  0  0  0  0  # atno 10763 bound_to 10752
  152.9983  135.6245  154.2404 H   0  0  0  0  0  0  0  0  0  0  0  0  # atno 10764 bound_to 10752
  154.2338  135.2865  155.2860 H   0  0  0  0  0  0  0  0  0  0  0  0  # atno 10765 bound_to 10752
  140.8812  133.7652  156.0305 H   0  0  0  0  0  0  0  0  0  0  0  0  # atno 11005 bound_to 11000
  145.5998  139.1503  143.3135 LP  0  0  0  0  0  0  0  0  0  0  0  0  # atno 17320 bound_to 7965
  146.2048  140.6120  142.9086 LP  0  0  0  0  0  0  0  0  0  0  0  0  # atno 17321 bound_to 7965
  140.2195  143.3820  152.1654 LP  0  0  0  0  0  0  0  0  0  0  0  0  # atno 17342 bound_to 10162
  139.5274  144.7118  151.5181 LP  0  0  0  0  0  0  0  0  0  0  0  0  # atno 17343 bound_to 10162
  156.7087  130.8961  151.3607 LP  0  0  0  0  0  0  0  0  0  0  0  0  # atno 17370 bound_to 10713
  157.6938  130.9260  150.0587 LP  0  0  0  0  0  0  0  0  0  0  0  0  # atno 17371 bound_to 10713
  140.8459  134.3012  157.5295 LP  0  0  0  0  0  0  0  0  0  0  0  0  # atno 17394 bound_to 11000
  139.8720  134.9441  156.3872 LP  0  0  0  0  0  0  0  0  0  0  0  0  # atno 17395 bound_to 11000

$$$$
