AV-unprocessed.smi:2565|AV-procd|sdf|10069|dock1
  -GOLD-   2272014103D 1   1.00000     0.00000
 Structure written by MMmdl.
 25 26  0  0  0  0  0  0  0  0  2 V2000
  150.6637  142.3210  157.2012 C   0  0  0  0  0  0  0  0  0  0  0  0
  151.4192  141.0846  157.1681 N   0  0  0  0  0  0  0  0  0  0  0  0
  152.3802  140.6696  158.0072 C   0  0  0  0  0  0  0  0  0  0  0  0
  152.9066  139.4808  157.7168 N   0  0  0  0  0  0  0  0  0  0  0  0
  152.2349  139.0711  156.5828 N   0  0  0  0  0  0  0  0  0  0  0  0
  151.3630  140.0496  156.3044 C   0  0  0  0  0  0  0  0  0  0  0  0
  150.4349  140.0312  155.1252 C   0  0  1  0  0  0  0  0  0  0  0  0
  150.4571  138.6788  154.3868 C   0  0  0  0  0  0  0  0  0  0  0  0
  149.4575  138.6787  153.3008 N   0  3  0  0  0  0  0  0  0  0  0  0
  148.1120  139.0179  153.8051 C   0  0  0  0  0  0  0  0  0  0  0  0
  148.1540  140.3515  154.5718 C   0  0  0  0  0  0  0  0  0  0  0  0
  149.1187  140.2762  155.6166 O   0  0  0  0  0  0  0  0  0  0  0  0
  151.0606  142.9822  157.9723 H   0  0  0  0  0  0  0  0  0  0  0  0
  149.6178  142.1074  157.4226 H   0  0  0  0  0  0  0  0  0  0  0  0
  150.7332  142.8234  156.2360 H   0  0  0  0  0  0  0  0  0  0  0  0
  152.7092  141.2554  158.8533 H   0  0  0  0  0  0  0  0  0  0  0  0
  150.7089  140.8377  154.4429 H   0  0  0  0  0  0  0  0  0  0  0  0
  151.4448  138.4831  153.9684 H   0  0  0  0  0  0  0  0  0  0  0  0
  150.2323  137.8639  155.0767 H   0  0  0  0  0  0  0  0  0  0  0  0
  149.7271  139.3652  152.6107 H   0  0  0  0  0  0  0  0  0  0  0  0
  147.4159  139.0776  152.9683 H   0  0  0  0  0  0  0  0  0  0  0  0
  147.7620  138.2179  154.4591 H   0  0  0  0  0  0  0  0  0  0  0  0
  148.3921  141.1791  153.9016 H   0  0  0  0  0  0  0  0  0  0  0  0
  147.1777  140.5657  155.0068 H   0  0  0  0  0  0  0  0  0  0  0  0
  149.4331  137.7668  152.8663 H   0  0  0  0  0  0  0  0  0  0  0  0
  1  2  1  0  0  0  0
  1 13  1  0  0  0  0
  1 14  1  0  0  0  0
  1 15  1  0  0  0  0
  2  6  1  0  0  0  0
  2  3  1  0  0  0  0
  3  4  2  0  0  0  0
  3 16  1  0  0  0  0
  4  5  1  0  0  0  0
  5  6  2  0  0  0  0
  6  7  1  0  0  0  0
  7 12  1  0  0  0  0
  7  8  1  0  0  0  0
  7 17  1  0  0  0  0
  8  9  1  0  0  0  0
  8 18  1  0  0  0  0
  8 19  1  0  0  0  0
  9 10  1  0  0  0  0
  9 20  1  0  0  0  0
  9 25  1  0  0  0  0
 10 11  1  0  0  0  0
 10 21  1  0  0  0  0
 10 22  1  0  0  0  0
 11 12  1  0  0  0  0
 11 23  1  0  0  0  0
 11 24  1  0  0  0  0
M  CHG  1   9   1
M  END
> <s_m_source_file>
AV-unprocessed.smi

> <i_m_source_file_index>
2565

> <i_lp_mmshare_version>
43012

> <i_f3d_flags>
0

> <s_epik_input>
W0NIM11uMVtjSF1ubmMxW0NAQEhdMltDSDJdW05IXVtDSDJdW0NIMl1PMg==

> <s_epik_cmdline>
J2VwaWtfcHl0aG9uJywgJy1waCcsICc3LjAnLCAnLXRuJywgJzgnLCAnLW1hJywgJzIwMCcsICctbWV0YWxfYmluZGluZycsICctaW1hZScsICc8aW5maWxlLm1hZT4nLCAnLW9tYWUnLCAnPG91dGZpbGUubWFlPic=

> <r_lp_tautomer_probability>
1

> <r_epik_Ionization_Penalty>
0.12571

> <r_epik_Ionization_Penalty_Charging>
0.125708

> <r_epik_Ionization_Penalty_Neutral>
1.64918e-06

> <r_epik_State_Penalty>
0.115169

> <r_epik_Charging_Adjusted_Penalty>
0.240877

> <i_epik_Tot_Q>
1

> <i_epik_Tot_abs_Q>
1

> <r_epik_Metal_State_Penalty>
0.115216

> <b_epik_Metal_Only>
0

> <s_lp_Force_Field>
OPLS_2005

> <r_lp_Energy>
13.9295

> <b_lp_Chiralities_Consistent>
1

> <s_lp_Variant>
AV-unprocessed.smi:2565-2

> <Gold.Version>
5.8.1

> <Gold.Id.Protein>
6NUR|6NUR_protein|mol2

> <Gold.PLP.Fitness>
32.0206

> <Gold.PLP.PLP>
-20.2181

> <Gold.PLP.part.hbond>
-2.9447

> <Gold.PLP.part.metal>
0.0000

> <Gold.PLP.part.buried>
-1.6791

> <Gold.PLP.part.nonpolar>
-15.5075

> <Gold.PLP.part.repulsive>
0.1512

> <Gold.PLP.ligand.clash>
0.0000

> <Gold.PLP.ligand.torsion>
0.1007

> <Gold.PLP.Chemscore.Hbond>
4.0000

> <Gold.PLP.Chemscore.CHOScore>
0.0000

> <Gold.PLP.Chemscore.Metal>
0.0000

> <Gold.Chemscore.Hbonds>
donor molecule, donor type, donor heavy atom, donor atom, acceptor molecule, acceptor atom, score
      L1  H     9    20       P1  7957  1.00
      L1  H     9    25       P1  7948  2.00
      P1  H  7997  8010       L1     4  0.90

> <Gold.PLP.Chemscore.Internal.Correction>
0.0038

> <Gold.Rescore>
     Score         DG    S(hbond)    S(metal)    S(lipo)     H(rot)  DE(clash)    DE(int)     intcor
     13.55     -13.57       1.98        0.00      34.40       1.00       0.02       0.00       ----

> <Gold.Chemscore.Fitness>
13.5462

> <Gold.Chemscore.DG>
-13.5674

> <Gold.Chemscore.ZeroCoef>
-5.4800

> <Gold.Chemscore.Hbond>
1.9827

> <Gold.Chemscore.Metal>
0.0000

> <Gold.Chemscore.Lipo>
34.4017

> <Gold.Chemscore.Internal_Hbond>
0.0000

> <Gold.Chemscore.DEClash>
0.0186

> <Gold.Chemscore.DEInternal>
0.0026

> <Gold.Chemscore.Rot>
1.0000

> <Gold.Chemscore.Internal.Correction>
   9.000000E+99

> <Gold.Chemscore.Hbonds>
donor molecule, donor type, donor heavy atom, donor atom, acceptor molecule, acceptor atom, score
      L1  H     9    20       P1  7957  0.93
      L1  H     9    25       P1  7948  0.88
      P1  H  7997  8010       L1     4  0.05

> <Gold.Chemscore.Hbond.Weighted>
-6.6224

> <Gold.Chemscore.Metal.Weighted>
-0.0000

> <Gold.Chemscore.Lipo.Weighted>
-4.0250

> <Gold.Chemscore.Internal_Hbond.Weighted>
0.0000

> <Gold.Chemscore.DEClash.Weighted>
0.0186

> <Gold.Chemscore.DEInternal.Weighted>
0.0026

> <Gold.Chemscore.Rot.Weighted>
2.5600

> <Gold.Chemscore.Internal.Correction.Weighted>
   9.000000E+99

> <Gold.Protein.RotatedTorsions>
[ 6907 6896 6895 6894 ] final  165.26 input  -60.11 | X-H torsion
[ 7974 7965 7964 7962 ] final   26.60 input  175.53 | X-H torsion
[ 8008 7997 7996 7995 ] final   42.62 input   59.86 | X-H torsion
[ 10167 10162 10161 10158 ] final -146.87 input  -65.29 | X-H torsion
[ 10718 10713 10712 10709 ] final  -97.71 input   66.30 | X-H torsion
[ 10763 10752 10751 10750 ] final  -91.99 input  -60.55 | X-H torsion
[ 11005 11000 10999 10996 ] final   22.56 input  -57.11 | X-H torsion

> <Gold.Protein.ActiveResidues>
 VAL166  LYS551  ARG553  GLY616  TRP617  ASP618  TYR619  PRO620  LYS621  CYS622 
 ASP623  PHE694  ASN695  SER759  ASP760  ASP761  ALA762  ILE779  LEU786  VAL792 
 PHE793  MET794  SER795  GLU796  ALA797  LYS798  CYS799  TRP800  GLU811  SER814 

> <Gold.Protein.RotatedAtoms>
  151.8971  133.3529  159.3817 H   0  0  0  0  0  0  0  0  0  0  0  0  # atno 6907 bound_to 6896
  150.7089  134.4865  159.5505 H   0  0  0  0  0  0  0  0  0  0  0  0  # atno 6908 bound_to 6896
  152.2447  134.8194  160.0506 H   0  0  0  0  0  0  0  0  0  0  0  0  # atno 6909 bound_to 6896
  146.1829  139.7306  142.8887 H   0  0  0  0  0  0  0  0  0  0  0  0  # atno 7974 bound_to 7965
  155.2893  140.3377  155.4253 H   0  0  0  0  0  0  0  0  0  0  0  0  # atno 8008 bound_to 7997
  156.2054  140.1749  156.7852 H   0  0  0  0  0  0  0  0  0  0  0  0  # atno 8009 bound_to 7997
  154.5613  140.0687  156.8808 H   0  0  0  0  0  0  0  0  0  0  0  0  # atno 8010 bound_to 7997
  139.7674  143.8288  152.2618 H   0  0  0  0  0  0  0  0  0  0  0  0  # atno 10167 bound_to 10162
  156.0090  130.5206  150.6415 H   0  0  0  0  0  0  0  0  0  0  0  0  # atno 10718 bound_to 10713
  154.6816  135.5248  153.8270 H   0  0  0  0  0  0  0  0  0  0  0  0  # atno 10763 bound_to 10752
  153.0568  135.6553  154.0567 H   0  0  0  0  0  0  0  0  0  0  0  0  # atno 10764 bound_to 10752
  154.0453  135.2974  155.3328 H   0  0  0  0  0  0  0  0  0  0  0  0  # atno 10765 bound_to 10752
  140.3792  134.1939  155.7664 H   0  0  0  0  0  0  0  0  0  0  0  0  # atno 11005 bound_to 11000
  145.4024  141.0387  143.3063 LP  0  0  0  0  0  0  0  0  0  0  0  0  # atno 17320 bound_to 7965
  144.8346  139.5572  143.6928 LP  0  0  0  0  0  0  0  0  0  0  0  0  # atno 17321 bound_to 7965
  139.8312  144.7253  150.9448 LP  0  0  0  0  0  0  0  0  0  0  0  0  # atno 17342 bound_to 10162
  140.7812  143.4068  151.1058 LP  0  0  0  0  0  0  0  0  0  0  0  0  # atno 17343 bound_to 10162
  157.4194  131.0834  151.1145 LP  0  0  0  0  0  0  0  0  0  0  0  0  # atno 17370 bound_to 10713
  157.1752  130.6285  149.5653 LP  0  0  0  0  0  0  0  0  0  0  0  0  # atno 17371 bound_to 10713
  141.1929  133.8163  157.0821 LP  0  0  0  0  0  0  0  0  0  0  0  0  # atno 17394 bound_to 11000
  140.0491  134.9815  157.1104 LP  0  0  0  0  0  0  0  0  0  0  0  0  # atno 17395 bound_to 11000

$$$$
