AV-unprocessed.smi:3343|AV-procd|sdf|12891|dock10
  -GOLD-   2272019303D 1   1.00000     0.00000
 Structure written by MMmdl.
 42 43  0  0  0  0  0  0  0  0  2 V2000
  151.8783  144.8808  158.4408 C   0  0  0  0  0  0  0  0  0  0  0  0
  152.2796  143.4190  158.7228 C   0  0  2  0  0  0  0  0  0  0  0  0
  151.2598  142.4165  158.1621 C   0  0  0  0  0  0  0  0  0  0  0  0
  150.7008  141.6097  158.9057 O   0  0  0  0  0  0  0  0  0  0  0  0
  151.0256  142.4792  156.8418 N   0  0  0  0  0  0  0  0  0  0  0  0
  150.1128  141.6134  156.1011 C   0  0  0  0  0  0  0  0  0  0  0  0
  150.6076  140.1540  156.0098 C   0  0  0  0  0  0  0  0  0  0  0  0
  150.5859  139.6282  154.6419 N   0  0  0  0  0  0  0  0  0  0  0  0
  151.3314  138.3716  154.5220 C   0  0  0  0  0  0  0  0  0  0  0  0
  150.6095  137.1973  155.2189 C   0  0  0  0  0  0  0  0  0  0  0  0
  149.2443  137.0271  154.6691 N   0  3  0  0  0  0  0  0  0  0  0  0
  148.5281  135.8785  155.2629 C   0  0  0  0  0  0  0  0  0  0  0  0
  148.4795  138.2922  154.7674 C   0  0  0  0  0  0  0  0  0  0  0  0
  149.2471  139.4369  154.0731 C   0  0  0  0  0  0  0  0  0  0  0  0
  152.5006  143.1691  160.1420 N   0  0  0  0  0  0  0  0  0  0  0  0
  152.9805  142.0859  160.7569 C   0  0  0  0  0  0  0  0  0  0  0  0
  153.0033  142.1819  162.0790 N   0  0  0  0  0  0  0  0  0  0  0  0
  152.4748  143.4328  162.2255 C   0  0  0  0  0  0  0  0  0  0  0  0
  152.1479  144.0642  161.0982 N   0  0  0  0  0  0  0  0  0  0  0  0
  151.7668  145.0569  157.3704 H   0  0  0  0  0  0  0  0  0  0  0  0
  152.6401  145.5694  158.8071 H   0  0  0  0  0  0  0  0  0  0  0  0
  150.9353  145.1491  158.9190 H   0  0  0  0  0  0  0  0  0  0  0  0
  153.2306  143.2441  158.2166 H   0  0  0  0  0  0  0  0  0  0  0  0
  151.5315  143.1684  156.3047 H   0  0  0  0  0  0  0  0  0  0  0  0
  149.1191  141.6638  156.5480 H   0  0  0  0  0  0  0  0  0  0  0  0
  150.0082  142.0204  155.0941 H   0  0  0  0  0  0  0  0  0  0  0  0
  151.6490  140.1495  156.3342 H   0  0  0  0  0  0  0  0  0  0  0  0
  150.0790  139.5080  156.7095 H   0  0  0  0  0  0  0  0  0  0  0  0
  151.4606  138.1432  153.4630 H   0  0  0  0  0  0  0  0  0  0  0  0
  152.3346  138.4966  154.9313 H   0  0  0  0  0  0  0  0  0  0  0  0
  151.1768  136.2801  155.0578 H   0  0  0  0  0  0  0  0  0  0  0  0
  150.5636  137.3468  156.2984 H   0  0  0  0  0  0  0  0  0  0  0  0
  148.3703  136.0248  156.3324 H   0  0  0  0  0  0  0  0  0  0  0  0
  149.0960  134.9579  155.1229 H   0  0  0  0  0  0  0  0  0  0  0  0
  147.5555  135.7455  154.7877 H   0  0  0  0  0  0  0  0  0  0  0  0
  147.5110  138.1634  154.2828 H   0  0  0  0  0  0  0  0  0  0  0  0
  148.2738  138.5311  155.8117 H   0  0  0  0  0  0  0  0  0  0  0  0
  148.6765  140.3634  154.1190 H   0  0  0  0  0  0  0  0  0  0  0  0
  149.3540  139.2083  153.0117 H   0  0  0  0  0  0  0  0  0  0  0  0
  153.3170  141.2069  160.2271 H   0  0  0  0  0  0  0  0  0  0  0  0
  152.3212  143.8897  163.1921 H   0  0  0  0  0  0  0  0  0  0  0  0
  149.3517  136.8286  153.6844 H   0  0  0  0  0  0  0  0  0  0  0  0
  1  2  1  0  0  0  0
  1 20  1  0  0  0  0
  1 21  1  0  0  0  0
  1 22  1  0  0  0  0
  2  3  1  0  0  0  0
  2 15  1  0  0  0  0
  2 23  1  0  0  0  0
  3  4  2  0  0  0  0
  3  5  1  0  0  0  0
  5  6  1  0  0  0  0
  5 24  1  0  0  0  0
  6  7  1  0  0  0  0
  6 25  1  0  0  0  0
  6 26  1  0  0  0  0
  7  8  1  0  0  0  0
  7 27  1  0  0  0  0
  7 28  1  0  0  0  0
  8 14  1  0  0  0  0
  8  9  1  0  0  0  0
  9 10  1  0  0  0  0
  9 29  1  0  0  0  0
  9 30  1  0  0  0  0
 10 11  1  0  0  0  0
 10 31  1  0  0  0  0
 10 32  1  0  0  0  0
 11 12  1  0  0  0  0
 11 13  1  0  0  0  0
 11 42  1  0  0  0  0
 12 33  1  0  0  0  0
 12 34  1  0  0  0  0
 12 35  1  0  0  0  0
 13 14  1  0  0  0  0
 13 36  1  0  0  0  0
 13 37  1  0  0  0  0
 14 38  1  0  0  0  0
 14 39  1  0  0  0  0
 15 19  1  0  0  0  0
 15 16  1  0  0  0  0
 16 17  2  0  0  0  0
 16 40  1  0  0  0  0
 17 18  1  0  0  0  0
 18 19  2  0  0  0  0
 18 41  1  0  0  0  0
M  CHG  1  11   1
M  END
> <s_m_source_file>
AV-unprocessed.smi

> <i_m_source_file_index>
3343

> <i_lp_mmshare_version>
43012

> <i_f3d_flags>
0

> <s_epik_input>
bjFbY0hdbltjSF1uMVtDQEhdKFtDSDNdKUMoPU8pW05IXVtDSDJdW0NIMl1OMltDSDJdW0NIMl1OKFtDSDNdKVtDSDJdW0NIMl0y

> <s_epik_cmdline>
J2VwaWtfcHl0aG9uJywgJy1waCcsICc3LjAnLCAnLXRuJywgJzgnLCAnLW1hJywgJzIwMCcsICctbWV0YWxfYmluZGluZycsICctaW1hZScsICc8aW5maWxlLm1hZT4nLCAnLW9tYWUnLCAnPG91dGZpbGUubWFlPic=

> <r_lp_tautomer_probability>
1

> <r_epik_Ionization_Penalty>
0.0359277

> <r_epik_Ionization_Penalty_Charging>
0.0358005

> <r_epik_Ionization_Penalty_Neutral>
0.000127293

> <r_epik_State_Penalty>
0.0476325

> <r_epik_Charging_Adjusted_Penalty>
0.0834329

> <i_epik_Tot_Q>
1

> <i_epik_Tot_abs_Q>
1

> <r_epik_Metal_State_Penalty>
0.0476323

> <b_epik_Metal_Only>
0

> <s_lp_Force_Field>
OPLS_2005

> <r_lp_Energy>
27.0486

> <b_lp_Chiralities_Consistent>
1

> <s_lp_Variant>
AV-unprocessed.smi:3343-1

> <Gold.Version>
5.8.1

> <Gold.Id.Protein>
6NUR|6NUR_protein|mol2

> <Gold.PLP.Fitness>
49.5172

> <Gold.PLP.PLP>
-41.5342

> <Gold.PLP.part.hbond>
-2.0000

> <Gold.PLP.part.metal>
0.0000

> <Gold.PLP.part.buried>
-5.6306

> <Gold.PLP.part.nonpolar>
-33.7777

> <Gold.PLP.part.repulsive>
0.3339

> <Gold.PLP.ligand.clash>
0.0000

> <Gold.PLP.ligand.torsion>
0.5670

> <Gold.PLP.Chemscore.Hbond>
3.0000

> <Gold.PLP.Chemscore.CHOScore>
0.0000

> <Gold.PLP.Chemscore.Metal>
0.0000

> <Gold.Chemscore.Hbonds>
donor molecule, donor type, donor heavy atom, donor atom, acceptor molecule, acceptor atom, score
      L1  H    11    42       P1  7948  2.00
      P1  H  7989  7998       L1     8  1.00

> <Gold.PLP.Chemscore.Internal.Correction>
0.1170

> <Gold.Rescore>
     Score         DG    S(hbond)    S(metal)    S(lipo)     H(rot)  DE(clash)    DE(int)     intcor
      8.51     -10.34       1.17        0.00      65.66       2.63       0.11       1.72       ----

> <Gold.Chemscore.Fitness>
8.5084

> <Gold.Chemscore.DG>
-10.3370

> <Gold.Chemscore.ZeroCoef>
-5.4800

> <Gold.Chemscore.Hbond>
1.1684

> <Gold.Chemscore.Metal>
0.0000

> <Gold.Chemscore.Lipo>
65.6553

> <Gold.Chemscore.Internal_Hbond>
0.0000

> <Gold.Chemscore.DEClash>
0.1050

> <Gold.Chemscore.DEInternal>
1.7235

> <Gold.Chemscore.Rot>
2.6278

> <Gold.Chemscore.Internal.Correction>
   9.000000E+99

> <Gold.Chemscore.Hbonds>
donor molecule, donor type, donor heavy atom, donor atom, acceptor molecule, acceptor atom, score
      L1  H    11    42       P1  7948  0.94
      P1  H  7989  7998       L1     8  0.19

> <Gold.Chemscore.Hbond.Weighted>
-3.9024

> <Gold.Chemscore.Metal.Weighted>
-0.0000

> <Gold.Chemscore.Lipo.Weighted>
-7.6817

> <Gold.Chemscore.Internal_Hbond.Weighted>
0.0000

> <Gold.Chemscore.DEClash.Weighted>
0.1050

> <Gold.Chemscore.DEInternal.Weighted>
1.7235

> <Gold.Chemscore.Rot.Weighted>
6.7271

> <Gold.Chemscore.Internal.Correction.Weighted>
   9.000000E+99

> <Gold.Protein.RotatedTorsions>
[ 6907 6896 6895 6894 ] final    9.91 input  -60.11 | X-H torsion
[ 7974 7965 7964 7962 ] final   96.34 input  175.53 | X-H torsion
[ 8008 7997 7996 7995 ] final  -15.92 input   59.86 | X-H torsion
[ 10167 10162 10161 10158 ] final  115.47 input  -65.29 | X-H torsion
[ 10718 10713 10712 10709 ] final  107.69 input   66.30 | X-H torsion
[ 10763 10752 10751 10750 ] final -123.61 input  -60.55 | X-H torsion
[ 11005 11000 10999 10996 ] final  -24.64 input  -57.11 | X-H torsion

> <Gold.Protein.ActiveResidues>
 VAL166  LYS551  ARG553  GLY616  TRP617  ASP618  TYR619  PRO620  LYS621  CYS622 
 ASP623  PHE694  ASN695  SER759  ASP760  ASP761  ALA762  ILE779  LEU786  VAL792 
 PHE793  MET794  SER795  GLU796  ALA797  LYS798  CYS799  TRP800  GLU811  SER814 

> <Gold.Protein.RotatedAtoms>
  151.7297  135.0877  160.0297 H   0  0  0  0  0  0  0  0  0  0  0  0  # atno 6907 bound_to 6896
  152.3549  133.6220  159.5980 H   0  0  0  0  0  0  0  0  0  0  0  0  # atno 6908 bound_to 6896
  150.7564  133.9432  159.3504 H   0  0  0  0  0  0  0  0  0  0  0  0  # atno 6909 bound_to 6896
  145.4402  139.2302  143.3096 H   0  0  0  0  0  0  0  0  0  0  0  0  # atno 7974 bound_to 7965
  154.5093  140.2183  155.9188 H   0  0  0  0  0  0  0  0  0  0  0  0  # atno 8008 bound_to 7997
  156.1532  140.3157  155.8649 H   0  0  0  0  0  0  0  0  0  0  0  0  # atno 8009 bound_to 7997
  155.3897  140.0477  157.3032 H   0  0  0  0  0  0  0  0  0  0  0  0  # atno 8010 bound_to 7997
  139.6315  144.7115  151.2423 H   0  0  0  0  0  0  0  0  0  0  0  0  # atno 10167 bound_to 10162
  157.6618  131.0878  150.6194 H   0  0  0  0  0  0  0  0  0  0  0  0  # atno 10718 bound_to 10713
  154.8710  135.4092  154.2971 H   0  0  0  0  0  0  0  0  0  0  0  0  # atno 10763 bound_to 10752
  153.3837  135.7012  153.6552 H   0  0  0  0  0  0  0  0  0  0  0  0  # atno 10764 bound_to 10752
  153.5363  135.3657  155.2670 H   0  0  0  0  0  0  0  0  0  0  0  0  # atno 10765 bound_to 10752
  140.8864  133.7618  156.0366 H   0  0  0  0  0  0  0  0  0  0  0  0  # atno 11005 bound_to 11000
  146.2560  140.5149  142.8873 LP  0  0  0  0  0  0  0  0  0  0  0  0  # atno 17320 bound_to 7965
  144.8127  140.6413  143.6405 LP  0  0  0  0  0  0  0  0  0  0  0  0  # atno 17321 bound_to 7965
  140.7441  143.6472  150.8281 LP  0  0  0  0  0  0  0  0  0  0  0  0  # atno 17342 bound_to 10162
  140.0098  143.5655  152.2843 LP  0  0  0  0  0  0  0  0  0  0  0  0  # atno 17343 bound_to 10162
  156.6497  130.4481  149.5724 LP  0  0  0  0  0  0  0  0  0  0  0  0  # atno 17370 bound_to 10713
  156.2147  130.6700  151.1306 LP  0  0  0  0  0  0  0  0  0  0  0  0  # atno 17371 bound_to 10713
  140.8399  134.3078  157.5317 LP  0  0  0  0  0  0  0  0  0  0  0  0  # atno 17394 bound_to 11000
  139.8725  134.9410  156.3786 LP  0  0  0  0  0  0  0  0  0  0  0  0  # atno 17395 bound_to 11000

$$$$
