AV-unprocessed.smi:1247|AV-procd|sdf|5245|dock5
  -GOLD-   22720 4353D 1   1.00000     0.00000
 Structure written by MMmdl.
 46 47  0  0  0  0  0  0  0  0  1 V2000
  143.6719  143.6622  162.2294 C   0  0  0  0  0  0  0  0  0  0  0  0
  144.9218  143.8910  161.4321 C   0  0  0  0  0  0  0  0  0  0  0  0
  145.3015  143.2818  160.2012 C   0  0  0  0  0  0  0  0  0  0  0  0
  146.5176  143.8538  159.9430 C   0  0  0  0  0  0  0  0  0  0  0  0
  147.3532  143.6419  158.8913 N   0  0  0  0  0  0  0  0  0  0  0  0
  147.6841  142.4794  158.3017 C   0  0  0  0  0  0  0  0  0  0  0  0
  147.2608  141.3691  158.6241 O   0  0  0  0  0  0  0  0  0  0  0  0
  148.5537  142.6735  157.2996 N   0  0  0  0  0  0  0  0  0  0  0  0
  149.1193  141.6164  156.4693 C   0  0  0  0  0  0  0  0  0  0  0  0
  150.4100  141.0481  157.0888 C   0  0  0  0  0  0  0  0  0  0  0  0
  151.0316  141.8945  158.1053 N   0  0  0  0  0  0  0  0  0  0  0  0
  152.1233  141.2256  158.8065 C   0  0  0  0  0  0  0  0  0  0  0  0
  152.7557  142.1298  159.8809 C   0  0  1  0  0  0  0  0  0  0  0  0
  153.9613  141.4681  160.5564 C   0  0  0  0  0  0  0  0  0  0  0  0
  153.1976  143.3466  159.2819 O   0  0  0  0  0  0  0  0  0  0  0  0
  152.2014  144.0600  158.5480 C   0  0  2  0  0  0  0  0  0  0  0  0
  151.1959  144.7589  159.4789 C   0  0  0  0  0  0  0  0  0  0  0  0
  151.5343  143.1307  157.5147 C   0  0  0  0  0  0  0  0  0  0  0  0
  146.8162  144.7385  160.9572 N   0  0  0  0  0  0  0  0  0  0  0  0
  147.9814  145.5803  161.1479 C   0  0  0  0  0  0  0  0  0  0  0  0
  145.8272  144.7550  161.8766 N   0  0  0  0  0  0  0  0  0  0  0  0
  143.0058  142.9615  161.7256 H   0  0  0  0  0  0  0  0  0  0  0  0
  143.1233  144.5927  162.3768 H   0  0  0  0  0  0  0  0  0  0  0  0
  143.9035  143.2510  163.2121 H   0  0  0  0  0  0  0  0  0  0  0  0
  144.7577  142.5492  159.6241 H   0  0  0  0  0  0  0  0  0  0  0  0
  147.7872  144.4712  158.5135 H   0  0  0  0  0  0  0  0  0  0  0  0
  148.8491  143.6176  157.0985 H   0  0  0  0  0  0  0  0  0  0  0  0
  148.3840  140.8234  156.3220 H   0  0  0  0  0  0  0  0  0  0  0  0
  149.3169  142.0451  155.4873 H   0  0  0  0  0  0  0  0  0  0  0  0
  150.2120  140.0585  157.5033 H   0  0  0  0  0  0  0  0  0  0  0  0
  151.1282  140.8946  156.2822 H   0  0  0  0  0  0  0  0  0  0  0  0
  151.7618  140.3185  159.2892 H   0  0  0  0  0  0  0  0  0  0  0  0
  152.8875  140.9170  158.0913 H   0  0  0  0  0  0  0  0  0  0  0  0
  152.0149  142.3536  160.6491 H   0  0  0  0  0  0  0  0  0  0  0  0
  153.6748  140.5379  161.0477 H   0  0  0  0  0  0  0  0  0  0  0  0
  154.3916  142.1244  161.3132 H   0  0  0  0  0  0  0  0  0  0  0  0
  154.7431  141.2382  159.8317 H   0  0  0  0  0  0  0  0  0  0  0  0
  152.7265  144.8444  158.0024 H   0  0  0  0  0  0  0  0  0  0  0  0
  150.5126  145.3880  158.9080 H   0  0  0  0  0  0  0  0  0  0  0  0
  151.7102  145.3970  160.1977 H   0  0  0  0  0  0  0  0  0  0  0  0
  150.5902  144.0460  160.0377 H   0  0  0  0  0  0  0  0  0  0  0  0
  152.2622  142.8897  156.7382 H   0  0  0  0  0  0  0  0  0  0  0  0
  150.7233  143.6643  157.0174 H   0  0  0  0  0  0  0  0  0  0  0  0
  148.4926  145.7443  160.1993 H   0  0  0  0  0  0  0  0  0  0  0  0
  148.6686  145.0992  161.8444 H   0  0  0  0  0  0  0  0  0  0  0  0
  147.6810  146.5473  161.5532 H   0  0  0  0  0  0  0  0  0  0  0  0
  1  2  1  0  0  0  0
  1 22  1  0  0  0  0
  1 23  1  0  0  0  0
  1 24  1  0  0  0  0
  2 21  2  0  0  0  0
  2  3  1  0  0  0  0
  3  4  2  0  0  0  0
  3 25  1  0  0  0  0
  4  5  1  0  0  0  0
  4 19  1  0  0  0  0
  5  6  1  0  0  0  0
  5 26  1  0  0  0  0
  6  7  2  0  0  0  0
  6  8  1  0  0  0  0
  8  9  1  0  0  0  0
  8 27  1  0  0  0  0
  9 10  1  0  0  0  0
  9 28  1  0  0  0  0
  9 29  1  0  0  0  0
 10 11  1  0  0  0  0
 10 30  1  0  0  0  0
 10 31  1  0  0  0  0
 11 18  1  0  0  0  0
 11 12  1  0  0  0  0
 12 13  1  0  0  0  0
 12 32  1  0  0  0  0
 12 33  1  0  0  0  0
 13 14  1  0  0  0  0
 13 15  1  0  0  0  0
 13 34  1  0  0  0  0
 14 35  1  0  0  0  0
 14 36  1  0  0  0  0
 14 37  1  0  0  0  0
 15 16  1  0  0  0  0
 16 17  1  0  0  0  0
 16 18  1  0  0  0  0
 16 38  1  0  0  0  0
 17 39  1  0  0  0  0
 17 40  1  0  0  0  0
 17 41  1  0  0  0  0
 18 42  1  0  0  0  0
 18 43  1  0  0  0  0
 19 20  1  0  0  0  0
 19 21  1  0  0  0  0
 20 44  1  0  0  0  0
 20 45  1  0  0  0  0
 20 46  1  0  0  0  0
M  END
> <s_m_source_file>
AV-unprocessed.smi

> <i_m_source_file_index>
1247

> <i_lp_mmshare_version>
43012

> <i_f3d_flags>
0

> <s_epik_input>
W0NIM11jMVtjSF1jKG4objEpW0NIM10pW05IXUMoPU8pW05IXVtDSDJdW0NIMl1OMltDSDJdW0NAQEhdKFtDSDNdKU9bQ0BASF0oW0NIM10pW0NIMl0y

> <s_epik_cmdline>
J2VwaWtfcHl0aG9uJywgJy1waCcsICc3LjAnLCAnLXRuJywgJzgnLCAnLW1hJywgJzIwMCcsICctbWV0YWxfYmluZGluZycsICctaW1hZScsICc8aW5maWxlLm1hZT4nLCAnLW9tYWUnLCAnPG91dGZpbGUubWFlPic=

> <r_lp_tautomer_probability>
1

> <r_epik_Ionization_Penalty>
0.233972

> <r_epik_Ionization_Penalty_Charging>
0

> <r_epik_Ionization_Penalty_Neutral>
0.233972

> <r_epik_State_Penalty>
0.224627

> <r_epik_Charging_Adjusted_Penalty>
0.224627

> <i_epik_Tot_Q>
0

> <i_epik_Tot_abs_Q>
0

> <r_epik_Metal_State_Penalty>
0.224624

> <b_epik_Metal_Only>
0

> <s_lp_Force_Field>
OPLS_2005

> <r_lp_Energy>
23.3755

> <b_lp_Chiralities_Consistent>
1

> <s_lp_Variant>
AV-unprocessed.smi:1247-3

> <Gold.Version>
5.8.1

> <Gold.Id.Protein>
6NUR|6NUR_protein|mol2

> <Gold.PLP.Fitness>
50.6293

> <Gold.PLP.PLP>
-46.3480

> <Gold.PLP.part.hbond>
-4.0750

> <Gold.PLP.part.metal>
0.0000

> <Gold.PLP.part.buried>
-8.0270

> <Gold.PLP.part.nonpolar>
-35.6054

> <Gold.PLP.part.repulsive>
0.8357

> <Gold.PLP.ligand.clash>
0.0000

> <Gold.PLP.ligand.torsion>
0.8537

> <Gold.PLP.Chemscore.Hbond>
1.9934

> <Gold.PLP.Chemscore.CHOScore>
0.0000

> <Gold.PLP.Chemscore.Metal>
0.0000

> <Gold.Chemscore.Hbonds>
donor molecule, donor type, donor heavy atom, donor atom, acceptor molecule, acceptor atom, score
      L1  H     5    26       P1  8029  1.00
      L1  H     8    27       P1  8028  0.75
      P1  H  6934  6946       L1     7  0.22

> <Gold.PLP.Chemscore.Internal.Correction>
0.0083

> <Gold.Rescore>
     Score         DG    S(hbond)    S(metal)    S(lipo)     H(rot)  DE(clash)    DE(int)     intcor
     16.36     -18.30       1.44        0.00     100.80       1.48       0.98       0.96       ----

> <Gold.Chemscore.Fitness>
16.3551

> <Gold.Chemscore.DG>
-18.2977

> <Gold.Chemscore.ZeroCoef>
-5.4800

> <Gold.Chemscore.Hbond>
1.4438

> <Gold.Chemscore.Metal>
0.0000

> <Gold.Chemscore.Lipo>
100.8027

> <Gold.Chemscore.Internal_Hbond>
0.0000

> <Gold.Chemscore.DEClash>
0.9780

> <Gold.Chemscore.DEInternal>
0.9647

> <Gold.Chemscore.Rot>
1.4838

> <Gold.Chemscore.Internal.Correction>
   9.000000E+99

> <Gold.Chemscore.Hbonds>
donor molecule, donor type, donor heavy atom, donor atom, acceptor molecule, acceptor atom, score
      L1  H     5    26       P1  8029  0.87
      L1  H     8    27       P1  8028  0.23
      P1  H  6934  6946       L1     7  0.21

> <Gold.Chemscore.Hbond.Weighted>
-4.8223

> <Gold.Chemscore.Metal.Weighted>
-0.0000

> <Gold.Chemscore.Lipo.Weighted>
-11.7939

> <Gold.Chemscore.Internal_Hbond.Weighted>
0.0000

> <Gold.Chemscore.DEClash.Weighted>
0.9780

> <Gold.Chemscore.DEInternal.Weighted>
0.9647

> <Gold.Chemscore.Rot.Weighted>
3.7985

> <Gold.Chemscore.Internal.Correction.Weighted>
   9.000000E+99

> <Gold.Protein.RotatedTorsions>
[ 6907 6896 6895 6894 ] final   59.26 input  -60.11 | X-H torsion
[ 7974 7965 7964 7962 ] final -145.41 input  175.53 | X-H torsion
[ 8008 7997 7996 7995 ] final -176.62 input   59.86 | X-H torsion
[ 10167 10162 10161 10158 ] final -103.71 input  -65.29 | X-H torsion
[ 10718 10713 10712 10709 ] final -130.40 input   66.30 | X-H torsion
[ 10763 10752 10751 10750 ] final  163.09 input  -60.55 | X-H torsion
[ 11005 11000 10999 10996 ] final -124.37 input  -57.11 | X-H torsion

> <Gold.Protein.ActiveResidues>
 VAL166  LYS551  ARG553  GLY616  TRP617  ASP618  TYR619  PRO620  LYS621  CYS622 
 ASP623  PHE694  ASN695  SER759  ASP760  ASP761  ALA762  ILE779  LEU786  VAL792 
 PHE793  MET794  SER795  GLU796  ALA797  LYS798  CYS799  TRP800  GLU811  SER814 

> <Gold.Protein.RotatedAtoms>
  152.3899  134.6458  160.0111 H   0  0  0  0  0  0  0  0  0  0  0  0  # atno 6907 bound_to 6896
  151.6695  133.3309  159.3201 H   0  0  0  0  0  0  0  0  0  0  0  0  # atno 6908 bound_to 6896
  150.7817  134.6811  159.6489 H   0  0  0  0  0  0  0  0  0  0  0  0  # atno 6909 bound_to 6896
  144.8229  140.5587  143.5566 H   0  0  0  0  0  0  0  0  0  0  0  0  # atno 7974 bound_to 7965
  155.9970  140.1213  157.0583 H   0  0  0  0  0  0  0  0  0  0  0  0  # atno 8008 bound_to 7997
  154.4230  140.1114  156.5713 H   0  0  0  0  0  0  0  0  0  0  0  0  # atno 8009 bound_to 7997
  155.6264  140.3472  155.4671 H   0  0  0  0  0  0  0  0  0  0  0  0  # atno 8010 bound_to 7997
  140.2171  143.3703  152.1001 H   0  0  0  0  0  0  0  0  0  0  0  0  # atno 10167 bound_to 10162
  156.2141  130.6937  151.0682 H   0  0  0  0  0  0  0  0  0  0  0  0  # atno 10718 bound_to 10713
  154.2884  135.2761  155.2666 H   0  0  0  0  0  0  0  0  0  0  0  0  # atno 10763 bound_to 10752
  154.5155  135.5770  153.6642 H   0  0  0  0  0  0  0  0  0  0  0  0  # atno 10764 bound_to 10752
  152.9918  135.6191  154.3047 H   0  0  0  0  0  0  0  0  0  0  0  0  # atno 10765 bound_to 10752
  140.9846  134.0625  157.3726 H   0  0  0  0  0  0  0  0  0  0  0  0  # atno 11005 bound_to 11000
  145.5064  139.1481  143.3629 LP  0  0  0  0  0  0  0  0  0  0  0  0  # atno 17320 bound_to 7965
  146.2535  140.5204  142.8883 LP  0  0  0  0  0  0  0  0  0  0  0  0  # atno 17321 bound_to 7965
  139.5158  144.6968  151.5607 LP  0  0  0  0  0  0  0  0  0  0  0  0  # atno 17342 bound_to 10162
  140.6282  143.9127  150.6582 LP  0  0  0  0  0  0  0  0  0  0  0  0  # atno 17343 bound_to 10162
  157.7054  131.0759  150.6685 LP  0  0  0  0  0  0  0  0  0  0  0  0  # atno 17370 bound_to 10713
  156.6746  130.4549  149.5646 LP  0  0  0  0  0  0  0  0  0  0  0  0  # atno 17371 bound_to 10713
  139.8965  135.0146  156.7054 LP  0  0  0  0  0  0  0  0  0  0  0  0  # atno 17394 bound_to 11000
  140.7134  133.9203  155.8099 LP  0  0  0  0  0  0  0  0  0  0  0  0  # atno 17395 bound_to 11000

$$$$
