AV-unprocessed.smi:610|AV-procd|sdf|3055|dock8
  -GOLD-   2262023573D 1   1.00000     0.00000
 Structure written by MMmdl.
 38 39  0  0  0  0  0  0  0  0  2 V2000
  145.5505  137.1745  152.8612 C   0  0  0  0  0  0  0  0  0  0  0  0
  144.1654  136.5251  152.9975 C   0  0  2  0  0  0  0  0  0  0  0  0
  143.7225  135.8465  151.6871 C   0  0  0  0  0  0  0  0  0  0  0  0
  144.3084  134.5274  151.5313 N   0  0  0  0  0  0  0  0  0  0  0  0
  145.6321  134.1674  151.7459 C   0  0  0  0  0  0  0  0  0  0  0  0
  145.7177  132.8168  151.4939 C   0  0  0  0  0  0  0  0  0  0  0  0
  144.4664  132.3283  151.1247 N   0  0  0  0  0  0  0  0  0  0  0  0
  143.6852  133.3998  151.1618 C   0  0  0  0  0  0  0  0  0  0  0  0
  143.1796  137.5295  153.3897 N   0  0  0  0  0  0  0  0  0  0  0  0
  141.8688  137.3136  153.5852 C   0  0  0  0  0  0  0  0  0  0  0  0
  141.3647  136.1932  153.5004 O   0  0  0  0  0  0  0  0  0  0  0  0
  140.9649  138.5299  153.8967 C   0  0  0  0  0  0  0  0  0  0  0  0
  141.8445  139.7090  154.0039 N   0  3  0  0  0  0  0  0  0  0  0  0
  139.9066  138.7212  152.7967 C   0  0  0  0  0  0  0  0  0  0  0  0
  138.7488  137.7893  153.1819 C   0  0  0  0  0  0  0  0  0  0  0  0
  138.8490  137.5877  154.7026 C   0  0  0  0  0  0  0  0  0  0  0  0
  140.0832  138.3813  155.1548 C   0  0  0  0  0  0  0  0  0  0  0  0
  146.3004  136.4392  152.5682 H   0  0  0  0  0  0  0  0  0  0  0  0
  145.8752  137.6141  153.8050 H   0  0  0  0  0  0  0  0  0  0  0  0
  145.5469  137.9642  152.1092 H   0  0  0  0  0  0  0  0  0  0  0  0
  144.2253  135.7555  153.7695 H   0  0  0  0  0  0  0  0  0  0  0  0
  142.6357  135.7562  151.6473 H   0  0  0  0  0  0  0  0  0  0  0  0
  144.0185  136.4517  150.8294 H   0  0  0  0  0  0  0  0  0  0  0  0
  146.3813  134.8814  152.0554 H   0  0  0  0  0  0  0  0  0  0  0  0
  146.5764  132.1639  151.5509 H   0  0  0  0  0  0  0  0  0  0  0  0
  142.6317  133.3607  150.9260 H   0  0  0  0  0  0  0  0  0  0  0  0
  143.5185  138.4758  153.4869 H   0  0  0  0  0  0  0  0  0  0  0  0
  142.6149  139.6192  153.3572 H   0  0  0  0  0  0  0  0  0  0  0  0
  142.1998  139.7719  154.9475 H   0  0  0  0  0  0  0  0  0  0  0  0
  139.5499  139.7526  152.7992 H   0  0  0  0  0  0  0  0  0  0  0  0
  140.2759  138.5169  151.7905 H   0  0  0  0  0  0  0  0  0  0  0  0
  137.7855  138.2065  152.8866 H   0  0  0  0  0  0  0  0  0  0  0  0
  138.8555  136.8288  152.6761 H   0  0  0  0  0  0  0  0  0  0  0  0
  137.9496  137.9265  155.2182 H   0  0  0  0  0  0  0  0  0  0  0  0
  138.9725  136.5278  154.9286 H   0  0  0  0  0  0  0  0  0  0  0  0
  140.5879  137.9235  156.0069 H   0  0  0  0  0  0  0  0  0  0  0  0
  139.7582  139.3682  155.4889 H   0  0  0  0  0  0  0  0  0  0  0  0
  141.3167  140.5431  153.7898 H   0  0  0  0  0  0  0  0  0  0  0  0
  1  2  1  0  0  0  0
  1 18  1  0  0  0  0
  1 19  1  0  0  0  0
  1 20  1  0  0  0  0
  2  3  1  0  0  0  0
  2  9  1  0  0  0  0
  2 21  1  0  0  0  0
  3  4  1  0  0  0  0
  3 22  1  0  0  0  0
  3 23  1  0  0  0  0
  4  8  1  0  0  0  0
  4  5  1  0  0  0  0
  5  6  2  0  0  0  0
  5 24  1  0  0  0  0
  6  7  1  0  0  0  0
  6 25  1  0  0  0  0
  7  8  2  0  0  0  0
  8 26  1  0  0  0  0
  9 10  1  0  0  0  0
  9 27  1  0  0  0  0
 10 11  2  0  0  0  0
 10 12  1  0  0  0  0
 12 17  1  0  0  0  0
 12 13  1  0  0  0  0
 12 14  1  0  0  0  0
 13 28  1  0  0  0  0
 13 29  1  0  0  0  0
 13 38  1  0  0  0  0
 14 15  1  0  0  0  0
 14 30  1  0  0  0  0
 14 31  1  0  0  0  0
 15 16  1  0  0  0  0
 15 32  1  0  0  0  0
 15 33  1  0  0  0  0
 16 17  1  0  0  0  0
 16 34  1  0  0  0  0
 16 35  1  0  0  0  0
 17 36  1  0  0  0  0
 17 37  1  0  0  0  0
M  CHG  1  13   1
M  END
> <s_m_source_file>
AV-unprocessed.smi

> <i_m_source_file_index>
610

> <i_lp_mmshare_version>
43012

> <i_f3d_flags>
0

> <s_epik_input>
W2NIXTFuW2NIXVtjSF1uMVtDSDJdW0NAQEhdKFtDSDNdKVtOSF1DKD1PKUMyKFtOSDJdKVtDSDJdW0NIMl1bQ0gyXVtDSDJdMg==

> <s_epik_cmdline>
J2VwaWtfcHl0aG9uJywgJy1waCcsICc3LjAnLCAnLXRuJywgJzgnLCAnLW1hJywgJzIwMCcsICctbWV0YWxfYmluZGluZycsICctaW1hZScsICc8aW5maWxlLm1hZT4nLCAnLW9tYWUnLCAnPG91dGZpbGUubWFlPic=

> <r_lp_tautomer_probability>
1

> <r_epik_Ionization_Penalty>
0.661147

> <r_epik_Ionization_Penalty_Charging>
0.661145

> <r_epik_Ionization_Penalty_Neutral>
1.19451e-06

> <r_epik_State_Penalty>
0.679243

> <r_epik_Charging_Adjusted_Penalty>
1.34039

> <i_epik_Tot_Q>
1

> <i_epik_Tot_abs_Q>
1

> <r_epik_Metal_State_Penalty>
0.372892

> <b_epik_Metal_Only>
0

> <s_lp_Force_Field>
OPLS_2005

> <r_lp_Energy>
25.3563

> <b_lp_Chiralities_Consistent>
1

> <s_lp_Variant>
AV-unprocessed.smi:610-3

> <Gold.Version>
5.8.1

> <Gold.Id.Protein>
6NUR|6NUR_protein|mol2

> <Gold.PLP.Fitness>
44.0879

> <Gold.PLP.PLP>
-28.3937

> <Gold.PLP.part.hbond>
-1.9023

> <Gold.PLP.part.metal>
0.0000

> <Gold.PLP.part.buried>
-3.2641

> <Gold.PLP.part.nonpolar>
-23.7033

> <Gold.PLP.part.repulsive>
0.2630

> <Gold.PLP.ligand.clash>
0.0000

> <Gold.PLP.ligand.torsion>
0.4800

> <Gold.PLP.Chemscore.Hbond>
2.8473

> <Gold.PLP.Chemscore.CHOScore>
2.6890

> <Gold.PLP.Chemscore.Metal>
0.0000

> <Gold.Chemscore.Hbonds>
donor molecule, donor type, donor heavy atom, donor atom, acceptor molecule, acceptor atom, score
      L1  H     9    27       P1 10175  0.48
      L1  H    13    28       P1 10175  1.66
      L1  C     5    24       P1  7948  0.14
      L1  C     8    26       P1 10186  1.00

> <Gold.PLP.Chemscore.Internal.Correction>
0.0454

> <Gold.Rescore>
     Score         DG    S(hbond)    S(metal)    S(lipo)     H(rot)  DE(clash)    DE(int)     intcor
     10.68     -13.28       1.89        0.00      56.30       2.00       0.06       2.54       ----

> <Gold.Chemscore.Fitness>
10.6774

> <Gold.Chemscore.DG>
-13.2762

> <Gold.Chemscore.ZeroCoef>
-5.4800

> <Gold.Chemscore.Hbond>
1.8928

> <Gold.Chemscore.Metal>
0.0000

> <Gold.Chemscore.Lipo>
56.3006

> <Gold.Chemscore.Internal_Hbond>
0.0000

> <Gold.Chemscore.DEClash>
0.0638

> <Gold.Chemscore.DEInternal>
2.5350

> <Gold.Chemscore.Rot>
1.9972

> <Gold.Chemscore.Internal.Correction>
   9.000000E+99

> <Gold.Chemscore.Hbonds>
donor molecule, donor type, donor heavy atom, donor atom, acceptor molecule, acceptor atom, score
      L1  H     9    27       P1 10175  0.46
      L1  H    13    28       P1 10175  0.79

> <Gold.Chemscore.Hbond.Weighted>
-6.3218

> <Gold.Chemscore.Metal.Weighted>
-0.0000

> <Gold.Chemscore.Lipo.Weighted>
-6.5872

> <Gold.Chemscore.Internal_Hbond.Weighted>
0.0000

> <Gold.Chemscore.DEClash.Weighted>
0.0638

> <Gold.Chemscore.DEInternal.Weighted>
2.5350

> <Gold.Chemscore.Rot.Weighted>
5.1127

> <Gold.Chemscore.Internal.Correction.Weighted>
   9.000000E+99

> <Gold.Protein.RotatedTorsions>
[ 6907 6896 6895 6894 ] final   44.76 input  -60.11 | X-H torsion
[ 7974 7965 7964 7962 ] final  -54.86 input  175.53 | X-H torsion
[ 8008 7997 7996 7995 ] final   15.87 input   59.86 | X-H torsion
[ 10167 10162 10161 10158 ] final   61.39 input  -65.29 | X-H torsion
[ 10718 10713 10712 10709 ] final  -55.25 input   66.30 | X-H torsion
[ 10763 10752 10751 10750 ] final  163.56 input  -60.55 | X-H torsion
[ 11005 11000 10999 10996 ] final -112.58 input  -57.11 | X-H torsion

> <Gold.Protein.ActiveResidues>
 VAL166  LYS551  ARG553  GLY616  TRP617  ASP618  TYR619  PRO620  LYS621  CYS622 
 ASP623  PHE694  ASN695  SER759  ASP760  ASP761  ALA762  ILE779  LEU786  VAL792 
 PHE793  MET794  SER795  GLU796  ALA797  LYS798  CYS799  TRP800  GLU811  SER814 

> <Gold.Protein.RotatedAtoms>
  152.2364  134.8272  160.0466 H   0  0  0  0  0  0  0  0  0  0  0  0  # atno 6907 bound_to 6896
  151.9002  133.3531  159.3836 H   0  0  0  0  0  0  0  0  0  0  0  0  # atno 6908 bound_to 6896
  150.7040  134.4761  159.5492 H   0  0  0  0  0  0  0  0  0  0  0  0  # atno 6909 bound_to 6896
  145.8808  140.8146  142.9841 H   0  0  0  0  0  0  0  0  0  0  0  0  # atno 7974 bound_to 7965
  154.8688  140.2955  155.5494 H   0  0  0  0  0  0  0  0  0  0  0  0  # atno 8008 bound_to 7997
  156.3021  140.2464  156.3607 H   0  0  0  0  0  0  0  0  0  0  0  0  # atno 8009 bound_to 7997
  154.8839  140.0397  157.1788 H   0  0  0  0  0  0  0  0  0  0  0  0  # atno 8010 bound_to 7997
  140.1553  144.4423  150.6737 H   0  0  0  0  0  0  0  0  0  0  0  0  # atno 10167 bound_to 10162
  156.1384  130.4155  150.0145 H   0  0  0  0  0  0  0  0  0  0  0  0  # atno 10718 bound_to 10713
  154.2956  135.2760  155.2635 H   0  0  0  0  0  0  0  0  0  0  0  0  # atno 10763 bound_to 10752
  154.5095  135.5786  153.6597 H   0  0  0  0  0  0  0  0  0  0  0  0  # atno 10764 bound_to 10752
  152.9908  135.6177  154.3123 H   0  0  0  0  0  0  0  0  0  0  0  0  # atno 10765 bound_to 10752
  141.0667  133.9448  157.2565 H   0  0  0  0  0  0  0  0  0  0  0  0  # atno 11005 bound_to 11000
  144.6727  140.1380  143.7439 LP  0  0  0  0  0  0  0  0  0  0  0  0  # atno 17320 bound_to 7965
  145.9026  139.2439  143.1484 LP  0  0  0  0  0  0  0  0  0  0  0  0  # atno 17321 bound_to 7965
  140.6677  143.2274  151.5703 LP  0  0  0  0  0  0  0  0  0  0  0  0  # atno 17342 bound_to 10162
  139.5406  144.2658  152.1343 LP  0  0  0  0  0  0  0  0  0  0  0  0  # atno 17343 bound_to 10162
  156.8038  130.9300  151.3645 LP  0  0  0  0  0  0  0  0  0  0  0  0  # atno 17370 bound_to 10713
  157.6553  130.8919  149.9717 LP  0  0  0  0  0  0  0  0  0  0  0  0  # atno 17371 bound_to 10713
  139.9483  135.0180  156.8918 LP  0  0  0  0  0  0  0  0  0  0  0  0  # atno 17394 bound_to 11000
  140.5759  134.0398  155.7447 LP  0  0  0  0  0  0  0  0  0  0  0  0  # atno 17395 bound_to 11000

$$$$
