AV-unprocessed.smi:667|AV-procd|sdf|3255|dock2
  -GOLD-   22720 0203D 1   1.00000     0.00000
 Structure written by MMmdl.
 48 49  0  0  0  0  0  0  0  0  1 V2000
  151.3660  145.3813  160.0258 C   0  0  0  0  0  0  0  0  0  0  0  0
  152.2731  144.3114  160.5631 C   0  0  0  0  0  0  0  0  0  0  0  0
  152.7079  144.4114  161.8077 N   0  0  0  0  0  0  0  0  0  0  0  0
  153.4712  143.3168  161.9959 N   0  0  0  0  0  0  0  0  0  0  0  0
  154.1045  143.1031  163.2824 C   0  0  0  0  0  0  0  0  0  0  0  0
  153.5232  142.5250  160.8660 C   0  0  0  0  0  0  0  0  0  0  0  0
  154.2992  141.2481  160.8255 C   0  0  0  0  0  0  0  0  0  0  0  0
  152.7529  143.1354  159.9120 C   0  0  0  0  0  0  0  0  0  0  0  0
  152.4497  142.6639  158.5113 C   0  0  0  0  0  0  0  0  0  0  0  0
  151.5334  141.4451  158.5994 C   0  0  0  0  0  0  0  0  0  0  0  0
  150.3798  141.5704  159.0093 O   0  0  0  0  0  0  0  0  0  0  0  0
  152.0471  140.2870  158.1568 N   0  0  0  0  0  0  0  0  0  0  0  0
  151.2889  139.0653  157.9051 C   0  0  0  0  0  0  0  0  0  0  0  0
  151.2166  138.7204  156.4006 C   0  0  2  0  0  0  0  0  0  0  0  0
  152.5613  138.4840  155.7358 C   0  0  0  0  0  0  0  0  0  0  0  0
  152.2337  138.6344  154.2490 C   0  0  0  0  0  0  0  0  0  0  0  0
  151.0279  139.3917  154.1738 O   0  0  0  0  0  0  0  0  0  0  0  0
  150.6397  139.8062  155.4778 C   0  0  1  0  0  0  0  0  0  0  0  0
  149.1184  140.0557  155.5693 C   0  0  0  0  0  0  0  0  0  0  0  0
  148.2723  138.8130  155.2420 C   0  0  0  0  0  0  0  0  0  0  0  0
  148.7091  141.2432  154.6846 C   0  0  0  0  0  0  0  0  0  0  0  0
  150.8515  145.0549  159.1224 H   0  0  0  0  0  0  0  0  0  0  0  0
  151.9290  146.2815  159.7797 H   0  0  0  0  0  0  0  0  0  0  0  0
  150.6022  145.6533  160.7553 H   0  0  0  0  0  0  0  0  0  0  0  0
  155.1841  143.0269  163.1515 H   0  0  0  0  0  0  0  0  0  0  0  0
  153.7320  142.1785  163.7238 H   0  0  0  0  0  0  0  0  0  0  0  0
  153.8888  143.9296  163.9612 H   0  0  0  0  0  0  0  0  0  0  0  0
  154.1876  140.7460  159.8647 H   0  0  0  0  0  0  0  0  0  0  0  0
  153.9565  140.5614  161.5996 H   0  0  0  0  0  0  0  0  0  0  0  0
  155.3611  141.4350  160.9842 H   0  0  0  0  0  0  0  0  0  0  0  0
  151.9681  143.4406  157.9165 H   0  0  0  0  0  0  0  0  0  0  0  0
  153.3586  142.3923  157.9737 H   0  0  0  0  0  0  0  0  0  0  0  0
  153.0109  140.2887  157.8560 H   0  0  0  0  0  0  0  0  0  0  0  0
  151.7702  138.2495  158.4448 H   0  0  0  0  0  0  0  0  0  0  0  0
  150.2793  139.1379  158.3122 H   0  0  0  0  0  0  0  0  0  0  0  0
  150.6381  137.8033  156.2895 H   0  0  0  0  0  0  0  0  0  0  0  0
  153.2794  139.2496  156.0304 H   0  0  0  0  0  0  0  0  0  0  0  0
  152.9902  137.5111  155.9765 H   0  0  0  0  0  0  0  0  0  0  0  0
  153.0397  139.1301  153.7069 H   0  0  0  0  0  0  0  0  0  0  0  0
  152.0625  137.6618  153.7870 H   0  0  0  0  0  0  0  0  0  0  0  0
  151.1606  140.7462  155.6619 H   0  0  0  0  0  0  0  0  0  0  0  0
  148.8939  140.3409  156.5977 H   0  0  0  0  0  0  0  0  0  0  0  0
  148.4771  138.4450  154.2363 H   0  0  0  0  0  0  0  0  0  0  0  0
  147.2080  139.0426  155.2978 H   0  0  0  0  0  0  0  0  0  0  0  0
  148.4586  137.9995  155.9417 H   0  0  0  0  0  0  0  0  0  0  0  0
  148.8979  141.0372  153.6308 H   0  0  0  0  0  0  0  0  0  0  0  0
  149.2651  142.1417  154.9515 H   0  0  0  0  0  0  0  0  0  0  0  0
  147.6485  141.4701  154.7955 H   0  0  0  0  0  0  0  0  0  0  0  0
  1  2  1  0  0  0  0
  1 22  1  0  0  0  0
  1 23  1  0  0  0  0
  1 24  1  0  0  0  0
  2  8  1  0  0  0  0
  2  3  2  0  0  0  0
  3  4  1  0  0  0  0
  4  5  1  0  0  0  0
  4  6  1  0  0  0  0
  5 25  1  0  0  0  0
  5 26  1  0  0  0  0
  5 27  1  0  0  0  0
  6  7  1  0  0  0  0
  6  8  2  0  0  0  0
  7 28  1  0  0  0  0
  7 29  1  0  0  0  0
  7 30  1  0  0  0  0
  8  9  1  0  0  0  0
  9 10  1  0  0  0  0
  9 31  1  0  0  0  0
  9 32  1  0  0  0  0
 10 11  2  0  0  0  0
 10 12  1  0  0  0  0
 12 13  1  0  0  0  0
 12 33  1  0  0  0  0
 13 14  1  0  0  0  0
 13 34  1  0  0  0  0
 13 35  1  0  0  0  0
 14 18  1  0  0  0  0
 14 15  1  0  0  0  0
 14 36  1  0  0  0  0
 15 16  1  0  0  0  0
 15 37  1  0  0  0  0
 15 38  1  0  0  0  0
 16 17  1  0  0  0  0
 16 39  1  0  0  0  0
 16 40  1  0  0  0  0
 17 18  1  0  0  0  0
 18 19  1  0  0  0  0
 18 41  1  0  0  0  0
 19 20  1  0  0  0  0
 19 21  1  0  0  0  0
 19 42  1  0  0  0  0
 20 43  1  0  0  0  0
 20 44  1  0  0  0  0
 20 45  1  0  0  0  0
 21 46  1  0  0  0  0
 21 47  1  0  0  0  0
 21 48  1  0  0  0  0
M  END
> <s_m_source_file>
AV-unprocessed.smi

> <i_m_source_file_index>
667

> <i_lp_mmshare_version>
43012

> <i_f3d_flags>
0

> <s_epik_input>
W0NIM11jMW5uKFtDSDNdKWMoW0NIM10pYzFbQ0gyXUMoPU8pW05IXVtDSDJdW0NAQEhdMltDSDJdW0NIMl1PW0NASF0yW0NIXShbQ0gzXSlbQ0gzXQ==

> <s_epik_cmdline>
J2VwaWtfcHl0aG9uJywgJy1waCcsICc3LjAnLCAnLXRuJywgJzgnLCAnLW1hJywgJzIwMCcsICctbWV0YWxfYmluZGluZycsICctaW1hZScsICc8aW5maWxlLm1hZT4nLCAnLW9tYWUnLCAnPG91dGZpbGUubWFlPic=

> <r_lp_tautomer_probability>
1

> <r_epik_Ionization_Penalty>
0.00315488

> <r_epik_Ionization_Penalty_Charging>
0

> <r_epik_Ionization_Penalty_Neutral>
0.00315488

> <r_epik_State_Penalty>
0.00222269

> <r_epik_Charging_Adjusted_Penalty>
0.00222269

> <i_epik_Tot_Q>
0

> <i_epik_Tot_abs_Q>
0

> <r_epik_Metal_State_Penalty>
-0

> <b_epik_Metal_Only>
0

> <s_lp_Force_Field>
OPLS_2005

> <r_lp_Energy>
14.51

> <b_lp_Chiralities_Consistent>
1

> <s_lp_Variant>
AV-unprocessed.smi:667-1

> <Gold.Version>
5.8.1

> <Gold.Id.Protein>
6NUR|6NUR_protein|mol2

> <Gold.PLP.Fitness>
48.1238

> <Gold.PLP.PLP>
-45.6346

> <Gold.PLP.part.hbond>
-1.9372

> <Gold.PLP.part.metal>
0.0000

> <Gold.PLP.part.buried>
-2.4487

> <Gold.PLP.part.nonpolar>
-40.4709

> <Gold.PLP.part.repulsive>
0.5084

> <Gold.PLP.ligand.clash>
0.0000

> <Gold.PLP.ligand.torsion>
0.2059

> <Gold.PLP.Chemscore.Hbond>
0.9500

> <Gold.PLP.Chemscore.CHOScore>
0.0000

> <Gold.PLP.Chemscore.Metal>
0.0000

> <Gold.Chemscore.Hbonds>
donor molecule, donor type, donor heavy atom, donor atom, acceptor molecule, acceptor atom, score
      P1  H  7989  7998       L1    17  1.00

> <Gold.PLP.Chemscore.Internal.Correction>
0.0510

> <Gold.Rescore>
     Score         DG    S(hbond)    S(metal)    S(lipo)     H(rot)  DE(clash)    DE(int)     intcor
     15.79     -16.40       0.12        0.00     123.26       1.52       0.47       0.14       ----

> <Gold.Chemscore.Fitness>
15.7899

> <Gold.Chemscore.DG>
-16.4017

> <Gold.Chemscore.ZeroCoef>
-5.4800

> <Gold.Chemscore.Hbond>
0.1182

> <Gold.Chemscore.Metal>
0.0000

> <Gold.Chemscore.Lipo>
123.2591

> <Gold.Chemscore.Internal_Hbond>
0.0000

> <Gold.Chemscore.DEClash>
0.4683

> <Gold.Chemscore.DEInternal>
0.1435

> <Gold.Chemscore.Rot>
1.5213

> <Gold.Chemscore.Internal.Correction>
   9.000000E+99

> <Gold.Chemscore.Hbonds>
donor molecule, donor type, donor heavy atom, donor atom, acceptor molecule, acceptor atom, score
      P1  H  7989  7998       L1    17  0.10

> <Gold.Chemscore.Hbond.Weighted>
-0.3949

> <Gold.Chemscore.Metal.Weighted>
-0.0000

> <Gold.Chemscore.Lipo.Weighted>
-14.4213

> <Gold.Chemscore.Internal_Hbond.Weighted>
0.0000

> <Gold.Chemscore.DEClash.Weighted>
0.4683

> <Gold.Chemscore.DEInternal.Weighted>
0.1435

> <Gold.Chemscore.Rot.Weighted>
3.8945

> <Gold.Chemscore.Internal.Correction.Weighted>
   9.000000E+99

> <Gold.Protein.RotatedTorsions>
[ 6907 6896 6895 6894 ] final -111.81 input  -60.11 | X-H torsion
[ 7974 7965 7964 7962 ] final  -17.96 input  175.53 | X-H torsion
[ 8008 7997 7996 7995 ] final  -48.25 input   59.86 | X-H torsion
[ 10167 10162 10161 10158 ] final   33.24 input  -65.29 | X-H torsion
[ 10718 10713 10712 10709 ] final  105.43 input   66.30 | X-H torsion
[ 10763 10752 10751 10750 ] final  -87.69 input  -60.55 | X-H torsion
[ 11005 11000 10999 10996 ] final  141.25 input  -57.11 | X-H torsion

> <Gold.Protein.ActiveResidues>
 VAL166  LYS551  ARG553  GLY616  TRP617  ASP618  TYR619  PRO620  LYS621  CYS622 
 ASP623  PHE694  ASN695  SER759  ASP760  ASP761  ALA762  ILE779  LEU786  VAL792 
 PHE793  MET794  SER795  GLU796  ALA797  LYS798  CYS799  TRP800  GLU811  SER814 

> <Gold.Protein.RotatedAtoms>
  150.7715  133.9181  159.3389 H   0  0  0  0  0  0  0  0  0  0  0  0  # atno 6907 bound_to 6896
  151.7066  135.0918  160.0270 H   0  0  0  0  0  0  0  0  0  0  0  0  # atno 6908 bound_to 6896
  152.3735  133.6412  159.6141 H   0  0  0  0  0  0  0  0  0  0  0  0  # atno 6909 bound_to 6896
  146.1915  140.3854  142.8456 H   0  0  0  0  0  0  0  0  0  0  0  0  # atno 7974 bound_to 7965
  154.4026  140.1326  156.4308 H   0  0  0  0  0  0  0  0  0  0  0  0  # atno 8008 bound_to 7997
  155.7553  140.3487  155.5150 H   0  0  0  0  0  0  0  0  0  0  0  0  # atno 8009 bound_to 7997
  155.8911  140.1003  157.1408 H   0  0  0  0  0  0  0  0  0  0  0  0  # atno 8010 bound_to 7997
  140.4425  144.1166  150.6176 H   0  0  0  0  0  0  0  0  0  0  0  0  # atno 10167 bound_to 10162
  157.6705  131.0827  150.5856 H   0  0  0  0  0  0  0  0  0  0  0  0  # atno 10718 bound_to 10713
  154.6364  135.5404  153.7739 H   0  0  0  0  0  0  0  0  0  0  0  0  # atno 10763 bound_to 10752
  153.0310  135.6448  154.1225 H   0  0  0  0  0  0  0  0  0  0  0  0  # atno 10764 bound_to 10752
  154.1152  135.2924  155.3201 H   0  0  0  0  0  0  0  0  0  0  0  0  # atno 10765 bound_to 10752
  140.0387  134.9315  157.0803 H   0  0  0  0  0  0  0  0  0  0  0  0  # atno 11005 bound_to 11000
  144.8497  140.6982  143.6176 LP  0  0  0  0  0  0  0  0  0  0  0  0  # atno 17320 bound_to 7965
  145.3776  139.1644  143.4298 LP  0  0  0  0  0  0  0  0  0  0  0  0  # atno 17321 bound_to 7965
  140.4301  143.2572  151.9606 LP  0  0  0  0  0  0  0  0  0  0  0  0  # atno 17342 bound_to 10162
  139.4790  144.5751  151.8024 LP  0  0  0  0  0  0  0  0  0  0  0  0  # atno 17343 bound_to 10162
  156.6156  130.4392  149.5842 LP  0  0  0  0  0  0  0  0  0  0  0  0  # atno 17370 bound_to 10713
  156.2396  130.6843  151.1542 LP  0  0  0  0  0  0  0  0  0  0  0  0  # atno 17371 bound_to 10713
  140.4104  134.1987  155.7163 LP  0  0  0  0  0  0  0  0  0  0  0  0  # atno 17394 bound_to 11000
  141.1871  133.8287  157.1042 LP  0  0  0  0  0  0  0  0  0  0  0  0  # atno 17395 bound_to 11000

$$$$
