AV-unprocessed.smi:2644|AV-procd|sdf|10277|dock4
  -GOLD-   2272014283D 1   1.00000     0.00000
 Structure written by MMmdl.
 42 44  0  0  0  0  0  0  0  0  1 V2000
  153.3730  142.5898  162.3027 C   0  0  0  0  0  0  0  0  0  0  0  0
  153.1047  141.7761  161.1700 O   0  0  0  0  0  0  0  0  0  0  0  0
  152.4842  142.3599  160.0866 C   0  0  0  0  0  0  0  0  0  0  0  0
  152.7193  143.7335  159.8751 C   0  0  0  0  0  0  0  0  0  0  0  0
  152.1072  144.4117  158.8047 C   0  0  0  0  0  0  0  0  0  0  0  0
  151.2481  143.7201  157.9316 C   0  0  0  0  0  0  0  0  0  0  0  0
  151.0054  142.3432  158.1216 C   0  0  0  0  0  0  0  0  0  0  0  0
  150.0277  141.5947  157.2228 C   0  0  2  0  0  0  0  0  0  0  0  0
  149.9588  140.2163  157.5273 O   0  0  0  0  0  0  0  0  0  0  0  0
  150.3650  141.7510  155.7208 C   0  0  0  0  0  0  0  0  0  0  0  0
  149.2736  141.2941  154.8494 N   0  0  0  0  0  0  0  0  0  0  0  0
  148.1402  142.0867  154.8990 N   0  0  0  0  0  0  0  0  0  0  0  0
  147.0637  141.7578  154.2636 C   0  0  0  0  0  0  0  0  0  0  0  0
  145.9162  142.6291  154.4413 C   0  0  0  0  0  0  0  0  0  0  0  0
  145.0216  142.4344  155.4640 C   0  0  0  0  0  0  0  0  0  0  0  0
  143.9852  143.4155  155.4541 C   0  0  0  0  0  0  0  0  0  0  0  0
  144.1088  144.3330  154.4390 C   0  0  0  0  0  0  0  0  0  0  0  0
  143.2106  145.4841  154.1369 C   0  0  0  0  0  0  0  0  0  0  0  0
  145.5178  144.0141  153.4578 S   0  0  0  0  0  0  0  0  0  0  0  0
  147.0611  140.5586  153.4380 C   0  0  0  0  0  0  0  0  0  0  0  0
  148.1748  139.7966  153.3825 C   0  0  0  0  0  0  0  0  0  0  0  0
  149.3822  140.1390  154.1311 C   0  0  0  0  0  0  0  0  0  0  0  0
  150.3973  139.4432  154.1304 O   0  0  0  0  0  0  0  0  0  0  0  0
  151.6290  141.6679  159.1931 C   0  0  0  0  0  0  0  0  0  0  0  0
  153.8980  141.9998  163.0538 H   0  0  0  0  0  0  0  0  0  0  0  0
  152.4517  142.9568  162.7570 H   0  0  0  0  0  0  0  0  0  0  0  0
  154.0113  143.4360  162.0434 H   0  0  0  0  0  0  0  0  0  0  0  0
  153.3696  144.2753  160.5461 H   0  0  0  0  0  0  0  0  0  0  0  0
  152.2891  145.4664  158.6600 H   0  0  0  0  0  0  0  0  0  0  0  0
  150.7658  144.2532  157.1255 H   0  0  0  0  0  0  0  0  0  0  0  0
  149.0292  141.9959  157.4006 H   0  0  0  0  0  0  0  0  0  0  0  0
  149.0515  139.9522  157.5110 H   0  0  0  0  0  0  0  0  0  0  0  0
  150.5781  142.8000  155.5052 H   0  0  0  0  0  0  0  0  0  0  0  0
  151.2872  141.2173  155.4834 H   0  0  0  0  0  0  0  0  0  0  0  0
  145.0477  141.6543  156.2094 H   0  0  0  0  0  0  0  0  0  0  0  0
  143.1914  143.4150  156.1867 H   0  0  0  0  0  0  0  0  0  0  0  0
  142.3341  145.4796  154.7853 H   0  0  0  0  0  0  0  0  0  0  0  0
  142.8645  145.4444  153.1040 H   0  0  0  0  0  0  0  0  0  0  0  0
  143.7328  146.4299  154.2828 H   0  0  0  0  0  0  0  0  0  0  0  0
  146.1885  140.2696  152.8740 H   0  0  0  0  0  0  0  0  0  0  0  0
  148.1737  138.9061  152.7712 H   0  0  0  0  0  0  0  0  0  0  0  0
  151.4148  140.6185  159.3270 H   0  0  0  0  0  0  0  0  0  0  0  0
  1  2  1  0  0  0  0
  1 25  1  0  0  0  0
  1 26  1  0  0  0  0
  1 27  1  0  0  0  0
  2  3  1  0  0  0  0
  3 24  1  0  0  0  0
  3  4  2  0  0  0  0
  4  5  1  0  0  0  0
  4 28  1  0  0  0  0
  5  6  2  0  0  0  0
  5 29  1  0  0  0  0
  6  7  1  0  0  0  0
  6 30  1  0  0  0  0
  7  8  1  0  0  0  0
  7 24  2  0  0  0  0
  8  9  1  0  0  0  0
  8 10  1  0  0  0  0
  8 31  1  0  0  0  0
  9 32  1  0  0  0  0
 10 11  1  0  0  0  0
 10 33  1  0  0  0  0
 10 34  1  0  0  0  0
 11 22  1  0  0  0  0
 11 12  1  0  0  0  0
 12 13  2  0  0  0  0
 13 14  1  0  0  0  0
 13 20  1  0  0  0  0
 14 19  1  0  0  0  0
 14 15  2  0  0  0  0
 15 16  1  0  0  0  0
 15 35  1  0  0  0  0
 16 17  2  0  0  0  0
 16 36  1  0  0  0  0
 17 18  1  0  0  0  0
 17 19  1  0  0  0  0
 18 37  1  0  0  0  0
 18 38  1  0  0  0  0
 18 39  1  0  0  0  0
 20 21  2  0  0  0  0
 20 40  1  0  0  0  0
 21 22  1  0  0  0  0
 21 41  1  0  0  0  0
 22 23  2  0  0  0  0
 24 42  1  0  0  0  0
M  END
> <s_m_source_file>
AV-unprocessed.smi

> <i_m_source_file_index>
2644

> <i_lp_mmshare_version>
43012

> <i_f3d_flags>
0

> <s_epik_input>
W0NIM11PYzFbY0hdW2NIXVtjSF1jKFtjSF0xKVtDQEhdKFtPSF0pW0NIMl1uMm5jKFtjSF1bY0hdYzI9TyktYzNbY0hdW2NIXWMoczMpW0NIM10=

> <s_epik_cmdline>
J2VwaWtfcHl0aG9uJywgJy1waCcsICc3LjAnLCAnLXRuJywgJzgnLCAnLW1hJywgJzIwMCcsICctbWV0YWxfYmluZGluZycsICctaW1hZScsICc8aW5maWxlLm1hZT4nLCAnLW9tYWUnLCAnPG91dGZpbGUubWFlPic=

> <r_lp_tautomer_probability>
1

> <r_epik_Ionization_Penalty>
1.30631e-07

> <r_epik_Ionization_Penalty_Charging>
5.89185e-08

> <r_epik_Ionization_Penalty_Neutral>
7.1713e-08

> <r_epik_State_Penalty>
-0

> <r_epik_Charging_Adjusted_Penalty>
5.89185e-08

> <i_epik_Tot_Q>
0

> <i_epik_Tot_abs_Q>
0

> <r_epik_Metal_State_Penalty>
-0

> <b_epik_Metal_Only>
0

> <s_lp_Force_Field>
OPLS_2005

> <r_lp_Energy>
28.4714

> <b_lp_Chiralities_Consistent>
1

> <s_lp_Variant>
AV-unprocessed.smi:2644-1

> <Gold.Version>
5.8.1

> <Gold.Id.Protein>
6NUR|6NUR_protein|mol2

> <Gold.PLP.Fitness>
51.1802

> <Gold.PLP.PLP>
-53.0494

> <Gold.PLP.part.hbond>
-1.0000

> <Gold.PLP.part.metal>
0.0000

> <Gold.PLP.part.buried>
-3.0721

> <Gold.PLP.part.nonpolar>
-51.0377

> <Gold.PLP.part.repulsive>
2.3503

> <Gold.PLP.ligand.clash>
0.0000

> <Gold.PLP.ligand.torsion>
2.0928

> <Gold.PLP.Chemscore.Hbond>
0.7500

> <Gold.PLP.Chemscore.CHOScore>
0.0000

> <Gold.PLP.Chemscore.Metal>
0.0000

> <Gold.Chemscore.Hbonds>
donor molecule, donor type, donor heavy atom, donor atom, acceptor molecule, acceptor atom, score
      P1  H  7989  7998       L1    23  0.80

> <Gold.PLP.Chemscore.Internal.Correction>
0.0664

> <Gold.Rescore>
     Score         DG    S(hbond)    S(metal)    S(lipo)     H(rot)  DE(clash)    DE(int)     intcor
     13.01     -17.52       0.07        0.00     144.28       1.98       2.49       2.02       ----

> <Gold.Chemscore.Fitness>
13.0054

> <Gold.Chemscore.DG>
-17.5176

> <Gold.Chemscore.ZeroCoef>
-5.4800

> <Gold.Chemscore.Hbond>
0.0658

> <Gold.Chemscore.Metal>
0.0000

> <Gold.Chemscore.Lipo>
144.2792

> <Gold.Chemscore.Internal_Hbond>
0.0000

> <Gold.Chemscore.DEClash>
2.4913

> <Gold.Chemscore.DEInternal>
2.0208

> <Gold.Chemscore.Rot>
1.9777

> <Gold.Chemscore.Internal.Correction>
   9.000000E+99

> <Gold.Chemscore.Hbonds>
donor molecule, donor type, donor heavy atom, donor atom, acceptor molecule, acceptor atom, score
      P1  H  7989  7998       L1    23  0.11

> <Gold.Chemscore.Hbond.Weighted>
-0.2198

> <Gold.Chemscore.Metal.Weighted>
-0.0000

> <Gold.Chemscore.Lipo.Weighted>
-16.8807

> <Gold.Chemscore.Internal_Hbond.Weighted>
0.0000

> <Gold.Chemscore.DEClash.Weighted>
2.4913

> <Gold.Chemscore.DEInternal.Weighted>
2.0208

> <Gold.Chemscore.Rot.Weighted>
5.0629

> <Gold.Chemscore.Internal.Correction.Weighted>
   9.000000E+99

> <Gold.Protein.RotatedTorsions>
[ 6907 6896 6895 6894 ] final -130.03 input  -60.11 | X-H torsion
[ 7974 7965 7964 7962 ] final  130.71 input  175.53 | X-H torsion
[ 8008 7997 7996 7995 ] final -161.84 input   59.86 | X-H torsion
[ 10167 10162 10161 10158 ] final  158.41 input  -65.29 | X-H torsion
[ 10718 10713 10712 10709 ] final  -70.29 input   66.30 | X-H torsion
[ 10763 10752 10751 10750 ] final    0.77 input  -60.55 | X-H torsion
[ 11005 11000 10999 10996 ] final -150.22 input  -57.11 | X-H torsion

> <Gold.Protein.ActiveResidues>
 VAL166  LYS551  ARG553  GLY616  TRP617  ASP618  TYR619  PRO620  LYS621  CYS622 
 ASP623  PHE694  ASN695  SER759  ASP760  ASP761  ALA762  ILE779  LEU786  VAL792 
 PHE793  MET794  SER795  GLU796  ALA797  LYS798  CYS799  TRP800  GLU811  SER814 

> <Gold.Protein.RotatedAtoms>
  150.9353  133.6719  159.2801 H   0  0  0  0  0  0  0  0  0  0  0  0  # atno 6907 bound_to 6896
  151.4127  135.0986  159.9600 H   0  0  0  0  0  0  0  0  0  0  0  0  # atno 6908 bound_to 6896
  152.5045  133.8822  159.7407 H   0  0  0  0  0  0  0  0  0  0  0  0  # atno 6909 bound_to 6896
  145.0150  139.4184  143.5226 H   0  0  0  0  0  0  0  0  0  0  0  0  # atno 7974 bound_to 7965
  155.7980  140.0888  157.1972 H   0  0  0  0  0  0  0  0  0  0  0  0  # atno 8008 bound_to 7997
  154.3983  140.1477  156.3300 H   0  0  0  0  0  0  0  0  0  0  0  0  # atno 8009 bound_to 7997
  155.8491  140.3435  155.5684 H   0  0  0  0  0  0  0  0  0  0  0  0  # atno 8010 bound_to 7997
  139.4827  144.4827  151.8422 H   0  0  0  0  0  0  0  0  0  0  0  0  # atno 10167 bound_to 10162
  156.0415  130.4328  150.2273 H   0  0  0  0  0  0  0  0  0  0  0  0  # atno 10718 bound_to 10713
  153.3164  135.6966  153.7069 H   0  0  0  0  0  0  0  0  0  0  0  0  # atno 10763 bound_to 10752
  153.5927  135.3477  155.2917 H   0  0  0  0  0  0  0  0  0  0  0  0  # atno 10764 bound_to 10752
  154.8587  135.4321  154.2316 H   0  0  0  0  0  0  0  0  0  0  0  0  # atno 10765 bound_to 10752
  140.7425  134.3498  157.5144 H   0  0  0  0  0  0  0  0  0  0  0  0  # atno 11005 bound_to 11000
  146.3476  139.9616  142.8716 LP  0  0  0  0  0  0  0  0  0  0  0  0  # atno 17320 bound_to 7965
  145.1972  140.9838  143.4177 LP  0  0  0  0  0  0  0  0  0  0  0  0  # atno 17321 bound_to 7965
  140.4304  144.2123  150.5888 LP  0  0  0  0  0  0  0  0  0  0  0  0  # atno 17342 bound_to 10162
  140.4785  143.2387  151.8989 LP  0  0  0  0  0  0  0  0  0  0  0  0  # atno 17343 bound_to 10162
  157.0368  131.0023  151.3296 LP  0  0  0  0  0  0  0  0  0  0  0  0  # atno 17370 bound_to 10713
  157.5238  130.8015  149.7839 LP  0  0  0  0  0  0  0  0  0  0  0  0  # atno 17371 bound_to 10713
  139.8803  134.9090  156.2980 LP  0  0  0  0  0  0  0  0  0  0  0  0  # atno 17394 bound_to 11000
  140.9824  133.7259  156.0691 LP  0  0  0  0  0  0  0  0  0  0  0  0  # atno 17395 bound_to 11000

$$$$
