AV-unprocessed.smi:1225|AV-procd|sdf|5142|dock10
  -GOLD-   22720 4213D 1   1.00000     0.00000
 Structure written by MMmdl.
 49 51  0  0  0  0  0  0  0  0  2 V2000
  145.8058  132.1651  151.4153 C   0  0  0  0  0  0  0  0  0  0  0  0
  145.7159  133.6039  151.7940 C   0  0  0  0  0  0  0  0  0  0  0  0
  145.0392  134.5130  151.0890 N   0  0  0  0  0  0  0  0  0  0  0  0
  145.1130  135.7886  151.6518 C   0  0  0  0  0  0  0  0  0  0  0  0
  145.8501  135.8428  152.8091 C   0  0  0  0  0  0  0  0  0  0  0  0
  146.1222  137.0443  153.6549 C   0  0  0  0  0  0  0  0  0  0  0  0
  147.0291  138.0095  152.9819 N   0  3  1  0  0  0  0  0  0  0  0  0
  146.5113  138.4532  151.6664 C   0  0  0  0  0  0  0  0  0  0  0  0
  147.4083  139.1556  153.8465 C   0  0  0  0  0  0  0  0  0  0  0  0
  148.8726  139.0623  154.3322 C   0  0  1  0  0  0  0  0  0  0  0  0
  149.6478  138.4358  153.3303 O   0  0  0  0  0  0  0  0  0  0  0  0
  149.5131  140.4309  154.6345 C   0  0  0  0  0  0  0  0  0  0  0  0
  150.6020  140.3374  155.5894 N   0  0  0  0  0  0  0  0  0  0  0  0
  151.6206  139.4563  155.5713 C   0  0  0  0  0  0  0  0  0  0  0  0
  152.5140  139.5389  156.5526 N   0  0  0  0  0  0  0  0  0  0  0  0
  152.0229  140.6032  157.2892 C   0  0  0  0  0  0  0  0  0  0  0  0
  152.5126  141.2055  158.4686 C   0  0  0  0  0  0  0  0  0  0  0  0
  151.8379  142.2980  159.0585 C   0  0  0  0  0  0  0  0  0  0  0  0
  152.4011  142.9164  160.3260 C   0  0  0  0  0  0  0  0  0  0  0  0
  150.6526  142.8043  158.4673 C   0  0  0  0  0  0  0  0  0  0  0  0
  149.9130  143.9796  159.0817 C   0  0  0  0  0  0  0  0  0  0  0  0
  150.1481  142.2128  157.2904 C   0  0  0  0  0  0  0  0  0  0  0  0
  150.8292  141.1267  156.7121 C   0  0  0  0  0  0  0  0  0  0  0  0
  146.4980  134.2751  153.2199 S   0  0  0  0  0  0  0  0  0  0  0  0
  145.1252  131.9397  150.5934 H   0  0  0  0  0  0  0  0  0  0  0  0
  145.5430  131.5378  152.2670 H   0  0  0  0  0  0  0  0  0  0  0  0
  146.8224  131.9254  151.1038 H   0  0  0  0  0  0  0  0  0  0  0  0
  144.6038  136.6058  151.1625 H   0  0  0  0  0  0  0  0  0  0  0  0
  145.1899  137.5433  153.9239 H   0  0  0  0  0  0  0  0  0  0  0  0
  146.5580  136.7056  154.5940 H   0  0  0  0  0  0  0  0  0  0  0  0
  145.5814  139.0115  151.7815 H   0  0  0  0  0  0  0  0  0  0  0  0
  146.3216  137.6049  151.0089 H   0  0  0  0  0  0  0  0  0  0  0  0
  147.2348  139.0946  151.1623 H   0  0  0  0  0  0  0  0  0  0  0  0
  147.2866  140.0933  153.3016 H   0  0  0  0  0  0  0  0  0  0  0  0
  146.7125  139.2019  154.6854 H   0  0  0  0  0  0  0  0  0  0  0  0
  148.9361  138.4488  155.2305 H   0  0  0  0  0  0  0  0  0  0  0  0
  149.6250  138.9692  152.5499 H   0  0  0  0  0  0  0  0  0  0  0  0
  149.9020  140.8775  153.7181 H   0  0  0  0  0  0  0  0  0  0  0  0
  148.7669  141.1239  155.0249 H   0  0  0  0  0  0  0  0  0  0  0  0
  151.7084  138.7086  154.7963 H   0  0  0  0  0  0  0  0  0  0  0  0
  153.4162  140.8205  158.9182 H   0  0  0  0  0  0  0  0  0  0  0  0
  152.6571  143.9630  160.1596 H   0  0  0  0  0  0  0  0  0  0  0  0
  153.3033  142.3998  160.6547 H   0  0  0  0  0  0  0  0  0  0  0  0
  151.6722  142.8620  161.1350 H   0  0  0  0  0  0  0  0  0  0  0  0
  149.0373  144.2518  158.4922 H   0  0  0  0  0  0  0  0  0  0  0  0
  150.5624  144.8534  159.1373 H   0  0  0  0  0  0  0  0  0  0  0  0
  149.5759  143.7342  160.0889 H   0  0  0  0  0  0  0  0  0  0  0  0
  149.2461  142.5897  156.8318 H   0  0  0  0  0  0  0  0  0  0  0  0
  147.8902  137.5157  152.7933 H   0  0  0  0  0  0  0  0  0  0  0  0
  1  2  1  0  0  0  0
  1 25  1  0  0  0  0
  1 26  1  0  0  0  0
  1 27  1  0  0  0  0
  2 24  1  0  0  0  0
  2  3  2  0  0  0  0
  3  4  1  0  0  0  0
  4  5  2  0  0  0  0
  4 28  1  0  0  0  0
  5  6  1  0  0  0  0
  5 24  1  0  0  0  0
  6  7  1  0  0  0  0
  6 29  1  0  0  0  0
  6 30  1  0  0  0  0
  7  8  1  0  0  0  0
  7  9  1  0  0  0  0
  7 49  1  0  0  0  0
  8 31  1  0  0  0  0
  8 32  1  0  0  0  0
  8 33  1  0  0  0  0
  9 10  1  0  0  0  0
  9 34  1  0  0  0  0
  9 35  1  0  0  0  0
 10 11  1  0  0  0  0
 10 12  1  0  0  0  0
 10 36  1  0  0  0  0
 11 37  1  0  0  0  0
 12 13  1  0  0  0  0
 12 38  1  0  0  0  0
 12 39  1  0  0  0  0
 13 23  1  0  0  0  0
 13 14  1  0  0  0  0
 14 15  2  0  0  0  0
 14 40  1  0  0  0  0
 15 16  1  0  0  0  0
 16 23  2  0  0  0  0
 16 17  1  0  0  0  0
 17 18  2  0  0  0  0
 17 41  1  0  0  0  0
 18 19  1  0  0  0  0
 18 20  1  0  0  0  0
 19 42  1  0  0  0  0
 19 43  1  0  0  0  0
 19 44  1  0  0  0  0
 20 21  1  0  0  0  0
 20 22  2  0  0  0  0
 21 45  1  0  0  0  0
 21 46  1  0  0  0  0
 21 47  1  0  0  0  0
 22 23  1  0  0  0  0
 22 48  1  0  0  0  0
M  CHG  1   7   1
M  END
> <s_m_source_file>
AV-unprocessed.smi

> <i_m_source_file_index>
1225

> <i_lp_mmshare_version>
43012

> <i_f3d_flags>
0

> <s_epik_input>
W0NIM11jMW5bY0hdYyhzMSlbQ0gyXU4oW0NIM10pW0NIMl1bQ0BIXShbT0hdKVtDSDJdbihbY0hdbjIpYyhjMjMpW2NIXWMoW0NIM10pYyhbY0hdMylbQ0gzXQ==

> <s_epik_cmdline>
J2VwaWtfcHl0aG9uJywgJy1waCcsICc3LjAnLCAnLXRuJywgJzgnLCAnLW1hJywgJzIwMCcsICctbWV0YWxfYmluZGluZycsICctaW1hZScsICc8aW5maWxlLm1hZT4nLCAnLW9tYWUnLCAnPG91dGZpbGUubWFlPic=

> <r_epik_Ionization_Penalty>
1.62543

> <r_epik_Ionization_Penalty_Charging>
1.53932

> <r_epik_Ionization_Penalty_Neutral>
0.0861152

> <r_epik_State_Penalty>
1.73127

> <r_epik_Charging_Adjusted_Penalty>
3.27059

> <i_epik_Tot_Q>
1

> <i_epik_Tot_abs_Q>
1

> <r_epik_Metal_State_Penalty>
1.71387

> <b_epik_Metal_Only>
0

> <s_lp_Force_Field>
OPLS_2005

> <r_lp_Energy>
12.5973

> <b_lp_Chiralities_Consistent>
1

> <s_lp_Variant>
AV-unprocessed.smi:1225-7

> <Gold.Version>
5.8.1

> <Gold.Id.Protein>
6NUR|6NUR_protein|mol2

> <Gold.PLP.Fitness>
58.9200

> <Gold.PLP.PLP>
-46.7196

> <Gold.PLP.part.hbond>
-4.0000

> <Gold.PLP.part.metal>
0.0000

> <Gold.PLP.part.buried>
-2.7698

> <Gold.PLP.part.nonpolar>
-40.4510

> <Gold.PLP.part.repulsive>
0.2575

> <Gold.PLP.ligand.clash>
0.0000

> <Gold.PLP.ligand.torsion>
1.5354

> <Gold.PLP.Chemscore.Hbond>
4.0000

> <Gold.PLP.Chemscore.CHOScore>
1.0000

> <Gold.PLP.Chemscore.Metal>
0.0000

> <Gold.Chemscore.Hbonds>
donor molecule, donor type, donor heavy atom, donor atom, acceptor molecule, acceptor atom, score
      L1  H     7    49       P1  7948  2.00
      L1  H    11    37       P1  7957  1.00
      P1  H  7997  8008       L1    15  1.00
      L1  C     4    28       P1 10171  1.00

> <Gold.PLP.Chemscore.Internal.Correction>
0.2711

> <Gold.Rescore>
     Score         DG    S(hbond)    S(metal)    S(lipo)     H(rot)  DE(clash)    DE(int)     intcor
     18.82     -21.77       2.71        0.00     114.01       2.37       1.18       1.78       ----

> <Gold.Chemscore.Fitness>
18.8165

> <Gold.Chemscore.DG>
-21.7741

> <Gold.Chemscore.ZeroCoef>
-5.4800

> <Gold.Chemscore.Hbond>
2.7052

> <Gold.Chemscore.Metal>
0.0000

> <Gold.Chemscore.Lipo>
114.0069

> <Gold.Chemscore.Internal_Hbond>
0.0000

> <Gold.Chemscore.DEClash>
1.1755

> <Gold.Chemscore.DEInternal>
1.7822

> <Gold.Chemscore.Rot>
2.3750

> <Gold.Chemscore.Internal.Correction>
   9.000000E+99

> <Gold.Chemscore.Hbonds>
donor molecule, donor type, donor heavy atom, donor atom, acceptor molecule, acceptor atom, score
      L1  H     7    49       P1  7948  0.97
      L1  H    11    37       P1  7957  0.85
      P1  H  7997  8008       L1    15  0.27

> <Gold.Chemscore.Hbond.Weighted>
-9.0353

> <Gold.Chemscore.Metal.Weighted>
-0.0000

> <Gold.Chemscore.Lipo.Weighted>
-13.3388

> <Gold.Chemscore.Internal_Hbond.Weighted>
0.0000

> <Gold.Chemscore.DEClash.Weighted>
1.1755

> <Gold.Chemscore.DEInternal.Weighted>
1.7822

> <Gold.Chemscore.Rot.Weighted>
6.0800

> <Gold.Chemscore.Internal.Correction.Weighted>
   9.000000E+99

> <Gold.Protein.RotatedTorsions>
[ 6907 6896 6895 6894 ] final  -11.51 input  -60.11 | X-H torsion
[ 7974 7965 7964 7962 ] final -160.53 input  175.53 | X-H torsion
[ 8008 7997 7996 7995 ] final  -30.06 input   59.86 | X-H torsion
[ 10167 10162 10161 10158 ] final  -39.59 input  -65.29 | X-H torsion
[ 10718 10713 10712 10709 ] final -166.12 input   66.30 | X-H torsion
[ 10763 10752 10751 10750 ] final  -87.38 input  -60.55 | X-H torsion
[ 11005 11000 10999 10996 ] final -169.87 input  -57.11 | X-H torsion

> <Gold.Protein.ActiveResidues>
 VAL166  LYS551  ARG553  GLY616  TRP617  ASP618  TYR619  PRO620  LYS621  CYS622 
 ASP623  PHE694  ASN695  SER759  ASP760  ASP761  ALA762  ILE779  LEU786  VAL792 
 PHE793  MET794  SER795  GLU796  ALA797  LYS798  CYS799  TRP800  GLU811  SER814 

> <Gold.Protein.RotatedAtoms>
  151.3850  135.0946  159.9507 H   0  0  0  0  0  0  0  0  0  0  0  0  # atno 6907 bound_to 6896
  152.5097  133.9035  159.7463 H   0  0  0  0  0  0  0  0  0  0  0  0  # atno 6908 bound_to 6896
  150.9476  133.6530  159.2807 H   0  0  0  0  0  0  0  0  0  0  0  0  # atno 6909 bound_to 6896
  144.7424  140.3528  143.6112 H   0  0  0  0  0  0  0  0  0  0  0  0  # atno 7974 bound_to 7965
  154.4265  140.1801  156.1347 H   0  0  0  0  0  0  0  0  0  0  0  0  # atno 8008 bound_to 7997
  156.0039  140.3357  155.6848 H   0  0  0  0  0  0  0  0  0  0  0  0  # atno 8009 bound_to 7997
  155.6204  140.0659  157.2670 H   0  0  0  0  0  0  0  0  0  0  0  0  # atno 8010 bound_to 7997
  140.7059  143.3205  151.2804 H   0  0  0  0  0  0  0  0  0  0  0  0  # atno 10167 bound_to 10162
  156.6632  130.9054  151.3032 H   0  0  0  0  0  0  0  0  0  0  0  0  # atno 10718 bound_to 10713
  154.6330  135.5415  153.7702 H   0  0  0  0  0  0  0  0  0  0  0  0  # atno 10763 bound_to 10752
  153.0294  135.6440  154.1273 H   0  0  0  0  0  0  0  0  0  0  0  0  # atno 10764 bound_to 10752
  154.1202  135.2921  155.3190 H   0  0  0  0  0  0  0  0  0  0  0  0  # atno 10765 bound_to 10752
  140.5259  134.5663  157.5061 H   0  0  0  0  0  0  0  0  0  0  0  0  # atno 11005 bound_to 11000
  145.7258  139.1722  143.2458 LP  0  0  0  0  0  0  0  0  0  0  0  0  # atno 17320 bound_to 7965
  146.1243  140.7268  142.9442 LP  0  0  0  0  0  0  0  0  0  0  0  0  # atno 17321 bound_to 7965
  139.6657  144.0109  152.2721 LP  0  0  0  0  0  0  0  0  0  0  0  0  # atno 17342 bound_to 10162
  139.9691  144.6506  150.8006 LP  0  0  0  0  0  0  0  0  0  0  0  0  # atno 17343 bound_to 10162
  157.7102  130.9432  150.1065 LP  0  0  0  0  0  0  0  0  0  0  0  0  # atno 17370 bound_to 10713
  156.1995  130.3659  149.8806 LP  0  0  0  0  0  0  0  0  0  0  0  0  # atno 17371 bound_to 10713
  139.9580  134.7501  156.0299 LP  0  0  0  0  0  0  0  0  0  0  0  0  # atno 17394 bound_to 11000
  141.1308  133.6587  156.3460 LP  0  0  0  0  0  0  0  0  0  0  0  0  # atno 17395 bound_to 11000

$$$$
