AV-unprocessed.smi:2237|AV-procd|sdf|9050|dock3
  -GOLD-   2272012253D 1   1.00000     0.00000
 Structure written by MMmdl.
 54 56  0  0  0  0  0  0  0  0  2 V2000
  153.4524  141.3325  160.4270 C   0  0  0  0  0  0  0  0  0  0  0  0
  152.7272  142.4991  159.7897 C   0  0  0  0  0  0  0  0  0  0  0  0
  152.8761  143.8074  160.2903 C   0  0  0  0  0  0  0  0  0  0  0  0
  152.1754  144.8455  159.6510 C   0  0  0  0  0  0  0  0  0  0  0  0
  151.3606  144.5352  158.5450 C   0  0  0  0  0  0  0  0  0  0  0  0
  151.2645  143.1953  158.1066 C   0  0  0  0  0  0  0  0  0  0  0  0
  150.4181  142.9879  156.9853 N   0  0  0  0  0  0  0  0  0  0  0  0
  150.1390  141.8322  156.3569 C   0  0  0  0  0  0  0  0  0  0  0  0
  150.5856  140.7268  156.6657 O   0  0  0  0  0  0  0  0  0  0  0  0
  149.2942  142.0283  155.3341 N   0  0  0  0  0  0  0  0  0  0  0  0
  148.7719  140.9798  154.4632 C   0  0  0  0  0  0  0  0  0  0  0  0
  147.5054  141.4421  153.7339 C   0  0  0  0  0  0  0  0  0  0  0  0
  146.8884  140.2936  152.9173 C   0  0  0  0  0  0  0  0  0  0  0  0
  146.5338  139.1408  153.7643 N   0  0  0  0  0  0  0  0  0  0  0  0
  145.8698  138.0806  152.9715 C   0  0  2  0  0  0  0  0  0  0  0  0
  145.9744  136.7011  153.6786 C   0  0  0  0  0  0  0  0  0  0  0  0
  145.4068  135.5513  152.8313 C   0  0  0  0  0  0  0  0  0  0  0  0
  146.0725  135.4831  151.5120 N   0  3  1  0  0  0  0  0  0  0  0  0
  145.6481  134.3061  150.7240 C   0  0  0  0  0  0  0  0  0  0  0  0
  145.9093  136.7508  150.7671 C   0  0  0  0  0  0  0  0  0  0  0  0
  146.4918  137.9346  151.5555 C   0  0  0  0  0  0  0  0  0  0  0  0
  147.7663  138.6571  154.4106 C   0  0  0  0  0  0  0  0  0  0  0  0
  148.4187  139.7398  155.2876 C   0  0  0  0  0  0  0  0  0  0  0  0
  151.9451  142.2012  158.7299 N   0  0  0  0  0  0  0  0  0  0  0  0
  154.0756  141.6606  161.2594 H   0  0  0  0  0  0  0  0  0  0  0  0
  154.0934  140.8391  159.6957 H   0  0  0  0  0  0  0  0  0  0  0  0
  152.7364  140.6020  160.8046 H   0  0  0  0  0  0  0  0  0  0  0  0
  153.5096  144.0130  161.1407 H   0  0  0  0  0  0  0  0  0  0  0  0
  152.2603  145.8633  160.0022 H   0  0  0  0  0  0  0  0  0  0  0  0
  150.8152  145.3212  158.0428 H   0  0  0  0  0  0  0  0  0  0  0  0
  149.9673  143.8151  156.6236 H   0  0  0  0  0  0  0  0  0  0  0  0
  148.9799  142.9698  155.1502 H   0  0  0  0  0  0  0  0  0  0  0  0
  149.5334  140.7055  153.7302 H   0  0  0  0  0  0  0  0  0  0  0  0
  146.7720  141.8135  154.4514 H   0  0  0  0  0  0  0  0  0  0  0  0
  147.7375  142.2759  153.0704 H   0  0  0  0  0  0  0  0  0  0  0  0
  146.0114  140.7095  152.4286 H   0  0  0  0  0  0  0  0  0  0  0  0
  147.5747  139.9801  152.1291 H   0  0  0  0  0  0  0  0  0  0  0  0
  144.8155  138.3389  152.8586 H   0  0  0  0  0  0  0  0  0  0  0  0
  147.0167  136.4896  153.9228 H   0  0  0  0  0  0  0  0  0  0  0  0
  145.4249  136.6879  154.6179 H   0  0  0  0  0  0  0  0  0  0  0  0
  145.5490  134.6079  153.3602 H   0  0  0  0  0  0  0  0  0  0  0  0
  144.3317  135.6794  152.6950 H   0  0  0  0  0  0  0  0  0  0  0  0
  144.5836  134.3536  150.4912 H   0  0  0  0  0  0  0  0  0  0  0  0
  145.8372  133.3847  151.2757 H   0  0  0  0  0  0  0  0  0  0  0  0
  146.2017  134.2509  149.7861 H   0  0  0  0  0  0  0  0  0  0  0  0
  146.4138  136.6747  149.8030 H   0  0  0  0  0  0  0  0  0  0  0  0
  144.8516  136.9213  150.5591 H   0  0  0  0  0  0  0  0  0  0  0  0
  146.3126  138.8221  150.9505 H   0  0  0  0  0  0  0  0  0  0  0  0
  147.5741  137.8195  151.6356 H   0  0  0  0  0  0  0  0  0  0  0  0
  147.5569  137.8221  155.0751 H   0  0  0  0  0  0  0  0  0  0  0  0
  148.4713  138.3026  153.6569 H   0  0  0  0  0  0  0  0  0  0  0  0
  149.3165  139.3385  155.7592 H   0  0  0  0  0  0  0  0  0  0  0  0
  147.7372  140.0077  156.0969 H   0  0  0  0  0  0  0  0  0  0  0  0
  147.0611  135.3722  151.6884 H   0  0  0  0  0  0  0  0  0  0  0  0
  1  2  1  0  0  0  0
  1 25  1  0  0  0  0
  1 26  1  0  0  0  0
  1 27  1  0  0  0  0
  2 24  1  0  0  0  0
  2  3  2  0  0  0  0
  3  4  1  0  0  0  0
  3 28  1  0  0  0  0
  4  5  2  0  0  0  0
  4 29  1  0  0  0  0
  5  6  1  0  0  0  0
  5 30  1  0  0  0  0
  6  7  1  0  0  0  0
  6 24  2  0  0  0  0
  7  8  1  0  0  0  0
  7 31  1  0  0  0  0
  8  9  2  0  0  0  0
  8 10  1  0  0  0  0
 10 11  1  0  0  0  0
 10 32  1  0  0  0  0
 11 23  1  0  0  0  0
 11 12  1  0  0  0  0
 11 33  1  0  0  0  0
 12 13  1  0  0  0  0
 12 34  1  0  0  0  0
 12 35  1  0  0  0  0
 13 14  1  0  0  0  0
 13 36  1  0  0  0  0
 13 37  1  0  0  0  0
 14 15  1  0  0  0  0
 14 22  1  0  0  0  0
 15 21  1  0  0  0  0
 15 16  1  0  0  0  0
 15 38  1  0  0  0  0
 16 17  1  0  0  0  0
 16 39  1  0  0  0  0
 16 40  1  0  0  0  0
 17 18  1  0  0  0  0
 17 41  1  0  0  0  0
 17 42  1  0  0  0  0
 18 19  1  0  0  0  0
 18 20  1  0  0  0  0
 18 54  1  0  0  0  0
 19 43  1  0  0  0  0
 19 44  1  0  0  0  0
 19 45  1  0  0  0  0
 20 21  1  0  0  0  0
 20 46  1  0  0  0  0
 20 47  1  0  0  0  0
 21 48  1  0  0  0  0
 21 49  1  0  0  0  0
 22 23  1  0  0  0  0
 22 50  1  0  0  0  0
 22 51  1  0  0  0  0
 23 52  1  0  0  0  0
 23 53  1  0  0  0  0
M  CHG  1  18   1
M  END
> <s_m_source_file>
AV-unprocessed.smi

> <i_m_source_file_index>
2237

> <i_lp_mmshare_version>
43012

> <i_f3d_flags>
0

> <s_epik_input>
W0NIM11jMVtjSF1bY0hdW2NIXWMobjEpW05IXUMoPU8pW05IXVtDSF0yW0NIMl1bQ0gyXU4oW0NIMl1bQ0gyXTIpW0NIXTNbQ0gyXVtDSDJdTihbQ0gzXSlbQ0gyXVtDSDJdMw==

> <s_epik_cmdline>
J2VwaWtfcHl0aG9uJywgJy1waCcsICc3LjAnLCAnLXRuJywgJzgnLCAnLW1hJywgJzIwMCcsICctbWV0YWxfYmluZGluZycsICctaW1hZScsICc8aW5maWxlLm1hZT4nLCAnLW9tYWUnLCAnPG91dGZpbGUubWFlPic=

> <r_epik_Ionization_Penalty>
1.00983

> <r_epik_Ionization_Penalty_Charging>
0.000974969

> <r_epik_Ionization_Penalty_Neutral>
1.00886

> <r_epik_State_Penalty>
1.10286

> <r_epik_Charging_Adjusted_Penalty>
1.10383

> <i_epik_Tot_Q>
1

> <i_epik_Tot_abs_Q>
1

> <r_epik_Metal_State_Penalty>
1.10284

> <b_epik_Metal_Only>
0

> <s_lp_Force_Field>
OPLS_2005

> <r_lp_Energy>
33.8519

> <b_lp_Chiralities_Consistent>
1

> <s_lp_Variant>
AV-unprocessed.smi:2237-5

> <Gold.Version>
5.8.1

> <Gold.Id.Protein>
6NUR|6NUR_protein|mol2

> <Gold.PLP.Fitness>
54.2164

> <Gold.PLP.PLP>
-43.6535

> <Gold.PLP.part.hbond>
-3.0000

> <Gold.PLP.part.metal>
0.0000

> <Gold.PLP.part.buried>
-0.6004

> <Gold.PLP.part.nonpolar>
-41.0397

> <Gold.PLP.part.repulsive>
0.4673

> <Gold.PLP.ligand.clash>
0.0000

> <Gold.PLP.ligand.torsion>
0.7197

> <Gold.PLP.Chemscore.Hbond>
4.0000

> <Gold.PLP.Chemscore.CHOScore>
0.0000

> <Gold.PLP.Chemscore.Metal>
0.0000

> <Gold.Chemscore.Hbonds>
donor molecule, donor type, donor heavy atom, donor atom, acceptor molecule, acceptor atom, score
      L1  H     7    31       P1  8028  1.00
      L1  H    10    32       P1  8028  1.00
      L1  H    18    54       P1  7948  1.90

> <Gold.PLP.Chemscore.Internal.Correction>
0.0022

> <Gold.Rescore>
     Score         DG    S(hbond)    S(metal)    S(lipo)     H(rot)  DE(clash)    DE(int)     intcor
     21.23     -26.76       2.87        0.00     126.52       1.22       2.28       3.24       ----

> <Gold.Chemscore.Fitness>
21.2340

> <Gold.Chemscore.DG>
-26.7554

> <Gold.Chemscore.ZeroCoef>
-5.4800

> <Gold.Chemscore.Hbond>
2.8713

> <Gold.Chemscore.Metal>
0.0000

> <Gold.Chemscore.Lipo>
126.5201

> <Gold.Chemscore.Internal_Hbond>
0.0000

> <Gold.Chemscore.DEClash>
2.2775

> <Gold.Chemscore.DEInternal>
3.2439

> <Gold.Chemscore.Rot>
1.2179

> <Gold.Chemscore.Internal.Correction>
   9.000000E+99

> <Gold.Chemscore.Hbonds>
donor molecule, donor type, donor heavy atom, donor atom, acceptor molecule, acceptor atom, score
      L1  H     7    31       P1  8028  0.99
      L1  H    10    32       P1  8028  0.94
      L1  H    18    54       P1  7948  0.84

> <Gold.Chemscore.Hbond.Weighted>
-9.5902

> <Gold.Chemscore.Metal.Weighted>
-0.0000

> <Gold.Chemscore.Lipo.Weighted>
-14.8029

> <Gold.Chemscore.Internal_Hbond.Weighted>
0.0000

> <Gold.Chemscore.DEClash.Weighted>
2.2775

> <Gold.Chemscore.DEInternal.Weighted>
3.2439

> <Gold.Chemscore.Rot.Weighted>
3.1177

> <Gold.Chemscore.Internal.Correction.Weighted>
   9.000000E+99

> <Gold.Protein.RotatedTorsions>
[ 6907 6896 6895 6894 ] final  111.65 input  -60.11 | X-H torsion
[ 7974 7965 7964 7962 ] final -157.82 input  175.53 | X-H torsion
[ 8008 7997 7996 7995 ] final -113.84 input   59.86 | X-H torsion
[ 10167 10162 10161 10158 ] final   61.70 input  -65.29 | X-H torsion
[ 10718 10713 10712 10709 ] final   42.21 input   66.30 | X-H torsion
[ 10763 10752 10751 10750 ] final  -94.27 input  -60.55 | X-H torsion
[ 11005 11000 10999 10996 ] final   59.88 input  -57.11 | X-H torsion

> <Gold.Protein.ActiveResidues>
 VAL166  LYS551  ARG553  GLY616  TRP617  ASP618  TYR619  PRO620  LYS621  CYS622 
 ASP623  PHE694  ASN695  SER759  ASP760  ASP761  ALA762  ILE779  LEU786  VAL792 
 PHE793  MET794  SER795  GLU796  ALA797  LYS798  CYS799  TRP800  GLU811  SER814 

> <Gold.Protein.RotatedAtoms>
  152.4958  133.8627  159.7258 H   0  0  0  0  0  0  0  0  0  0  0  0  # atno 6907 bound_to 6896
  150.9134  133.6960  159.2856 H   0  0  0  0  0  0  0  0  0  0  0  0  # atno 6908 bound_to 6896
  151.4361  135.1019  159.9709 H   0  0  0  0  0  0  0  0  0  0  0  0  # atno 6909 bound_to 6896
  144.7532  140.3915  143.6032 H   0  0  0  0  0  0  0  0  0  0  0  0  # atno 7974 bound_to 7965
  155.0270  140.0393  157.2459 H   0  0  0  0  0  0  0  0  0  0  0  0  # atno 8008 bound_to 7997
  154.7329  140.2734  155.6417 H   0  0  0  0  0  0  0  0  0  0  0  0  # atno 8009 bound_to 7997
  156.2846  140.2680  156.2034 H   0  0  0  0  0  0  0  0  0  0  0  0  # atno 8010 bound_to 7997
  140.1519  144.4454  150.6754 H   0  0  0  0  0  0  0  0  0  0  0  0  # atno 10167 bound_to 10162
  157.4023  130.7867  149.7359 H   0  0  0  0  0  0  0  0  0  0  0  0  # atno 10718 bound_to 10713
  154.7039  135.5163  153.8567 H   0  0  0  0  0  0  0  0  0  0  0  0  # atno 10763 bound_to 10752
  153.0726  135.6606  154.0224 H   0  0  0  0  0  0  0  0  0  0  0  0  # atno 10764 bound_to 10752
  154.0078  135.3005  155.3375 H   0  0  0  0  0  0  0  0  0  0  0  0  # atno 10765 bound_to 10752
  140.0272  134.6065  155.9557 H   0  0  0  0  0  0  0  0  0  0  0  0  # atno 11005 bound_to 11000
  145.6871  139.1631  143.2668 LP  0  0  0  0  0  0  0  0  0  0  0  0  # atno 17320 bound_to 7965
  146.1509  140.6927  142.9322 LP  0  0  0  0  0  0  0  0  0  0  0  0  # atno 17321 bound_to 7965
  140.6697  143.2281  151.5656 LP  0  0  0  0  0  0  0  0  0  0  0  0  # atno 17342 bound_to 10162
  139.5422  144.2618  152.1372 LP  0  0  0  0  0  0  0  0  0  0  0  0  # atno 17343 bound_to 10162
  155.9826  130.4007  150.3405 LP  0  0  0  0  0  0  0  0  0  0  0  0  # atno 17370 bound_to 10713
  157.1534  131.0326  151.2875 LP  0  0  0  0  0  0  0  0  0  0  0  0  # atno 17371 bound_to 10713
  141.1810  133.6546  156.5019 LP  0  0  0  0  0  0  0  0  0  0  0  0  # atno 17394 bound_to 11000
  140.4286  134.7122  157.4930 LP  0  0  0  0  0  0  0  0  0  0  0  0  # atno 17395 bound_to 11000

$$$$
