AV-unprocessed.smi:2525|AV-procd|sdf|9933|dock8
  -GOLD-   2272013573D 1   1.00000     0.00000
 Structure written by MMmdl.
 44 45  0  0  0  0  0  0  0  0  1 V2000
  146.3513  138.0700  152.5002 C   0  0  0  0  0  0  0  0  0  0  0  0
  147.2777  139.2980  152.4940 C   0  0  0  0  0  0  0  0  0  0  0  0
  147.5057  139.9605  153.8746 C   0  0  0  0  0  0  0  0  0  0  0  0
  148.3051  138.9758  154.7681 C   0  0  0  0  0  0  0  0  0  0  0  0
  147.5150  137.7497  155.2542 C   0  0  0  0  0  0  0  0  0  0  0  0
  148.0040  141.4331  153.7830 C   0  0  2  0  0  0  0  0  0  0  0  0
  148.7950  141.8669  154.9331 N   0  0  0  0  0  0  0  0  0  0  0  0
  150.0069  141.3965  155.2621 C   0  0  0  0  0  0  0  0  0  0  0  0
  150.5840  140.5112  154.6316 O   0  0  0  0  0  0  0  0  0  0  0  0
  150.6649  142.0082  156.5014 C   0  0  0  0  0  0  0  0  0  0  0  0
  151.4627  141.0304  157.2235 N   0  0  0  0  0  0  0  0  0  0  0  0
  151.4621  140.7486  158.5744 C   0  0  0  0  0  0  0  0  0  0  0  0
  152.3791  139.7435  158.6897 C   0  0  0  0  0  0  0  0  0  0  0  0
  152.8919  139.4589  157.4252 N   0  0  0  0  0  0  0  0  0  0  0  0
  152.3363  140.2401  156.5531 N   0  0  0  0  0  0  0  0  0  0  0  0
  146.5477  141.9168  153.8860 C   0  0  2  0  0  0  0  0  0  0  0  0
  146.1967  143.2196  154.6040 C   0  0  0  0  0  0  0  0  0  0  0  0
  146.2113  140.5465  154.5029 C   0  0  2  0  0  0  0  0  0  0  0  0
  146.2684  140.5608  155.9254 O   0  0  0  0  0  0  0  0  0  0  0  0
  145.1206  141.1377  156.5242 C   0  0  0  0  0  0  0  0  0  0  0  0
  146.3488  137.5895  151.5218 H   0  0  0  0  0  0  0  0  0  0  0  0
  145.3199  138.3397  152.7247 H   0  0  0  0  0  0  0  0  0  0  0  0
  146.6718  137.3260  153.2291 H   0  0  0  0  0  0  0  0  0  0  0  0
  148.2327  138.9744  152.0798 H   0  0  0  0  0  0  0  0  0  0  0  0
  146.9075  140.0239  151.7707 H   0  0  0  0  0  0  0  0  0  0  0  0
  149.2151  138.6475  154.2672 H   0  0  0  0  0  0  0  0  0  0  0  0
  148.6631  139.4832  155.6636 H   0  0  0  0  0  0  0  0  0  0  0  0
  148.0992  137.1833  155.9796 H   0  0  0  0  0  0  0  0  0  0  0  0
  147.2741  137.0696  154.4378 H   0  0  0  0  0  0  0  0  0  0  0  0
  146.5837  138.0426  155.7393 H   0  0  0  0  0  0  0  0  0  0  0  0
  148.4501  141.6940  152.8223 H   0  0  0  0  0  0  0  0  0  0  0  0
  148.3907  142.5865  155.5154 H   0  0  0  0  0  0  0  0  0  0  0  0
  151.2952  142.8479  156.2037 H   0  0  0  0  0  0  0  0  0  0  0  0
  149.9016  142.4009  157.1749 H   0  0  0  0  0  0  0  0  0  0  0  0
  150.8383  141.2580  159.2942 H   0  0  0  0  0  0  0  0  0  0  0  0
  152.7077  139.2059  159.5671 H   0  0  0  0  0  0  0  0  0  0  0  0
  146.1329  141.9459  152.8772 H   0  0  0  0  0  0  0  0  0  0  0  0
  146.5101  143.2112  155.6483 H   0  0  0  0  0  0  0  0  0  0  0  0
  145.1222  143.4002  154.5860 H   0  0  0  0  0  0  0  0  0  0  0  0
  146.6795  144.0722  154.1266 H   0  0  0  0  0  0  0  0  0  0  0  0
  145.3027  140.0860  154.1100 H   0  0  0  0  0  0  0  0  0  0  0  0
  145.2415  141.1501  157.6073 H   0  0  0  0  0  0  0  0  0  0  0  0
  144.2267  140.5569  156.2931 H   0  0  0  0  0  0  0  0  0  0  0  0
  144.9643  142.1636  156.1909 H   0  0  0  0  0  0  0  0  0  0  0  0
  1  2  1  0  0  0  0
  1 21  1  0  0  0  0
  1 22  1  0  0  0  0
  1 23  1  0  0  0  0
  2  3  1  0  0  0  0
  2 24  1  0  0  0  0
  2 25  1  0  0  0  0
  3 18  1  0  0  0  0
  3  4  1  0  0  0  0
  3  6  1  0  0  0  0
  4  5  1  0  0  0  0
  4 26  1  0  0  0  0
  4 27  1  0  0  0  0
  5 28  1  0  0  0  0
  5 29  1  0  0  0  0
  5 30  1  0  0  0  0
  6  7  1  0  0  0  0
  6 16  1  0  0  0  0
  6 31  1  0  0  0  0
  7  8  1  0  0  0  0
  7 32  1  0  0  0  0
  8  9  2  0  0  0  0
  8 10  1  0  0  0  0
 10 11  1  0  0  0  0
 10 33  1  0  0  0  0
 10 34  1  0  0  0  0
 11 15  1  0  0  0  0
 11 12  1  0  0  0  0
 12 13  2  0  0  0  0
 12 35  1  0  0  0  0
 13 14  1  0  0  0  0
 13 36  1  0  0  0  0
 14 15  2  0  0  0  0
 16 17  1  0  0  0  0
 16 18  1  0  0  0  0
 16 37  1  0  0  0  0
 17 38  1  0  0  0  0
 17 39  1  0  0  0  0
 17 40  1  0  0  0  0
 18 19  1  0  0  0  0
 18 41  1  0  0  0  0
 19 20  1  0  0  0  0
 20 42  1  0  0  0  0
 20 43  1  0  0  0  0
 20 44  1  0  0  0  0
M  END
> <s_m_source_file>
AV-unprocessed.smi

> <i_m_source_file_index>
2525

> <i_lp_mmshare_version>
43012

> <i_f3d_flags>
0

> <s_epik_input>
W0NIM11PW0NAQEhdMVtDQEhdKFtDSDNdKVtDQEBIXShDMShbQ0gyXVtDSDNdKVtDSDJdW0NIM10pW05IXUMoPU8pW0NIMl1uMltjSF1bY0hdbm4y

> <s_epik_cmdline>
J2VwaWtfcHl0aG9uJywgJy1waCcsICc3LjAnLCAnLXRuJywgJzgnLCAnLW1hJywgJzIwMCcsICctbWV0YWxfYmluZGluZycsICctaW1hZScsICc8aW5maWxlLm1hZT4nLCAnLW9tYWUnLCAnPG91dGZpbGUubWFlPic=

> <r_lp_tautomer_probability>
1

> <r_epik_Ionization_Penalty>
1.18045e-06

> <r_epik_Ionization_Penalty_Charging>
0

> <r_epik_Ionization_Penalty_Neutral>
1.18045e-06

> <r_epik_State_Penalty>
-0

> <r_epik_Charging_Adjusted_Penalty>
0

> <i_epik_Tot_Q>
0

> <i_epik_Tot_abs_Q>
0

> <r_epik_Metal_State_Penalty>
-0

> <b_epik_Metal_Only>
0

> <s_lp_Force_Field>
OPLS_2005

> <r_lp_Energy>
29.0326

> <b_lp_Chiralities_Consistent>
1

> <s_lp_Variant>
AV-unprocessed.smi:2525-8

> <Gold.Version>
5.8.1

> <Gold.Id.Protein>
6NUR|6NUR_protein|mol2

> <Gold.PLP.Fitness>
36.0050

> <Gold.PLP.PLP>
-30.7344

> <Gold.PLP.part.hbond>
-3.8738

> <Gold.PLP.part.metal>
0.0000

> <Gold.PLP.part.buried>
0.4297

> <Gold.PLP.part.nonpolar>
-26.9060

> <Gold.PLP.part.repulsive>
0.3360

> <Gold.PLP.ligand.clash>
0.0018

> <Gold.PLP.ligand.torsion>
0.9414

> <Gold.PLP.Chemscore.Hbond>
2.1728

> <Gold.PLP.Chemscore.CHOScore>
0.0000

> <Gold.PLP.Chemscore.Metal>
0.0000

> <Gold.Chemscore.Hbonds>
donor molecule, donor type, donor heavy atom, donor atom, acceptor molecule, acceptor atom, score
      L1  H     7    32       P1  8028  0.38
      P1  H  7989  7998       L1     9  1.00
      P1  H  7997  8009       L1    14  0.60

> <Gold.PLP.Chemscore.Internal.Correction>
0.6369

> <Gold.Rescore>
     Score         DG    S(hbond)    S(metal)    S(lipo)     H(rot)  DE(clash)    DE(int)     intcor
      6.60     -12.24       1.21        0.00      66.69       1.98       0.49       5.15       ----

> <Gold.Chemscore.Fitness>
6.6014

> <Gold.Chemscore.DG>
-12.2396

> <Gold.Chemscore.ZeroCoef>
-5.4800

> <Gold.Chemscore.Hbond>
1.2066

> <Gold.Chemscore.Metal>
0.0000

> <Gold.Chemscore.Lipo>
66.6890

> <Gold.Chemscore.Internal_Hbond>
0.0000

> <Gold.Chemscore.DEClash>
0.4900

> <Gold.Chemscore.DEInternal>
5.1481

> <Gold.Chemscore.Rot>
1.9817

> <Gold.Chemscore.Internal.Correction>
   9.000000E+99

> <Gold.Chemscore.Hbonds>
donor molecule, donor type, donor heavy atom, donor atom, acceptor molecule, acceptor atom, score
      L1  H     7    32       P1  8028  0.37
      P1  H  7989  7998       L1     9  0.91
      P1  H  7997  8009       L1    14  0.04

> <Gold.Chemscore.Hbond.Weighted>
-4.0300

> <Gold.Chemscore.Metal.Weighted>
-0.0000

> <Gold.Chemscore.Lipo.Weighted>
-7.8026

> <Gold.Chemscore.Internal_Hbond.Weighted>
0.0000

> <Gold.Chemscore.DEClash.Weighted>
0.4900

> <Gold.Chemscore.DEInternal.Weighted>
5.1481

> <Gold.Chemscore.Rot.Weighted>
5.0731

> <Gold.Chemscore.Internal.Correction.Weighted>
   9.000000E+99

> <Gold.Protein.RotatedTorsions>
[ 6907 6896 6895 6894 ] final -108.64 input  -60.11 | X-H torsion
[ 7974 7965 7964 7962 ] final   15.00 input  175.53 | X-H torsion
[ 8008 7997 7996 7995 ] final  155.65 input   59.86 | X-H torsion
[ 10167 10162 10161 10158 ] final    4.66 input  -65.29 | X-H torsion
[ 10718 10713 10712 10709 ] final   55.54 input   66.30 | X-H torsion
[ 10763 10752 10751 10750 ] final   27.55 input  -60.55 | X-H torsion
[ 11005 11000 10999 10996 ] final -170.99 input  -57.11 | X-H torsion

> <Gold.Protein.ActiveResidues>
 VAL166  LYS551  ARG553  GLY616  TRP617  ASP618  TYR619  PRO620  LYS621  CYS622 
 ASP623  PHE694  ASN695  SER759  ASP760  ASP761  ALA762  ILE779  LEU786  VAL792 
 PHE793  MET794  SER795  GLU796  ALA797  LYS798  CYS799  TRP800  GLU811  SER814 

> <Gold.Protein.RotatedAtoms>
  150.7513  133.9648  159.3526 H   0  0  0  0  0  0  0  0  0  0  0  0  # atno 6907 bound_to 6896
  151.7577  135.0815  160.0350 H   0  0  0  0  0  0  0  0  0  0  0  0  # atno 6908 bound_to 6896
  152.3424  133.6045  159.5922 H   0  0  0  0  0  0  0  0  0  0  0  0  # atno 6909 bound_to 6896
  146.2290  139.8959  142.8547 H   0  0  0  0  0  0  0  0  0  0  0  0  # atno 7974 bound_to 7965
  156.2466  140.1933  156.6834 H   0  0  0  0  0  0  0  0  0  0  0  0  # atno 8008 bound_to 7997
  154.6305  140.0596  156.9752 H   0  0  0  0  0  0  0  0  0  0  0  0  # atno 8009 bound_to 7997
  155.1719  140.3269  155.4394 H   0  0  0  0  0  0  0  0  0  0  0  0  # atno 8010 bound_to 7997
  140.6523  143.7514  150.7596 H   0  0  0  0  0  0  0  0  0  0  0  0  # atno 10167 bound_to 10162
  157.5354  130.8659  149.8746 H   0  0  0  0  0  0  0  0  0  0  0  0  # atno 10718 bound_to 10713
  153.0548  135.6534  154.0603 H   0  0  0  0  0  0  0  0  0  0  0  0  # atno 10763 bound_to 10752
  154.0283  135.2914  155.3373 H   0  0  0  0  0  0  0  0  0  0  0  0  # atno 10764 bound_to 10752
  154.6858  135.5302  153.8391 H   0  0  0  0  0  0  0  0  0  0  0  0  # atno 10765 bound_to 10752
  140.5132  134.5781  157.5025 H   0  0  0  0  0  0  0  0  0  0  0  0  # atno 11005 bound_to 11000
  145.2371  140.9995  143.3957 LP  0  0  0  0  0  0  0  0  0  0  0  0  # atno 17320 bound_to 7965
  144.9482  139.4112  143.6415 LP  0  0  0  0  0  0  0  0  0  0  0  0  # atno 17321 bound_to 7965
  140.1167  143.4650  152.2338 LP  0  0  0  0  0  0  0  0  0  0  0  0  # atno 17342 bound_to 10162
  139.5740  144.7478  151.3814 LP  0  0  0  0  0  0  0  0  0  0  0  0  # atno 17343 bound_to 10162
  156.0454  130.3729  150.1330 LP  0  0  0  0  0  0  0  0  0  0  0  0  # atno 17370 bound_to 10713
  156.9512  130.9775  151.3498 LP  0  0  0  0  0  0  0  0  0  0  0  0  # atno 17371 bound_to 10713
  139.9647  134.7393  156.0163 LP  0  0  0  0  0  0  0  0  0  0  0  0  # atno 17394 bound_to 11000
  141.1374  133.6572  156.3632 LP  0  0  0  0  0  0  0  0  0  0  0  0  # atno 17395 bound_to 11000

$$$$
