AV-unprocessed.smi:2772|AV-procd|sdf|10665|dock3
  -GOLD-   2272015113D 1   1.00000     0.00000
 Structure written by MMmdl.
 55 57  0  0  0  0  0  0  0  0  3 V2000
  156.1896  140.2222  160.7775 C   0  0  0  0  0  0  0  0  0  0  0  0
  154.8882  140.6561  160.1363 C   0  0  0  0  0  0  0  0  0  0  0  0
  154.1613  141.7536  160.6421 C   0  0  0  0  0  0  0  0  0  0  0  0
  152.9569  142.1134  160.0073 C   0  0  0  0  0  0  0  0  0  0  0  0
  152.5179  141.3574  158.8936 C   0  0  0  0  0  0  0  0  0  0  0  0
  151.3345  141.6333  158.1572 N   0  0  0  0  0  0  0  0  0  0  0  0
  150.7077  140.8530  157.2603 C   0  0  0  0  0  0  0  0  0  0  0  0
  151.0928  139.7445  156.8894 O   0  0  0  0  0  0  0  0  0  0  0  0
  149.6006  141.4489  156.7940 N   0  0  0  0  0  0  0  0  0  0  0  0
  148.6831  140.8914  155.8035 C   0  0  2  0  0  0  0  0  0  0  0  0
  148.6278  141.8052  154.5648 C   0  0  0  0  0  0  0  0  0  0  0  0
  147.5344  141.3452  153.5806 C   0  0  0  0  0  0  0  0  0  0  0  0
  146.1935  141.2790  154.2306 N   0  3  2  0  0  0  0  0  0  0  0  0
  145.5689  142.6087  154.5548 C   0  0  2  0  0  0  0  0  0  0  0  0
  144.1271  142.4631  155.1055 C   0  0  0  0  0  0  0  0  0  0  0  0
  143.4526  143.8216  155.3624 C   0  0  0  0  0  0  0  0  0  0  0  0
  143.4364  144.6515  154.1363 N   0  3  1  0  0  0  0  0  0  0  0  0
  142.6854  145.9126  154.3177 C   0  0  0  0  0  0  0  0  0  0  0  0
  144.8063  144.8779  153.6222 C   0  0  0  0  0  0  0  0  0  0  0  0
  145.5144  143.5458  153.3213 C   0  0  0  0  0  0  0  0  0  0  0  0
  146.2506  140.3061  155.3596 C   0  0  0  0  0  0  0  0  0  0  0  0
  147.2836  140.7248  156.4235 C   0  0  0  0  0  0  0  0  0  0  0  0
  153.3314  140.2881  158.4633 C   0  0  0  0  0  0  0  0  0  0  0  0
  154.4869  139.9361  159.0666 N   0  0  0  0  0  0  0  0  0  0  0  0
  156.4395  140.8509  161.6326 H   0  0  0  0  0  0  0  0  0  0  0  0
  157.0066  140.2861  160.0583 H   0  0  0  0  0  0  0  0  0  0  0  0
  156.1166  139.1909  161.1238 H   0  0  0  0  0  0  0  0  0  0  0  0
  154.5180  142.3133  161.4942 H   0  0  0  0  0  0  0  0  0  0  0  0
  152.4066  142.9650  160.3759 H   0  0  0  0  0  0  0  0  0  0  0  0
  150.9471  142.5554  158.2941 H   0  0  0  0  0  0  0  0  0  0  0  0
  149.3744  142.3631  157.1575 H   0  0  0  0  0  0  0  0  0  0  0  0
  149.0223  139.9058  155.4789 H   0  0  0  0  0  0  0  0  0  0  0  0
  148.4489  142.8386  154.8636 H   0  0  0  0  0  0  0  0  0  0  0  0
  149.5960  141.8004  154.0628 H   0  0  0  0  0  0  0  0  0  0  0  0
  147.5296  141.9635  152.6856 H   0  0  0  0  0  0  0  0  0  0  0  0
  147.7843  140.3465  153.2193 H   0  0  0  0  0  0  0  0  0  0  0  0
  146.1682  143.1006  155.3210 H   0  0  0  0  0  0  0  0  0  0  0  0
  143.5209  141.8813  154.4096 H   0  0  0  0  0  0  0  0  0  0  0  0
  144.1216  141.9261  156.0527 H   0  0  0  0  0  0  0  0  0  0  0  0
  142.4300  143.6601  155.7063 H   0  0  0  0  0  0  0  0  0  0  0  0
  143.9735  144.3554  156.1592 H   0  0  0  0  0  0  0  0  0  0  0  0
  143.1574  146.5464  155.0699 H   0  0  0  0  0  0  0  0  0  0  0  0
  141.6620  145.7091  154.6347 H   0  0  0  0  0  0  0  0  0  0  0  0
  142.6369  146.4700  153.3817 H   0  0  0  0  0  0  0  0  0  0  0  0
  144.7593  145.4778  152.7123 H   0  0  0  0  0  0  0  0  0  0  0  0
  145.3807  145.4530  154.3506 H   0  0  0  0  0  0  0  0  0  0  0  0
  146.5155  143.7935  152.9718 H   0  0  0  0  0  0  0  0  0  0  0  0
  145.0086  143.0430  152.4956 H   0  0  0  0  0  0  0  0  0  0  0  0
  145.2743  140.1347  155.8078 H   0  0  0  0  0  0  0  0  0  0  0  0
  146.5370  139.3343  154.9547 H   0  0  0  0  0  0  0  0  0  0  0  0
  147.3200  139.9732  157.2129 H   0  0  0  0  0  0  0  0  0  0  0  0
  146.9686  141.6516  156.9044 H   0  0  0  0  0  0  0  0  0  0  0  0
  153.0450  139.6910  157.6098 H   0  0  0  0  0  0  0  0  0  0  0  0
  145.5809  140.8601  153.5451 H   0  0  0  0  0  0  0  0  0  0  0  0
  142.9410  144.1245  153.4311 H   0  0  0  0  0  0  0  0  0  0  0  0
  1  2  1  0  0  0  0
  1 25  1  0  0  0  0
  1 26  1  0  0  0  0
  1 27  1  0  0  0  0
  2 24  1  0  0  0  0
  2  3  2  0  0  0  0
  3  4  1  0  0  0  0
  3 28  1  0  0  0  0
  4  5  2  0  0  0  0
  4 29  1  0  0  0  0
  5  6  1  0  0  0  0
  5 23  1  0  0  0  0
  6  7  1  0  0  0  0
  6 30  1  0  0  0  0
  7  8  2  0  0  0  0
  7  9  1  0  0  0  0
  9 10  1  0  0  0  0
  9 31  1  0  0  0  0
 10 22  1  0  0  0  0
 10 11  1  0  0  0  0
 10 32  1  0  0  0  0
 11 12  1  0  0  0  0
 11 33  1  0  0  0  0
 11 34  1  0  0  0  0
 12 13  1  0  0  0  0
 12 35  1  0  0  0  0
 12 36  1  0  0  0  0
 13 14  1  0  0  0  0
 13 21  1  0  0  0  0
 13 54  1  0  0  0  0
 14 20  1  0  0  0  0
 14 15  1  0  0  0  0
 14 37  1  0  0  0  0
 15 16  1  0  0  0  0
 15 38  1  0  0  0  0
 15 39  1  0  0  0  0
 16 17  1  0  0  0  0
 16 40  1  0  0  0  0
 16 41  1  0  0  0  0
 17 18  1  0  0  0  0
 17 19  1  0  0  0  0
 17 55  1  0  0  0  0
 18 42  1  0  0  0  0
 18 43  1  0  0  0  0
 18 44  1  0  0  0  0
 19 20  1  0  0  0  0
 19 45  1  0  0  0  0
 19 46  1  0  0  0  0
 20 47  1  0  0  0  0
 20 48  1  0  0  0  0
 21 22  1  0  0  0  0
 21 49  1  0  0  0  0
 21 50  1  0  0  0  0
 22 51  1  0  0  0  0
 22 52  1  0  0  0  0
 23 24  2  0  0  0  0
 23 53  1  0  0  0  0
M  CHG  1  13   1
M  CHG  1  17   1
M  END
> <s_m_source_file>
AV-unprocessed.smi

> <i_m_source_file_index>
2772

> <i_lp_mmshare_version>
43012

> <i_f3d_flags>
0

> <s_epik_input>
W0NIM11jMVtjSF1bY0hdYyhbY0hdbjEpW05IXUMoPU8pW05IXVtDSF0yW0NIMl1bQ0gyXU4oW0NIMl1bQ0gyXTIpW0NIXTNbQ0gyXVtDSDJdTihbQ0gzXSlbQ0gyXVtDSDJdMw==

> <s_epik_cmdline>
J2VwaWtfcHl0aG9uJywgJy1waCcsICc3LjAnLCAnLXRuJywgJzgnLCAnLW1hJywgJzIwMCcsICctbWV0YWxfYmluZGluZycsICctaW1hZScsICc8aW5maWxlLm1hZT4nLCAnLW9tYWUnLCAnPG91dGZpbGUubWFlPic=

> <r_epik_Ionization_Penalty>
0.196786

> <r_epik_Ionization_Penalty_Charging>
0.180787

> <r_epik_Ionization_Penalty_Neutral>
0.0159988

> <r_epik_State_Penalty>
0.163322

> <r_epik_Charging_Adjusted_Penalty>
0.344109

> <i_epik_Tot_Q>
2

> <i_epik_Tot_abs_Q>
2

> <r_epik_Metal_State_Penalty>
0.163596

> <b_epik_Metal_Only>
0

> <s_lp_Force_Field>
OPLS_2005

> <r_lp_Energy>
45.3322

> <b_lp_Chiralities_Consistent>
1

> <s_lp_Variant>
AV-unprocessed.smi:2772-2

> <Gold.Version>
5.8.1

> <Gold.Id.Protein>
6NUR|6NUR_protein|mol2

> <Gold.PLP.Fitness>
48.4175

> <Gold.PLP.PLP>
-35.9286

> <Gold.PLP.part.hbond>
-3.0000

> <Gold.PLP.part.metal>
0.0000

> <Gold.PLP.part.buried>
-1.4904

> <Gold.PLP.part.nonpolar>
-32.5015

> <Gold.PLP.part.repulsive>
0.1870

> <Gold.PLP.ligand.clash>
0.0000

> <Gold.PLP.ligand.torsion>
0.0717

> <Gold.PLP.Chemscore.Hbond>
4.1965

> <Gold.PLP.Chemscore.CHOScore>
0.0000

> <Gold.PLP.Chemscore.Metal>
0.0000

> <Gold.Chemscore.Hbonds>
donor molecule, donor type, donor heavy atom, donor atom, acceptor molecule, acceptor atom, score
      L1  H    13    54       P1 10175  1.14
      L1  H    17    55       P1 10174  1.69
      P1  H  7997  8009       L1    24  0.24

> <Gold.PLP.Chemscore.Internal.Correction>
0.0428

> <Gold.Rescore>
     Score         DG    S(hbond)    S(metal)    S(lipo)     H(rot)  DE(clash)    DE(int)     intcor
     19.13     -20.83       1.90        0.00     103.49       1.21       0.24       1.47       ----

> <Gold.Chemscore.Fitness>
19.1258

> <Gold.Chemscore.DG>
-20.8345

> <Gold.Chemscore.ZeroCoef>
-5.4800

> <Gold.Chemscore.Hbond>
1.8988

> <Gold.Chemscore.Metal>
0.0000

> <Gold.Chemscore.Lipo>
103.4878

> <Gold.Chemscore.Internal_Hbond>
0.0000

> <Gold.Chemscore.DEClash>
0.2354

> <Gold.Chemscore.DEInternal>
1.4733

> <Gold.Chemscore.Rot>
1.2092

> <Gold.Chemscore.Internal.Correction>
   9.000000E+99

> <Gold.Chemscore.Hbonds>
donor molecule, donor type, donor heavy atom, donor atom, acceptor molecule, acceptor atom, score
      L1  H    13    54       P1 10175  0.43
      L1  H    17    55       P1 10174  0.81

> <Gold.Chemscore.Hbond.Weighted>
-6.3419

> <Gold.Chemscore.Metal.Weighted>
-0.0000

> <Gold.Chemscore.Lipo.Weighted>
-12.1081

> <Gold.Chemscore.Internal_Hbond.Weighted>
0.0000

> <Gold.Chemscore.DEClash.Weighted>
0.2354

> <Gold.Chemscore.DEInternal.Weighted>
1.4733

> <Gold.Chemscore.Rot.Weighted>
3.0955

> <Gold.Chemscore.Internal.Correction.Weighted>
   9.000000E+99

> <Gold.Protein.RotatedTorsions>
[ 6907 6896 6895 6894 ] final  130.97 input  -60.11 | X-H torsion
[ 7974 7965 7964 7962 ] final   97.72 input  175.53 | X-H torsion
[ 8008 7997 7996 7995 ] final  112.18 input   59.86 | X-H torsion
[ 10167 10162 10161 10158 ] final  -90.33 input  -65.29 | X-H torsion
[ 10718 10713 10712 10709 ] final  -89.23 input   66.30 | X-H torsion
[ 10763 10752 10751 10750 ] final   84.94 input  -60.55 | X-H torsion
[ 11005 11000 10999 10996 ] final  -52.07 input  -57.11 | X-H torsion

> <Gold.Protein.ActiveResidues>
 VAL166  LYS551  ARG553  GLY616  TRP617  ASP618  TYR619  PRO620  LYS621  CYS622 
 ASP623  PHE694  ASN695  SER759  ASP760  ASP761  ALA762  ILE779  LEU786  VAL792 
 PHE793  MET794  SER795  GLU796  ALA797  LYS798  CYS799  TRP800  GLU811  SER814 

> <Gold.Protein.RotatedAtoms>
  152.3473  133.6138  159.5919 H   0  0  0  0  0  0  0  0  0  0  0  0  # atno 6907 bound_to 6896
  150.7516  133.9629  159.3530 H   0  0  0  0  0  0  0  0  0  0  0  0  # atno 6908 bound_to 6896
  151.7485  135.0839  160.0378 H   0  0  0  0  0  0  0  0  0  0  0  0  # atno 6909 bound_to 6896
  145.4217  139.2320  143.3192 H   0  0  0  0  0  0  0  0  0  0  0  0  # atno 7974 bound_to 7965
  156.2175  140.3004  155.9873 H   0  0  0  0  0  0  0  0  0  0  0  0  # atno 8008 bound_to 7997
  155.2568  140.0428  157.3010 H   0  0  0  0  0  0  0  0  0  0  0  0  # atno 8009 bound_to 7997
  154.5790  140.2369  155.8090 H   0  0  0  0  0  0  0  0  0  0  0  0  # atno 8010 bound_to 7997
  140.3560  143.2866  151.9671 H   0  0  0  0  0  0  0  0  0  0  0  0  # atno 10167 bound_to 10162
  155.9984  130.4865  150.5140 H   0  0  0  0  0  0  0  0  0  0  0  0  # atno 10718 bound_to 10713
  153.1429  135.4635  154.9522 H   0  0  0  0  0  0  0  0  0  0  0  0  # atno 10763 bound_to 10752
  154.7762  135.3174  154.8090 H   0  0  0  0  0  0  0  0  0  0  0  0  # atno 10764 bound_to 10752
  153.8609  135.6912  153.4837 H   0  0  0  0  0  0  0  0  0  0  0  0  # atno 10765 bound_to 10752
  141.0905  133.6634  156.3970 H   0  0  0  0  0  0  0  0  0  0  0  0  # atno 11005 bound_to 11000
  146.2653  140.4942  142.8836 LP  0  0  0  0  0  0  0  0  0  0  0  0  # atno 17320 bound_to 7965
  144.8241  140.6599  143.6334 LP  0  0  0  0  0  0  0  0  0  0  0  0  # atno 17321 bound_to 7965
  139.4820  144.6035  151.7563 LP  0  0  0  0  0  0  0  0  0  0  0  0  # atno 17342 bound_to 10162
  140.5173  144.0932  150.6012 LP  0  0  0  0  0  0  0  0  0  0  0  0  # atno 17343 bound_to 10162
  157.3109  131.0663  151.2001 LP  0  0  0  0  0  0  0  0  0  0  0  0  # atno 17370 bound_to 10713
  157.2948  130.6813  149.6133 LP  0  0  0  0  0  0  0  0  0  0  0  0  # atno 17371 bound_to 10713
  140.5263  134.6255  157.5335 LP  0  0  0  0  0  0  0  0  0  0  0  0  # atno 17394 bound_to 11000
  139.9730  134.7262  156.0004 LP  0  0  0  0  0  0  0  0  0  0  0  0  # atno 17395 bound_to 11000

$$$$
