AV-unprocessed.smi:492|AV-procd|sdf|2708|dock6
  -GOLD-   2262023153D 1   1.00000     0.00000
 Structure written by MMmdl.
 46 48  0  0  0  0  0  0  0  0  1 V2000
  143.6367  143.3126  158.0399 C   0  0  0  0  0  0  0  0  0  0  0  0
  144.6448  142.3836  158.4110 O   0  0  0  0  0  0  0  0  0  0  0  0
  145.5378  141.9745  157.4438 C   0  0  0  0  0  0  0  0  0  0  0  0
  145.4959  142.3953  156.0906 C   0  0  0  0  0  0  0  0  0  0  0  0
  146.4505  141.9261  155.1670 C   0  0  0  0  0  0  0  0  0  0  0  0
  147.4634  141.0369  155.5788 C   0  0  0  0  0  0  0  0  0  0  0  0
  148.4782  140.5202  154.5766 C   0  0  0  0  0  0  0  0  0  0  0  0
  149.3907  139.6121  155.1703 O   0  0  0  0  0  0  0  0  0  0  0  0
  150.6999  139.7037  154.6322 C   0  0  0  0  0  0  0  0  0  0  0  0
  151.6649  140.2334  155.7049 C   0  0  2  0  0  0  0  0  0  0  0  0
  152.9908  140.1000  155.2324 O   0  0  0  0  0  0  0  0  0  0  0  0
  151.4753  139.5699  157.0855 C   0  0  0  0  0  0  0  0  0  0  0  0
  152.2905  140.1841  158.1235 N   0  0  0  0  0  0  0  0  0  0  0  0
  153.2941  139.6235  158.8417 C   0  0  0  0  0  0  0  0  0  0  0  0
  153.7182  138.2044  158.6318 C   0  0  0  0  0  0  0  0  0  0  0  0
  153.8787  140.4153  159.7409 N   0  0  0  0  0  0  0  0  0  0  0  0
  153.1904  141.6040  159.5900 C   0  0  0  0  0  0  0  0  0  0  0  0
  153.3354  142.8410  160.2583 C   0  0  0  0  0  0  0  0  0  0  0  0
  152.5063  143.9328  159.9271 C   0  0  0  0  0  0  0  0  0  0  0  0
  151.5213  143.8042  158.9266 C   0  0  0  0  0  0  0  0  0  0  0  0
  151.3591  142.5805  158.2496 C   0  0  0  0  0  0  0  0  0  0  0  0
  152.1901  141.4938  158.5830 C   0  0  0  0  0  0  0  0  0  0  0  0
  147.5036  140.6077  156.9211 C   0  0  0  0  0  0  0  0  0  0  0  0
  146.5491  141.0772  157.8436 C   0  0  0  0  0  0  0  0  0  0  0  0
  143.0150  143.5336  158.9075 H   0  0  0  0  0  0  0  0  0  0  0  0
  142.9863  142.9074  157.2636 H   0  0  0  0  0  0  0  0  0  0  0  0
  144.0685  144.2534  157.6958 H   0  0  0  0  0  0  0  0  0  0  0  0
  144.7393  143.0775  155.7346 H   0  0  0  0  0  0  0  0  0  0  0  0
  146.4014  142.2539  154.1388 H   0  0  0  0  0  0  0  0  0  0  0  0
  147.9397  140.0304  153.7640 H   0  0  0  0  0  0  0  0  0  0  0  0
  149.0262  141.3602  154.1467 H   0  0  0  0  0  0  0  0  0  0  0  0
  151.0350  138.7354  154.2564 H   0  0  0  0  0  0  0  0  0  0  0  0
  150.6876  140.3919  153.7856 H   0  0  0  0  0  0  0  0  0  0  0  0
  151.4923  141.3047  155.8062 H   0  0  0  0  0  0  0  0  0  0  0  0
  153.1941  139.1793  155.1705 H   0  0  0  0  0  0  0  0  0  0  0  0
  150.4278  139.6111  157.3847 H   0  0  0  0  0  0  0  0  0  0  0  0
  151.7320  138.5112  157.0396 H   0  0  0  0  0  0  0  0  0  0  0  0
  154.5328  137.9456  159.3090 H   0  0  0  0  0  0  0  0  0  0  0  0
  154.0655  138.0607  157.6087 H   0  0  0  0  0  0  0  0  0  0  0  0
  152.8870  137.5264  158.8233 H   0  0  0  0  0  0  0  0  0  0  0  0
  154.0862  142.9498  161.0267 H   0  0  0  0  0  0  0  0  0  0  0  0
  152.6259  144.8736  160.4440 H   0  0  0  0  0  0  0  0  0  0  0  0
  150.8898  144.6450  158.6797 H   0  0  0  0  0  0  0  0  0  0  0  0
  150.6042  142.4785  157.4842 H   0  0  0  0  0  0  0  0  0  0  0  0
  148.2660  139.9168  157.2501 H   0  0  0  0  0  0  0  0  0  0  0  0
  146.5930  140.7430  158.8699 H   0  0  0  0  0  0  0  0  0  0  0  0
  1  2  1  0  0  0  0
  1 25  1  0  0  0  0
  1 26  1  0  0  0  0
  1 27  1  0  0  0  0
  2  3  1  0  0  0  0
  3 24  1  0  0  0  0
  3  4  2  0  0  0  0
  4  5  1  0  0  0  0
  4 28  1  0  0  0  0
  5  6  2  0  0  0  0
  5 29  1  0  0  0  0
  6  7  1  0  0  0  0
  6 23  1  0  0  0  0
  7  8  1  0  0  0  0
  7 30  1  0  0  0  0
  7 31  1  0  0  0  0
  8  9  1  0  0  0  0
  9 10  1  0  0  0  0
  9 32  1  0  0  0  0
  9 33  1  0  0  0  0
 10 11  1  0  0  0  0
 10 12  1  0  0  0  0
 10 34  1  0  0  0  0
 11 35  1  0  0  0  0
 12 13  1  0  0  0  0
 12 36  1  0  0  0  0
 12 37  1  0  0  0  0
 13 22  1  0  0  0  0
 13 14  1  0  0  0  0
 14 15  1  0  0  0  0
 14 16  2  0  0  0  0
 15 38  1  0  0  0  0
 15 39  1  0  0  0  0
 15 40  1  0  0  0  0
 16 17  1  0  0  0  0
 17 22  2  0  0  0  0
 17 18  1  0  0  0  0
 18 19  2  0  0  0  0
 18 41  1  0  0  0  0
 19 20  1  0  0  0  0
 19 42  1  0  0  0  0
 20 21  2  0  0  0  0
 20 43  1  0  0  0  0
 21 22  1  0  0  0  0
 21 44  1  0  0  0  0
 23 24  2  0  0  0  0
 23 45  1  0  0  0  0
 24 46  1  0  0  0  0
M  END
> <s_m_source_file>
AV-unprocessed.smi

> <i_m_source_file_index>
492

> <i_lp_mmshare_version>
43012

> <i_f3d_flags>
0

> <s_epik_input>
W0NIM11PYzFbY0hdW2NIXWMoW2NIXVtjSF0xKVtDSDJdT1tDSDJdW0NASF0oW09IXSlbQ0gyXW4oYyhuMilbQ0gzXSljKGMyMylbY0hdW2NIXVtjSF1bY0hdMw==

> <s_epik_cmdline>
J2VwaWtfcHl0aG9uJywgJy1waCcsICc3LjAnLCAnLXRuJywgJzgnLCAnLW1hJywgJzIwMCcsICctbWV0YWxfYmluZGluZycsICctaW1hZScsICc8aW5maWxlLm1hZT4nLCAnLW9tYWUnLCAnPG91dGZpbGUubWFlPic=

> <r_lp_tautomer_probability>
1

> <r_epik_Ionization_Penalty>
0.132603

> <r_epik_Ionization_Penalty_Charging>
0

> <r_epik_Ionization_Penalty_Neutral>
0.132603

> <r_epik_State_Penalty>
0.121982

> <r_epik_Charging_Adjusted_Penalty>
0.121982

> <i_epik_Tot_Q>
0

> <i_epik_Tot_abs_Q>
0

> <r_epik_Metal_State_Penalty>
0.000135431

> <b_epik_Metal_Only>
0

> <s_lp_Force_Field>
OPLS_2005

> <r_lp_Energy>
19.0412

> <b_lp_Chiralities_Consistent>
1

> <s_lp_Variant>
AV-unprocessed.smi:492-1

> <Gold.Version>
5.8.1

> <Gold.Id.Protein>
6NUR|6NUR_protein|mol2

> <Gold.PLP.Fitness>
54.2023

> <Gold.PLP.PLP>
-52.5253

> <Gold.PLP.part.hbond>
-1.0000

> <Gold.PLP.part.metal>
0.0000

> <Gold.PLP.part.buried>
-7.1252

> <Gold.PLP.part.nonpolar>
-44.5657

> <Gold.PLP.part.repulsive>
0.1820

> <Gold.PLP.ligand.clash>
0.0000

> <Gold.PLP.ligand.torsion>
0.7115

> <Gold.PLP.Chemscore.Hbond>
1.0000

> <Gold.PLP.Chemscore.CHOScore>
0.0000

> <Gold.PLP.Chemscore.Metal>
0.0000

> <Gold.Chemscore.Hbonds>
donor molecule, donor type, donor heavy atom, donor atom, acceptor molecule, acceptor atom, score
      P1  H  7997  8010       L1    11  0.15

> <Gold.PLP.Chemscore.Internal.Correction>
0.1000

> <Gold.Rescore>
     Score         DG    S(hbond)    S(metal)    S(lipo)     H(rot)  DE(clash)    DE(int)     intcor
     17.35     -18.64       0.99        0.00     136.65       2.40       0.04       1.24       ----

> <Gold.Chemscore.Fitness>
17.3518

> <Gold.Chemscore.DG>
-18.6353

> <Gold.Chemscore.ZeroCoef>
-5.4800

> <Gold.Chemscore.Hbond>
0.9908

> <Gold.Chemscore.Metal>
0.0000

> <Gold.Chemscore.Lipo>
136.6470

> <Gold.Chemscore.Internal_Hbond>
0.0000

> <Gold.Chemscore.DEClash>
0.0388

> <Gold.Chemscore.DEInternal>
1.2446

> <Gold.Chemscore.Rot>
2.3991

> <Gold.Chemscore.Internal.Correction>
   9.000000E+99

> <Gold.Chemscore.Hbond.Weighted>
-3.3093

> <Gold.Chemscore.Metal.Weighted>
-0.0000

> <Gold.Chemscore.Lipo.Weighted>
-15.9877

> <Gold.Chemscore.Internal_Hbond.Weighted>
0.0000

> <Gold.Chemscore.DEClash.Weighted>
0.0388

> <Gold.Chemscore.DEInternal.Weighted>
1.2446

> <Gold.Chemscore.Rot.Weighted>
6.1417

> <Gold.Chemscore.Internal.Correction.Weighted>
   9.000000E+99

> <Gold.Protein.RotatedTorsions>
[ 6907 6896 6895 6894 ] final -111.42 input  -60.11 | X-H torsion
[ 7974 7965 7964 7962 ] final  -27.79 input  175.53 | X-H torsion
[ 8008 7997 7996 7995 ] final   74.48 input   59.86 | X-H torsion
[ 10167 10162 10161 10158 ] final  -15.89 input  -65.29 | X-H torsion
[ 10718 10713 10712 10709 ] final  -14.09 input   66.30 | X-H torsion
[ 10763 10752 10751 10750 ] final   -3.91 input  -60.55 | X-H torsion
[ 11005 11000 10999 10996 ] final  -11.62 input  -57.11 | X-H torsion

> <Gold.Protein.ActiveResidues>
 VAL166  LYS551  ARG553  GLY616  TRP617  ASP618  TYR619  PRO620  LYS621  CYS622 
 ASP623  PHE694  ASN695  SER759  ASP760  ASP761  ALA762  ILE779  LEU786  VAL792 
 PHE793  MET794  SER795  GLU796  ALA797  LYS798  CYS799  TRP800  GLU811  SER814 

> <Gold.Protein.RotatedAtoms>
  150.7689  133.9237  159.3405 H   0  0  0  0  0  0  0  0  0  0  0  0  # atno 6907 bound_to 6896
  151.7128  135.0907  160.0280 H   0  0  0  0  0  0  0  0  0  0  0  0  # atno 6908 bound_to 6896
  152.3698  133.6366  159.6114 H   0  0  0  0  0  0  0  0  0  0  0  0  # atno 6909 bound_to 6896
  146.1333  140.5198  142.8684 H   0  0  0  0  0  0  0  0  0  0  0  0  # atno 7974 bound_to 7965
  155.7990  140.3477  155.5392 H   0  0  0  0  0  0  0  0  0  0  0  0  # atno 8008 bound_to 7997
  155.8557  140.0963  157.1666 H   0  0  0  0  0  0  0  0  0  0  0  0  # atno 8009 bound_to 7997
  154.4009  140.1368  156.3887 H   0  0  0  0  0  0  0  0  0  0  0  0  # atno 8010 bound_to 7997
  140.7225  143.5172  150.9677 H   0  0  0  0  0  0  0  0  0  0  0  0  # atno 10167 bound_to 10162
  156.6210  130.4875  149.6165 H   0  0  0  0  0  0  0  0  0  0  0  0  # atno 10718 bound_to 10713
  153.3777  135.6997  153.6589 H   0  0  0  0  0  0  0  0  0  0  0  0  # atno 10763 bound_to 10752
  153.5213  135.3611  155.2634 H   0  0  0  0  0  0  0  0  0  0  0  0  # atno 10764 bound_to 10752
  154.8689  135.4158  154.3068 H   0  0  0  0  0  0  0  0  0  0  0  0  # atno 10765 bound_to 10752
  140.7571  133.8545  155.9093 H   0  0  0  0  0  0  0  0  0  0  0  0  # atno 11005 bound_to 11000
  144.7713  140.5644  143.6668 LP  0  0  0  0  0  0  0  0  0  0  0  0  # atno 17320 bound_to 7965
  145.5212  139.1476  143.3551 LP  0  0  0  0  0  0  0  0  0  0  0  0  # atno 17321 bound_to 7965
  139.8888  143.6979  152.3148 LP  0  0  0  0  0  0  0  0  0  0  0  0  # atno 17342 bound_to 10162
  139.7288  144.7587  151.0836 LP  0  0  0  0  0  0  0  0  0  0  0  0  # atno 17343 bound_to 10162
  156.2312  130.6795  151.1465 LP  0  0  0  0  0  0  0  0  0  0  0  0  # atno 17370 bound_to 10713
  157.7228  131.0670  150.6064 LP  0  0  0  0  0  0  0  0  0  0  0  0  # atno 17371 bound_to 10713
  140.9697  134.1547  157.4586 LP  0  0  0  0  0  0  0  0  0  0  0  0  # atno 17394 bound_to 11000
  139.8777  134.9974  156.5846 LP  0  0  0  0  0  0  0  0  0  0  0  0  # atno 17395 bound_to 11000

$$$$
