AV-unprocessed.smi:212|AV-procd|sdf|1617|dock6
  -GOLD-   2262019543D 1   1.00000     0.00000
 Structure written by MMmdl.
 65 68  0  0  0  0  0  0  0  0  2 V2000
  149.6018  132.2001  155.1357 C   0  0  0  0  0  0  0  0  0  0  0  0
  148.2353  132.7379  154.6689 C   0  0  2  0  0  0  0  0  0  0  0  0
  148.1290  132.8203  153.1322 C   0  0  0  0  0  0  0  0  0  0  0  0
  146.7775  133.2765  152.7187 N   0  3  2  0  0  0  0  0  0  0  0  0
  146.5760  133.2554  151.2455 C   0  0  0  0  0  0  0  0  0  0  0  0
  145.8727  131.9659  150.7610 C   0  0  0  0  0  0  0  0  0  0  0  0
  144.4279  131.9221  151.2859 C   0  0  0  0  0  0  0  0  0  0  0  0
  145.8862  131.8331  149.2268 C   0  0  0  0  0  0  0  0  0  0  0  0
  146.5346  130.8440  151.3108 O   0  0  0  0  0  0  0  0  0  0  0  0
  146.4025  134.5711  153.3442 C   0  0  0  0  0  0  0  0  0  0  0  0
  146.5462  134.5183  154.8790 C   0  0  0  0  0  0  0  0  0  0  0  0
  147.8509  134.0080  155.2935 N   0  0  0  0  0  0  0  0  0  0  0  0
  148.8104  134.9495  155.4556 C   0  0  0  0  0  0  0  0  0  0  0  0
  149.8097  135.0752  154.5442 N   0  0  0  0  0  0  0  0  0  0  0  0
  150.7598  135.9992  154.7185 C   0  0  0  0  0  0  0  0  0  0  0  0
  150.8966  136.8789  155.7134 N   0  0  0  0  0  0  0  0  0  0  0  0
  149.8939  136.7515  156.6294 C   0  0  0  0  0  0  0  0  0  0  0  0
  148.8195  135.8209  156.5757 C   0  0  0  0  0  0  0  0  0  0  0  0
  147.9919  135.9805  157.6792 N   0  0  0  0  0  0  0  0  0  0  0  0
  148.5461  136.9534  158.3504 C   0  0  0  0  0  0  0  0  0  0  0  0
  149.6891  137.4779  157.7894 N   0  0  0  0  0  0  0  0  0  0  0  0
  150.5018  138.5544  158.3296 C   0  0  0  0  0  0  0  0  0  0  0  0
  150.5762  139.7934  157.4021 C   0  0  2  0  0  0  0  0  0  0  0  0
  151.5046  139.5241  156.1895 C   0  0  0  0  0  0  0  0  0  0  0  0
  151.2357  140.4011  155.1160 O   0  0  0  0  0  0  0  0  0  0  0  0
  151.0123  141.0491  158.2075 C   0  0  2  0  0  0  0  0  0  0  0  0
  151.0699  142.3387  157.4042 C   0  0  0  0  0  0  0  0  0  0  0  0
  151.9262  143.2392  158.2871 C   0  0  0  0  0  0  0  0  0  0  0  0
  152.8324  142.3714  158.9563 O   0  0  0  0  0  0  0  0  0  0  0  0
  152.4427  141.0162  158.7592 C   0  0  0  0  0  0  0  0  0  0  0  0
  149.7840  131.2037  154.7329 H   0  0  0  0  0  0  0  0  0  0  0  0
  149.6443  132.1249  156.2228 H   0  0  0  0  0  0  0  0  0  0  0  0
  150.4245  132.8379  154.8103 H   0  0  0  0  0  0  0  0  0  0  0  0
  147.4916  132.0137  155.0045 H   0  0  0  0  0  0  0  0  0  0  0  0
  148.8845  133.4945  152.7261 H   0  0  0  0  0  0  0  0  0  0  0  0
  148.3208  131.8355  152.7040 H   0  0  0  0  0  0  0  0  0  0  0  0
  146.0177  134.1381  150.9287 H   0  0  0  0  0  0  0  0  0  0  0  0
  147.5407  133.3298  150.7406 H   0  0  0  0  0  0  0  0  0  0  0  0
  143.8442  132.7601  150.9037 H   0  0  0  0  0  0  0  0  0  0  0  0
  144.3972  131.9708  152.3751 H   0  0  0  0  0  0  0  0  0  0  0  0
  143.9201  131.0051  150.9842 H   0  0  0  0  0  0  0  0  0  0  0  0
  145.3920  132.6831  148.7548 H   0  0  0  0  0  0  0  0  0  0  0  0
  145.3666  130.9305  148.9025 H   0  0  0  0  0  0  0  0  0  0  0  0
  146.9009  131.7810  148.8315 H   0  0  0  0  0  0  0  0  0  0  0  0
  147.3938  130.7795  150.9210 H   0  0  0  0  0  0  0  0  0  0  0  0
  147.0270  135.3641  152.9317 H   0  0  0  0  0  0  0  0  0  0  0  0
  145.3742  134.8243  153.0863 H   0  0  0  0  0  0  0  0  0  0  0  0
  146.3703  135.5056  155.3088 H   0  0  0  0  0  0  0  0  0  0  0  0
  145.7812  133.8620  155.2954 H   0  0  0  0  0  0  0  0  0  0  0  0
  151.5202  136.0383  153.9525 H   0  0  0  0  0  0  0  0  0  0  0  0
  148.1332  137.3199  159.2793 H   0  0  0  0  0  0  0  0  0  0  0  0
  150.0733  138.8172  159.2963 H   0  0  0  0  0  0  0  0  0  0  0  0
  151.5044  138.1746  158.5298 H   0  0  0  0  0  0  0  0  0  0  0  0
  149.5685  139.9679  157.0210 H   0  0  0  0  0  0  0  0  0  0  0  0
  152.5527  139.6090  156.4781 H   0  0  0  0  0  0  0  0  0  0  0  0
  151.3706  138.5174  155.7963 H   0  0  0  0  0  0  0  0  0  0  0  0
  150.4066  140.8262  155.2750 H   0  0  0  0  0  0  0  0  0  0  0  0
  150.3243  141.1983  159.0414 H   0  0  0  0  0  0  0  0  0  0  0  0
  151.5673  142.1699  156.4477 H   0  0  0  0  0  0  0  0  0  0  0  0
  150.0888  142.7722  157.2084 H   0  0  0  0  0  0  0  0  0  0  0  0
  152.4526  144.0043  157.7164 H   0  0  0  0  0  0  0  0  0  0  0  0
  151.3081  143.7381  159.0345 H   0  0  0  0  0  0  0  0  0  0  0  0
  152.5188  140.4543  159.6904 H   0  0  0  0  0  0  0  0  0  0  0  0
  153.1260  140.5684  158.0362 H   0  0  0  0  0  0  0  0  0  0  0  0
  146.1354  132.5911  153.0902 H   0  0  0  0  0  0  0  0  0  0  0  0
  1  2  1  0  0  0  0
  1 31  1  0  0  0  0
  1 32  1  0  0  0  0
  1 33  1  0  0  0  0
  2 12  1  0  0  0  0
  2  3  1  0  0  0  0
  2 34  1  0  0  0  0
  3  4  1  0  0  0  0
  3 35  1  0  0  0  0
  3 36  1  0  0  0  0
  4  5  1  0  0  0  0
  4 10  1  0  0  0  0
  4 65  1  0  0  0  0
  5  6  1  0  0  0  0
  5 37  1  0  0  0  0
  5 38  1  0  0  0  0
  6  7  1  0  0  0  0
  6  8  1  0  0  0  0
  6  9  1  0  0  0  0
  7 39  1  0  0  0  0
  7 40  1  0  0  0  0
  7 41  1  0  0  0  0
  8 42  1  0  0  0  0
  8 43  1  0  0  0  0
  8 44  1  0  0  0  0
  9 45  1  0  0  0  0
 10 11  1  0  0  0  0
 10 46  1  0  0  0  0
 10 47  1  0  0  0  0
 11 12  1  0  0  0  0
 11 48  1  0  0  0  0
 11 49  1  0  0  0  0
 12 13  1  0  0  0  0
 13 18  1  0  0  0  0
 13 14  2  0  0  0  0
 14 15  1  0  0  0  0
 15 16  2  0  0  0  0
 15 50  1  0  0  0  0
 16 17  1  0  0  0  0
 17 21  1  0  0  0  0
 17 18  2  0  0  0  0
 18 19  1  0  0  0  0
 19 20  2  0  0  0  0
 20 21  1  0  0  0  0
 20 51  1  0  0  0  0
 21 22  1  0  0  0  0
 22 23  1  0  0  0  0
 22 52  1  0  0  0  0
 22 53  1  0  0  0  0
 23 24  1  0  0  0  0
 23 26  1  0  0  0  0
 23 54  1  0  0  0  0
 24 25  1  0  0  0  0
 24 55  1  0  0  0  0
 24 56  1  0  0  0  0
 25 57  1  0  0  0  0
 26 30  1  0  0  0  0
 26 27  1  0  0  0  0
 26 58  1  0  0  0  0
 27 28  1  0  0  0  0
 27 59  1  0  0  0  0
 27 60  1  0  0  0  0
 28 29  1  0  0  0  0
 28 61  1  0  0  0  0
 28 62  1  0  0  0  0
 29 30  1  0  0  0  0
 30 63  1  0  0  0  0
 30 64  1  0  0  0  0
M  CHG  1   4   1
M  END
> <s_m_source_file>
AV-unprocessed.smi

> <i_m_source_file_index>
212

> <i_lp_mmshare_version>
43012

> <i_f3d_flags>
0

> <s_epik_input>
W0NIM11bQ0BASF0xW0NIMl1OKFtDSDJdQyhbQ0gzXSkoW0NIM10pW09IXSlbQ0gyXVtDSDJdTjFjKG5bY0hdbjIpYyhjMjMpbltjSF1uM1tDSDJdW0NASF0oW0NIMl1bT0hdKVtDQEBIXTRbQ0gyXVtDSDJdT1tDSDJdNA==

> <s_epik_cmdline>
J2VwaWtfcHl0aG9uJywgJy1waCcsICc3LjAnLCAnLXRuJywgJzgnLCAnLW1hJywgJzIwMCcsICctbWV0YWxfYmluZGluZycsICctaW1hZScsICc8aW5maWxlLm1hZT4nLCAnLW9tYWUnLCAnPG91dGZpbGUubWFlPic=

> <r_lp_tautomer_probability>
1

> <r_epik_Ionization_Penalty>
0.00182193

> <r_epik_Ionization_Penalty_Charging>
0.00173996

> <r_epik_Ionization_Penalty_Neutral>
8.19718e-05

> <r_epik_State_Penalty>
-0

> <r_epik_Charging_Adjusted_Penalty>
0.00173996

> <i_epik_Tot_Q>
1

> <i_epik_Tot_abs_Q>
1

> <r_epik_Metal_State_Penalty>
-0

> <b_epik_Metal_Only>
0

> <s_lp_Force_Field>
OPLS_2005

> <r_lp_Energy>
60.482

> <b_lp_Chiralities_Consistent>
1

> <s_lp_Variant>
AV-unprocessed.smi:212-1

> <Gold.Version>
5.8.1

> <Gold.Id.Protein>
6NUR|6NUR_protein|mol2

> <Gold.PLP.Fitness>
47.3857

> <Gold.PLP.PLP>
-40.4666

> <Gold.PLP.part.hbond>
-2.0000

> <Gold.PLP.part.metal>
0.0000

> <Gold.PLP.part.buried>
-7.3350

> <Gold.PLP.part.nonpolar>
-32.7279

> <Gold.PLP.part.repulsive>
1.1386

> <Gold.PLP.ligand.clash>
0.0000

> <Gold.PLP.ligand.torsion>
1.4960

> <Gold.PLP.Chemscore.Hbond>
2.0000

> <Gold.PLP.Chemscore.CHOScore>
0.9427

> <Gold.PLP.Chemscore.Metal>
0.0000

> <Gold.Chemscore.Hbonds>
donor molecule, donor type, donor heavy atom, donor atom, acceptor molecule, acceptor atom, score
      L1  H     9    45       P1 10747  1.00
      P1  H  7989  7998       L1    25  1.00
      L1  C    15    50       P1  7949  0.94

> <Gold.PLP.Chemscore.Internal.Correction>
1.0831

> <Gold.Rescore>
     Score         DG    S(hbond)    S(metal)    S(lipo)     H(rot)  DE(clash)    DE(int)     intcor
     10.53     -14.87       1.95        0.00     105.01       3.68       0.13       4.20       ----

> <Gold.Chemscore.Fitness>
10.5336

> <Gold.Chemscore.DG>
-14.8672

> <Gold.Chemscore.ZeroCoef>
-5.4800

> <Gold.Chemscore.Hbond>
1.9536

> <Gold.Chemscore.Metal>
0.0000

> <Gold.Chemscore.Lipo>
105.0109

> <Gold.Chemscore.Internal_Hbond>
0.0000

> <Gold.Chemscore.DEClash>
0.1312

> <Gold.Chemscore.DEInternal>
4.2025

> <Gold.Chemscore.Rot>
3.6812

> <Gold.Chemscore.Internal.Correction>
   9.000000E+99

> <Gold.Chemscore.Hbonds>
donor molecule, donor type, donor heavy atom, donor atom, acceptor molecule, acceptor atom, score
      L1  H     9    45       P1 10747  1.00
      P1  H  7989  7998       L1    25  0.42

> <Gold.Chemscore.Hbond.Weighted>
-6.5249

> <Gold.Chemscore.Metal.Weighted>
-0.0000

> <Gold.Chemscore.Lipo.Weighted>
-12.2863

> <Gold.Chemscore.Internal_Hbond.Weighted>
0.0000

> <Gold.Chemscore.DEClash.Weighted>
0.1312

> <Gold.Chemscore.DEInternal.Weighted>
4.2025

> <Gold.Chemscore.Rot.Weighted>
9.4239

> <Gold.Chemscore.Internal.Correction.Weighted>
   9.000000E+99

> <Gold.Protein.RotatedTorsions>
[ 6907 6896 6895 6894 ] final   88.32 input  -60.11 | X-H torsion
[ 7974 7965 7964 7962 ] final  -60.61 input  175.53 | X-H torsion
[ 8008 7997 7996 7995 ] final  -74.95 input   59.86 | X-H torsion
[ 10167 10162 10161 10158 ] final  -52.06 input  -65.29 | X-H torsion
[ 10718 10713 10712 10709 ] final   36.62 input   66.30 | X-H torsion
[ 10763 10752 10751 10750 ] final   -3.67 input  -60.55 | X-H torsion
[ 11005 11000 10999 10996 ] final  115.80 input  -57.11 | X-H torsion

> <Gold.Protein.ActiveResidues>
 VAL166  LYS551  ARG553  GLY616  TRP617  ASP618  TYR619  PRO620  LYS621  CYS622 
 ASP623  PHE694  ASN695  SER759  ASP760  ASP761  ALA762  ILE779  LEU786  VAL792 
 PHE793  MET794  SER795  GLU796  ALA797  LYS798  CYS799  TRP800  GLU811  SER814 

> <Gold.Protein.RotatedAtoms>
  152.5423  134.2139  159.8760 H   0  0  0  0  0  0  0  0  0  0  0  0  # atno 6907 bound_to 6896
  151.2120  133.4544  159.2606 H   0  0  0  0  0  0  0  0  0  0  0  0  # atno 6908 bound_to 6896
  151.0887  134.9916  159.8448 H   0  0  0  0  0  0  0  0  0  0  0  0  # atno 6909 bound_to 6896
  145.8135  140.8584  143.0170 H   0  0  0  0  0  0  0  0  0  0  0  0  # atno 7974 bound_to 7965
  154.5374  140.0752  156.8452 H   0  0  0  0  0  0  0  0  0  0  0  0  # atno 8008 bound_to 7997
  155.3249  140.3398  155.4222 H   0  0  0  0  0  0  0  0  0  0  0  0  # atno 8009 bound_to 7997
  156.1842  140.1663  156.8204 H   0  0  0  0  0  0  0  0  0  0  0  0  # atno 8010 bound_to 7997
  140.6556  143.2597  151.4594 H   0  0  0  0  0  0  0  0  0  0  0  0  # atno 10167 bound_to 10162
  157.3370  130.7528  149.6886 H   0  0  0  0  0  0  0  0  0  0  0  0  # atno 10718 bound_to 10713
  153.3745  135.6996  153.6612 H   0  0  0  0  0  0  0  0  0  0  0  0  # atno 10763 bound_to 10752
  153.5249  135.3604  155.2649 H   0  0  0  0  0  0  0  0  0  0  0  0  # atno 10764 bound_to 10752
  154.8685  135.4166  154.3030 H   0  0  0  0  0  0  0  0  0  0  0  0  # atno 10765 bound_to 10752
  139.9021  134.9589  156.7101 H   0  0  0  0  0  0  0  0  0  0  0  0  # atno 11005 bound_to 11000
  144.6755  140.0429  143.7480 LP  0  0  0  0  0  0  0  0  0  0  0  0  # atno 17320 bound_to 7965
  145.9752  139.2899  143.1075 LP  0  0  0  0  0  0  0  0  0  0  0  0  # atno 17321 bound_to 7965
  139.5779  144.1777  152.1928 LP  0  0  0  0  0  0  0  0  0  0  0  0  # atno 17342 bound_to 10162
  140.1093  144.5471  150.6935 LP  0  0  0  0  0  0  0  0  0  0  0  0  # atno 17343 bound_to 10162
  155.9703  130.4178  150.4299 LP  0  0  0  0  0  0  0  0  0  0  0  0  # atno 17370 bound_to 10713
  157.2341  131.0510  151.2475 LP  0  0  0  0  0  0  0  0  0  0  0  0  # atno 17371 bound_to 10713
  140.7083  133.9246  155.8068 LP  0  0  0  0  0  0  0  0  0  0  0  0  # atno 17394 bound_to 11000
  141.0320  134.0743  157.4003 LP  0  0  0  0  0  0  0  0  0  0  0  0  # atno 17395 bound_to 11000

$$$$
