AV-unprocessed.smi:876|AV-procd|sdf|4022|dock7
  -GOLD-   22720 1513D 1   1.00000     0.00000
 Structure written by MMmdl.
 41 42  0  0  0  0  0  0  0  0  2 V2000
  151.5906  141.8951  158.6044 C   0  0  0  0  0  0  0  0  0  0  0  0
  151.0313  142.3616  157.3423 N   0  0  0  0  0  0  0  0  0  0  0  0
  151.0442  143.7823  157.0113 C   0  0  0  0  0  0  0  0  0  0  0  0
  150.5180  141.4296  156.4144 C   0  0  0  0  0  0  0  0  0  0  0  0
  151.1469  140.1932  156.1275 C   0  0  0  0  0  0  0  0  0  0  0  0
  150.5745  139.3125  155.1866 C   0  0  0  0  0  0  0  0  0  0  0  0
  149.3657  139.6689  154.5398 C   0  0  0  0  0  0  0  0  0  0  0  0
  148.7100  138.8678  153.5655 N   0  0  0  0  0  0  0  0  0  0  0  0
  147.4154  138.8726  153.2035 C   0  0  0  0  0  0  0  0  0  0  0  0
  146.5494  139.6174  153.6619 O   0  0  0  0  0  0  0  0  0  0  0  0
  147.1750  137.9598  152.2518 N   0  0  0  0  0  0  0  0  0  0  0  0
  145.8717  137.7134  151.6448 C   0  0  1  0  0  0  0  0  0  0  0  0
  146.0050  136.7926  150.4630 C   0  0  0  0  0  0  0  0  0  0  0  0
  145.2240  135.7190  150.5574 C   0  0  0  0  0  0  0  0  0  0  0  0
  144.4115  135.6965  151.8272 C   0  0  1  0  0  0  0  0  0  0  0  0
  144.5858  134.3946  152.6285 C   0  0  0  0  0  0  0  0  0  0  0  0
  143.5768  134.2751  153.6096 O   0  0  0  0  0  0  0  0  0  0  0  0
  144.9031  136.9534  152.5895 C   0  0  0  0  0  0  0  0  0  0  0  0
  148.7872  140.9152  154.8526 C   0  0  0  0  0  0  0  0  0  0  0  0
  149.3695  141.7285  155.7595 N   0  3  0  0  0  0  0  0  0  0  0  0
  145.4283  138.6496  151.3013 H   0  0  0  0  0  0  0  0  0  0  0  0
  143.3626  135.8239  151.5558 H   0  0  0  0  0  0  0  0  0  0  0  0
  152.4425  141.2381  158.4264 H   0  0  0  0  0  0  0  0  0  0  0  0
  150.8411  141.3485  159.1775 H   0  0  0  0  0  0  0  0  0  0  0  0
  151.9346  142.7282  159.2178 H   0  0  0  0  0  0  0  0  0  0  0  0
  150.0309  144.1437  156.8325 H   0  0  0  0  0  0  0  0  0  0  0  0
  151.6400  143.9614  156.1156 H   0  0  0  0  0  0  0  0  0  0  0  0
  151.4716  144.3751  157.8203 H   0  0  0  0  0  0  0  0  0  0  0  0
  152.0675  139.9036  156.6116 H   0  0  0  0  0  0  0  0  0  0  0  0
  151.0861  138.3869  154.9737 H   0  0  0  0  0  0  0  0  0  0  0  0
  149.3098  138.2442  153.0455 H   0  0  0  0  0  0  0  0  0  0  0  0
  147.9430  137.3916  151.9259 H   0  0  0  0  0  0  0  0  0  0  0  0
  146.6588  137.0127  149.6317 H   0  0  0  0  0  0  0  0  0  0  0  0
  145.1512  134.9381  149.8147 H   0  0  0  0  0  0  0  0  0  0  0  0
  144.5523  133.5250  151.9712 H   0  0  0  0  0  0  0  0  0  0  0  0
  145.5549  134.3857  153.1281 H   0  0  0  0  0  0  0  0  0  0  0  0
  143.3058  133.3707  153.6529 H   0  0  0  0  0  0  0  0  0  0  0  0
  145.4077  136.6647  153.5132 H   0  0  0  0  0  0  0  0  0  0  0  0
  144.0647  137.5877  152.8793 H   0  0  0  0  0  0  0  0  0  0  0  0
  147.8743  141.2868  154.4096 H   0  0  0  0  0  0  0  0  0  0  0  0
  148.9183  142.6205  155.9626 H   0  0  0  0  0  0  0  0  0  0  0  0
  1  2  1  0  0  0  0
  1 23  1  0  0  0  0
  1 24  1  0  0  0  0
  1 25  1  0  0  0  0
  2  3  1  0  0  0  0
  2  4  1  0  0  0  0
  3 26  1  0  0  0  0
  3 27  1  0  0  0  0
  3 28  1  0  0  0  0
  4 20  1  0  0  0  0
  4  5  2  0  0  0  0
  5  6  1  0  0  0  0
  5 29  1  0  0  0  0
  6  7  2  0  0  0  0
  6 30  1  0  0  0  0
  7  8  1  0  0  0  0
  7 19  1  0  0  0  0
  8  9  1  0  0  0  0
  8 31  1  0  0  0  0
  9 10  2  0  0  0  0
  9 11  1  0  0  0  0
 11 12  1  0  0  0  0
 11 32  1  0  0  0  0
 12 21  1  0  0  0  0
 12 18  1  0  0  0  0
 12 13  1  0  0  0  0
 13 14  2  0  0  0  0
 13 33  1  0  0  0  0
 14 15  1  0  0  0  0
 14 34  1  0  0  0  0
 15 22  1  0  0  0  0
 15 16  1  0  0  0  0
 15 18  1  0  0  0  0
 16 17  1  0  0  0  0
 16 35  1  0  0  0  0
 16 36  1  0  0  0  0
 17 37  1  0  0  0  0
 18 38  1  0  0  0  0
 18 39  1  0  0  0  0
 19 20  2  0  0  0  0
 19 40  1  0  0  0  0
 20 41  1  0  0  0  0
M  CHG  1  20   1
M  END
> <s_m_source_file>
AV-unprocessed.smi

> <i_m_source_file_index>
876

> <i_lp_mmshare_version>
43012

> <i_f3d_flags>
0

> <s_epik_input>
W0NIM11OKFtDSDNdKWMxW2NIXVtjSF1jKFtjSF1uMSlbTkhdQyg9TylbTkhdW0NAQEhdMltDSF09W0NIXVtDQEBIXShbQ0gyXTIpW0NIMl1bT0hd

> <s_epik_cmdline>
J2VwaWtfcHl0aG9uJywgJy1waCcsICc3LjAnLCAnLXRuJywgJzgnLCAnLW1hJywgJzIwMCcsICctbWV0YWxfYmluZGluZycsICctaW1hZScsICc8aW5maWxlLm1hZT4nLCAnLW9tYWUnLCAnPG91dGZpbGUubWFlPic=

> <r_lp_tautomer_probability>
0.999994

> <r_epik_Ionization_Penalty>
0.257994

> <r_epik_Ionization_Penalty_Charging>
0.257974

> <r_epik_Ionization_Penalty_Neutral>
1.95938e-05

> <r_epik_State_Penalty>
0.249586

> <r_epik_Charging_Adjusted_Penalty>
0.50756

> <i_epik_Tot_Q>
1

> <i_epik_Tot_abs_Q>
1

> <r_epik_Metal_State_Penalty>
0.538508

> <b_epik_Metal_Only>
0

> <s_lp_Force_Field>
OPLS_2005

> <r_lp_Energy>
25.8864

> <b_lp_Chiralities_Consistent>
1

> <s_lp_Variant>
AV-unprocessed.smi:876-4

> <Gold.Version>
5.8.1

> <Gold.Id.Protein>
6NUR|6NUR_protein|mol2

> <Gold.PLP.Fitness>
46.8534

> <Gold.PLP.PLP>
-36.4132

> <Gold.PLP.part.hbond>
-4.5803

> <Gold.PLP.part.metal>
0.0000

> <Gold.PLP.part.buried>
3.2052

> <Gold.PLP.part.nonpolar>
-35.2977

> <Gold.PLP.part.repulsive>
0.4849

> <Gold.PLP.ligand.clash>
0.0000

> <Gold.PLP.ligand.torsion>
1.0461

> <Gold.PLP.Chemscore.Hbond>
4.1711

> <Gold.PLP.Chemscore.CHOScore>
0.0000

> <Gold.PLP.Chemscore.Metal>
0.0000

> <Gold.Chemscore.Hbonds>
donor molecule, donor type, donor heavy atom, donor atom, acceptor molecule, acceptor atom, score
      L1  H     8    31       P1  7948  0.18
      L1  H    11    32       P1  7948  0.96
      L1  H    17    37       P1 10957  0.92
      L1  H    20    41       P1  8028  1.50

> <Gold.PLP.Chemscore.Internal.Correction>
0.0192

> <Gold.Rescore>
     Score         DG    S(hbond)    S(metal)    S(lipo)     H(rot)  DE(clash)    DE(int)     intcor
     15.63     -20.42       2.95        0.00      83.45       1.82       2.38       2.41       ----

> <Gold.Chemscore.Fitness>
15.6280

> <Gold.Chemscore.DG>
-20.4243

> <Gold.Chemscore.ZeroCoef>
-5.4800

> <Gold.Chemscore.Hbond>
2.9458

> <Gold.Chemscore.Metal>
0.0000

> <Gold.Chemscore.Lipo>
83.4509

> <Gold.Chemscore.Internal_Hbond>
0.0000

> <Gold.Chemscore.DEClash>
2.3832

> <Gold.Chemscore.DEInternal>
2.4130

> <Gold.Chemscore.Rot>
1.8197

> <Gold.Chemscore.Internal.Correction>
   9.000000E+99

> <Gold.Chemscore.Hbonds>
donor molecule, donor type, donor heavy atom, donor atom, acceptor molecule, acceptor atom, score
      L1  H     8    31       P1  7948  0.18
      L1  H    11    32       P1  7948  0.91
      L1  H    17    37       P1 10957  0.83
      L1  H    20    41       P1  8028  0.71

> <Gold.Chemscore.Hbond.Weighted>
-9.8390

> <Gold.Chemscore.Metal.Weighted>
-0.0000

> <Gold.Chemscore.Lipo.Weighted>
-9.7638

> <Gold.Chemscore.Internal_Hbond.Weighted>
0.0000

> <Gold.Chemscore.DEClash.Weighted>
2.3832

> <Gold.Chemscore.DEInternal.Weighted>
2.4130

> <Gold.Chemscore.Rot.Weighted>
4.6585

> <Gold.Chemscore.Internal.Correction.Weighted>
   9.000000E+99

> <Gold.Protein.RotatedTorsions>
[ 6907 6896 6895 6894 ] final   94.30 input  -60.11 | X-H torsion
[ 7974 7965 7964 7962 ] final -174.77 input  175.53 | X-H torsion
[ 8008 7997 7996 7995 ] final  142.35 input   59.86 | X-H torsion
[ 10167 10162 10161 10158 ] final  169.55 input  -65.29 | X-H torsion
[ 10718 10713 10712 10709 ] final  -46.39 input   66.30 | X-H torsion
[ 10763 10752 10751 10750 ] final -114.76 input  -60.55 | X-H torsion
[ 11005 11000 10999 10996 ] final -131.31 input  -57.11 | X-H torsion

> <Gold.Protein.ActiveResidues>
 VAL166  LYS551  ARG553  GLY616  TRP617  ASP618  TYR619  PRO620  LYS621  CYS622 
 ASP623  PHE694  ASN695  SER759  ASP760  ASP761  ALA762  ILE779  LEU786  VAL792 
 PHE793  MET794  SER795  GLU796  ALA797  LYS798  CYS799  TRP800  GLU811  SER814 

> <Gold.Protein.RotatedAtoms>
  152.5450  134.1215  159.8400 H   0  0  0  0  0  0  0  0  0  0  0  0  # atno 6907 bound_to 6896
  151.1270  133.5056  159.2607 H   0  0  0  0  0  0  0  0  0  0  0  0  # atno 6908 bound_to 6896
  151.1716  135.0330  159.8809 H   0  0  0  0  0  0  0  0  0  0  0  0  # atno 6909 bound_to 6896
  144.7130  140.1421  143.6391 H   0  0  0  0  0  0  0  0  0  0  0  0  # atno 7974 bound_to 7965
  156.2951  140.2291  156.4713 H   0  0  0  0  0  0  0  0  0  0  0  0  # atno 8008 bound_to 7997
  154.7932  140.0453  157.1238 H   0  0  0  0  0  0  0  0  0  0  0  0  # atno 8009 bound_to 7997
  154.9620  140.3055  155.5030 H   0  0  0  0  0  0  0  0  0  0  0  0  # atno 8010 bound_to 7997
  139.4995  144.3693  151.9741 H   0  0  0  0  0  0  0  0  0  0  0  0  # atno 10167 bound_to 10162
  156.2188  130.4165  149.9020 H   0  0  0  0  0  0  0  0  0  0  0  0  # atno 10718 bound_to 10713
  154.8453  135.4406  154.1556 H   0  0  0  0  0  0  0  0  0  0  0  0  # atno 10763 bound_to 10752
  153.2706  135.6945  153.7491 H   0  0  0  0  0  0  0  0  0  0  0  0  # atno 10764 bound_to 10752
  153.6733  135.3415  155.3134 H   0  0  0  0  0  0  0  0  0  0  0  0  # atno 10765 bound_to 10752
  140.9270  134.1369  157.4267 H   0  0  0  0  0  0  0  0  0  0  0  0  # atno 11005 bound_to 11000
  145.9192  139.2535  143.1391 LP  0  0  0  0  0  0  0  0  0  0  0  0  # atno 17320 bound_to 7965
  145.9637  140.8815  143.0198 LP  0  0  0  0  0  0  0  0  0  0  0  0  # atno 17321 bound_to 7965
  140.3129  144.3517  150.6029 LP  0  0  0  0  0  0  0  0  0  0  0  0  # atno 17342 bound_to 10162
  140.5784  143.2174  151.7473 LP  0  0  0  0  0  0  0  0  0  0  0  0  # atno 17343 bound_to 10162
  156.6673  130.8806  151.3557 LP  0  0  0  0  0  0  0  0  0  0  0  0  # atno 17370 bound_to 10713
  157.7077  130.9404  150.0984 LP  0  0  0  0  0  0  0  0  0  0  0  0  # atno 17371 bound_to 10713
  139.8787  134.9992  156.5940 LP  0  0  0  0  0  0  0  0  0  0  0  0  # atno 17394 bound_to 11000
  140.7913  133.8580  155.8648 LP  0  0  0  0  0  0  0  0  0  0  0  0  # atno 17395 bound_to 11000

$$$$
