AV-unprocessed.smi:2828|AV-procd|sdf|10897|dock1
  -GOLD-   2272015343D 1   1.00000     0.00000
 Structure written by MMmdl.
 38 39  0  0  0  0  0  0  0  0  1 V2000
  144.9378  136.5345  161.6265 C   0  0  0  0  0  0  0  0  0  0  0  0
  145.8619  135.3472  161.3542 C   0  0  0  0  0  0  0  0  0  0  0  0
  144.9941  134.1200  161.1089 C   0  0  0  0  0  0  0  0  0  0  0  0
  147.1727  135.4621  160.5770 C   0  0  0  0  0  0  0  0  0  0  0  0
  147.5816  136.7807  160.0036 C   0  0  0  0  0  0  0  0  0  0  0  0
  146.8591  137.7765  160.0458 O   0  0  0  0  0  0  0  0  0  0  0  0
  148.7678  136.7615  159.3765 N   0  0  0  0  0  0  0  0  0  0  0  0
  149.3806  137.9049  158.7106 C   0  0  0  0  0  0  0  0  0  0  0  0
  150.6609  137.5053  157.9601 C   0  0  0  0  0  0  0  0  0  0  0  0
  150.7220  138.0888  156.5884 C   0  0  0  0  0  0  0  0  0  0  0  0
  150.0728  137.6666  155.5059 N   0  0  0  0  0  0  0  0  0  0  0  0
  150.4636  138.5933  154.5906 C   0  0  0  0  0  0  0  0  0  0  0  0
  150.0181  138.5331  153.2599 N   0  0  0  0  0  0  0  0  0  0  0  0
  151.2769  139.5426  155.0339 N   0  0  0  0  0  0  0  0  0  0  0  0
  151.4467  139.2157  156.3872 O   0  0  0  0  0  0  0  0  0  0  0  0
  147.2002  135.2294  162.0851 C   0  0  0  0  0  0  0  0  0  0  0  0
  147.6445  136.3049  163.0768 C   0  0  0  0  0  0  0  0  0  0  0  0
  147.6933  133.8809  162.5923 C   0  0  0  0  0  0  0  0  0  0  0  0
  144.2484  136.6754  160.7934 H   0  0  0  0  0  0  0  0  0  0  0  0
  145.4791  137.4688  161.7604 H   0  0  0  0  0  0  0  0  0  0  0  0
  144.3527  136.3545  162.5288 H   0  0  0  0  0  0  0  0  0  0  0  0
  145.5855  133.2684  160.7751 H   0  0  0  0  0  0  0  0  0  0  0  0
  144.2543  134.3254  160.3346 H   0  0  0  0  0  0  0  0  0  0  0  0
  144.4700  133.8388  162.0228 H   0  0  0  0  0  0  0  0  0  0  0  0
  147.4066  134.6155  159.9338 H   0  0  0  0  0  0  0  0  0  0  0  0
  149.2860  135.8948  159.3678 H   0  0  0  0  0  0  0  0  0  0  0  0
  148.6652  138.3672  158.0281 H   0  0  0  0  0  0  0  0  0  0  0  0
  149.6129  138.6528  159.4692 H   0  0  0  0  0  0  0  0  0  0  0  0
  151.5405  137.8318  158.5160 H   0  0  0  0  0  0  0  0  0  0  0  0
  150.7301  136.4201  157.8759 H   0  0  0  0  0  0  0  0  0  0  0  0
  149.3967  137.7949  152.9624 H   0  0  0  0  0  0  0  0  0  0  0  0
  150.3094  139.2326  152.5924 H   0  0  0  0  0  0  0  0  0  0  0  0
  148.7225  136.2547  163.2323 H   0  0  0  0  0  0  0  0  0  0  0  0
  147.1522  136.1534  164.0378 H   0  0  0  0  0  0  0  0  0  0  0  0
  147.4148  137.3125  162.7356 H   0  0  0  0  0  0  0  0  0  0  0  0
  148.7630  133.9187  162.8000 H   0  0  0  0  0  0  0  0  0  0  0  0
  147.5332  133.0926  161.8579 H   0  0  0  0  0  0  0  0  0  0  0  0
  147.1712  133.6086  163.5101 H   0  0  0  0  0  0  0  0  0  0  0  0
  1  2  1  0  0  0  0
  1 19  1  0  0  0  0
  1 20  1  0  0  0  0
  1 21  1  0  0  0  0
  2 16  1  0  0  0  0
  2  3  1  0  0  0  0
  2  4  1  0  0  0  0
  3 22  1  0  0  0  0
  3 23  1  0  0  0  0
  3 24  1  0  0  0  0
  4  5  1  0  0  0  0
  4 16  1  0  0  0  0
  4 25  1  0  0  0  0
  5  6  2  0  0  0  0
  5  7  1  0  0  0  0
  7  8  1  0  0  0  0
  7 26  1  0  0  0  0
  8  9  1  0  0  0  0
  8 27  1  0  0  0  0
  8 28  1  0  0  0  0
  9 10  1  0  0  0  0
  9 29  1  0  0  0  0
  9 30  1  0  0  0  0
 10 15  1  0  0  0  0
 10 11  2  0  0  0  0
 11 12  1  0  0  0  0
 12 13  1  0  0  0  0
 12 14  2  0  0  0  0
 13 31  1  0  0  0  0
 13 32  1  0  0  0  0
 14 15  1  0  0  0  0
 16 17  1  0  0  0  0
 16 18  1  0  0  0  0
 17 33  1  0  0  0  0
 17 34  1  0  0  0  0
 17 35  1  0  0  0  0
 18 36  1  0  0  0  0
 18 37  1  0  0  0  0
 18 38  1  0  0  0  0
M  END
> <s_m_source_file>
AV-unprocessed.smi

> <i_m_source_file_index>
2828

> <i_lp_mmshare_version>
43012

> <i_f3d_flags>
0

> <s_epik_input>
W0NIM11DMShbQ0gzXSlbQ0hdKEMxKFtDSDNdKVtDSDNdKUMoPU8pW05IXVtDSDJdW0NIMl1jMm5jKFtOSDJdKW5vMg==

> <s_epik_cmdline>
J2VwaWtfcHl0aG9uJywgJy1waCcsICc3LjAnLCAnLXRuJywgJzgnLCAnLW1hJywgJzIwMCcsICctbWV0YWxfYmluZGluZycsICctaW1hZScsICc8aW5maWxlLm1hZT4nLCAnLW9tYWUnLCAnPG91dGZpbGUubWFlPic=

> <r_lp_tautomer_probability>
1

> <r_epik_Ionization_Penalty>
9.99855e-05

> <r_epik_Ionization_Penalty_Charging>
0

> <r_epik_Ionization_Penalty_Neutral>
9.99855e-05

> <r_epik_State_Penalty>
-0

> <r_epik_Charging_Adjusted_Penalty>
0

> <i_epik_Tot_Q>
0

> <i_epik_Tot_abs_Q>
0

> <r_epik_Metal_State_Penalty>
-0

> <b_epik_Metal_Only>
0

> <s_lp_Force_Field>
OPLS_2005

> <r_lp_Energy>
20.4222

> <b_lp_Chiralities_Consistent>
1

> <s_lp_Variant>
AV-unprocessed.smi:2828-1

> <Gold.Version>
5.8.1

> <Gold.Id.Protein>
6NUR|6NUR_protein|mol2

> <Gold.PLP.Fitness>
36.7446

> <Gold.PLP.PLP>
-26.8849

> <Gold.PLP.part.hbond>
-3.7892

> <Gold.PLP.part.metal>
0.0000

> <Gold.PLP.part.buried>
-4.5492

> <Gold.PLP.part.nonpolar>
-17.9721

> <Gold.PLP.part.repulsive>
0.4249

> <Gold.PLP.ligand.clash>
0.0000

> <Gold.PLP.ligand.torsion>
0.8069

> <Gold.PLP.Chemscore.Hbond>
3.7600

> <Gold.PLP.Chemscore.CHOScore>
0.0000

> <Gold.PLP.Chemscore.Metal>
0.0000

> <Gold.Chemscore.Hbonds>
donor molecule, donor type, donor heavy atom, donor atom, acceptor molecule, acceptor atom, score
      L1  H    13    31       P1  7948  1.00
      L1  H    13    32       P1  7957  0.75
      P1  H  6934  6947       L1     6  1.00
      P1  H  7989  7998       L1    14  0.93

> <Gold.PLP.Chemscore.Internal.Correction>
0.1936

> <Gold.Rescore>
     Score         DG    S(hbond)    S(metal)    S(lipo)     H(rot)  DE(clash)    DE(int)     intcor
     15.45     -17.79       3.54        0.00      53.99       2.28       0.08       2.27       ----

> <Gold.Chemscore.Fitness>
15.4484

> <Gold.Chemscore.DG>
-17.7921

> <Gold.Chemscore.ZeroCoef>
-5.4800

> <Gold.Chemscore.Hbond>
3.5426

> <Gold.Chemscore.Metal>
0.0000

> <Gold.Chemscore.Lipo>
53.9886

> <Gold.Chemscore.Internal_Hbond>
0.0000

> <Gold.Chemscore.DEClash>
0.0775

> <Gold.Chemscore.DEInternal>
2.2662

> <Gold.Chemscore.Rot>
2.2801

> <Gold.Chemscore.Internal.Correction>
   9.000000E+99

> <Gold.Chemscore.Hbonds>
donor molecule, donor type, donor heavy atom, donor atom, acceptor molecule, acceptor atom, score
      L1  H    13    31       P1  7948  0.88
      L1  H    13    32       P1  7957  0.41
      P1  H  6934  6947       L1     6  0.93
      P1  H  7989  7998       L1    14  0.62

> <Gold.Chemscore.Hbond.Weighted>
-11.8325

> <Gold.Chemscore.Metal.Weighted>
-0.0000

> <Gold.Chemscore.Lipo.Weighted>
-6.3167

> <Gold.Chemscore.Internal_Hbond.Weighted>
0.0000

> <Gold.Chemscore.DEClash.Weighted>
0.0775

> <Gold.Chemscore.DEInternal.Weighted>
2.2662

> <Gold.Chemscore.Rot.Weighted>
5.8370

> <Gold.Chemscore.Internal.Correction.Weighted>
   9.000000E+99

> <Gold.Protein.RotatedTorsions>
[ 6907 6896 6895 6894 ] final  162.42 input  -60.11 | X-H torsion
[ 7974 7965 7964 7962 ] final  -31.57 input  175.53 | X-H torsion
[ 8008 7997 7996 7995 ] final -163.51 input   59.86 | X-H torsion
[ 10167 10162 10161 10158 ] final -155.82 input  -65.29 | X-H torsion
[ 10718 10713 10712 10709 ] final  -63.60 input   66.30 | X-H torsion
[ 10763 10752 10751 10750 ] final  105.59 input  -60.55 | X-H torsion
[ 11005 11000 10999 10996 ] final   54.02 input  -57.11 | X-H torsion

> <Gold.Protein.ActiveResidues>
 VAL166  LYS551  ARG553  GLY616  TRP617  ASP618  TYR619  PRO620  LYS621  CYS622 
 ASP623  PHE694  ASN695  SER759  ASP760  ASP761  ALA762  ILE779  LEU786  VAL792 
 PHE793  MET794  SER795  GLU796  ALA797  LYS798  CYS799  TRP800  GLU811  SER814 

> <Gold.Protein.RotatedAtoms>
  151.9406  133.3637  159.3963 H   0  0  0  0  0  0  0  0  0  0  0  0  # atno 6907 bound_to 6896
  150.6999  134.4443  159.5316 H   0  0  0  0  0  0  0  0  0  0  0  0  # atno 6908 bound_to 6896
  152.2099  134.8511  160.0549 H   0  0  0  0  0  0  0  0  0  0  0  0  # atno 6909 bound_to 6896
  146.1057  140.5684  142.8801 H   0  0  0  0  0  0  0  0  0  0  0  0  # atno 7974 bound_to 7965
  155.8223  140.0921  157.1841 H   0  0  0  0  0  0  0  0  0  0  0  0  # atno 8008 bound_to 7997
  154.3979  140.1434  156.3575 H   0  0  0  0  0  0  0  0  0  0  0  0  # atno 8009 bound_to 7997
  155.8253  140.3445  155.5541 H   0  0  0  0  0  0  0  0  0  0  0  0  # atno 8010 bound_to 7997
  139.6900  143.9436  152.2380 H   0  0  0  0  0  0  0  0  0  0  0  0  # atno 10167 bound_to 10162
  156.0780  130.4223  150.1301 H   0  0  0  0  0  0  0  0  0  0  0  0  # atno 10718 bound_to 10713
  153.3815  135.3905  155.1860 H   0  0  0  0  0  0  0  0  0  0  0  0  # atno 10763 bound_to 10752
  154.8708  135.3726  154.4852 H   0  0  0  0  0  0  0  0  0  0  0  0  # atno 10764 bound_to 10752
  153.5329  135.7085  153.5735 H   0  0  0  0  0  0  0  0  0  0  0  0  # atno 10765 bound_to 10752
  140.0720  134.5456  155.9036 H   0  0  0  0  0  0  0  0  0  0  0  0  # atno 11005 bound_to 11000
  144.7469  140.5090  143.6829 LP  0  0  0  0  0  0  0  0  0  0  0  0  # atno 17320 bound_to 7965
  145.5766  139.1486  143.3259 LP  0  0  0  0  0  0  0  0  0  0  0  0  # atno 17321 bound_to 7965
  139.9250  144.6776  150.8422 LP  0  0  0  0  0  0  0  0  0  0  0  0  # atno 17342 bound_to 10162
  140.7680  143.3348  151.2332 LP  0  0  0  0  0  0  0  0  0  0  0  0  # atno 17343 bound_to 10162
  156.9338  130.9722  151.3528 LP  0  0  0  0  0  0  0  0  0  0  0  0  # atno 17370 bound_to 10713
  157.5885  130.8427  149.8624 LP  0  0  0  0  0  0  0  0  0  0  0  0  # atno 17371 bound_to 10713
  141.2015  133.6619  156.5956 LP  0  0  0  0  0  0  0  0  0  0  0  0  # atno 17394 bound_to 11000
  140.3613  134.7685  157.4536 LP  0  0  0  0  0  0  0  0  0  0  0  0  # atno 17395 bound_to 11000

$$$$
