AV-unprocessed.smi:249|AV-procd|sdf|1913|dock7
  -GOLD-   2262021 03D 1   1.00000     0.00000
 Structure written by MMmdl.
 64 67  0  0  0  0  0  0  0  0  2 V2000
  143.7409  133.0808  150.8178 C   0  0  0  0  0  0  0  0  0  0  0  0
  144.6518  131.8492  150.7038 C   0  0  0  0  0  0  0  0  0  0  0  0
  145.4823  131.6155  151.9160 N   0  3  1  0  0  0  0  0  0  0  0  0
  146.5005  130.5522  151.7009 C   0  0  0  0  0  0  0  0  0  0  0  0
  147.1845  130.1539  153.0181 C   0  0  0  0  0  0  0  0  0  0  0  0
  147.8091  131.3836  153.7053 C   0  0  2  0  0  0  0  0  0  0  0  0
  148.5440  131.0681  154.9369 N   0  0  0  0  0  0  0  0  0  0  0  0
  148.3545  129.7581  155.5457 C   0  0  0  0  0  0  0  0  0  0  0  0
  148.8648  132.0319  155.8341 C   0  0  0  0  0  0  0  0  0  0  0  0
  148.8511  131.7625  157.1652 N   0  0  0  0  0  0  0  0  0  0  0  0
  149.1796  132.7125  158.0459 C   0  0  0  0  0  0  0  0  0  0  0  0
  149.5404  133.9760  157.8143 N   0  0  0  0  0  0  0  0  0  0  0  0
  149.5547  134.2506  156.4785 C   0  0  0  0  0  0  0  0  0  0  0  0
  149.2437  133.3404  155.4300 C   0  0  0  0  0  0  0  0  0  0  0  0
  149.3746  133.9691  154.1983 N   0  0  0  0  0  0  0  0  0  0  0  0
  149.7402  135.1849  154.5008 C   0  0  0  0  0  0  0  0  0  0  0  0
  149.8482  135.4481  155.8486 N   0  0  0  0  0  0  0  0  0  0  0  0
  150.2313  136.7117  156.4537 C   0  0  0  0  0  0  0  0  0  0  0  0
  150.9151  137.7184  155.4902 C   0  0  1  0  0  0  0  0  0  0  0  0
  149.8423  138.3465  154.5701 C   0  0  0  0  0  0  0  0  0  0  0  0
  150.3644  139.4240  153.8188 O   0  0  0  0  0  0  0  0  0  0  0  0
  151.8031  138.7924  156.1868 C   0  0  1  0  0  0  0  0  0  0  0  0
  151.0871  139.7363  157.1426 C   0  0  0  0  0  0  0  0  0  0  0  0
  152.2220  140.2800  158.0047 C   0  0  0  0  0  0  0  0  0  0  0  0
  153.2207  139.2684  158.0238 O   0  0  0  0  0  0  0  0  0  0  0  0
  152.8557  138.2150  157.1412 C   0  0  0  0  0  0  0  0  0  0  0  0
  146.7401  132.4827  153.8881 C   0  0  0  0  0  0  0  0  0  0  0  0
  146.0466  132.8440  152.5584 C   0  0  1  0  0  0  0  0  0  0  0  0
  146.9601  133.6700  151.6270 C   0  0  0  0  0  0  0  0  0  0  0  0
  143.0582  133.1303  149.9692 H   0  0  0  0  0  0  0  0  0  0  0  0
  144.3093  134.0106  150.8232 H   0  0  0  0  0  0  0  0  0  0  0  0
  143.1372  133.0444  151.7250 H   0  0  0  0  0  0  0  0  0  0  0  0
  144.0108  130.9794  150.5548 H   0  0  0  0  0  0  0  0  0  0  0  0
  145.2775  131.9151  149.8135 H   0  0  0  0  0  0  0  0  0  0  0  0
  146.0225  129.6689  151.2756 H   0  0  0  0  0  0  0  0  0  0  0  0
  147.2407  130.8827  150.9716 H   0  0  0  0  0  0  0  0  0  0  0  0
  146.4485  129.6771  153.6644 H   0  0  0  0  0  0  0  0  0  0  0  0
  147.9490  129.4030  152.8164 H   0  0  0  0  0  0  0  0  0  0  0  0
  148.5620  131.7830  153.0253 H   0  0  0  0  0  0  0  0  0  0  0  0
  149.2853  129.3930  155.9801 H   0  0  0  0  0  0  0  0  0  0  0  0
  148.0248  129.0281  154.8061 H   0  0  0  0  0  0  0  0  0  0  0  0
  147.6018  129.8042  156.3339 H   0  0  0  0  0  0  0  0  0  0  0  0
  149.1472  132.4190  159.0847 H   0  0  0  0  0  0  0  0  0  0  0  0
  149.9262  135.9331  153.7438 H   0  0  0  0  0  0  0  0  0  0  0  0
  149.3262  137.1541  156.8712 H   0  0  0  0  0  0  0  0  0  0  0  0
  150.8867  136.5021  157.2999 H   0  0  0  0  0  0  0  0  0  0  0  0
  151.5664  137.1472  154.8284 H   0  0  0  0  0  0  0  0  0  0  0  0
  149.4286  137.6074  153.8842 H   0  0  0  0  0  0  0  0  0  0  0  0
  149.0021  138.7111  155.1617 H   0  0  0  0  0  0  0  0  0  0  0  0
  150.0019  139.3859  152.9467 H   0  0  0  0  0  0  0  0  0  0  0  0
  152.3153  139.3882  155.4295 H   0  0  0  0  0  0  0  0  0  0  0  0
  150.5517  140.5426  156.6443 H   0  0  0  0  0  0  0  0  0  0  0  0
  150.3778  139.1867  157.7635 H   0  0  0  0  0  0  0  0  0  0  0  0
  152.6477  141.1768  157.5534 H   0  0  0  0  0  0  0  0  0  0  0  0
  151.8911  140.5322  159.0122 H   0  0  0  0  0  0  0  0  0  0  0  0
  152.4328  137.4042  157.7363 H   0  0  0  0  0  0  0  0  0  0  0  0
  153.7308  137.8291  156.6180 H   0  0  0  0  0  0  0  0  0  0  0  0
  145.9740  132.1537  154.5902 H   0  0  0  0  0  0  0  0  0  0  0  0
  147.1905  133.3729  154.3291 H   0  0  0  0  0  0  0  0  0  0  0  0
  145.2110  133.4880  152.8305 H   0  0  0  0  0  0  0  0  0  0  0  0
  147.3540  134.5412  152.1512 H   0  0  0  0  0  0  0  0  0  0  0  0
  146.4193  134.0465  150.7592 H   0  0  0  0  0  0  0  0  0  0  0  0
  147.8140  133.0986  151.2651 H   0  0  0  0  0  0  0  0  0  0  0  0
  144.8458  131.2299  152.5991 H   0  0  0  0  0  0  0  0  0  0  0  0
  1  2  1  0  0  0  0
  1 30  1  0  0  0  0
  1 31  1  0  0  0  0
  1 32  1  0  0  0  0
  2  3  1  0  0  0  0
  2 33  1  0  0  0  0
  2 34  1  0  0  0  0
  3 28  1  0  0  0  0
  3  4  1  0  0  0  0
  3 64  1  0  0  0  0
  4  5  1  0  0  0  0
  4 35  1  0  0  0  0
  4 36  1  0  0  0  0
  5  6  1  0  0  0  0
  5 37  1  0  0  0  0
  5 38  1  0  0  0  0
  6  7  1  0  0  0  0
  6 27  1  0  0  0  0
  6 39  1  0  0  0  0
  7  8  1  0  0  0  0
  7  9  1  0  0  0  0
  8 40  1  0  0  0  0
  8 41  1  0  0  0  0
  8 42  1  0  0  0  0
  9 14  1  0  0  0  0
  9 10  2  0  0  0  0
 10 11  1  0  0  0  0
 11 12  2  0  0  0  0
 11 43  1  0  0  0  0
 12 13  1  0  0  0  0
 13 17  1  0  0  0  0
 13 14  2  0  0  0  0
 14 15  1  0  0  0  0
 15 16  2  0  0  0  0
 16 17  1  0  0  0  0
 16 44  1  0  0  0  0
 17 18  1  0  0  0  0
 18 19  1  0  0  0  0
 18 45  1  0  0  0  0
 18 46  1  0  0  0  0
 19 20  1  0  0  0  0
 19 22  1  0  0  0  0
 19 47  1  0  0  0  0
 20 21  1  0  0  0  0
 20 48  1  0  0  0  0
 20 49  1  0  0  0  0
 21 50  1  0  0  0  0
 22 26  1  0  0  0  0
 22 23  1  0  0  0  0
 22 51  1  0  0  0  0
 23 24  1  0  0  0  0
 23 52  1  0  0  0  0
 23 53  1  0  0  0  0
 24 25  1  0  0  0  0
 24 54  1  0  0  0  0
 24 55  1  0  0  0  0
 25 26  1  0  0  0  0
 26 56  1  0  0  0  0
 26 57  1  0  0  0  0
 27 28  1  0  0  0  0
 27 58  1  0  0  0  0
 27 59  1  0  0  0  0
 28 29  1  0  0  0  0
 28 60  1  0  0  0  0
 29 61  1  0  0  0  0
 29 62  1  0  0  0  0
 29 63  1  0  0  0  0
M  CHG  1   3   1
M  END
> <s_m_source_file>
AV-unprocessed.smi

> <i_m_source_file_index>
249

> <i_lp_mmshare_version>
43012

> <i_f3d_flags>
0

> <s_epik_input>
W0NIM11bQ0gyXU4xW0NIMl1bQ0gyXVtDQEhdKFtDSDJdW0NASF0xW0NIM10pTihbQ0gzXSljKG5bY0hdbjIpYyhjMjMpbltjSF1uM1tDSDJdW0NASF0oW0NIMl1bT0hdKVtDQEBIXTRbQ0gyXVtDSDJdT1tDSDJdNA==

> <s_epik_cmdline>
J2VwaWtfcHl0aG9uJywgJy1waCcsICc3LjAnLCAnLXRuJywgJzgnLCAnLW1hJywgJzIwMCcsICctbWV0YWxfYmluZGluZycsICctaW1hZScsICc8aW5maWxlLm1hZT4nLCAnLW9tYWUnLCAnPG91dGZpbGUubWFlPic=

> <r_lp_tautomer_probability>
1

> <r_epik_Ionization_Penalty>
0.00294688

> <r_epik_Ionization_Penalty_Charging>
0.00169971

> <r_epik_Ionization_Penalty_Neutral>
0.00124717

> <r_epik_State_Penalty>
-0

> <r_epik_Charging_Adjusted_Penalty>
0.00169971

> <i_epik_Tot_Q>
1

> <i_epik_Tot_abs_Q>
1

> <r_epik_Metal_State_Penalty>
-0

> <b_epik_Metal_Only>
0

> <s_lp_Force_Field>
OPLS_2005

> <r_lp_Energy>
54.9966

> <b_lp_Chiralities_Consistent>
1

> <s_lp_Variant>
AV-unprocessed.smi:249-16

> <Gold.Version>
5.8.1

> <Gold.Id.Protein>
6NUR|6NUR_protein|mol2

> <Gold.PLP.Fitness>
46.2427

> <Gold.PLP.PLP>
-33.6362

> <Gold.PLP.part.hbond>
-4.0000

> <Gold.PLP.part.metal>
0.0000

> <Gold.PLP.part.buried>
-1.8265

> <Gold.PLP.part.nonpolar>
-28.4132

> <Gold.PLP.part.repulsive>
0.1650

> <Gold.PLP.ligand.clash>
0.0000

> <Gold.PLP.ligand.torsion>
1.3095

> <Gold.PLP.Chemscore.Hbond>
3.8173

> <Gold.PLP.Chemscore.CHOScore>
0.8485

> <Gold.PLP.Chemscore.Metal>
0.0000

> <Gold.Chemscore.Hbonds>
donor molecule, donor type, donor heavy atom, donor atom, acceptor molecule, acceptor atom, score
      L1  H    21    50       P1  7957  1.00
      P1  H  6896  6908       L1    12  0.94
      P1  H  7989  7998       L1    21  0.80
      P1  H  7997  8009       L1    25  1.00
      L1  C    16    44       P1  7948  0.74

> <Gold.PLP.Chemscore.Internal.Correction>
1.2280

> <Gold.Rescore>
     Score         DG    S(hbond)    S(metal)    S(lipo)     H(rot)  DE(clash)    DE(int)     intcor
     13.60     -16.34       2.07        0.00      91.58       2.65       1.38       1.36       ----

> <Gold.Chemscore.Fitness>
13.5962

> <Gold.Chemscore.DG>
-16.3362

> <Gold.Chemscore.ZeroCoef>
-5.4800

> <Gold.Chemscore.Hbond>
2.0745

> <Gold.Chemscore.Metal>
0.0000

> <Gold.Chemscore.Lipo>
91.5837

> <Gold.Chemscore.Internal_Hbond>
0.0000

> <Gold.Chemscore.DEClash>
1.3760

> <Gold.Chemscore.DEInternal>
1.3640

> <Gold.Chemscore.Rot>
2.6515

> <Gold.Chemscore.Internal.Correction>
   9.000000E+99

> <Gold.Chemscore.Hbonds>
donor molecule, donor type, donor heavy atom, donor atom, acceptor molecule, acceptor atom, score
      L1  H    21    50       P1  7957  0.96
      P1  H  6896  6908       L1    12  0.20
      P1  H  7989  7998       L1    21  0.11
      P1  H  7997  8009       L1    25  0.19

> <Gold.Chemscore.Hbond.Weighted>
-6.9288

> <Gold.Chemscore.Metal.Weighted>
-0.0000

> <Gold.Chemscore.Lipo.Weighted>
-10.7153

> <Gold.Chemscore.Internal_Hbond.Weighted>
0.0000

> <Gold.Chemscore.DEClash.Weighted>
1.3760

> <Gold.Chemscore.DEInternal.Weighted>
1.3640

> <Gold.Chemscore.Rot.Weighted>
6.7880

> <Gold.Chemscore.Internal.Correction.Weighted>
   9.000000E+99

> <Gold.Protein.RotatedTorsions>
[ 6907 6896 6895 6894 ] final  150.85 input  -60.11 | X-H torsion
[ 7974 7965 7964 7962 ] final -103.02 input  175.53 | X-H torsion
[ 8008 7997 7996 7995 ] final  142.90 input   59.86 | X-H torsion
[ 10167 10162 10161 10158 ] final   39.54 input  -65.29 | X-H torsion
[ 10718 10713 10712 10709 ] final    2.21 input   66.30 | X-H torsion
[ 10763 10752 10751 10750 ] final   73.71 input  -60.55 | X-H torsion
[ 11005 11000 10999 10996 ] final -128.11 input  -57.11 | X-H torsion

> <Gold.Protein.ActiveResidues>
 VAL166  LYS551  ARG553  GLY616  TRP617  ASP618  TYR619  PRO620  LYS621  CYS622 
 ASP623  PHE694  ASN695  SER759  ASP760  ASP761  ALA762  ILE779  LEU786  VAL792 
 PHE793  MET794  SER795  GLU796  ALA797  LYS798  CYS799  TRP800  GLU811  SER814 

> <Gold.Protein.RotatedAtoms>
  152.1088  133.4289  159.4620 H   0  0  0  0  0  0  0  0  0  0  0  0  # atno 6907 bound_to 6896
  150.6866  134.2673  159.4583 H   0  0  0  0  0  0  0  0  0  0  0  0  # atno 6908 bound_to 6896
  152.0540  134.9635  160.0625 H   0  0  0  0  0  0  0  0  0  0  0  0  # atno 6909 bound_to 6896
  145.2612  140.9270  143.3039 H   0  0  0  0  0  0  0  0  0  0  0  0  # atno 7974 bound_to 7965
  156.2941  140.2276  156.4803 H   0  0  0  0  0  0  0  0  0  0  0  0  # atno 8008 bound_to 7997
  154.7859  140.0457  157.1184 H   0  0  0  0  0  0  0  0  0  0  0  0  # atno 8009 bound_to 7997
  154.9703  140.3065  155.4994 H   0  0  0  0  0  0  0  0  0  0  0  0  # atno 8010 bound_to 7997
  140.3829  144.1955  150.6130 H   0  0  0  0  0  0  0  0  0  0  0  0  # atno 10167 bound_to 10162
  156.8596  130.5582  149.5664 H   0  0  0  0  0  0  0  0  0  0  0  0  # atno 10718 bound_to 10713
  153.0539  135.5053  154.7934 H   0  0  0  0  0  0  0  0  0  0  0  0  # atno 10763 bound_to 10752
  154.6775  135.2963  154.9661 H   0  0  0  0  0  0  0  0  0  0  0  0  # atno 10764 bound_to 10752
  154.0458  135.6711  153.4847 H   0  0  0  0  0  0  0  0  0  0  0  0  # atno 10765 bound_to 10752
  140.9543  134.1023  157.4031 H   0  0  0  0  0  0  0  0  0  0  0  0  # atno 11005 bound_to 11000
  144.9416  139.4182  143.6446 LP  0  0  0  0  0  0  0  0  0  0  0  0  # atno 17320 bound_to 7965
  146.3274  139.8379  142.8896 LP  0  0  0  0  0  0  0  0  0  0  0  0  # atno 17321 bound_to 7965
  140.4919  143.2345  151.8806 LP  0  0  0  0  0  0  0  0  0  0  0  0  # atno 17342 bound_to 10162
  139.4794  144.5157  151.8872 LP  0  0  0  0  0  0  0  0  0  0  0  0  # atno 17343 bound_to 10162
  156.0784  130.5800  150.9516 LP  0  0  0  0  0  0  0  0  0  0  0  0  # atno 17370 bound_to 10713
  157.6257  131.0926  150.8537 LP  0  0  0  0  0  0  0  0  0  0  0  0  # atno 17371 bound_to 10713
  139.8857  135.0075  156.6453 LP  0  0  0  0  0  0  0  0  0  0  0  0  # atno 17394 bound_to 11000
  140.7558  133.8859  155.8381 LP  0  0  0  0  0  0  0  0  0  0  0  0  # atno 17395 bound_to 11000

$$$$
