AV-unprocessed.smi:3154|AV-procd|sdf|12021|dock6
  -GOLD-   2272017433D 1   1.00000     0.00000
 Structure written by MMmdl.
 35 36  0  0  0  0  0  0  0  0  2 V2000
  144.2976  136.6880  152.1863 C   0  0  0  0  0  0  0  0  0  0  0  0
  145.6887  136.2812  151.6719 C   0  0  2  0  0  0  0  0  0  0  0  0
  146.0036  134.7909  151.9404 C   0  0  0  0  0  0  0  0  0  0  0  0
  145.4621  133.9041  150.9265 N   0  0  0  0  0  0  0  0  0  0  0  0
  146.0700  132.8316  150.3081 C   0  0  0  0  0  0  0  0  0  0  0  0
  145.1736  132.3167  149.4160 C   0  0  0  0  0  0  0  0  0  0  0  0
  144.0337  133.1563  149.5583 C   0  0  0  0  0  0  0  0  0  0  0  0
  144.2114  134.1083  150.4602 N   0  0  0  0  0  0  0  0  0  0  0  0
  146.7125  137.1586  152.2811 N   0  3  0  0  0  0  0  0  0  0  0  0
  146.5969  138.5950  151.9453 C   0  0  0  0  0  0  0  0  0  0  0  0
  146.9042  139.4965  153.1424 C   0  0  0  0  0  0  0  0  0  0  0  0
  146.2438  139.4115  154.1786 O   0  0  0  0  0  0  0  0  0  0  0  0
  147.9232  140.3533  152.9828 N   0  0  0  0  0  0  0  0  0  0  0  0
  148.3941  141.2746  153.9661 C   0  0  0  0  0  0  0  0  0  0  0  0
  149.5785  140.8589  154.8115 C   0  0  0  0  0  0  0  0  0  0  0  0
  148.2049  140.9035  155.4213 C   0  0  0  0  0  0  0  0  0  0  0  0
  143.5057  136.1261  151.6902 H   0  0  0  0  0  0  0  0  0  0  0  0
  144.1049  137.7451  152.0007 H   0  0  0  0  0  0  0  0  0  0  0  0
  144.2053  136.5164  153.2593 H   0  0  0  0  0  0  0  0  0  0  0  0
  145.6992  136.4582  150.5952 H   0  0  0  0  0  0  0  0  0  0  0  0
  147.0791  134.6188  151.9856 H   0  0  0  0  0  0  0  0  0  0  0  0
  145.6005  134.4913  152.9088 H   0  0  0  0  0  0  0  0  0  0  0  0
  147.0771  132.5260  150.5510 H   0  0  0  0  0  0  0  0  0  0  0  0
  145.3113  131.4706  148.7592 H   0  0  0  0  0  0  0  0  0  0  0  0
  143.0902  133.1036  149.0352 H   0  0  0  0  0  0  0  0  0  0  0  0
  146.6271  137.0824  153.2846 H   0  0  0  0  0  0  0  0  0  0  0  0
  147.2849  138.8507  151.1400 H   0  0  0  0  0  0  0  0  0  0  0  0
  145.5864  138.8038  151.5919 H   0  0  0  0  0  0  0  0  0  0  0  0
  148.4094  140.3507  152.0976 H   0  0  0  0  0  0  0  0  0  0  0  0
  148.3217  142.3362  153.7332 H   0  0  0  0  0  0  0  0  0  0  0  0
  150.0157  139.8788  154.6306 H   0  0  0  0  0  0  0  0  0  0  0  0
  150.2830  141.6353  155.1036 H   0  0  0  0  0  0  0  0  0  0  0  0
  147.9927  141.7088  156.1218 H   0  0  0  0  0  0  0  0  0  0  0  0
  147.7261  139.9527  155.6475 H   0  0  0  0  0  0  0  0  0  0  0  0
  147.6301  136.8298  152.0170 H   0  0  0  0  0  0  0  0  0  0  0  0
  1  2  1  0  0  0  0
  1 17  1  0  0  0  0
  1 18  1  0  0  0  0
  1 19  1  0  0  0  0
  2  3  1  0  0  0  0
  2  9  1  0  0  0  0
  2 20  1  0  0  0  0
  3  4  1  0  0  0  0
  3 21  1  0  0  0  0
  3 22  1  0  0  0  0
  4  8  1  0  0  0  0
  4  5  1  0  0  0  0
  5  6  2  0  0  0  0
  5 23  1  0  0  0  0
  6  7  1  0  0  0  0
  6 24  1  0  0  0  0
  7  8  2  0  0  0  0
  7 25  1  0  0  0  0
  9 10  1  0  0  0  0
  9 26  1  0  0  0  0
  9 35  1  0  0  0  0
 10 11  1  0  0  0  0
 10 27  1  0  0  0  0
 10 28  1  0  0  0  0
 11 12  2  0  0  0  0
 11 13  1  0  0  0  0
 13 14  1  0  0  0  0
 13 29  1  0  0  0  0
 14 16  1  0  0  0  0
 14 15  1  0  0  0  0
 14 30  1  0  0  0  0
 15 16  1  0  0  0  0
 15 31  1  0  0  0  0
 15 32  1  0  0  0  0
 16 33  1  0  0  0  0
 16 34  1  0  0  0  0
M  CHG  1   9   1
M  END
> <s_m_source_file>
AV-unprocessed.smi

> <i_m_source_file_index>
3154

> <i_lp_mmshare_version>
43012

> <i_f3d_flags>
0

> <s_epik_input>
bjFbY0hdW2NIXVtjSF1uMVtDSDJdW0NAQEhdKFtDSDNdKVtOSF1bQ0gyXUMoPU8pW05IXVtDSF0yW0NIMl1bQ0gyXTI=

> <s_epik_cmdline>
J2VwaWtfcHl0aG9uJywgJy1waCcsICc3LjAnLCAnLXRuJywgJzgnLCAnLW1hJywgJzIwMCcsICctbWV0YWxfYmluZGluZycsICctaW1hZScsICc8aW5maWxlLm1hZT4nLCAnLW9tYWUnLCAnPG91dGZpbGUubWFlPic=

> <r_lp_tautomer_probability>
1

> <r_epik_Ionization_Penalty>
0.12065

> <r_epik_Ionization_Penalty_Charging>
0.120646

> <r_epik_Ionization_Penalty_Neutral>
4.1343e-06

> <r_epik_State_Penalty>
0.110186

> <r_epik_Charging_Adjusted_Penalty>
0.230832

> <i_epik_Tot_Q>
1

> <i_epik_Tot_abs_Q>
1

> <r_epik_Metal_State_Penalty>
0.110197

> <b_epik_Metal_Only>
0

> <s_lp_Force_Field>
OPLS_2005

> <r_lp_Energy>
15.3848

> <b_lp_Chiralities_Consistent>
1

> <s_lp_Variant>
AV-unprocessed.smi:3154-1

> <Gold.Version>
5.8.1

> <Gold.Id.Protein>
6NUR|6NUR_protein|mol2

> <Gold.PLP.Fitness>
45.3855

> <Gold.PLP.PLP>
-32.9351

> <Gold.PLP.part.hbond>
-1.9613

> <Gold.PLP.part.metal>
0.0000

> <Gold.PLP.part.buried>
-4.2368

> <Gold.PLP.part.nonpolar>
-28.3620

> <Gold.PLP.part.repulsive>
0.4411

> <Gold.PLP.ligand.clash>
0.0000

> <Gold.PLP.ligand.torsion>
1.1408

> <Gold.PLP.Chemscore.Hbond>
2.8945

> <Gold.PLP.Chemscore.CHOScore>
2.0000

> <Gold.PLP.Chemscore.Metal>
0.0000

> <Gold.Chemscore.Hbonds>
donor molecule, donor type, donor heavy atom, donor atom, acceptor molecule, acceptor atom, score
      L1  H     9    35       P1  7948  1.56
      L1  H    13    29       P1  7957  1.00
      L1  C     5    23       P1 10747  0.98
      L1  C     7    25       P1 10186  0.95

> <Gold.PLP.Chemscore.Internal.Correction>
0.0484

> <Gold.Rescore>
     Score         DG    S(hbond)    S(metal)    S(lipo)     H(rot)  DE(clash)    DE(int)     intcor
     12.50     -15.07       1.94        0.00      74.78       2.20       0.06       2.51       ----

> <Gold.Chemscore.Fitness>
12.5007

> <Gold.Chemscore.DG>
-15.0698

> <Gold.Chemscore.ZeroCoef>
-5.4800

> <Gold.Chemscore.Hbond>
1.9411

> <Gold.Chemscore.Metal>
0.0000

> <Gold.Chemscore.Lipo>
74.7788

> <Gold.Chemscore.Internal_Hbond>
0.0000

> <Gold.Chemscore.DEClash>
0.0580

> <Gold.Chemscore.DEInternal>
2.5111

> <Gold.Chemscore.Rot>
2.2042

> <Gold.Chemscore.Internal.Correction>
   9.000000E+99

> <Gold.Chemscore.Hbonds>
donor molecule, donor type, donor heavy atom, donor atom, acceptor molecule, acceptor atom, score
      L1  H     9    35       P1  7948  0.77
      L1  H    13    29       P1  7957  0.92

> <Gold.Chemscore.Hbond.Weighted>
-6.4833

> <Gold.Chemscore.Metal.Weighted>
-0.0000

> <Gold.Chemscore.Lipo.Weighted>
-8.7491

> <Gold.Chemscore.Internal_Hbond.Weighted>
0.0000

> <Gold.Chemscore.DEClash.Weighted>
0.0580

> <Gold.Chemscore.DEInternal.Weighted>
2.5111

> <Gold.Chemscore.Rot.Weighted>
5.6427

> <Gold.Chemscore.Internal.Correction.Weighted>
   9.000000E+99

> <Gold.Protein.RotatedTorsions>
[ 6907 6896 6895 6894 ] final -148.62 input  -60.11 | X-H torsion
[ 7974 7965 7964 7962 ] final  117.47 input  175.53 | X-H torsion
[ 8008 7997 7996 7995 ] final  -71.49 input   59.86 | X-H torsion
[ 10167 10162 10161 10158 ] final   41.63 input  -65.29 | X-H torsion
[ 10718 10713 10712 10709 ] final -138.03 input   66.30 | X-H torsion
[ 10763 10752 10751 10750 ] final -111.42 input  -60.55 | X-H torsion
[ 11005 11000 10999 10996 ] final  -83.08 input  -57.11 | X-H torsion

> <Gold.Protein.ActiveResidues>
 VAL166  LYS551  ARG553  GLY616  TRP617  ASP618  TYR619  PRO620  LYS621  CYS622 
 ASP623  PHE694  ASN695  SER759  ASP760  ASP761  ALA762  ILE779  LEU786  VAL792 
 PHE793  MET794  SER795  GLU796  ALA797  LYS798  CYS799  TRP800  GLU811  SER814 

> <Gold.Protein.RotatedAtoms>
  151.1725  133.4775  159.2593 H   0  0  0  0  0  0  0  0  0  0  0  0  # atno 6907 bound_to 6896
  151.1341  135.0146  159.8606 H   0  0  0  0  0  0  0  0  0  0  0  0  # atno 6908 bound_to 6896
  152.5461  134.1625  159.8616 H   0  0  0  0  0  0  0  0  0  0  0  0  # atno 6909 bound_to 6896
  145.1670  139.3123  143.4487 H   0  0  0  0  0  0  0  0  0  0  0  0  # atno 7974 bound_to 7965
  154.5092  140.0814  156.7956 H   0  0  0  0  0  0  0  0  0  0  0  0  # atno 8008 bound_to 7997
  155.3823  140.3428  155.4229 H   0  0  0  0  0  0  0  0  0  0  0  0  # atno 8009 bound_to 7997
  156.1553  140.1571  156.8691 H   0  0  0  0  0  0  0  0  0  0  0  0  # atno 8010 bound_to 7997
  140.3624  144.2211  150.6137 H   0  0  0  0  0  0  0  0  0  0  0  0  # atno 10167 bound_to 10162
  156.2947  130.7395  151.1430 H   0  0  0  0  0  0  0  0  0  0  0  0  # atno 10718 bound_to 10713
  154.8299  135.4528  154.1036 H   0  0  0  0  0  0  0  0  0  0  0  0  # atno 10763 bound_to 10752
  153.2318  135.6906  153.7887 H   0  0  0  0  0  0  0  0  0  0  0  0  # atno 10764 bound_to 10752
  153.7267  135.3333  155.3254 H   0  0  0  0  0  0  0  0  0  0  0  0  # atno 10765 bound_to 10752
  141.1660  133.7276  156.8667 H   0  0  0  0  0  0  0  0  0  0  0  0  # atno 11005 bound_to 11000
  146.3474  140.1801  142.8589 LP  0  0  0  0  0  0  0  0  0  0  0  0  # atno 17320 bound_to 7965
  145.0272  140.8842  143.5131 LP  0  0  0  0  0  0  0  0  0  0  0  0  # atno 17321 bound_to 7965
  140.5114  143.2289  151.8530 LP  0  0  0  0  0  0  0  0  0  0  0  0  # atno 17342 bound_to 10162
  139.4812  144.4945  151.9141 LP  0  0  0  0  0  0  0  0  0  0  0  0  # atno 17343 bound_to 10162
  157.7352  131.0574  150.5483 LP  0  0  0  0  0  0  0  0  0  0  0  0  # atno 17370 bound_to 10713
  156.5603  130.4254  149.6066 LP  0  0  0  0  0  0  0  0  0  0  0  0  # atno 17371 bound_to 10713
  140.1810  134.9033  157.2949 LP  0  0  0  0  0  0  0  0  0  0  0  0  # atno 17394 bound_to 11000
  140.2395  134.3813  155.7487 LP  0  0  0  0  0  0  0  0  0  0  0  0  # atno 17395 bound_to 11000

$$$$
