AV-unprocessed.smi:2892|AV-procd|sdf|11120|dock1
  -GOLD-   2272015593D 1   1.00000     0.00000
 Structure written by MMmdl.
 42 42  0  0  0  0  0  0  0  0  2 V2000
  150.0056  135.3466  155.0703 C   0  0  0  0  0  0  0  0  0  0  0  0
  150.9779  136.4679  154.6750 C   0  0  0  0  0  0  0  0  0  0  0  0
  151.6962  137.1460  155.8721 C   0  0  2  0  0  0  0  0  0  0  0  0
  152.2058  136.0768  156.8667 C   0  0  0  0  0  0  0  0  0  0  0  0
  150.7938  138.1963  156.5924 C   0  0  1  0  0  0  0  0  0  0  0  0
  151.3802  138.5194  157.8921 N   0  0  0  0  0  0  0  0  0  0  0  0
  152.5696  139.1068  158.1035 C   0  0  0  0  0  0  0  0  0  0  0  0
  153.3418  139.4211  157.1981 O   0  0  0  0  0  0  0  0  0  0  0  0
  152.9525  139.3841  159.5619 C   0  0  0  0  0  0  0  0  0  0  0  0
  152.9355  140.8622  159.8617 C   0  0  0  0  0  0  0  0  0  0  0  0
  153.6461  141.5569  160.8817 C   0  0  0  0  0  0  0  0  0  0  0  0
  153.2454  142.8541  160.7387 C   0  0  0  0  0  0  0  0  0  0  0  0
  152.3589  142.8981  159.6836 N   0  0  0  0  0  0  0  0  0  0  0  0
  151.6358  144.0487  159.1629 C   0  0  0  0  0  0  0  0  0  0  0  0
  152.0890  144.3802  157.7320 C   0  0  0  0  0  0  0  0  0  0  0  0
  151.7592  145.2614  160.1000 C   0  0  0  0  0  0  0  0  0  0  0  0
  152.1751  141.6743  159.1407 N   0  0  0  0  0  0  0  0  0  0  0  0
  150.7130  139.5045  155.7841 C   0  0  0  0  0  0  0  0  0  0  0  0
  151.3765  139.5774  154.7250 O   0  0  0  0  0  0  0  0  0  0  0  0
  149.9834  140.4105  156.2425 O   0  5  0  0  0  0  0  0  0  0  0  0
  149.6213  134.8434  154.1830 H   0  0  0  0  0  0  0  0  0  0  0  0
  149.1459  135.7259  155.6218 H   0  0  0  0  0  0  0  0  0  0  0  0
  150.5005  134.5957  155.6867 H   0  0  0  0  0  0  0  0  0  0  0  0
  151.7061  136.0232  153.9974 H   0  0  0  0  0  0  0  0  0  0  0  0
  150.4495  137.2199  154.0880 H   0  0  0  0  0  0  0  0  0  0  0  0
  152.5738  137.6637  155.4810 H   0  0  0  0  0  0  0  0  0  0  0  0
  151.3776  135.5174  157.3028 H   0  0  0  0  0  0  0  0  0  0  0  0
  152.7738  136.5160  157.6868 H   0  0  0  0  0  0  0  0  0  0  0  0
  152.8747  135.3628  156.3885 H   0  0  0  0  0  0  0  0  0  0  0  0
  149.7912  137.7828  156.7191 H   0  0  0  0  0  0  0  0  0  0  0  0
  150.8257  138.2796  158.7006 H   0  0  0  0  0  0  0  0  0  0  0  0
  152.2528  138.8557  160.2101 H   0  0  0  0  0  0  0  0  0  0  0  0
  153.9401  138.9672  159.7639 H   0  0  0  0  0  0  0  0  0  0  0  0
  154.3317  141.1596  161.6154 H   0  0  0  0  0  0  0  0  0  0  0  0
  153.5108  143.7387  161.2985 H   0  0  0  0  0  0  0  0  0  0  0  0
  150.5817  143.7714  159.1207 H   0  0  0  0  0  0  0  0  0  0  0  0
  151.5032  145.2002  157.3165 H   0  0  0  0  0  0  0  0  0  0  0  0
  151.9663  143.5208  157.0722 H   0  0  0  0  0  0  0  0  0  0  0  0
  153.1387  144.6747  157.7019 H   0  0  0  0  0  0  0  0  0  0  0  0
  151.1491  146.0917  159.7441 H   0  0  0  0  0  0  0  0  0  0  0  0
  152.7888  145.6147  160.1678 H   0  0  0  0  0  0  0  0  0  0  0  0
  151.4236  145.0139  161.1075 H   0  0  0  0  0  0  0  0  0  0  0  0
  1  2  1  0  0  0  0
  1 21  1  0  0  0  0
  1 22  1  0  0  0  0
  1 23  1  0  0  0  0
  2  3  1  0  0  0  0
  2 24  1  0  0  0  0
  2 25  1  0  0  0  0
  3  4  1  0  0  0  0
  3  5  1  0  0  0  0
  3 26  1  0  0  0  0
  4 27  1  0  0  0  0
  4 28  1  0  0  0  0
  4 29  1  0  0  0  0
  5  6  1  0  0  0  0
  5 18  1  0  0  0  0
  5 30  1  0  0  0  0
  6  7  1  0  0  0  0
  6 31  1  0  0  0  0
  7  8  2  0  0  0  0
  7  9  1  0  0  0  0
  9 10  1  0  0  0  0
  9 32  1  0  0  0  0
  9 33  1  0  0  0  0
 10 17  2  0  0  0  0
 10 11  1  0  0  0  0
 11 12  2  0  0  0  0
 11 34  1  0  0  0  0
 12 13  1  0  0  0  0
 12 35  1  0  0  0  0
 13 14  1  0  0  0  0
 13 17  1  0  0  0  0
 14 15  1  0  0  0  0
 14 16  1  0  0  0  0
 14 36  1  0  0  0  0
 15 37  1  0  0  0  0
 15 38  1  0  0  0  0
 15 39  1  0  0  0  0
 16 40  1  0  0  0  0
 16 41  1  0  0  0  0
 16 42  1  0  0  0  0
 18 19  2  0  0  0  0
 18 20  1  0  0  0  0
M  CHG  1  20  -1
M  END
> <s_m_source_file>
AV-unprocessed.smi

> <i_m_source_file_index>
2892

> <i_lp_mmshare_version>
43012

> <i_f3d_flags>
0

> <s_epik_input>
W0NIM11bQ0gyXVtDQEhdKFtDSDNdKVtDQEBIXShDKD1PKVtPSF0pW05IXUMoPU8pW0NIMl1jMVtjSF1bY0hdbihuMSlbQ0hdKFtDSDNdKVtDSDNd

> <s_epik_cmdline>
J2VwaWtfcHl0aG9uJywgJy1waCcsICc3LjAnLCAnLXRuJywgJzgnLCAnLW1hJywgJzIwMCcsICctbWV0YWxfYmluZGluZycsICctaW1hZScsICc8aW5maWxlLm1hZT4nLCAnLW9tYWUnLCAnPG91dGZpbGUubWFlPic=

> <r_lp_tautomer_probability>
1

> <r_epik_Ionization_Penalty>
0.000286846

> <r_epik_Ionization_Penalty_Charging>
0.000224481

> <r_epik_Ionization_Penalty_Neutral>
6.23655e-05

> <r_epik_State_Penalty>
-0

> <r_epik_Charging_Adjusted_Penalty>
0.000224481

> <i_epik_Tot_Q>
-1

> <i_epik_Tot_abs_Q>
1

> <r_epik_Metal_State_Penalty>
-0

> <b_epik_Metal_Only>
0

> <s_lp_Force_Field>
OPLS_2005

> <r_lp_Energy>
13.0415

> <b_lp_Chiralities_Consistent>
1

> <s_lp_Variant>
AV-unprocessed.smi:2892-3

> <Gold.Version>
5.8.1

> <Gold.Id.Protein>
6NUR|6NUR_protein|mol2

> <Gold.PLP.Fitness>
44.4565

> <Gold.PLP.PLP>
-39.8724

> <Gold.PLP.part.hbond>
-1.8414

> <Gold.PLP.part.metal>
0.0000

> <Gold.PLP.part.buried>
-5.3042

> <Gold.PLP.part.nonpolar>
-33.1046

> <Gold.PLP.part.repulsive>
0.1397

> <Gold.PLP.ligand.clash>
0.0000

> <Gold.PLP.ligand.torsion>
1.0722

> <Gold.PLP.Chemscore.Hbond>
2.0000

> <Gold.PLP.Chemscore.CHOScore>
0.0000

> <Gold.PLP.Chemscore.Metal>
0.0000

> <Gold.Chemscore.Hbonds>
donor molecule, donor type, donor heavy atom, donor atom, acceptor molecule, acceptor atom, score
      P1  H  7989  7998       L1    19  1.00
      P1  H  7997  8008       L1     8  0.63

> <Gold.PLP.Chemscore.Internal.Correction>
0.7285

> <Gold.Rescore>
     Score         DG    S(hbond)    S(metal)    S(lipo)     H(rot)  DE(clash)    DE(int)     intcor
     15.40     -17.34       1.99        0.00      96.76       2.39       0.05       1.89       ----

> <Gold.Chemscore.Fitness>
15.4048

> <Gold.Chemscore.DG>
-17.3378

> <Gold.Chemscore.ZeroCoef>
-5.4800

> <Gold.Chemscore.Hbond>
1.9898

> <Gold.Chemscore.Metal>
0.0000

> <Gold.Chemscore.Lipo>
96.7624

> <Gold.Chemscore.Internal_Hbond>
0.0000

> <Gold.Chemscore.DEClash>
0.0460

> <Gold.Chemscore.DEInternal>
1.8870

> <Gold.Chemscore.Rot>
2.3865

> <Gold.Chemscore.Internal.Correction>
   9.000000E+99

> <Gold.Chemscore.Hbonds>
donor molecule, donor type, donor heavy atom, donor atom, acceptor molecule, acceptor atom, score
      P1  H  7989  7998       L1    19  1.00
      P1  H  7997  8008       L1     8  0.62

> <Gold.Chemscore.Hbond.Weighted>
-6.6459

> <Gold.Chemscore.Metal.Weighted>
-0.0000

> <Gold.Chemscore.Lipo.Weighted>
-11.3212

> <Gold.Chemscore.Internal_Hbond.Weighted>
0.0000

> <Gold.Chemscore.DEClash.Weighted>
0.0460

> <Gold.Chemscore.DEInternal.Weighted>
1.8870

> <Gold.Chemscore.Rot.Weighted>
6.1093

> <Gold.Chemscore.Internal.Correction.Weighted>
   9.000000E+99

> <Gold.Protein.RotatedTorsions>
[ 6907 6896 6895 6894 ] final -155.33 input  -60.11 | X-H torsion
[ 7974 7965 7964 7962 ] final   20.05 input  175.53 | X-H torsion
[ 8008 7997 7996 7995 ] final  -83.70 input   59.86 | X-H torsion
[ 10167 10162 10161 10158 ] final  122.91 input  -65.29 | X-H torsion
[ 10718 10713 10712 10709 ] final  178.02 input   66.30 | X-H torsion
[ 10763 10752 10751 10750 ] final  -25.05 input  -60.55 | X-H torsion
[ 11005 11000 10999 10996 ] final  119.10 input  -57.11 | X-H torsion

> <Gold.Protein.ActiveResidues>
 VAL166  LYS551  ARG553  GLY616  TRP617  ASP618  TYR619  PRO620  LYS621  CYS622 
 ASP623  PHE694  ASN695  SER759  ASP760  ASP761  ALA762  ILE779  LEU786  VAL792 
 PHE793  MET794  SER795  GLU796  ALA797  LYS798  CYS799  TRP800  GLU811  SER814 

> <Gold.Protein.RotatedAtoms>
  151.2709  133.4256  159.2620 H   0  0  0  0  0  0  0  0  0  0  0  0  # atno 6907 bound_to 6896
  151.0446  134.9631  159.8190 H   0  0  0  0  0  0  0  0  0  0  0  0  # atno 6908 bound_to 6896
  152.5371  134.2665  159.9008 H   0  0  0  0  0  0  0  0  0  0  0  0  # atno 6909 bound_to 6896
  146.2126  139.8225  142.8677 H   0  0  0  0  0  0  0  0  0  0  0  0  # atno 7974 bound_to 7965
  154.6219  140.0615  156.9625 H   0  0  0  0  0  0  0  0  0  0  0  0  # atno 8008 bound_to 7997
  155.1804  140.3298  155.4358 H   0  0  0  0  0  0  0  0  0  0  0  0  # atno 8009 bound_to 7997
  156.2436  140.1898  156.6901 H   0  0  0  0  0  0  0  0  0  0  0  0  # atno 8010 bound_to 7997
  139.5830  144.6994  151.3479 H   0  0  0  0  0  0  0  0  0  0  0  0  # atno 10167 bound_to 10162
  156.8968  130.9865  151.3041 H   0  0  0  0  0  0  0  0  0  0  0  0  # atno 10718 bound_to 10713
  153.6936  135.6960  153.5083 H   0  0  0  0  0  0  0  0  0  0  0  0  # atno 10763 bound_to 10752
  153.2395  135.4311  155.0681 H   0  0  0  0  0  0  0  0  0  0  0  0  # atno 10764 bound_to 10752
  154.8365  135.3504  154.6477 H   0  0  0  0  0  0  0  0  0  0  0  0  # atno 10765 bound_to 10752
  139.9134  134.9626  156.7604 H   0  0  0  0  0  0  0  0  0  0  0  0  # atno 11005 bound_to 11000
  145.3082  141.0212  143.3570 LP  0  0  0  0  0  0  0  0  0  0  0  0  # atno 17320 bound_to 7965
  144.8956  139.4717  143.6657 LP  0  0  0  0  0  0  0  0  0  0  0  0  # atno 17321 bound_to 7965
  140.7106  143.7400  150.7560 LP  0  0  0  0  0  0  0  0  0  0  0  0  # atno 17342 bound_to 10162
  140.0938  143.4853  152.2464 LP  0  0  0  0  0  0  0  0  0  0  0  0  # atno 17343 bound_to 10162
  157.6051  130.8541  149.8862 LP  0  0  0  0  0  0  0  0  0  0  0  0  # atno 17370 bound_to 10713
  156.0602  130.3701  150.1000 LP  0  0  0  0  0  0  0  0  0  0  0  0  # atno 17371 bound_to 10713
  140.6702  133.9567  155.7852 LP  0  0  0  0  0  0  0  0  0  0  0  0  # atno 17394 bound_to 11000
  141.0583  134.0384  157.3693 LP  0  0  0  0  0  0  0  0  0  0  0  0  # atno 17395 bound_to 11000

$$$$
