AV-unprocessed.smi:1222|AV-procd|sdf|5123|dock2
  -GOLD-   22720 4183D 1   1.00000     0.00000
 Structure written by MMmdl.
 36 38  0  0  0  0  0  0  0  0  3 V2000
  151.2947  138.7614  158.4781 O   0  0  0  0  0  0  0  0  0  0  0  0
  151.9894  139.7212  158.1367 C   0  0  0  0  0  0  0  0  0  0  0  0
  153.2902  139.9212  158.4461 N   0  5  0  0  0  0  0  0  0  0  0  0
  153.6307  140.3478  159.6731 C   0  0  0  0  0  0  0  0  0  0  0  0
  154.5983  139.7779  160.4005 N   0  0  0  0  0  0  0  0  0  0  0  0
  154.7887  140.3848  161.6433 C   0  0  0  0  0  0  0  0  0  0  0  0
  153.9520  141.4464  161.8641 C   0  0  0  0  0  0  0  0  0  0  0  0
  152.8945  141.7184  160.5086 S   0  0  0  0  0  0  0  0  0  0  0  0
  151.4606  140.6945  157.3815 N   0  0  0  0  0  0  0  0  0  0  0  0
  150.0864  140.7497  156.8924 C   0  0  2  0  0  0  0  0  0  0  0  0
  150.0432  141.2368  155.4314 C   0  0  0  0  0  0  0  0  0  0  0  0
  148.5948  141.4065  154.9460 C   0  0  0  0  0  0  0  0  0  0  0  0
  147.8423  142.3297  155.8310 N   0  3  1  0  0  0  0  0  0  0  0  0
  146.4811  142.6049  155.3223 C   0  0  0  0  0  0  0  0  0  0  0  0
  145.8398  141.4245  154.6305 C   0  0  0  0  0  0  0  0  0  0  0  0
  146.3791  142.5787  153.8149 C   0  0  0  0  0  0  0  0  0  0  0  0
  147.8288  141.8535  157.2362 C   0  0  0  0  0  0  0  0  0  0  0  0
  149.2589  141.6958  157.7778 C   0  0  0  0  0  0  0  0  0  0  0  0
  155.5437  139.9942  162.3094 H   0  0  0  0  0  0  0  0  0  0  0  0
  153.8935  142.0820  162.7345 H   0  0  0  0  0  0  0  0  0  0  0  0
  152.0679  141.4606  157.1295 H   0  0  0  0  0  0  0  0  0  0  0  0
  149.6454  139.7527  156.9513 H   0  0  0  0  0  0  0  0  0  0  0  0
  150.5695  142.1886  155.3419 H   0  0  0  0  0  0  0  0  0  0  0  0
  150.5655  140.5336  154.7819 H   0  0  0  0  0  0  0  0  0  0  0  0
  148.5967  141.7956  153.9273 H   0  0  0  0  0  0  0  0  0  0  0  0
  148.0928  140.4383  154.9152 H   0  0  0  0  0  0  0  0  0  0  0  0
  145.8777  143.2983  155.9056 H   0  0  0  0  0  0  0  0  0  0  0  0
  146.3894  140.4854  154.5960 H   0  0  0  0  0  0  0  0  0  0  0  0
  144.7583  141.3274  154.7023 H   0  0  0  0  0  0  0  0  0  0  0  0
  145.6527  143.2412  153.3484 H   0  0  0  0  0  0  0  0  0  0  0  0
  147.2869  142.4056  153.2395 H   0  0  0  0  0  0  0  0  0  0  0  0
  147.2813  142.5626  157.8580 H   0  0  0  0  0  0  0  0  0  0  0  0
  147.2967  140.9026  157.2958 H   0  0  0  0  0  0  0  0  0  0  0  0
  149.2269  141.3186  158.8008 H   0  0  0  0  0  0  0  0  0  0  0  0
  149.7380  142.6753  157.8243 H   0  0  0  0  0  0  0  0  0  0  0  0
  148.3396  143.2089  155.8249 H   0  0  0  0  0  0  0  0  0  0  0  0
  1  2  2  0  0  0  0
  2  3  1  0  0  0  0
  2  9  1  0  0  0  0
  3  4  1  0  0  0  0
  4  8  1  0  0  0  0
  4  5  2  0  0  0  0
  5  6  1  0  0  0  0
  6  7  2  0  0  0  0
  6 19  1  0  0  0  0
  7  8  1  0  0  0  0
  7 20  1  0  0  0  0
  9 10  1  0  0  0  0
  9 21  1  0  0  0  0
 10 18  1  0  0  0  0
 10 11  1  0  0  0  0
 10 22  1  0  0  0  0
 11 12  1  0  0  0  0
 11 23  1  0  0  0  0
 11 24  1  0  0  0  0
 12 13  1  0  0  0  0
 12 25  1  0  0  0  0
 12 26  1  0  0  0  0
 13 14  1  0  0  0  0
 13 17  1  0  0  0  0
 13 36  1  0  0  0  0
 14 16  1  0  0  0  0
 14 15  1  0  0  0  0
 14 27  1  0  0  0  0
 15 16  1  0  0  0  0
 15 28  1  0  0  0  0
 15 29  1  0  0  0  0
 16 30  1  0  0  0  0
 16 31  1  0  0  0  0
 17 18  1  0  0  0  0
 17 32  1  0  0  0  0
 17 33  1  0  0  0  0
 18 34  1  0  0  0  0
 18 35  1  0  0  0  0
M  CHG  1   3  -1
M  CHG  1  13   1
M  END
> <s_m_source_file>
AV-unprocessed.smi

> <i_m_source_file_index>
1222

> <i_lp_mmshare_version>
43012

> <i_f3d_flags>
0

> <s_epik_input>
czFbY0hdW2NIXW5jMVtOSF1DKD1PKVtOSF1bQ0hdMltDSDJdW0NIMl1OKFtDSDJdW0NIMl0yKVtDSF0zW0NIMl1bQ0gyXTM=

> <s_epik_cmdline>
J2VwaWtfcHl0aG9uJywgJy1waCcsICc3LjAnLCAnLXRuJywgJzgnLCAnLW1hJywgJzIwMCcsICctbWV0YWxfYmluZGluZycsICctaW1hZScsICc8aW5maWxlLm1hZT4nLCAnLW9tYWUnLCAnPG91dGZpbGUubWFlPic=

> <r_lp_tautomer_probability>
0.999

> <r_epik_Ionization_Penalty>
6.4609

> <r_epik_Ionization_Penalty_Charging>
5.58663

> <r_epik_Ionization_Penalty_Neutral>
0.874262

> <r_epik_State_Penalty>
5.57752

> <r_epik_Charging_Adjusted_Penalty>
11.1642

> <i_epik_Tot_Q>
0

> <i_epik_Tot_abs_Q>
2

> <r_epik_Metal_State_Penalty>
1.58738

> <b_epik_Metal_Only>
1

> <s_lp_Force_Field>
OPLS_2005

> <r_lp_Energy>
15.8934

> <b_lp_Chiralities_Consistent>
1

> <s_lp_Variant>
AV-unprocessed.smi:1222-4

> <Gold.Version>
5.8.1

> <Gold.Id.Protein>
6NUR|6NUR_protein|mol2

> <Gold.PLP.Fitness>
40.6204

> <Gold.PLP.PLP>
-31.3999

> <Gold.PLP.part.hbond>
-2.0000

> <Gold.PLP.part.metal>
0.0000

> <Gold.PLP.part.buried>
-1.9228

> <Gold.PLP.part.nonpolar>
-26.1320

> <Gold.PLP.part.repulsive>
0.1318

> <Gold.PLP.ligand.clash>
0.0000

> <Gold.PLP.ligand.torsion>
2.0252

> <Gold.PLP.Chemscore.Hbond>
4.0000

> <Gold.PLP.Chemscore.CHOScore>
0.0000

> <Gold.PLP.Chemscore.Metal>
0.0000

> <Gold.Chemscore.Hbonds>
donor molecule, donor type, donor heavy atom, donor atom, acceptor molecule, acceptor atom, score
      L1  H    13    36       P1  8028  2.00
      P1  H  7997  8009       L1     3  2.00

> <Gold.PLP.Chemscore.Internal.Correction>
1.2708

> <Gold.Rescore>
     Score         DG    S(hbond)    S(metal)    S(lipo)     H(rot)  DE(clash)    DE(int)     intcor
     14.92     -16.86       1.91        0.00      70.09       1.25       0.06       1.89       ----

> <Gold.Chemscore.Fitness>
14.9175

> <Gold.Chemscore.DG>
-16.8649

> <Gold.Chemscore.ZeroCoef>
-5.4800

> <Gold.Chemscore.Hbond>
1.9092

> <Gold.Chemscore.Metal>
0.0000

> <Gold.Chemscore.Lipo>
70.0907

> <Gold.Chemscore.Internal_Hbond>
0.0000

> <Gold.Chemscore.DEClash>
0.0621

> <Gold.Chemscore.DEInternal>
1.8852

> <Gold.Chemscore.Rot>
1.2470

> <Gold.Chemscore.Internal.Correction>
   9.000000E+99

> <Gold.Chemscore.Hbonds>
donor molecule, donor type, donor heavy atom, donor atom, acceptor molecule, acceptor atom, score
      L1  H    13    36       P1  8028  0.89
      P1  H  7997  8009       L1     3  0.88

> <Gold.Chemscore.Hbond.Weighted>
-6.3767

> <Gold.Chemscore.Metal.Weighted>
-0.0000

> <Gold.Chemscore.Lipo.Weighted>
-8.2006

> <Gold.Chemscore.Internal_Hbond.Weighted>
0.0000

> <Gold.Chemscore.DEClash.Weighted>
0.0621

> <Gold.Chemscore.DEInternal.Weighted>
1.8852

> <Gold.Chemscore.Rot.Weighted>
3.1924

> <Gold.Chemscore.Internal.Correction.Weighted>
   9.000000E+99

> <Gold.Protein.RotatedTorsions>
[ 6907 6896 6895 6894 ] final   47.01 input  -60.11 | X-H torsion
[ 7974 7965 7964 7962 ] final   34.27 input  175.53 | X-H torsion
[ 8008 7997 7996 7995 ] final  145.73 input   59.86 | X-H torsion
[ 10167 10162 10161 10158 ] final   27.09 input  -65.29 | X-H torsion
[ 10718 10713 10712 10709 ] final  -90.01 input   66.30 | X-H torsion
[ 10763 10752 10751 10750 ] final  -45.99 input  -60.55 | X-H torsion
[ 11005 11000 10999 10996 ] final    3.25 input  -57.11 | X-H torsion

> <Gold.Protein.ActiveResidues>
 VAL166  LYS551  ARG553  GLY616  TRP617  ASP618  TYR619  PRO620  LYS621  CYS622 
 ASP623  PHE694  ASN695  SER759  ASP760  ASP761  ALA762  ILE779  LEU786  VAL792 
 PHE793  MET794  SER795  GLU796  ALA797  LYS798  CYS799  TRP800  GLU811  SER814 

> <Gold.Protein.RotatedAtoms>
  152.2631  134.8013  160.0427 H   0  0  0  0  0  0  0  0  0  0  0  0  # atno 6907 bound_to 6896
  151.8652  133.3460  159.3725 H   0  0  0  0  0  0  0  0  0  0  0  0  # atno 6908 bound_to 6896
  150.7124  134.5094  159.5644 H   0  0  0  0  0  0  0  0  0  0  0  0  # atno 6909 bound_to 6896
  146.1364  139.6290  142.9192 H   0  0  0  0  0  0  0  0  0  0  0  0  # atno 7974 bound_to 7965
  156.2875  140.2201  156.5262 H   0  0  0  0  0  0  0  0  0  0  0  0  # atno 8008 bound_to 7997
  154.7487  140.0482  157.0897 H   0  0  0  0  0  0  0  0  0  0  0  0  # atno 8009 bound_to 7997
  155.0137  140.3116  155.4823 H   0  0  0  0  0  0  0  0  0  0  0  0  # atno 8010 bound_to 7997
  140.4968  144.0379  150.6317 H   0  0  0  0  0  0  0  0  0  0  0  0  # atno 10167 bound_to 10162
  155.9986  130.4893  150.5258 H   0  0  0  0  0  0  0  0  0  0  0  0  # atno 10718 bound_to 10713
  154.0376  135.6648  153.4787 H   0  0  0  0  0  0  0  0  0  0  0  0  # atno 10763 bound_to 10752
  153.0515  135.5082  154.7873 H   0  0  0  0  0  0  0  0  0  0  0  0  # atno 10764 bound_to 10752
  154.6839  135.3049  154.9540 H   0  0  0  0  0  0  0  0  0  0  0  0  # atno 10765 bound_to 10752
  140.5953  133.9886  155.8107 H   0  0  0  0  0  0  0  0  0  0  0  0  # atno 11005 bound_to 11000
  145.5146  141.0434  143.2469 LP  0  0  0  0  0  0  0  0  0  0  0  0  # atno 17320 bound_to 7965
  144.7744  139.6662  143.7181 LP  0  0  0  0  0  0  0  0  0  0  0  0  # atno 17321 bound_to 7965
  140.3664  143.2879  152.0327 LP  0  0  0  0  0  0  0  0  0  0  0  0  # atno 17342 bound_to 10162
  139.4863  144.6264  151.7156 LP  0  0  0  0  0  0  0  0  0  0  0  0  # atno 17343 bound_to 10162
  157.3213  131.0682  151.1929 LP  0  0  0  0  0  0  0  0  0  0  0  0  # atno 17370 bound_to 10713
  157.2842  130.6764  149.6081 LP  0  0  0  0  0  0  0  0  0  0  0  0  # atno 17371 bound_to 10713
  141.0908  133.9919  157.3240 LP  0  0  0  0  0  0  0  0  0  0  0  0  # atno 17394 bound_to 11000
  139.9256  135.0201  156.8222 LP  0  0  0  0  0  0  0  0  0  0  0  0  # atno 17395 bound_to 11000

$$$$
