AV-unprocessed.smi:3315|AV-procd|sdf|12749|dock2
  -GOLD-   2272019 83D 1   1.00000     0.00000
 Structure written by MMmdl.
 37 38  0  0  0  0  0  0  0  0  1 V2000
  149.8007  141.5914  155.2144 C   0  0  0  0  0  0  0  0  0  0  0  0
  149.2088  141.4204  153.9330 O   0  0  0  0  0  0  0  0  0  0  0  0
  147.8562  140.9611  153.9156 C   0  0  1  0  0  0  0  0  0  0  0  0
  146.9339  142.0167  154.5451 C   0  0  0  0  0  0  0  0  0  0  0  0
  147.4570  140.3791  152.5472 C   0  0  0  0  0  0  0  0  0  0  0  0
  146.7888  139.2461  153.3234 C   0  0  1  0  0  0  0  0  0  0  0  0
  146.9159  137.9548  152.6561 N   0  0  0  0  0  0  0  0  0  0  0  0
  145.8827  137.1637  152.3362 C   0  0  0  0  0  0  0  0  0  0  0  0
  144.7101  137.4527  152.5754 O   0  0  0  0  0  0  0  0  0  0  0  0
  146.3011  136.0375  151.7345 N   0  0  0  0  0  0  0  0  0  0  0  0
  145.5222  134.9610  151.2367 C   0  0  0  0  0  0  0  0  0  0  0  0
  144.1015  134.9276  151.1232 C   0  0  0  0  0  0  0  0  0  0  0  0
  143.8703  133.6896  150.5948 C   0  0  0  0  0  0  0  0  0  0  0  0
  145.0389  133.0228  150.4026 O   0  0  0  0  0  0  0  0  0  0  0  0
  146.0929  133.8455  150.8181 N   0  0  0  0  0  0  0  0  0  0  0  0
  147.8114  139.4964  154.4614 C   0  0  0  0  0  0  0  0  0  0  0  0
  149.1338  138.7057  154.3942 C   0  0  0  0  0  0  0  0  0  0  0  0
  147.2832  139.3071  155.8870 C   0  0  0  0  0  0  0  0  0  0  0  0
  150.7856  142.0418  155.0937 H   0  0  0  0  0  0  0  0  0  0  0  0
  149.9410  140.6406  155.7274 H   0  0  0  0  0  0  0  0  0  0  0  0
  149.2125  142.2517  155.8521 H   0  0  0  0  0  0  0  0  0  0  0  0
  145.9182  141.6433  154.6744 H   0  0  0  0  0  0  0  0  0  0  0  0
  146.8544  142.9094  153.9256 H   0  0  0  0  0  0  0  0  0  0  0  0
  147.2957  142.3246  155.5264 H   0  0  0  0  0  0  0  0  0  0  0  0
  146.7694  140.9980  151.9702 H   0  0  0  0  0  0  0  0  0  0  0  0
  148.3066  140.0564  151.9425 H   0  0  0  0  0  0  0  0  0  0  0  0
  145.7640  139.4985  153.6055 H   0  0  0  0  0  0  0  0  0  0  0  0
  147.8493  137.6460  152.4271 H   0  0  0  0  0  0  0  0  0  0  0  0
  147.2978  135.9413  151.6084 H   0  0  0  0  0  0  0  0  0  0  0  0
  143.3638  135.6728  151.3792 H   0  0  0  0  0  0  0  0  0  0  0  0
  142.9721  133.1612  150.3117 H   0  0  0  0  0  0  0  0  0  0  0  0
  148.9809  137.6460  154.6012 H   0  0  0  0  0  0  0  0  0  0  0  0
  149.8557  139.0748  155.1235 H   0  0  0  0  0  0  0  0  0  0  0  0
  149.6080  138.7737  153.4152 H   0  0  0  0  0  0  0  0  0  0  0  0
  147.2230  138.2518  156.1558 H   0  0  0  0  0  0  0  0  0  0  0  0
  146.2807  139.7165  156.0093 H   0  0  0  0  0  0  0  0  0  0  0  0
  147.9265  139.7975  156.6182 H   0  0  0  0  0  0  0  0  0  0  0  0
  1  2  1  0  0  0  0
  1 19  1  0  0  0  0
  1 20  1  0  0  0  0
  1 21  1  0  0  0  0
  2  3  1  0  0  0  0
  3 16  1  0  0  0  0
  3  4  1  0  0  0  0
  3  5  1  0  0  0  0
  4 22  1  0  0  0  0
  4 23  1  0  0  0  0
  4 24  1  0  0  0  0
  5  6  1  0  0  0  0
  5 25  1  0  0  0  0
  5 26  1  0  0  0  0
  6  7  1  0  0  0  0
  6 16  1  0  0  0  0
  6 27  1  0  0  0  0
  7  8  1  0  0  0  0
  7 28  1  0  0  0  0
  8  9  2  0  0  0  0
  8 10  1  0  0  0  0
 10 11  1  0  0  0  0
 10 29  1  0  0  0  0
 11 15  2  0  0  0  0
 11 12  1  0  0  0  0
 12 13  2  0  0  0  0
 12 30  1  0  0  0  0
 13 14  1  0  0  0  0
 13 31  1  0  0  0  0
 14 15  1  0  0  0  0
 16 17  1  0  0  0  0
 16 18  1  0  0  0  0
 17 32  1  0  0  0  0
 17 33  1  0  0  0  0
 17 34  1  0  0  0  0
 18 35  1  0  0  0  0
 18 36  1  0  0  0  0
 18 37  1  0  0  0  0
M  END
> <s_m_source_file>
AV-unprocessed.smi

> <i_m_source_file_index>
3315

> <i_lp_mmshare_version>
43012

> <i_f3d_flags>
0

> <s_epik_input>
W0NIM11PW0NAQF0xKFtDSDNdKVtDSDJdW0NASF0oQzEoW0NIM10pW0NIM10pW05IXUMoPU8pW05IXWMyW2NIXVtjSF1vbjI=

> <s_epik_cmdline>
J2VwaWtfcHl0aG9uJywgJy1waCcsICc3LjAnLCAnLXRuJywgJzgnLCAnLW1hJywgJzIwMCcsICctbWV0YWxfYmluZGluZycsICctaW1hZScsICc8aW5maWxlLm1hZT4nLCAnLW9tYWUnLCAnPG91dGZpbGUubWFlPic=

> <r_lp_tautomer_probability>
1

> <r_epik_Ionization_Penalty>
2.28875e-05

> <r_epik_Ionization_Penalty_Charging>
0

> <r_epik_Ionization_Penalty_Neutral>
2.28875e-05

> <r_epik_State_Penalty>
-0

> <r_epik_Charging_Adjusted_Penalty>
0

> <i_epik_Tot_Q>
0

> <i_epik_Tot_abs_Q>
0

> <r_epik_Metal_State_Penalty>
-0

> <b_epik_Metal_Only>
0

> <s_lp_Force_Field>
OPLS_2005

> <r_lp_Energy>
23.7909

> <b_lp_Chiralities_Consistent>
1

> <s_lp_Variant>
AV-unprocessed.smi:3315-1

> <Gold.Version>
5.8.1

> <Gold.Id.Protein>
6NUR|6NUR_protein|mol2

> <Gold.PLP.Fitness>
36.1896

> <Gold.PLP.PLP>
-25.8085

> <Gold.PLP.part.hbond>
-4.0000

> <Gold.PLP.part.metal>
0.0000

> <Gold.PLP.part.buried>
-1.0945

> <Gold.PLP.part.nonpolar>
-22.3034

> <Gold.PLP.part.repulsive>
1.0969

> <Gold.PLP.ligand.clash>
0.0000

> <Gold.PLP.ligand.torsion>
0.2353

> <Gold.PLP.Chemscore.Hbond>
2.7120

> <Gold.PLP.Chemscore.CHOScore>
0.7819

> <Gold.PLP.Chemscore.Metal>
0.0000

> <Gold.Chemscore.Hbonds>
donor molecule, donor type, donor heavy atom, donor atom, acceptor molecule, acceptor atom, score
      L1  H     7    28       P1  7948  0.96
      L1  H    10    29       P1  7948  1.00
      P1  H  8011  8017       L1     2  0.75
      L1  C    13    31       P1 10186  0.80

> <Gold.PLP.Chemscore.Internal.Correction>
0.3699

> <Gold.Rescore>
     Score         DG    S(hbond)    S(metal)    S(lipo)     H(rot)  DE(clash)    DE(int)     intcor
     14.97     -17.89       2.63        0.00      59.45       1.30       1.71       1.21       ----

> <Gold.Chemscore.Fitness>
14.9697

> <Gold.Chemscore.DG>
-17.8888

> <Gold.Chemscore.ZeroCoef>
-5.4800

> <Gold.Chemscore.Hbond>
2.6318

> <Gold.Chemscore.Metal>
0.0000

> <Gold.Chemscore.Lipo>
59.4541

> <Gold.Chemscore.Internal_Hbond>
0.0000

> <Gold.Chemscore.DEClash>
1.7081

> <Gold.Chemscore.DEInternal>
1.2109

> <Gold.Chemscore.Rot>
1.3038

> <Gold.Chemscore.Internal.Correction>
   9.000000E+99

> <Gold.Chemscore.Hbonds>
donor molecule, donor type, donor heavy atom, donor atom, acceptor molecule, acceptor atom, score
      L1  H     7    28       P1  7948  0.92
      L1  H    10    29       P1  7948  0.99
      P1  H  8011  8017       L1     2  0.67

> <Gold.Chemscore.Hbond.Weighted>
-8.7904

> <Gold.Chemscore.Metal.Weighted>
-0.0000

> <Gold.Chemscore.Lipo.Weighted>
-6.9561

> <Gold.Chemscore.Internal_Hbond.Weighted>
0.0000

> <Gold.Chemscore.DEClash.Weighted>
1.7081

> <Gold.Chemscore.DEInternal.Weighted>
1.2109

> <Gold.Chemscore.Rot.Weighted>
3.3377

> <Gold.Chemscore.Internal.Correction.Weighted>
   9.000000E+99

> <Gold.Protein.RotatedTorsions>
[ 6907 6896 6895 6894 ] final  176.76 input  -60.11 | X-H torsion
[ 7974 7965 7964 7962 ] final  100.66 input  175.53 | X-H torsion
[ 8008 7997 7996 7995 ] final  -52.57 input   59.86 | X-H torsion
[ 10167 10162 10161 10158 ] final  -44.53 input  -65.29 | X-H torsion
[ 10718 10713 10712 10709 ] final   86.44 input   66.30 | X-H torsion
[ 10763 10752 10751 10750 ] final  -66.37 input  -60.55 | X-H torsion
[ 11005 11000 10999 10996 ] final   84.23 input  -57.11 | X-H torsion

> <Gold.Protein.ActiveResidues>
 VAL166  LYS551  ARG553  GLY616  TRP617  ASP618  TYR619  PRO620  LYS621  CYS622 
 ASP623  PHE694  ASN695  SER759  ASP760  ASP761  ALA762  ILE779  LEU786  VAL792 
 PHE793  MET794  SER795  GLU796  ALA797  LYS798  CYS799  TRP800  GLU811  SER814 

> <Gold.Protein.RotatedAtoms>
  151.7149  133.3313  159.3300 H   0  0  0  0  0  0  0  0  0  0  0  0  # atno 6907 bound_to 6896
  150.7678  134.6499  159.6292 H   0  0  0  0  0  0  0  0  0  0  0  0  # atno 6908 bound_to 6896
  152.3688  134.6767  160.0235 H   0  0  0  0  0  0  0  0  0  0  0  0  # atno 6909 bound_to 6896
  145.3826  139.2377  143.3395 H   0  0  0  0  0  0  0  0  0  0  0  0  # atno 7974 bound_to 7965
  154.4110  140.1221  156.5013 H   0  0  0  0  0  0  0  0  0  0  0  0  # atno 8008 bound_to 7997
  155.6892  140.3495  155.4867 H   0  0  0  0  0  0  0  0  0  0  0  0  # atno 8009 bound_to 7997
  155.9483  140.1100  157.0988 H   0  0  0  0  0  0  0  0  0  0  0  0  # atno 8010 bound_to 7997
  140.6893  143.2925  151.3509 H   0  0  0  0  0  0  0  0  0  0  0  0  # atno 10167 bound_to 10162
  157.6928  131.0215  150.2972 H   0  0  0  0  0  0  0  0  0  0  0  0  # atno 10718 bound_to 10713
  154.3588  135.6120  153.5680 H   0  0  0  0  0  0  0  0  0  0  0  0  # atno 10763 bound_to 10752
  152.9794  135.5810  154.4657 H   0  0  0  0  0  0  0  0  0  0  0  0  # atno 10764 bound_to 10752
  154.4391  135.2849  155.1837 H   0  0  0  0  0  0  0  0  0  0  0  0  # atno 10765 bound_to 10752
  139.9006  134.8202  156.2417 H   0  0  0  0  0  0  0  0  0  0  0  0  # atno 11005 bound_to 11000
  146.2835  140.4495  142.8767 LP  0  0  0  0  0  0  0  0  0  0  0  0  # atno 17320 bound_to 7965
  144.8497  140.6982  143.6176 LP  0  0  0  0  0  0  0  0  0  0  0  0  # atno 17321 bound_to 7965
  139.6280  144.0775  152.2452 LP  0  0  0  0  0  0  0  0  0  0  0  0  # atno 17342 bound_to 10162
  140.0241  144.6131  150.7542 LP  0  0  0  0  0  0  0  0  0  0  0  0  # atno 17343 bound_to 10162
  156.3494  130.3828  149.7342 LP  0  0  0  0  0  0  0  0  0  0  0  0  # atno 17370 bound_to 10713
  156.4825  130.8047  151.3061 LP  0  0  0  0  0  0  0  0  0  0  0  0  # atno 17371 bound_to 10713
  141.0281  133.7004  156.1382 LP  0  0  0  0  0  0  0  0  0  0  0  0  # atno 17394 bound_to 11000
  140.7137  134.4434  157.5580 LP  0  0  0  0  0  0  0  0  0  0  0  0  # atno 17395 bound_to 11000

$$$$
