AV-unprocessed.smi:1244|AV-procd|sdf|5227|dock10
  -GOLD-   22720 4323D 1   1.00000     0.00000
 Structure written by MMmdl.
 55 57  0  0  0  0  0  0  0  0  2 V2000
  152.2468  141.2146  158.4868 C   0  0  0  0  0  0  0  0  0  0  0  0
  152.3842  139.7067  158.2486 C   0  0  1  0  0  0  0  0  0  0  0  0
  151.8687  139.2934  156.8586 C   0  0  0  0  0  0  0  0  0  0  0  0
  152.0968  137.8482  156.6270 N   0  3  1  0  0  0  0  0  0  0  0  0
  151.5226  137.3867  155.3386 C   0  0  0  0  0  0  0  0  0  0  0  0
  149.9857  137.2858  155.3805 C   0  0  0  0  0  0  0  0  0  0  0  0
  149.4963  136.2371  154.4935 N   0  0  0  0  0  0  0  0  0  0  0  0
  149.3438  134.9517  154.8414 C   0  0  0  0  0  0  0  0  0  0  0  0
  149.5986  134.5185  155.9654 O   0  0  0  0  0  0  0  0  0  0  0  0
  148.8609  134.2230  153.8217 N   0  0  0  0  0  0  0  0  0  0  0  0
  148.5331  132.8381  153.8189 C   0  0  0  0  0  0  0  0  0  0  0  0
  149.2553  131.9088  154.6068 C   0  0  0  0  0  0  0  0  0  0  0  0
  148.9450  130.5411  154.5184 C   0  0  0  0  0  0  0  0  0  0  0  0
  147.9312  130.1462  153.6298 C   0  0  0  0  0  0  0  0  0  0  0  0
  147.2437  131.0163  152.8634 N   0  0  0  0  0  0  0  0  0  0  0  0
  147.5209  132.3410  152.9485 C   0  0  0  0  0  0  0  0  0  0  0  0
  146.7540  133.2081  152.1366 N   0  0  0  0  0  0  0  0  0  0  0  0
  145.9771  132.6811  151.0193 C   0  0  0  0  0  0  0  0  0  0  0  0
  145.0039  133.7976  150.6523 C   0  0  0  0  0  0  0  0  0  0  0  0
  144.6822  134.4097  152.0122 C   0  0  0  0  0  0  0  0  0  0  0  0
  145.9918  134.2658  152.7945 C   0  0  0  0  0  0  0  0  0  0  0  0
  153.5353  137.5217  156.7887 C   0  0  0  0  0  0  0  0  0  0  0  0
  154.0623  137.9881  158.1604 C   0  0  2  0  0  0  0  0  0  0  0  0
  153.5852  137.1120  159.3326 C   0  0  0  0  0  0  0  0  0  0  0  0
  153.7643  139.3695  158.3611 O   0  0  0  0  0  0  0  0  0  0  0  0
  151.2047  141.5293  158.4252 H   0  0  0  0  0  0  0  0  0  0  0  0
  152.8127  141.7843  157.7490 H   0  0  0  0  0  0  0  0  0  0  0  0
  152.6179  141.4889  159.4746 H   0  0  0  0  0  0  0  0  0  0  0  0
  151.8133  139.1900  159.0205 H   0  0  0  0  0  0  0  0  0  0  0  0
  150.8030  139.5146  156.7866 H   0  0  0  0  0  0  0  0  0  0  0  0
  152.3691  139.8706  156.0792 H   0  0  0  0  0  0  0  0  0  0  0  0
  151.8004  138.0971  154.5587 H   0  0  0  0  0  0  0  0  0  0  0  0
  151.9662  136.4307  155.0557 H   0  0  0  0  0  0  0  0  0  0  0  0
  149.6389  137.0461  156.3848 H   0  0  0  0  0  0  0  0  0  0  0  0
  149.5317  138.2418  155.1139 H   0  0  0  0  0  0  0  0  0  0  0  0
  149.2610  136.5073  153.5493 H   0  0  0  0  0  0  0  0  0  0  0  0
  148.6004  134.7309  152.9889 H   0  0  0  0  0  0  0  0  0  0  0  0
  150.0570  132.2207  155.2589 H   0  0  0  0  0  0  0  0  0  0  0  0
  149.4807  129.8118  155.1077 H   0  0  0  0  0  0  0  0  0  0  0  0
  147.6690  129.1038  153.5264 H   0  0  0  0  0  0  0  0  0  0  0  0
  146.6199  132.4115  150.1808 H   0  0  0  0  0  0  0  0  0  0  0  0
  145.4148  131.7959  151.3198 H   0  0  0  0  0  0  0  0  0  0  0  0
  145.5004  134.5347  150.0197 H   0  0  0  0  0  0  0  0  0  0  0  0
  144.1205  133.4356  150.1259 H   0  0  0  0  0  0  0  0  0  0  0  0
  144.3400  135.4426  151.9446 H   0  0  0  0  0  0  0  0  0  0  0  0
  143.8985  133.8272  152.4986 H   0  0  0  0  0  0  0  0  0  0  0  0
  145.8046  134.0453  153.8465 H   0  0  0  0  0  0  0  0  0  0  0  0
  146.5602  135.1945  152.7392 H   0  0  0  0  0  0  0  0  0  0  0  0
  153.7062  136.4512  156.6799 H   0  0  0  0  0  0  0  0  0  0  0  0
  154.1017  138.0119  155.9952 H   0  0  0  0  0  0  0  0  0  0  0  0
  155.1501  137.9162  158.1380 H   0  0  0  0  0  0  0  0  0  0  0  0
  153.9455  136.0890  159.2215 H   0  0  0  0  0  0  0  0  0  0  0  0
  152.4986  137.0661  159.4014 H   0  0  0  0  0  0  0  0  0  0  0  0
  153.9653  137.4924  160.2810 H   0  0  0  0  0  0  0  0  0  0  0  0
  151.5957  137.3621  157.3571 H   0  0  0  0  0  0  0  0  0  0  0  0
  1  2  1  0  0  0  0
  1 26  1  0  0  0  0
  1 27  1  0  0  0  0
  1 28  1  0  0  0  0
  2 25  1  0  0  0  0
  2  3  1  0  0  0  0
  2 29  1  0  0  0  0
  3  4  1  0  0  0  0
  3 30  1  0  0  0  0
  3 31  1  0  0  0  0
  4  5  1  0  0  0  0
  4 22  1  0  0  0  0
  4 55  1  0  0  0  0
  5  6  1  0  0  0  0
  5 32  1  0  0  0  0
  5 33  1  0  0  0  0
  6  7  1  0  0  0  0
  6 34  1  0  0  0  0
  6 35  1  0  0  0  0
  7  8  1  0  0  0  0
  7 36  1  0  0  0  0
  8  9  2  0  0  0  0
  8 10  1  0  0  0  0
 10 11  1  0  0  0  0
 10 37  1  0  0  0  0
 11 16  1  0  0  0  0
 11 12  2  0  0  0  0
 12 13  1  0  0  0  0
 12 38  1  0  0  0  0
 13 14  2  0  0  0  0
 13 39  1  0  0  0  0
 14 15  1  0  0  0  0
 14 40  1  0  0  0  0
 15 16  2  0  0  0  0
 16 17  1  0  0  0  0
 17 21  1  0  0  0  0
 17 18  1  0  0  0  0
 18 19  1  0  0  0  0
 18 41  1  0  0  0  0
 18 42  1  0  0  0  0
 19 20  1  0  0  0  0
 19 43  1  0  0  0  0
 19 44  1  0  0  0  0
 20 21  1  0  0  0  0
 20 45  1  0  0  0  0
 20 46  1  0  0  0  0
 21 47  1  0  0  0  0
 21 48  1  0  0  0  0
 22 23  1  0  0  0  0
 22 49  1  0  0  0  0
 22 50  1  0  0  0  0
 23 24  1  0  0  0  0
 23 25  1  0  0  0  0
 23 51  1  0  0  0  0
 24 52  1  0  0  0  0
 24 53  1  0  0  0  0
 24 54  1  0  0  0  0
M  CHG  1   4   1
M  END
> <s_m_source_file>
AV-unprocessed.smi

> <i_m_source_file_index>
1244

> <i_lp_mmshare_version>
43012

> <i_f3d_flags>
0

> <s_epik_input>
W0NIM11bQ0BASF0xW0NIMl1OKFtDSDJdW0NASF0oTzEpW0NIM10pW0NIMl1bQ0gyXVtOSF1DKD1PKVtOSF1jMltjSF1bY0hdW2NIXW5jMk4zW0NIMl1bQ0gyXVtDSDJdW0NIMl0z

> <s_epik_cmdline>
J2VwaWtfcHl0aG9uJywgJy1waCcsICc3LjAnLCAnLXRuJywgJzgnLCAnLW1hJywgJzIwMCcsICctbWV0YWxfYmluZGluZycsICctaW1hZScsICc8aW5maWxlLm1hZT4nLCAnLW9tYWUnLCAnPG91dGZpbGUubWFlPic=

> <r_lp_tautomer_probability>
1

> <r_epik_Ionization_Penalty>
0.684913

> <r_epik_Ionization_Penalty_Charging>
0.602531

> <r_epik_Ionization_Penalty_Neutral>
0.0823829

> <r_epik_State_Penalty>
0.678827

> <r_epik_Charging_Adjusted_Penalty>
1.28136

> <i_epik_Tot_Q>
1

> <i_epik_Tot_abs_Q>
1

> <r_epik_Metal_State_Penalty>
0.67806

> <b_epik_Metal_Only>
0

> <s_lp_Force_Field>
OPLS_2005

> <r_lp_Energy>
45.4089

> <b_lp_Chiralities_Consistent>
1

> <s_lp_Variant>
AV-unprocessed.smi:1244-7

> <Gold.Version>
5.8.1

> <Gold.Id.Protein>
6NUR|6NUR_protein|mol2

> <Gold.PLP.Fitness>
40.7794

> <Gold.PLP.PLP>
-33.3180

> <Gold.PLP.part.hbond>
-3.0000

> <Gold.PLP.part.metal>
0.0000

> <Gold.PLP.part.buried>
-4.5976

> <Gold.PLP.part.nonpolar>
-26.9319

> <Gold.PLP.part.repulsive>
1.2963

> <Gold.PLP.ligand.clash>
0.0000

> <Gold.PLP.ligand.torsion>
0.9220

> <Gold.PLP.Chemscore.Hbond>
2.9920

> <Gold.PLP.Chemscore.CHOScore>
0.0000

> <Gold.PLP.Chemscore.Metal>
0.0000

> <Gold.Chemscore.Hbonds>
donor molecule, donor type, donor heavy atom, donor atom, acceptor molecule, acceptor atom, score
      L1  H     7    36       P1  7948  1.00
      L1  H    10    37       P1  7948  0.93
      P1  H  7997  8008       L1    25  0.95

> <Gold.PLP.Chemscore.Internal.Correction>
0.3294

> <Gold.Rescore>
     Score         DG    S(hbond)    S(metal)    S(lipo)     H(rot)  DE(clash)    DE(int)     intcor
     15.39     -17.70       2.10        0.00      79.62       1.60       0.15       2.16       ----

> <Gold.Chemscore.Fitness>
15.3935

> <Gold.Chemscore.DG>
-17.7036

> <Gold.Chemscore.ZeroCoef>
-5.4800

> <Gold.Chemscore.Hbond>
2.0952

> <Gold.Chemscore.Metal>
0.0000

> <Gold.Chemscore.Lipo>
79.6248

> <Gold.Chemscore.Internal_Hbond>
0.0000

> <Gold.Chemscore.DEClash>
0.1493

> <Gold.Chemscore.DEInternal>
2.1607

> <Gold.Chemscore.Rot>
1.5978

> <Gold.Chemscore.Internal.Correction>
   9.000000E+99

> <Gold.Chemscore.Hbonds>
donor molecule, donor type, donor heavy atom, donor atom, acceptor molecule, acceptor atom, score
      L1  H     7    36       P1  7948  0.93
      L1  H    10    37       P1  7948  0.27
      P1  H  7997  8008       L1    25  0.18

> <Gold.Chemscore.Hbond.Weighted>
-6.9979

> <Gold.Chemscore.Metal.Weighted>
-0.0000

> <Gold.Chemscore.Lipo.Weighted>
-9.3161

> <Gold.Chemscore.Internal_Hbond.Weighted>
0.0000

> <Gold.Chemscore.DEClash.Weighted>
0.1493

> <Gold.Chemscore.DEInternal.Weighted>
2.1607

> <Gold.Chemscore.Rot.Weighted>
4.0905

> <Gold.Chemscore.Internal.Correction.Weighted>
   9.000000E+99

> <Gold.Protein.RotatedTorsions>
[ 6907 6896 6895 6894 ] final  -70.05 input  -60.11 | X-H torsion
[ 7974 7965 7964 7962 ] final  149.08 input  175.53 | X-H torsion
[ 8008 7997 7996 7995 ] final  -92.76 input   59.86 | X-H torsion
[ 10167 10162 10161 10158 ] final   42.66 input  -65.29 | X-H torsion
[ 10718 10713 10712 10709 ] final  178.79 input   66.30 | X-H torsion
[ 10763 10752 10751 10750 ] final   85.81 input  -60.55 | X-H torsion
[ 11005 11000 10999 10996 ] final  149.75 input  -57.11 | X-H torsion

> <Gold.Protein.ActiveResidues>
 VAL166  LYS551  ARG553  GLY616  TRP617  ASP618  TYR619  PRO620  LYS621  CYS622 
 ASP623  PHE694  ASN695  SER759  ASP760  ASP761  ALA762  ILE779  LEU786  VAL792 
 PHE793  MET794  SER795  GLU796  ALA797  LYS798  CYS799  TRP800  GLU811  SER814 

> <Gold.Protein.RotatedAtoms>
  150.7276  134.5508  159.5793 H   0  0  0  0  0  0  0  0  0  0  0  0  # atno 6907 bound_to 6896
  152.2996  134.7624  160.0370 H   0  0  0  0  0  0  0  0  0  0  0  0  # atno 6908 bound_to 6896
  151.8209  133.3359  159.3620 H   0  0  0  0  0  0  0  0  0  0  0  0  # atno 6909 bound_to 6896
  144.8465  139.6236  143.5993 H   0  0  0  0  0  0  0  0  0  0  0  0  # atno 7974 bound_to 7965
  154.7272  140.0505  157.0693 H   0  0  0  0  0  0  0  0  0  0  0  0  # atno 8008 bound_to 7997
  155.0349  140.3162  155.4726 H   0  0  0  0  0  0  0  0  0  0  0  0  # atno 8009 bound_to 7997
  156.2832  140.2143  156.5472 H   0  0  0  0  0  0  0  0  0  0  0  0  # atno 8010 bound_to 7997
  140.3522  144.2336  150.6145 H   0  0  0  0  0  0  0  0  0  0  0  0  # atno 10167 bound_to 10162
  156.8853  130.9829  151.3056 H   0  0  0  0  0  0  0  0  0  0  0  0  # atno 10718 bound_to 10713
  153.1510  135.4603  154.9637 H   0  0  0  0  0  0  0  0  0  0  0  0  # atno 10763 bound_to 10752
  154.7825  135.3193  154.7962 H   0  0  0  0  0  0  0  0  0  0  0  0  # atno 10764 bound_to 10752
  153.8467  135.6925  153.4851 H   0  0  0  0  0  0  0  0  0  0  0  0  # atno 10765 bound_to 10752
  140.1071  134.8947  157.1882 H   0  0  0  0  0  0  0  0  0  0  0  0  # atno 11005 bound_to 11000
  146.2748  139.6725  142.9271 LP  0  0  0  0  0  0  0  0  0  0  0  0  # atno 17320 bound_to 7965
  145.4587  141.0432  143.2763 LP  0  0  0  0  0  0  0  0  0  0  0  0  # atno 17321 bound_to 7965
  140.5208  143.2266  151.8392 LP  0  0  0  0  0  0  0  0  0  0  0  0  # atno 17342 bound_to 10162
  139.4825  144.4839  151.9272 LP  0  0  0  0  0  0  0  0  0  0  0  0  # atno 17343 bound_to 10162
  157.6116  130.8587  149.8960 LP  0  0  0  0  0  0  0  0  0  0  0  0  # atno 17370 bound_to 10713
  156.0656  130.3693  150.0886 LP  0  0  0  0  0  0  0  0  0  0  0  0  # atno 17371 bound_to 10713
  140.3141  134.2991  155.7260 LP  0  0  0  0  0  0  0  0  0  0  0  0  # atno 17394 bound_to 11000
  141.2121  133.7668  156.9818 LP  0  0  0  0  0  0  0  0  0  0  0  0  # atno 17395 bound_to 11000

$$$$
