AV-unprocessed.smi:2574|AV-procd|sdf|10114|dock5
  -GOLD-   2272014133D 1   1.00000     0.00000
 Structure written by MMmdl.
 38 40  0  0  0  0  0  0  0  0  1 V2000
  151.7876  134.1113  157.1354 O   0  0  0  0  0  0  0  0  0  0  0  0
  151.0303  133.8050  156.2140 C   0  0  0  0  0  0  0  0  0  0  0  0
  150.8735  132.4292  155.7179 C   0  0  0  0  0  0  0  0  0  0  0  0
  151.6974  131.3299  156.3834 C   0  0  0  0  0  0  0  0  0  0  0  0
  151.4753  130.1395  155.8241 F   0  0  0  0  0  0  0  0  0  0  0  0
  153.0011  131.5909  156.2804 F   0  0  0  0  0  0  0  0  0  0  0  0
  151.3917  131.2364  157.6779 F   0  0  0  0  0  0  0  0  0  0  0  0
  150.0231  132.1680  154.6952 C   0  0  0  0  0  0  0  0  0  0  0  0
  149.2630  133.2395  154.0838 C   0  0  0  0  0  0  0  0  0  0  0  0
  148.3111  133.0238  152.9421 C   0  0  0  0  0  0  0  0  0  0  0  0
  146.8669  133.4666  153.0014 C   0  0  0  0  0  0  0  0  0  0  0  0
  147.2075  131.9944  153.0140 C   0  0  0  0  0  0  0  0  0  0  0  0
  149.3974  134.4445  154.5249 N   0  0  0  0  0  0  0  0  0  0  0  0
  150.2610  134.7282  155.5654 N   0  0  0  0  0  0  0  0  0  0  0  0
  150.3109  136.1513  155.9244 C   0  0  0  0  0  0  0  0  0  0  0  0
  150.5136  137.0538  154.6878 C   0  0  2  0  0  0  0  0  0  0  0  0
  151.6754  136.6376  153.9968 O   0  0  0  0  0  0  0  0  0  0  0  0
  150.6073  138.5173  155.0936 C   0  0  0  0  0  0  0  0  0  0  0  0
  151.7031  138.9646  155.8630 C   0  0  0  0  0  0  0  0  0  0  0  0
  151.8049  140.3195  156.2337 C   0  0  0  0  0  0  0  0  0  0  0  0
  150.8125  141.2358  155.8361 C   0  0  0  0  0  0  0  0  0  0  0  0
  149.7190  140.7967  155.0654 C   0  0  0  0  0  0  0  0  0  0  0  0
  149.6170  139.4420  154.6936 C   0  0  0  0  0  0  0  0  0  0  0  0
  149.8947  131.1647  154.3176 H   0  0  0  0  0  0  0  0  0  0  0  0
  148.8222  133.1372  151.9878 H   0  0  0  0  0  0  0  0  0  0  0  0
  146.4947  133.8978  153.9290 H   0  0  0  0  0  0  0  0  0  0  0  0
  146.4303  133.8732  152.0916 H   0  0  0  0  0  0  0  0  0  0  0  0
  146.9954  131.4216  152.1136 H   0  0  0  0  0  0  0  0  0  0  0  0
  147.0701  131.4573  153.9509 H   0  0  0  0  0  0  0  0  0  0  0  0
  149.3535  136.3981  156.3879 H   0  0  0  0  0  0  0  0  0  0  0  0
  151.0538  136.3663  156.6946 H   0  0  0  0  0  0  0  0  0  0  0  0
  149.6688  136.9434  154.0064 H   0  0  0  0  0  0  0  0  0  0  0  0
  151.4691  136.5702  153.0772 H   0  0  0  0  0  0  0  0  0  0  0  0
  152.4720  138.2708  156.1702 H   0  0  0  0  0  0  0  0  0  0  0  0
  152.6457  140.6562  156.8220 H   0  0  0  0  0  0  0  0  0  0  0  0
  150.8914  142.2749  156.1194 H   0  0  0  0  0  0  0  0  0  0  0  0
  148.9591  141.4997  154.7575 H   0  0  0  0  0  0  0  0  0  0  0  0
  148.7771  139.1154  154.0974 H   0  0  0  0  0  0  0  0  0  0  0  0
  1  2  2  0  0  0  0
  2 14  1  0  0  0  0
  2  3  1  0  0  0  0
  3  4  1  0  0  0  0
  3  8  2  0  0  0  0
  4  5  1  0  0  0  0
  4  6  1  0  0  0  0
  4  7  1  0  0  0  0
  8  9  1  0  0  0  0
  8 24  1  0  0  0  0
  9 10  1  0  0  0  0
  9 13  2  0  0  0  0
 10 12  1  0  0  0  0
 10 11  1  0  0  0  0
 10 25  1  0  0  0  0
 11 12  1  0  0  0  0
 11 26  1  0  0  0  0
 11 27  1  0  0  0  0
 12 28  1  0  0  0  0
 12 29  1  0  0  0  0
 13 14  1  0  0  0  0
 14 15  1  0  0  0  0
 15 16  1  0  0  0  0
 15 30  1  0  0  0  0
 15 31  1  0  0  0  0
 16 17  1  0  0  0  0
 16 18  1  0  0  0  0
 16 32  1  0  0  0  0
 17 33  1  0  0  0  0
 18 23  1  0  0  0  0
 18 19  2  0  0  0  0
 19 20  1  0  0  0  0
 19 34  1  0  0  0  0
 20 21  2  0  0  0  0
 20 35  1  0  0  0  0
 21 22  1  0  0  0  0
 21 36  1  0  0  0  0
 22 23  2  0  0  0  0
 22 37  1  0  0  0  0
 23 38  1  0  0  0  0
M  END
> <s_m_source_file>
AV-unprocessed.smi

> <i_m_source_file_index>
2574

> <i_lp_mmshare_version>
43012

> <i_f3d_flags>
0

> <s_epik_input>
Tz1jMWMoQyhGKShGKUYpW2NIXWMoW0NIXTJbQ0gyXVtDSDJdMilubjFbQ0gyXVtDQEhdKFtPSF0pYzNbY0hdW2NIXVtjSF1bY0hdW2NIXTM=

> <s_epik_cmdline>
J2VwaWtfcHl0aG9uJywgJy1waCcsICc3LjAnLCAnLXRuJywgJzgnLCAnLW1hJywgJzIwMCcsICctbWV0YWxfYmluZGluZycsICctaW1hZScsICc8aW5maWxlLm1hZT4nLCAnLW9tYWUnLCAnPG91dGZpbGUubWFlPic=

> <r_lp_tautomer_probability>
1

> <r_epik_Ionization_Penalty>
7.26807e-08

> <r_epik_Ionization_Penalty_Charging>
9.677e-10

> <r_epik_Ionization_Penalty_Neutral>
7.1713e-08

> <r_epik_State_Penalty>
-0

> <r_epik_Charging_Adjusted_Penalty>
9.677e-10

> <i_epik_Tot_Q>
0

> <i_epik_Tot_abs_Q>
0

> <r_epik_Metal_State_Penalty>
-0

> <b_epik_Metal_Only>
0

> <s_lp_Force_Field>
OPLS_2005

> <r_lp_Energy>
33.7887

> <b_lp_Chiralities_Consistent>
1

> <s_lp_Variant>
AV-unprocessed.smi:2574-1

> <Gold.Version>
5.8.1

> <Gold.Id.Protein>
6NUR|6NUR_protein|mol2

> <Gold.PLP.Fitness>
49.2808

> <Gold.PLP.PLP>
-42.9096

> <Gold.PLP.part.hbond>
-3.0000

> <Gold.PLP.part.metal>
0.0000

> <Gold.PLP.part.buried>
-4.9058

> <Gold.PLP.part.nonpolar>
-36.5163

> <Gold.PLP.part.repulsive>
0.6136

> <Gold.PLP.ligand.clash>
0.4250

> <Gold.PLP.ligand.torsion>
0.2315

> <Gold.PLP.Chemscore.Hbond>
2.2075

> <Gold.PLP.Chemscore.CHOScore>
0.0000

> <Gold.PLP.Chemscore.Metal>
0.0000

> <Gold.Chemscore.Hbonds>
donor molecule, donor type, donor heavy atom, donor atom, acceptor molecule, acceptor atom, score
      L1  H    17    33       P1  7949  1.00
      P1  H  6896  6908       L1     1  0.13
      P1  H 10752 10763       L1    17  1.00

> <Gold.PLP.Chemscore.Internal.Correction>
0.6368

> <Gold.Rescore>
     Score         DG    S(hbond)    S(metal)    S(lipo)     H(rot)  DE(clash)    DE(int)     intcor
     12.49     -15.29       1.52        0.00      86.08       2.09       0.01       2.78       ----

> <Gold.Chemscore.Fitness>
12.4889

> <Gold.Chemscore.DG>
-15.2856

> <Gold.Chemscore.ZeroCoef>
-5.4800

> <Gold.Chemscore.Hbond>
1.5230

> <Gold.Chemscore.Metal>
0.0000

> <Gold.Chemscore.Lipo>
86.0760

> <Gold.Chemscore.Internal_Hbond>
0.0000

> <Gold.Chemscore.DEClash>
0.0137

> <Gold.Chemscore.DEInternal>
2.7830

> <Gold.Chemscore.Rot>
2.0906

> <Gold.Chemscore.Internal.Correction>
   9.000000E+99

> <Gold.Chemscore.Hbonds>
donor molecule, donor type, donor heavy atom, donor atom, acceptor molecule, acceptor atom, score
      L1  H    17    33       P1  7949  0.88
      P1  H  6896  6908       L1     1  0.13
      P1  H 10752 10763       L1    17  0.30

> <Gold.Chemscore.Hbond.Weighted>
-5.0868

> <Gold.Chemscore.Metal.Weighted>
-0.0000

> <Gold.Chemscore.Lipo.Weighted>
-10.0709

> <Gold.Chemscore.Internal_Hbond.Weighted>
0.0000

> <Gold.Chemscore.DEClash.Weighted>
0.0137

> <Gold.Chemscore.DEInternal.Weighted>
2.7830

> <Gold.Chemscore.Rot.Weighted>
5.3520

> <Gold.Chemscore.Internal.Correction.Weighted>
   9.000000E+99

> <Gold.Protein.RotatedTorsions>
[ 6907 6896 6895 6894 ] final   82.83 input  -60.11 | X-H torsion
[ 7974 7965 7964 7962 ] final -116.21 input  175.53 | X-H torsion
[ 8008 7997 7996 7995 ] final  102.81 input   59.86 | X-H torsion
[ 10167 10162 10161 10158 ] final -172.06 input  -65.29 | X-H torsion
[ 10718 10713 10712 10709 ] final   19.36 input   66.30 | X-H torsion
[ 10763 10752 10751 10750 ] final   30.05 input  -60.55 | X-H torsion
[ 11005 11000 10999 10996 ] final   77.37 input  -57.11 | X-H torsion

> <Gold.Protein.ActiveResidues>
 VAL166  LYS551  ARG553  GLY616  TRP617  ASP618  TYR619  PRO620  LYS621  CYS622 
 ASP623  PHE694  ASN695  SER759  ASP760  ASP761  ALA762  ILE779  LEU786  VAL792 
 PHE793  MET794  SER795  GLU796  ALA797  LYS798  CYS799  TRP800  GLU811  SER814 

> <Gold.Protein.RotatedAtoms>
  152.5310  134.2990  159.9071 H   0  0  0  0  0  0  0  0  0  0  0  0  # atno 6907 bound_to 6896
  151.2941  133.4145  159.2643 H   0  0  0  0  0  0  0  0  0  0  0  0  # atno 6908 bound_to 6896
  151.0175  134.9460  159.8098 H   0  0  0  0  0  0  0  0  0  0  0  0  # atno 6909 bound_to 6896
  145.0994  140.8542  143.3935 H   0  0  0  0  0  0  0  0  0  0  0  0  # atno 7974 bound_to 7965
  156.1427  140.3175  155.8520 H   0  0  0  0  0  0  0  0  0  0  0  0  # atno 8008 bound_to 7997
  155.4124  140.0507  157.3048 H   0  0  0  0  0  0  0  0  0  0  0  0  # atno 8009 bound_to 7997
  154.4989  140.2122  155.9399 H   0  0  0  0  0  0  0  0  0  0  0  0  # atno 8010 bound_to 7997
  139.5766  144.1518  152.1459 H   0  0  0  0  0  0  0  0  0  0  0  0  # atno 10167 bound_to 10162
  157.1093  130.6501  149.5893 H   0  0  0  0  0  0  0  0  0  0  0  0  # atno 10718 bound_to 10713
  153.0394  135.6474  154.0984 H   0  0  0  0  0  0  0  0  0  0  0  0  # atno 10763 bound_to 10752
  154.0693  135.2882  155.3312 H   0  0  0  0  0  0  0  0  0  0  0  0  # atno 10764 bound_to 10752
  154.6605  135.5393  153.8076 H   0  0  0  0  0  0  0  0  0  0  0  0  # atno 10765 bound_to 10752
  139.9257  134.7677  156.1514 H   0  0  0  0  0  0  0  0  0  0  0  0  # atno 11005 bound_to 11000
  145.0973  139.2847  143.5704 LP  0  0  0  0  0  0  0  0  0  0  0  0  # atno 17320 bound_to 7965
  146.3530  140.0529  142.8634 LP  0  0  0  0  0  0  0  0  0  0  0  0  # atno 17321 bound_to 7965
  140.1062  144.5497  150.6955 LP  0  0  0  0  0  0  0  0  0  0  0  0  # atno 17342 bound_to 10162
  140.7048  143.2460  151.4758 LP  0  0  0  0  0  0  0  0  0  0  0  0  # atno 17343 bound_to 10162
  155.9854  130.4884  150.7031 LP  0  0  0  0  0  0  0  0  0  0  0  0  # atno 17370 bound_to 10713
  157.4573  131.0879  151.0783 LP  0  0  0  0  0  0  0  0  0  0  0  0  # atno 17371 bound_to 10713
  141.0813  133.6753  156.2342 LP  0  0  0  0  0  0  0  0  0  0  0  0  # atno 17394 bound_to 11000
  140.6343  134.5232  157.5563 LP  0  0  0  0  0  0  0  0  0  0  0  0  # atno 17395 bound_to 11000

$$$$
