AV-unprocessed.smi:1383|AV-procd|sdf|5624|dock7
  -GOLD-   22720 5243D 1   1.00000     0.00000
 Structure written by MMmdl.
 30 30  0  0  0  0  0  0  0  0  2 V2000
  152.3984  143.6352  161.0563 C   0  0  0  0  0  0  0  0  0  0  0  0
  152.6359  142.9710  159.6910 C   0  0  0  0  0  0  0  0  0  0  0  0
  152.5566  141.4278  159.7134 C   0  0  2  0  0  0  0  0  0  0  0  0
  153.7390  140.8217  160.4887 C   0  0  0  0  0  0  0  0  0  0  0  0
  152.4994  140.8337  158.2928 C   0  0  0  0  0  0  0  0  0  0  0  0
  153.2685  139.9191  157.9905 O   0  0  0  0  0  0  0  0  0  0  0  0
  151.5581  141.4341  157.5247 N   0  5  0  0  0  0  0  0  0  0  0  0
  151.1026  140.8107  156.4273 C   0  0  0  0  0  0  0  0  0  0  0  0
  151.5961  139.6452  155.9953 N   0  0  0  0  0  0  0  0  0  0  0  0
  150.9878  139.1772  154.8266 C   0  0  0  0  0  0  0  0  0  0  0  0
  151.4318  137.8778  154.2187 C   0  0  0  0  0  0  0  0  0  0  0  0
  150.9708  136.6947  155.0736 C   0  0  0  0  0  0  0  0  0  0  0  0
  150.1099  135.8365  154.5191 N   0  0  0  0  0  0  0  0  0  0  0  0
  151.3965  136.5496  156.2179 O   0  0  0  0  0  0  0  0  0  0  0  0
  150.0048  140.0132  154.3625 C   0  0  0  0  0  0  0  0  0  0  0  0
  149.8229  141.4175  155.3744 S   0  0  0  0  0  0  0  0  0  0  0  0
  152.5252  144.7156  160.9871 H   0  0  0  0  0  0  0  0  0  0  0  0
  153.1035  143.2645  161.8007 H   0  0  0  0  0  0  0  0  0  0  0  0
  151.3905  143.4467  161.4268 H   0  0  0  0  0  0  0  0  0  0  0  0
  151.9255  143.3720  158.9666 H   0  0  0  0  0  0  0  0  0  0  0  0
  153.6225  143.2683  159.3343 H   0  0  0  0  0  0  0  0  0  0  0  0
  151.6502  141.1577  160.2600 H   0  0  0  0  0  0  0  0  0  0  0  0
  153.6894  139.7321  160.4982 H   0  0  0  0  0  0  0  0  0  0  0  0
  153.7375  141.1564  161.5263 H   0  0  0  0  0  0  0  0  0  0  0  0
  154.6956  141.1086  160.0502 H   0  0  0  0  0  0  0  0  0  0  0  0
  151.0343  137.7630  153.2095 H   0  0  0  0  0  0  0  0  0  0  0  0
  152.5181  137.8537  154.1251 H   0  0  0  0  0  0  0  0  0  0  0  0
  149.7972  135.0316  155.0437 H   0  0  0  0  0  0  0  0  0  0  0  0
  149.7908  135.9838  153.5729 H   0  0  0  0  0  0  0  0  0  0  0  0
  149.3832  139.8918  153.4882 H   0  0  0  0  0  0  0  0  0  0  0  0
  1  2  1  0  0  0  0
  1 17  1  0  0  0  0
  1 18  1  0  0  0  0
  1 19  1  0  0  0  0
  2  3  1  0  0  0  0
  2 20  1  0  0  0  0
  2 21  1  0  0  0  0
  3  4  1  0  0  0  0
  3  5  1  0  0  0  0
  3 22  1  0  0  0  0
  4 23  1  0  0  0  0
  4 24  1  0  0  0  0
  4 25  1  0  0  0  0
  5  6  2  0  0  0  0
  5  7  1  0  0  0  0
  7  8  1  0  0  0  0
  8 16  1  0  0  0  0
  8  9  2  0  0  0  0
  9 10  1  0  0  0  0
 10 11  1  0  0  0  0
 10 15  2  0  0  0  0
 11 12  1  0  0  0  0
 11 26  1  0  0  0  0
 11 27  1  0  0  0  0
 12 13  1  0  0  0  0
 12 14  2  0  0  0  0
 13 28  1  0  0  0  0
 13 29  1  0  0  0  0
 15 16  1  0  0  0  0
 15 30  1  0  0  0  0
M  CHG  1   7  -1
M  END
> <s_m_source_file>
AV-unprocessed.smi

> <i_m_source_file_index>
1383

> <i_lp_mmshare_version>
43012

> <i_f3d_flags>
0

> <s_epik_input>
W0NIM11bQ0gyXVtDQEhdKFtDSDNdKUMoPU8pW05IXWMxbmMoW2NIXXMxKVtDSDJdQyg9TylbTkgyXQ==

> <s_epik_cmdline>
J2VwaWtfcHl0aG9uJywgJy1waCcsICc3LjAnLCAnLXRuJywgJzgnLCAnLW1hJywgJzIwMCcsICctbWV0YWxfYmluZGluZycsICctaW1hZScsICc8aW5maWxlLm1hZT4nLCAnLW9tYWUnLCAnPG91dGZpbGUubWFlPic=

> <r_lp_tautomer_probability>
1

> <r_epik_Ionization_Penalty>
5.3563

> <r_epik_Ionization_Penalty_Charging>
4.90463

> <r_epik_Ionization_Penalty_Neutral>
0.451677

> <r_epik_State_Penalty>
4.90447

> <r_epik_Charging_Adjusted_Penalty>
9.8091

> <i_epik_Tot_Q>
-1

> <i_epik_Tot_abs_Q>
1

> <r_epik_Metal_State_Penalty>
1.05508

> <b_epik_Metal_Only>
1

> <s_lp_Force_Field>
OPLS_2005

> <r_lp_Energy>
-0.655456

> <b_lp_Chiralities_Consistent>
1

> <s_lp_Variant>
AV-unprocessed.smi:1383-3

> <Gold.Version>
5.8.1

> <Gold.Id.Protein>
6NUR|6NUR_protein|mol2

> <Gold.PLP.Fitness>
41.7070

> <Gold.PLP.PLP>
-33.4332

> <Gold.PLP.part.hbond>
-2.0000

> <Gold.PLP.part.metal>
0.0000

> <Gold.PLP.part.buried>
-2.8487

> <Gold.PLP.part.nonpolar>
-28.2094

> <Gold.PLP.part.repulsive>
0.0655

> <Gold.PLP.ligand.clash>
0.0000

> <Gold.PLP.ligand.torsion>
0.4234

> <Gold.PLP.Chemscore.Hbond>
2.0000

> <Gold.PLP.Chemscore.CHOScore>
1.0000

> <Gold.PLP.Chemscore.Metal>
0.0000

> <Gold.Chemscore.Hbonds>
donor molecule, donor type, donor heavy atom, donor atom, acceptor molecule, acceptor atom, score
      L1  H    13    29       P1  7948  0.80
      P1  H  7997  8009       L1     6  0.96
      L1  C    15    30       P1  7957  1.00

> <Gold.PLP.Chemscore.Internal.Correction>
0.1206

> <Gold.Rescore>
     Score         DG    S(hbond)    S(metal)    S(lipo)     H(rot)  DE(clash)    DE(int)     intcor
     12.78     -15.10       1.94        0.00      73.94       2.15       0.09       2.23       ----

> <Gold.Chemscore.Fitness>
12.7807

> <Gold.Chemscore.DG>
-15.1008

> <Gold.Chemscore.ZeroCoef>
-5.4800

> <Gold.Chemscore.Hbond>
1.9406

> <Gold.Chemscore.Metal>
0.0000

> <Gold.Chemscore.Lipo>
73.9434

> <Gold.Chemscore.Internal_Hbond>
0.0000

> <Gold.Chemscore.DEClash>
0.0918

> <Gold.Chemscore.DEInternal>
2.2283

> <Gold.Chemscore.Rot>
2.1532

> <Gold.Chemscore.Internal.Correction>
   9.000000E+99

> <Gold.Chemscore.Hbonds>
donor molecule, donor type, donor heavy atom, donor atom, acceptor molecule, acceptor atom, score
      L1  H    13    29       P1  7948  0.12
      P1  H  7997  8009       L1     6  0.91

> <Gold.Chemscore.Hbond.Weighted>
-6.4817

> <Gold.Chemscore.Metal.Weighted>
-0.0000

> <Gold.Chemscore.Lipo.Weighted>
-8.6514

> <Gold.Chemscore.Internal_Hbond.Weighted>
0.0000

> <Gold.Chemscore.DEClash.Weighted>
0.0918

> <Gold.Chemscore.DEInternal.Weighted>
2.2283

> <Gold.Chemscore.Rot.Weighted>
5.5123

> <Gold.Chemscore.Internal.Correction.Weighted>
   9.000000E+99

> <Gold.Protein.RotatedTorsions>
[ 6907 6896 6895 6894 ] final  -16.24 input  -60.11 | X-H torsion
[ 7974 7965 7964 7962 ] final -109.73 input  175.53 | X-H torsion
[ 8008 7997 7996 7995 ] final  173.25 input   59.86 | X-H torsion
[ 10167 10162 10161 10158 ] final  -56.91 input  -65.29 | X-H torsion
[ 10718 10713 10712 10709 ] final   13.26 input   66.30 | X-H torsion
[ 10763 10752 10751 10750 ] final   27.90 input  -60.55 | X-H torsion
[ 11005 11000 10999 10996 ] final   28.09 input  -57.11 | X-H torsion

> <Gold.Protein.ActiveResidues>
 VAL166  LYS551  ARG553  GLY616  TRP617  ASP618  TYR619  PRO620  LYS621  CYS622 
 ASP623  PHE694  ASN695  SER759  ASP760  ASP761  ALA762  ILE779  LEU786  VAL792 
 PHE793  MET794  SER795  GLU796  ALA797  LYS798  CYS799  TRP800  GLU811  SER814 

> <Gold.Protein.RotatedAtoms>
  151.3116  135.0796  159.9274 H   0  0  0  0  0  0  0  0  0  0  0  0  # atno 6907 bound_to 6896
  152.5276  133.9730  159.7781 H   0  0  0  0  0  0  0  0  0  0  0  0  # atno 6908 bound_to 6896
  151.0034  133.5982  159.2722 H   0  0  0  0  0  0  0  0  0  0  0  0  # atno 6909 bound_to 6896
  145.1769  140.8952  143.3503 H   0  0  0  0  0  0  0  0  0  0  0  0  # atno 7974 bound_to 7965
  156.1094  140.1465  156.9359 H   0  0  0  0  0  0  0  0  0  0  0  0  # atno 8008 bound_to 7997
  154.4756  140.0895  156.7297 H   0  0  0  0  0  0  0  0  0  0  0  0  # atno 8009 bound_to 7997
  155.4623  140.3439  155.4316 H   0  0  0  0  0  0  0  0  0  0  0  0  # atno 8010 bound_to 7997
  140.6289  143.2450  151.5292 H   0  0  0  0  0  0  0  0  0  0  0  0  # atno 10167 bound_to 10162
  157.0221  130.6159  149.5722 H   0  0  0  0  0  0  0  0  0  0  0  0  # atno 10718 bound_to 10713
  153.0526  135.6526  154.0656 H   0  0  0  0  0  0  0  0  0  0  0  0  # atno 10763 bound_to 10752
  154.0341  135.2909  155.3366 H   0  0  0  0  0  0  0  0  0  0  0  0  # atno 10764 bound_to 10752
  154.6823  135.5315  153.8346 H   0  0  0  0  0  0  0  0  0  0  0  0  # atno 10765 bound_to 10752
  140.3193  134.2562  155.7720 H   0  0  0  0  0  0  0  0  0  0  0  0  # atno 11005 bound_to 11000
  145.0176  139.3453  143.6089 LP  0  0  0  0  0  0  0  0  0  0  0  0  # atno 17320 bound_to 7965
  146.3459  139.9463  142.8734 LP  0  0  0  0  0  0  0  0  0  0  0  0  # atno 17321 bound_to 7965
  139.5505  144.2407  152.1522 LP  0  0  0  0  0  0  0  0  0  0  0  0  # atno 17342 bound_to 10162
  140.1645  144.4994  150.6614 LP  0  0  0  0  0  0  0  0  0  0  0  0  # atno 17343 bound_to 10162
  156.0099  130.5189  150.7953 LP  0  0  0  0  0  0  0  0  0  0  0  0  # atno 17370 bound_to 10713
  157.5242  131.0933  151.0040 LP  0  0  0  0  0  0  0  0  0  0  0  0  # atno 17371 bound_to 10713
  141.2090  133.7761  157.0022 LP  0  0  0  0  0  0  0  0  0  0  0  0  # atno 17394 bound_to 11000
  140.0956  134.9566  157.1844 LP  0  0  0  0  0  0  0  0  0  0  0  0  # atno 17395 bound_to 11000

$$$$
