AV-unprocessed.smi:723|AV-procd|sdf|3505|dock3
  -GOLD-   22720 0503D 1   1.00000     0.00000
 Structure written by MMmdl.
 42 44  0  0  0  0  0  0  0  0  1 V2000
  145.7053  135.9625  150.8655 C   0  0  0  0  0  0  0  0  0  0  0  0
  146.3267  137.2344  150.8170 O   0  0  0  0  0  0  0  0  0  0  0  0
  146.0177  138.0346  151.9468 C   0  0  0  0  0  0  0  0  0  0  0  0
  146.8369  139.3325  151.9097 C   0  0  0  0  0  0  0  0  0  0  0  0
  147.0472  139.8866  153.2345 N   0  0  0  0  0  0  0  0  0  0  0  0
  147.8820  140.9237  153.6006 C   0  0  0  0  0  0  0  0  0  0  0  0
  147.7337  141.0633  154.9477 C   0  0  0  0  0  0  0  0  0  0  0  0
  148.4195  142.0150  155.7434 N   0  0  0  0  0  0  0  0  0  0  0  0
  149.0871  141.7880  156.8863 C   0  0  0  0  0  0  0  0  0  0  0  0
  149.1739  140.6966  157.4495 O   0  0  0  0  0  0  0  0  0  0  0  0
  149.6596  142.9093  157.3446 N   0  0  0  0  0  0  0  0  0  0  0  0
  150.4593  143.0072  158.5225 C   0  0  2  0  0  0  0  0  0  0  0  0
  150.8149  144.4042  159.0104 C   0  0  1  0  0  0  0  0  0  0  0  0
  150.8556  144.6775  160.5073 C   0  0  0  0  0  0  0  0  0  0  0  0
  152.2191  144.3672  161.1461 C   0  0  0  0  0  0  0  0  0  0  0  0
  152.7626  143.0063  160.6923 C   0  0  0  0  0  0  0  0  0  0  0  0
  153.0326  143.0042  159.1793 C   0  0  0  0  0  0  0  0  0  0  0  0
  151.8646  143.5277  158.3578 C   0  0  1  0  0  0  0  0  0  0  0  0
  146.7831  140.0780  155.3379 C   0  0  0  0  0  0  0  0  0  0  0  0
  146.3757  139.3716  154.2941 N   0  0  0  0  0  0  0  0  0  0  0  0
  145.9727  135.3898  149.9775 H   0  0  0  0  0  0  0  0  0  0  0  0
  144.6187  136.0550  150.8914 H   0  0  0  0  0  0  0  0  0  0  0  0
  146.0302  135.3980  151.7405 H   0  0  0  0  0  0  0  0  0  0  0  0
  144.9533  138.2741  151.9523 H   0  0  0  0  0  0  0  0  0  0  0  0
  146.2325  137.4844  152.8645 H   0  0  0  0  0  0  0  0  0  0  0  0
  147.8050  139.1542  151.4391 H   0  0  0  0  0  0  0  0  0  0  0  0
  146.3262  140.0805  151.3022 H   0  0  0  0  0  0  0  0  0  0  0  0
  148.4952  141.4545  152.8873 H   0  0  0  0  0  0  0  0  0  0  0  0
  148.4250  142.9613  155.3922 H   0  0  0  0  0  0  0  0  0  0  0  0
  149.5305  143.7583  156.8139 H   0  0  0  0  0  0  0  0  0  0  0  0
  150.3109  142.2469  159.2880 H   0  0  0  0  0  0  0  0  0  0  0  0
  150.4358  145.2338  158.4161 H   0  0  0  0  0  0  0  0  0  0  0  0
  150.5951  145.7212  160.6857 H   0  0  0  0  0  0  0  0  0  0  0  0
  150.0785  144.0814  160.9870 H   0  0  0  0  0  0  0  0  0  0  0  0
  152.9334  145.1478  160.8813 H   0  0  0  0  0  0  0  0  0  0  0  0
  152.1283  144.3905  162.2324 H   0  0  0  0  0  0  0  0  0  0  0  0
  153.6843  142.7760  161.2274 H   0  0  0  0  0  0  0  0  0  0  0  0
  152.0537  142.2195  160.9518 H   0  0  0  0  0  0  0  0  0  0  0  0
  153.8982  143.6335  158.9700 H   0  0  0  0  0  0  0  0  0  0  0  0
  153.2873  142.0003  158.8390 H   0  0  0  0  0  0  0  0  0  0  0  0
  152.1465  143.7907  157.3395 H   0  0  0  0  0  0  0  0  0  0  0  0
  146.3812  139.8476  156.3132 H   0  0  0  0  0  0  0  0  0  0  0  0
  1  2  1  0  0  0  0
  1 21  1  0  0  0  0
  1 22  1  0  0  0  0
  1 23  1  0  0  0  0
  2  3  1  0  0  0  0
  3  4  1  0  0  0  0
  3 24  1  0  0  0  0
  3 25  1  0  0  0  0
  4  5  1  0  0  0  0
  4 26  1  0  0  0  0
  4 27  1  0  0  0  0
  5 20  1  0  0  0  0
  5  6  1  0  0  0  0
  6  7  2  0  0  0  0
  6 28  1  0  0  0  0
  7  8  1  0  0  0  0
  7 19  1  0  0  0  0
  8  9  1  0  0  0  0
  8 29  1  0  0  0  0
  9 10  2  0  0  0  0
  9 11  1  0  0  0  0
 11 12  1  0  0  0  0
 11 30  1  0  0  0  0
 12 18  1  0  0  0  0
 12 13  1  0  0  0  0
 12 31  1  0  0  0  0
 13 18  1  0  0  0  0
 13 14  1  0  0  0  0
 13 32  1  0  0  0  0
 14 15  1  0  0  0  0
 14 33  1  0  0  0  0
 14 34  1  0  0  0  0
 15 16  1  0  0  0  0
 15 35  1  0  0  0  0
 15 36  1  0  0  0  0
 16 17  1  0  0  0  0
 16 37  1  0  0  0  0
 16 38  1  0  0  0  0
 17 18  1  0  0  0  0
 17 39  1  0  0  0  0
 17 40  1  0  0  0  0
 18 41  1  0  0  0  0
 19 20  2  0  0  0  0
 19 42  1  0  0  0  0
M  END
> <s_m_source_file>
AV-unprocessed.smi

> <i_m_source_file_index>
723

> <i_lp_mmshare_version>
43012

> <i_f3d_flags>
0

> <s_epik_input>
W0NIM11PW0NIMl1bQ0gyXW4xW2NIXWMoW2NIXW4xKVtOSF1DKD1PKVtOSF1bQ0BIXTJbQ0BASF0oW0NAQEhdMjMpW0NIMl1bQ0gyXVtDSDJdW0NIMl0z

> <s_epik_cmdline>
J2VwaWtfcHl0aG9uJywgJy1waCcsICc3LjAnLCAnLXRuJywgJzgnLCAnLW1hJywgJzIwMCcsICctbWV0YWxfYmluZGluZycsICctaW1hZScsICc8aW5maWxlLm1hZT4nLCAnLW9tYWUnLCAnPG91dGZpbGUubWFlPic=

> <r_lp_tautomer_probability>
1

> <r_epik_Ionization_Penalty>
0.00031755

> <r_epik_Ionization_Penalty_Charging>
0

> <r_epik_Ionization_Penalty_Neutral>
0.00031755

> <r_epik_State_Penalty>
-0

> <r_epik_Charging_Adjusted_Penalty>
0

> <i_epik_Tot_Q>
0

> <i_epik_Tot_abs_Q>
0

> <r_epik_Metal_State_Penalty>
-0

> <b_epik_Metal_Only>
0

> <s_lp_Force_Field>
OPLS_2005

> <r_lp_Energy>
35.4859

> <b_lp_Chiralities_Consistent>
1

> <s_lp_Variant>
AV-unprocessed.smi:723-1

> <Gold.Version>
5.8.1

> <Gold.Id.Protein>
6NUR|6NUR_protein|mol2

> <Gold.PLP.Fitness>
47.8197

> <Gold.PLP.PLP>
-38.2080

> <Gold.PLP.part.hbond>
-3.0000

> <Gold.PLP.part.metal>
0.0000

> <Gold.PLP.part.buried>
-0.1291

> <Gold.PLP.part.nonpolar>
-37.7282

> <Gold.PLP.part.repulsive>
2.7055

> <Gold.PLP.ligand.clash>
0.0000

> <Gold.PLP.ligand.torsion>
0.7343

> <Gold.PLP.Chemscore.Hbond>
2.9833

> <Gold.PLP.Chemscore.CHOScore>
0.6955

> <Gold.PLP.Chemscore.Metal>
0.0000

> <Gold.Chemscore.Hbonds>
donor molecule, donor type, donor heavy atom, donor atom, acceptor molecule, acceptor atom, score
      L1  H     8    29       P1  8028  0.98
      L1  H    11    30       P1  8028  1.00
      P1  H  7954  7966       L1     2  0.71
      L1  C     6    28       P1  7957  0.73

> <Gold.PLP.Chemscore.Internal.Correction>
0.0443

> <Gold.Rescore>
     Score         DG    S(hbond)    S(metal)    S(lipo)     H(rot)  DE(clash)    DE(int)     intcor
     20.49     -24.50       2.67        0.00     120.42       1.56       3.42       0.59       ----

> <Gold.Chemscore.Fitness>
20.4920

> <Gold.Chemscore.DG>
-24.5011

> <Gold.Chemscore.ZeroCoef>
-5.4800

> <Gold.Chemscore.Hbond>
2.6742

> <Gold.Chemscore.Metal>
0.0000

> <Gold.Chemscore.Lipo>
120.4243

> <Gold.Chemscore.Internal_Hbond>
0.0000

> <Gold.Chemscore.DEClash>
3.4151

> <Gold.Chemscore.DEInternal>
0.5940

> <Gold.Chemscore.Rot>
1.5627

> <Gold.Chemscore.Internal.Correction>
   9.000000E+99

> <Gold.Chemscore.Hbonds>
donor molecule, donor type, donor heavy atom, donor atom, acceptor molecule, acceptor atom, score
      L1  H     8    29       P1  8028  0.93
      L1  H    11    30       P1  8028  0.94
      P1  H  7954  7966       L1     2  0.56

> <Gold.Chemscore.Hbond.Weighted>
-8.9319

> <Gold.Chemscore.Metal.Weighted>
-0.0000

> <Gold.Chemscore.Lipo.Weighted>
-14.0896

> <Gold.Chemscore.Internal_Hbond.Weighted>
0.0000

> <Gold.Chemscore.DEClash.Weighted>
3.4151

> <Gold.Chemscore.DEInternal.Weighted>
0.5940

> <Gold.Chemscore.Rot.Weighted>
4.0005

> <Gold.Chemscore.Internal.Correction.Weighted>
   9.000000E+99

> <Gold.Protein.RotatedTorsions>
[ 6907 6896 6895 6894 ] final  155.14 input  -60.11 | X-H torsion
[ 7974 7965 7964 7962 ] final  -72.91 input  175.53 | X-H torsion
[ 8008 7997 7996 7995 ] final   66.64 input   59.86 | X-H torsion
[ 10167 10162 10161 10158 ] final  169.08 input  -65.29 | X-H torsion
[ 10718 10713 10712 10709 ] final  -12.60 input   66.30 | X-H torsion
[ 10763 10752 10751 10750 ] final   20.53 input  -60.55 | X-H torsion
[ 11005 11000 10999 10996 ] final  -17.25 input  -57.11 | X-H torsion

> <Gold.Protein.ActiveResidues>
 VAL166  LYS551  ARG553  GLY616  TRP617  ASP618  TYR619  PRO620  LYS621  CYS622 
 ASP623  PHE694  ASN695  SER759  ASP760  ASP761  ALA762  ILE779  LEU786  VAL792 
 PHE793  MET794  SER795  GLU796  ALA797  LYS798  CYS799  TRP800  GLU811  SER814 

> <Gold.Protein.RotatedAtoms>
  152.0485  133.4008  159.4366 H   0  0  0  0  0  0  0  0  0  0  0  0  # atno 6907 bound_to 6896
  150.6871  134.3335  159.4846 H   0  0  0  0  0  0  0  0  0  0  0  0  # atno 6908 bound_to 6896
  152.1142  134.9252  160.0616 H   0  0  0  0  0  0  0  0  0  0  0  0  # atno 6909 bound_to 6896
  145.6591  140.9258  143.0944 H   0  0  0  0  0  0  0  0  0  0  0  0  # atno 7974 bound_to 7965
  155.6806  140.3496  155.4854 H   0  0  0  0  0  0  0  0  0  0  0  0  # atno 8008 bound_to 7997
  155.9610  140.1137  157.0918 H   0  0  0  0  0  0  0  0  0  0  0  0  # atno 8009 bound_to 7997
  154.4143  140.1175  156.5165 H   0  0  0  0  0  0  0  0  0  0  0  0  # atno 8010 bound_to 7997
  139.4983  144.3745  151.9689 H   0  0  0  0  0  0  0  0  0  0  0  0  # atno 10167 bound_to 10162
  156.6422  130.4931  149.6091 H   0  0  0  0  0  0  0  0  0  0  0  0  # atno 10718 bound_to 10713
  153.1069  135.6687  153.9569 H   0  0  0  0  0  0  0  0  0  0  0  0  # atno 10763 bound_to 10752
  153.9124  135.3023  155.3450 H   0  0  0  0  0  0  0  0  0  0  0  0  # atno 10764 bound_to 10752
  154.7490  135.5043  153.9332 H   0  0  0  0  0  0  0  0  0  0  0  0  # atno 10765 bound_to 10752
  140.8149  133.8112  155.9600 H   0  0  0  0  0  0  0  0  0  0  0  0  # atno 11005 bound_to 11000
  144.7095  139.8425  143.7419 LP  0  0  0  0  0  0  0  0  0  0  0  0  # atno 17320 bound_to 7965
  146.1140  139.4149  143.0270 LP  0  0  0  0  0  0  0  0  0  0  0  0  # atno 17321 bound_to 7965
  140.3181  144.3460  150.6016 LP  0  0  0  0  0  0  0  0  0  0  0  0  # atno 17342 bound_to 10162
  140.5745  143.2178  151.7540 LP  0  0  0  0  0  0  0  0  0  0  0  0  # atno 17343 bound_to 10162
  156.2150  130.6702  151.1309 LP  0  0  0  0  0  0  0  0  0  0  0  0  # atno 17370 bound_to 10713
  157.7167  131.0705  150.6298 LP  0  0  0  0  0  0  0  0  0  0  0  0  # atno 17371 bound_to 10713
  140.9159  134.2202  157.4957 LP  0  0  0  0  0  0  0  0  0  0  0  0  # atno 17394 bound_to 11000
  139.8712  134.9771  156.4946 LP  0  0  0  0  0  0  0  0  0  0  0  0  # atno 17395 bound_to 11000

$$$$
