AV-unprocessed.smi:2294|AV-procd|sdf|9217|dock10
  -GOLD-   2272012433D 1   1.00000     0.00000
 Structure written by MMmdl.
 34 35  0  0  0  0  0  0  0  0  1 V2000
  150.3728  138.0467  153.9997 C   0  0  0  0  0  0  0  0  0  0  0  0
  150.3056  139.0829  155.1073 C   0  0  0  0  0  0  0  0  0  0  0  0
  150.1902  140.4108  154.6858 N   0  0  0  0  0  0  0  0  0  0  0  0
  150.1331  141.3620  155.5597 C   0  0  0  0  0  0  0  0  0  0  0  0
  150.1785  141.1005  156.9387 N   0  0  0  0  0  0  0  0  0  0  0  0
  150.1156  142.2729  157.8280 C   0  0  0  0  0  0  0  0  0  0  0  0
  151.4842  142.9764  157.9651 C   0  0  1  0  0  0  0  0  0  0  0  0
  151.3598  144.3024  157.4875 O   0  0  0  0  0  0  0  0  0  0  0  0
  151.9697  142.9450  159.4089 C   0  0  0  0  0  0  0  0  0  0  0  0
  152.7013  141.8376  159.8948 C   0  0  0  0  0  0  0  0  0  0  0  0
  153.1548  141.8121  161.2277 C   0  0  0  0  0  0  0  0  0  0  0  0
  152.8848  142.8959  162.0841 C   0  0  0  0  0  0  0  0  0  0  0  0
  152.1644  144.0065  161.6051 C   0  0  0  0  0  0  0  0  0  0  0  0
  151.7095  144.0341  160.2722 C   0  0  0  0  0  0  0  0  0  0  0  0
  151.0239  145.1148  159.8281 F   0  0  0  0  0  0  0  0  0  0  0  0
  150.2902  139.8343  157.4353 C   0  0  0  0  0  0  0  0  0  0  0  0
  150.3358  139.6167  158.6477 O   0  0  0  0  0  0  0  0  0  0  0  0
  150.3573  138.7624  156.4290 C   0  0  0  0  0  0  0  0  0  0  0  0
  150.4869  137.3353  156.9471 C   0  0  0  0  0  0  0  0  0  0  0  0
  149.5535  137.3330  154.0928 H   0  0  0  0  0  0  0  0  0  0  0  0
  151.3170  137.5030  154.0434 H   0  0  0  0  0  0  0  0  0  0  0  0
  150.3002  138.5115  153.0154 H   0  0  0  0  0  0  0  0  0  0  0  0
  150.0515  142.4146  155.2832 H   0  0  0  0  0  0  0  0  0  0  0  0
  149.3457  142.9861  157.5257 H   0  0  0  0  0  0  0  0  0  0  0  0
  149.7895  141.9290  158.8117 H   0  0  0  0  0  0  0  0  0  0  0  0
  152.2272  142.4807  157.3400 H   0  0  0  0  0  0  0  0  0  0  0  0
  150.6528  144.3290  156.8608 H   0  0  0  0  0  0  0  0  0  0  0  0
  152.9201  141.0021  159.2460 H   0  0  0  0  0  0  0  0  0  0  0  0
  153.7110  140.9612  161.5926 H   0  0  0  0  0  0  0  0  0  0  0  0
  153.2326  142.8772  163.1066 H   0  0  0  0  0  0  0  0  0  0  0  0
  151.9611  144.8403  162.2609 H   0  0  0  0  0  0  0  0  0  0  0  0
  151.3921  137.2349  157.5470 H   0  0  0  0  0  0  0  0  0  0  0  0
  150.5374  136.5924  156.1526 H   0  0  0  0  0  0  0  0  0  0  0  0
  149.6329  137.0849  157.5773 H   0  0  0  0  0  0  0  0  0  0  0  0
  1  2  1  0  0  0  0
  1 20  1  0  0  0  0
  1 21  1  0  0  0  0
  1 22  1  0  0  0  0
  2 18  2  0  0  0  0
  2  3  1  0  0  0  0
  3  4  2  0  0  0  0
  4  5  1  0  0  0  0
  4 23  1  0  0  0  0
  5  6  1  0  0  0  0
  5 16  1  0  0  0  0
  6  7  1  0  0  0  0
  6 24  1  0  0  0  0
  6 25  1  0  0  0  0
  7  8  1  0  0  0  0
  7  9  1  0  0  0  0
  7 26  1  0  0  0  0
  8 27  1  0  0  0  0
  9 14  1  0  0  0  0
  9 10  2  0  0  0  0
 10 11  1  0  0  0  0
 10 28  1  0  0  0  0
 11 12  2  0  0  0  0
 11 29  1  0  0  0  0
 12 13  1  0  0  0  0
 12 30  1  0  0  0  0
 13 14  2  0  0  0  0
 13 31  1  0  0  0  0
 14 15  1  0  0  0  0
 16 17  2  0  0  0  0
 16 18  1  0  0  0  0
 18 19  1  0  0  0  0
 19 32  1  0  0  0  0
 19 33  1  0  0  0  0
 19 34  1  0  0  0  0
M  END
> <s_m_source_file>
AV-unprocessed.smi

> <i_m_source_file_index>
2294

> <i_lp_mmshare_version>
43012

> <i_f3d_flags>
0

> <s_epik_input>
W0NIM11jMW5bY0hdbihjKD1PKWMxW0NIM10pW0NIMl1bQ0BIXShbT0hdKWMyW2NIXVtjSF1bY0hdW2NIXWMyRg==

> <s_epik_cmdline>
J2VwaWtfcHl0aG9uJywgJy1waCcsICc3LjAnLCAnLXRuJywgJzgnLCAnLW1hJywgJzIwMCcsICctbWV0YWxfYmluZGluZycsICctaW1hZScsICc8aW5maWxlLm1hZT4nLCAnLW9tYWUnLCAnPG91dGZpbGUubWFlPic=

> <r_lp_tautomer_probability>
1

> <r_epik_Ionization_Penalty>
5.07259e-05

> <r_epik_Ionization_Penalty_Charging>
7.56727e-08

> <r_epik_Ionization_Penalty_Neutral>
5.06502e-05

> <r_epik_State_Penalty>
-0

> <r_epik_Charging_Adjusted_Penalty>
7.56727e-08

> <i_epik_Tot_Q>
0

> <i_epik_Tot_abs_Q>
0

> <r_epik_Metal_State_Penalty>
-0

> <b_epik_Metal_Only>
0

> <s_lp_Force_Field>
OPLS_2005

> <r_lp_Energy>
19.7062

> <b_lp_Chiralities_Consistent>
1

> <s_lp_Variant>
AV-unprocessed.smi:2294-2

> <Gold.Version>
5.8.1

> <Gold.Id.Protein>
6NUR|6NUR_protein|mol2

> <Gold.PLP.Fitness>
49.1657

> <Gold.PLP.PLP>
-43.8641

> <Gold.PLP.part.hbond>
-2.0000

> <Gold.PLP.part.metal>
0.0000

> <Gold.PLP.part.buried>
-6.3844

> <Gold.PLP.part.nonpolar>
-35.6866

> <Gold.PLP.part.repulsive>
0.1027

> <Gold.PLP.ligand.clash>
0.0000

> <Gold.PLP.ligand.torsion>
1.7689

> <Gold.PLP.Chemscore.Hbond>
1.9440

> <Gold.PLP.Chemscore.CHOScore>
1.0000

> <Gold.PLP.Chemscore.Metal>
0.0000

> <Gold.Chemscore.Hbonds>
donor molecule, donor type, donor heavy atom, donor atom, acceptor molecule, acceptor atom, score
      L1  H     8    27       P1  8028  0.71
      P1  H  7989  7998       L1     3  0.99
      L1  C     4    23       P1  8028  0.81

> <Gold.PLP.Chemscore.Internal.Correction>
0.0074

> <Gold.Rescore>
     Score         DG    S(hbond)    S(metal)    S(lipo)     H(rot)  DE(clash)    DE(int)     intcor
     16.06     -18.60       1.74        0.00     106.59       2.02       0.21       2.33       ----

> <Gold.Chemscore.Fitness>
16.0578

> <Gold.Chemscore.DG>
-18.5977

> <Gold.Chemscore.ZeroCoef>
-5.4800

> <Gold.Chemscore.Hbond>
1.7403

> <Gold.Chemscore.Metal>
0.0000

> <Gold.Chemscore.Lipo>
106.5926

> <Gold.Chemscore.Internal_Hbond>
0.0000

> <Gold.Chemscore.DEClash>
0.2063

> <Gold.Chemscore.DEInternal>
2.3335

> <Gold.Chemscore.Rot>
2.0181

> <Gold.Chemscore.Internal.Correction>
   9.000000E+99

> <Gold.Chemscore.Hbonds>
donor molecule, donor type, donor heavy atom, donor atom, acceptor molecule, acceptor atom, score
      L1  H     8    27       P1  8028  0.69
      P1  H  7989  7998       L1     3  0.40

> <Gold.Chemscore.Hbond.Weighted>
-5.8127

> <Gold.Chemscore.Metal.Weighted>
-0.0000

> <Gold.Chemscore.Lipo.Weighted>
-12.4713

> <Gold.Chemscore.Internal_Hbond.Weighted>
0.0000

> <Gold.Chemscore.DEClash.Weighted>
0.2063

> <Gold.Chemscore.DEInternal.Weighted>
2.3335

> <Gold.Chemscore.Rot.Weighted>
5.1663

> <Gold.Chemscore.Internal.Correction.Weighted>
   9.000000E+99

> <Gold.Protein.RotatedTorsions>
[ 6907 6896 6895 6894 ] final   82.05 input  -60.11 | X-H torsion
[ 7974 7965 7964 7962 ] final -148.69 input  175.53 | X-H torsion
[ 8008 7997 7996 7995 ] final  -23.41 input   59.86 | X-H torsion
[ 10167 10162 10161 10158 ] final   71.38 input  -65.29 | X-H torsion
[ 10718 10713 10712 10709 ] final  -51.08 input   66.30 | X-H torsion
[ 10763 10752 10751 10750 ] final   59.29 input  -60.55 | X-H torsion
[ 11005 11000 10999 10996 ] final -100.16 input  -57.11 | X-H torsion

> <Gold.Protein.ActiveResidues>
 VAL166  LYS551  ARG553  GLY616  TRP617  ASP618  TYR619  PRO620  LYS621  CYS622 
 ASP623  PHE694  ASN695  SER759  ASP760  ASP761  ALA762  ILE779  LEU786  VAL792 
 PHE793  MET794  SER795  GLU796  ALA797  LYS798  CYS799  TRP800  GLU811  SER814 

> <Gold.Protein.RotatedAtoms>
  152.5287  134.3110  159.9113 H   0  0  0  0  0  0  0  0  0  0  0  0  # atno 6907 bound_to 6896
  151.3059  133.4095  159.2651 H   0  0  0  0  0  0  0  0  0  0  0  0  # atno 6908 bound_to 6896
  151.0079  134.9390  159.8048 H   0  0  0  0  0  0  0  0  0  0  0  0  # atno 6909 bound_to 6896
  144.8014  140.5164  143.5705 H   0  0  0  0  0  0  0  0  0  0  0  0  # atno 7974 bound_to 7965
  154.4587  140.1981  156.0306 H   0  0  0  0  0  0  0  0  0  0  0  0  # atno 8008 bound_to 7997
  156.0797  140.3273  155.7650 H   0  0  0  0  0  0  0  0  0  0  0  0  # atno 8009 bound_to 7997
  155.5131  140.0563  157.2911 H   0  0  0  0  0  0  0  0  0  0  0  0  # atno 8010 bound_to 7997
  140.0467  144.5345  150.7393 H   0  0  0  0  0  0  0  0  0  0  0  0  # atno 10167 bound_to 10162
  156.1742  130.4149  149.9602 H   0  0  0  0  0  0  0  0  0  0  0  0  # atno 10718 bound_to 10713
  152.9891  135.5576  154.5690 H   0  0  0  0  0  0  0  0  0  0  0  0  # atno 10763 bound_to 10752
  154.5094  135.2801  155.1357 H   0  0  0  0  0  0  0  0  0  0  0  0  # atno 10764 bound_to 10752
  154.2755  135.6355  153.5379 H   0  0  0  0  0  0  0  0  0  0  0  0  # atno 10765 bound_to 10752
  141.1281  133.8377  157.1066 H   0  0  0  0  0  0  0  0  0  0  0  0  # atno 11005 bound_to 11000
  145.5544  139.1477  143.3376 LP  0  0  0  0  0  0  0  0  0  0  0  0  # atno 17320 bound_to 7965
  146.2296  140.5682  142.8981 LP  0  0  0  0  0  0  0  0  0  0  0  0  # atno 17321 bound_to 7965
  140.7235  143.2612  151.4198 LP  0  0  0  0  0  0  0  0  0  0  0  0  # atno 17342 bound_to 10162
  139.5979  144.1358  152.2165 LP  0  0  0  0  0  0  0  0  0  0  0  0  # atno 17343 bound_to 10162
  156.7393  130.9073  151.3631 LP  0  0  0  0  0  0  0  0  0  0  0  0  # atno 17370 bound_to 10713
  157.6824  130.9152  150.0300 LP  0  0  0  0  0  0  0  0  0  0  0  0  # atno 17371 bound_to 10713
  140.0300  134.9905  157.0762 LP  0  0  0  0  0  0  0  0  0  0  0  0  # atno 17394 bound_to 11000
  140.4300  134.1790  155.7168 LP  0  0  0  0  0  0  0  0  0  0  0  0  # atno 17395 bound_to 11000

$$$$
