AV-unprocessed.smi:549|AV-procd|sdf|2892|dock1
  -GOLD-   2262023383D 1   1.00000     0.00000
 Structure written by MMmdl.
 43 44  0  0  0  0  0  0  0  0  1 V2000
  144.8331  131.8018  150.8543 C   0  0  0  0  0  0  0  0  0  0  0  0
  143.8030  132.6080  151.4909 N   0  0  0  0  0  0  0  0  0  0  0  0
  144.0747  133.9188  151.9060 C   0  0  0  0  0  0  0  0  0  0  0  0
  143.0564  134.6481  152.5532 C   0  0  0  0  0  0  0  0  0  0  0  0
  143.3268  135.9641  152.9734 C   0  0  0  0  0  0  0  0  0  0  0  0
  144.6057  136.5098  152.7456 C   0  0  0  0  0  0  0  0  0  0  0  0
  144.8466  137.8462  153.1620 N   0  0  0  0  0  0  0  0  0  0  0  0
  145.9506  138.3531  153.7367 C   0  0  0  0  0  0  0  0  0  0  0  0
  146.9521  137.7081  154.0461 O   0  0  0  0  0  0  0  0  0  0  0  0
  145.8190  139.6680  153.9609 N   0  0  0  0  0  0  0  0  0  0  0  0
  146.8262  140.5194  154.5868 C   0  0  0  0  0  0  0  0  0  0  0  0
  148.1060  140.5692  153.7355 C   0  0  0  0  0  0  0  0  0  0  0  0
  149.2037  141.4005  154.4222 C   0  0  0  0  0  0  0  0  0  0  0  0
  149.4694  140.9267  155.7954 N   0  0  0  0  0  0  0  0  0  0  0  0
  150.8630  139.9356  156.1188 S   0  0  0  0  0  0  0  0  0  0  0  0
  151.7991  140.8770  157.3921 C   0  0  0  0  0  0  0  0  0  0  0  0
  150.3920  138.6828  156.7288 O   0  0  0  0  0  0  0  0  0  0  0  0
  151.6759  139.8893  154.8938 O   0  0  0  0  0  0  0  0  0  0  0  0
  148.2718  140.8190  156.6526 C   0  0  0  0  0  0  0  0  0  0  0  0
  147.1673  139.9819  155.9841 C   0  0  0  0  0  0  0  0  0  0  0  0
  145.5566  135.7020  152.0762 C   0  0  0  0  0  0  0  0  0  0  0  0
  145.3012  134.4402  151.6689 N   0  0  0  0  0  0  0  0  0  0  0  0
  144.4334  130.8204  150.6000 H   0  0  0  0  0  0  0  0  0  0  0  0
  145.6833  131.6613  151.5224 H   0  0  0  0  0  0  0  0  0  0  0  0
  145.1827  132.2761  149.9367 H   0  0  0  0  0  0  0  0  0  0  0  0
  142.8769  132.2222  151.6061 H   0  0  0  0  0  0  0  0  0  0  0  0
  142.0834  134.2112  152.7256 H   0  0  0  0  0  0  0  0  0  0  0  0
  142.5606  136.5430  153.4684 H   0  0  0  0  0  0  0  0  0  0  0  0
  144.0685  138.4804  153.0556 H   0  0  0  0  0  0  0  0  0  0  0  0
  144.9587  140.1142  153.6783 H   0  0  0  0  0  0  0  0  0  0  0  0
  146.4268  141.5298  154.6950 H   0  0  0  0  0  0  0  0  0  0  0  0
  148.4672  139.5583  153.5491 H   0  0  0  0  0  0  0  0  0  0  0  0
  147.8889  140.9987  152.7569 H   0  0  0  0  0  0  0  0  0  0  0  0
  150.1184  141.3840  153.8303 H   0  0  0  0  0  0  0  0  0  0  0  0
  148.8902  142.4439  154.4736 H   0  0  0  0  0  0  0  0  0  0  0  0
  152.7004  140.3221  157.6520 H   0  0  0  0  0  0  0  0  0  0  0  0
  151.1899  140.9992  158.2860 H   0  0  0  0  0  0  0  0  0  0  0  0
  152.0857  141.8504  156.9986 H   0  0  0  0  0  0  0  0  0  0  0  0
  148.5343  140.3954  157.6216 H   0  0  0  0  0  0  0  0  0  0  0  0
  147.8981  141.8246  156.8484 H   0  0  0  0  0  0  0  0  0  0  0  0
  146.2763  139.9896  156.6128 H   0  0  0  0  0  0  0  0  0  0  0  0
  147.4809  138.9408  155.9155 H   0  0  0  0  0  0  0  0  0  0  0  0
  146.5432  136.0637  151.8321 H   0  0  0  0  0  0  0  0  0  0  0  0
  1  2  1  0  0  0  0
  1 23  1  0  0  0  0
  1 24  1  0  0  0  0
  1 25  1  0  0  0  0
  2  3  1  0  0  0  0
  2 26  1  0  0  0  0
  3 22  1  0  0  0  0
  3  4  2  0  0  0  0
  4  5  1  0  0  0  0
  4 27  1  0  0  0  0
  5  6  2  0  0  0  0
  5 28  1  0  0  0  0
  6  7  1  0  0  0  0
  6 21  1  0  0  0  0
  7  8  1  0  0  0  0
  7 29  1  0  0  0  0
  8  9  2  0  0  0  0
  8 10  1  0  0  0  0
 10 11  1  0  0  0  0
 10 30  1  0  0  0  0
 11 20  1  0  0  0  0
 11 12  1  0  0  0  0
 11 31  1  0  0  0  0
 12 13  1  0  0  0  0
 12 32  1  0  0  0  0
 12 33  1  0  0  0  0
 13 14  1  0  0  0  0
 13 34  1  0  0  0  0
 13 35  1  0  0  0  0
 14 15  1  0  0  0  0
 14 19  1  0  0  0  0
 15 16  1  0  0  0  0
 15 17  2  0  0  0  0
 15 18  2  0  0  0  0
 16 36  1  0  0  0  0
 16 37  1  0  0  0  0
 16 38  1  0  0  0  0
 19 20  1  0  0  0  0
 19 39  1  0  0  0  0
 19 40  1  0  0  0  0
 20 41  1  0  0  0  0
 20 42  1  0  0  0  0
 21 22  2  0  0  0  0
 21 43  1  0  0  0  0
M  END
> <s_m_source_file>
AV-unprocessed.smi

> <i_m_source_file_index>
549

> <i_lp_mmshare_version>
43012

> <i_f3d_flags>
0

> <s_epik_input>
W0NIM11bTkhdYzFbY0hdW2NIXWMoW2NIXW4xKVtOSF1DKD1PKVtOSF1bQ0hdMltDSDJdW0NIMl1OKFMoPU8pKD1PKVtDSDNdKVtDSDJdW0NIMl0y

> <s_epik_cmdline>
J2VwaWtfcHl0aG9uJywgJy1waCcsICc3LjAnLCAnLXRuJywgJzgnLCAnLW1hJywgJzIwMCcsICctbWV0YWxfYmluZGluZycsICctaW1hZScsICc8aW5maWxlLm1hZT4nLCAnLW9tYWUnLCAnPG91dGZpbGUubWFlPic=

> <r_lp_tautomer_probability>
1

> <r_epik_Ionization_Penalty>
0.374305

> <r_epik_Ionization_Penalty_Charging>
0

> <r_epik_Ionization_Penalty_Neutral>
0.374305

> <r_epik_State_Penalty>
0.371422

> <r_epik_Charging_Adjusted_Penalty>
0.371422

> <i_epik_Tot_Q>
0

> <i_epik_Tot_abs_Q>
0

> <r_epik_Metal_State_Penalty>
0.225857

> <b_epik_Metal_Only>
0

> <s_lp_Force_Field>
OPLS_2005

> <r_lp_Energy>
1.99328

> <b_lp_Chiralities_Consistent>
1

> <s_lp_Variant>
AV-unprocessed.smi:549-1

> <Gold.Version>
5.8.1

> <Gold.Id.Protein>
6NUR|6NUR_protein|mol2

> <Gold.PLP.Fitness>
41.4361

> <Gold.PLP.PLP>
-30.7484

> <Gold.PLP.part.hbond>
-2.9814

> <Gold.PLP.part.metal>
0.0000

> <Gold.PLP.part.buried>
-4.2112

> <Gold.PLP.part.nonpolar>
-23.6667

> <Gold.PLP.part.repulsive>
0.3971

> <Gold.PLP.ligand.clash>
0.0000

> <Gold.PLP.ligand.torsion>
1.3757

> <Gold.PLP.Chemscore.Hbond>
2.7920

> <Gold.PLP.Chemscore.CHOScore>
1.0000

> <Gold.PLP.Chemscore.Metal>
0.0000

> <Gold.Chemscore.Hbonds>
donor molecule, donor type, donor heavy atom, donor atom, acceptor molecule, acceptor atom, score
      L1  H     7    29       P1 10175  0.70
      L1  H    10    30       P1 10175  1.00
      P1  H  7989  7998       L1    18  1.00
      L1  C    21    43       P1  7948  1.00

> <Gold.PLP.Chemscore.Internal.Correction>
2.0632

> <Gold.Rescore>
     Score         DG    S(hbond)    S(metal)    S(lipo)     H(rot)  DE(clash)    DE(int)     intcor
     16.42     -19.38       2.88        0.00      58.44       1.00       0.51       2.45       ----

> <Gold.Chemscore.Fitness>
16.4221

> <Gold.Chemscore.DG>
-19.3813

> <Gold.Chemscore.ZeroCoef>
-5.4800

> <Gold.Chemscore.Hbond>
2.8816

> <Gold.Chemscore.Metal>
0.0000

> <Gold.Chemscore.Lipo>
58.4356

> <Gold.Chemscore.Internal_Hbond>
0.0000

> <Gold.Chemscore.DEClash>
0.5059

> <Gold.Chemscore.DEInternal>
2.4533

> <Gold.Chemscore.Rot>
1.0000

> <Gold.Chemscore.Internal.Correction>
   9.000000E+99

> <Gold.Chemscore.Hbonds>
donor molecule, donor type, donor heavy atom, donor atom, acceptor molecule, acceptor atom, score
      L1  H     7    29       P1 10175  0.68
      L1  H    10    30       P1 10175  0.97
      P1  H  7989  7998       L1    18  0.97

> <Gold.Chemscore.Hbond.Weighted>
-9.6244

> <Gold.Chemscore.Metal.Weighted>
-0.0000

> <Gold.Chemscore.Lipo.Weighted>
-6.8370

> <Gold.Chemscore.Internal_Hbond.Weighted>
0.0000

> <Gold.Chemscore.DEClash.Weighted>
0.5059

> <Gold.Chemscore.DEInternal.Weighted>
2.4533

> <Gold.Chemscore.Rot.Weighted>
2.5600

> <Gold.Chemscore.Internal.Correction.Weighted>
   9.000000E+99

> <Gold.Protein.RotatedTorsions>
[ 6907 6896 6895 6894 ] final  -16.08 input  -60.11 | X-H torsion
[ 7974 7965 7964 7962 ] final  -97.62 input  175.53 | X-H torsion
[ 8008 7997 7996 7995 ] final  -27.51 input   59.86 | X-H torsion
[ 10167 10162 10161 10158 ] final  131.32 input  -65.29 | X-H torsion
[ 10718 10713 10712 10709 ] final   -0.13 input   66.30 | X-H torsion
[ 10763 10752 10751 10750 ] final   86.02 input  -60.55 | X-H torsion
[ 11005 11000 10999 10996 ] final  -83.35 input  -57.11 | X-H torsion

> <Gold.Protein.ActiveResidues>
 VAL166  LYS551  ARG553  GLY616  TRP617  ASP618  TYR619  PRO620  LYS621  CYS622 
 ASP623  PHE694  ASN695  SER759  ASP760  ASP761  ALA762  ILE779  LEU786  VAL792 
 PHE793  MET794  SER795  GLU796  ALA797  LYS798  CYS799  TRP800  GLU811  SER814 

> <Gold.Protein.RotatedAtoms>
  151.3140  135.0801  159.9282 H   0  0  0  0  0  0  0  0  0  0  0  0  # atno 6907 bound_to 6896
  152.5271  133.9706  159.7771 H   0  0  0  0  0  0  0  0  0  0  0  0  # atno 6908 bound_to 6896
  151.0015  133.5999  159.2724 H   0  0  0  0  0  0  0  0  0  0  0  0  # atno 6909 bound_to 6896
  145.3314  140.9442  143.2660 H   0  0  0  0  0  0  0  0  0  0  0  0  # atno 7974 bound_to 7965
  154.4374  140.1870  156.0943 H   0  0  0  0  0  0  0  0  0  0  0  0  # atno 8008 bound_to 7997
  156.0341  140.3327  155.7146 H   0  0  0  0  0  0  0  0  0  0  0  0  # atno 8009 bound_to 7997
  155.5796  140.0620  157.2777 H   0  0  0  0  0  0  0  0  0  0  0  0  # atno 8010 bound_to 7997
  139.5389  144.6711  151.4690 H   0  0  0  0  0  0  0  0  0  0  0  0  # atno 10167 bound_to 10162
  156.8250  130.5469  149.5693 H   0  0  0  0  0  0  0  0  0  0  0  0  # atno 10718 bound_to 10713
  153.1530  135.4596  154.9664 H   0  0  0  0  0  0  0  0  0  0  0  0  # atno 10763 bound_to 10752
  154.7839  135.3197  154.7931 H   0  0  0  0  0  0  0  0  0  0  0  0  # atno 10764 bound_to 10752
  153.8433  135.6928  153.4855 H   0  0  0  0  0  0  0  0  0  0  0  0  # atno 10765 bound_to 10752
  141.1658  133.7290  156.8707 H   0  0  0  0  0  0  0  0  0  0  0  0  # atno 11005 bound_to 11000
  144.8861  139.4837  143.6700 LP  0  0  0  0  0  0  0  0  0  0  0  0  # atno 17320 bound_to 7965
  146.3044  139.7531  142.9067 LP  0  0  0  0  0  0  0  0  0  0  0  0  # atno 17321 bound_to 7965
  140.6610  143.8498  150.6888 LP  0  0  0  0  0  0  0  0  0  0  0  0  # atno 17342 bound_to 10162
  140.1893  143.4050  152.1875 LP  0  0  0  0  0  0  0  0  0  0  0  0  # atno 17343 bound_to 10162
  156.0967  130.5937  150.9825 LP  0  0  0  0  0  0  0  0  0  0  0  0  # atno 17370 bound_to 10713
  157.6437  131.0907  150.8198 LP  0  0  0  0  0  0  0  0  0  0  0  0  # atno 17371 bound_to 10713
  140.1783  134.9051  157.2918 LP  0  0  0  0  0  0  0  0  0  0  0  0  # atno 17394 bound_to 11000
  140.2423  134.3780  155.7475 LP  0  0  0  0  0  0  0  0  0  0  0  0  # atno 17395 bound_to 11000

$$$$
