AV-unprocessed.smi:1838|AV-procd|sdf|7483|dock5
  -GOLD-   22720 9183D 1   1.00000     0.00000
 Structure written by MMmdl.
 35 36  0  0  0  0  0  0  0  0  1 V2000
  151.6107  138.2642  154.4853 C   0  0  0  0  0  0  0  0  0  0  0  0
  150.2372  138.1979  154.1169 O   0  0  0  0  0  0  0  0  0  0  0  0
  149.4900  139.3604  154.1415 C   0  0  0  0  0  0  0  0  0  0  0  0
  150.0613  140.4812  154.6498 N   0  0  0  0  0  0  0  0  0  0  0  0
  149.3360  141.6173  154.6763 C   0  0  0  0  0  0  0  0  0  0  0  0
  148.0146  141.6971  154.2018 C   0  0  0  0  0  0  0  0  0  0  0  0
  147.4192  140.5363  153.6743 C   0  0  0  0  0  0  0  0  0  0  0  0
  148.1675  139.3331  153.6383 C   0  0  0  0  0  0  0  0  0  0  0  0
  147.6813  138.0931  153.1326 N   0  0  0  0  0  0  0  0  0  0  0  0
  146.4185  137.6783  152.9310 C   0  0  0  0  0  0  0  0  0  0  0  0
  145.4014  138.3347  153.1508 O   0  0  0  0  0  0  0  0  0  0  0  0
  146.3974  136.4294  152.4446 N   0  0  0  0  0  0  0  0  0  0  0  0
  145.1939  135.6579  152.1396 C   0  0  1  0  0  0  0  0  0  0  0  0
  145.3336  134.9269  150.7909 C   0  0  0  0  0  0  0  0  0  0  0  0
  144.1528  133.9760  150.5768 C   0  0  0  0  0  0  0  0  0  0  0  0
  144.0664  132.9598  151.7271 C   0  0  0  0  0  0  0  0  0  0  0  0
  144.2164  133.5688  153.0497 N   0  0  0  0  0  0  0  0  0  0  0  0
  144.7871  134.7565  153.3192 C   0  0  0  0  0  0  0  0  0  0  0  0
  144.9476  135.1411  154.4765 O   0  0  0  0  0  0  0  0  0  0  0  0
  152.0502  137.2691  154.4184 H   0  0  0  0  0  0  0  0  0  0  0  0
  151.7320  138.6101  155.5130 H   0  0  0  0  0  0  0  0  0  0  0  0
  152.1720  138.9193  153.8174 H   0  0  0  0  0  0  0  0  0  0  0  0
  149.8237  142.4884  155.0881 H   0  0  0  0  0  0  0  0  0  0  0  0
  147.4687  142.6281  154.2417 H   0  0  0  0  0  0  0  0  0  0  0  0
  146.4059  140.6051  153.3143 H   0  0  0  0  0  0  0  0  0  0  0  0
  148.4010  137.4270  152.8918 H   0  0  0  0  0  0  0  0  0  0  0  0
  147.2800  135.9617  152.2983 H   0  0  0  0  0  0  0  0  0  0  0  0
  144.3635  136.3600  152.0435 H   0  0  0  0  0  0  0  0  0  0  0  0
  145.3832  135.6462  149.9726 H   0  0  0  0  0  0  0  0  0  0  0  0
  146.2662  134.3610  150.7661 H   0  0  0  0  0  0  0  0  0  0  0  0
  143.2281  134.5526  150.5259 H   0  0  0  0  0  0  0  0  0  0  0  0
  144.2482  133.4575  149.6223 H   0  0  0  0  0  0  0  0  0  0  0  0
  143.1180  132.4236  151.6852 H   0  0  0  0  0  0  0  0  0  0  0  0
  144.8532  132.2129  151.6151 H   0  0  0  0  0  0  0  0  0  0  0  0
  143.9184  133.0104  153.8367 H   0  0  0  0  0  0  0  0  0  0  0  0
  1  2  1  0  0  0  0
  1 20  1  0  0  0  0
  1 21  1  0  0  0  0
  1 22  1  0  0  0  0
  2  3  1  0  0  0  0
  3  8  1  0  0  0  0
  3  4  2  0  0  0  0
  4  5  1  0  0  0  0
  5  6  2  0  0  0  0
  5 23  1  0  0  0  0
  6  7  1  0  0  0  0
  6 24  1  0  0  0  0
  7  8  2  0  0  0  0
  7 25  1  0  0  0  0
  8  9  1  0  0  0  0
  9 10  1  0  0  0  0
  9 26  1  0  0  0  0
 10 11  2  0  0  0  0
 10 12  1  0  0  0  0
 12 13  1  0  0  0  0
 12 27  1  0  0  0  0
 13 18  1  0  0  0  0
 13 14  1  0  0  0  0
 13 28  1  0  0  0  0
 14 15  1  0  0  0  0
 14 29  1  0  0  0  0
 14 30  1  0  0  0  0
 15 16  1  0  0  0  0
 15 31  1  0  0  0  0
 15 32  1  0  0  0  0
 16 17  1  0  0  0  0
 16 33  1  0  0  0  0
 16 34  1  0  0  0  0
 17 18  1  0  0  0  0
 17 35  1  0  0  0  0
 18 19  2  0  0  0  0
M  END
> <s_m_source_file>
AV-unprocessed.smi

> <i_m_source_file_index>
1838

> <i_lp_mmshare_version>
43012

> <i_f3d_flags>
0

> <s_epik_input>
W0NIM11PYzFuW2NIXVtjSF1bY0hdYzFbTkhdQyg9TylbTkhdW0NAQEhdMltDSDJdW0NIMl1bQ0gyXVtOSF1DMj1P

> <s_epik_cmdline>
J2VwaWtfcHl0aG9uJywgJy1waCcsICc3LjAnLCAnLXRuJywgJzgnLCAnLW1hJywgJzIwMCcsICctbWV0YWxfYmluZGluZycsICctaW1hZScsICc8aW5maWxlLm1hZT4nLCAnLW9tYWUnLCAnPG91dGZpbGUubWFlPic=

> <r_lp_tautomer_probability>
1

> <r_epik_Ionization_Penalty>
8.30645e-05

> <r_epik_Ionization_Penalty_Charging>
0

> <r_epik_Ionization_Penalty_Neutral>
8.30645e-05

> <r_epik_State_Penalty>
-0

> <r_epik_Charging_Adjusted_Penalty>
0

> <i_epik_Tot_Q>
0

> <i_epik_Tot_abs_Q>
0

> <r_epik_Metal_State_Penalty>
-0

> <b_epik_Metal_Only>
0

> <s_lp_Force_Field>
OPLS_2005

> <r_lp_Energy>
12.0006

> <b_lp_Chiralities_Consistent>
1

> <s_lp_Variant>
AV-unprocessed.smi:1838-2

> <Gold.Version>
5.8.1

> <Gold.Id.Protein>
6NUR|6NUR_protein|mol2

> <Gold.PLP.Fitness>
41.9584

> <Gold.PLP.PLP>
-28.3102

> <Gold.PLP.part.hbond>
-4.0000

> <Gold.PLP.part.metal>
0.0000

> <Gold.PLP.part.buried>
-1.4015

> <Gold.PLP.part.nonpolar>
-25.2676

> <Gold.PLP.part.repulsive>
2.5062

> <Gold.PLP.ligand.clash>
0.0000

> <Gold.PLP.ligand.torsion>
0.4127

> <Gold.PLP.Chemscore.Hbond>
3.8160

> <Gold.PLP.Chemscore.CHOScore>
0.9938

> <Gold.PLP.Chemscore.Metal>
0.0000

> <Gold.Chemscore.Hbonds>
donor molecule, donor type, donor heavy atom, donor atom, acceptor molecule, acceptor atom, score
      L1  H     9    26       P1  7948  0.98
      L1  H    12    27       P1  7948  0.88
      L1  H    17    35       P1 10957  1.00
      P1  H  7989  7998       L1     4  0.91
      L1  C     5    23       P1  8028  0.99

> <Gold.PLP.Chemscore.Internal.Correction>
0.0442

> <Gold.Rescore>
     Score         DG    S(hbond)    S(metal)    S(lipo)     H(rot)  DE(clash)    DE(int)     intcor
     16.72     -19.49       3.15        0.00      58.79       1.33       1.38       1.39       ----

> <Gold.Chemscore.Fitness>
16.7203

> <Gold.Chemscore.DG>
-19.4893

> <Gold.Chemscore.ZeroCoef>
-5.4800

> <Gold.Chemscore.Hbond>
3.1538

> <Gold.Chemscore.Metal>
0.0000

> <Gold.Chemscore.Lipo>
58.7896

> <Gold.Chemscore.Internal_Hbond>
0.0000

> <Gold.Chemscore.DEClash>
1.3806

> <Gold.Chemscore.DEInternal>
1.3884

> <Gold.Chemscore.Rot>
1.3292

> <Gold.Chemscore.Internal.Correction>
   9.000000E+99

> <Gold.Chemscore.Hbonds>
donor molecule, donor type, donor heavy atom, donor atom, acceptor molecule, acceptor atom, score
      L1  H     9    26       P1  7948  0.93
      L1  H    12    27       P1  7948  0.87
      L1  H    17    35       P1 10957  0.90
      P1  H  7989  7998       L1     4  0.24

> <Gold.Chemscore.Hbond.Weighted>
-10.5336

> <Gold.Chemscore.Metal.Weighted>
-0.0000

> <Gold.Chemscore.Lipo.Weighted>
-6.8784

> <Gold.Chemscore.Internal_Hbond.Weighted>
0.0000

> <Gold.Chemscore.DEClash.Weighted>
1.3806

> <Gold.Chemscore.DEInternal.Weighted>
1.3884

> <Gold.Chemscore.Rot.Weighted>
3.4027

> <Gold.Chemscore.Internal.Correction.Weighted>
   9.000000E+99

> <Gold.Protein.RotatedTorsions>
[ 6907 6896 6895 6894 ] final  -54.31 input  -60.11 | X-H torsion
[ 7974 7965 7964 7962 ] final  136.93 input  175.53 | X-H torsion
[ 8008 7997 7996 7995 ] final   39.77 input   59.86 | X-H torsion
[ 10167 10162 10161 10158 ] final   10.38 input  -65.29 | X-H torsion
[ 10718 10713 10712 10709 ] final   -6.90 input   66.30 | X-H torsion
[ 10763 10752 10751 10750 ] final -140.62 input  -60.55 | X-H torsion
[ 11005 11000 10999 10996 ] final  -66.87 input  -57.11 | X-H torsion

> <Gold.Protein.ActiveResidues>
 VAL166  LYS551  ARG553  GLY616  TRP617  ASP618  TYR619  PRO620  LYS621  CYS622 
 ASP623  PHE694  ASN695  SER759  ASP760  ASP761  ALA762  ILE779  LEU786  VAL792 
 PHE793  MET794  SER795  GLU796  ALA797  LYS798  CYS799  TRP800  GLU811  SER814 

> <Gold.Protein.RotatedAtoms>
  150.8349  134.7618  159.6884 H   0  0  0  0  0  0  0  0  0  0  0  0  # atno 6907 bound_to 6896
  152.4447  134.5515  159.9878 H   0  0  0  0  0  0  0  0  0  0  0  0  # atno 6908 bound_to 6896
  151.5667  133.3358  159.3017 H   0  0  0  0  0  0  0  0  0  0  0  0  # atno 6909 bound_to 6896
  144.9517  139.4811  143.5522 H   0  0  0  0  0  0  0  0  0  0  0  0  # atno 7974 bound_to 7965
  155.2421  140.3346  155.4291 H   0  0  0  0  0  0  0  0  0  0  0  0  # atno 8008 bound_to 7997
  156.2251  140.1826  156.7426 H   0  0  0  0  0  0  0  0  0  0  0  0  # atno 8009 bound_to 7997
  154.5887  140.0641  156.9192 H   0  0  0  0  0  0  0  0  0  0  0  0  # atno 8010 bound_to 7997
  140.6197  143.8230  150.7161 H   0  0  0  0  0  0  0  0  0  0  0  0  # atno 10167 bound_to 10162
  156.7251  130.5163  149.5859 H   0  0  0  0  0  0  0  0  0  0  0  0  # atno 10718 bound_to 10713
  154.8572  135.3548  154.5736 H   0  0  0  0  0  0  0  0  0  0  0  0  # atno 10763 bound_to 10752
  153.6349  135.7001  153.5267 H   0  0  0  0  0  0  0  0  0  0  0  0  # atno 10764 bound_to 10752
  153.3019  135.4204  155.1219 H   0  0  0  0  0  0  0  0  0  0  0  0  # atno 10765 bound_to 10752
  141.1493  133.6708  156.6206 H   0  0  0  0  0  0  0  0  0  0  0  0  # atno 11005 bound_to 11000
  146.3323  139.8607  142.8857 LP  0  0  0  0  0  0  0  0  0  0  0  0  # atno 17320 bound_to 7965
  145.2834  141.0145  143.3704 LP  0  0  0  0  0  0  0  0  0  0  0  0  # atno 17321 bound_to 7965
  140.1818  143.4109  152.1928 LP  0  0  0  0  0  0  0  0  0  0  0  0  # atno 17342 bound_to 10162
  139.5428  144.7272  151.4677 LP  0  0  0  0  0  0  0  0  0  0  0  0  # atno 17343 bound_to 10162
  156.1567  130.6347  151.0667 LP  0  0  0  0  0  0  0  0  0  0  0  0  # atno 17370 bound_to 10713
  157.6882  131.0818  150.7183 LP  0  0  0  0  0  0  0  0  0  0  0  0  # atno 17371 bound_to 10713
  140.3543  134.7742  157.4489 LP  0  0  0  0  0  0  0  0  0  0  0  0  # atno 17394 bound_to 11000
  140.0835  134.5698  155.8516 LP  0  0  0  0  0  0  0  0  0  0  0  0  # atno 17395 bound_to 11000

$$$$
