AV-unprocessed.smi:1601|AV-procd|sdf|6435|dock6
  -GOLD-   22720 7 83D 1   1.00000     0.00000
 Structure written by MMmdl.
 42 43  0  0  0  0  0  0  0  0  2 V2000
  142.6037  136.3002  153.7382 C   0  0  0  0  0  0  0  0  0  0  0  0
  142.0862  135.2025  152.7763 C   0  0  2  0  0  0  0  0  0  0  0  0
  140.8079  134.5277  153.3494 C   0  0  0  0  0  0  0  0  0  0  0  0
  139.6039  135.3411  153.1950 N   0  0  0  0  0  0  0  0  0  0  0  0
  139.0341  136.0845  154.1582 C   0  0  0  0  0  0  0  0  0  0  0  0
  139.5027  136.1872  155.2925 O   0  0  0  0  0  0  0  0  0  0  0  0
  137.7463  136.8289  153.7680 C   0  0  2  0  0  0  0  0  0  0  0  0
  138.0087  138.2654  153.2716 C   0  0  0  0  0  0  0  0  0  0  0  0
  136.7853  136.7976  154.8645 N   0  0  0  0  0  0  0  0  0  0  0  0
  135.5272  136.2298  154.8750 C   0  0  0  0  0  0  0  0  0  0  0  0
  135.0024  136.4161  156.1217 C   0  0  0  0  0  0  0  0  0  0  0  0
  136.0293  137.1098  156.8203 C   0  0  0  0  0  0  0  0  0  0  0  0
  137.0954  137.3311  156.0694 N   0  0  0  0  0  0  0  0  0  0  0  0
  143.1627  134.2037  152.4576 N   0  3  0  0  0  0  0  0  0  0  0  0
  142.9002  133.3873  151.2382 C   0  0  0  0  0  0  0  0  0  0  0  0
  144.0349  132.3833  150.9721 C   0  0  0  0  0  0  0  0  0  0  0  0
  145.2697  133.0716  150.8589 O   0  0  0  0  0  0  0  0  0  0  0  0
  145.5934  133.7428  152.0654 C   0  0  0  0  0  0  0  0  0  0  0  0
  144.5239  134.8050  152.3699 C   0  0  0  0  0  0  0  0  0  0  0  0
  141.8242  137.0120  154.0068 H   0  0  0  0  0  0  0  0  0  0  0  0
  143.3913  136.9076  153.2960 H   0  0  0  0  0  0  0  0  0  0  0  0
  142.9854  135.8673  154.6633 H   0  0  0  0  0  0  0  0  0  0  0  0
  141.8051  135.6883  151.8404 H   0  0  0  0  0  0  0  0  0  0  0  0
  140.5827  133.6080  152.8117 H   0  0  0  0  0  0  0  0  0  0  0  0
  140.9642  134.2455  154.3921 H   0  0  0  0  0  0  0  0  0  0  0  0
  139.1530  135.3179  152.2916 H   0  0  0  0  0  0  0  0  0  0  0  0
  137.3019  136.2805  152.9357 H   0  0  0  0  0  0  0  0  0  0  0  0
  138.6867  138.2695  152.4174 H   0  0  0  0  0  0  0  0  0  0  0  0
  138.4498  138.8936  154.0467 H   0  0  0  0  0  0  0  0  0  0  0  0
  137.0802  138.7399  152.9527 H   0  0  0  0  0  0  0  0  0  0  0  0
  135.1131  135.7453  154.0031 H   0  0  0  0  0  0  0  0  0  0  0  0
  134.0337  136.1019  156.4805 H   0  0  0  0  0  0  0  0  0  0  0  0
  136.0334  137.4535  157.8441 H   0  0  0  0  0  0  0  0  0  0  0  0
  141.9856  132.8065  151.3442 H   0  0  0  0  0  0  0  0  0  0  0  0
  142.7730  134.0454  150.3771 H   0  0  0  0  0  0  0  0  0  0  0  0
  144.0894  131.6364  151.7660 H   0  0  0  0  0  0  0  0  0  0  0  0
  143.8468  131.8446  150.0433 H   0  0  0  0  0  0  0  0  0  0  0  0
  145.6799  133.0281  152.8858 H   0  0  0  0  0  0  0  0  0  0  0  0
  146.5693  134.2156  151.9535 H   0  0  0  0  0  0  0  0  0  0  0  0
  144.5342  135.5750  151.5968 H   0  0  0  0  0  0  0  0  0  0  0  0
  144.8065  135.2831  153.3054 H   0  0  0  0  0  0  0  0  0  0  0  0
  143.1855  133.5541  153.2309 H   0  0  0  0  0  0  0  0  0  0  0  0
  1  2  1  0  0  0  0
  1 20  1  0  0  0  0
  1 21  1  0  0  0  0
  1 22  1  0  0  0  0
  2  3  1  0  0  0  0
  2 14  1  0  0  0  0
  2 23  1  0  0  0  0
  3  4  1  0  0  0  0
  3 24  1  0  0  0  0
  3 25  1  0  0  0  0
  4  5  1  0  0  0  0
  4 26  1  0  0  0  0
  5  6  2  0  0  0  0
  5  7  1  0  0  0  0
  7  8  1  0  0  0  0
  7  9  1  0  0  0  0
  7 27  1  0  0  0  0
  8 28  1  0  0  0  0
  8 29  1  0  0  0  0
  8 30  1  0  0  0  0
  9 13  1  0  0  0  0
  9 10  1  0  0  0  0
 10 11  2  0  0  0  0
 10 31  1  0  0  0  0
 11 12  1  0  0  0  0
 11 32  1  0  0  0  0
 12 13  2  0  0  0  0
 12 33  1  0  0  0  0
 14 19  1  0  0  0  0
 14 15  1  0  0  0  0
 14 42  1  0  0  0  0
 15 16  1  0  0  0  0
 15 34  1  0  0  0  0
 15 35  1  0  0  0  0
 16 17  1  0  0  0  0
 16 36  1  0  0  0  0
 16 37  1  0  0  0  0
 17 18  1  0  0  0  0
 18 19  1  0  0  0  0
 18 38  1  0  0  0  0
 18 39  1  0  0  0  0
 19 40  1  0  0  0  0
 19 41  1  0  0  0  0
M  CHG  1  14   1
M  END
> <s_m_source_file>
AV-unprocessed.smi

> <i_m_source_file_index>
1601

> <i_lp_mmshare_version>
43012

> <i_f3d_flags>
0

> <s_epik_input>
W0NIMl0xW0NIMl1PW0NIMl1bQ0gyXU4xW0NASF0oW0NIM10pW0NIMl1bTkhdQyg9TylbQ0BIXShbQ0gzXSluMltjSF1bY0hdW2NIXW4y

> <s_epik_cmdline>
J2VwaWtfcHl0aG9uJywgJy1waCcsICc3LjAnLCAnLXRuJywgJzgnLCAnLW1hJywgJzIwMCcsICctbWV0YWxfYmluZGluZycsICctaW1hZScsICc8aW5maWxlLm1hZT4nLCAnLW9tYWUnLCAnPG91dGZpbGUubWFlPic=

> <r_lp_tautomer_probability>
1

> <r_epik_Ionization_Penalty>
0.732551

> <r_epik_Ionization_Penalty_Charging>
0.732531

> <r_epik_Ionization_Penalty_Neutral>
2.04647e-05

> <r_epik_State_Penalty>
0.757939

> <r_epik_Charging_Adjusted_Penalty>
1.49047

> <i_epik_Tot_Q>
1

> <i_epik_Tot_abs_Q>
1

> <r_epik_Metal_State_Penalty>
0.757952

> <b_epik_Metal_Only>
0

> <s_lp_Force_Field>
OPLS_2005

> <r_lp_Energy>
26.1921

> <b_lp_Chiralities_Consistent>
1

> <s_lp_Variant>
AV-unprocessed.smi:1601-5

> <Gold.Version>
5.8.1

> <Gold.Id.Protein>
6NUR|6NUR_protein|mol2

> <Gold.PLP.Fitness>
39.9612

> <Gold.PLP.PLP>
-31.3499

> <Gold.PLP.part.hbond>
-2.9995

> <Gold.PLP.part.metal>
0.0000

> <Gold.PLP.part.buried>
-5.0361

> <Gold.PLP.part.nonpolar>
-25.4952

> <Gold.PLP.part.repulsive>
0.3387

> <Gold.PLP.ligand.clash>
0.0000

> <Gold.PLP.ligand.torsion>
1.3673

> <Gold.PLP.Chemscore.Hbond>
3.7320

> <Gold.PLP.Chemscore.CHOScore>
0.0000

> <Gold.PLP.Chemscore.Metal>
0.0000

> <Gold.Chemscore.Hbonds>
donor molecule, donor type, donor heavy atom, donor atom, acceptor molecule, acceptor atom, score
      L1  H     4    26       P1 10187  1.00
      L1  H    14    42       P1 10957  0.06
      P1  H 11000 11005       L1     6  1.00

> <Gold.PLP.Chemscore.Internal.Correction>
0.1499

> <Gold.Rescore>
     Score         DG    S(hbond)    S(metal)    S(lipo)     H(rot)  DE(clash)    DE(int)     intcor
     13.04     -14.86       2.00        0.00      63.89       1.86       0.07       1.75       ----

> <Gold.Chemscore.Fitness>
13.0391

> <Gold.Chemscore.DG>
-14.8604

> <Gold.Chemscore.ZeroCoef>
-5.4800

> <Gold.Chemscore.Hbond>
1.9985

> <Gold.Chemscore.Metal>
0.0000

> <Gold.Chemscore.Lipo>
63.8909

> <Gold.Chemscore.Internal_Hbond>
0.0000

> <Gold.Chemscore.DEClash>
0.0677

> <Gold.Chemscore.DEInternal>
1.7537

> <Gold.Chemscore.Rot>
1.8631

> <Gold.Chemscore.Internal.Correction>
   9.000000E+99

> <Gold.Chemscore.Hbonds>
donor molecule, donor type, donor heavy atom, donor atom, acceptor molecule, acceptor atom, score
      L1  H     4    26       P1 10187  0.89
      L1  H    14    42       P1 10957  0.08
      P1  H 11000 11005       L1     6  0.98

> <Gold.Chemscore.Hbond.Weighted>
-6.6748

> <Gold.Chemscore.Metal.Weighted>
-0.0000

> <Gold.Chemscore.Lipo.Weighted>
-7.4752

> <Gold.Chemscore.Internal_Hbond.Weighted>
0.0000

> <Gold.Chemscore.DEClash.Weighted>
0.0677

> <Gold.Chemscore.DEInternal.Weighted>
1.7537

> <Gold.Chemscore.Rot.Weighted>
4.7697

> <Gold.Chemscore.Internal.Correction.Weighted>
   9.000000E+99

> <Gold.Protein.RotatedTorsions>
[ 6907 6896 6895 6894 ] final  102.09 input  -60.11 | X-H torsion
[ 7974 7965 7964 7962 ] final  127.93 input  175.53 | X-H torsion
[ 8008 7997 7996 7995 ] final   90.25 input   59.86 | X-H torsion
[ 10167 10162 10161 10158 ] final  116.48 input  -65.29 | X-H torsion
[ 10718 10713 10712 10709 ] final   24.14 input   66.30 | X-H torsion
[ 10763 10752 10751 10750 ] final -117.94 input  -60.55 | X-H torsion
[ 11005 11000 10999 10996 ] final   82.04 input  -57.11 | X-H torsion

> <Gold.Protein.ActiveResidues>
 VAL166  LYS551  ARG553  GLY616  TRP617  ASP618  TYR619  PRO620  LYS621  CYS622 
 ASP623  PHE694  ASN695  SER759  ASP760  ASP761  ALA762  ILE779  LEU786  VAL792 
 PHE793  MET794  SER795  GLU796  ALA797  LYS798  CYS799  TRP800  GLU811  SER814 

> <Gold.Protein.RotatedAtoms>
  152.5333  134.0028  159.7902 H   0  0  0  0  0  0  0  0  0  0  0  0  # atno 6907 bound_to 6896
  151.0243  133.5840  159.2675 H   0  0  0  0  0  0  0  0  0  0  0  0  # atno 6908 bound_to 6896
  151.2868  135.0737  159.9243 H   0  0  0  0  0  0  0  0  0  0  0  0  # atno 6909 bound_to 6896
  145.0452  139.3929  143.5082 H   0  0  0  0  0  0  0  0  0  0  0  0  # atno 7974 bound_to 7965
  156.0097  140.3351  155.6928 H   0  0  0  0  0  0  0  0  0  0  0  0  # atno 8008 bound_to 7997
  155.6175  140.0671  157.2706 H   0  0  0  0  0  0  0  0  0  0  0  0  # atno 8009 bound_to 7997
  154.4277  140.1782  156.1324 H   0  0  0  0  0  0  0  0  0  0  0  0  # atno 8010 bound_to 7997
  139.6244  144.7106  151.2565 H   0  0  0  0  0  0  0  0  0  0  0  0  # atno 10167 bound_to 10162
  157.1756  130.6779  149.6094 H   0  0  0  0  0  0  0  0  0  0  0  0  # atno 10718 bound_to 10713
  154.8571  135.4291  154.2060 H   0  0  0  0  0  0  0  0  0  0  0  0  # atno 10763 bound_to 10752
  153.3096  135.6975  153.7133 H   0  0  0  0  0  0  0  0  0  0  0  0  # atno 10764 bound_to 10752
  153.6231  135.3498  155.2991 H   0  0  0  0  0  0  0  0  0  0  0  0  # atno 10765 bound_to 10752
  139.9077  134.8042  156.2122 H   0  0  0  0  0  0  0  0  0  0  0  0  # atno 11005 bound_to 11000
  146.3513  140.0073  142.8670 LP  0  0  0  0  0  0  0  0  0  0  0  0  # atno 17320 bound_to 7965
  145.1597  140.9666  143.4384 LP  0  0  0  0  0  0  0  0  0  0  0  0  # atno 17321 bound_to 7965
  140.7402  143.6595  150.8177 LP  0  0  0  0  0  0  0  0  0  0  0  0  # atno 17342 bound_to 10162
  140.0211  143.5542  152.2800 LP  0  0  0  0  0  0  0  0  0  0  0  0  # atno 17343 bound_to 10162
  155.9732  130.4664  150.6288 LP  0  0  0  0  0  0  0  0  0  0  0  0  # atno 17370 bound_to 10713
  157.4001  131.0808  151.1316 LP  0  0  0  0  0  0  0  0  0  0  0  0  # atno 17371 bound_to 10713
  141.0458  133.6914  156.1681 LP  0  0  0  0  0  0  0  0  0  0  0  0  # atno 17394 bound_to 11000
  140.6885  134.4691  157.5589 LP  0  0  0  0  0  0  0  0  0  0  0  0  # atno 17395 bound_to 11000

$$$$
