AV-unprocessed.smi:1540|AV-procd|sdf|6201|dock4
  -GOLD-   22720 6373D 1   1.00000     0.00000
 Structure written by MMmdl.
 32 32  0  0  0  0  0  0  0  0  2 V2000
  147.0338  140.8078  153.1762 C   0  0  0  0  0  0  0  0  0  0  0  0
  147.7791  140.7695  154.2909 C   0  0  0  0  0  0  0  0  0  0  0  0
  149.1281  141.4364  154.4451 C   0  0  0  0  0  0  0  0  0  0  0  0
  150.1694  140.4819  154.2799 O   0  0  0  0  0  0  0  0  0  0  0  0
  150.0769  139.3252  155.1084 C   0  0  1  0  0  0  0  0  0  0  0  0
  150.8449  138.1934  154.4092 C   0  0  0  0  0  0  0  0  0  0  0  0
  150.6561  139.6165  156.5027 C   0  0  0  0  0  0  0  0  0  0  0  0
  150.6932  138.7151  157.3400 O   0  0  0  0  0  0  0  0  0  0  0  0
  151.0876  140.8788  156.6934 N   0  0  0  0  0  0  0  0  0  0  0  0
  151.6816  141.4701  157.8222 C   0  0  0  0  0  0  0  0  0  0  0  0
  151.3418  142.6820  158.3427 C   0  0  0  0  0  0  0  0  0  0  0  0
  151.9961  143.2369  159.5210 C   0  0  0  0  0  0  0  0  0  0  0  0
  151.5894  144.5484  160.1695 C   0  0  0  0  0  0  0  0  0  0  0  0
  151.9273  145.5878  159.4062 F   0  0  0  0  0  0  0  0  0  0  0  0
  150.2696  144.5755  160.3485 F   0  0  0  0  0  0  0  0  0  0  0  0
  152.1728  144.6931  161.3595 F   0  0  0  0  0  0  0  0  0  0  0  0
  152.9515  142.3853  160.0405 C   0  0  0  0  0  0  0  0  0  0  0  0
  153.3521  141.1783  159.5852 N   0  5  0  0  0  0  0  0  0  0  0  0
  152.7397  140.6731  158.4775 C   0  0  0  0  0  0  0  0  0  0  0  0
  153.0489  139.5739  158.0161 O   0  0  0  0  0  0  0  0  0  0  0  0
  147.3672  141.3365  152.2952 H   0  0  0  0  0  0  0  0  0  0  0  0
  146.0767  140.3092  153.1318 H   0  0  0  0  0  0  0  0  0  0  0  0
  147.4133  140.2312  155.1530 H   0  0  0  0  0  0  0  0  0  0  0  0
  149.2006  142.2301  153.7012 H   0  0  0  0  0  0  0  0  0  0  0  0
  149.1977  141.9004  155.4304 H   0  0  0  0  0  0  0  0  0  0  0  0
  149.0307  139.0247  155.1945 H   0  0  0  0  0  0  0  0  0  0  0  0
  150.8244  137.2768  155.0001 H   0  0  0  0  0  0  0  0  0  0  0  0
  151.8886  138.4607  154.2394 H   0  0  0  0  0  0  0  0  0  0  0  0
  150.4018  137.9685  153.4387 H   0  0  0  0  0  0  0  0  0  0  0  0
  150.9450  141.5163  155.9234 H   0  0  0  0  0  0  0  0  0  0  0  0
  150.5604  143.2779  157.9026 H   0  0  0  0  0  0  0  0  0  0  0  0
  153.4692  142.7227  160.9637 H   0  0  0  0  0  0  0  0  0  0  0  0
  1  2  2  0  0  0  0
  1 21  1  0  0  0  0
  1 22  1  0  0  0  0
  2  3  1  0  0  0  0
  2 23  1  0  0  0  0
  3  4  1  0  0  0  0
  3 24  1  0  0  0  0
  3 25  1  0  0  0  0
  4  5  1  0  0  0  0
  5  6  1  0  0  0  0
  5  7  1  0  0  0  0
  5 26  1  0  0  0  0
  6 27  1  0  0  0  0
  6 28  1  0  0  0  0
  6 29  1  0  0  0  0
  7  8  2  0  0  0  0
  7  9  1  0  0  0  0
  9 10  1  0  0  0  0
  9 30  1  0  0  0  0
 10 19  1  0  0  0  0
 10 11  2  0  0  0  0
 11 12  1  0  0  0  0
 11 31  1  0  0  0  0
 12 13  1  0  0  0  0
 12 17  2  0  0  0  0
 13 14  1  0  0  0  0
 13 15  1  0  0  0  0
 13 16  1  0  0  0  0
 17 18  1  0  0  0  0
 17 32  1  0  0  0  0
 18 19  1  0  0  0  0
 19 20  2  0  0  0  0
M  CHG  1  18  -1
M  END
> <s_m_source_file>
AV-unprocessed.smi

> <i_m_source_file_index>
1540

> <i_lp_mmshare_version>
43012

> <i_f3d_flags>
0

> <s_epik_input>
W0NIMl09W0NIXVtDSDJdT1tDQEhdKFtDSDNdKUMoPU8pW05IXWMxW2NIXWMoQyhGKShGKUYpW2NIXVtuSF1jMT1P

> <s_epik_cmdline>
J2VwaWtfcHl0aG9uJywgJy1waCcsICc3LjAnLCAnLXRuJywgJzgnLCAnLW1hJywgJzIwMCcsICctbWV0YWxfYmluZGluZycsICctaW1hZScsICc8aW5maWxlLm1hZT4nLCAnLW9tYWUnLCAnPG91dGZpbGUubWFlPic=

> <r_epik_Ionization_Penalty>
2.56803

> <r_epik_Ionization_Penalty_Charging>
0.0609694

> <r_epik_Ionization_Penalty_Neutral>
2.50706

> <r_epik_State_Penalty>
2.67253

> <r_epik_Charging_Adjusted_Penalty>
2.7335

> <i_epik_Tot_Q>
-1

> <i_epik_Tot_abs_Q>
1

> <r_epik_Metal_State_Penalty>
0.517713

> <b_epik_Metal_Only>
0

> <s_lp_Force_Field>
OPLS_2005

> <r_lp_Energy>
20.9633

> <b_lp_Chiralities_Consistent>
1

> <s_lp_Variant>
AV-unprocessed.smi:1540-4

> <Gold.Version>
5.8.1

> <Gold.Id.Protein>
6NUR|6NUR_protein|mol2

> <Gold.PLP.Fitness>
45.9345

> <Gold.PLP.PLP>
-42.1461

> <Gold.PLP.part.hbond>
-2.0000

> <Gold.PLP.part.metal>
0.0000

> <Gold.PLP.part.buried>
-3.4442

> <Gold.PLP.part.nonpolar>
-35.3006

> <Gold.PLP.part.repulsive>
0.2223

> <Gold.PLP.ligand.clash>
0.0000

> <Gold.PLP.ligand.torsion>
1.0159

> <Gold.PLP.Chemscore.Hbond>
1.8960

> <Gold.PLP.Chemscore.CHOScore>
0.0000

> <Gold.PLP.Chemscore.Metal>
0.0000

> <Gold.Chemscore.Hbonds>
donor molecule, donor type, donor heavy atom, donor atom, acceptor molecule, acceptor atom, score
      P1  H  7989  7998       L1     4  0.86
      P1  H  7997  8008       L1    20  1.00

> <Gold.PLP.Chemscore.Internal.Correction>
0.1322

> <Gold.Rescore>
     Score         DG    S(hbond)    S(metal)    S(lipo)     H(rot)  DE(clash)    DE(int)     intcor
     12.14     -16.81       1.82        0.00      83.78       1.77       0.85       3.81       ----

> <Gold.Chemscore.Fitness>
12.1410

> <Gold.Chemscore.DG>
-16.8057

> <Gold.Chemscore.ZeroCoef>
-5.4800

> <Gold.Chemscore.Hbond>
1.8164

> <Gold.Chemscore.Metal>
0.0000

> <Gold.Chemscore.Lipo>
83.7846

> <Gold.Chemscore.Internal_Hbond>
0.0000

> <Gold.Chemscore.DEClash>
0.8536

> <Gold.Chemscore.DEInternal>
3.8111

> <Gold.Chemscore.Rot>
1.7750

> <Gold.Chemscore.Internal.Correction>
   9.000000E+99

> <Gold.Chemscore.Hbonds>
donor molecule, donor type, donor heavy atom, donor atom, acceptor molecule, acceptor atom, score
      P1  H  7989  7998       L1     4  0.83
      P1  H  7997  8008       L1    20  0.24

> <Gold.Chemscore.Hbond.Weighted>
-6.0668

> <Gold.Chemscore.Metal.Weighted>
-0.0000

> <Gold.Chemscore.Lipo.Weighted>
-9.8028

> <Gold.Chemscore.Internal_Hbond.Weighted>
0.0000

> <Gold.Chemscore.DEClash.Weighted>
0.8536

> <Gold.Chemscore.DEInternal.Weighted>
3.8111

> <Gold.Chemscore.Rot.Weighted>
4.5439

> <Gold.Chemscore.Internal.Correction.Weighted>
   9.000000E+99

> <Gold.Protein.RotatedTorsions>
[ 6907 6896 6895 6894 ] final   -2.42 input  -60.11 | X-H torsion
[ 7974 7965 7964 7962 ] final   55.75 input  175.53 | X-H torsion
[ 8008 7997 7996 7995 ] final  -97.90 input   59.86 | X-H torsion
[ 10167 10162 10161 10158 ] final -142.45 input  -65.29 | X-H torsion
[ 10718 10713 10712 10709 ] final  -84.32 input   66.30 | X-H torsion
[ 10763 10752 10751 10750 ] final  149.82 input  -60.55 | X-H torsion
[ 11005 11000 10999 10996 ] final  118.54 input  -57.11 | X-H torsion

> <Gold.Protein.ActiveResidues>
 VAL166  LYS551  ARG553  GLY616  TRP617  ASP618  TYR619  PRO620  LYS621  CYS622 
 ASP623  PHE694  ASN695  SER759  ASP760  ASP761  ALA762  ILE779  LEU786  VAL792 
 PHE793  MET794  SER795  GLU796  ALA797  LYS798  CYS799  TRP800  GLU811  SER814 

> <Gold.Protein.RotatedAtoms>
  151.5301  135.1068  159.9900 H   0  0  0  0  0  0  0  0  0  0  0  0  # atno 6907 bound_to 6896
  152.4582  133.7763  159.6837 H   0  0  0  0  0  0  0  0  0  0  0  0  # atno 6908 bound_to 6896
  150.8534  133.7687  159.3042 H   0  0  0  0  0  0  0  0  0  0  0  0  # atno 6909 bound_to 6896
  145.9471  139.3939  143.0328 H   0  0  0  0  0  0  0  0  0  0  0  0  # atno 7974 bound_to 7965
  154.7940  140.0459  157.1223 H   0  0  0  0  0  0  0  0  0  0  0  0  # atno 8008 bound_to 7997
  154.9557  140.3071  155.5034 H   0  0  0  0  0  0  0  0  0  0  0  0  # atno 8009 bound_to 7997
  156.2953  140.2280  156.4638 H   0  0  0  0  0  0  0  0  0  0  0  0  # atno 8010 bound_to 7997
  139.8087  143.7732  152.2662 H   0  0  0  0  0  0  0  0  0  0  0  0  # atno 10167 bound_to 10162
  156.0007  130.4694  150.4392 H   0  0  0  0  0  0  0  0  0  0  0  0  # atno 10718 bound_to 10713
  154.0774  135.2862  155.3297 H   0  0  0  0  0  0  0  0  0  0  0  0  # atno 10763 bound_to 10752
  154.6706  135.5300  153.8137 H   0  0  0  0  0  0  0  0  0  0  0  0  # atno 10764 bound_to 10752
  153.0462  135.6557  154.0951 H   0  0  0  0  0  0  0  0  0  0  0  0  # atno 10765 bound_to 10752
  139.9113  134.9621  156.7519 H   0  0  0  0  0  0  0  0  0  0  0  0  # atno 11005 bound_to 11000
  145.8221  140.9674  143.0893 LP  0  0  0  0  0  0  0  0  0  0  0  0  # atno 17320 bound_to 7965
  144.6789  140.0054  143.7484 LP  0  0  0  0  0  0  0  0  0  0  0  0  # atno 17321 bound_to 7965
  139.7875  144.7422  151.0002 LP  0  0  0  0  0  0  0  0  0  0  0  0  # atno 17342 bound_to 10162
  140.7818  143.4477  151.0458 LP  0  0  0  0  0  0  0  0  0  0  0  0  # atno 17343 bound_to 10162
  157.2435  131.0530  151.2422 LP  0  0  0  0  0  0  0  0  0  0  0  0  # atno 17370 bound_to 10713
  157.3597  130.7125  149.6494 LP  0  0  0  0  0  0  0  0  0  0  0  0  # atno 17371 bound_to 10713
  140.6767  133.9511  155.7887 LP  0  0  0  0  0  0  0  0  0  0  0  0  # atno 17394 bound_to 11000
  141.0539  134.0444  157.3747 LP  0  0  0  0  0  0  0  0  0  0  0  0  # atno 17395 bound_to 11000

$$$$
