AV-unprocessed.smi:1645|AV-procd|sdf|6612|dock3
  -GOLD-   22720 7313D 1   1.00000     0.00000
 Structure written by MMmdl.
 56 59  0  0  0  0  0  0  0  0  3 V2000
  146.7953  139.9614  153.5643 O   0  0  0  0  0  0  0  0  0  0  0  0
  147.5922  139.0529  153.3321 C   0  0  0  0  0  0  0  0  0  0  0  0
  148.8506  138.9820  153.7998 N   0  0  0  0  0  0  0  0  0  0  0  0
  149.5142  139.8660  154.6936 C   0  0  0  0  0  0  0  0  0  0  0  0
  150.5807  139.3512  155.4592 C   0  0  0  0  0  0  0  0  0  0  0  0
  151.2579  140.1852  156.3726 C   0  0  0  0  0  0  0  0  0  0  0  0
  150.8583  141.5369  156.5263 C   0  0  0  0  0  0  0  0  0  0  0  0
  151.4791  142.4488  157.4108 N   0  0  0  0  0  0  0  0  0  0  0  0
  151.3336  143.8727  157.0896 C   0  0  0  0  0  0  0  0  0  0  0  0
  152.3785  144.7262  157.8279 C   0  0  0  0  0  0  0  0  0  0  0  0
  152.3481  144.4535  159.3376 C   0  0  0  0  0  0  0  0  0  0  0  0
  152.5442  142.9536  159.5967 C   0  0  0  0  0  0  0  0  0  0  0  0
  151.5016  142.1154  158.8368 C   0  0  0  0  0  0  0  0  0  0  0  0
  149.8210  141.9803  155.7752 N   0  3  0  0  0  0  0  0  0  0  0  0
  149.1460  141.2182  154.8885 C   0  0  0  0  0  0  0  0  0  0  0  0
  147.3035  138.0061  152.5462 N   0  0  0  0  0  0  0  0  0  0  0  0
  146.0137  137.7876  151.8951 C   0  0  2  0  0  0  0  0  0  0  0  0
  144.8498  137.6402  152.8844 C   0  0  0  0  0  0  0  0  0  0  0  0
  143.8575  136.6857  152.1956 C   0  0  0  0  0  0  0  0  0  0  0  0
  144.4771  136.3072  150.9059 N   0  3  2  0  0  0  0  0  0  0  0  0
  144.0502  135.0100  150.3217 C   0  0  0  0  0  0  0  0  0  0  0  0
  144.7361  133.8047  150.9862 C   0  0  0  0  0  0  0  0  0  0  0  0
  146.2587  133.9748  150.9753 C   0  0  0  0  0  0  0  0  0  0  0  0
  146.6357  135.2782  151.6871 C   0  0  0  0  0  0  0  0  0  0  0  0
  145.9369  136.5059  151.0479 C   0  0  2  0  0  0  0  0  0  0  0  0
  149.4100  138.2157  153.4546 H   0  0  0  0  0  0  0  0  0  0  0  0
  150.8842  138.3202  155.3490 H   0  0  0  0  0  0  0  0  0  0  0  0
  152.0673  139.7627  156.9485 H   0  0  0  0  0  0  0  0  0  0  0  0
  151.4328  144.0598  156.0205 H   0  0  0  0  0  0  0  0  0  0  0  0
  150.3285  144.1898  157.3711 H   0  0  0  0  0  0  0  0  0  0  0  0
  153.3725  144.5044  157.4368 H   0  0  0  0  0  0  0  0  0  0  0  0
  152.1999  145.7843  157.6345 H   0  0  0  0  0  0  0  0  0  0  0  0
  153.1261  145.0284  159.8407 H   0  0  0  0  0  0  0  0  0  0  0  0
  151.3952  144.7816  159.7548 H   0  0  0  0  0  0  0  0  0  0  0  0
  153.5469  142.6596  159.2828 H   0  0  0  0  0  0  0  0  0  0  0  0
  152.4824  142.7465  160.6655 H   0  0  0  0  0  0  0  0  0  0  0  0
  150.5086  142.2802  159.2570 H   0  0  0  0  0  0  0  0  0  0  0  0
  151.7456  141.0622  158.9769 H   0  0  0  0  0  0  0  0  0  0  0  0
  148.3354  141.7235  154.3858 H   0  0  0  0  0  0  0  0  0  0  0  0
  148.0156  137.3056  152.3995 H   0  0  0  0  0  0  0  0  0  0  0  0
  145.7943  138.6415  151.2503 H   0  0  0  0  0  0  0  0  0  0  0  0
  145.1886  137.1998  153.8235 H   0  0  0  0  0  0  0  0  0  0  0  0
  144.3978  138.6045  153.1191 H   0  0  0  0  0  0  0  0  0  0  0  0
  143.6903  135.8086  152.8217 H   0  0  0  0  0  0  0  0  0  0  0  0
  142.8907  137.1583  152.0200 H   0  0  0  0  0  0  0  0  0  0  0  0
  142.9650  134.9178  150.3807 H   0  0  0  0  0  0  0  0  0  0  0  0
  144.3020  135.0232  149.2607 H   0  0  0  0  0  0  0  0  0  0  0  0
  144.3842  133.6884  152.0117 H   0  0  0  0  0  0  0  0  0  0  0  0
  144.4611  132.8884  150.4629 H   0  0  0  0  0  0  0  0  0  0  0  0
  146.7351  133.1263  151.4673 H   0  0  0  0  0  0  0  0  0  0  0  0
  146.6265  133.9899  149.9484 H   0  0  0  0  0  0  0  0  0  0  0  0
  146.3650  135.1953  152.7404 H   0  0  0  0  0  0  0  0  0  0  0  0
  147.7182  135.4052  151.6595 H   0  0  0  0  0  0  0  0  0  0  0  0
  146.3652  136.6774  150.0594 H   0  0  0  0  0  0  0  0  0  0  0  0
  144.1739  137.0201  150.2575 H   0  0  0  0  0  0  0  0  0  0  0  0
  149.5304  142.9519  155.8862 H   0  0  0  0  0  0  0  0  0  0  0  0
  1  2  2  0  0  0  0
  2  3  1  0  0  0  0
  2 16  1  0  0  0  0
  3  4  1  0  0  0  0
  3 26  1  0  0  0  0
  4 15  1  0  0  0  0
  4  5  2  0  0  0  0
  5  6  1  0  0  0  0
  5 27  1  0  0  0  0
  6  7  2  0  0  0  0
  6 28  1  0  0  0  0
  7  8  1  0  0  0  0
  7 14  1  0  0  0  0
  8 13  1  0  0  0  0
  8  9  1  0  0  0  0
  9 10  1  0  0  0  0
  9 29  1  0  0  0  0
  9 30  1  0  0  0  0
 10 11  1  0  0  0  0
 10 31  1  0  0  0  0
 10 32  1  0  0  0  0
 11 12  1  0  0  0  0
 11 33  1  0  0  0  0
 11 34  1  0  0  0  0
 12 13  1  0  0  0  0
 12 35  1  0  0  0  0
 12 36  1  0  0  0  0
 13 37  1  0  0  0  0
 13 38  1  0  0  0  0
 14 15  2  0  0  0  0
 14 56  1  0  0  0  0
 15 39  1  0  0  0  0
 16 17  1  0  0  0  0
 16 40  1  0  0  0  0
 17 25  1  0  0  0  0
 17 18  1  0  0  0  0
 17 41  1  0  0  0  0
 18 19  1  0  0  0  0
 18 42  1  0  0  0  0
 18 43  1  0  0  0  0
 19 20  1  0  0  0  0
 19 44  1  0  0  0  0
 19 45  1  0  0  0  0
 20 25  1  0  0  0  0
 20 21  1  0  0  0  0
 20 55  1  0  0  0  0
 21 22  1  0  0  0  0
 21 46  1  0  0  0  0
 21 47  1  0  0  0  0
 22 23  1  0  0  0  0
 22 48  1  0  0  0  0
 22 49  1  0  0  0  0
 23 24  1  0  0  0  0
 23 50  1  0  0  0  0
 23 51  1  0  0  0  0
 24 25  1  0  0  0  0
 24 52  1  0  0  0  0
 24 53  1  0  0  0  0
 25 54  1  0  0  0  0
M  CHG  1  14   1
M  CHG  1  20   1
M  END
> <s_m_source_file>
AV-unprocessed.smi

> <i_m_source_file_index>
1645

> <i_lp_mmshare_version>
43012

> <i_f3d_flags>
0

> <s_epik_input>
W0NIMl0xW0NIMl1bQ0gyXVtDSDJdW0NASF0oTjEyKVtDQEBIXShbQ0gyXVtDSDJdMilbTkhdQyg9TylbTkhdYzNbY0hdW2NIXWMobltjSF0zKU40W0NIMl1bQ0gyXVtDSDJdW0NIMl1bQ0gyXTQ=

> <s_epik_cmdline>
J2VwaWtfcHl0aG9uJywgJy1waCcsICc3LjAnLCAnLXRuJywgJzgnLCAnLW1hJywgJzIwMCcsICctbWV0YWxfYmluZGluZycsICctaW1hZScsICc8aW5maWxlLm1hZT4nLCAnLW9tYWUnLCAnPG91dGZpbGUubWFlPic=

> <r_lp_tautomer_probability>
0.999994

> <r_epik_Ionization_Penalty>
1.26838

> <r_epik_Ionization_Penalty_Charging>
1.26836

> <r_epik_Ionization_Penalty_Neutral>
1.95562e-05

> <r_epik_State_Penalty>
1.33841

> <r_epik_Charging_Adjusted_Penalty>
2.60677

> <i_epik_Tot_Q>
2

> <i_epik_Tot_abs_Q>
2

> <r_epik_Metal_State_Penalty>
1.40601

> <b_epik_Metal_Only>
0

> <s_lp_Force_Field>
OPLS_2005

> <r_lp_Energy>
60.1024

> <b_lp_Chiralities_Consistent>
1

> <s_lp_Variant>
AV-unprocessed.smi:1645-13

> <Gold.Version>
5.8.1

> <Gold.Id.Protein>
6NUR|6NUR_protein|mol2

> <Gold.PLP.Fitness>
57.3515

> <Gold.PLP.PLP>
-46.6896

> <Gold.PLP.part.hbond>
-3.9514

> <Gold.PLP.part.metal>
0.0000

> <Gold.PLP.part.buried>
2.9779

> <Gold.PLP.part.nonpolar>
-46.6196

> <Gold.PLP.part.repulsive>
0.4433

> <Gold.PLP.ligand.clash>
0.0000

> <Gold.PLP.ligand.torsion>
0.7990

> <Gold.PLP.Chemscore.Hbond>
3.9913

> <Gold.PLP.Chemscore.CHOScore>
0.0000

> <Gold.PLP.Chemscore.Metal>
0.0000

> <Gold.Chemscore.Hbonds>
donor molecule, donor type, donor heavy atom, donor atom, acceptor molecule, acceptor atom, score
      L1  H    14    56       P1  8028  2.00
      L1  H    16    40       P1  7948  0.94
      L1  H    20    55       P1 10171  1.00

> <Gold.PLP.Chemscore.Internal.Correction>
0.2861

> <Gold.Rescore>
     Score         DG    S(hbond)    S(metal)    S(lipo)     H(rot)  DE(clash)    DE(int)     intcor
     24.05     -28.07       2.98        0.00     129.85       1.00       2.14       1.87       ----

> <Gold.Chemscore.Fitness>
24.0487

> <Gold.Chemscore.DG>
-28.0651

> <Gold.Chemscore.ZeroCoef>
-5.4800

> <Gold.Chemscore.Hbond>
2.9798

> <Gold.Chemscore.Metal>
0.0000

> <Gold.Chemscore.Lipo>
129.8519

> <Gold.Chemscore.Internal_Hbond>
0.0000

> <Gold.Chemscore.DEClash>
2.1436

> <Gold.Chemscore.DEInternal>
1.8728

> <Gold.Chemscore.Rot>
1.0000

> <Gold.Chemscore.Internal.Correction>
   9.000000E+99

> <Gold.Chemscore.Hbonds>
donor molecule, donor type, donor heavy atom, donor atom, acceptor molecule, acceptor atom, score
      L1  H    14    56       P1  8028  1.00
      L1  H    16    40       P1  7948  0.90
      L1  H    20    55       P1 10171  0.98

> <Gold.Chemscore.Hbond.Weighted>
-9.9524

> <Gold.Chemscore.Metal.Weighted>
-0.0000

> <Gold.Chemscore.Lipo.Weighted>
-15.1927

> <Gold.Chemscore.Internal_Hbond.Weighted>
0.0000

> <Gold.Chemscore.DEClash.Weighted>
2.1436

> <Gold.Chemscore.DEInternal.Weighted>
1.8728

> <Gold.Chemscore.Rot.Weighted>
2.5600

> <Gold.Chemscore.Internal.Correction.Weighted>
   9.000000E+99

> <Gold.Protein.RotatedTorsions>
[ 6907 6896 6895 6894 ] final  154.30 input  -60.11 | X-H torsion
[ 7974 7965 7964 7962 ] final   57.71 input  175.53 | X-H torsion
[ 8008 7997 7996 7995 ] final  -22.07 input   59.86 | X-H torsion
[ 10167 10162 10161 10158 ] final  153.81 input  -65.29 | X-H torsion
[ 10718 10713 10712 10709 ] final   51.15 input   66.30 | X-H torsion
[ 10763 10752 10751 10750 ] final  130.48 input  -60.55 | X-H torsion
[ 11005 11000 10999 10996 ] final -176.05 input  -57.11 | X-H torsion

> <Gold.Protein.ActiveResidues>
 VAL166  LYS551  ARG553  GLY616  TRP617  ASP618  TYR619  PRO620  LYS621  CYS622 
 ASP623  PHE694  ASN695  SER759  ASP760  ASP761  ALA762  ILE779  LEU786  VAL792 
 PHE793  MET794  SER795  GLU796  ALA797  LYS798  CYS799  TRP800  GLU811  SER814 

> <Gold.Protein.RotatedAtoms>
  152.0605  133.4060  159.4415 H   0  0  0  0  0  0  0  0  0  0  0  0  # atno 6907 bound_to 6896
  150.6866  134.3205  159.4794 H   0  0  0  0  0  0  0  0  0  0  0  0  # atno 6908 bound_to 6896
  152.1026  134.9330  160.0620 H   0  0  0  0  0  0  0  0  0  0  0  0  # atno 6909 bound_to 6896
  145.9261  139.3769  143.0449 H   0  0  0  0  0  0  0  0  0  0  0  0  # atno 7974 bound_to 7965
  154.4666  140.2017  156.0102 H   0  0  0  0  0  0  0  0  0  0  0  0  # atno 8008 bound_to 7997
  156.0938  140.3254  155.7822 H   0  0  0  0  0  0  0  0  0  0  0  0  # atno 8009 bound_to 7997
  155.4912  140.0546  157.2944 H   0  0  0  0  0  0  0  0  0  0  0  0  # atno 8010 bound_to 7997
  139.4825  144.5241  151.7829 H   0  0  0  0  0  0  0  0  0  0  0  0  # atno 10167 bound_to 10162
  157.4953  130.8403  149.8252 H   0  0  0  0  0  0  0  0  0  0  0  0  # atno 10718 bound_to 10713
  153.7587  135.3199  155.3333 H   0  0  0  0  0  0  0  0  0  0  0  0  # atno 10763 bound_to 10752
  154.8238  135.4584  154.0859 H   0  0  0  0  0  0  0  0  0  0  0  0  # atno 10764 bound_to 10752
  153.2084  135.6932  153.8228 H   0  0  0  0  0  0  0  0  0  0  0  0  # atno 10765 bound_to 10752
  140.4564  134.6295  157.4824 H   0  0  0  0  0  0  0  0  0  0  0  0  # atno 11005 bound_to 11000
  145.8486  140.9541  143.0761 LP  0  0  0  0  0  0  0  0  0  0  0  0  # atno 17320 bound_to 7965
  144.6759  140.0378  143.7481 LP  0  0  0  0  0  0  0  0  0  0  0  0  # atno 17321 bound_to 7965
  140.4758  144.1521  150.5925 LP  0  0  0  0  0  0  0  0  0  0  0  0  # atno 17342 bound_to 10162
  140.4332  143.2559  151.9569 LP  0  0  0  0  0  0  0  0  0  0  0  0  # atno 17343 bound_to 10162
  156.0197  130.3800  150.2000 LP  0  0  0  0  0  0  0  0  0  0  0  0  # atno 17370 bound_to 10713
  157.0189  130.9973  151.3345 LP  0  0  0  0  0  0  0  0  0  0  0  0  # atno 17371 bound_to 10713
  139.9973  134.6891  155.9588 LP  0  0  0  0  0  0  0  0  0  0  0  0  # atno 17394 bound_to 11000
  141.1641  133.6537  156.4419 LP  0  0  0  0  0  0  0  0  0  0  0  0  # atno 17395 bound_to 11000

$$$$
