AV-unprocessed.smi:2730|AV-procd|sdf|10529|dock5
  -GOLD-   2272014573D 1   1.00000     0.00000
 Structure written by MMmdl.
 43 44  0  0  0  0  0  0  0  0  1 V2000
  157.5086  145.0827  169.7377 C   0  0  0  0  0  0  0  0  0  0  0  0
  156.3624  144.3630  169.0121 C   0  0  0  0  0  0  0  0  0  0  0  0
  156.7878  143.6852  167.6965 C   0  0  1  0  0  0  0  0  0  0  0  0
  157.4639  142.3300  167.9656 C   0  0  0  0  0  0  0  0  0  0  0  0
  156.5334  141.2809  168.4129 C   0  0  0  0  0  0  0  0  0  0  0  0
  155.8028  140.4556  168.7644 N   0  0  0  0  0  0  0  0  0  0  0  0
  155.6235  143.5057  166.8288 N   0  0  0  0  0  0  0  0  0  0  0  0
  155.6575  143.1197  165.5444 C   0  0  0  0  0  0  0  0  0  0  0  0
  156.6975  142.8511  164.9425 O   0  0  0  0  0  0  0  0  0  0  0  0
  154.4208  143.0696  165.0191 N   0  0  0  0  0  0  0  0  0  0  0  0
  154.0438  142.7212  163.6958 C   0  0  0  0  0  0  0  0  0  0  0  0
  154.6076  141.7024  162.9768 N   0  0  0  0  0  0  0  0  0  0  0  0
  153.9081  141.8229  161.8567 C   0  0  0  0  0  0  0  0  0  0  0  0
  153.0032  142.8072  161.8829 N   0  0  0  0  0  0  0  0  0  0  0  0
  152.0657  143.2655  160.8692 C   0  0  0  0  0  0  0  0  0  0  0  0
  152.2663  142.5107  159.5393 C   0  0  0  0  0  0  0  0  0  0  0  0
  151.2854  143.0039  158.4629 C   0  0  0  0  0  0  0  0  0  0  0  0
  151.3966  144.5235  158.2599 C   0  0  0  0  0  0  0  0  0  0  0  0
  151.1934  145.2780  159.5838 C   0  0  0  0  0  0  0  0  0  0  0  0
  152.1757  144.7889  160.6609 C   0  0  0  0  0  0  0  0  0  0  0  0
  153.0832  143.4171  163.0905 N   0  0  0  0  0  0  0  0  0  0  0  0
  157.1652  145.4986  170.6850 H   0  0  0  0  0  0  0  0  0  0  0  0
  157.9074  145.9050  169.1434 H   0  0  0  0  0  0  0  0  0  0  0  0
  158.3281  144.3970  169.9546 H   0  0  0  0  0  0  0  0  0  0  0  0
  155.9476  143.6092  169.6821 H   0  0  0  0  0  0  0  0  0  0  0  0
  155.5557  145.0713  168.8186 H   0  0  0  0  0  0  0  0  0  0  0  0
  157.5173  144.3380  167.2138 H   0  0  0  0  0  0  0  0  0  0  0  0
  157.9415  141.9628  167.0568 H   0  0  0  0  0  0  0  0  0  0  0  0
  158.2468  142.4322  168.7176 H   0  0  0  0  0  0  0  0  0  0  0  0
  154.7221  143.7050  167.2374 H   0  0  0  0  0  0  0  0  0  0  0  0
  153.6596  143.3158  165.6341 H   0  0  0  0  0  0  0  0  0  0  0  0
  154.0589  141.1823  161.0002 H   0  0  0  0  0  0  0  0  0  0  0  0
  151.0578  143.0474  161.2279 H   0  0  0  0  0  0  0  0  0  0  0  0
  153.2879  142.6467  159.1819 H   0  0  0  0  0  0  0  0  0  0  0  0
  152.1329  141.4395  159.6946 H   0  0  0  0  0  0  0  0  0  0  0  0
  151.4772  142.4887  157.5213 H   0  0  0  0  0  0  0  0  0  0  0  0
  150.2656  142.7480  158.7533 H   0  0  0  0  0  0  0  0  0  0  0  0
  152.3765  144.7668  157.8471 H   0  0  0  0  0  0  0  0  0  0  0  0
  150.6615  144.8553  157.5261 H   0  0  0  0  0  0  0  0  0  0  0  0
  151.3196  146.3491  159.4239 H   0  0  0  0  0  0  0  0  0  0  0  0
  150.1694  145.1365  159.9316 H   0  0  0  0  0  0  0  0  0  0  0  0
  151.9810  145.3097  161.5994 H   0  0  0  0  0  0  0  0  0  0  0  0
  153.1926  145.0521  160.3667 H   0  0  0  0  0  0  0  0  0  0  0  0
  1  2  1  0  0  0  0
  1 22  1  0  0  0  0
  1 23  1  0  0  0  0
  1 24  1  0  0  0  0
  2  3  1  0  0  0  0
  2 25  1  0  0  0  0
  2 26  1  0  0  0  0
  3  4  1  0  0  0  0
  3  7  1  0  0  0  0
  3 27  1  0  0  0  0
  4  5  1  0  0  0  0
  4 28  1  0  0  0  0
  4 29  1  0  0  0  0
  5  6  3  0  0  0  0
  7  8  1  0  0  0  0
  7 30  1  0  0  0  0
  8  9  2  0  0  0  0
  8 10  1  0  0  0  0
 10 11  1  0  0  0  0
 10 31  1  0  0  0  0
 11 21  2  0  0  0  0
 11 12  1  0  0  0  0
 12 13  2  0  0  0  0
 13 14  1  0  0  0  0
 13 32  1  0  0  0  0
 14 15  1  0  0  0  0
 14 21  1  0  0  0  0
 15 20  1  0  0  0  0
 15 16  1  0  0  0  0
 15 33  1  0  0  0  0
 16 17  1  0  0  0  0
 16 34  1  0  0  0  0
 16 35  1  0  0  0  0
 17 18  1  0  0  0  0
 17 36  1  0  0  0  0
 17 37  1  0  0  0  0
 18 19  1  0  0  0  0
 18 38  1  0  0  0  0
 18 39  1  0  0  0  0
 19 20  1  0  0  0  0
 19 40  1  0  0  0  0
 19 41  1  0  0  0  0
 20 42  1  0  0  0  0
 20 43  1  0  0  0  0
M  END
> <s_m_source_file>
AV-unprocessed.smi

> <i_m_source_file_index>
2730

> <i_lp_mmshare_version>
43012

> <i_f3d_flags>
0

> <s_epik_input>
TiNDW0NIMl1bQ0BASF0oW0NIMl1bQ0gzXSlbTkhdQyg9TylbTkhdYzFuW2NIXW4objEpW0NIXTJbQ0gyXVtDSDJdW0NIMl1bQ0gyXVtDSDJdMg==

> <s_epik_cmdline>
J2VwaWtfcHl0aG9uJywgJy1waCcsICc3LjAnLCAnLXRuJywgJzgnLCAnLW1hJywgJzIwMCcsICctbWV0YWxfYmluZGluZycsICctaW1hZScsICc8aW5maWxlLm1hZT4nLCAnLW9tYWUnLCAnPG91dGZpbGUubWFlPic=

> <r_lp_tautomer_probability>
1

> <r_epik_Ionization_Penalty>
7.18854e-05

> <r_epik_Ionization_Penalty_Charging>
0

> <r_epik_Ionization_Penalty_Neutral>
7.18854e-05

> <r_epik_State_Penalty>
-0

> <r_epik_Charging_Adjusted_Penalty>
0

> <i_epik_Tot_Q>
0

> <i_epik_Tot_abs_Q>
0

> <r_epik_Metal_State_Penalty>
-0

> <b_epik_Metal_Only>
0

> <s_lp_Force_Field>
OPLS_2005

> <r_lp_Energy>
17.9717

> <b_lp_Chiralities_Consistent>
1

> <s_lp_Variant>
AV-unprocessed.smi:2730-2

> <Gold.Version>
5.8.1

> <Gold.Id.Protein>
6NUR|6NUR_protein|mol2

> <Gold.PLP.Fitness>
43.5330

> <Gold.PLP.PLP>
-44.9932

> <Gold.PLP.part.hbond>
-2.1724

> <Gold.PLP.part.metal>
0.0000

> <Gold.PLP.part.buried>
-6.1565

> <Gold.PLP.part.nonpolar>
-34.9550

> <Gold.PLP.part.repulsive>
0.3819

> <Gold.PLP.ligand.clash>
0.0000

> <Gold.PLP.ligand.torsion>
0.7720

> <Gold.PLP.Chemscore.Hbond>
0.0000

> <Gold.PLP.Chemscore.CHOScore>
0.0000

> <Gold.PLP.Chemscore.Metal>
0.0000

> <Gold.PLP.Chemscore.Internal.Correction>
0.0838

> <Gold.Rescore>
     Score         DG    S(hbond)    S(metal)    S(lipo)     H(rot)  DE(clash)    DE(int)     intcor
      8.24     -10.39       0.00        0.00      81.92       1.82       1.47       0.68       ----

> <Gold.Chemscore.Fitness>
8.2378

> <Gold.Chemscore.DG>
-10.3933

> <Gold.Chemscore.ZeroCoef>
-5.4800

> <Gold.Chemscore.Hbond>
0.0000

> <Gold.Chemscore.Metal>
0.0000

> <Gold.Chemscore.Lipo>
81.9240

> <Gold.Chemscore.Internal_Hbond>
0.0000

> <Gold.Chemscore.DEClash>
1.4720

> <Gold.Chemscore.DEInternal>
0.6834

> <Gold.Chemscore.Rot>
1.8249

> <Gold.Chemscore.Internal.Correction>
   9.000000E+99

> <Gold.Chemscore.Hbond.Weighted>
-0.0000

> <Gold.Chemscore.Metal.Weighted>
-0.0000

> <Gold.Chemscore.Lipo.Weighted>
-9.5851

> <Gold.Chemscore.Internal_Hbond.Weighted>
0.0000

> <Gold.Chemscore.DEClash.Weighted>
1.4720

> <Gold.Chemscore.DEInternal.Weighted>
0.6834

> <Gold.Chemscore.Rot.Weighted>
4.6718

> <Gold.Chemscore.Internal.Correction.Weighted>
   9.000000E+99

> <Gold.Protein.RotatedTorsions>
[ 6907 6896 6895 6894 ] final  169.19 input  -60.11 | X-H torsion
[ 7974 7965 7964 7962 ] final   40.80 input  175.53 | X-H torsion
[ 8008 7997 7996 7995 ] final   56.64 input   59.86 | X-H torsion
[ 10167 10162 10161 10158 ] final   95.92 input  -65.29 | X-H torsion
[ 10718 10713 10712 10709 ] final   -6.81 input   66.30 | X-H torsion
[ 10763 10752 10751 10750 ] final  -72.12 input  -60.55 | X-H torsion
[ 11005 11000 10999 10996 ] final  -49.29 input  -57.11 | X-H torsion

> <Gold.Protein.ActiveResidues>
 VAL166  LYS551  ARG553  GLY616  TRP617  ASP618  TYR619  PRO620  LYS621  CYS622 
 ASP623  PHE694  ASN695  SER759  ASP760  ASP761  ALA762  ILE779  LEU786  VAL792 
 PHE793  MET794  SER795  GLU796  ALA797  LYS798  CYS799  TRP800  GLU811  SER814 

> <Gold.Protein.RotatedAtoms>
  151.8357  133.3415  159.3627 H   0  0  0  0  0  0  0  0  0  0  0  0  # atno 6907 bound_to 6896
  150.7250  134.5439  159.5770 H   0  0  0  0  0  0  0  0  0  0  0  0  # atno 6908 bound_to 6896
  152.2902  134.7731  160.0430 H   0  0  0  0  0  0  0  0  0  0  0  0  # atno 6909 bound_to 6896
  146.0876  139.5491  142.9497 H   0  0  0  0  0  0  0  0  0  0  0  0  # atno 7974 bound_to 7965
  155.5207  140.3479  155.4406 H   0  0  0  0  0  0  0  0  0  0  0  0  # atno 8008 bound_to 7997
  156.0786  140.1381  156.9767 H   0  0  0  0  0  0  0  0  0  0  0  0  # atno 8009 bound_to 7997
  154.4567  140.0950  156.6754 H   0  0  0  0  0  0  0  0  0  0  0  0  # atno 8010 bound_to 7997
  139.7943  144.6839  150.9850 H   0  0  0  0  0  0  0  0  0  0  0  0  # atno 10167 bound_to 10162
  156.7264  130.5166  149.5856 H   0  0  0  0  0  0  0  0  0  0  0  0  # atno 10718 bound_to 10713
  154.4413  135.5940  153.6131 H   0  0  0  0  0  0  0  0  0  0  0  0  # atno 10763 bound_to 10752
  152.9805  135.5998  154.3719 H   0  0  0  0  0  0  0  0  0  0  0  0  # atno 10764 bound_to 10752
  154.3569  135.2841  155.2320 H   0  0  0  0  0  0  0  0  0  0  0  0  # atno 10765 bound_to 10752
  141.0751  133.6668  156.3564 H   0  0  0  0  0  0  0  0  0  0  0  0  # atno 11005 bound_to 11000
  145.6101  141.0341  143.1971 LP  0  0  0  0  0  0  0  0  0  0  0  0  # atno 17320 bound_to 7965
  144.7336  139.7650  143.7337 LP  0  0  0  0  0  0  0  0  0  0  0  0  # atno 17321 bound_to 7965
  140.7820  143.4348  151.0640 LP  0  0  0  0  0  0  0  0  0  0  0  0  # atno 17342 bound_to 10162
  139.8023  143.8067  152.3164 LP  0  0  0  0  0  0  0  0  0  0  0  0  # atno 17343 bound_to 10162
  156.1559  130.6341  151.0656 LP  0  0  0  0  0  0  0  0  0  0  0  0  # atno 17370 bound_to 10713
  157.6877  131.0820  150.7197 LP  0  0  0  0  0  0  0  0  0  0  0  0  # atno 17371 bound_to 10713
  140.5591  134.5952  157.5429 LP  0  0  0  0  0  0  0  0  0  0  0  0  # atno 17394 bound_to 11000
  139.9563  134.7529  156.0335 LP  0  0  0  0  0  0  0  0  0  0  0  0  # atno 17395 bound_to 11000

$$$$
