AV-unprocessed.smi:1185|AV-procd|sdf|4973|dock1
  -GOLD-   22720 3563D 1   1.00000     0.00000
 Structure written by MMmdl.
 38 40  0  0  0  0  0  0  0  0  1 V2000
  152.7748  138.8402  158.5966 O   0  0  0  0  0  0  0  0  0  0  0  0
  152.6797  140.0040  158.9885 C   0  0  0  0  0  0  0  0  0  0  0  0
  153.5741  140.5980  159.9938 C   0  0  0  0  0  0  0  0  0  0  0  0
  154.6671  139.7149  160.5901 C   0  0  0  0  0  0  0  0  0  0  0  0
  155.2686  140.3046  161.6244 F   0  0  0  0  0  0  0  0  0  0  0  0
  154.1550  138.5611  161.0198 F   0  0  0  0  0  0  0  0  0  0  0  0
  155.5998  139.4429  159.6768 F   0  0  0  0  0  0  0  0  0  0  0  0
  153.4138  141.8915  160.3656 C   0  0  0  0  0  0  0  0  0  0  0  0
  152.3645  142.6978  159.7752 C   0  0  0  0  0  0  0  0  0  0  0  0
  152.1444  144.1410  160.1278 C   0  0  0  0  0  0  0  0  0  0  0  0
  150.8297  144.8337  159.8537 C   0  0  0  0  0  0  0  0  0  0  0  0
  152.0641  145.2212  159.0731 C   0  0  0  0  0  0  0  0  0  0  0  0
  151.5741  142.1713  158.9015 N   0  0  0  0  0  0  0  0  0  0  0  0
  151.7241  140.8555  158.5113 N   0  0  0  0  0  0  0  0  0  0  0  0
  150.7568  140.4245  157.4941 C   0  0  0  0  0  0  0  0  0  0  0  0
  150.6509  141.4291  156.3260 C   0  0  2  0  0  0  0  0  0  0  0  0
  150.2493  142.6837  156.8438 O   0  0  0  0  0  0  0  0  0  0  0  0
  149.6833  140.9253  155.2621 C   0  0  0  0  0  0  0  0  0  0  0  0
  148.5161  141.6592  154.9507 C   0  0  0  0  0  0  0  0  0  0  0  0
  147.6177  141.1886  153.9735 C   0  0  0  0  0  0  0  0  0  0  0  0
  147.8767  139.9783  153.3032 C   0  0  0  0  0  0  0  0  0  0  0  0
  149.0327  139.2376  153.6140 C   0  0  0  0  0  0  0  0  0  0  0  0
  149.9327  139.7062  154.5910 C   0  0  0  0  0  0  0  0  0  0  0  0
  151.0356  138.9749  154.8812 F   0  0  0  0  0  0  0  0  0  0  0  0
  154.0588  142.3447  161.1033 H   0  0  0  0  0  0  0  0  0  0  0  0
  152.6547  144.3939  161.0552 H   0  0  0  0  0  0  0  0  0  0  0  0
  150.0587  144.2741  159.3269 H   0  0  0  0  0  0  0  0  0  0  0  0
  150.4669  145.5353  160.6020 H   0  0  0  0  0  0  0  0  0  0  0  0
  152.5227  146.1811  159.3020 H   0  0  0  0  0  0  0  0  0  0  0  0
  152.1016  144.9254  158.0262 H   0  0  0  0  0  0  0  0  0  0  0  0
  151.0746  139.4527  157.1111 H   0  0  0  0  0  0  0  0  0  0  0  0
  149.7737  140.2430  157.9336 H   0  0  0  0  0  0  0  0  0  0  0  0
  151.6280  141.5743  155.8650 H   0  0  0  0  0  0  0  0  0  0  0  0
  149.9703  143.2285  156.1238 H   0  0  0  0  0  0  0  0  0  0  0  0
  148.3029  142.5861  155.4626 H   0  0  0  0  0  0  0  0  0  0  0  0
  146.7288  141.7560  153.7399 H   0  0  0  0  0  0  0  0  0  0  0  0
  147.1883  139.6167  152.5537 H   0  0  0  0  0  0  0  0  0  0  0  0
  149.2291  138.3064  153.1032 H   0  0  0  0  0  0  0  0  0  0  0  0
  1  2  2  0  0  0  0
  2 14  1  0  0  0  0
  2  3  1  0  0  0  0
  3  4  1  0  0  0  0
  3  8  2  0  0  0  0
  4  5  1  0  0  0  0
  4  6  1  0  0  0  0
  4  7  1  0  0  0  0
  8  9  1  0  0  0  0
  8 25  1  0  0  0  0
  9 10  1  0  0  0  0
  9 13  2  0  0  0  0
 10 12  1  0  0  0  0
 10 11  1  0  0  0  0
 10 26  1  0  0  0  0
 11 12  1  0  0  0  0
 11 27  1  0  0  0  0
 11 28  1  0  0  0  0
 12 29  1  0  0  0  0
 12 30  1  0  0  0  0
 13 14  1  0  0  0  0
 14 15  1  0  0  0  0
 15 16  1  0  0  0  0
 15 31  1  0  0  0  0
 15 32  1  0  0  0  0
 16 17  1  0  0  0  0
 16 18  1  0  0  0  0
 16 33  1  0  0  0  0
 17 34  1  0  0  0  0
 18 23  1  0  0  0  0
 18 19  2  0  0  0  0
 19 20  1  0  0  0  0
 19 35  1  0  0  0  0
 20 21  2  0  0  0  0
 20 36  1  0  0  0  0
 21 22  1  0  0  0  0
 21 37  1  0  0  0  0
 22 23  2  0  0  0  0
 22 38  1  0  0  0  0
 23 24  1  0  0  0  0
M  END
> <s_m_source_file>
AV-unprocessed.smi

> <i_m_source_file_index>
1185

> <i_lp_mmshare_version>
43012

> <i_f3d_flags>
0

> <s_epik_input>
Tz1jMWMoQyhGKShGKUYpW2NIXWMoW0NIXTJbQ0gyXVtDSDJdMilubjFbQ0gyXVtDQEhdKFtPSF0pYzNbY0hdW2NIXVtjSF1bY0hdYzNG

> <s_epik_cmdline>
J2VwaWtfcHl0aG9uJywgJy1waCcsICc3LjAnLCAnLXRuJywgJzgnLCAnLW1hJywgJzIwMCcsICctbWV0YWxfYmluZGluZycsICctaW1hZScsICc8aW5maWxlLm1hZT4nLCAnLW9tYWUnLCAnPG91dGZpbGUubWFlPic=

> <r_lp_tautomer_probability>
1

> <r_epik_Ionization_Penalty>
7.26807e-08

> <r_epik_Ionization_Penalty_Charging>
9.677e-10

> <r_epik_Ionization_Penalty_Neutral>
7.1713e-08

> <r_epik_State_Penalty>
-0

> <r_epik_Charging_Adjusted_Penalty>
9.677e-10

> <i_epik_Tot_Q>
0

> <i_epik_Tot_abs_Q>
0

> <r_epik_Metal_State_Penalty>
-0

> <b_epik_Metal_Only>
0

> <s_lp_Force_Field>
OPLS_2005

> <r_lp_Energy>
34.1774

> <b_lp_Chiralities_Consistent>
1

> <s_lp_Variant>
AV-unprocessed.smi:1185-1

> <Gold.Version>
5.8.1

> <Gold.Id.Protein>
6NUR|6NUR_protein|mol2

> <Gold.PLP.Fitness>
54.4683

> <Gold.PLP.PLP>
-52.3809

> <Gold.PLP.part.hbond>
-1.0000

> <Gold.PLP.part.metal>
0.0000

> <Gold.PLP.part.buried>
-1.4299

> <Gold.PLP.part.nonpolar>
-50.8198

> <Gold.PLP.part.repulsive>
0.0053

> <Gold.PLP.ligand.clash>
0.1291

> <Gold.PLP.ligand.torsion>
0.7129

> <Gold.PLP.Chemscore.Hbond>
0.9920

> <Gold.PLP.Chemscore.CHOScore>
0.0000

> <Gold.PLP.Chemscore.Metal>
0.0000

> <Gold.Chemscore.Hbonds>
donor molecule, donor type, donor heavy atom, donor atom, acceptor molecule, acceptor atom, score
      L1  H    17    34       P1  8028  0.88

> <Gold.PLP.Chemscore.Internal.Correction>
0.6663

> <Gold.Rescore>
     Score         DG    S(hbond)    S(metal)    S(lipo)     H(rot)  DE(clash)    DE(int)     intcor
     13.03     -17.13       0.99        0.00     119.49       2.20       0.25       3.85       ----

> <Gold.Chemscore.Fitness>
13.0280

> <Gold.Chemscore.DG>
-17.1251

> <Gold.Chemscore.ZeroCoef>
-5.4800

> <Gold.Chemscore.Hbond>
0.9874

> <Gold.Chemscore.Metal>
0.0000

> <Gold.Chemscore.Lipo>
119.4866

> <Gold.Chemscore.Internal_Hbond>
0.0000

> <Gold.Chemscore.DEClash>
0.2454

> <Gold.Chemscore.DEInternal>
3.8517

> <Gold.Chemscore.Rot>
2.2003

> <Gold.Chemscore.Internal.Correction>
   9.000000E+99

> <Gold.Chemscore.Hbonds>
donor molecule, donor type, donor heavy atom, donor atom, acceptor molecule, acceptor atom, score
      L1  H    17    34       P1  8028  0.86

> <Gold.Chemscore.Hbond.Weighted>
-3.2980

> <Gold.Chemscore.Metal.Weighted>
-0.0000

> <Gold.Chemscore.Lipo.Weighted>
-13.9799

> <Gold.Chemscore.Internal_Hbond.Weighted>
0.0000

> <Gold.Chemscore.DEClash.Weighted>
0.2454

> <Gold.Chemscore.DEInternal.Weighted>
3.8517

> <Gold.Chemscore.Rot.Weighted>
5.6328

> <Gold.Chemscore.Internal.Correction.Weighted>
   9.000000E+99

> <Gold.Protein.RotatedTorsions>
[ 6907 6896 6895 6894 ] final  135.55 input  -60.11 | X-H torsion
[ 7974 7965 7964 7962 ] final -152.86 input  175.53 | X-H torsion
[ 8008 7997 7996 7995 ] final   39.11 input   59.86 | X-H torsion
[ 10167 10162 10161 10158 ] final  140.00 input  -65.29 | X-H torsion
[ 10718 10713 10712 10709 ] final  128.23 input   66.30 | X-H torsion
[ 10763 10752 10751 10750 ] final  151.72 input  -60.55 | X-H torsion
[ 11005 11000 10999 10996 ] final    8.72 input  -57.11 | X-H torsion

> <Gold.Protein.ActiveResidues>
 VAL166  LYS551  ARG553  GLY616  TRP617  ASP618  TYR619  PRO620  LYS621  CYS622 
 ASP623  PHE694  ASN695  SER759  ASP760  ASP761  ALA762  ILE779  LEU786  VAL792 
 PHE793  MET794  SER795  GLU796  ALA797  LYS798  CYS799  TRP800  GLU811  SER814 

> <Gold.Protein.RotatedAtoms>
  152.2992  133.5638  159.5606 H   0  0  0  0  0  0  0  0  0  0  0  0  # atno 6907 bound_to 6896
  150.7269  134.0317  159.3744 H   0  0  0  0  0  0  0  0  0  0  0  0  # atno 6908 bound_to 6896
  151.8218  135.0650  160.0477 H   0  0  0  0  0  0  0  0  0  0  0  0  # atno 6909 bound_to 6896
  144.7772  140.4605  143.5865 H   0  0  0  0  0  0  0  0  0  0  0  0  # atno 7974 bound_to 7965
  155.2313  140.3338  155.4303 H   0  0  0  0  0  0  0  0  0  0  0  0  # atno 8008 bound_to 7997
  156.2294  140.1843  156.7328 H   0  0  0  0  0  0  0  0  0  0  0  0  # atno 8009 bound_to 7997
  154.5952  140.0632  156.9279 H   0  0  0  0  0  0  0  0  0  0  0  0  # atno 8010 bound_to 7997
  139.5062  144.6261  151.5934 H   0  0  0  0  0  0  0  0  0  0  0  0  # atno 10167 bound_to 10162
  157.5263  131.1098  150.9078 H   0  0  0  0  0  0  0  0  0  0  0  0  # atno 10718 bound_to 10713
  154.1084  135.2841  155.3236 H   0  0  0  0  0  0  0  0  0  0  0  0  # atno 10763 bound_to 10752
  154.6507  135.5370  153.7901 H   0  0  0  0  0  0  0  0  0  0  0  0  # atno 10764 bound_to 10752
  153.0354  135.6509  154.1244 H   0  0  0  0  0  0  0  0  0  0  0  0  # atno 10765 bound_to 10752
  140.5338  134.0440  155.7882 H   0  0  0  0  0  0  0  0  0  0  0  0  # atno 11005 bound_to 11000
  145.6154  139.1518  143.3052 LP  0  0  0  0  0  0  0  0  0  0  0  0  # atno 17320 bound_to 7965
  146.1958  140.6267  142.9125 LP  0  0  0  0  0  0  0  0  0  0  0  0  # atno 17321 bound_to 7965
  140.5978  143.9664  150.6366 LP  0  0  0  0  0  0  0  0  0  0  0  0  # atno 17342 bound_to 10162
  140.2866  143.3353  152.1102 LP  0  0  0  0  0  0  0  0  0  0  0  0  # atno 17343 bound_to 10162
  156.9673  130.5477  149.5288 LP  0  0  0  0  0  0  0  0  0  0  0  0  # atno 17370 bound_to 10713
  156.0389  130.5474  150.8722 LP  0  0  0  0  0  0  0  0  0  0  0  0  # atno 17371 bound_to 10713
  141.1266  133.9373  157.2622 LP  0  0  0  0  0  0  0  0  0  0  0  0  # atno 17394 bound_to 11000
  139.9540  135.0169  156.9075 LP  0  0  0  0  0  0  0  0  0  0  0  0  # atno 17395 bound_to 11000

$$$$
