AV-unprocessed.smi:342|AV-procd|sdf|2385|dock5
  -GOLD-   2262022313D 1   1.00000     0.00000
 Structure written by MMmdl.
 41 43  0  0  0  0  0  0  0  0  1 V2000
  152.2491  139.6473  155.5217 O   0  0  0  0  0  0  0  0  0  0  0  0
  150.8978  139.9921  155.7553 C   0  0  1  0  0  0  0  0  0  0  0  0
  149.9982  139.0587  154.9196 C   0  0  0  0  0  0  0  0  0  0  0  0
  148.5811  139.4225  154.8675 N   0  0  0  0  0  0  0  0  0  0  0  0
  147.8877  138.9837  156.0743 C   0  0  0  0  0  0  0  0  0  0  0  0
  146.3944  139.3521  156.0480 C   0  0  0  0  0  0  0  0  0  0  0  0
  146.2555  140.7582  155.8761 O   0  0  0  0  0  0  0  0  0  0  0  0
  146.8775  141.2274  154.6847 C   0  0  0  0  0  0  0  0  0  0  0  0
  148.3719  140.8601  154.6995 C   0  0  0  0  0  0  0  0  0  0  0  0
  150.5880  139.8719  157.2615 C   0  0  0  0  0  0  0  0  0  0  0  0
  151.5289  140.6119  158.0939 N   0  0  0  0  0  0  0  0  0  0  0  0
  152.5346  140.1320  158.8726 C   0  0  0  0  0  0  0  0  0  0  0  0
  152.8237  138.6618  159.0024 C   0  0  0  0  0  0  0  0  0  0  0  0
  151.7272  137.9891  159.3552 F   0  0  0  0  0  0  0  0  0  0  0  0
  153.2497  138.1651  157.8408 F   0  0  0  0  0  0  0  0  0  0  0  0
  153.7522  138.4375  159.9319 F   0  0  0  0  0  0  0  0  0  0  0  0
  153.2378  141.0540  159.5346 N   0  0  0  0  0  0  0  0  0  0  0  0
  152.6317  142.2350  159.1570 C   0  0  0  0  0  0  0  0  0  0  0  0
  152.9169  143.5703  159.5209 C   0  0  0  0  0  0  0  0  0  0  0  0
  152.1432  144.6313  159.0064 C   0  0  0  0  0  0  0  0  0  0  0  0
  151.0746  144.3721  158.1242 C   0  0  0  0  0  0  0  0  0  0  0  0
  150.7742  143.0487  157.7486 C   0  0  0  0  0  0  0  0  0  0  0  0
  151.5527  141.9934  158.2616 C   0  0  0  0  0  0  0  0  0  0  0  0
  152.2888  138.7366  155.2728 H   0  0  0  0  0  0  0  0  0  0  0  0
  150.7595  141.0298  155.4580 H   0  0  0  0  0  0  0  0  0  0  0  0
  150.4002  139.0238  153.9057 H   0  0  0  0  0  0  0  0  0  0  0  0
  150.0854  138.0412  155.3039 H   0  0  0  0  0  0  0  0  0  0  0  0
  147.9875  137.9035  156.1867 H   0  0  0  0  0  0  0  0  0  0  0  0
  148.3533  139.4327  156.9530 H   0  0  0  0  0  0  0  0  0  0  0  0
  145.8799  138.8263  155.2421 H   0  0  0  0  0  0  0  0  0  0  0  0
  145.9146  139.0573  156.9813 H   0  0  0  0  0  0  0  0  0  0  0  0
  146.3826  140.7954  153.8134 H   0  0  0  0  0  0  0  0  0  0  0  0
  146.7536  142.3085  154.6200 H   0  0  0  0  0  0  0  0  0  0  0  0
  148.8676  141.4031  155.5057 H   0  0  0  0  0  0  0  0  0  0  0  0
  148.8184  141.2064  153.7687 H   0  0  0  0  0  0  0  0  0  0  0  0
  149.5891  140.2596  157.4642 H   0  0  0  0  0  0  0  0  0  0  0  0
  150.5700  138.8252  157.5613 H   0  0  0  0  0  0  0  0  0  0  0  0
  153.7317  143.7784  160.1984 H   0  0  0  0  0  0  0  0  0  0  0  0
  152.3699  145.6481  159.2915 H   0  0  0  0  0  0  0  0  0  0  0  0
  150.4852  145.1898  157.7358 H   0  0  0  0  0  0  0  0  0  0  0  0
  149.9558  142.8484  157.0734 H   0  0  0  0  0  0  0  0  0  0  0  0
  1  2  1  0  0  0  0
  1 24  1  0  0  0  0
  2  3  1  0  0  0  0
  2 10  1  0  0  0  0
  2 25  1  0  0  0  0
  3  4  1  0  0  0  0
  3 26  1  0  0  0  0
  3 27  1  0  0  0  0
  4  9  1  0  0  0  0
  4  5  1  0  0  0  0
  5  6  1  0  0  0  0
  5 28  1  0  0  0  0
  5 29  1  0  0  0  0
  6  7  1  0  0  0  0
  6 30  1  0  0  0  0
  6 31  1  0  0  0  0
  7  8  1  0  0  0  0
  8  9  1  0  0  0  0
  8 32  1  0  0  0  0
  8 33  1  0  0  0  0
  9 34  1  0  0  0  0
  9 35  1  0  0  0  0
 10 11  1  0  0  0  0
 10 36  1  0  0  0  0
 10 37  1  0  0  0  0
 11 23  1  0  0  0  0
 11 12  1  0  0  0  0
 12 13  1  0  0  0  0
 12 17  2  0  0  0  0
 13 14  1  0  0  0  0
 13 15  1  0  0  0  0
 13 16  1  0  0  0  0
 17 18  1  0  0  0  0
 18 23  2  0  0  0  0
 18 19  1  0  0  0  0
 19 20  2  0  0  0  0
 19 38  1  0  0  0  0
 20 21  1  0  0  0  0
 20 39  1  0  0  0  0
 21 22  2  0  0  0  0
 21 40  1  0  0  0  0
 22 23  1  0  0  0  0
 22 41  1  0  0  0  0
M  END
> <s_m_source_file>
AV-unprocessed.smi

> <i_m_source_file_index>
342

> <i_lp_mmshare_version>
43012

> <i_f3d_flags>
0

> <s_epik_input>
W2NIXTFbY0hdW2NIXVtjSF1jKGMxMiluKGMobjIpQyhGKShGKUYpW0NIMl1bQ0BIXShbT0hdKVtDSDJdTjNbQ0gyXVtDSDJdT1tDSDJdW0NIMl0z

> <s_epik_cmdline>
J2VwaWtfcHl0aG9uJywgJy1waCcsICc3LjAnLCAnLXRuJywgJzgnLCAnLW1hJywgJzIwMCcsICctbWV0YWxfYmluZGluZycsICctaW1hZScsICc8aW5maWxlLm1hZT4nLCAnLW9tYWUnLCAnPG91dGZpbGUubWFlPic=

> <r_epik_Ionization_Penalty>
0.263195

> <r_epik_Ionization_Penalty_Charging>
0

> <r_epik_Ionization_Penalty_Neutral>
0.263195

> <r_epik_State_Penalty>
0.254683

> <r_epik_Charging_Adjusted_Penalty>
0.254683

> <i_epik_Tot_Q>
0

> <i_epik_Tot_abs_Q>
0

> <r_epik_Metal_State_Penalty>
0.254691

> <b_epik_Metal_Only>
0

> <s_lp_Force_Field>
OPLS_2005

> <r_lp_Energy>
34.5572

> <b_lp_Chiralities_Consistent>
1

> <s_lp_Variant>
AV-unprocessed.smi:342-2

> <Gold.Version>
5.8.1

> <Gold.Id.Protein>
6NUR|6NUR_protein|mol2

> <Gold.PLP.Fitness>
48.4681

> <Gold.PLP.PLP>
-46.4889

> <Gold.PLP.part.hbond>
-1.2766

> <Gold.PLP.part.metal>
0.0000

> <Gold.PLP.part.buried>
-5.5582

> <Gold.PLP.part.nonpolar>
-39.9371

> <Gold.PLP.part.repulsive>
0.2152

> <Gold.PLP.ligand.clash>
0.0000

> <Gold.PLP.ligand.torsion>
0.5353

> <Gold.PLP.Chemscore.Hbond>
1.0000

> <Gold.PLP.Chemscore.CHOScore>
0.0000

> <Gold.PLP.Chemscore.Metal>
0.0000

> <Gold.Chemscore.Hbonds>
donor molecule, donor type, donor heavy atom, donor atom, acceptor molecule, acceptor atom, score
      P1  H  7997  8010       L1     1  0.41

> <Gold.PLP.Chemscore.Internal.Correction>
0.0498

> <Gold.Rescore>
     Score         DG    S(hbond)    S(metal)    S(lipo)     H(rot)  DE(clash)    DE(int)     intcor
     15.03     -16.38       0.93        0.00     115.74       2.24       0.05       1.30       ----

> <Gold.Chemscore.Fitness>
15.0301

> <Gold.Chemscore.DG>
-16.3767

> <Gold.Chemscore.ZeroCoef>
-5.4800

> <Gold.Chemscore.Hbond>
0.9267

> <Gold.Chemscore.Metal>
0.0000

> <Gold.Chemscore.Lipo>
115.7375

> <Gold.Chemscore.Internal_Hbond>
0.0000

> <Gold.Chemscore.DEClash>
0.0485

> <Gold.Chemscore.DEInternal>
1.2981

> <Gold.Chemscore.Rot>
2.2421

> <Gold.Chemscore.Internal.Correction>
   9.000000E+99

> <Gold.Chemscore.Hbonds>
donor molecule, donor type, donor heavy atom, donor atom, acceptor molecule, acceptor atom, score
      P1  H  7997  8010       L1     1  0.21

> <Gold.Chemscore.Hbond.Weighted>
-3.0953

> <Gold.Chemscore.Metal.Weighted>
-0.0000

> <Gold.Chemscore.Lipo.Weighted>
-13.5413

> <Gold.Chemscore.Internal_Hbond.Weighted>
0.0000

> <Gold.Chemscore.DEClash.Weighted>
0.0485

> <Gold.Chemscore.DEInternal.Weighted>
1.2981

> <Gold.Chemscore.Rot.Weighted>
5.7399

> <Gold.Chemscore.Internal.Correction.Weighted>
   9.000000E+99

> <Gold.Protein.RotatedTorsions>
[ 6907 6896 6895 6894 ] final  125.11 input  -60.11 | X-H torsion
[ 7974 7965 7964 7962 ] final   17.59 input  175.53 | X-H torsion
[ 8008 7997 7996 7995 ] final   82.38 input   59.86 | X-H torsion
[ 10167 10162 10161 10158 ] final  -48.31 input  -65.29 | X-H torsion
[ 10718 10713 10712 10709 ] final -171.72 input   66.30 | X-H torsion
[ 10763 10752 10751 10750 ] final -144.93 input  -60.55 | X-H torsion
[ 11005 11000 10999 10996 ] final  -62.30 input  -57.11 | X-H torsion

> <Gold.Protein.ActiveResidues>
 VAL166  LYS551  ARG553  GLY616  TRP617  ASP618  TYR619  PRO620  LYS621  CYS622 
 ASP623  PHE694  ASN695  SER759  ASP760  ASP761  ALA762  ILE779  LEU786  VAL792 
 PHE793  MET794  SER795  GLU796  ALA797  LYS798  CYS799  TRP800  GLU811  SER814 

> <Gold.Protein.RotatedAtoms>
  152.4020  133.6832  159.6324 H   0  0  0  0  0  0  0  0  0  0  0  0  # atno 6907 bound_to 6896
  150.7910  133.8775  159.3285 H   0  0  0  0  0  0  0  0  0  0  0  0  # atno 6908 bound_to 6896
  151.6538  135.1000  160.0217 H   0  0  0  0  0  0  0  0  0  0  0  0  # atno 6909 bound_to 6896
  146.2213  139.8580  142.8610 H   0  0  0  0  0  0  0  0  0  0  0  0  # atno 7974 bound_to 7965
  155.9099  140.3428  155.6090 H   0  0  0  0  0  0  0  0  0  0  0  0  # atno 8008 bound_to 7997
  155.7400  140.0806  157.2269 H   0  0  0  0  0  0  0  0  0  0  0  0  # atno 8009 bound_to 7997
  154.4054  140.1572  156.2593 H   0  0  0  0  0  0  0  0  0  0  0  0  # atno 8010 bound_to 7997
  140.6736  143.2745  151.4053 H   0  0  0  0  0  0  0  0  0  0  0  0  # atno 10167 bound_to 10162
  156.7450  130.9357  151.3112 H   0  0  0  0  0  0  0  0  0  0  0  0  # atno 10718 bound_to 10713
  154.8406  135.3427  154.6423 H   0  0  0  0  0  0  0  0  0  0  0  0  # atno 10763 bound_to 10752
  153.7035  135.6968  153.5061 H   0  0  0  0  0  0  0  0  0  0  0  0  # atno 10764 bound_to 10752
  153.2505  135.4355  155.0747 H   0  0  0  0  0  0  0  0  0  0  0  0  # atno 10765 bound_to 10752
  141.1355  133.6638  156.5506 H   0  0  0  0  0  0  0  0  0  0  0  0  # atno 11005 bound_to 11000
  145.2733  141.0116  143.3759 LP  0  0  0  0  0  0  0  0  0  0  0  0  # atno 17320 bound_to 7965
  144.9206  139.4416  143.6543 LP  0  0  0  0  0  0  0  0  0  0  0  0  # atno 17321 bound_to 7965
  139.6017  144.1281  152.2205 LP  0  0  0  0  0  0  0  0  0  0  0  0  # atno 17342 bound_to 10162
  140.0668  144.5812  150.7222 LP  0  0  0  0  0  0  0  0  0  0  0  0  # atno 17343 bound_to 10162
  157.6802  130.9132  150.0248 LP  0  0  0  0  0  0  0  0  0  0  0  0  # atno 17370 bound_to 10713
  156.1439  130.3642  149.9540 LP  0  0  0  0  0  0  0  0  0  0  0  0  # atno 17371 bound_to 10713
  140.4067  134.7309  157.4812 LP  0  0  0  0  0  0  0  0  0  0  0  0  # atno 17394 bound_to 11000
  140.0457  134.6203  155.8924 LP  0  0  0  0  0  0  0  0  0  0  0  0  # atno 17395 bound_to 11000

$$$$
