AV-unprocessed.smi:3057|AV-procd|sdf|11664|dock8
  -GOLD-   2272017 73D 1   1.00000     0.00000
 Structure written by MMmdl.
 40 42  0  0  0  0  0  0  0  0  1 V2000
  153.3873  136.9844  161.1531 C   0  0  0  0  0  0  0  0  0  0  0  0
  154.6168  136.5577  161.9783 C   0  0  2  0  0  0  0  0  0  0  0  0
  154.2259  135.6182  163.1337 C   0  0  0  0  0  0  0  0  0  0  0  0
  154.0794  136.5434  164.3508 C   0  0  0  0  0  0  0  0  0  0  0  0
  154.9333  137.7385  163.9587 C   0  0  0  0  0  0  0  0  0  0  0  0
  155.3392  138.5738  164.7652 O   0  0  0  0  0  0  0  0  0  0  0  0
  155.2153  137.6943  162.6505 N   0  0  0  0  0  0  0  0  0  0  0  0
  156.2625  138.4377  161.9449 C   0  0  2  0  0  0  0  0  0  0  0  0
  155.7767  139.8420  161.5439 C   0  0  0  0  0  0  0  0  0  0  0  0
  156.5128  140.6256  160.9423 O   0  0  0  0  0  0  0  0  0  0  0  0
  154.5234  140.1503  161.9089 N   0  0  0  0  0  0  0  0  0  0  0  0
  153.8629  141.4289  161.6628 C   0  0  0  0  0  0  0  0  0  0  0  0
  153.7185  141.7597  160.1628 C   0  0  0  0  0  0  0  0  0  0  0  0
  152.9376  143.0347  159.8907 C   0  0  0  0  0  0  0  0  0  0  0  0
  152.3201  143.7398  160.9462 C   0  0  0  0  0  0  0  0  0  0  0  0
  151.5909  144.9046  160.6399 C   0  0  0  0  0  0  0  0  0  0  0  0
  151.5121  145.3208  159.2970 C   0  0  0  0  0  0  0  0  0  0  0  0
  152.1697  144.5509  158.3167 C   0  0  0  0  0  0  0  0  0  0  0  0
  152.8689  143.4304  158.5996 N   0  0  0  0  0  0  0  0  0  0  0  0
  156.5973  137.6201  160.6713 C   0  0  0  0  0  0  0  0  0  0  0  0
  155.9398  135.9477  160.9209 S   0  0  0  0  0  0  0  0  0  0  0  0
  152.6294  137.4549  161.7805 H   0  0  0  0  0  0  0  0  0  0  0  0
  152.9264  136.1240  160.6675 H   0  0  0  0  0  0  0  0  0  0  0  0
  153.6526  137.6954  160.3705 H   0  0  0  0  0  0  0  0  0  0  0  0
  153.3141  135.0559  162.9292 H   0  0  0  0  0  0  0  0  0  0  0  0
  155.0183  134.8927  163.3240 H   0  0  0  0  0  0  0  0  0  0  0  0
  153.0466  136.8666  164.4844 H   0  0  0  0  0  0  0  0  0  0  0  0
  154.4280  136.0763  165.2722 H   0  0  0  0  0  0  0  0  0  0  0  0
  157.1431  138.5093  162.5861 H   0  0  0  0  0  0  0  0  0  0  0  0
  153.9882  139.4506  162.4027 H   0  0  0  0  0  0  0  0  0  0  0  0
  152.8889  141.4512  162.1536 H   0  0  0  0  0  0  0  0  0  0  0  0
  154.4667  142.1989  162.1439 H   0  0  0  0  0  0  0  0  0  0  0  0
  154.7071  141.8495  159.7110 H   0  0  0  0  0  0  0  0  0  0  0  0
  153.2323  140.9291  159.6498 H   0  0  0  0  0  0  0  0  0  0  0  0
  152.3950  143.3918  161.9661 H   0  0  0  0  0  0  0  0  0  0  0  0
  151.0996  145.4663  161.4204 H   0  0  0  0  0  0  0  0  0  0  0  0
  150.9614  146.2090  159.0248 H   0  0  0  0  0  0  0  0  0  0  0  0
  152.1315  144.8417  157.2773 H   0  0  0  0  0  0  0  0  0  0  0  0
  156.1129  138.0280  159.7830 H   0  0  0  0  0  0  0  0  0  0  0  0
  157.6692  137.5881  160.4743 H   0  0  0  0  0  0  0  0  0  0  0  0
  1  2  1  0  0  0  0
  1 22  1  0  0  0  0
  1 23  1  0  0  0  0
  1 24  1  0  0  0  0
  2  7  1  0  0  0  0
  2 21  1  0  0  0  0
  2  3  1  0  0  0  0
  3  4  1  0  0  0  0
  3 25  1  0  0  0  0
  3 26  1  0  0  0  0
  4  5  1  0  0  0  0
  4 27  1  0  0  0  0
  4 28  1  0  0  0  0
  5  6  2  0  0  0  0
  5  7  1  0  0  0  0
  7  8  1  0  0  0  0
  8  9  1  0  0  0  0
  8 20  1  0  0  0  0
  8 29  1  0  0  0  0
  9 10  2  0  0  0  0
  9 11  1  0  0  0  0
 11 12  1  0  0  0  0
 11 30  1  0  0  0  0
 12 13  1  0  0  0  0
 12 31  1  0  0  0  0
 12 32  1  0  0  0  0
 13 14  1  0  0  0  0
 13 33  1  0  0  0  0
 13 34  1  0  0  0  0
 14 19  1  0  0  0  0
 14 15  2  0  0  0  0
 15 16  1  0  0  0  0
 15 35  1  0  0  0  0
 16 17  2  0  0  0  0
 16 36  1  0  0  0  0
 17 18  1  0  0  0  0
 17 37  1  0  0  0  0
 18 19  2  0  0  0  0
 18 38  1  0  0  0  0
 20 21  1  0  0  0  0
 20 39  1  0  0  0  0
 20 40  1  0  0  0  0
M  END
> <s_m_source_file>
AV-unprocessed.smi

> <i_m_source_file_index>
3057

> <i_lp_mmshare_version>
43012

> <i_f3d_flags>
0

> <s_epik_input>
W0NIMl0xW0NIMl1DKD1PKU4oW0NAQF0xMltDSDNdKVtDQEhdKFtDSDJdUzIpQyg9TylbTkhdW0NIMl1bQ0gyXWMzW2NIXVtjSF1bY0hdW2NIXW4z

> <s_epik_cmdline>
J2VwaWtfcHl0aG9uJywgJy1waCcsICc3LjAnLCAnLXRuJywgJzgnLCAnLW1hJywgJzIwMCcsICctbWV0YWxfYmluZGluZycsICctaW1hZScsICc8aW5maWxlLm1hZT4nLCAnLW9tYWUnLCAnPG91dGZpbGUubWFlPic=

> <r_epik_Ionization_Penalty>
0.0249631

> <r_epik_Ionization_Penalty_Charging>
0

> <r_epik_Ionization_Penalty_Neutral>
0.0249631

> <r_epik_State_Penalty>
0.0202943

> <r_epik_Charging_Adjusted_Penalty>
0.0202943

> <i_epik_Tot_Q>
0

> <i_epik_Tot_abs_Q>
0

> <r_epik_Metal_State_Penalty>
0.0194661

> <b_epik_Metal_Only>
0

> <s_lp_Force_Field>
OPLS_2005

> <r_lp_Energy>
26.6501

> <b_lp_Chiralities_Consistent>
1

> <s_lp_Variant>
AV-unprocessed.smi:3057-4

> <Gold.Version>
5.8.1

> <Gold.Id.Protein>
6NUR|6NUR_protein|mol2

> <Gold.PLP.Fitness>
46.2103

> <Gold.PLP.PLP>
-46.2773

> <Gold.PLP.part.hbond>
-1.0000

> <Gold.PLP.part.metal>
0.0000

> <Gold.PLP.part.buried>
-5.0139

> <Gold.PLP.part.nonpolar>
-41.4790

> <Gold.PLP.part.repulsive>
0.0364

> <Gold.PLP.ligand.clash>
0.0000

> <Gold.PLP.ligand.torsion>
0.0406

> <Gold.PLP.Chemscore.Hbond>
0.0000

> <Gold.PLP.Chemscore.CHOScore>
0.0000

> <Gold.PLP.Chemscore.Metal>
0.0000

> <Gold.PLP.Chemscore.Internal.Correction>
0.0142

> <Gold.Rescore>
     Score         DG    S(hbond)    S(metal)    S(lipo)     H(rot)  DE(clash)    DE(int)     intcor
     15.66     -15.75       0.00        0.00     121.34       1.53       0.04       0.05       ----

> <Gold.Chemscore.Fitness>
15.6583

> <Gold.Chemscore.DG>
-15.7504

> <Gold.Chemscore.ZeroCoef>
-5.4800

> <Gold.Chemscore.Hbond>
0.0000

> <Gold.Chemscore.Metal>
0.0000

> <Gold.Chemscore.Lipo>
121.3427

> <Gold.Chemscore.Internal_Hbond>
0.0000

> <Gold.Chemscore.DEClash>
0.0430

> <Gold.Chemscore.DEInternal>
0.0490

> <Gold.Chemscore.Rot>
1.5339

> <Gold.Chemscore.Internal.Correction>
   9.000000E+99

> <Gold.Chemscore.Hbond.Weighted>
-0.0000

> <Gold.Chemscore.Metal.Weighted>
-0.0000

> <Gold.Chemscore.Lipo.Weighted>
-14.1971

> <Gold.Chemscore.Internal_Hbond.Weighted>
0.0000

> <Gold.Chemscore.DEClash.Weighted>
0.0430

> <Gold.Chemscore.DEInternal.Weighted>
0.0490

> <Gold.Chemscore.Rot.Weighted>
3.9267

> <Gold.Chemscore.Internal.Correction.Weighted>
   9.000000E+99

> <Gold.Protein.RotatedTorsions>
[ 6907 6896 6895 6894 ] final   66.58 input  -60.11 | X-H torsion
[ 7974 7965 7964 7962 ] final  -73.09 input  175.53 | X-H torsion
[ 8008 7997 7996 7995 ] final   35.93 input   59.86 | X-H torsion
[ 10167 10162 10161 10158 ] final -144.73 input  -65.29 | X-H torsion
[ 10718 10713 10712 10709 ] final   56.99 input   66.30 | X-H torsion
[ 10763 10752 10751 10750 ] final  -37.23 input  -60.55 | X-H torsion
[ 11005 11000 10999 10996 ] final  -18.51 input  -57.11 | X-H torsion

> <Gold.Protein.ActiveResidues>
 VAL166  LYS551  ARG553  GLY616  TRP617  ASP618  TYR619  PRO620  LYS621  CYS622 
 ASP623  PHE694  ASN695  SER759  ASP760  ASP761  ALA762  ILE779  LEU786  VAL792 
 PHE793  MET794  SER795  GLU796  ALA797  LYS798  CYS799  TRP800  GLU811  SER814 

> <Gold.Protein.RotatedAtoms>
  152.4491  134.5432  159.9844 H   0  0  0  0  0  0  0  0  0  0  0  0  # atno 6907 bound_to 6896
  151.5509  133.3412  159.2961 H   0  0  0  0  0  0  0  0  0  0  0  0  # atno 6908 bound_to 6896
  150.8415  134.7741  159.6999 H   0  0  0  0  0  0  0  0  0  0  0  0  # atno 6909 bound_to 6896
  145.6566  140.9266  143.0956 H   0  0  0  0  0  0  0  0  0  0  0  0  # atno 7974 bound_to 7965
  155.1792  140.3298  155.4378 H   0  0  0  0  0  0  0  0  0  0  0  0  # atno 8008 bound_to 7997
  156.2483  140.1930  156.6841 H   0  0  0  0  0  0  0  0  0  0  0  0  # atno 8009 bound_to 7997
  154.6283  140.0586  156.9687 H   0  0  0  0  0  0  0  0  0  0  0  0  # atno 8010 bound_to 7997
  139.7871  143.8018  152.2646 H   0  0  0  0  0  0  0  0  0  0  0  0  # atno 10167 bound_to 10162
  157.5478  130.8743  149.8917 H   0  0  0  0  0  0  0  0  0  0  0  0  # atno 10718 bound_to 10713
  153.8929  135.6810  153.4759 H   0  0  0  0  0  0  0  0  0  0  0  0  # atno 10763 bound_to 10752
  153.1171  135.4756  154.9131 H   0  0  0  0  0  0  0  0  0  0  0  0  # atno 10764 bound_to 10752
  154.7613  135.3211  154.8325 H   0  0  0  0  0  0  0  0  0  0  0  0  # atno 10765 bound_to 10752
  140.8275  133.8022  155.9723 H   0  0  0  0  0  0  0  0  0  0  0  0  # atno 11005 bound_to 11000
  144.7103  139.8395  143.7416 LP  0  0  0  0  0  0  0  0  0  0  0  0  # atno 17320 bound_to 7965
  146.1160  139.4171  143.0258 LP  0  0  0  0  0  0  0  0  0  0  0  0  # atno 17321 bound_to 7965
  139.8098  144.7340  150.9712 LP  0  0  0  0  0  0  0  0  0  0  0  0  # atno 17342 bound_to 10162
  140.7820  143.4262  151.0765 LP  0  0  0  0  0  0  0  0  0  0  0  0  # atno 17343 bound_to 10162
  156.0550  130.3710  150.1112 LP  0  0  0  0  0  0  0  0  0  0  0  0  # atno 17370 bound_to 10713
  156.9287  130.9707  151.3536 LP  0  0  0  0  0  0  0  0  0  0  0  0  # atno 17371 bound_to 10713
  140.9034  134.2351  157.5029 LP  0  0  0  0  0  0  0  0  0  0  0  0  # atno 17394 bound_to 11000
  139.8706  134.9717  156.4746 LP  0  0  0  0  0  0  0  0  0  0  0  0  # atno 17395 bound_to 11000

$$$$
