AV-unprocessed.smi:2166|AV-procd|sdf|8814|dock10
  -GOLD-   2272012 03D 1   1.00000     0.00000
 Structure written by MMmdl.
 38 39  0  0  0  0  0  0  0  0  1 V2000
  153.5157  140.9434  160.0544 C   0  0  0  0  0  0  0  0  0  0  0  0
  152.9209  142.6244  160.3891 S   0  0  0  0  0  0  0  0  0  0  0  0
  152.4624  143.1719  158.7169 C   0  0  2  0  0  0  0  0  0  0  0  0
  152.3123  144.7014  158.6802 C   0  0  0  0  0  0  0  0  0  0  0  0
  151.1907  142.4760  158.2144 C   0  0  0  0  0  0  0  0  0  0  0  0
  150.1547  142.5405  158.8774 O   0  0  0  0  0  0  0  0  0  0  0  0
  151.3103  141.8150  157.0473 N   0  0  0  0  0  0  0  0  0  0  0  0
  150.3243  141.0682  156.3506 C   0  0  0  0  0  0  0  0  0  0  0  0
  149.2670  140.5841  157.1523 C   0  0  0  0  0  0  0  0  0  0  0  0
  148.2327  139.8363  156.5582 C   0  0  0  0  0  0  0  0  0  0  0  0
  148.2770  139.5879  155.1732 C   0  0  0  0  0  0  0  0  0  0  0  0
  147.2531  138.8480  154.5650 N   0  0  0  0  0  0  0  0  0  0  0  0
  147.3436  138.8157  153.1105 C   0  0  0  0  0  0  0  0  0  0  0  0
  146.1219  138.0874  152.5229 C   0  0  0  0  0  0  0  0  0  0  0  0
  146.0249  136.7832  153.0889 O   0  0  0  0  0  0  0  0  0  0  0  0
  145.8627  136.8256  154.5040 C   0  0  0  0  0  0  0  0  0  0  0  0
  147.0778  137.5215  155.1427 C   0  0  0  0  0  0  0  0  0  0  0  0
  149.3734  140.1063  154.4488 C   0  0  0  0  0  0  0  0  0  0  0  0
  150.3654  140.8231  155.0177 N   0  0  0  0  0  0  0  0  0  0  0  0
  153.8804  140.4867  160.9743 H   0  0  0  0  0  0  0  0  0  0  0  0
  154.3317  140.9631  159.3321 H   0  0  0  0  0  0  0  0  0  0  0  0
  152.7135  140.3203  159.6595 H   0  0  0  0  0  0  0  0  0  0  0  0
  153.2896  142.9096  158.0555 H   0  0  0  0  0  0  0  0  0  0  0  0
  152.0295  145.0489  157.6857 H   0  0  0  0  0  0  0  0  0  0  0  0
  153.2514  145.1897  158.9415 H   0  0  0  0  0  0  0  0  0  0  0  0
  151.5544  145.0491  159.3835 H   0  0  0  0  0  0  0  0  0  0  0  0
  152.2209  141.8433  156.6127 H   0  0  0  0  0  0  0  0  0  0  0  0
  149.2426  140.7834  158.2139 H   0  0  0  0  0  0  0  0  0  0  0  0
  147.4171  139.4620  157.1596 H   0  0  0  0  0  0  0  0  0  0  0  0
  147.3955  139.8331  152.7210 H   0  0  0  0  0  0  0  0  0  0  0  0
  148.2579  138.3048  152.8058 H   0  0  0  0  0  0  0  0  0  0  0  0
  145.2053  138.6474  152.7146 H   0  0  0  0  0  0  0  0  0  0  0  0
  146.2210  137.9993  151.4409 H   0  0  0  0  0  0  0  0  0  0  0  0
  144.9379  137.3459  154.7588 H   0  0  0  0  0  0  0  0  0  0  0  0
  145.7700  135.8076  154.8824 H   0  0  0  0  0  0  0  0  0  0  0  0
  147.9746  136.9230  154.9770 H   0  0  0  0  0  0  0  0  0  0  0  0
  146.9375  137.6032  156.2213 H   0  0  0  0  0  0  0  0  0  0  0  0
  149.4609  139.9446  153.3845 H   0  0  0  0  0  0  0  0  0  0  0  0
  1  2  1  0  0  0  0
  1 20  1  0  0  0  0
  1 21  1  0  0  0  0
  1 22  1  0  0  0  0
  2  3  1  0  0  0  0
  3  4  1  0  0  0  0
  3  5  1  0  0  0  0
  3 23  1  0  0  0  0
  4 24  1  0  0  0  0
  4 25  1  0  0  0  0
  4 26  1  0  0  0  0
  5  6  2  0  0  0  0
  5  7  1  0  0  0  0
  7  8  1  0  0  0  0
  7 27  1  0  0  0  0
  8 19  1  0  0  0  0
  8  9  2  0  0  0  0
  9 10  1  0  0  0  0
  9 28  1  0  0  0  0
 10 11  2  0  0  0  0
 10 29  1  0  0  0  0
 11 12  1  0  0  0  0
 11 18  1  0  0  0  0
 12 17  1  0  0  0  0
 12 13  1  0  0  0  0
 13 14  1  0  0  0  0
 13 30  1  0  0  0  0
 13 31  1  0  0  0  0
 14 15  1  0  0  0  0
 14 32  1  0  0  0  0
 14 33  1  0  0  0  0
 15 16  1  0  0  0  0
 16 17  1  0  0  0  0
 16 34  1  0  0  0  0
 16 35  1  0  0  0  0
 17 36  1  0  0  0  0
 17 37  1  0  0  0  0
 18 19  2  0  0  0  0
 18 38  1  0  0  0  0
M  END
> <s_m_source_file>
AV-unprocessed.smi

> <i_m_source_file_index>
2166

> <i_lp_mmshare_version>
43012

> <i_f3d_flags>
0

> <s_epik_input>
W0NIM11TW0NASF0oW0NIM10pQyg9TylbTkhdYzFbY0hdW2NIXWMoW2NIXW4xKU4yW0NIMl1bQ0gyXU9bQ0gyXVtDSDJdMg==

> <s_epik_cmdline>
J2VwaWtfcHl0aG9uJywgJy1waCcsICc3LjAnLCAnLXRuJywgJzgnLCAnLW1hJywgJzIwMCcsICctbWV0YWxfYmluZGluZycsICctaW1hZScsICc8aW5maWxlLm1hZT4nLCAnLW9tYWUnLCAnPG91dGZpbGUubWFlPic=

> <r_lp_tautomer_probability>
1

> <r_epik_Ionization_Penalty>
0.0038652

> <r_epik_Ionization_Penalty_Charging>
0

> <r_epik_Ionization_Penalty_Neutral>
0.0038652

> <r_epik_State_Penalty>
0.00681294

> <r_epik_Charging_Adjusted_Penalty>
0.00681294

> <i_epik_Tot_Q>
0

> <i_epik_Tot_abs_Q>
0

> <r_epik_Metal_State_Penalty>
-0

> <b_epik_Metal_Only>
0

> <s_lp_Force_Field>
OPLS_2005

> <r_lp_Energy>
27.7309

> <b_lp_Chiralities_Consistent>
1

> <s_lp_Variant>
AV-unprocessed.smi:2166-1

> <Gold.Version>
5.8.1

> <Gold.Id.Protein>
6NUR|6NUR_protein|mol2

> <Gold.PLP.Fitness>
35.5362

> <Gold.PLP.PLP>
-30.6174

> <Gold.PLP.part.hbond>
-1.4206

> <Gold.PLP.part.metal>
0.0000

> <Gold.PLP.part.buried>
-3.0556

> <Gold.PLP.part.nonpolar>
-26.5923

> <Gold.PLP.part.repulsive>
0.5148

> <Gold.PLP.ligand.clash>
0.0000

> <Gold.PLP.ligand.torsion>
0.3541

> <Gold.PLP.Chemscore.Hbond>
0.8320

> <Gold.PLP.Chemscore.CHOScore>
1.0000

> <Gold.PLP.Chemscore.Metal>
0.0000

> <Gold.Chemscore.Hbonds>
donor molecule, donor type, donor heavy atom, donor atom, acceptor molecule, acceptor atom, score
      P1  H  7989  7998       L1    19  0.78
      L1  C    18    38       P1  7957  1.00

> <Gold.PLP.Chemscore.Internal.Correction>
0.1311

> <Gold.Rescore>
     Score         DG    S(hbond)    S(metal)    S(lipo)     H(rot)  DE(clash)    DE(int)     intcor
     11.40     -13.23       0.69        0.00      75.22       1.31       0.07       1.76       ----

> <Gold.Chemscore.Fitness>
11.4023

> <Gold.Chemscore.DG>
-13.2256

> <Gold.Chemscore.ZeroCoef>
-5.4800

> <Gold.Chemscore.Hbond>
0.6885

> <Gold.Chemscore.Metal>
0.0000

> <Gold.Chemscore.Lipo>
75.2206

> <Gold.Chemscore.Internal_Hbond>
0.0000

> <Gold.Chemscore.DEClash>
0.0664

> <Gold.Chemscore.DEInternal>
1.7569

> <Gold.Chemscore.Rot>
1.3105

> <Gold.Chemscore.Internal.Correction>
   9.000000E+99

> <Gold.Chemscore.Hbonds>
donor molecule, donor type, donor heavy atom, donor atom, acceptor molecule, acceptor atom, score
      P1  H  7989  7998       L1    19  0.17

> <Gold.Chemscore.Hbond.Weighted>
-2.2997

> <Gold.Chemscore.Metal.Weighted>
-0.0000

> <Gold.Chemscore.Lipo.Weighted>
-8.8008

> <Gold.Chemscore.Internal_Hbond.Weighted>
0.0000

> <Gold.Chemscore.DEClash.Weighted>
0.0664

> <Gold.Chemscore.DEInternal.Weighted>
1.7569

> <Gold.Chemscore.Rot.Weighted>
3.3549

> <Gold.Chemscore.Internal.Correction.Weighted>
   9.000000E+99

> <Gold.Protein.RotatedTorsions>
[ 6907 6896 6895 6894 ] final -179.39 input  -60.11 | X-H torsion
[ 7974 7965 7964 7962 ] final   56.59 input  175.53 | X-H torsion
[ 8008 7997 7996 7995 ] final -147.66 input   59.86 | X-H torsion
[ 10167 10162 10161 10158 ] final  -45.34 input  -65.29 | X-H torsion
[ 10718 10713 10712 10709 ] final   65.09 input   66.30 | X-H torsion
[ 10763 10752 10751 10750 ] final  -23.93 input  -60.55 | X-H torsion
[ 11005 11000 10999 10996 ] final  -83.83 input  -57.11 | X-H torsion

> <Gold.Protein.ActiveResidues>
 VAL166  LYS551  ARG553  GLY616  TRP617  ASP618  TYR619  PRO620  LYS621  CYS622 
 ASP623  PHE694  ASN695  SER759  ASP760  ASP761  ALA762  ILE779  LEU786  VAL792 
 PHE793  MET794  SER795  GLU796  ALA797  LYS798  CYS799  TRP800  GLU811  SER814 

> <Gold.Protein.RotatedAtoms>
  151.6527  133.3320  159.3155 H   0  0  0  0  0  0  0  0  0  0  0  0  # atno 6907 bound_to 6896
  150.7952  134.7010  159.6559 H   0  0  0  0  0  0  0  0  0  0  0  0  # atno 6908 bound_to 6896
  152.4038  134.6245  160.0111 H   0  0  0  0  0  0  0  0  0  0  0  0  # atno 6909 bound_to 6896
  145.9382  139.3865  143.0380 H   0  0  0  0  0  0  0  0  0  0  0  0  # atno 7974 bound_to 7965
  155.5792  140.0641  157.2787 H   0  0  0  0  0  0  0  0  0  0  0  0  # atno 8008 bound_to 7997
  154.4337  140.1855  156.1005 H   0  0  0  0  0  0  0  0  0  0  0  0  # atno 8009 bound_to 7997
  156.0318  140.3305  155.7151 H   0  0  0  0  0  0  0  0  0  0  0  0  # atno 8010 bound_to 7997
  140.6862  143.2884  151.3624 H   0  0  0  0  0  0  0  0  0  0  0  0  # atno 10167 bound_to 10162
  157.6083  130.9195  149.9931 H   0  0  0  0  0  0  0  0  0  0  0  0  # atno 10718 bound_to 10713
  153.6756  135.6969  153.5133 H   0  0  0  0  0  0  0  0  0  0  0  0  # atno 10763 bound_to 10752
  153.2524  135.4271  155.0810 H   0  0  0  0  0  0  0  0  0  0  0  0  # atno 10764 bound_to 10752
  154.8414  135.3534  154.6300 H   0  0  0  0  0  0  0  0  0  0  0  0  # atno 10765 bound_to 10752
  141.1655  133.7314  156.8778 H   0  0  0  0  0  0  0  0  0  0  0  0  # atno 11005 bound_to 11000
  145.8335  140.9618  143.0836 LP  0  0  0  0  0  0  0  0  0  0  0  0  # atno 17320 bound_to 7965
  144.6775  140.0193  143.7484 LP  0  0  0  0  0  0  0  0  0  0  0  0  # atno 17321 bound_to 7965
  139.6222  144.0884  152.2402 LP  0  0  0  0  0  0  0  0  0  0  0  0  # atno 17342 bound_to 10162
  140.0332  144.6065  150.7471 LP  0  0  0  0  0  0  0  0  0  0  0  0  # atno 17343 bound_to 10162
  156.1176  130.3647  149.9941 LP  0  0  0  0  0  0  0  0  0  0  0  0  # atno 17370 bound_to 10713
  156.8028  130.9296  151.3645 LP  0  0  0  0  0  0  0  0  0  0  0  0  # atno 17371 bound_to 10713
  140.1736  134.9082  157.2864 LP  0  0  0  0  0  0  0  0  0  0  0  0  # atno 17394 bound_to 11000
  140.2474  134.3724  155.7456 LP  0  0  0  0  0  0  0  0  0  0  0  0  # atno 17395 bound_to 11000

$$$$
