AV-unprocessed.smi:424|AV-procd|sdf|2539|dock8
  -GOLD-   2262022503D 1   1.00000     0.00000
 Structure written by MMmdl.
 34 35  0  0  0  0  0  0  0  0  1 V2000
  147.3869  141.9113  154.3332 C   0  0  0  0  0  0  0  0  0  0  0  0
  148.7958  141.3724  154.0364 C   0  0  0  0  0  0  0  0  0  0  0  0
  149.6054  141.0304  155.2924 C   0  0  0  0  0  0  0  0  0  0  0  0
  149.8735  139.8592  155.5607 O   0  0  0  0  0  0  0  0  0  0  0  0
  149.9570  142.0876  156.0473 N   0  0  0  0  0  0  0  0  0  0  0  0
  150.7128  142.1167  157.2514 C   0  0  0  0  0  0  0  0  0  0  0  0
  151.1349  143.2969  157.9069 C   0  0  0  0  0  0  0  0  0  0  0  0
  151.8623  143.1878  159.1077 C   0  0  0  0  0  0  0  0  0  0  0  0
  152.1476  141.9052  159.6323 C   0  0  0  0  0  0  0  0  0  0  0  0
  152.8731  141.7746  160.8366 N   0  0  0  0  0  0  0  0  0  0  0  0
  152.8507  142.9365  161.7219 C   0  0  0  0  0  0  0  0  0  0  0  0
  153.3974  142.5631  163.1108 C   0  0  0  0  0  0  0  0  0  0  0  0
  154.6930  141.9867  162.9829 O   0  0  0  0  0  0  0  0  0  0  0  0
  154.6659  140.7916  162.2100 C   0  0  0  0  0  0  0  0  0  0  0  0
  154.1730  141.1075  160.7879 C   0  0  0  0  0  0  0  0  0  0  0  0
  151.7264  140.7772  159.0098 N   0  0  0  0  0  0  0  0  0  0  0  0
  151.0308  140.8859  157.8588 C   0  0  0  0  0  0  0  0  0  0  0  0
  146.8521  142.1198  153.4065 H   0  0  0  0  0  0  0  0  0  0  0  0
  147.4273  142.8395  154.9044 H   0  0  0  0  0  0  0  0  0  0  0  0
  146.7949  141.1911  154.8995 H   0  0  0  0  0  0  0  0  0  0  0  0
  148.7170  140.4774  153.4179 H   0  0  0  0  0  0  0  0  0  0  0  0
  149.3514  142.1079  153.4541 H   0  0  0  0  0  0  0  0  0  0  0  0
  149.5992  142.9814  155.7427 H   0  0  0  0  0  0  0  0  0  0  0  0
  150.9036  144.2804  157.5297 H   0  0  0  0  0  0  0  0  0  0  0  0
  152.1720  144.0863  159.6200 H   0  0  0  0  0  0  0  0  0  0  0  0
  153.4615  143.7253  161.2808 H   0  0  0  0  0  0  0  0  0  0  0  0
  151.8457  143.3402  161.8346 H   0  0  0  0  0  0  0  0  0  0  0  0
  153.4653  143.4519  163.7381 H   0  0  0  0  0  0  0  0  0  0  0  0
  152.7269  141.8671  163.6174 H   0  0  0  0  0  0  0  0  0  0  0  0
  155.6696  140.3678  162.1743 H   0  0  0  0  0  0  0  0  0  0  0  0
  154.0240  140.0500  162.6886 H   0  0  0  0  0  0  0  0  0  0  0  0
  154.1022  140.1809  160.2168 H   0  0  0  0  0  0  0  0  0  0  0  0
  154.8908  141.7521  160.2788 H   0  0  0  0  0  0  0  0  0  0  0  0
  150.7194  139.9549  157.4079 H   0  0  0  0  0  0  0  0  0  0  0  0
  1  2  1  0  0  0  0
  1 18  1  0  0  0  0
  1 19  1  0  0  0  0
  1 20  1  0  0  0  0
  2  3  1  0  0  0  0
  2 21  1  0  0  0  0
  2 22  1  0  0  0  0
  3  4  2  0  0  0  0
  3  5  1  0  0  0  0
  5  6  1  0  0  0  0
  5 23  1  0  0  0  0
  6 17  1  0  0  0  0
  6  7  2  0  0  0  0
  7  8  1  0  0  0  0
  7 24  1  0  0  0  0
  8  9  2  0  0  0  0
  8 25  1  0  0  0  0
  9 10  1  0  0  0  0
  9 16  1  0  0  0  0
 10 15  1  0  0  0  0
 10 11  1  0  0  0  0
 11 12  1  0  0  0  0
 11 26  1  0  0  0  0
 11 27  1  0  0  0  0
 12 13  1  0  0  0  0
 12 28  1  0  0  0  0
 12 29  1  0  0  0  0
 13 14  1  0  0  0  0
 14 15  1  0  0  0  0
 14 30  1  0  0  0  0
 14 31  1  0  0  0  0
 15 32  1  0  0  0  0
 15 33  1  0  0  0  0
 16 17  2  0  0  0  0
 17 34  1  0  0  0  0
M  END
> <s_m_source_file>
AV-unprocessed.smi

> <i_m_source_file_index>
424

> <i_lp_mmshare_version>
43012

> <i_f3d_flags>
0

> <s_epik_input>
W0NIM11bQ0gyXUMoPU8pW05IXWMxW2NIXVtjSF1jKG5bY0hdMSlOMltDSDJdW0NIMl1PW0NIMl1bQ0gyXTI=

> <s_epik_cmdline>
J2VwaWtfcHl0aG9uJywgJy1waCcsICc3LjAnLCAnLXRuJywgJzgnLCAnLW1hJywgJzIwMCcsICctbWV0YWxfYmluZGluZycsICctaW1hZScsICc8aW5maWxlLm1hZT4nLCAnLW9tYWUnLCAnPG91dGZpbGUubWFlPic=

> <r_lp_tautomer_probability>
1

> <r_epik_Ionization_Penalty>
0.000622595

> <r_epik_Ionization_Penalty_Charging>
0

> <r_epik_Ionization_Penalty_Neutral>
0.000622595

> <r_epik_State_Penalty>
0.000387388

> <r_epik_Charging_Adjusted_Penalty>
0.000387388

> <i_epik_Tot_Q>
0

> <i_epik_Tot_abs_Q>
0

> <r_epik_Metal_State_Penalty>
-0

> <b_epik_Metal_Only>
0

> <s_lp_Force_Field>
OPLS_2005

> <r_lp_Energy>
21.9993

> <b_lp_Chiralities_Consistent>
1

> <s_lp_Variant>
AV-unprocessed.smi:424-1

> <Gold.Version>
5.8.1

> <Gold.Id.Protein>
6NUR|6NUR_protein|mol2

> <Gold.PLP.Fitness>
40.8648

> <Gold.PLP.PLP>
-38.3379

> <Gold.PLP.part.hbond>
-1.9860

> <Gold.PLP.part.metal>
0.0000

> <Gold.PLP.part.buried>
-2.2646

> <Gold.PLP.part.nonpolar>
-33.8189

> <Gold.PLP.part.repulsive>
0.1496

> <Gold.PLP.ligand.clash>
0.0000

> <Gold.PLP.ligand.torsion>
0.4122

> <Gold.PLP.Chemscore.Hbond>
1.0000

> <Gold.PLP.Chemscore.CHOScore>
0.0000

> <Gold.PLP.Chemscore.Metal>
0.0000

> <Gold.Chemscore.Hbonds>
donor molecule, donor type, donor heavy atom, donor atom, acceptor molecule, acceptor atom, score
      L1  H     5    23       P1  8028  1.00

> <Gold.PLP.Chemscore.Internal.Correction>
0.3514

> <Gold.Rescore>
     Score         DG    S(hbond)    S(metal)    S(lipo)     H(rot)  DE(clash)    DE(int)     intcor
     13.49     -15.75       0.99        0.00      85.50       1.18       0.45       1.80       ----

> <Gold.Chemscore.Fitness>
13.4943

> <Gold.Chemscore.DG>
-15.7478

> <Gold.Chemscore.ZeroCoef>
-5.4800

> <Gold.Chemscore.Hbond>
0.9873

> <Gold.Chemscore.Metal>
0.0000

> <Gold.Chemscore.Lipo>
85.4986

> <Gold.Chemscore.Internal_Hbond>
0.0000

> <Gold.Chemscore.DEClash>
0.4523

> <Gold.Chemscore.DEInternal>
1.8013

> <Gold.Chemscore.Rot>
1.1848

> <Gold.Chemscore.Internal.Correction>
   9.000000E+99

> <Gold.Chemscore.Hbonds>
donor molecule, donor type, donor heavy atom, donor atom, acceptor molecule, acceptor atom, score
      L1  H     5    23       P1  8028  1.00

> <Gold.Chemscore.Hbond.Weighted>
-3.2976

> <Gold.Chemscore.Metal.Weighted>
-0.0000

> <Gold.Chemscore.Lipo.Weighted>
-10.0033

> <Gold.Chemscore.Internal_Hbond.Weighted>
0.0000

> <Gold.Chemscore.DEClash.Weighted>
0.4523

> <Gold.Chemscore.DEInternal.Weighted>
1.8013

> <Gold.Chemscore.Rot.Weighted>
3.0331

> <Gold.Chemscore.Internal.Correction.Weighted>
   9.000000E+99

> <Gold.Protein.RotatedTorsions>
[ 6907 6896 6895 6894 ] final -109.19 input  -60.11 | X-H torsion
[ 7974 7965 7964 7962 ] final   77.99 input  175.53 | X-H torsion
[ 8008 7997 7996 7995 ] final  -12.25 input   59.86 | X-H torsion
[ 10167 10162 10161 10158 ] final   10.30 input  -65.29 | X-H torsion
[ 10718 10713 10712 10709 ] final   91.22 input   66.30 | X-H torsion
[ 10763 10752 10751 10750 ] final  147.77 input  -60.55 | X-H torsion
[ 11005 11000 10999 10996 ] final  -95.33 input  -57.11 | X-H torsion

> <Gold.Protein.ActiveResidues>
 VAL166  LYS551  ARG553  GLY616  TRP617  ASP618  TYR619  PRO620  LYS621  CYS622 
 ASP623  PHE694  ASN695  SER759  ASP760  ASP761  ALA762  ILE779  LEU786  VAL792 
 PHE793  MET794  SER795  GLU796  ALA797  LYS798  CYS799  TRP800  GLU811  SER814 

> <Gold.Protein.RotatedAtoms>
  150.7547  133.9566  159.3502 H   0  0  0  0  0  0  0  0  0  0  0  0  # atno 6907 bound_to 6896
  151.7489  135.0835  160.0337 H   0  0  0  0  0  0  0  0  0  0  0  0  # atno 6908 bound_to 6896
  152.3480  133.6108  159.5960 H   0  0  0  0  0  0  0  0  0  0  0  0  # atno 6909 bound_to 6896
  145.6829  139.2529  143.1804 H   0  0  0  0  0  0  0  0  0  0  0  0  # atno 7974 bound_to 7965
  154.5394  140.2281  155.8667 H   0  0  0  0  0  0  0  0  0  0  0  0  # atno 8008 bound_to 7997
  156.1843  140.3092  155.9171 H   0  0  0  0  0  0  0  0  0  0  0  0  # atno 8009 bound_to 7997
  155.3289  140.0444  157.3032 H   0  0  0  0  0  0  0  0  0  0  0  0  # atno 8010 bound_to 7997
  140.6202  143.8220  150.7166 H   0  0  0  0  0  0  0  0  0  0  0  0  # atno 10167 bound_to 10162
  157.6960  131.0399  150.3697 H   0  0  0  0  0  0  0  0  0  0  0  0  # atno 10718 bound_to 10713
  154.0438  135.2887  155.3351 H   0  0  0  0  0  0  0  0  0  0  0  0  # atno 10763 bound_to 10752
  154.6912  135.5225  153.8398 H   0  0  0  0  0  0  0  0  0  0  0  0  # atno 10764 bound_to 10752
  153.0589  135.6606  154.0640 H   0  0  0  0  0  0  0  0  0  0  0  0  # atno 10765 bound_to 10752
  141.1445  133.8018  157.0420 H   0  0  0  0  0  0  0  0  0  0  0  0  # atno 11005 bound_to 11000
  146.0949  140.7612  142.9577 LP  0  0  0  0  0  0  0  0  0  0  0  0  # atno 17320 bound_to 7965
  144.7020  140.3695  143.7148 LP  0  0  0  0  0  0  0  0  0  0  0  0  # atno 17321 bound_to 7965
  140.1809  143.4116  152.1934 LP  0  0  0  0  0  0  0  0  0  0  0  0  # atno 17342 bound_to 10162
  139.5432  144.7276  151.4665 LP  0  0  0  0  0  0  0  0  0  0  0  0  # atno 17343 bound_to 10162
  156.4123  130.3936  149.6882 LP  0  0  0  0  0  0  0  0  0  0  0  0  # atno 17370 bound_to 10713
  156.4162  130.7746  151.2762 LP  0  0  0  0  0  0  0  0  0  0  0  0  # atno 17371 bound_to 10713
  140.0686  134.9715  157.1429 LP  0  0  0  0  0  0  0  0  0  0  0  0  # atno 17394 bound_to 11000
  140.3743  134.2356  155.7175 LP  0  0  0  0  0  0  0  0  0  0  0  0  # atno 17395 bound_to 11000

$$$$
