AV-unprocessed.smi:864|AV-procd|sdf|3987|dock5
  -GOLD-   22720 1463D 1   1.00000     0.00000
 Structure written by MMmdl.
 44 46  0  0  0  0  0  0  0  0  1 V2000
  144.0044  132.7258  148.7644 C   0  0  0  0  0  0  0  0  0  0  0  0
  144.7556  132.7784  150.0783 C   0  0  0  0  0  0  0  0  0  0  0  0
  146.1608  132.6598  150.1115 C   0  0  0  0  0  0  0  0  0  0  0  0
  146.8084  132.7130  151.3604 C   0  0  0  0  0  0  0  0  0  0  0  0
  146.0294  132.8792  152.5245 C   0  0  0  0  0  0  0  0  0  0  0  0
  146.6728  132.9022  153.9006 C   0  0  0  0  0  0  0  0  0  0  0  0
  148.2087  133.0221  153.8586 C   0  0  0  0  0  0  0  0  0  0  0  0
  148.6464  134.4160  153.8833 N   0  0  0  0  0  0  0  0  0  0  0  0
  149.2405  135.0246  154.9203 C   0  0  0  0  0  0  0  0  0  0  0  0
  149.4099  134.5042  156.0231 O   0  0  0  0  0  0  0  0  0  0  0  0
  149.6537  136.2575  154.5976 N   0  0  0  0  0  0  0  0  0  0  0  0
  150.3821  137.1647  155.4812 C   0  0  1  0  0  0  0  0  0  0  0  0
  151.7276  137.5869  154.8756 C   0  0  0  0  0  0  0  0  0  0  0  0
  151.7443  139.0941  155.0639 C   0  0  0  0  0  0  0  0  0  0  0  0
  152.7437  139.7785  154.8481 O   0  0  0  0  0  0  0  0  0  0  0  0
  150.5605  139.5446  155.4949 N   0  0  0  0  0  0  0  0  0  0  0  0
  150.2917  140.8967  155.8873 C   0  0  0  0  0  0  0  0  0  0  0  0
  151.1651  141.6026  156.9068 C   0  0  0  0  0  0  0  0  0  0  0  0
  149.7777  141.1465  157.2867 C   0  0  0  0  0  0  0  0  0  0  0  0
  149.5986  138.4708  155.7016 C   0  0  0  0  0  0  0  0  0  0  0  0
  144.6304  132.9927  152.3807 C   0  0  0  0  0  0  0  0  0  0  0  0
  144.0013  132.9458  151.1869 N   0  0  0  0  0  0  0  0  0  0  0  0
  144.6259  132.3037  147.9741 H   0  0  0  0  0  0  0  0  0  0  0  0
  143.7017  133.7290  148.4633 H   0  0  0  0  0  0  0  0  0  0  0  0
  143.1100  132.1087  148.8561 H   0  0  0  0  0  0  0  0  0  0  0  0
  146.7305  132.5273  149.2035 H   0  0  0  0  0  0  0  0  0  0  0  0
  147.8823  132.6139  151.4221 H   0  0  0  0  0  0  0  0  0  0  0  0
  146.2575  133.7338  154.4716 H   0  0  0  0  0  0  0  0  0  0  0  0
  146.3889  131.9956  154.4362 H   0  0  0  0  0  0  0  0  0  0  0  0
  148.6407  132.5091  154.7179 H   0  0  0  0  0  0  0  0  0  0  0  0
  148.5971  132.5118  152.9755 H   0  0  0  0  0  0  0  0  0  0  0  0
  148.5463  134.9359  153.0239 H   0  0  0  0  0  0  0  0  0  0  0  0
  149.4699  136.5877  153.6615 H   0  0  0  0  0  0  0  0  0  0  0  0
  150.5770  136.6995  156.4496 H   0  0  0  0  0  0  0  0  0  0  0  0
  152.5696  137.1168  155.3850 H   0  0  0  0  0  0  0  0  0  0  0  0
  151.7956  137.3591  153.8109 H   0  0  0  0  0  0  0  0  0  0  0  0
  149.8842  141.5383  155.1071 H   0  0  0  0  0  0  0  0  0  0  0  0
  151.9981  141.0700  157.3608 H   0  0  0  0  0  0  0  0  0  0  0  0
  151.3202  142.6714  156.7750 H   0  0  0  0  0  0  0  0  0  0  0  0
  149.0128  141.9102  157.4113 H   0  0  0  0  0  0  0  0  0  0  0  0
  149.6971  140.2931  157.9574 H   0  0  0  0  0  0  0  0  0  0  0  0
  148.7842  138.5825  154.9840 H   0  0  0  0  0  0  0  0  0  0  0  0
  149.1733  138.5084  156.7055 H   0  0  0  0  0  0  0  0  0  0  0  0
  143.9976  133.1124  153.2479 H   0  0  0  0  0  0  0  0  0  0  0  0
  1  2  1  0  0  0  0
  1 23  1  0  0  0  0
  1 24  1  0  0  0  0
  1 25  1  0  0  0  0
  2 22  1  0  0  0  0
  2  3  2  0  0  0  0
  3  4  1  0  0  0  0
  3 26  1  0  0  0  0
  4  5  2  0  0  0  0
  4 27  1  0  0  0  0
  5  6  1  0  0  0  0
  5 21  1  0  0  0  0
  6  7  1  0  0  0  0
  6 28  1  0  0  0  0
  6 29  1  0  0  0  0
  7  8  1  0  0  0  0
  7 30  1  0  0  0  0
  7 31  1  0  0  0  0
  8  9  1  0  0  0  0
  8 32  1  0  0  0  0
  9 10  2  0  0  0  0
  9 11  1  0  0  0  0
 11 12  1  0  0  0  0
 11 33  1  0  0  0  0
 12 20  1  0  0  0  0
 12 13  1  0  0  0  0
 12 34  1  0  0  0  0
 13 14  1  0  0  0  0
 13 35  1  0  0  0  0
 13 36  1  0  0  0  0
 14 15  2  0  0  0  0
 14 16  1  0  0  0  0
 16 17  1  0  0  0  0
 16 20  1  0  0  0  0
 17 19  1  0  0  0  0
 17 18  1  0  0  0  0
 17 37  1  0  0  0  0
 18 19  1  0  0  0  0
 18 38  1  0  0  0  0
 18 39  1  0  0  0  0
 19 40  1  0  0  0  0
 19 41  1  0  0  0  0
 20 42  1  0  0  0  0
 20 43  1  0  0  0  0
 21 22  2  0  0  0  0
 21 44  1  0  0  0  0
M  END
> <s_m_source_file>
AV-unprocessed.smi

> <i_m_source_file_index>
864

> <i_lp_mmshare_version>
43012

> <i_f3d_flags>
0

> <s_epik_input>
W0NIM11jMVtjSF1bY0hdYyhbY0hdbjEpW0NIMl1bQ0gyXVtOSF1DKD1PKVtOSF1bQ0BASF0yW0NIMl1DKD1PKU4oW0NIMl0yKVtDSF0zW0NIMl1bQ0gyXTM=

> <s_epik_cmdline>
J2VwaWtfcHl0aG9uJywgJy1waCcsICc3LjAnLCAnLXRuJywgJzgnLCAnLW1hJywgJzIwMCcsICctbWV0YWxfYmluZGluZycsICctaW1hZScsICc8aW5maWxlLm1hZT4nLCAnLW9tYWUnLCAnPG91dGZpbGUubWFlPic=

> <r_epik_Ionization_Penalty>
0.0559435

> <r_epik_Ionization_Penalty_Charging>
0

> <r_epik_Ionization_Penalty_Neutral>
0.0559435

> <r_epik_State_Penalty>
0.0481757

> <r_epik_Charging_Adjusted_Penalty>
0.0481757

> <i_epik_Tot_Q>
0

> <i_epik_Tot_abs_Q>
0

> <r_epik_Metal_State_Penalty>
0.0439988

> <b_epik_Metal_Only>
0

> <s_lp_Force_Field>
OPLS_2005

> <r_lp_Energy>
34.0483

> <b_lp_Chiralities_Consistent>
1

> <s_lp_Variant>
AV-unprocessed.smi:864-2

> <Gold.Version>
5.8.1

> <Gold.Id.Protein>
6NUR|6NUR_protein|mol2

> <Gold.PLP.Fitness>
49.0894

> <Gold.PLP.PLP>
-37.3369

> <Gold.PLP.part.hbond>
-3.9671

> <Gold.PLP.part.metal>
0.0000

> <Gold.PLP.part.buried>
-1.4694

> <Gold.PLP.part.nonpolar>
-32.0826

> <Gold.PLP.part.repulsive>
0.2696

> <Gold.PLP.ligand.clash>
0.0000

> <Gold.PLP.ligand.torsion>
0.4547

> <Gold.PLP.Chemscore.Hbond>
3.1641

> <Gold.PLP.Chemscore.CHOScore>
1.0000

> <Gold.PLP.Chemscore.Metal>
0.0000

> <Gold.Chemscore.Hbonds>
donor molecule, donor type, donor heavy atom, donor atom, acceptor molecule, acceptor atom, score
      L1  H     8    32       P1  7948  1.00
      L1  H    11    33       P1  7948  0.99
      P1  H  7989  7998       L1    15  0.25
      P1  H  7997  8010       L1    15  0.96
      L1  C    21    44       P1 10957  1.00

> <Gold.PLP.Chemscore.Internal.Correction>
0.1698

> <Gold.Rescore>
     Score         DG    S(hbond)    S(metal)    S(lipo)     H(rot)  DE(clash)    DE(int)     intcor
     18.47     -19.70       2.60        0.00      85.78       1.75       0.73       0.51       ----

> <Gold.Chemscore.Fitness>
18.4680

> <Gold.Chemscore.DG>
-19.7018

> <Gold.Chemscore.ZeroCoef>
-5.4800

> <Gold.Chemscore.Hbond>
2.5960

> <Gold.Chemscore.Metal>
0.0000

> <Gold.Chemscore.Lipo>
85.7750

> <Gold.Chemscore.Internal_Hbond>
0.0000

> <Gold.Chemscore.DEClash>
0.7257

> <Gold.Chemscore.DEInternal>
0.5082

> <Gold.Chemscore.Rot>
1.7518

> <Gold.Chemscore.Internal.Correction>
   9.000000E+99

> <Gold.Chemscore.Hbonds>
donor molecule, donor type, donor heavy atom, donor atom, acceptor molecule, acceptor atom, score
      L1  H     8    32       P1  7948  0.54
      L1  H    11    33       P1  7948  0.77
      P1  H  7989  7998       L1    15  0.01
      P1  H  7997  8010       L1    15  0.90

> <Gold.Chemscore.Hbond.Weighted>
-8.6707

> <Gold.Chemscore.Metal.Weighted>
-0.0000

> <Gold.Chemscore.Lipo.Weighted>
-10.0357

> <Gold.Chemscore.Internal_Hbond.Weighted>
0.0000

> <Gold.Chemscore.DEClash.Weighted>
0.7257

> <Gold.Chemscore.DEInternal.Weighted>
0.5082

> <Gold.Chemscore.Rot.Weighted>
4.4846

> <Gold.Chemscore.Internal.Correction.Weighted>
   9.000000E+99

> <Gold.Protein.RotatedTorsions>
[ 6907 6896 6895 6894 ] final   -7.42 input  -60.11 | X-H torsion
[ 7974 7965 7964 7962 ] final -160.00 input  175.53 | X-H torsion
[ 8008 7997 7996 7995 ] final  111.00 input   59.86 | X-H torsion
[ 10167 10162 10161 10158 ] final   35.66 input  -65.29 | X-H torsion
[ 10718 10713 10712 10709 ] final  -53.60 input   66.30 | X-H torsion
[ 10763 10752 10751 10750 ] final -156.06 input  -60.55 | X-H torsion
[ 11005 11000 10999 10996 ] final  126.48 input  -57.11 | X-H torsion

> <Gold.Protein.ActiveResidues>
 VAL166  LYS551  ARG553  GLY616  TRP617  ASP618  TYR619  PRO620  LYS621  CYS622 
 ASP623  PHE694  ASN695  SER759  ASP760  ASP761  ALA762  ILE779  LEU786  VAL792 
 PHE793  MET794  SER795  GLU796  ALA797  LYS798  CYS799  TRP800  GLU811  SER814 

> <Gold.Protein.RotatedAtoms>
  151.4499  135.1029  159.9694 H   0  0  0  0  0  0  0  0  0  0  0  0  # atno 6907 bound_to 6896
  152.4892  133.8450  159.7183 H   0  0  0  0  0  0  0  0  0  0  0  0  # atno 6908 bound_to 6896
  150.9029  133.7035  159.2901 H   0  0  0  0  0  0  0  0  0  0  0  0  # atno 6909 bound_to 6896
  144.7443  140.3605  143.6097 H   0  0  0  0  0  0  0  0  0  0  0  0  # atno 7974 bound_to 7965
  156.2093  140.3028  155.9697 H   0  0  0  0  0  0  0  0  0  0  0  0  # atno 8008 bound_to 7997
  155.2763  140.0436  157.3028 H   0  0  0  0  0  0  0  0  0  0  0  0  # atno 8009 bound_to 7997
  154.5677  140.2339  155.8247 H   0  0  0  0  0  0  0  0  0  0  0  0  # atno 8010 bound_to 7997
  140.4200  144.1472  150.6147 H   0  0  0  0  0  0  0  0  0  0  0  0  # atno 10167 bound_to 10162
  156.1521  130.4151  149.9927 H   0  0  0  0  0  0  0  0  0  0  0  0  # atno 10718 bound_to 10713
  154.7741  135.3154  154.8128 H   0  0  0  0  0  0  0  0  0  0  0  0  # atno 10763 bound_to 10752
  153.8856  135.6830  153.4768 H   0  0  0  0  0  0  0  0  0  0  0  0  # atno 10764 bound_to 10752
  153.1361  135.4759  154.9360 H   0  0  0  0  0  0  0  0  0  0  0  0  # atno 10765 bound_to 10752
  139.9458  134.9630  156.8713 H   0  0  0  0  0  0  0  0  0  0  0  0  # atno 11005 bound_to 11000
  145.7183  139.1703  143.2499 LP  0  0  0  0  0  0  0  0  0  0  0  0  # atno 17320 bound_to 7965
  146.1296  140.7203  142.9418 LP  0  0  0  0  0  0  0  0  0  0  0  0  # atno 17321 bound_to 7965
  140.4544  143.2474  151.9305 LP  0  0  0  0  0  0  0  0  0  0  0  0  # atno 17342 bound_to 10162
  139.4782  144.5530  151.8356 LP  0  0  0  0  0  0  0  0  0  0  0  0  # atno 17343 bound_to 10162
  156.7782  130.9211  151.3645 LP  0  0  0  0  0  0  0  0  0  0  0  0  # atno 17370 bound_to 10713
  157.6665  130.9013  149.9945 LP  0  0  0  0  0  0  0  0  0  0  0  0  # atno 17371 bound_to 10713
  140.5838  134.0327  155.7474 LP  0  0  0  0  0  0  0  0  0  0  0  0  # atno 17394 bound_to 11000
  141.1108  133.9619  157.2913 LP  0  0  0  0  0  0  0  0  0  0  0  0  # atno 17395 bound_to 11000

$$$$
