AV-unprocessed.smi:2925|AV-procd|sdf|11225|dock8
  -GOLD-   2272016113D 1   1.00000     0.00000
 Structure written by MMmdl.
 44 45  0  0  0  0  0  0  0  0  1 V2000
  148.3804  140.6233  154.0640 C   0  0  0  0  0  0  0  0  0  0  0  0
  147.0675  141.2796  154.5162 C   0  0  0  0  0  0  0  0  0  0  0  0
  146.9919  141.5372  156.0359 C   0  0  1  0  0  0  0  0  0  0  0  0
  148.1621  142.3073  156.4567 N   0  0  0  0  0  0  0  0  0  0  0  0
  149.0470  141.9345  157.3922 C   0  0  0  0  0  0  0  0  0  0  0  0
  148.9876  140.8710  158.0110 O   0  0  0  0  0  0  0  0  0  0  0  0
  149.9815  142.8820  157.5850 N   0  0  0  0  0  0  0  0  0  0  0  0
  151.0154  142.8379  158.5326 C   0  0  0  0  0  0  0  0  0  0  0  0
  151.3953  143.9887  159.1477 C   0  0  0  0  0  0  0  0  0  0  0  0
  150.7034  145.3130  158.8658 C   0  0  0  0  0  0  0  0  0  0  0  0
  152.4709  143.9466  160.1166 C   0  0  0  0  0  0  0  0  0  0  0  0
  153.0732  142.7798  160.3823 C   0  0  0  0  0  0  0  0  0  0  0  0
  152.7004  141.5936  159.7337 N   0  0  0  0  0  0  0  0  0  0  0  0
  153.4324  140.3723  160.0802 C   0  0  0  0  0  0  0  0  0  0  0  0
  151.7196  141.5579  158.7861 C   0  0  0  0  0  0  0  0  0  0  0  0
  151.4657  140.5152  158.1786 O   0  0  0  0  0  0  0  0  0  0  0  0
  145.7077  142.2934  156.4408 C   0  0  1  0  0  0  0  0  0  0  0  0
  145.4662  143.5987  155.6775 C   0  0  0  0  0  0  0  0  0  0  0  0
  143.9635  143.7354  155.7572 C   0  0  0  0  0  0  0  0  0  0  0  0
  143.5193  142.2876  155.5900 C   0  0  0  0  0  0  0  0  0  0  0  0
  144.5492  141.4999  156.1786 O   0  0  0  0  0  0  0  0  0  0  0  0
  148.3598  140.4165  152.9938 H   0  0  0  0  0  0  0  0  0  0  0  0
  148.5446  139.6779  154.5814 H   0  0  0  0  0  0  0  0  0  0  0  0
  149.2401  141.2653  154.2572 H   0  0  0  0  0  0  0  0  0  0  0  0
  146.9276  142.2162  153.9752 H   0  0  0  0  0  0  0  0  0  0  0  0
  146.2450  140.6308  154.2143 H   0  0  0  0  0  0  0  0  0  0  0  0
  146.9909  140.5669  156.5363 H   0  0  0  0  0  0  0  0  0  0  0  0
  148.2960  143.2026  156.0105 H   0  0  0  0  0  0  0  0  0  0  0  0
  149.8581  143.7616  157.1060 H   0  0  0  0  0  0  0  0  0  0  0  0
  151.1251  146.1159  159.4711 H   0  0  0  0  0  0  0  0  0  0  0  0
  149.6393  145.2445  159.0945 H   0  0  0  0  0  0  0  0  0  0  0  0
  150.8159  145.5881  157.8167 H   0  0  0  0  0  0  0  0  0  0  0  0
  152.7844  144.8438  160.6301 H   0  0  0  0  0  0  0  0  0  0  0  0
  153.8780  142.6858  161.0966 H   0  0  0  0  0  0  0  0  0  0  0  0
  152.7435  139.5727  160.3564 H   0  0  0  0  0  0  0  0  0  0  0  0
  154.1119  140.5138  160.9214 H   0  0  0  0  0  0  0  0  0  0  0  0
  154.0259  140.0313  159.2309 H   0  0  0  0  0  0  0  0  0  0  0  0
  145.7191  142.5064  157.5111 H   0  0  0  0  0  0  0  0  0  0  0  0
  145.9931  144.4490  156.1113 H   0  0  0  0  0  0  0  0  0  0  0  0
  145.7747  143.4997  154.6357 H   0  0  0  0  0  0  0  0  0  0  0  0
  143.6718  144.1092  156.7396 H   0  0  0  0  0  0  0  0  0  0  0  0
  143.5494  144.3998  154.9985 H   0  0  0  0  0  0  0  0  0  0  0  0
  142.5519  142.0904  156.0524 H   0  0  0  0  0  0  0  0  0  0  0  0
  143.4491  142.0303  154.5324 H   0  0  0  0  0  0  0  0  0  0  0  0
  1  2  1  0  0  0  0
  1 22  1  0  0  0  0
  1 23  1  0  0  0  0
  1 24  1  0  0  0  0
  2  3  1  0  0  0  0
  2 25  1  0  0  0  0
  2 26  1  0  0  0  0
  3  4  1  0  0  0  0
  3 17  1  0  0  0  0
  3 27  1  0  0  0  0
  4  5  1  0  0  0  0
  4 28  1  0  0  0  0
  5  6  2  0  0  0  0
  5  7  1  0  0  0  0
  7  8  1  0  0  0  0
  7 29  1  0  0  0  0
  8 15  1  0  0  0  0
  8  9  2  0  0  0  0
  9 10  1  0  0  0  0
  9 11  1  0  0  0  0
 10 30  1  0  0  0  0
 10 31  1  0  0  0  0
 10 32  1  0  0  0  0
 11 12  2  0  0  0  0
 11 33  1  0  0  0  0
 12 13  1  0  0  0  0
 12 34  1  0  0  0  0
 13 14  1  0  0  0  0
 13 15  1  0  0  0  0
 14 35  1  0  0  0  0
 14 36  1  0  0  0  0
 14 37  1  0  0  0  0
 15 16  2  0  0  0  0
 17 21  1  0  0  0  0
 17 18  1  0  0  0  0
 17 38  1  0  0  0  0
 18 19  1  0  0  0  0
 18 39  1  0  0  0  0
 18 40  1  0  0  0  0
 19 20  1  0  0  0  0
 19 41  1  0  0  0  0
 19 42  1  0  0  0  0
 20 21  1  0  0  0  0
 20 43  1  0  0  0  0
 20 44  1  0  0  0  0
M  END
> <s_m_source_file>
AV-unprocessed.smi

> <i_m_source_file_index>
2925

> <i_lp_mmshare_version>
43012

> <i_f3d_flags>
0

> <s_epik_input>
TzFbQ0gyXVtDSDJdW0NIMl1bQ0BIXTFbQ0BIXShbQ0gyXVtDSDNdKVtOSF1DKD1PKVtOSF1jMmMoW0NIM10pW2NIXVtjSF1uKFtDSDNdKWMyPU8=

> <s_epik_cmdline>
J2VwaWtfcHl0aG9uJywgJy1waCcsICc3LjAnLCAnLXRuJywgJzgnLCAnLW1hJywgJzIwMCcsICctbWV0YWxfYmluZGluZycsICctaW1hZScsICc8aW5maWxlLm1hZT4nLCAnLW9tYWUnLCAnPG91dGZpbGUubWFlPic=

> <r_lp_tautomer_probability>
1

> <r_epik_Ionization_Penalty>
2.58789e-05

> <r_epik_Ionization_Penalty_Charging>
6.72534e-06

> <r_epik_Ionization_Penalty_Neutral>
1.91535e-05

> <r_epik_State_Penalty>
-0

> <r_epik_Charging_Adjusted_Penalty>
6.72534e-06

> <i_epik_Tot_Q>
0

> <i_epik_Tot_abs_Q>
0

> <r_epik_Metal_State_Penalty>
-0

> <b_epik_Metal_Only>
0

> <s_lp_Force_Field>
OPLS_2005

> <r_lp_Energy>
35.3317

> <b_lp_Chiralities_Consistent>
1

> <s_lp_Variant>
AV-unprocessed.smi:2925-4

> <Gold.Version>
5.8.1

> <Gold.Id.Protein>
6NUR|6NUR_protein|mol2

> <Gold.PLP.Fitness>
42.3376

> <Gold.PLP.PLP>
-36.5684

> <Gold.PLP.part.hbond>
-2.0000

> <Gold.PLP.part.metal>
0.0000

> <Gold.PLP.part.buried>
-5.4769

> <Gold.PLP.part.nonpolar>
-29.3070

> <Gold.PLP.part.repulsive>
0.1332

> <Gold.PLP.ligand.clash>
0.0000

> <Gold.PLP.ligand.torsion>
0.3635

> <Gold.PLP.Chemscore.Hbond>
1.9600

> <Gold.PLP.Chemscore.CHOScore>
0.0000

> <Gold.PLP.Chemscore.Metal>
0.0000

> <Gold.Chemscore.Hbonds>
donor molecule, donor type, donor heavy atom, donor atom, acceptor molecule, acceptor atom, score
      L1  H     4    28       P1  8028  1.00
      L1  H     7    29       P1  8028  0.93

> <Gold.PLP.Chemscore.Internal.Correction>
0.6162

> <Gold.Rescore>
     Score         DG    S(hbond)    S(metal)    S(lipo)     H(rot)  DE(clash)    DE(int)     intcor
     14.39     -18.48       1.89        0.00      86.91       1.36       0.04       4.05       ----

> <Gold.Chemscore.Fitness>
14.3876

> <Gold.Chemscore.DG>
-18.4762

> <Gold.Chemscore.ZeroCoef>
-5.4800

> <Gold.Chemscore.Hbond>
1.8873

> <Gold.Chemscore.Metal>
0.0000

> <Gold.Chemscore.Lipo>
86.9125

> <Gold.Chemscore.Internal_Hbond>
0.0000

> <Gold.Chemscore.DEClash>
0.0351

> <Gold.Chemscore.DEInternal>
4.0535

> <Gold.Chemscore.Rot>
1.3579

> <Gold.Chemscore.Internal.Correction>
   9.000000E+99

> <Gold.Chemscore.Hbonds>
donor molecule, donor type, donor heavy atom, donor atom, acceptor molecule, acceptor atom, score
      L1  H     4    28       P1  8028  0.78
      L1  H     7    29       P1  8028  0.82

> <Gold.Chemscore.Hbond.Weighted>
-6.3037

> <Gold.Chemscore.Metal.Weighted>
-0.0000

> <Gold.Chemscore.Lipo.Weighted>
-10.1688

> <Gold.Chemscore.Internal_Hbond.Weighted>
0.0000

> <Gold.Chemscore.DEClash.Weighted>
0.0351

> <Gold.Chemscore.DEInternal.Weighted>
4.0535

> <Gold.Chemscore.Rot.Weighted>
3.4763

> <Gold.Chemscore.Internal.Correction.Weighted>
   9.000000E+99

> <Gold.Protein.RotatedTorsions>
[ 6907 6896 6895 6894 ] final   74.87 input  -60.11 | X-H torsion
[ 7974 7965 7964 7962 ] final -122.48 input  175.53 | X-H torsion
[ 8008 7997 7996 7995 ] final  118.98 input   59.86 | X-H torsion
[ 10167 10162 10161 10158 ] final   98.83 input  -65.29 | X-H torsion
[ 10718 10713 10712 10709 ] final  167.62 input   66.30 | X-H torsion
[ 10763 10752 10751 10750 ] final  139.83 input  -60.55 | X-H torsion
[ 11005 11000 10999 10996 ] final  -53.13 input  -57.11 | X-H torsion

> <Gold.Protein.ActiveResidues>
 VAL166  LYS551  ARG553  GLY616  TRP617  ASP618  TYR619  PRO620  LYS621  CYS622 
 ASP623  PHE694  ASN695  SER759  ASP760  ASP761  ALA762  ILE779  LEU786  VAL792 
 PHE793  MET794  SER795  GLU796  ALA797  LYS798  CYS799  TRP800  GLU811  SER814 

> <Gold.Protein.RotatedAtoms>
  152.4998  134.4206  159.9478 H   0  0  0  0  0  0  0  0  0  0  0  0  # atno 6907 bound_to 6896
  151.4178  133.3701  159.2760 H   0  0  0  0  0  0  0  0  0  0  0  0  # atno 6908 bound_to 6896
  150.9244  134.8683  159.7570 H   0  0  0  0  0  0  0  0  0  0  0  0  # atno 6909 bound_to 6896
  145.0290  140.8052  143.4335 H   0  0  0  0  0  0  0  0  0  0  0  0  # atno 7974 bound_to 7965
  156.2573  140.2863  156.0920 H   0  0  0  0  0  0  0  0  0  0  0  0  # atno 8008 bound_to 7997
  155.1452  140.0396  157.2825 H   0  0  0  0  0  0  0  0  0  0  0  0  # atno 8009 bound_to 7997
  154.6500  140.2542  155.7230 H   0  0  0  0  0  0  0  0  0  0  0  0  # atno 8010 bound_to 7997
  139.7672  144.6934  151.0207 H   0  0  0  0  0  0  0  0  0  0  0  0  # atno 10167 bound_to 10162
  157.0489  131.0308  151.2688 H   0  0  0  0  0  0  0  0  0  0  0  0  # atno 10718 bound_to 10713
  153.9126  135.3009  155.3448 H   0  0  0  0  0  0  0  0  0  0  0  0  # atno 10763 bound_to 10752
  154.7616  135.4931  153.9477 H   0  0  0  0  0  0  0  0  0  0  0  0  # atno 10764 bound_to 10752
  153.1185  135.6776  153.9479 H   0  0  0  0  0  0  0  0  0  0  0  0  # atno 10765 bound_to 10752
  141.0960  133.6624  156.4126 H   0  0  0  0  0  0  0  0  0  0  0  0  # atno 11005 bound_to 11000
  145.1795  139.2359  143.5300 LP  0  0  0  0  0  0  0  0  0  0  0  0  # atno 17320 bound_to 7965
  146.3496  140.1566  142.8591 LP  0  0  0  0  0  0  0  0  0  0  0  0  # atno 17321 bound_to 7965
  140.7811  143.4629  151.0253 LP  0  0  0  0  0  0  0  0  0  0  0  0  # atno 17342 bound_to 10162
  139.8314  143.7686  152.3180 LP  0  0  0  0  0  0  0  0  0  0  0  0  # atno 17343 bound_to 10162
  157.5046  130.7901  149.7640 LP  0  0  0  0  0  0  0  0  0  0  0  0  # atno 17370 bound_to 10713
  156.0014  130.3878  150.2592 LP  0  0  0  0  0  0  0  0  0  0  0  0  # atno 17371 bound_to 10713
  140.5139  134.6369  157.5294 LP  0  0  0  0  0  0  0  0  0  0  0  0  # atno 17394 bound_to 11000
  139.9797  134.7157  155.9883 LP  0  0  0  0  0  0  0  0  0  0  0  0  # atno 17395 bound_to 11000

$$$$
