AV-unprocessed.smi:3225|AV-procd|sdf|12312|dock2
  -GOLD-   2272018153D 1   1.00000     0.00000
 Structure written by MMmdl.
 41 42  0  0  0  0  0  0  0  0  2 V2000
  145.5272  136.2808  151.6798 C   0  0  0  0  0  0  0  0  0  0  0  0
  145.8915  135.3266  152.8289 C   0  0  1  0  0  0  0  0  0  0  0  0
  146.4512  133.9768  152.3352 C   0  0  0  0  0  0  0  0  0  0  0  0
  145.5729  133.3096  151.3909 N   0  0  0  0  0  0  0  0  0  0  0  0
  145.9109  132.5030  150.3242 C   0  0  0  0  0  0  0  0  0  0  0  0
  144.7468  132.1016  149.7343 C   0  0  0  0  0  0  0  0  0  0  0  0
  143.7364  132.7158  150.5260 C   0  0  0  0  0  0  0  0  0  0  0  0
  144.2343  133.4366  151.5180 N   0  0  0  0  0  0  0  0  0  0  0  0
  146.8710  135.9751  153.7279 N   0  3  0  0  0  0  0  0  0  0  0  0
  146.5749  137.3855  154.0499 C   0  0  0  0  0  0  0  0  0  0  0  0
  147.7698  138.0587  154.7361 C   0  0  0  0  0  0  0  0  0  0  0  0
  148.9786  138.2004  153.7956 C   0  0  0  0  0  0  0  0  0  0  0  0
  150.1097  138.8411  154.4619 N   0  0  0  0  0  0  0  0  0  0  0  0
  149.9837  140.1773  155.0200 C   0  0  0  0  0  0  0  0  0  0  0  0
  151.2981  140.4260  155.7750 C   0  0  0  0  0  0  0  0  0  0  0  0
  152.2336  139.2749  155.3889 C   0  0  0  0  0  0  0  0  0  0  0  0
  151.3246  138.3113  154.6462 C   0  0  0  0  0  0  0  0  0  0  0  0
  151.6927  137.1978  154.2747 O   0  0  0  0  0  0  0  0  0  0  0  0
  144.7495  135.8600  151.0418 H   0  0  0  0  0  0  0  0  0  0  0  0
  146.3926  136.4957  151.0522 H   0  0  0  0  0  0  0  0  0  0  0  0
  145.1498  137.2294  152.0636 H   0  0  0  0  0  0  0  0  0  0  0  0
  144.9761  135.1278  153.3892 H   0  0  0  0  0  0  0  0  0  0  0  0
  147.4217  134.1217  151.8579 H   0  0  0  0  0  0  0  0  0  0  0  0
  146.6163  133.3047  153.1786 H   0  0  0  0  0  0  0  0  0  0  0  0
  146.9390  132.2860  150.0743 H   0  0  0  0  0  0  0  0  0  0  0  0
  144.6339  131.4639  148.8699 H   0  0  0  0  0  0  0  0  0  0  0  0
  142.6640  132.6588  150.4109 H   0  0  0  0  0  0  0  0  0  0  0  0
  146.9061  135.4513  154.5908 H   0  0  0  0  0  0  0  0  0  0  0  0
  146.3250  137.9175  153.1309 H   0  0  0  0  0  0  0  0  0  0  0  0
  145.6995  137.4275  154.6997 H   0  0  0  0  0  0  0  0  0  0  0  0
  147.4683  139.0416  155.1010 H   0  0  0  0  0  0  0  0  0  0  0  0
  148.0613  137.4789  155.6134 H   0  0  0  0  0  0  0  0  0  0  0  0
  149.2829  137.2184  153.4313 H   0  0  0  0  0  0  0  0  0  0  0  0
  148.7041  138.7819  152.9140 H   0  0  0  0  0  0  0  0  0  0  0  0
  149.8526  140.8968  154.2107 H   0  0  0  0  0  0  0  0  0  0  0  0
  149.1214  140.2484  155.6843 H   0  0  0  0  0  0  0  0  0  0  0  0
  151.7270  141.3960  155.5214 H   0  0  0  0  0  0  0  0  0  0  0  0
  151.1219  140.4188  156.8514 H   0  0  0  0  0  0  0  0  0  0  0  0
  153.0294  139.6123  154.7242 H   0  0  0  0  0  0  0  0  0  0  0  0
  152.6830  138.8007  156.2619 H   0  0  0  0  0  0  0  0  0  0  0  0
  147.7807  135.9323  153.2908 H   0  0  0  0  0  0  0  0  0  0  0  0
  1  2  1  0  0  0  0
  1 19  1  0  0  0  0
  1 20  1  0  0  0  0
  1 21  1  0  0  0  0
  2  3  1  0  0  0  0
  2  9  1  0  0  0  0
  2 22  1  0  0  0  0
  3  4  1  0  0  0  0
  3 23  1  0  0  0  0
  3 24  1  0  0  0  0
  4  8  1  0  0  0  0
  4  5  1  0  0  0  0
  5  6  2  0  0  0  0
  5 25  1  0  0  0  0
  6  7  1  0  0  0  0
  6 26  1  0  0  0  0
  7  8  2  0  0  0  0
  7 27  1  0  0  0  0
  9 10  1  0  0  0  0
  9 28  1  0  0  0  0
  9 41  1  0  0  0  0
 10 11  1  0  0  0  0
 10 29  1  0  0  0  0
 10 30  1  0  0  0  0
 11 12  1  0  0  0  0
 11 31  1  0  0  0  0
 11 32  1  0  0  0  0
 12 13  1  0  0  0  0
 12 33  1  0  0  0  0
 12 34  1  0  0  0  0
 13 17  1  0  0  0  0
 13 14  1  0  0  0  0
 14 15  1  0  0  0  0
 14 35  1  0  0  0  0
 14 36  1  0  0  0  0
 15 16  1  0  0  0  0
 15 37  1  0  0  0  0
 15 38  1  0  0  0  0
 16 17  1  0  0  0  0
 16 39  1  0  0  0  0
 16 40  1  0  0  0  0
 17 18  2  0  0  0  0
M  CHG  1   9   1
M  END
> <s_m_source_file>
AV-unprocessed.smi

> <i_m_source_file_index>
3225

> <i_lp_mmshare_version>
43012

> <i_f3d_flags>
0

> <s_epik_input>
bjFbY0hdW2NIXVtjSF1uMVtDSDJdW0NAQEhdKFtDSDNdKVtOSF1bQ0gyXVtDSDJdW0NIMl1OMltDSDJdW0NIMl1bQ0gyXUMyPU8=

> <s_epik_cmdline>
J2VwaWtfcHl0aG9uJywgJy1waCcsICc3LjAnLCAnLXRuJywgJzgnLCAnLW1hJywgJzIwMCcsICctbWV0YWxfYmluZGluZycsICctaW1hZScsICc8aW5maWxlLm1hZT4nLCAnLW9tYWUnLCAnPG91dGZpbGUubWFlPic=

> <r_lp_tautomer_probability>
1

> <r_epik_Ionization_Penalty>
0.00490443

> <r_epik_Ionization_Penalty_Charging>
0.00490019

> <r_epik_Ionization_Penalty_Neutral>
4.24076e-06

> <r_epik_State_Penalty>
0.00355741

> <r_epik_Charging_Adjusted_Penalty>
0.0084576

> <i_epik_Tot_Q>
1

> <i_epik_Tot_abs_Q>
1

> <r_epik_Metal_State_Penalty>
-0

> <b_epik_Metal_Only>
0

> <s_lp_Force_Field>
OPLS_2005

> <r_lp_Energy>
22.636

> <b_lp_Chiralities_Consistent>
1

> <s_lp_Variant>
AV-unprocessed.smi:3225-2

> <Gold.Version>
5.8.1

> <Gold.Id.Protein>
6NUR|6NUR_protein|mol2

> <Gold.PLP.Fitness>
47.8698

> <Gold.PLP.PLP>
-33.8498

> <Gold.PLP.part.hbond>
-2.0000

> <Gold.PLP.part.metal>
0.0000

> <Gold.PLP.part.buried>
-1.4304

> <Gold.PLP.part.nonpolar>
-31.4442

> <Gold.PLP.part.repulsive>
0.3041

> <Gold.PLP.ligand.clash>
0.0000

> <Gold.PLP.ligand.torsion>
0.5195

> <Gold.PLP.Chemscore.Hbond>
3.0000

> <Gold.PLP.Chemscore.CHOScore>
2.0000

> <Gold.PLP.Chemscore.Metal>
0.0000

> <Gold.Chemscore.Hbonds>
donor molecule, donor type, donor heavy atom, donor atom, acceptor molecule, acceptor atom, score
      L1  H     9    41       P1  7948  2.00
      P1  H 10752 10765       L1    18  1.00
      L1  C     5    25       P1 10747  1.00
      L1  C     7    27       P1 10186  0.92

> <Gold.PLP.Chemscore.Internal.Correction>
0.0591

> <Gold.Rescore>
     Score         DG    S(hbond)    S(metal)    S(lipo)     H(rot)  DE(clash)    DE(int)     intcor
     12.41     -15.37       1.96        0.00      76.54       2.19       1.38       1.58       ----

> <Gold.Chemscore.Fitness>
12.4132

> <Gold.Chemscore.DG>
-15.3731

> <Gold.Chemscore.ZeroCoef>
-5.4800

> <Gold.Chemscore.Hbond>
1.9581

> <Gold.Chemscore.Metal>
0.0000

> <Gold.Chemscore.Lipo>
76.5412

> <Gold.Chemscore.Internal_Hbond>
0.0000

> <Gold.Chemscore.DEClash>
1.3830

> <Gold.Chemscore.DEInternal>
1.5770

> <Gold.Chemscore.Rot>
2.1884

> <Gold.Chemscore.Internal.Correction>
   9.000000E+99

> <Gold.Chemscore.Hbonds>
donor molecule, donor type, donor heavy atom, donor atom, acceptor molecule, acceptor atom, score
      L1  H     9    41       P1  7948  0.97
      P1  H 10752 10765       L1    18  0.95

> <Gold.Chemscore.Hbond.Weighted>
-6.5401

> <Gold.Chemscore.Metal.Weighted>
-0.0000

> <Gold.Chemscore.Lipo.Weighted>
-8.9553

> <Gold.Chemscore.Internal_Hbond.Weighted>
0.0000

> <Gold.Chemscore.DEClash.Weighted>
1.3830

> <Gold.Chemscore.DEInternal.Weighted>
1.5770

> <Gold.Chemscore.Rot.Weighted>
5.6023

> <Gold.Chemscore.Internal.Correction.Weighted>
   9.000000E+99

> <Gold.Protein.RotatedTorsions>
[ 6907 6896 6895 6894 ] final    2.58 input  -60.11 | X-H torsion
[ 7974 7965 7964 7962 ] final    4.27 input  175.53 | X-H torsion
[ 8008 7997 7996 7995 ] final   86.42 input   59.86 | X-H torsion
[ 10167 10162 10161 10158 ] final  110.74 input  -65.29 | X-H torsion
[ 10718 10713 10712 10709 ] final  130.81 input   66.30 | X-H torsion
[ 10763 10752 10751 10750 ] final  168.46 input  -60.55 | X-H torsion
[ 11005 11000 10999 10996 ] final   23.25 input  -57.11 | X-H torsion

> <Gold.Protein.ActiveResidues>
 VAL166  LYS551  ARG553  GLY616  TRP617  ASP618  TYR619  PRO620  LYS621  CYS622 
 ASP623  PHE694  ASN695  SER759  ASP760  ASP761  ALA762  ILE779  LEU786  VAL792 
 PHE793  MET794  SER795  GLU796  ALA797  LYS798  CYS799  TRP800  GLU811  SER814 

> <Gold.Protein.RotatedAtoms>
  151.6112  135.1040  160.0081 H   0  0  0  0  0  0  0  0  0  0  0  0  # atno 6907 bound_to 6896
  152.4207  133.7108  159.6488 H   0  0  0  0  0  0  0  0  0  0  0  0  # atno 6908 bound_to 6896
  150.8095  133.8375  159.3211 H   0  0  0  0  0  0  0  0  0  0  0  0  # atno 6909 bound_to 6896
  146.2444  140.0559  142.8372 H   0  0  0  0  0  0  0  0  0  0  0  0  # atno 7974 bound_to 7965
  155.9625  140.3392  155.6503 H   0  0  0  0  0  0  0  0  0  0  0  0  # atno 8008 bound_to 7997
  155.6779  140.0734  157.2514 H   0  0  0  0  0  0  0  0  0  0  0  0  # atno 8009 bound_to 7997
  154.4146  140.1679  156.1938 H   0  0  0  0  0  0  0  0  0  0  0  0  # atno 8010 bound_to 7997
  139.6665  144.7127  151.1768 H   0  0  0  0  0  0  0  0  0  0  0  0  # atno 10167 bound_to 10162
  157.5027  131.1094  150.9404 H   0  0  0  0  0  0  0  0  0  0  0  0  # atno 10718 bound_to 10713
  154.3689  135.2753  155.2278 H   0  0  0  0  0  0  0  0  0  0  0  0  # atno 10763 bound_to 10752
  154.4434  135.5949  153.6147 H   0  0  0  0  0  0  0  0  0  0  0  0  # atno 10764 bound_to 10752
  152.9839  135.6024  154.3918 H   0  0  0  0  0  0  0  0  0  0  0  0  # atno 10765 bound_to 10752
  140.3717  134.2016  155.7666 H   0  0  0  0  0  0  0  0  0  0  0  0  # atno 11005 bound_to 11000
  145.0943  140.9304  143.4750 LP  0  0  0  0  0  0  0  0  0  0  0  0  # atno 17320 bound_to 7965
  145.0738  139.3011  143.5818 LP  0  0  0  0  0  0  0  0  0  0  0  0  # atno 17321 bound_to 7965
  140.7601  143.5912  150.8795 LP  0  0  0  0  0  0  0  0  0  0  0  0  # atno 17342 bound_to 10162
  139.9573  143.6203  152.3012 LP  0  0  0  0  0  0  0  0  0  0  0  0  # atno 17343 bound_to 10162
  157.0070  130.5622  149.5317 LP  0  0  0  0  0  0  0  0  0  0  0  0  # atno 17370 bound_to 10713
  156.0239  130.5333  150.8353 LP  0  0  0  0  0  0  0  0  0  0  0  0  # atno 17371 bound_to 10713
  141.1952  133.8110  157.0723 LP  0  0  0  0  0  0  0  0  0  0  0  0  # atno 17394 bound_to 11000
  140.0547  134.9787  157.1199 LP  0  0  0  0  0  0  0  0  0  0  0  0  # atno 17395 bound_to 11000

$$$$
