AV-unprocessed.smi:2792|AV-procd|sdf|10772|dock9
  -GOLD-   2272015213D 1   1.00000     0.00000
 Structure written by MMmdl.
 44 46  0  0  0  0  0  0  0  0  1 V2000
  148.5542  132.3090  155.1919 C   0  0  0  0  0  0  0  0  0  0  0  0
  149.9007  132.9489  155.5710 C   0  0  0  0  0  0  0  0  0  0  0  0
  149.8186  134.2600  156.3909 C   0  0  1  0  0  0  0  0  0  0  0  0
  148.8377  135.2766  155.7685 C   0  0  0  0  0  0  0  0  0  0  0  0
  149.3324  133.9369  157.6800 O   0  0  0  0  0  0  0  0  0  0  0  0
  151.2448  134.8488  156.5532 C   0  0  0  0  0  0  0  0  0  0  0  0
  151.2832  136.2870  156.7749 N   0  0  0  0  0  0  0  0  0  0  0  0
  151.5433  136.9286  157.9660 C   0  0  0  0  0  0  0  0  0  0  0  0
  151.5207  138.2327  157.9145 N   0  0  0  0  0  0  0  0  0  0  0  0
  151.2096  138.5102  156.5897 C   0  0  0  0  0  0  0  0  0  0  0  0
  151.0293  139.7084  155.8520 C   0  0  0  0  0  0  0  0  0  0  0  0
  151.1574  140.9183  156.4404 N   0  0  0  0  0  0  0  0  0  0  0  0
  150.7925  141.1002  157.8417 C   0  0  0  0  0  0  0  0  0  0  0  0
  151.3100  142.3807  158.4782 C   0  0  0  0  0  0  0  0  0  0  0  0
  152.2153  142.3269  159.5601 C   0  0  0  0  0  0  0  0  0  0  0  0
  152.6948  143.5164  160.1423 C   0  0  0  0  0  0  0  0  0  0  0  0
  152.2695  144.7644  159.6474 C   0  0  0  0  0  0  0  0  0  0  0  0
  151.3624  144.8223  158.5716 C   0  0  0  0  0  0  0  0  0  0  0  0
  150.8822  143.6329  157.9895 C   0  0  0  0  0  0  0  0  0  0  0  0
  150.7138  139.5986  154.5345 N   0  0  0  0  0  0  0  0  0  0  0  0
  150.5925  138.3918  153.9729 C   0  0  0  0  0  0  0  0  0  0  0  0
  150.7383  137.1903  154.5366 N   0  0  0  0  0  0  0  0  0  0  0  0
  151.0509  137.2990  155.8598 C   0  0  0  0  0  0  0  0  0  0  0  0
  148.7149  131.3601  154.6797 H   0  0  0  0  0  0  0  0  0  0  0  0
  147.9791  132.9432  154.5182 H   0  0  0  0  0  0  0  0  0  0  0  0
  147.9427  132.1054  156.0710 H   0  0  0  0  0  0  0  0  0  0  0  0
  150.4813  132.2142  156.1310 H   0  0  0  0  0  0  0  0  0  0  0  0
  150.4638  133.1330  154.6551 H   0  0  0  0  0  0  0  0  0  0  0  0
  149.1611  135.5724  154.7702 H   0  0  0  0  0  0  0  0  0  0  0  0
  148.7523  136.1816  156.3700 H   0  0  0  0  0  0  0  0  0  0  0  0
  147.8299  134.8711  155.6836 H   0  0  0  0  0  0  0  0  0  0  0  0
  148.6729  134.5699  157.9205 H   0  0  0  0  0  0  0  0  0  0  0  0
  151.7665  134.3628  157.3791 H   0  0  0  0  0  0  0  0  0  0  0  0
  151.8341  134.6359  155.6601 H   0  0  0  0  0  0  0  0  0  0  0  0
  151.7601  136.3936  158.8793 H   0  0  0  0  0  0  0  0  0  0  0  0
  151.3141  141.7666  155.9156 H   0  0  0  0  0  0  0  0  0  0  0  0
  149.7076  141.0455  157.9416 H   0  0  0  0  0  0  0  0  0  0  0  0
  151.1923  140.2574  158.4057 H   0  0  0  0  0  0  0  0  0  0  0  0
  152.5466  141.3734  159.9446 H   0  0  0  0  0  0  0  0  0  0  0  0
  153.3892  143.4713  160.9684 H   0  0  0  0  0  0  0  0  0  0  0  0
  152.6377  145.6768  160.0929 H   0  0  0  0  0  0  0  0  0  0  0  0
  151.0355  145.7791  158.1918 H   0  0  0  0  0  0  0  0  0  0  0  0
  150.1891  143.6855  157.1626 H   0  0  0  0  0  0  0  0  0  0  0  0
  150.3436  138.3886  152.9220 H   0  0  0  0  0  0  0  0  0  0  0  0
  1  2  1  0  0  0  0
  1 24  1  0  0  0  0
  1 25  1  0  0  0  0
  1 26  1  0  0  0  0
  2  3  1  0  0  0  0
  2 27  1  0  0  0  0
  2 28  1  0  0  0  0
  3  4  1  0  0  0  0
  3  5  1  0  0  0  0
  3  6  1  0  0  0  0
  4 29  1  0  0  0  0
  4 30  1  0  0  0  0
  4 31  1  0  0  0  0
  5 32  1  0  0  0  0
  6  7  1  0  0  0  0
  6 33  1  0  0  0  0
  6 34  1  0  0  0  0
  7 23  1  0  0  0  0
  7  8  1  0  0  0  0
  8  9  2  0  0  0  0
  8 35  1  0  0  0  0
  9 10  1  0  0  0  0
 10 23  2  0  0  0  0
 10 11  1  0  0  0  0
 11 12  1  0  0  0  0
 11 20  2  0  0  0  0
 12 13  1  0  0  0  0
 12 36  1  0  0  0  0
 13 14  1  0  0  0  0
 13 37  1  0  0  0  0
 13 38  1  0  0  0  0
 14 19  1  0  0  0  0
 14 15  2  0  0  0  0
 15 16  1  0  0  0  0
 15 39  1  0  0  0  0
 16 17  2  0  0  0  0
 16 40  1  0  0  0  0
 17 18  1  0  0  0  0
 17 41  1  0  0  0  0
 18 19  2  0  0  0  0
 18 42  1  0  0  0  0
 19 43  1  0  0  0  0
 20 21  1  0  0  0  0
 21 22  2  0  0  0  0
 21 44  1  0  0  0  0
 22 23  1  0  0  0  0
M  END
> <s_m_source_file>
AV-unprocessed.smi

> <i_m_source_file_index>
2792

> <i_lp_mmshare_version>
43012

> <i_f3d_flags>
0

> <s_epik_input>
W0NIM11bQ0gyXVtDQEBdKFtDSDNdKShbT0hdKVtDSDJdbihbY0hdbjEpYyhjMTIpbltjSF1uYzJbTkhdW0NIMl1jM1tjSF1bY0hdW2NIXVtjSF1bY0hdMw==

> <s_epik_cmdline>
J2VwaWtfcHl0aG9uJywgJy1waCcsICc3LjAnLCAnLXRuJywgJzgnLCAnLW1hJywgJzIwMCcsICctbWV0YWxfYmluZGluZycsICctaW1hZScsICc8aW5maWxlLm1hZT4nLCAnLW9tYWUnLCAnPG91dGZpbGUubWFlPic=

> <r_lp_tautomer_probability>
1

> <r_epik_Ionization_Penalty>
0.00163025

> <r_epik_Ionization_Penalty_Charging>
0

> <r_epik_Ionization_Penalty_Neutral>
0.00163025

> <r_epik_State_Penalty>
-0

> <r_epik_Charging_Adjusted_Penalty>
0

> <i_epik_Tot_Q>
0

> <i_epik_Tot_abs_Q>
0

> <r_epik_Metal_State_Penalty>
-0

> <b_epik_Metal_Only>
0

> <s_lp_Force_Field>
OPLS_2005

> <r_lp_Energy>
13.0485

> <b_lp_Chiralities_Consistent>
1

> <s_lp_Variant>
AV-unprocessed.smi:2792-1

> <Gold.Version>
5.8.1

> <Gold.Id.Protein>
6NUR|6NUR_protein|mol2

> <Gold.PLP.Fitness>
45.9223

> <Gold.PLP.PLP>
-37.5355

> <Gold.PLP.part.hbond>
-2.0000

> <Gold.PLP.part.metal>
0.0000

> <Gold.PLP.part.buried>
-5.5326

> <Gold.PLP.part.nonpolar>
-31.5501

> <Gold.PLP.part.repulsive>
0.4221

> <Gold.PLP.ligand.clash>
0.0186

> <Gold.PLP.ligand.torsion>
1.0417

> <Gold.PLP.Chemscore.Hbond>
2.0000

> <Gold.PLP.Chemscore.CHOScore>
1.4479

> <Gold.PLP.Chemscore.Metal>
0.0000

> <Gold.Chemscore.Hbonds>
donor molecule, donor type, donor heavy atom, donor atom, acceptor molecule, acceptor atom, score
      P1  H  6896  6909       L1     5  0.63
      P1  H  7989  7998       L1    20  1.00
      L1  C    21    44       P1  7948  0.35
      L1  C    21    44       P1  7949  0.02
      L1  C    21    44       P1  7957  0.96

> <Gold.PLP.Chemscore.Internal.Correction>
0.1451

> <Gold.Rescore>
     Score         DG    S(hbond)    S(metal)    S(lipo)     H(rot)  DE(clash)    DE(int)     intcor
     14.37     -16.66       1.82        0.00      98.95       2.52       0.02       2.27       ----

> <Gold.Chemscore.Fitness>
14.3664

> <Gold.Chemscore.DG>
-16.6600

> <Gold.Chemscore.ZeroCoef>
-5.4800

> <Gold.Chemscore.Hbond>
1.8163

> <Gold.Chemscore.Metal>
0.0000

> <Gold.Chemscore.Lipo>
98.9537

> <Gold.Chemscore.Internal_Hbond>
0.0000

> <Gold.Chemscore.DEClash>
0.0246

> <Gold.Chemscore.DEInternal>
2.2690

> <Gold.Chemscore.Rot>
2.5250

> <Gold.Chemscore.Internal.Correction>
   9.000000E+99

> <Gold.Chemscore.Hbonds>
donor molecule, donor type, donor heavy atom, donor atom, acceptor molecule, acceptor atom, score
      P1  H  6896  6909       L1     5  0.44
      P1  H  7989  7998       L1    20  0.74

> <Gold.Chemscore.Hbond.Weighted>
-6.0664

> <Gold.Chemscore.Metal.Weighted>
-0.0000

> <Gold.Chemscore.Lipo.Weighted>
-11.5776

> <Gold.Chemscore.Internal_Hbond.Weighted>
0.0000

> <Gold.Chemscore.DEClash.Weighted>
0.0246

> <Gold.Chemscore.DEInternal.Weighted>
2.2690

> <Gold.Chemscore.Rot.Weighted>
6.4639

> <Gold.Chemscore.Internal.Correction.Weighted>
   9.000000E+99

> <Gold.Protein.RotatedTorsions>
[ 6907 6896 6895 6894 ] final   -5.37 input  -60.11 | X-H torsion
[ 7974 7965 7964 7962 ] final -109.63 input  175.53 | X-H torsion
[ 8008 7997 7996 7995 ] final   -7.26 input   59.86 | X-H torsion
[ 10167 10162 10161 10158 ] final -173.22 input  -65.29 | X-H torsion
[ 10718 10713 10712 10709 ] final  -86.51 input   66.30 | X-H torsion
[ 10763 10752 10751 10750 ] final   63.30 input  -60.55 | X-H torsion
[ 11005 11000 10999 10996 ] final -158.22 input  -57.11 | X-H torsion

> <Gold.Protein.ActiveResidues>
 VAL166  LYS551  ARG553  GLY616  TRP617  ASP618  TYR619  PRO620  LYS621  CYS622 
 ASP623  PHE694  ASN695  SER759  ASP760  ASP761  ALA762  ILE779  LEU786  VAL792 
 PHE793  MET794  SER795  GLU796  ALA797  LYS798  CYS799  TRP800  GLU811  SER814 

> <Gold.Protein.RotatedAtoms>
  151.4826  135.1053  159.9781 H   0  0  0  0  0  0  0  0  0  0  0  0  # atno 6907 bound_to 6896
  152.4773  133.8165  159.7041 H   0  0  0  0  0  0  0  0  0  0  0  0  # atno 6908 bound_to 6896
  150.8819  133.7298  159.2956 H   0  0  0  0  0  0  0  0  0  0  0  0  # atno 6909 bound_to 6896
  145.1781  140.8958  143.3496 H   0  0  0  0  0  0  0  0  0  0  0  0  # atno 7974 bound_to 7965
  154.5856  140.2411  155.7992 H   0  0  0  0  0  0  0  0  0  0  0  0  # atno 8008 bound_to 7997
  156.2211  140.2997  155.9909 H   0  0  0  0  0  0  0  0  0  0  0  0  # atno 8009 bound_to 7997
  155.2464  140.0409  157.2972 H   0  0  0  0  0  0  0  0  0  0  0  0  # atno 8010 bound_to 7997
  139.5700  144.1663  152.1370 H   0  0  0  0  0  0  0  0  0  0  0  0  # atno 10167 bound_to 10162
  155.9989  130.4767  150.4725 H   0  0  0  0  0  0  0  0  0  0  0  0  # atno 10718 bound_to 10713
  153.0013  135.5434  154.6331 H   0  0  0  0  0  0  0  0  0  0  0  0  # atno 10763 bound_to 10752
  154.5604  135.2833  155.0927 H   0  0  0  0  0  0  0  0  0  0  0  0  # atno 10764 bound_to 10752
  154.2132  135.6463  153.5174 H   0  0  0  0  0  0  0  0  0  0  0  0  # atno 10765 bound_to 10752
  140.6561  134.4399  157.5235 H   0  0  0  0  0  0  0  0  0  0  0  0  # atno 11005 bound_to 11000
  145.0164  139.3463  143.6094 LP  0  0  0  0  0  0  0  0  0  0  0  0  # atno 17320 bound_to 7965
  146.3458  139.9447  142.8736 LP  0  0  0  0  0  0  0  0  0  0  0  0  # atno 17321 bound_to 7965
  140.1194  144.5386  150.6872 LP  0  0  0  0  0  0  0  0  0  0  0  0  # atno 17342 bound_to 10162
  140.6985  143.2419  151.4933 LP  0  0  0  0  0  0  0  0  0  0  0  0  # atno 17343 bound_to 10162
  157.2739  131.0593  151.2242 LP  0  0  0  0  0  0  0  0  0  0  0  0  # atno 17370 bound_to 10713
  157.3312  130.6986  149.6326 LP  0  0  0  0  0  0  0  0  0  0  0  0  # atno 17371 bound_to 10713
  139.9029  134.8515  156.1822 LP  0  0  0  0  0  0  0  0  0  0  0  0  # atno 17394 bound_to 11000
  141.0501  133.6893  156.1755 LP  0  0  0  0  0  0  0  0  0  0  0  0  # atno 17395 bound_to 11000

$$$$
