AV-unprocessed.smi:1395|AV-procd|sdf|5672|dock4
  -GOLD-   22720 5293D 1   1.00000     0.00000
 Structure written by MMmdl.
 42 43  0  0  0  0  0  0  0  0  3 V2000
  150.4264  141.9007  157.7015 C   0  0  0  0  0  0  0  0  0  0  0  0
  151.7224  141.4916  158.3825 C   0  0  0  0  0  0  0  0  0  0  0  0
  152.2857  142.3387  159.3605 C   0  0  0  0  0  0  0  0  0  0  0  0
  153.4828  141.9581  159.9908 C   0  0  0  0  0  0  0  0  0  0  0  0
  154.0698  140.7382  159.6139 C   0  0  0  0  0  0  0  0  0  0  0  0
  153.5387  139.9227  158.6801 N   0  0  0  0  0  0  0  0  0  0  0  0
  152.3838  140.2757  158.0618 C   0  0  0  0  0  0  0  0  0  0  0  0
  151.7641  139.4617  157.0718 N   0  0  0  0  0  0  0  0  0  0  0  0
  151.1936  138.2531  157.2206 C   0  0  0  0  0  0  0  0  0  0  0  0
  151.1389  137.6130  158.2713 O   0  0  0  0  0  0  0  0  0  0  0  0
  150.6767  137.8146  156.0632 N   0  0  0  0  0  0  0  0  0  0  0  0
  149.9730  136.5479  155.8852 C   0  0  2  0  0  0  0  0  0  0  0  0
  150.7651  135.6408  154.9294 C   0  0  0  0  0  0  0  0  0  0  0  0
  150.0060  134.3346  154.6416 C   0  0  0  0  0  0  0  0  0  0  0  0
  148.6535  134.6125  154.0968 N   0  3  1  0  0  0  0  0  0  0  0  0
  147.9520  133.3788  153.6582 C   0  0  0  0  0  0  0  0  0  0  0  0
  146.6394  133.7204  152.9434 C   0  0  0  0  0  0  0  0  0  0  0  0
  146.8320  134.4932  151.8551 N   0  5  0  0  0  0  0  0  0  0  0  0
  145.5765  133.2921  153.3867 O   0  0  0  0  0  0  0  0  0  0  0  0
  147.8498  135.4498  155.0264 C   0  0  0  0  0  0  0  0  0  0  0  0
  148.5588  136.7811  155.3215 C   0  0  0  0  0  0  0  0  0  0  0  0
  150.0824  142.8737  158.0539 H   0  0  0  0  0  0  0  0  0  0  0  0
  149.6415  141.1723  157.9084 H   0  0  0  0  0  0  0  0  0  0  0  0
  150.5645  141.9657  156.6217 H   0  0  0  0  0  0  0  0  0  0  0  0
  151.8081  143.2699  159.6280 H   0  0  0  0  0  0  0  0  0  0  0  0
  153.9386  142.5844  160.7433 H   0  0  0  0  0  0  0  0  0  0  0  0
  154.9895  140.4073  160.0730 H   0  0  0  0  0  0  0  0  0  0  0  0
  151.7439  139.8545  156.1425 H   0  0  0  0  0  0  0  0  0  0  0  0
  150.7679  138.4034  155.2481 H   0  0  0  0  0  0  0  0  0  0  0  0
  149.8950  136.0442  156.8509 H   0  0  0  0  0  0  0  0  0  0  0  0
  150.9501  136.1633  153.9894 H   0  0  0  0  0  0  0  0  0  0  0  0
  151.7436  135.4119  155.3534 H   0  0  0  0  0  0  0  0  0  0  0  0
  150.5762  133.7410  153.9262 H   0  0  0  0  0  0  0  0  0  0  0  0
  149.9174  133.7390  155.5516 H   0  0  0  0  0  0  0  0  0  0  0  0
  148.5736  132.8159  152.9598 H   0  0  0  0  0  0  0  0  0  0  0  0
  147.7683  132.7224  154.5106 H   0  0  0  0  0  0  0  0  0  0  0  0
  147.5356  135.2403  151.9006 H   0  0  0  0  0  0  0  0  0  0  0  0
  146.8696  135.6582  154.5967 H   0  0  0  0  0  0  0  0  0  0  0  0
  147.6769  134.9024  155.9542 H   0  0  0  0  0  0  0  0  0  0  0  0
  147.9612  137.3625  156.0246 H   0  0  0  0  0  0  0  0  0  0  0  0
  148.6166  137.3703  154.4048 H   0  0  0  0  0  0  0  0  0  0  0  0
  148.7884  135.1532  153.2534 H   0  0  0  0  0  0  0  0  0  0  0  0
  1  2  1  0  0  0  0
  1 22  1  0  0  0  0
  1 23  1  0  0  0  0
  1 24  1  0  0  0  0
  2  7  1  0  0  0  0
  2  3  2  0  0  0  0
  3  4  1  0  0  0  0
  3 25  1  0  0  0  0
  4  5  2  0  0  0  0
  4 26  1  0  0  0  0
  5  6  1  0  0  0  0
  5 27  1  0  0  0  0
  6  7  2  0  0  0  0
  7  8  1  0  0  0  0
  8  9  1  0  0  0  0
  8 28  1  0  0  0  0
  9 10  2  0  0  0  0
  9 11  1  0  0  0  0
 11 12  1  0  0  0  0
 11 29  1  0  0  0  0
 12 21  1  0  0  0  0
 12 13  1  0  0  0  0
 12 30  1  0  0  0  0
 13 14  1  0  0  0  0
 13 31  1  0  0  0  0
 13 32  1  0  0  0  0
 14 15  1  0  0  0  0
 14 33  1  0  0  0  0
 14 34  1  0  0  0  0
 15 16  1  0  0  0  0
 15 20  1  0  0  0  0
 15 42  1  0  0  0  0
 16 17  1  0  0  0  0
 16 35  1  0  0  0  0
 16 36  1  0  0  0  0
 17 18  1  0  0  0  0
 17 19  2  0  0  0  0
 18 37  1  0  0  0  0
 20 21  1  0  0  0  0
 20 38  1  0  0  0  0
 20 39  1  0  0  0  0
 21 40  1  0  0  0  0
 21 41  1  0  0  0  0
M  CHG  1  15   1
M  CHG  1  18  -1
M  END
> <s_m_source_file>
AV-unprocessed.smi

> <i_m_source_file_index>
1395

> <i_lp_mmshare_version>
43012

> <i_f3d_flags>
0

> <s_epik_input>
W0NIM11jMVtjSF1bY0hdW2NIXW5jMVtOSF1DKD1PKVtOSF1bQ0hdMltDSDJdW0NIMl1OKFtDSDJdW0NIMl0yKVtDSDJdQyg9TylbTkgyXQ==

> <s_epik_cmdline>
J2VwaWtfcHl0aG9uJywgJy1waCcsICc3LjAnLCAnLXRuJywgJzgnLCAnLW1hJywgJzIwMCcsICctbWV0YWxfYmluZGluZycsICctaW1hZScsICc8aW5maWxlLm1hZT4nLCAnLW9tYWUnLCAnPG91dGZpbGUubWFlPic=

> <r_epik_Ionization_Penalty>
5.72885

> <r_epik_Ionization_Penalty_Charging>
5.7288

> <r_epik_Ionization_Penalty_Neutral>
4.54304e-05

> <r_epik_State_Penalty>
6.54882

> <r_epik_Charging_Adjusted_Penalty>
12.2776

> <i_epik_Tot_Q>
0

> <i_epik_Tot_abs_Q>
2

> <r_epik_Metal_State_Penalty>
2.51297

> <b_epik_Metal_Only>
1

> <s_lp_Force_Field>
OPLS_2005

> <r_lp_Energy>
9.01588

> <b_lp_Chiralities_Consistent>
1

> <s_lp_Variant>
AV-unprocessed.smi:1395-4

> <Gold.Version>
5.8.1

> <Gold.Id.Protein>
6NUR|6NUR_protein|mol2

> <Gold.PLP.Fitness>
39.2661

> <Gold.PLP.PLP>
-28.5712

> <Gold.PLP.part.hbond>
-3.0000

> <Gold.PLP.part.metal>
0.0000

> <Gold.PLP.part.buried>
-4.3403

> <Gold.PLP.part.nonpolar>
-21.3781

> <Gold.PLP.part.repulsive>
0.2112

> <Gold.PLP.ligand.clash>
0.0000

> <Gold.PLP.ligand.torsion>
0.6647

> <Gold.PLP.Chemscore.Hbond>
4.0000

> <Gold.PLP.Chemscore.CHOScore>
0.0000

> <Gold.PLP.Chemscore.Metal>
0.0000

> <Gold.Chemscore.Hbonds>
donor molecule, donor type, donor heavy atom, donor atom, acceptor molecule, acceptor atom, score
      L1  H    15    42       P1  7948  2.00
      L1  H    18    37       P1  7948  1.00
      P1  H  7997  8008       L1     6  1.00

> <Gold.PLP.Chemscore.Internal.Correction>
0.0242

> <Gold.Rescore>
     Score         DG    S(hbond)    S(metal)    S(lipo)     H(rot)  DE(clash)    DE(int)     intcor
     15.09     -15.77       2.23        0.00      66.68       1.93       0.03       0.65       ----

> <Gold.Chemscore.Fitness>
15.0892

> <Gold.Chemscore.DG>
-15.7748

> <Gold.Chemscore.ZeroCoef>
-5.4800

> <Gold.Chemscore.Hbond>
2.2290

> <Gold.Chemscore.Metal>
0.0000

> <Gold.Chemscore.Lipo>
66.6764

> <Gold.Chemscore.Internal_Hbond>
0.0000

> <Gold.Chemscore.DEClash>
0.0310

> <Gold.Chemscore.DEInternal>
0.6547

> <Gold.Chemscore.Rot>
1.9341

> <Gold.Chemscore.Internal.Correction>
   9.000000E+99

> <Gold.Chemscore.Hbonds>
donor molecule, donor type, donor heavy atom, donor atom, acceptor molecule, acceptor atom, score
      L1  H    15    42       P1  7948  0.60
      L1  H    18    37       P1  7948  0.96
      P1  H  7997  8008       L1     6  0.13

> <Gold.Chemscore.Hbond.Weighted>
-7.4449

> <Gold.Chemscore.Metal.Weighted>
-0.0000

> <Gold.Chemscore.Lipo.Weighted>
-7.8011

> <Gold.Chemscore.Internal_Hbond.Weighted>
0.0000

> <Gold.Chemscore.DEClash.Weighted>
0.0310

> <Gold.Chemscore.DEInternal.Weighted>
0.6547

> <Gold.Chemscore.Rot.Weighted>
4.9512

> <Gold.Chemscore.Internal.Correction.Weighted>
   9.000000E+99

> <Gold.Protein.RotatedTorsions>
[ 6907 6896 6895 6894 ] final    8.43 input  -60.11 | X-H torsion
[ 7974 7965 7964 7962 ] final -107.07 input  175.53 | X-H torsion
[ 8008 7997 7996 7995 ] final -105.01 input   59.86 | X-H torsion
[ 10167 10162 10161 10158 ] final  122.44 input  -65.29 | X-H torsion
[ 10718 10713 10712 10709 ] final  -25.45 input   66.30 | X-H torsion
[ 10763 10752 10751 10750 ] final  -36.53 input  -60.55 | X-H torsion
[ 11005 11000 10999 10996 ] final -165.67 input  -57.11 | X-H torsion

> <Gold.Protein.ActiveResidues>
 VAL166  LYS551  ARG553  GLY616  TRP617  ASP618  TYR619  PRO620  LYS621  CYS622 
 ASP623  PHE694  ASN695  SER759  ASP760  ASP761  ALA762  ILE779  LEU786  VAL792 
 PHE793  MET794  SER795  GLU796  ALA797  LYS798  CYS799  TRP800  GLU811  SER814 

> <Gold.Protein.RotatedAtoms>
  151.7059  135.0921  160.0258 H   0  0  0  0  0  0  0  0  0  0  0  0  # atno 6907 bound_to 6896
  152.3692  133.6392  159.6082 H   0  0  0  0  0  0  0  0  0  0  0  0  # atno 6908 bound_to 6896
  150.7660  133.9215  159.3441 H   0  0  0  0  0  0  0  0  0  0  0  0  # atno 6909 bound_to 6896
  145.2099  140.9091  143.3321 H   0  0  0  0  0  0  0  0  0  0  0  0  # atno 7974 bound_to 7965
  154.8936  140.0415  157.1853 H   0  0  0  0  0  0  0  0  0  0  0  0  # atno 8008 bound_to 7997
  154.8515  140.2930  155.5574 H   0  0  0  0  0  0  0  0  0  0  0  0  # atno 8009 bound_to 7997
  156.2996  140.2464  156.3475 H   0  0  0  0  0  0  0  0  0  0  0  0  # atno 8010 bound_to 7997
  139.5858  144.7006  151.3412 H   0  0  0  0  0  0  0  0  0  0  0  0  # atno 10167 bound_to 10162
  156.4642  130.4510  149.6910 H   0  0  0  0  0  0  0  0  0  0  0  0  # atno 10718 bound_to 10713
  153.8813  135.6821  153.4767 H   0  0  0  0  0  0  0  0  0  0  0  0  # atno 10763 bound_to 10752
  153.1232  135.4730  154.9227 H   0  0  0  0  0  0  0  0  0  0  0  0  # atno 10764 bound_to 10752
  154.7667  135.3226  154.8223 H   0  0  0  0  0  0  0  0  0  0  0  0  # atno 10765 bound_to 10752
  140.5731  134.5218  157.5165 H   0  0  0  0  0  0  0  0  0  0  0  0  # atno 11005 bound_to 11000
  144.9866  139.3730  143.6235 LP  0  0  0  0  0  0  0  0  0  0  0  0  # atno 17320 bound_to 7965
  146.3400  139.9031  142.8791 LP  0  0  0  0  0  0  0  0  0  0  0  0  # atno 17321 bound_to 7965
  140.7130  143.7340  150.7602 LP  0  0  0  0  0  0  0  0  0  0  0  0  # atno 17342 bound_to 10162
  140.0884  143.4901  152.2492 LP  0  0  0  0  0  0  0  0  0  0  0  0  # atno 17343 bound_to 10162
  156.3685  130.7518  151.2499 LP  0  0  0  0  0  0  0  0  0  0  0  0  # atno 17370 bound_to 10713
  157.7496  131.0330  150.4251 LP  0  0  0  0  0  0  0  0  0  0  0  0  # atno 17371 bound_to 10713
  139.9352  134.7888  156.0821 LP  0  0  0  0  0  0  0  0  0  0  0  0  # atno 17394 bound_to 11000
  141.1044  133.6665  156.2829 LP  0  0  0  0  0  0  0  0  0  0  0  0  # atno 17395 bound_to 11000

$$$$
