AV-unprocessed.smi:1702|AV-procd|sdf|6852|dock9
  -GOLD-   22720 8 33D 1   1.00000     0.00000
 Structure written by MMmdl.
 45 47  0  0  0  0  0  0  0  0  3 V2000
  145.9482  138.9362  155.3983 C   0  0  0  0  0  0  0  0  0  0  0  0
  146.4122  138.2071  154.1247 C   0  0  2  0  0  0  0  0  0  0  0  0
  147.0526  136.8387  154.4205 C   0  0  0  0  0  0  0  0  0  0  0  0
  148.4616  136.9731  155.0258 C   0  0  0  0  0  0  0  0  0  0  0  0
  149.3476  137.7861  154.1507 N   0  3  2  0  0  0  0  0  0  0  0  0
  150.7546  137.8415  154.6264 C   0  0  0  0  0  0  0  0  0  0  0  0
  150.8783  138.4382  156.0427 C   0  0  1  0  0  0  0  0  0  0  0  0
  151.1897  137.3989  156.9511 O   0  0  0  0  0  0  0  0  0  0  0  0
  151.9761  139.5181  156.1150 C   0  0  0  0  0  0  0  0  0  0  0  0
  151.4647  140.8260  156.5483 N   0  0  0  0  0  0  0  0  0  0  0  0
  150.5995  141.6770  155.9312 C   0  0  0  0  0  0  0  0  0  0  0  0
  150.4414  142.7611  156.7402 N   0  3  0  0  0  0  0  0  0  0  0  0
  151.2161  142.6013  157.8913 C   0  0  0  0  0  0  0  0  0  0  0  0
  151.3868  143.4269  158.9980 C   0  0  0  0  0  0  0  0  0  0  0  0
  152.2567  142.9644  160.0074 C   0  0  0  0  0  0  0  0  0  0  0  0
  152.4601  143.7295  161.1057 F   0  0  0  0  0  0  0  0  0  0  0  0
  152.9177  141.7228  159.8942 C   0  0  0  0  0  0  0  0  0  0  0  0
  153.7445  141.3158  160.8861 F   0  0  0  0  0  0  0  0  0  0  0  0
  152.7363  140.8938  158.7671 C   0  0  0  0  0  0  0  0  0  0  0  0
  151.8757  141.3598  157.7744 C   0  0  0  0  0  0  0  0  0  0  0  0
  148.7821  139.1377  153.9041 C   0  0  0  0  0  0  0  0  0  0  0  0
  147.3799  139.0502  153.2750 C   0  0  0  0  0  0  0  0  0  0  0  0
  146.7763  139.1628  156.0694 H   0  0  0  0  0  0  0  0  0  0  0  0
  145.2305  138.3320  155.9542 H   0  0  0  0  0  0  0  0  0  0  0  0
  145.4582  139.8784  155.1514 H   0  0  0  0  0  0  0  0  0  0  0  0
  145.5169  138.0303  153.5270 H   0  0  0  0  0  0  0  0  0  0  0  0
  146.4120  136.2574  155.0850 H   0  0  0  0  0  0  0  0  0  0  0  0
  147.1204  136.2684  153.4929 H   0  0  0  0  0  0  0  0  0  0  0  0
  148.4078  137.4263  156.0164 H   0  0  0  0  0  0  0  0  0  0  0  0
  148.8782  135.9761  155.1642 H   0  0  0  0  0  0  0  0  0  0  0  0
  151.1826  136.8376  154.6377 H   0  0  0  0  0  0  0  0  0  0  0  0
  151.3511  138.4144  153.9149 H   0  0  0  0  0  0  0  0  0  0  0  0
  149.9324  138.8822  156.3505 H   0  0  0  0  0  0  0  0  0  0  0  0
  150.6521  137.4985  157.7225 H   0  0  0  0  0  0  0  0  0  0  0  0
  152.7546  139.2222  156.8198 H   0  0  0  0  0  0  0  0  0  0  0  0
  152.4672  139.6425  155.1491 H   0  0  0  0  0  0  0  0  0  0  0  0
  150.1254  141.5225  154.9723 H   0  0  0  0  0  0  0  0  0  0  0  0
  150.8828  144.3778  159.0892 H   0  0  0  0  0  0  0  0  0  0  0  0
  153.2469  139.9456  158.6918 H   0  0  0  0  0  0  0  0  0  0  0  0
  148.7505  139.6989  154.8389 H   0  0  0  0  0  0  0  0  0  0  0  0
  149.4359  139.6905  153.2285 H   0  0  0  0  0  0  0  0  0  0  0  0
  147.4656  138.6036  152.2832 H   0  0  0  0  0  0  0  0  0  0  0  0
  146.9746  140.0507  153.1203 H   0  0  0  0  0  0  0  0  0  0  0  0
  149.3739  137.3277  153.2507 H   0  0  0  0  0  0  0  0  0  0  0  0
  149.8475  143.5508  156.5198 H   0  0  0  0  0  0  0  0  0  0  0  0
  1  2  1  0  0  0  0
  1 23  1  0  0  0  0
  1 24  1  0  0  0  0
  1 25  1  0  0  0  0
  2 22  1  0  0  0  0
  2  3  1  0  0  0  0
  2 26  1  0  0  0  0
  3  4  1  0  0  0  0
  3 27  1  0  0  0  0
  3 28  1  0  0  0  0
  4  5  1  0  0  0  0
  4 29  1  0  0  0  0
  4 30  1  0  0  0  0
  5  6  1  0  0  0  0
  5 21  1  0  0  0  0
  5 44  1  0  0  0  0
  6  7  1  0  0  0  0
  6 31  1  0  0  0  0
  6 32  1  0  0  0  0
  7  8  1  0  0  0  0
  7  9  1  0  0  0  0
  7 33  1  0  0  0  0
  8 34  1  0  0  0  0
  9 10  1  0  0  0  0
  9 35  1  0  0  0  0
  9 36  1  0  0  0  0
 10 20  1  0  0  0  0
 10 11  1  0  0  0  0
 11 12  2  0  0  0  0
 11 37  1  0  0  0  0
 12 13  1  0  0  0  0
 12 45  1  0  0  0  0
 13 20  2  0  0  0  0
 13 14  1  0  0  0  0
 14 15  2  0  0  0  0
 14 38  1  0  0  0  0
 15 16  1  0  0  0  0
 15 17  1  0  0  0  0
 17 18  1  0  0  0  0
 17 19  2  0  0  0  0
 19 20  1  0  0  0  0
 19 39  1  0  0  0  0
 21 22  1  0  0  0  0
 21 40  1  0  0  0  0
 21 41  1  0  0  0  0
 22 42  1  0  0  0  0
 22 43  1  0  0  0  0
M  CHG  1   5   1
M  CHG  1  12   1
M  END
> <s_m_source_file>
AV-unprocessed.smi

> <i_m_source_file_index>
1702

> <i_lp_mmshare_version>
43012

> <i_f3d_flags>
0

> <s_epik_input>
W0NIM11bQ0hdMVtDSDJdW0NIMl1OKFtDSDJdW0NIMl0xKVtDSDJdW0NASF0oW09IXSlbQ0gyXW4oW2NIXW4yKWMoYzIzKVtjSF1jKEYpYyhGKVtjSF0z

> <s_epik_cmdline>
J2VwaWtfcHl0aG9uJywgJy1waCcsICc3LjAnLCAnLXRuJywgJzgnLCAnLW1hJywgJzIwMCcsICctbWV0YWxfYmluZGluZycsICctaW1hZScsICc8aW5maWxlLm1hZT4nLCAnLW9tYWUnLCAnPG91dGZpbGUubWFlPic=

> <r_epik_Ionization_Penalty>
2.33291

> <r_epik_Ionization_Penalty_Charging>
2.33291

> <r_epik_Ionization_Penalty_Neutral>
6.90208e-07

> <r_epik_State_Penalty>
2.4838

> <r_epik_Charging_Adjusted_Penalty>
4.81672

> <i_epik_Tot_Q>
2

> <i_epik_Tot_abs_Q>
2

> <r_epik_Metal_State_Penalty>
6.56754

> <b_epik_Metal_Only>
0

> <s_lp_Force_Field>
OPLS_2005

> <r_lp_Energy>
31.9784

> <b_lp_Chiralities_Consistent>
1

> <s_lp_Variant>
AV-unprocessed.smi:1702-8

> <Gold.Version>
5.8.1

> <Gold.Id.Protein>
6NUR|6NUR_protein|mol2

> <Gold.PLP.Fitness>
50.0050

> <Gold.PLP.PLP>
-40.9356

> <Gold.PLP.part.hbond>
-2.0000

> <Gold.PLP.part.metal>
0.0000

> <Gold.PLP.part.buried>
-2.7666

> <Gold.PLP.part.nonpolar>
-33.7086

> <Gold.PLP.part.repulsive>
0.0585

> <Gold.PLP.ligand.clash>
0.0000

> <Gold.PLP.ligand.torsion>
1.4797

> <Gold.PLP.Chemscore.Hbond>
4.0000

> <Gold.PLP.Chemscore.CHOScore>
0.0000

> <Gold.PLP.Chemscore.Metal>
0.0000

> <Gold.Chemscore.Hbonds>
donor molecule, donor type, donor heavy atom, donor atom, acceptor molecule, acceptor atom, score
      L1  H     5    44       P1  7948  2.00
      L1  H    12    45       P1  8028  2.00

> <Gold.PLP.Chemscore.Internal.Correction>
0.0288

> <Gold.Rescore>
     Score         DG    S(hbond)    S(metal)    S(lipo)     H(rot)  DE(clash)    DE(int)     intcor
     15.51     -17.03       1.97        0.00      93.12       2.32       0.05       1.46       ----

> <Gold.Chemscore.Fitness>
15.5079

> <Gold.Chemscore.DG>
-17.0262

> <Gold.Chemscore.ZeroCoef>
-5.4800

> <Gold.Chemscore.Hbond>
1.9739

> <Gold.Chemscore.Metal>
0.0000

> <Gold.Chemscore.Lipo>
93.1204

> <Gold.Chemscore.Internal_Hbond>
0.0000

> <Gold.Chemscore.DEClash>
0.0549

> <Gold.Chemscore.DEInternal>
1.4633

> <Gold.Chemscore.Rot>
2.3210

> <Gold.Chemscore.Internal.Correction>
   9.000000E+99

> <Gold.Chemscore.Hbonds>
donor molecule, donor type, donor heavy atom, donor atom, acceptor molecule, acceptor atom, score
      L1  H     5    44       P1  7948  0.96
      L1  H    12    45       P1  8028  1.00

> <Gold.Chemscore.Hbond.Weighted>
-6.5927

> <Gold.Chemscore.Metal.Weighted>
-0.0000

> <Gold.Chemscore.Lipo.Weighted>
-10.8951

> <Gold.Chemscore.Internal_Hbond.Weighted>
0.0000

> <Gold.Chemscore.DEClash.Weighted>
0.0549

> <Gold.Chemscore.DEInternal.Weighted>
1.4633

> <Gold.Chemscore.Rot.Weighted>
5.9416

> <Gold.Chemscore.Internal.Correction.Weighted>
   9.000000E+99

> <Gold.Protein.RotatedTorsions>
[ 6907 6896 6895 6894 ] final  120.33 input  -60.11 | X-H torsion
[ 7974 7965 7964 7962 ] final  -64.37 input  175.53 | X-H torsion
[ 8008 7997 7996 7995 ] final   26.83 input   59.86 | X-H torsion
[ 10167 10162 10161 10158 ] final   -8.36 input  -65.29 | X-H torsion
[ 10718 10713 10712 10709 ] final -155.42 input   66.30 | X-H torsion
[ 10763 10752 10751 10750 ] final  113.61 input  -60.55 | X-H torsion
[ 11005 11000 10999 10996 ] final   81.03 input  -57.11 | X-H torsion

> <Gold.Protein.ActiveResidues>
 VAL166  LYS551  ARG553  GLY616  TRP617  ASP618  TYR619  PRO620  LYS621  CYS622 
 ASP623  PHE694  ASN695  SER759  ASP760  ASP761  ALA762  ILE779  LEU786  VAL792 
 PHE793  MET794  SER795  GLU796  ALA797  LYS798  CYS799  TRP800  GLU811  SER814 

> <Gold.Protein.RotatedAtoms>
  152.4406  133.7441  159.6656 H   0  0  0  0  0  0  0  0  0  0  0  0  # atno 6907 bound_to 6896
  150.8296  133.8103  159.3110 H   0  0  0  0  0  0  0  0  0  0  0  0  # atno 6908 bound_to 6896
  151.5761  135.1063  160.0058 H   0  0  0  0  0  0  0  0  0  0  0  0  # atno 6909 bound_to 6896
  145.7676  140.8829  143.0397 H   0  0  0  0  0  0  0  0  0  0  0  0  # atno 7974 bound_to 7965
  155.0334  140.3161  155.4750 H   0  0  0  0  0  0  0  0  0  0  0  0  # atno 8008 bound_to 7997
  156.2869  140.2176  156.5399 H   0  0  0  0  0  0  0  0  0  0  0  0  # atno 8009 bound_to 7997
  154.7351  140.0478  157.0749 H   0  0  0  0  0  0  0  0  0  0  0  0  # atno 8010 bound_to 7997
  140.7057  143.5977  150.8829 H   0  0  0  0  0  0  0  0  0  0  0  0  # atno 10167 bound_to 10162
  156.5126  130.8441  151.2652 H   0  0  0  0  0  0  0  0  0  0  0  0  # atno 10718 bound_to 10713
  153.4950  135.3650  155.2511 H   0  0  0  0  0  0  0  0  0  0  0  0  # atno 10763 bound_to 10752
  154.8750  135.3986  154.3545 H   0  0  0  0  0  0  0  0  0  0  0  0  # atno 10764 bound_to 10752
  153.4171  135.7079  153.6385 H   0  0  0  0  0  0  0  0  0  0  0  0  # atno 10765 bound_to 10752
  139.9113  134.7966  156.1987 H   0  0  0  0  0  0  0  0  0  0  0  0  # atno 11005 bound_to 11000
  144.6818  139.9810  143.7483 LP  0  0  0  0  0  0  0  0  0  0  0  0  # atno 17320 bound_to 7965
  146.0202  139.3244  143.0817 LP  0  0  0  0  0  0  0  0  0  0  0  0  # atno 17321 bound_to 7965
  139.9702  143.6065  152.2976 LP  0  0  0  0  0  0  0  0  0  0  0  0  # atno 17342 bound_to 10162
  139.6649  144.7662  151.1892 LP  0  0  0  0  0  0  0  0  0  0  0  0  # atno 17343 bound_to 10162
  157.7448  130.9944  150.2708 LP  0  0  0  0  0  0  0  0  0  0  0  0  # atno 17370 bound_to 10713
  156.3226  130.3788  149.7562 LP  0  0  0  0  0  0  0  0  0  0  0  0  # atno 17371 bound_to 10713
  141.0538  133.6875  156.1822 LP  0  0  0  0  0  0  0  0  0  0  0  0  # atno 17394 bound_to 11000
  140.6769  134.4809  157.5588 LP  0  0  0  0  0  0  0  0  0  0  0  0  # atno 17395 bound_to 11000

$$$$
