AV-unprocessed.smi:3169|AV-procd|sdf|12105|dock2
  -GOLD-   2272017543D 1   1.00000     0.00000
 Structure written by MMmdl.
 35 36  0  0  0  0  0  0  0  0  1 V2000
  145.8249  137.5418  154.7436 O   0  0  0  0  0  0  0  0  0  0  0  0
  146.6065  137.0857  153.9091 C   0  0  0  0  0  0  0  0  0  0  0  0
  146.2310  136.5839  152.7252 N   0  0  0  0  0  0  0  0  0  0  0  0
  144.8575  136.5333  152.2341 C   0  0  0  0  0  0  0  0  0  0  0  0
  144.7510  135.8284  150.8689 C   0  0  0  0  0  0  0  0  0  0  0  0
  145.0728  134.4163  150.9545 N   0  0  0  0  0  0  0  0  0  0  0  0
  146.2998  133.8548  151.2819 C   0  0  0  0  0  0  0  0  0  0  0  0
  146.1337  132.4893  151.2281 C   0  0  0  0  0  0  0  0  0  0  0  0
  144.8206  132.1899  150.8729 N   0  0  0  0  0  0  0  0  0  0  0  0
  144.2527  133.3804  150.7294 C   0  0  0  0  0  0  0  0  0  0  0  0
  147.9356  137.0322  154.0704 N   0  0  0  0  0  0  0  0  0  0  0  0
  148.6626  137.4889  155.2500 C   0  0  0  0  0  0  0  0  0  0  0  0
  149.8275  138.4187  154.8725 C   0  0  2  0  0  0  0  0  0  0  0  0
  151.0752  137.7136  154.3404 C   0  0  0  0  0  0  0  0  0  0  0  0
  152.1430  138.7458  154.6198 C   0  0  0  0  0  0  0  0  0  0  0  0
  151.6946  139.3040  155.9682 C   0  0  0  0  0  0  0  0  0  0  0  0
  150.2791  139.1365  156.0172 O   0  0  0  0  0  0  0  0  0  0  0  0
  146.9478  136.2281  152.1096 H   0  0  0  0  0  0  0  0  0  0  0  0
  144.2476  136.0115  152.9720 H   0  0  0  0  0  0  0  0  0  0  0  0
  144.4549  137.5450  152.1642 H   0  0  0  0  0  0  0  0  0  0  0  0
  143.7359  135.9229  150.4818 H   0  0  0  0  0  0  0  0  0  0  0  0
  145.4079  136.2979  150.1353 H   0  0  0  0  0  0  0  0  0  0  0  0
  147.1654  134.4565  151.5169 H   0  0  0  0  0  0  0  0  0  0  0  0
  146.8528  131.7055  151.4154 H   0  0  0  0  0  0  0  0  0  0  0  0
  143.2171  133.5025  150.4469 H   0  0  0  0  0  0  0  0  0  0  0  0
  148.4888  136.6402  153.3225 H   0  0  0  0  0  0  0  0  0  0  0  0
  147.9582  138.0297  155.8826 H   0  0  0  0  0  0  0  0  0  0  0  0
  149.0211  136.6471  155.8450 H   0  0  0  0  0  0  0  0  0  0  0  0
  149.4924  139.1545  154.1395 H   0  0  0  0  0  0  0  0  0  0  0  0
  151.2763  136.8043  154.9089 H   0  0  0  0  0  0  0  0  0  0  0  0
  151.0002  137.4497  153.2853 H   0  0  0  0  0  0  0  0  0  0  0  0
  153.1503  138.3293  154.6428 H   0  0  0  0  0  0  0  0  0  0  0  0
  152.1129  139.5279  153.8600 H   0  0  0  0  0  0  0  0  0  0  0  0
  152.1374  138.7326  156.7849 H   0  0  0  0  0  0  0  0  0  0  0  0
  151.9758  140.3495  156.0963 H   0  0  0  0  0  0  0  0  0  0  0  0
  1  2  2  0  0  0  0
  2  3  1  0  0  0  0
  2 11  1  0  0  0  0
  3  4  1  0  0  0  0
  3 18  1  0  0  0  0
  4  5  1  0  0  0  0
  4 19  1  0  0  0  0
  4 20  1  0  0  0  0
  5  6  1  0  0  0  0
  5 21  1  0  0  0  0
  5 22  1  0  0  0  0
  6 10  1  0  0  0  0
  6  7  1  0  0  0  0
  7  8  2  0  0  0  0
  7 23  1  0  0  0  0
  8  9  1  0  0  0  0
  8 24  1  0  0  0  0
  9 10  2  0  0  0  0
 10 25  1  0  0  0  0
 11 12  1  0  0  0  0
 11 26  1  0  0  0  0
 12 13  1  0  0  0  0
 12 27  1  0  0  0  0
 12 28  1  0  0  0  0
 13 17  1  0  0  0  0
 13 14  1  0  0  0  0
 13 29  1  0  0  0  0
 14 15  1  0  0  0  0
 14 30  1  0  0  0  0
 14 31  1  0  0  0  0
 15 16  1  0  0  0  0
 15 32  1  0  0  0  0
 15 33  1  0  0  0  0
 16 17  1  0  0  0  0
 16 34  1  0  0  0  0
 16 35  1  0  0  0  0
M  END
> <s_m_source_file>
AV-unprocessed.smi

> <i_m_source_file_index>
3169

> <i_lp_mmshare_version>
43012

> <i_f3d_flags>
0

> <s_epik_input>
TzFbQ0gyXVtDSDJdW0NIMl1bQ0BIXTFbQ0gyXVtOSF1DKD1PKVtOSF1bQ0gyXVtDSDJdbjJbY0hdW2NIXW5bY0hdMg==

> <s_epik_cmdline>
J2VwaWtfcHl0aG9uJywgJy1waCcsICc3LjAnLCAnLXRuJywgJzgnLCAnLW1hJywgJzIwMCcsICctbWV0YWxfYmluZGluZycsICctaW1hZScsICc8aW5maWxlLm1hZT4nLCAnLW9tYWUnLCAnPG91dGZpbGUubWFlPic=

> <r_lp_tautomer_probability>
1

> <r_epik_Ionization_Penalty>
0.620462

> <r_epik_Ionization_Penalty_Charging>
0.620414

> <r_epik_Ionization_Penalty_Neutral>
4.72016e-05

> <r_epik_State_Penalty>
0.636391

> <r_epik_Charging_Adjusted_Penalty>
1.25681

> <i_epik_Tot_Q>
0

> <i_epik_Tot_abs_Q>
0

> <r_epik_Metal_State_Penalty>
0.306539

> <b_epik_Metal_Only>
0

> <s_lp_Force_Field>
OPLS_2005

> <r_lp_Energy>
16.7898

> <b_lp_Chiralities_Consistent>
1

> <s_lp_Variant>
AV-unprocessed.smi:3169-3

> <Gold.Version>
5.8.1

> <Gold.Id.Protein>
6NUR|6NUR_protein|mol2

> <Gold.PLP.Fitness>
41.3933

> <Gold.PLP.PLP>
-27.2159

> <Gold.PLP.part.hbond>
-2.0000

> <Gold.PLP.part.metal>
0.0000

> <Gold.PLP.part.buried>
-3.6091

> <Gold.PLP.part.nonpolar>
-22.9633

> <Gold.PLP.part.repulsive>
0.2022

> <Gold.PLP.ligand.clash>
0.0000

> <Gold.PLP.ligand.torsion>
0.2252

> <Gold.PLP.Chemscore.Hbond>
1.8640

> <Gold.PLP.Chemscore.CHOScore>
2.9970

> <Gold.PLP.Chemscore.Metal>
0.0000

> <Gold.Chemscore.Hbonds>
donor molecule, donor type, donor heavy atom, donor atom, acceptor molecule, acceptor atom, score
      L1  H     3    18       P1  7948  0.85
      L1  H    11    26       P1  7948  1.00
      L1  C     7    23       P1  7948  1.00
      L1  C     8    24       P1 10747  0.94
      L1  C    10    25       P1 10186  0.94

> <Gold.PLP.Chemscore.Internal.Correction>
0.0447

> <Gold.Rescore>
     Score         DG    S(hbond)    S(metal)    S(lipo)     H(rot)  DE(clash)    DE(int)     intcor
     12.31     -12.50       1.89        0.00      55.10       2.25       0.03       0.16       ----

> <Gold.Chemscore.Fitness>
12.3142

> <Gold.Chemscore.DG>
-12.5005

> <Gold.Chemscore.ZeroCoef>
-5.4800

> <Gold.Chemscore.Hbond>
1.8943

> <Gold.Chemscore.Metal>
0.0000

> <Gold.Chemscore.Lipo>
55.1013

> <Gold.Chemscore.Internal_Hbond>
0.0000

> <Gold.Chemscore.DEClash>
0.0310

> <Gold.Chemscore.DEInternal>
0.1554

> <Gold.Chemscore.Rot>
2.2474

> <Gold.Chemscore.Internal.Correction>
   9.000000E+99

> <Gold.Chemscore.Hbonds>
donor molecule, donor type, donor heavy atom, donor atom, acceptor molecule, acceptor atom, score
      L1  H     3    18       P1  7948  0.80
      L1  H    11    26       P1  7948  0.98

> <Gold.Chemscore.Hbond.Weighted>
-6.3269

> <Gold.Chemscore.Metal.Weighted>
-0.0000

> <Gold.Chemscore.Lipo.Weighted>
-6.4469

> <Gold.Chemscore.Internal_Hbond.Weighted>
0.0000

> <Gold.Chemscore.DEClash.Weighted>
0.0310

> <Gold.Chemscore.DEInternal.Weighted>
0.1554

> <Gold.Chemscore.Rot.Weighted>
5.7532

> <Gold.Chemscore.Internal.Correction.Weighted>
   9.000000E+99

> <Gold.Protein.RotatedTorsions>
[ 6907 6896 6895 6894 ] final  147.02 input  -60.11 | X-H torsion
[ 7974 7965 7964 7962 ] final   33.93 input  175.53 | X-H torsion
[ 8008 7997 7996 7995 ] final  -15.96 input   59.86 | X-H torsion
[ 10167 10162 10161 10158 ] final   19.31 input  -65.29 | X-H torsion
[ 10718 10713 10712 10709 ] final -131.83 input   66.30 | X-H torsion
[ 10763 10752 10751 10750 ] final   65.80 input  -60.55 | X-H torsion
[ 11005 11000 10999 10996 ] final  -52.83 input  -57.11 | X-H torsion

> <Gold.Protein.ActiveResidues>
 VAL166  LYS551  ARG553  GLY616  TRP617  ASP618  TYR619  PRO620  LYS621  CYS622 
 ASP623  PHE694  ASN695  SER759  ASP760  ASP761  ALA762  ILE779  LEU786  VAL792 
 PHE793  MET794  SER795  GLU796  ALA797  LYS798  CYS799  TRP800  GLU811  SER814 

> <Gold.Protein.RotatedAtoms>
  152.1602  133.4577  159.4856 H   0  0  0  0  0  0  0  0  0  0  0  0  # atno 6907 bound_to 6896
  150.6906  134.2081  159.4357 H   0  0  0  0  0  0  0  0  0  0  0  0  # atno 6908 bound_to 6896
  151.9982  134.9942  160.0615 H   0  0  0  0  0  0  0  0  0  0  0  0  # atno 6909 bound_to 6896
  146.1387  139.6333  142.9178 H   0  0  0  0  0  0  0  0  0  0  0  0  # atno 7974 bound_to 7965
  154.5090  140.2182  155.9194 H   0  0  0  0  0  0  0  0  0  0  0  0  # atno 8008 bound_to 7997
  156.1529  140.3158  155.8643 H   0  0  0  0  0  0  0  0  0  0  0  0  # atno 8009 bound_to 7997
  155.3904  140.0478  157.3031 H   0  0  0  0  0  0  0  0  0  0  0  0  # atno 8010 bound_to 7997
  140.5588  143.9375  150.6628 H   0  0  0  0  0  0  0  0  0  0  0  0  # atno 10167 bound_to 10162
  156.2284  130.7022  151.0832 H   0  0  0  0  0  0  0  0  0  0  0  0  # atno 10718 bound_to 10713
  153.0112  135.5344  154.6723 H   0  0  0  0  0  0  0  0  0  0  0  0  # atno 10763 bound_to 10752
  154.5905  135.2858  155.0643 H   0  0  0  0  0  0  0  0  0  0  0  0  # atno 10764 bound_to 10752
  154.1738  135.6527  153.5068 H   0  0  0  0  0  0  0  0  0  0  0  0  # atno 10765 bound_to 10752
  141.0945  133.6627  156.4082 H   0  0  0  0  0  0  0  0  0  0  0  0  # atno 11005 bound_to 11000
  145.5096  141.0436  143.2495 LP  0  0  0  0  0  0  0  0  0  0  0  0  # atno 17320 bound_to 7965
  144.7768  139.6612  143.7171 LP  0  0  0  0  0  0  0  0  0  0  0  0  # atno 17321 bound_to 7965
  140.2820  143.3383  152.1142 LP  0  0  0  0  0  0  0  0  0  0  0  0  # atno 17342 bound_to 10162
  139.5060  144.6806  151.6018 LP  0  0  0  0  0  0  0  0  0  0  0  0  # atno 17343 bound_to 10162
  157.7121  131.0729  150.6461 LP  0  0  0  0  0  0  0  0  0  0  0  0  # atno 17370 bound_to 10713
  156.6528  130.4490  149.5714 LP  0  0  0  0  0  0  0  0  0  0  0  0  # atno 17371 bound_to 10713
  140.5174  134.6337  157.5306 LP  0  0  0  0  0  0  0  0  0  0  0  0  # atno 17394 bound_to 11000
  139.9778  134.7187  155.9917 LP  0  0  0  0  0  0  0  0  0  0  0  0  # atno 17395 bound_to 11000

$$$$
