AV-unprocessed.smi:3184|AV-procd|sdf|12164|dock8
  -GOLD-   2272018 03D 1   1.00000     0.00000
 Structure written by MMmdl.
 34 35  0  0  0  0  0  0  0  0  1 V2000
  151.2702  140.0706  155.6760 C   0  0  0  0  0  0  0  0  0  0  0  0
  150.8247  141.4098  156.2800 C   0  0  1  0  0  0  0  0  0  0  0  0
  149.3018  141.4558  156.5082 C   0  0  0  0  0  0  0  0  0  0  0  0
  148.5577  141.1819  155.2922 N   0  0  0  0  0  0  0  0  0  0  0  0
  147.7993  142.0800  154.5534 C   0  0  0  0  0  0  0  0  0  0  0  0
  147.2718  141.3726  153.4967 C   0  0  0  0  0  0  0  0  0  0  0  0
  147.6916  140.0462  153.5640 N   0  0  0  0  0  0  0  0  0  0  0  0
  148.4504  140.0097  154.6516 C   0  0  0  0  0  0  0  0  0  0  0  0
  151.5239  141.6335  157.5437 N   0  0  0  0  0  0  0  0  0  0  0  0
  151.4106  142.7197  158.3271 C   0  0  0  0  0  0  0  0  0  0  0  0
  150.7298  143.7000  158.0235 O   0  0  0  0  0  0  0  0  0  0  0  0
  152.0990  142.6333  159.4860 N   0  0  0  0  0  0  0  0  0  0  0  0
  152.8977  141.4919  159.9437 C   0  0  0  0  0  0  0  0  0  0  0  0
  153.6247  141.9698  161.2008 C   0  0  0  0  0  0  0  0  0  0  0  0
  152.7463  143.0915  161.7360 C   0  0  0  0  0  0  0  0  0  0  0  0
  152.1147  143.7010  160.4843 C   0  0  0  0  0  0  0  0  0  0  0  0
  150.7729  139.8865  154.7232 H   0  0  0  0  0  0  0  0  0  0  0  0
  151.0370  139.2374  156.3398 H   0  0  0  0  0  0  0  0  0  0  0  0
  152.3452  140.0604  155.4925 H   0  0  0  0  0  0  0  0  0  0  0  0
  151.0787  142.1969  155.5676 H   0  0  0  0  0  0  0  0  0  0  0  0
  149.0105  140.7164  157.2552 H   0  0  0  0  0  0  0  0  0  0  0  0
  148.9983  142.4295  156.8960 H   0  0  0  0  0  0  0  0  0  0  0  0
  147.6973  143.1174  154.8353 H   0  0  0  0  0  0  0  0  0  0  0  0
  146.6271  141.7132  152.7000 H   0  0  0  0  0  0  0  0  0  0  0  0
  148.9341  139.1066  154.9944 H   0  0  0  0  0  0  0  0  0  0  0  0
  152.1120  140.8819  157.8735 H   0  0  0  0  0  0  0  0  0  0  0  0
  152.2292  140.6628  160.1815 H   0  0  0  0  0  0  0  0  0  0  0  0
  153.6071  141.1531  159.1872 H   0  0  0  0  0  0  0  0  0  0  0  0
  153.7830  141.1721  161.9272 H   0  0  0  0  0  0  0  0  0  0  0  0
  154.6014  142.3717  160.9279 H   0  0  0  0  0  0  0  0  0  0  0  0
  151.9657  142.6712  162.3716 H   0  0  0  0  0  0  0  0  0  0  0  0
  153.3020  143.8203  162.3269 H   0  0  0  0  0  0  0  0  0  0  0  0
  152.7228  144.5259  160.1105 H   0  0  0  0  0  0  0  0  0  0  0  0
  151.1146  144.0845  160.6931 H   0  0  0  0  0  0  0  0  0  0  0  0
  1  2  1  0  0  0  0
  1 17  1  0  0  0  0
  1 18  1  0  0  0  0
  1 19  1  0  0  0  0
  2  3  1  0  0  0  0
  2  9  1  0  0  0  0
  2 20  1  0  0  0  0
  3  4  1  0  0  0  0
  3 21  1  0  0  0  0
  3 22  1  0  0  0  0
  4  8  1  0  0  0  0
  4  5  1  0  0  0  0
  5  6  2  0  0  0  0
  5 23  1  0  0  0  0
  6  7  1  0  0  0  0
  6 24  1  0  0  0  0
  7  8  2  0  0  0  0
  8 25  1  0  0  0  0
  9 10  1  0  0  0  0
  9 26  1  0  0  0  0
 10 11  2  0  0  0  0
 10 12  1  0  0  0  0
 12 16  1  0  0  0  0
 12 13  1  0  0  0  0
 13 14  1  0  0  0  0
 13 27  1  0  0  0  0
 13 28  1  0  0  0  0
 14 15  1  0  0  0  0
 14 29  1  0  0  0  0
 14 30  1  0  0  0  0
 15 16  1  0  0  0  0
 15 31  1  0  0  0  0
 15 32  1  0  0  0  0
 16 33  1  0  0  0  0
 16 34  1  0  0  0  0
M  END
> <s_m_source_file>
AV-unprocessed.smi

> <i_m_source_file_index>
3184

> <i_lp_mmshare_version>
43012

> <i_f3d_flags>
0

> <s_epik_input>
W2NIXTFuW2NIXVtjSF1uMVtDSDJdW0NAQEhdKFtDSDNdKVtOSF1DKD1PKU4yW0NIMl1bQ0gyXVtDSDJdW0NIMl0y

> <s_epik_cmdline>
J2VwaWtfcHl0aG9uJywgJy1waCcsICc3LjAnLCAnLXRuJywgJzgnLCAnLW1hJywgJzIwMCcsICctbWV0YWxfYmluZGluZycsICctaW1hZScsICc8aW5maWxlLm1hZT4nLCAnLW9tYWUnLCAnPG91dGZpbGUubWFlPic=

> <r_lp_tautomer_probability>
1

> <r_epik_Ionization_Penalty>
0.625774

> <r_epik_Ionization_Penalty_Charging>
0.625709

> <r_epik_Ionization_Penalty_Neutral>
6.46152e-05

> <r_epik_State_Penalty>
0.642123

> <r_epik_Charging_Adjusted_Penalty>
1.26783

> <i_epik_Tot_Q>
0

> <i_epik_Tot_abs_Q>
0

> <r_epik_Metal_State_Penalty>
0.307922

> <b_epik_Metal_Only>
0

> <s_lp_Force_Field>
OPLS_2005

> <r_lp_Energy>
35.7196

> <b_lp_Chiralities_Consistent>
1

> <s_lp_Variant>
AV-unprocessed.smi:3184-4

> <Gold.Version>
5.8.1

> <Gold.Id.Protein>
6NUR|6NUR_protein|mol2

> <Gold.PLP.Fitness>
38.9094

> <Gold.PLP.PLP>
-36.1071

> <Gold.PLP.part.hbond>
0.0000

> <Gold.PLP.part.metal>
0.0000

> <Gold.PLP.part.buried>
-3.6892

> <Gold.PLP.part.nonpolar>
-32.8620

> <Gold.PLP.part.repulsive>
1.2210

> <Gold.PLP.ligand.clash>
0.0000

> <Gold.PLP.ligand.torsion>
0.1068

> <Gold.PLP.Chemscore.Hbond>
0.0000

> <Gold.PLP.Chemscore.CHOScore>
1.0000

> <Gold.PLP.Chemscore.Metal>
0.0000

> <Gold.Chemscore.Hbonds>
donor molecule, donor type, donor heavy atom, donor atom, acceptor molecule, acceptor atom, score
      L1  C     5    23       P1  8028  1.00

> <Gold.PLP.Chemscore.Internal.Correction>
0.0159

> <Gold.Rescore>
     Score         DG    S(hbond)    S(metal)    S(lipo)     H(rot)  DE(clash)    DE(int)     intcor
     10.24     -10.56       0.00        0.00      78.44       1.60       0.01       0.30       ----

> <Gold.Chemscore.Fitness>
10.2442

> <Gold.Chemscore.DG>
-10.5592

> <Gold.Chemscore.ZeroCoef>
-5.4800

> <Gold.Chemscore.Hbond>
0.0000

> <Gold.Chemscore.Metal>
0.0000

> <Gold.Chemscore.Lipo>
78.4407

> <Gold.Chemscore.Internal_Hbond>
0.0000

> <Gold.Chemscore.DEClash>
0.0106

> <Gold.Chemscore.DEInternal>
0.3044

> <Gold.Chemscore.Rot>
1.6009

> <Gold.Chemscore.Internal.Correction>
   9.000000E+99

> <Gold.Chemscore.Hbond.Weighted>
-0.0000

> <Gold.Chemscore.Metal.Weighted>
-0.0000

> <Gold.Chemscore.Lipo.Weighted>
-9.1776

> <Gold.Chemscore.Internal_Hbond.Weighted>
0.0000

> <Gold.Chemscore.DEClash.Weighted>
0.0106

> <Gold.Chemscore.DEInternal.Weighted>
0.3044

> <Gold.Chemscore.Rot.Weighted>
4.0983

> <Gold.Chemscore.Internal.Correction.Weighted>
   9.000000E+99

> <Gold.Protein.RotatedTorsions>
[ 6907 6896 6895 6894 ] final   87.14 input  -60.11 | X-H torsion
[ 7974 7965 7964 7962 ] final -126.14 input  175.53 | X-H torsion
[ 8008 7997 7996 7995 ] final  -58.87 input   59.86 | X-H torsion
[ 10167 10162 10161 10158 ] final   75.46 input  -65.29 | X-H torsion
[ 10718 10713 10712 10709 ] final  132.32 input   66.30 | X-H torsion
[ 10763 10752 10751 10750 ] final  178.79 input  -60.55 | X-H torsion
[ 11005 11000 10999 10996 ] final   71.60 input  -57.11 | X-H torsion

> <Gold.Protein.ActiveResidues>
 VAL166  LYS551  ARG553  GLY616  TRP617  ASP618  TYR619  PRO620  LYS621  CYS622 
 ASP623  PHE694  ASN695  SER759  ASP760  ASP761  ALA762  ILE779  LEU786  VAL792 
 PHE793  MET794  SER795  GLU796  ALA797  LYS798  CYS799  TRP800  GLU811  SER814 

> <Gold.Protein.RotatedAtoms>
  152.5406  134.2322  159.8828 H   0  0  0  0  0  0  0  0  0  0  0  0  # atno 6907 bound_to 6896
  151.2293  133.4452  159.2611 H   0  0  0  0  0  0  0  0  0  0  0  0  # atno 6908 bound_to 6896
  151.0731  134.9824  159.8374 H   0  0  0  0  0  0  0  0  0  0  0  0  # atno 6909 bound_to 6896
  144.9903  140.7725  143.4558 H   0  0  0  0  0  0  0  0  0  0  0  0  # atno 7974 bound_to 7965
  154.4327  140.1074  156.6026 H   0  0  0  0  0  0  0  0  0  0  0  0  # atno 8008 bound_to 7997
  155.5894  140.3492  155.4543 H   0  0  0  0  0  0  0  0  0  0  0  0  # atno 8009 bound_to 7997
  156.0258  140.1249  157.0300 H   0  0  0  0  0  0  0  0  0  0  0  0  # atno 8010 bound_to 7997
  140.0027  144.5674  150.7724 H   0  0  0  0  0  0  0  0  0  0  0  0  # atno 10167 bound_to 10162
  157.4882  131.1089  150.9592 H   0  0  0  0  0  0  0  0  0  0  0  0  # atno 10718 bound_to 10713
  154.5122  135.2789  155.1333 H   0  0  0  0  0  0  0  0  0  0  0  0  # atno 10763 bound_to 10752
  154.2924  135.6264  153.5394 H   0  0  0  0  0  0  0  0  0  0  0  0  # atno 10764 bound_to 10752
  152.9921  135.5677  154.5590 H   0  0  0  0  0  0  0  0  0  0  0  0  # atno 10765 bound_to 10752
  139.9535  134.7185  156.0807 H   0  0  0  0  0  0  0  0  0  0  0  0  # atno 11005 bound_to 11000
  145.2295  139.2121  143.5050 LP  0  0  0  0  0  0  0  0  0  0  0  0  # atno 17320 bound_to 7965
  146.3430  140.2169  142.8591 LP  0  0  0  0  0  0  0  0  0  0  0  0  # atno 17321 bound_to 7965
  140.7412  143.2815  151.3584 LP  0  0  0  0  0  0  0  0  0  0  0  0  # atno 17342 bound_to 10162
  139.6260  144.0813  152.2435 LP  0  0  0  0  0  0  0  0  0  0  0  0  # atno 17343 bound_to 10162
  157.0302  130.5708  149.5342 LP  0  0  0  0  0  0  0  0  0  0  0  0  # atno 17370 bound_to 10713
  156.0158  130.5252  150.8131 LP  0  0  0  0  0  0  0  0  0  0  0  0  # atno 17371 bound_to 10713
  141.1202  133.6615  156.3196 LP  0  0  0  0  0  0  0  0  0  0  0  0  # atno 17394 bound_to 11000
  140.5664  134.5884  157.5447 LP  0  0  0  0  0  0  0  0  0  0  0  0  # atno 17395 bound_to 11000

$$$$
