AV-unprocessed.smi:1915|AV-procd|sdf|7760|dock10
  -GOLD-   22720 9503D 1   1.00000     0.00000
 Structure written by MMmdl.
 44 45  0  0  0  0  0  0  0  0  1 V2000
  150.0242  142.7694  158.2879 C   0  0  0  0  0  0  0  0  0  0  0  0
  150.7954  141.4828  157.9461 C   0  0  0  0  0  0  0  0  0  0  0  0
  152.1109  141.4201  158.7363 C   0  0  0  0  0  0  0  0  0  0  0  0
  151.0654  141.3141  156.4341 C   0  0  0  0  0  0  0  0  0  0  0  0
  151.2968  139.9228  156.0481 N   0  0  0  0  0  0  0  0  0  0  0  0
  152.2015  139.0880  156.8205 C   0  0  0  0  0  0  0  0  0  0  0  0
  152.0676  137.6711  156.2249 C   0  0  1  0  0  0  0  0  0  0  0  0
  151.3057  136.7191  157.1604 C   0  0  0  0  0  0  0  0  0  0  0  0
  151.8544  135.7077  157.5999 O   0  0  0  0  0  0  0  0  0  0  0  0
  150.0408  137.0527  157.4510 N   0  0  0  0  0  0  0  0  0  0  0  0
  149.1527  136.2714  158.3032 C   0  0  0  0  0  0  0  0  0  0  0  0
  148.5284  137.1271  159.4191 C   0  0  0  0  0  0  0  0  0  0  0  0
  148.0804  136.3183  160.6255 C   0  0  0  0  0  0  0  0  0  0  0  0
  148.0795  134.9079  160.5798 C   0  0  0  0  0  0  0  0  0  0  0  0
  147.6438  134.1993  161.7161 C   0  0  0  0  0  0  0  0  0  0  0  0
  147.2267  134.9245  162.8489 C   0  0  0  0  0  0  0  0  0  0  0  0
  147.2639  136.3319  162.7945 C   0  0  0  0  0  0  0  0  0  0  0  0
  147.6788  137.0211  161.7096 N   0  0  0  0  0  0  0  0  0  0  0  0
  151.3258  137.8698  154.8881 C   0  0  0  0  0  0  0  0  0  0  0  0
  150.8450  139.3103  154.9473 C   0  0  0  0  0  0  0  0  0  0  0  0
  150.1265  139.8080  154.0817 O   0  0  0  0  0  0  0  0  0  0  0  0
  150.5477  143.6535  157.9228 H   0  0  0  0  0  0  0  0  0  0  0  0
  149.9008  142.8779  159.3658 H   0  0  0  0  0  0  0  0  0  0  0  0
  149.0251  142.7664  157.8521 H   0  0  0  0  0  0  0  0  0  0  0  0
  150.1843  140.6400  158.2724 H   0  0  0  0  0  0  0  0  0  0  0  0
  152.7784  142.2368  158.4590 H   0  0  0  0  0  0  0  0  0  0  0  0
  152.6366  140.4826  158.5519 H   0  0  0  0  0  0  0  0  0  0  0  0
  151.9304  141.4875  159.8096 H   0  0  0  0  0  0  0  0  0  0  0  0
  150.2346  141.7262  155.8585 H   0  0  0  0  0  0  0  0  0  0  0  0
  151.9420  141.8980  156.1498 H   0  0  0  0  0  0  0  0  0  0  0  0
  153.2211  139.4590  156.7078 H   0  0  0  0  0  0  0  0  0  0  0  0
  151.9522  139.1306  157.8822 H   0  0  0  0  0  0  0  0  0  0  0  0
  153.0615  137.2614  156.0357 H   0  0  0  0  0  0  0  0  0  0  0  0
  149.6602  137.8942  157.0417 H   0  0  0  0  0  0  0  0  0  0  0  0
  148.3587  135.8312  157.6973 H   0  0  0  0  0  0  0  0  0  0  0  0
  149.7152  135.4454  158.7399 H   0  0  0  0  0  0  0  0  0  0  0  0
  149.2475  137.8791  159.7458 H   0  0  0  0  0  0  0  0  0  0  0  0
  147.6744  137.6803  159.0250 H   0  0  0  0  0  0  0  0  0  0  0  0
  148.4025  134.3800  159.6945 H   0  0  0  0  0  0  0  0  0  0  0  0
  147.6292  133.1195  161.7182 H   0  0  0  0  0  0  0  0  0  0  0  0
  146.8867  134.4144  163.7380 H   0  0  0  0  0  0  0  0  0  0  0  0
  146.9519  136.9202  163.6448 H   0  0  0  0  0  0  0  0  0  0  0  0
  152.0022  137.7474  154.0416 H   0  0  0  0  0  0  0  0  0  0  0  0
  150.4838  137.1901  154.7464 H   0  0  0  0  0  0  0  0  0  0  0  0
  1  2  1  0  0  0  0
  1 22  1  0  0  0  0
  1 23  1  0  0  0  0
  1 24  1  0  0  0  0
  2  3  1  0  0  0  0
  2  4  1  0  0  0  0
  2 25  1  0  0  0  0
  3 26  1  0  0  0  0
  3 27  1  0  0  0  0
  3 28  1  0  0  0  0
  4  5  1  0  0  0  0
  4 29  1  0  0  0  0
  4 30  1  0  0  0  0
  5 20  1  0  0  0  0
  5  6  1  0  0  0  0
  6  7  1  0  0  0  0
  6 31  1  0  0  0  0
  6 32  1  0  0  0  0
  7  8  1  0  0  0  0
  7 19  1  0  0  0  0
  7 33  1  0  0  0  0
  8  9  2  0  0  0  0
  8 10  1  0  0  0  0
 10 11  1  0  0  0  0
 10 34  1  0  0  0  0
 11 12  1  0  0  0  0
 11 35  1  0  0  0  0
 11 36  1  0  0  0  0
 12 13  1  0  0  0  0
 12 37  1  0  0  0  0
 12 38  1  0  0  0  0
 13 18  1  0  0  0  0
 13 14  2  0  0  0  0
 14 15  1  0  0  0  0
 14 39  1  0  0  0  0
 15 16  2  0  0  0  0
 15 40  1  0  0  0  0
 16 17  1  0  0  0  0
 16 41  1  0  0  0  0
 17 18  2  0  0  0  0
 17 42  1  0  0  0  0
 19 20  1  0  0  0  0
 19 43  1  0  0  0  0
 19 44  1  0  0  0  0
 20 21  2  0  0  0  0
M  END
> <s_m_source_file>
AV-unprocessed.smi

> <i_m_source_file_index>
1915

> <i_lp_mmshare_version>
43012

> <i_f3d_flags>
0

> <s_epik_input>
W0NIM11bQ0hdKFtDSDNdKVtDSDJdTjFbQ0gyXVtDQEhdKFtDSDJdQzE9TylDKD1PKVtOSF1bQ0gyXVtDSDJdYzJbY0hdW2NIXVtjSF1bY0hdbjI=

> <s_epik_cmdline>
J2VwaWtfcHl0aG9uJywgJy1waCcsICc3LjAnLCAnLXRuJywgJzgnLCAnLW1hJywgJzIwMCcsICctbWV0YWxfYmluZGluZycsICctaW1hZScsICc8aW5maWxlLm1hZT4nLCAnLW9tYWUnLCAnPG91dGZpbGUubWFlPic=

> <r_epik_Ionization_Penalty>
0.0252359

> <r_epik_Ionization_Penalty_Charging>
0

> <r_epik_Ionization_Penalty_Neutral>
0.0252359

> <r_epik_State_Penalty>
0.020532

> <r_epik_Charging_Adjusted_Penalty>
0.020532

> <i_epik_Tot_Q>
0

> <i_epik_Tot_abs_Q>
0

> <r_epik_Metal_State_Penalty>
0.0196901

> <b_epik_Metal_Only>
0

> <s_lp_Force_Field>
OPLS_2005

> <r_lp_Energy>
14.3845

> <b_lp_Chiralities_Consistent>
1

> <s_lp_Variant>
AV-unprocessed.smi:1915-1

> <Gold.Version>
5.8.1

> <Gold.Id.Protein>
6NUR|6NUR_protein|mol2

> <Gold.PLP.Fitness>
47.6123

> <Gold.PLP.PLP>
-40.3470

> <Gold.PLP.part.hbond>
-4.0000

> <Gold.PLP.part.metal>
0.0000

> <Gold.PLP.part.buried>
-4.5279

> <Gold.PLP.part.nonpolar>
-31.5888

> <Gold.PLP.part.repulsive>
0.6042

> <Gold.PLP.ligand.clash>
0.0000

> <Gold.PLP.ligand.torsion>
0.6528

> <Gold.PLP.Chemscore.Hbond>
2.8297

> <Gold.PLP.Chemscore.CHOScore>
0.0000

> <Gold.PLP.Chemscore.Metal>
0.0000

> <Gold.Chemscore.Hbonds>
donor molecule, donor type, donor heavy atom, donor atom, acceptor molecule, acceptor atom, score
      P1  H  6931  6943       L1    18  1.00
      P1  H  6934  6947       L1    18  0.44
      P1  H  7989  7998       L1    21  0.50

> <Gold.PLP.Chemscore.Internal.Correction>
0.0819

> <Gold.Rescore>
     Score         DG    S(hbond)    S(metal)    S(lipo)     H(rot)  DE(clash)    DE(int)     intcor
     16.64     -17.52       1.83        0.00      88.85       1.75       0.13       0.75       ----

> <Gold.Chemscore.Fitness>
16.6365

> <Gold.Chemscore.DG>
-17.5171

> <Gold.Chemscore.ZeroCoef>
-5.4800

> <Gold.Chemscore.Hbond>
1.8294

> <Gold.Chemscore.Metal>
0.0000

> <Gold.Chemscore.Lipo>
88.8527

> <Gold.Chemscore.Internal_Hbond>
0.0000

> <Gold.Chemscore.DEClash>
0.1317

> <Gold.Chemscore.DEInternal>
0.7489

> <Gold.Chemscore.Rot>
1.7456

> <Gold.Chemscore.Internal.Correction>
   9.000000E+99

> <Gold.Chemscore.Hbonds>
donor molecule, donor type, donor heavy atom, donor atom, acceptor molecule, acceptor atom, score
      P1  H  6896  6907       L1     9  0.01
      P1  H  6931  6943       L1    18  0.37
      P1  H  6934  6947       L1    18  0.22
      P1  H  7989  7998       L1    21  0.02

> <Gold.Chemscore.Hbond.Weighted>
-6.1101

> <Gold.Chemscore.Metal.Weighted>
-0.0000

> <Gold.Chemscore.Lipo.Weighted>
-10.3958

> <Gold.Chemscore.Internal_Hbond.Weighted>
0.0000

> <Gold.Chemscore.DEClash.Weighted>
0.1317

> <Gold.Chemscore.DEInternal.Weighted>
0.7489

> <Gold.Chemscore.Rot.Weighted>
4.4688

> <Gold.Chemscore.Internal.Correction.Weighted>
   9.000000E+99

> <Gold.Protein.RotatedTorsions>
[ 6907 6896 6895 6894 ] final   -0.64 input  -60.11 | X-H torsion
[ 7974 7965 7964 7962 ] final   69.97 input  175.53 | X-H torsion
[ 8008 7997 7996 7995 ] final  165.41 input   59.86 | X-H torsion
[ 10167 10162 10161 10158 ] final  138.56 input  -65.29 | X-H torsion
[ 10718 10713 10712 10709 ] final  -76.95 input   66.30 | X-H torsion
[ 10763 10752 10751 10750 ] final   -6.27 input  -60.55 | X-H torsion
[ 11005 11000 10999 10996 ] final -177.91 input  -57.11 | X-H torsion

> <Gold.Protein.ActiveResidues>
 VAL166  LYS551  ARG553  GLY616  TRP617  ASP618  TYR619  PRO620  LYS621  CYS622 
 ASP623  PHE694  ASN695  SER759  ASP760  ASP761  ALA762  ILE779  LEU786  VAL792 
 PHE793  MET794  SER795  GLU796  ALA797  LYS798  CYS799  TRP800  GLU811  SER814 

> <Gold.Protein.RotatedAtoms>
  151.5590  135.1066  159.9967 H   0  0  0  0  0  0  0  0  0  0  0  0  # atno 6907 bound_to 6896
  152.4456  133.7525  159.6712 H   0  0  0  0  0  0  0  0  0  0  0  0  # atno 6908 bound_to 6896
  150.8370  133.7929  159.3099 H   0  0  0  0  0  0  0  0  0  0  0  0  # atno 6909 bound_to 6896
  145.7839  139.2901  143.1250 H   0  0  0  0  0  0  0  0  0  0  0  0  # atno 7974 bound_to 7965
  156.1802  140.1670  156.8288 H   0  0  0  0  0  0  0  0  0  0  0  0  # atno 8008 bound_to 7997
  154.5352  140.0748  156.8447 H   0  0  0  0  0  0  0  0  0  0  0  0  # atno 8009 bound_to 7997
  155.3326  140.3380  155.4241 H   0  0  0  0  0  0  0  0  0  0  0  0  # atno 8010 bound_to 7997
  139.5107  144.6346  151.5729 H   0  0  0  0  0  0  0  0  0  0  0  0  # atno 10167 bound_to 10162
  156.0159  130.4478  150.3270 H   0  0  0  0  0  0  0  0  0  0  0  0  # atno 10718 bound_to 10713
  153.4101  135.7007  153.6365 H   0  0  0  0  0  0  0  0  0  0  0  0  # atno 10763 bound_to 10752
  153.4863  135.3682  155.2469 H   0  0  0  0  0  0  0  0  0  0  0  0  # atno 10764 bound_to 10752
  154.8716  135.4078  154.3451 H   0  0  0  0  0  0  0  0  0  0  0  0  # atno 10765 bound_to 10752
  140.4357  134.6478  157.4733 H   0  0  0  0  0  0  0  0  0  0  0  0  # atno 11005 bound_to 11000
  146.0046  140.8489  143.0001 LP  0  0  0  0  0  0  0  0  0  0  0  0  # atno 17320 bound_to 7965
  144.6792  140.2402  143.7344 LP  0  0  0  0  0  0  0  0  0  0  0  0  # atno 17321 bound_to 7965
  140.6091  143.9470  150.6440 LP  0  0  0  0  0  0  0  0  0  0  0  0  # atno 17342 bound_to 10162
  140.2706  143.3458  152.1241 LP  0  0  0  0  0  0  0  0  0  0  0  0  # atno 17343 bound_to 10162
  157.1369  131.0286  151.2945 LP  0  0  0  0  0  0  0  0  0  0  0  0  # atno 17370 bound_to 10713
  157.4504  130.7595  149.7146 LP  0  0  0  0  0  0  0  0  0  0  0  0  # atno 17371 bound_to 10713
  140.0104  134.6699  155.9389 LP  0  0  0  0  0  0  0  0  0  0  0  0  # atno 17394 bound_to 11000
  141.1727  133.6538  156.4711 LP  0  0  0  0  0  0  0  0  0  0  0  0  # atno 17395 bound_to 11000

$$$$
