AV-unprocessed.smi:769|AV-procd|sdf|3677|dock3
  -GOLD-   22720 1 93D 1   1.00000     0.00000
 Structure written by MMmdl.
 51 53  0  0  0  0  0  0  0  0  3 V2000
  147.2546  137.8317  153.8646 O   0  0  0  0  0  0  0  0  0  0  0  0
  146.2700  138.4474  153.4569 C   0  0  0  0  0  0  0  0  0  0  0  0
  146.3142  139.7314  153.0729 N   0  0  0  0  0  0  0  0  0  0  0  0
  147.5185  140.5545  153.0536 C   0  0  0  0  0  0  0  0  0  0  0  0
  147.4751  141.6533  154.1336 C   0  0  0  0  0  0  0  0  0  0  0  0
  148.2205  141.2761  155.3606 N   0  3  0  0  0  0  0  0  0  0  0  0
  149.6517  141.6790  155.2910 C   0  0  0  0  0  0  0  0  0  0  0  0
  150.4163  141.2851  156.5684 C   0  0  0  0  0  0  0  0  0  0  0  0
  149.7316  141.8649  157.7270 N   0  0  0  0  0  0  0  0  0  0  0  0
  150.2741  142.8470  158.4876 C   0  0  0  0  0  0  0  0  0  0  0  0
  149.6456  143.3873  159.3985 O   0  0  0  0  0  0  0  0  0  0  0  0
  151.7374  143.2689  158.2321 C   0  0  0  0  0  0  0  0  0  0  0  0
  152.4766  143.9370  159.4091 C   0  0  0  0  0  0  0  0  0  0  0  0
  152.2442  145.3035  158.7577 C   0  0  0  0  0  0  0  0  0  0  0  0
  151.8805  144.5875  157.4529 C   0  0  0  0  0  0  0  0  0  0  0  0
  148.3749  141.3264  157.8586 C   0  0  0  0  0  0  0  0  0  0  0  0
  147.5567  141.7253  156.6172 C   0  0  0  0  0  0  0  0  0  0  0  0
  145.0259  137.9480  153.3536 N   0  0  0  0  0  0  0  0  0  0  0  0
  144.5661  136.6340  153.6448 C   0  0  0  0  0  0  0  0  0  0  0  0
  143.2104  136.3438  153.3727 C   0  0  0  0  0  0  0  0  0  0  0  0
  142.7089  135.0517  153.6302 C   0  0  0  0  0  0  0  0  0  0  0  0
  143.5276  134.0996  154.1259 N   0  3  0  0  0  0  0  0  0  0  0  0
  144.8326  134.3241  154.3894 C   0  0  0  0  0  0  0  0  0  0  0  0
  145.3909  135.5969  154.1516 C   0  0  0  0  0  0  0  0  0  0  0  0
  145.4597  140.1653  152.7542 H   0  0  0  0  0  0  0  0  0  0  0  0
  148.3891  139.9088  153.1731 H   0  0  0  0  0  0  0  0  0  0  0  0
  147.6025  141.0081  152.0656 H   0  0  0  0  0  0  0  0  0  0  0  0
  147.9159  142.5582  153.7122 H   0  0  0  0  0  0  0  0  0  0  0  0
  146.4474  141.9075  154.3980 H   0  0  0  0  0  0  0  0  0  0  0  0
  150.1230  141.2104  154.4262 H   0  0  0  0  0  0  0  0  0  0  0  0
  149.7152  142.7584  155.1419 H   0  0  0  0  0  0  0  0  0  0  0  0
  150.4428  140.1993  156.6719 H   0  0  0  0  0  0  0  0  0  0  0  0
  151.4573  141.6000  156.4852 H   0  0  0  0  0  0  0  0  0  0  0  0
  152.3312  142.4534  157.8178 H   0  0  0  0  0  0  0  0  0  0  0  0
  152.0215  143.8339  160.3947 H   0  0  0  0  0  0  0  0  0  0  0  0
  153.5320  143.6634  159.4419 H   0  0  0  0  0  0  0  0  0  0  0  0
  151.3987  145.8375  159.1936 H   0  0  0  0  0  0  0  0  0  0  0  0
  153.1324  145.9330  158.6967 H   0  0  0  0  0  0  0  0  0  0  0  0
  152.7031  144.5610  156.7369 H   0  0  0  0  0  0  0  0  0  0  0  0
  150.9650  144.9589  156.9900 H   0  0  0  0  0  0  0  0  0  0  0  0
  148.4319  140.2392  157.9295 H   0  0  0  0  0  0  0  0  0  0  0  0
  147.8608  141.6428  158.7647 H   0  0  0  0  0  0  0  0  0  0  0  0
  147.4293  142.8089  156.5937 H   0  0  0  0  0  0  0  0  0  0  0  0
  146.5608  141.2913  156.6958 H   0  0  0  0  0  0  0  0  0  0  0  0
  144.3097  138.6027  153.0744 H   0  0  0  0  0  0  0  0  0  0  0  0
  142.5544  137.1041  152.9737 H   0  0  0  0  0  0  0  0  0  0  0  0
  141.6856  134.7533  153.4542 H   0  0  0  0  0  0  0  0  0  0  0  0
  145.3900  133.4827  154.7748 H   0  0  0  0  0  0  0  0  0  0  0  0
  146.4408  135.7442  154.3519 H   0  0  0  0  0  0  0  0  0  0  0  0
  148.2278  140.2665  155.3897 H   0  0  0  0  0  0  0  0  0  0  0  0
  143.1456  133.1703  154.3047 H   0  0  0  0  0  0  0  0  0  0  0  0
  1  2  2  0  0  0  0
  2  3  1  0  0  0  0
  2 18  1  0  0  0  0
  3  4  1  0  0  0  0
  3 25  1  0  0  0  0
  4  5  1  0  0  0  0
  4 26  1  0  0  0  0
  4 27  1  0  0  0  0
  5  6  1  0  0  0  0
  5 28  1  0  0  0  0
  5 29  1  0  0  0  0
  6 17  1  0  0  0  0
  6  7  1  0  0  0  0
  6 50  1  0  0  0  0
  7  8  1  0  0  0  0
  7 30  1  0  0  0  0
  7 31  1  0  0  0  0
  8  9  1  0  0  0  0
  8 32  1  0  0  0  0
  8 33  1  0  0  0  0
  9 10  1  0  0  0  0
  9 16  1  0  0  0  0
 10 11  2  0  0  0  0
 10 12  1  0  0  0  0
 12 15  1  0  0  0  0
 12 13  1  0  0  0  0
 12 34  1  0  0  0  0
 13 14  1  0  0  0  0
 13 35  1  0  0  0  0
 13 36  1  0  0  0  0
 14 15  1  0  0  0  0
 14 37  1  0  0  0  0
 14 38  1  0  0  0  0
 15 39  1  0  0  0  0
 15 40  1  0  0  0  0
 16 17  1  0  0  0  0
 16 41  1  0  0  0  0
 16 42  1  0  0  0  0
 17 43  1  0  0  0  0
 17 44  1  0  0  0  0
 18 19  1  0  0  0  0
 18 45  1  0  0  0  0
 19 24  1  0  0  0  0
 19 20  2  0  0  0  0
 20 21  1  0  0  0  0
 20 46  1  0  0  0  0
 21 22  2  0  0  0  0
 21 47  1  0  0  0  0
 22 23  1  0  0  0  0
 22 51  1  0  0  0  0
 23 24  2  0  0  0  0
 23 48  1  0  0  0  0
 24 49  1  0  0  0  0
M  CHG  1   6   1
M  CHG  1  22   1
M  END
> <s_m_source_file>
AV-unprocessed.smi

> <i_m_source_file_index>
769

> <i_lp_mmshare_version>
43012

> <i_f3d_flags>
0

> <s_epik_input>
W2NIXTFbY0hdbltjSF1bY0hdYzFbTkhdQyg9TylbTkhdW0NIMl1bQ0gyXU4yW0NIMl1bQ0gyXU4oW0NIMl1bQ0gyXTIpQyg9TylbQ0hdM1tDSDJdW0NIMl1bQ0gyXTM=

> <s_epik_cmdline>
J2VwaWtfcHl0aG9uJywgJy1waCcsICc3LjAnLCAnLXRuJywgJzgnLCAnLW1hJywgJzIwMCcsICctbWV0YWxfYmluZGluZycsICctaW1hZScsICc8aW5maWxlLm1hZT4nLCAnLW9tYWUnLCAnPG91dGZpbGUubWFlPic=

> <r_epik_Ionization_Penalty>
1.74797

> <r_epik_Ionization_Penalty_Charging>
1.74795

> <r_epik_Ionization_Penalty_Neutral>
1.97893e-05

> <r_epik_State_Penalty>
1.75255

> <r_epik_Charging_Adjusted_Penalty>
3.5005

> <i_epik_Tot_Q>
2

> <i_epik_Tot_abs_Q>
2

> <r_epik_Metal_State_Penalty>
1.84999

> <b_epik_Metal_Only>
0

> <s_lp_Force_Field>
OPLS_2005

> <r_lp_Energy>
63.8018

> <b_lp_Chiralities_Consistent>
1

> <s_lp_Variant>
AV-unprocessed.smi:769-4

> <Gold.Version>
5.8.1

> <Gold.Id.Protein>
6NUR|6NUR_protein|mol2

> <Gold.PLP.Fitness>
50.7049

> <Gold.PLP.PLP>
-40.8926

> <Gold.PLP.part.hbond>
-4.0000

> <Gold.PLP.part.metal>
0.0000

> <Gold.PLP.part.buried>
-4.1204

> <Gold.PLP.part.nonpolar>
-34.1079

> <Gold.PLP.part.repulsive>
1.2264

> <Gold.PLP.ligand.clash>
0.0000

> <Gold.PLP.ligand.torsion>
1.3307

> <Gold.PLP.Chemscore.Hbond>
4.0078

> <Gold.PLP.Chemscore.CHOScore>
0.0000

> <Gold.PLP.Chemscore.Metal>
0.0000

> <Gold.Chemscore.Hbonds>
donor molecule, donor type, donor heavy atom, donor atom, acceptor molecule, acceptor atom, score
      L1  H     3    25       P1 10175  1.00
      L1  H    18    45       P1 10175  0.96
      L1  H    22    51       P1 10957  2.00

> <Gold.PLP.Chemscore.Internal.Correction>
0.4504

> <Gold.Rescore>
     Score         DG    S(hbond)    S(metal)    S(lipo)     H(rot)  DE(clash)    DE(int)     intcor
     19.38     -22.16       2.81        0.00     100.99       1.76       0.24       2.55       ----

> <Gold.Chemscore.Fitness>
19.3790

> <Gold.Chemscore.DG>
-22.1647

> <Gold.Chemscore.ZeroCoef>
-5.4800

> <Gold.Chemscore.Hbond>
2.8078

> <Gold.Chemscore.Metal>
0.0000

> <Gold.Chemscore.Lipo>
100.9894

> <Gold.Chemscore.Internal_Hbond>
0.0000

> <Gold.Chemscore.DEClash>
0.2367

> <Gold.Chemscore.DEInternal>
2.5490

> <Gold.Chemscore.Rot>
1.7614

> <Gold.Chemscore.Internal.Correction>
   9.000000E+99

> <Gold.Chemscore.Hbonds>
donor molecule, donor type, donor heavy atom, donor atom, acceptor molecule, acceptor atom, score
      L1  H     3    25       P1 10175  0.96
      L1  H    18    45       P1 10175  0.88
      L1  H    22    51       P1 10957  0.96

> <Gold.Chemscore.Hbond.Weighted>
-9.3781

> <Gold.Chemscore.Metal.Weighted>
-0.0000

> <Gold.Chemscore.Lipo.Weighted>
-11.8158

> <Gold.Chemscore.Internal_Hbond.Weighted>
0.0000

> <Gold.Chemscore.DEClash.Weighted>
0.2367

> <Gold.Chemscore.DEInternal.Weighted>
2.5490

> <Gold.Chemscore.Rot.Weighted>
4.5091

> <Gold.Chemscore.Internal.Correction.Weighted>
   9.000000E+99

> <Gold.Protein.RotatedTorsions>
[ 6907 6896 6895 6894 ] final  -98.83 input  -60.11 | X-H torsion
[ 7974 7965 7964 7962 ] final   99.82 input  175.53 | X-H torsion
[ 8008 7997 7996 7995 ] final   68.65 input   59.86 | X-H torsion
[ 10167 10162 10161 10158 ] final   58.56 input  -65.29 | X-H torsion
[ 10718 10713 10712 10709 ] final  120.06 input   66.30 | X-H torsion
[ 10763 10752 10751 10750 ] final   -1.74 input  -60.55 | X-H torsion
[ 11005 11000 10999 10996 ] final -157.72 input  -57.11 | X-H torsion

> <Gold.Protein.ActiveResidues>
 VAL166  LYS551  ARG553  GLY616  TRP617  ASP618  TYR619  PRO620  LYS621  CYS622 
 ASP623  PHE694  ASN695  SER759  ASP760  ASP761  ALA762  ILE779  LEU786  VAL792 
 PHE793  MET794  SER795  GLU796  ALA797  LYS798  CYS799  TRP800  GLU811  SER814 

> <Gold.Protein.RotatedAtoms>
  150.7059  134.1134  159.4008 H   0  0  0  0  0  0  0  0  0  0  0  0  # atno 6907 bound_to 6896
  151.9121  135.0332  160.0524 H   0  0  0  0  0  0  0  0  0  0  0  0  # atno 6908 bound_to 6896
  152.2327  133.5036  159.5261 H   0  0  0  0  0  0  0  0  0  0  0  0  # atno 6909 bound_to 6896
  145.3937  139.2358  143.3338 H   0  0  0  0  0  0  0  0  0  0  0  0  # atno 7974 bound_to 7965
  155.7116  140.3494  155.4976 H   0  0  0  0  0  0  0  0  0  0  0  0  # atno 8008 bound_to 7997
  155.9350  140.1091  157.1123 H   0  0  0  0  0  0  0  0  0  0  0  0  # atno 8009 bound_to 7997
  154.4092  140.1223  156.4839 H   0  0  0  0  0  0  0  0  0  0  0  0  # atno 8010 bound_to 7997
  140.1859  144.4134  150.6593 H   0  0  0  0  0  0  0  0  0  0  0  0  # atno 10167 bound_to 10162
  157.5917  131.1063  150.7983 H   0  0  0  0  0  0  0  0  0  0  0  0  # atno 10718 bound_to 10713
  153.3488  135.6984  153.6806 H   0  0  0  0  0  0  0  0  0  0  0  0  # atno 10763 bound_to 10752
  153.5541  135.3548  155.2772 H   0  0  0  0  0  0  0  0  0  0  0  0  # atno 10764 bound_to 10752
  154.8649  135.4233  154.2718 H   0  0  0  0  0  0  0  0  0  0  0  0  # atno 10765 bound_to 10752
  140.6615  134.4344  157.5234 H   0  0  0  0  0  0  0  0  0  0  0  0  # atno 11005 bound_to 11000
  146.2785  140.4624  142.8786 LP  0  0  0  0  0  0  0  0  0  0  0  0  # atno 17320 bound_to 7965
  144.8422  140.6874  143.6222 LP  0  0  0  0  0  0  0  0  0  0  0  0  # atno 17321 bound_to 7965
  140.6488  143.2220  151.6124 LP  0  0  0  0  0  0  0  0  0  0  0  0  # atno 17342 bound_to 10162
  139.5276  144.3012  152.1072 LP  0  0  0  0  0  0  0  0  0  0  0  0  # atno 17343 bound_to 10162
  156.8404  130.5046  149.5322 LP  0  0  0  0  0  0  0  0  0  0  0  0  # atno 17370 bound_to 10713
  156.0973  130.5942  150.9835 LP  0  0  0  0  0  0  0  0  0  0  0  0  # atno 17371 bound_to 10713
  139.9011  134.8553  156.1892 LP  0  0  0  0  0  0  0  0  0  0  0  0  # atno 17394 bound_to 11000
  141.0461  133.6912  156.1686 LP  0  0  0  0  0  0  0  0  0  0  0  0  # atno 17395 bound_to 11000

$$$$
