AV-unprocessed.smi:27|AV-procd|sdf|188|dock6
  -GOLD-   2262015453D 1   1.00000     0.00000
 Structure written by MMmdl.
 53 56  0  0  0  0  0  0  0  0  1 V2000
  152.5627  136.7576  156.4684 O   0  0  0  0  0  0  0  0  0  0  0  0
  151.6866  137.2702  155.7699 C   0  0  0  0  0  0  0  0  0  0  0  0
  151.9303  138.5975  155.0361 C   0  0  0  0  0  0  0  0  0  0  0  0
  151.2221  139.7456  155.6425 N   0  0  0  0  0  0  0  0  0  0  0  0
  150.1815  140.3674  154.9090 C   0  0  0  0  0  0  0  0  0  0  0  0
  149.8580  139.9630  153.7911 O   0  0  0  0  0  0  0  0  0  0  0  0
  149.5412  141.5026  155.5639 C   0  0  0  0  0  0  0  0  0  0  0  0
  148.5352  142.1453  154.9467 F   0  0  0  0  0  0  0  0  0  0  0  0
  149.9412  141.9187  156.7832 C   0  0  0  0  0  0  0  0  0  0  0  0
  150.9700  141.3114  157.4812 N   0  0  0  0  0  0  0  0  0  0  0  0
  151.4095  141.7917  158.8485 C   0  0  1  0  0  0  0  0  0  0  0  0
  152.8974  142.1911  158.8316 C   0  0  0  0  0  0  0  0  0  0  0  0
  152.8780  143.5789  159.4406 C   0  0  0  0  0  0  0  0  0  0  0  0
  151.5014  144.0817  159.0329 C   0  0  0  0  0  0  0  0  0  0  0  0
  150.6834  142.9324  159.2090 O   0  0  0  0  0  0  0  0  0  0  0  0
  151.6336  140.2000  156.9176 C   0  0  0  0  0  0  0  0  0  0  0  0
  152.5539  139.6458  157.5231 O   0  0  0  0  0  0  0  0  0  0  0  0
  150.4763  136.7211  155.5889 N   0  0  0  0  0  0  0  0  0  0  0  0
  150.0180  135.4614  156.1755 C   0  0  0  0  0  0  0  0  0  0  0  0
  149.3216  134.5580  155.1622 C   0  0  0  0  0  0  0  0  0  0  0  0
  148.1054  134.9430  154.5521 C   0  0  0  0  0  0  0  0  0  0  0  0
  147.4740  134.0918  153.6248 C   0  0  0  0  0  0  0  0  0  0  0  0
  148.0509  132.8487  153.3025 C   0  0  0  0  0  0  0  0  0  0  0  0
  149.2586  132.4560  153.9104 C   0  0  0  0  0  0  0  0  0  0  0  0
  149.8899  133.3068  154.8383 C   0  0  0  0  0  0  0  0  0  0  0  0
  149.1294  135.6959  157.3908 C   0  0  0  0  0  0  0  0  0  0  0  0
  149.4409  136.6975  158.3387 C   0  0  0  0  0  0  0  0  0  0  0  0
  148.6065  136.9055  159.4540 C   0  0  0  0  0  0  0  0  0  0  0  0
  147.4537  136.1168  159.6289 C   0  0  0  0  0  0  0  0  0  0  0  0
  147.1331  135.1228  158.6850 C   0  0  0  0  0  0  0  0  0  0  0  0
  147.9665  134.9151  157.5688 C   0  0  0  0  0  0  0  0  0  0  0  0
  153.0061  138.7759  154.9975 H   0  0  0  0  0  0  0  0  0  0  0  0
  151.6468  138.4743  153.9895 H   0  0  0  0  0  0  0  0  0  0  0  0
  149.4233  142.7622  157.2129 H   0  0  0  0  0  0  0  0  0  0  0  0
  151.1720  140.9791  159.5374 H   0  0  0  0  0  0  0  0  0  0  0  0
  153.5002  141.4806  159.3979 H   0  0  0  0  0  0  0  0  0  0  0  0
  153.2665  142.2309  157.8054 H   0  0  0  0  0  0  0  0  0  0  0  0
  152.9453  143.5134  160.5274 H   0  0  0  0  0  0  0  0  0  0  0  0
  153.6888  144.2142  159.0835 H   0  0  0  0  0  0  0  0  0  0  0  0
  151.1579  144.9168  159.6435 H   0  0  0  0  0  0  0  0  0  0  0  0
  151.4956  144.3922  157.9872 H   0  0  0  0  0  0  0  0  0  0  0  0
  149.8191  137.2109  154.9996 H   0  0  0  0  0  0  0  0  0  0  0  0
  150.9025  134.9307  156.5341 H   0  0  0  0  0  0  0  0  0  0  0  0
  147.6475  135.8909  154.7933 H   0  0  0  0  0  0  0  0  0  0  0  0
  146.5458  134.3924  153.1616 H   0  0  0  0  0  0  0  0  0  0  0  0
  147.5665  132.1964  152.5909 H   0  0  0  0  0  0  0  0  0  0  0  0
  149.7007  131.5015  153.6659 H   0  0  0  0  0  0  0  0  0  0  0  0
  150.8147  132.9951  155.3014 H   0  0  0  0  0  0  0  0  0  0  0  0
  150.3174  137.3159  158.2133 H   0  0  0  0  0  0  0  0  0  0  0  0
  148.8504  137.6723  160.1743 H   0  0  0  0  0  0  0  0  0  0  0  0
  146.8141  136.2765  160.4846 H   0  0  0  0  0  0  0  0  0  0  0  0
  146.2469  134.5194  158.8161 H   0  0  0  0  0  0  0  0  0  0  0  0
  147.7093  134.1518  156.8489 H   0  0  0  0  0  0  0  0  0  0  0  0
  1  2  2  0  0  0  0
  2  3  1  0  0  0  0
  2 18  1  0  0  0  0
  3  4  1  0  0  0  0
  3 32  1  0  0  0  0
  3 33  1  0  0  0  0
  4 16  1  0  0  0  0
  4  5  1  0  0  0  0
  5  6  2  0  0  0  0
  5  7  1  0  0  0  0
  7  8  1  0  0  0  0
  7  9  2  0  0  0  0
  9 10  1  0  0  0  0
  9 34  1  0  0  0  0
 10 11  1  0  0  0  0
 10 16  1  0  0  0  0
 11 15  1  0  0  0  0
 11 12  1  0  0  0  0
 11 35  1  0  0  0  0
 12 13  1  0  0  0  0
 12 36  1  0  0  0  0
 12 37  1  0  0  0  0
 13 14  1  0  0  0  0
 13 38  1  0  0  0  0
 13 39  1  0  0  0  0
 14 15  1  0  0  0  0
 14 40  1  0  0  0  0
 14 41  1  0  0  0  0
 16 17  2  0  0  0  0
 18 19  1  0  0  0  0
 18 42  1  0  0  0  0
 19 20  1  0  0  0  0
 19 26  1  0  0  0  0
 19 43  1  0  0  0  0
 20 25  1  0  0  0  0
 20 21  2  0  0  0  0
 21 22  1  0  0  0  0
 21 44  1  0  0  0  0
 22 23  2  0  0  0  0
 22 45  1  0  0  0  0
 23 24  1  0  0  0  0
 23 46  1  0  0  0  0
 24 25  2  0  0  0  0
 24 47  1  0  0  0  0
 25 48  1  0  0  0  0
 26 31  1  0  0  0  0
 26 27  2  0  0  0  0
 27 28  1  0  0  0  0
 27 49  1  0  0  0  0
 28 29  2  0  0  0  0
 28 50  1  0  0  0  0
 29 30  1  0  0  0  0
 29 51  1  0  0  0  0
 30 31  2  0  0  0  0
 30 52  1  0  0  0  0
 31 53  1  0  0  0  0
M  END
> <s_m_source_file>
AV-unprocessed.smi

> <i_m_source_file_index>
27

> <i_lp_mmshare_version>
43012

> <i_f3d_flags>
0

> <s_epik_input>
W2NIXTFbY0hdW2NIXVtjSF1bY0hdYzFbQ0hdKGMyW2NIXVtjSF1bY0hdW2NIXVtjSF0yKVtOSF1DKD1PKVtDSDJdbjNjKD1PKWMoRilbY0hdbihjMz1PKVtDQEBIXTRbQ0gyXVtDSDJdW0NIMl1PNA==

> <s_epik_cmdline>
J2VwaWtfcHl0aG9uJywgJy1waCcsICc3LjAnLCAnLXRuJywgJzgnLCAnLW1hJywgJzIwMCcsICctbWV0YWxfYmluZGluZycsICctaW1hZScsICc8aW5maWxlLm1hZT4nLCAnLW9tYWUnLCAnPG91dGZpbGUubWFlPic=

> <r_lp_tautomer_probability>
1

> <r_epik_Ionization_Penalty>
5.29953e-08

> <r_epik_Ionization_Penalty_Charging>
3.6115e-09

> <r_epik_Ionization_Penalty_Neutral>
4.93838e-08

> <r_epik_State_Penalty>
-0

> <r_epik_Charging_Adjusted_Penalty>
3.6115e-09

> <i_epik_Tot_Q>
0

> <i_epik_Tot_abs_Q>
0

> <r_epik_Metal_State_Penalty>
-0

> <b_epik_Metal_Only>
0

> <s_epik_Chemistry_Notes>
This compound contains an acetal/aminal-like group ( X-CH(R)-Y where X, Y are N, S, or O) that may be acid/base labile, releasing an aldehyde.

> <s_lp_Force_Field>
OPLS_2005

> <r_lp_Energy>
31.2801

> <b_lp_Chiralities_Consistent>
1

> <s_lp_Variant>
AV-unprocessed.smi:27-2

> <Gold.Version>
5.8.1

> <Gold.Id.Protein>
6NUR|6NUR_protein|mol2

> <Gold.PLP.Fitness>
55.8072

> <Gold.PLP.PLP>
-49.6005

> <Gold.PLP.part.hbond>
-3.2745

> <Gold.PLP.part.metal>
0.0000

> <Gold.PLP.part.buried>
-2.2230

> <Gold.PLP.part.nonpolar>
-46.4122

> <Gold.PLP.part.repulsive>
2.7973

> <Gold.PLP.ligand.clash>
0.0000

> <Gold.PLP.ligand.torsion>
0.8485

> <Gold.PLP.Chemscore.Hbond>
1.9760

> <Gold.PLP.Chemscore.CHOScore>
0.5998

> <Gold.PLP.Chemscore.Metal>
0.0000

> <Gold.Chemscore.Hbonds>
donor molecule, donor type, donor heavy atom, donor atom, acceptor molecule, acceptor atom, score
      P1  H  7997  8010       L1    17  0.89
      P1  H 10752 10764       L1     1  0.94
      L1  C     9    34       P1  8028  0.72

> <Gold.PLP.Chemscore.Internal.Correction>
0.1765

> <Gold.Rescore>
     Score         DG    S(hbond)    S(metal)    S(lipo)     H(rot)  DE(clash)    DE(int)     intcor
     15.78     -18.44       1.74        0.00     108.38       2.16       0.37       2.29       ----

> <Gold.Chemscore.Fitness>
15.7752

> <Gold.Chemscore.DG>
-18.4402

> <Gold.Chemscore.ZeroCoef>
-5.4800

> <Gold.Chemscore.Hbond>
1.7427

> <Gold.Chemscore.Metal>
0.0000

> <Gold.Chemscore.Lipo>
108.3755

> <Gold.Chemscore.Internal_Hbond>
0.0000

> <Gold.Chemscore.DEClash>
0.3706

> <Gold.Chemscore.DEInternal>
2.2944

> <Gold.Chemscore.Rot>
2.1642

> <Gold.Chemscore.Internal.Correction>
   9.000000E+99

> <Gold.Chemscore.Hbonds>
donor molecule, donor type, donor heavy atom, donor atom, acceptor molecule, acceptor atom, score
      P1  H  7997  8010       L1    17  0.68
      P1  H 10752 10764       L1     1  0.48

> <Gold.Chemscore.Hbond.Weighted>
-5.8207

> <Gold.Chemscore.Metal.Weighted>
-0.0000

> <Gold.Chemscore.Lipo.Weighted>
-12.6799

> <Gold.Chemscore.Internal_Hbond.Weighted>
0.0000

> <Gold.Chemscore.DEClash.Weighted>
0.3706

> <Gold.Chemscore.DEInternal.Weighted>
2.2944

> <Gold.Chemscore.Rot.Weighted>
5.5404

> <Gold.Chemscore.Internal.Correction.Weighted>
   9.000000E+99

> <Gold.Protein.RotatedTorsions>
[ 6907 6896 6895 6894 ] final   39.79 input  -60.11 | X-H torsion
[ 7974 7965 7964 7962 ] final  -91.61 input  175.53 | X-H torsion
[ 8008 7997 7996 7995 ] final   60.48 input   59.86 | X-H torsion
[ 10167 10162 10161 10158 ] final  -87.58 input  -65.29 | X-H torsion
[ 10718 10713 10712 10709 ] final   16.16 input   66.30 | X-H torsion
[ 10763 10752 10751 10750 ] final   -5.51 input  -60.55 | X-H torsion
[ 11005 11000 10999 10996 ] final  167.81 input  -57.11 | X-H torsion

> <Gold.Protein.ActiveResidues>
 VAL166  LYS551  ARG553  GLY616  TRP617  ASP618  TYR619  PRO620  LYS621  CYS622 
 ASP623  PHE694  ASN695  SER759  ASP760  ASP761  ALA762  ILE779  LEU786  VAL792 
 PHE793  MET794  SER795  GLU796  ALA797  LYS798  CYS799  TRP800  GLU811  SER814 

> <Gold.Protein.RotatedAtoms>
  152.1741  134.8810  160.0531 H   0  0  0  0  0  0  0  0  0  0  0  0  # atno 6907 bound_to 6896
  151.9758  133.3736  159.4097 H   0  0  0  0  0  0  0  0  0  0  0  0  # atno 6908 bound_to 6896
  150.6906  134.4014  159.5164 H   0  0  0  0  0  0  0  0  0  0  0  0  # atno 6909 bound_to 6896
  145.4108  140.9545  143.2235 H   0  0  0  0  0  0  0  0  0  0  0  0  # atno 7974 bound_to 7965
  155.5830  140.3491  155.4545 H   0  0  0  0  0  0  0  0  0  0  0  0  # atno 8008 bound_to 7997
  156.0359  140.1285  157.0233 H   0  0  0  0  0  0  0  0  0  0  0  0  # atno 8009 bound_to 7997
  154.4371  140.1034  156.6152 H   0  0  0  0  0  0  0  0  0  0  0  0  # atno 8010 bound_to 7997
  140.3830  143.2739  151.9360 H   0  0  0  0  0  0  0  0  0  0  0  0  # atno 10167 bound_to 10162
  157.0639  130.6320  149.5791 H   0  0  0  0  0  0  0  0  0  0  0  0  # atno 10718 bound_to 10713
  153.3996  135.7004  153.6436 H   0  0  0  0  0  0  0  0  0  0  0  0  # atno 10763 bound_to 10752
  153.4975  135.3659  155.2523 H   0  0  0  0  0  0  0  0  0  0  0  0  # atno 10764 bound_to 10752
  154.8709  135.4104  154.3328 H   0  0  0  0  0  0  0  0  0  0  0  0  # atno 10765 bound_to 10752
  140.2807  134.7753  157.3755 H   0  0  0  0  0  0  0  0  0  0  0  0  # atno 11005 bound_to 11000
  144.8310  139.5628  143.6943 LP  0  0  0  0  0  0  0  0  0  0  0  0  # atno 17320 bound_to 7965
  146.2706  139.6625  142.9299 LP  0  0  0  0  0  0  0  0  0  0  0  0  # atno 17321 bound_to 7965
  139.4794  144.5800  151.7948 LP  0  0  0  0  0  0  0  0  0  0  0  0  # atno 17342 bound_to 10162
  140.4918  144.1300  150.5952 LP  0  0  0  0  0  0  0  0  0  0  0  0  # atno 17343 bound_to 10162
  155.9970  130.5041  150.7519 LP  0  0  0  0  0  0  0  0  0  0  0  0  # atno 17370 bound_to 10713
  157.4933  131.0912  151.0401 LP  0  0  0  0  0  0  0  0  0  0  0  0  # atno 17371 bound_to 10713
  140.1286  134.5125  155.8124 LP  0  0  0  0  0  0  0  0  0  0  0  0  # atno 17394 bound_to 11000
  141.2163  133.6782  156.6998 LP  0  0  0  0  0  0  0  0  0  0  0  0  # atno 17395 bound_to 11000

$$$$
