AV-unprocessed.smi:1056|AV-procd|sdf|4631|dock1
  -GOLD-   22720 3133D 1   1.00000     0.00000
 Structure written by MMmdl.
 45 47  0  0  0  0  0  0  0  0  2 V2000
  152.2305  144.0072  159.7000 C   0  0  0  0  0  0  0  0  0  0  0  0
  151.8726  142.8171  158.8273 C   0  0  0  0  0  0  0  0  0  0  0  0
  151.0421  143.0160  157.7013 C   0  0  0  0  0  0  0  0  0  0  0  0
  150.6891  141.9368  156.8621 C   0  0  0  0  0  0  0  0  0  0  0  0
  149.9028  141.9025  155.7233 N   0  0  0  0  0  0  0  0  0  0  0  0
  149.9548  140.6138  155.3996 C   0  0  0  0  0  0  0  0  0  0  0  0
  150.6805  139.8067  156.1979 N   0  0  0  0  0  0  0  0  0  0  0  0
  150.8819  138.3763  156.0537 C   0  0  0  0  0  0  0  0  0  0  0  0
  150.1526  137.8037  154.8233 C   0  0  1  0  0  0  0  0  0  0  0  0
  150.8298  136.6444  154.3755 O   0  0  0  0  0  0  0  0  0  0  0  0
  148.6906  137.4342  155.1408 C   0  0  0  0  0  0  0  0  0  0  0  0
  147.8059  137.5553  153.9543 N   0  3  2  0  0  0  0  0  0  0  0  0
  147.5763  138.9539  153.5199 C   0  0  0  0  0  0  0  0  0  0  0  0
  146.8413  138.9737  152.1682 C   0  0  0  0  0  0  0  0  0  0  0  0
  145.7437  138.0117  152.1014 N   0  0  0  0  0  0  0  0  0  0  0  0
  145.5460  136.9953  152.9568 C   0  0  0  0  0  0  0  0  0  0  0  0
  144.6029  136.2188  152.8316 O   0  0  0  0  0  0  0  0  0  0  0  0
  146.5307  136.8125  154.1222 C   0  0  0  0  0  0  0  0  0  0  0  0
  151.1918  140.6424  157.1844 C   0  0  0  0  0  0  0  0  0  0  0  0
  152.0180  140.4311  158.3021 C   0  0  0  0  0  0  0  0  0  0  0  0
  152.3633  141.5211  159.1285 C   0  0  0  0  0  0  0  0  0  0  0  0
  153.2601  141.2847  160.3309 C   0  0  0  0  0  0  0  0  0  0  0  0
  151.7263  144.9135  159.3633 H   0  0  0  0  0  0  0  0  0  0  0  0
  153.3048  144.1903  159.6715 H   0  0  0  0  0  0  0  0  0  0  0  0
  151.9365  143.8281  160.7343 H   0  0  0  0  0  0  0  0  0  0  0  0
  150.6692  144.0032  157.4711 H   0  0  0  0  0  0  0  0  0  0  0  0
  149.4313  140.2334  154.5347 H   0  0  0  0  0  0  0  0  0  0  0  0
  151.9529  138.1764  155.9949 H   0  0  0  0  0  0  0  0  0  0  0  0
  150.5241  137.8918  156.9630 H   0  0  0  0  0  0  0  0  0  0  0  0
  150.1887  138.5444  154.0248 H   0  0  0  0  0  0  0  0  0  0  0  0
  150.8187  136.6311  153.4302 H   0  0  0  0  0  0  0  0  0  0  0  0
  148.6655  136.4097  155.5166 H   0  0  0  0  0  0  0  0  0  0  0  0
  148.3000  138.0614  155.9438 H   0  0  0  0  0  0  0  0  0  0  0  0
  146.9833  139.4704  154.2765 H   0  0  0  0  0  0  0  0  0  0  0  0
  148.5136  139.5012  153.4278 H   0  0  0  0  0  0  0  0  0  0  0  0
  146.4598  139.9731  151.9578 H   0  0  0  0  0  0  0  0  0  0  0  0
  147.5412  138.7298  151.3681 H   0  0  0  0  0  0  0  0  0  0  0  0
  145.0867  138.1214  151.3418 H   0  0  0  0  0  0  0  0  0  0  0  0
  146.7455  135.7493  154.2385 H   0  0  0  0  0  0  0  0  0  0  0  0
  146.0365  137.1425  155.0370 H   0  0  0  0  0  0  0  0  0  0  0  0
  152.3849  139.4392  158.5199 H   0  0  0  0  0  0  0  0  0  0  0  0
  153.5590  140.2387  160.4051 H   0  0  0  0  0  0  0  0  0  0  0  0
  152.7421  141.5504  161.2524 H   0  0  0  0  0  0  0  0  0  0  0  0
  154.1659  141.8871  160.2564 H   0  0  0  0  0  0  0  0  0  0  0  0
  148.2918  137.0977  153.1960 H   0  0  0  0  0  0  0  0  0  0  0  0
  1  2  1  0  0  0  0
  1 23  1  0  0  0  0
  1 24  1  0  0  0  0
  1 25  1  0  0  0  0
  2 21  1  0  0  0  0
  2  3  2  0  0  0  0
  3  4  1  0  0  0  0
  3 26  1  0  0  0  0
  4 19  2  0  0  0  0
  4  5  1  0  0  0  0
  5  6  2  0  0  0  0
  6  7  1  0  0  0  0
  6 27  1  0  0  0  0
  7  8  1  0  0  0  0
  7 19  1  0  0  0  0
  8  9  1  0  0  0  0
  8 28  1  0  0  0  0
  8 29  1  0  0  0  0
  9 10  1  0  0  0  0
  9 11  1  0  0  0  0
  9 30  1  0  0  0  0
 10 31  1  0  0  0  0
 11 12  1  0  0  0  0
 11 32  1  0  0  0  0
 11 33  1  0  0  0  0
 12 18  1  0  0  0  0
 12 13  1  0  0  0  0
 12 45  1  0  0  0  0
 13 14  1  0  0  0  0
 13 34  1  0  0  0  0
 13 35  1  0  0  0  0
 14 15  1  0  0  0  0
 14 36  1  0  0  0  0
 14 37  1  0  0  0  0
 15 16  1  0  0  0  0
 15 38  1  0  0  0  0
 16 17  2  0  0  0  0
 16 18  1  0  0  0  0
 18 39  1  0  0  0  0
 18 40  1  0  0  0  0
 19 20  1  0  0  0  0
 20 21  2  0  0  0  0
 20 41  1  0  0  0  0
 21 22  1  0  0  0  0
 22 42  1  0  0  0  0
 22 43  1  0  0  0  0
 22 44  1  0  0  0  0
M  CHG  1  12   1
M  END
> <s_m_source_file>
AV-unprocessed.smi

> <i_m_source_file_index>
1056

> <i_lp_mmshare_version>
43012

> <i_f3d_flags>
0

> <s_epik_input>
W0NIM11jKFtjSF0xKWMoW0NIM10pW2NIXWMoYzEyKW4oW2NIXW4yKVtDSDJdW0NASF0oW09IXSlbQ0gyXU4zW0NIMl1bQ0gyXVtOSF1DKD1PKVtDSDJdMw==

> <s_epik_cmdline>
J2VwaWtfcHl0aG9uJywgJy1waCcsICc3LjAnLCAnLXRuJywgJzgnLCAnLW1hJywgJzIwMCcsICctbWV0YWxfYmluZGluZycsICctaW1hZScsICc8aW5maWxlLm1hZT4nLCAnLW9tYWUnLCAnPG91dGZpbGUubWFlPic=

> <r_epik_Ionization_Penalty>
0.153633

> <r_epik_Ionization_Penalty_Charging>
0.0674887

> <r_epik_Ionization_Penalty_Neutral>
0.0861443

> <r_epik_State_Penalty>
0.135155

> <r_epik_Charging_Adjusted_Penalty>
0.202644

> <i_epik_Tot_Q>
1

> <i_epik_Tot_abs_Q>
1

> <r_epik_Metal_State_Penalty>
0.190685

> <b_epik_Metal_Only>
0

> <s_lp_Force_Field>
OPLS_2005

> <r_lp_Energy>
24.3112

> <b_lp_Chiralities_Consistent>
1

> <s_lp_Variant>
AV-unprocessed.smi:1056-2

> <Gold.Version>
5.8.1

> <Gold.Id.Protein>
6NUR|6NUR_protein|mol2

> <Gold.PLP.Fitness>
52.1123

> <Gold.PLP.PLP>
-40.3097

> <Gold.PLP.part.hbond>
-4.5987

> <Gold.PLP.part.metal>
0.0000

> <Gold.PLP.part.buried>
-1.7502

> <Gold.PLP.part.nonpolar>
-35.1345

> <Gold.PLP.part.repulsive>
1.6835

> <Gold.PLP.ligand.clash>
0.0000

> <Gold.PLP.ligand.torsion>
0.7612

> <Gold.PLP.Chemscore.Hbond>
4.4300

> <Gold.PLP.Chemscore.CHOScore>
0.0000

> <Gold.PLP.Chemscore.Metal>
0.0000

> <Gold.Chemscore.Hbonds>
donor molecule, donor type, donor heavy atom, donor atom, acceptor molecule, acceptor atom, score
      L1  H    10    31       P1  7949  0.67
      L1  H    12    45       P1  7948  2.00
      L1  H    15    38       P1 10171  1.00
      P1  H 10752 10765       L1    10  0.14

> <Gold.PLP.Chemscore.Internal.Correction>
0.0349

> <Gold.Rescore>
     Score         DG    S(hbond)    S(metal)    S(lipo)     H(rot)  DE(clash)    DE(int)     intcor
     17.59     -18.46       2.24        0.00      99.11       2.38       0.23       0.64       ----

> <Gold.Chemscore.Fitness>
17.5909

> <Gold.Chemscore.DG>
-18.4587

> <Gold.Chemscore.ZeroCoef>
-5.4800

> <Gold.Chemscore.Hbond>
2.2368

> <Gold.Chemscore.Metal>
0.0000

> <Gold.Chemscore.Lipo>
99.1128

> <Gold.Chemscore.Internal_Hbond>
0.0000

> <Gold.Chemscore.DEClash>
0.2280

> <Gold.Chemscore.DEInternal>
0.6398

> <Gold.Chemscore.Rot>
2.3783

> <Gold.Chemscore.Internal.Correction>
   9.000000E+99

> <Gold.Chemscore.Hbonds>
donor molecule, donor type, donor heavy atom, donor atom, acceptor molecule, acceptor atom, score
      L1  H    10    31       P1  7949  0.08
      L1  H    12    45       P1  7948  1.00
      L1  H    15    38       P1 10171  0.95
      P1  H 10752 10765       L1    10  0.01

> <Gold.Chemscore.Hbond.Weighted>
-7.4708

> <Gold.Chemscore.Metal.Weighted>
-0.0000

> <Gold.Chemscore.Lipo.Weighted>
-11.5962

> <Gold.Chemscore.Internal_Hbond.Weighted>
0.0000

> <Gold.Chemscore.DEClash.Weighted>
0.2280

> <Gold.Chemscore.DEInternal.Weighted>
0.6398

> <Gold.Chemscore.Rot.Weighted>
6.0884

> <Gold.Chemscore.Internal.Correction.Weighted>
   9.000000E+99

> <Gold.Protein.RotatedTorsions>
[ 6907 6896 6895 6894 ] final   75.36 input  -60.11 | X-H torsion
[ 7974 7965 7964 7962 ] final   87.11 input  175.53 | X-H torsion
[ 8008 7997 7996 7995 ] final    2.48 input   59.86 | X-H torsion
[ 10167 10162 10161 10158 ] final  -79.89 input  -65.29 | X-H torsion
[ 10718 10713 10712 10709 ] final   35.86 input   66.30 | X-H torsion
[ 10763 10752 10751 10750 ] final  166.26 input  -60.55 | X-H torsion
[ 11005 11000 10999 10996 ] final  146.57 input  -57.11 | X-H torsion

> <Gold.Protein.ActiveResidues>
 VAL166  LYS551  ARG553  GLY616  TRP617  ASP618  TYR619  PRO620  LYS621  CYS622 
 ASP623  PHE694  ASN695  SER759  ASP760  ASP761  ALA762  ILE779  LEU786  VAL792 
 PHE793  MET794  SER795  GLU796  ALA797  LYS798  CYS799  TRP800  GLU811  SER814 

> <Gold.Protein.RotatedAtoms>
  152.5022  134.4131  159.9455 H   0  0  0  0  0  0  0  0  0  0  0  0  # atno 6907 bound_to 6896
  151.4100  133.3724  159.2750 H   0  0  0  0  0  0  0  0  0  0  0  0  # atno 6908 bound_to 6896
  150.9298  134.8735  159.7603 H   0  0  0  0  0  0  0  0  0  0  0  0  # atno 6909 bound_to 6896
  145.5633  139.2306  143.2447 H   0  0  0  0  0  0  0  0  0  0  0  0  # atno 7974 bound_to 7965
  154.6921  140.2655  155.6802 H   0  0  0  0  0  0  0  0  0  0  0  0  # atno 8008 bound_to 7997
  156.2735  140.2789  156.1426 H   0  0  0  0  0  0  0  0  0  0  0  0  # atno 8009 bound_to 7997
  155.0882  140.0373  157.2650 H   0  0  0  0  0  0  0  0  0  0  0  0  # atno 8010 bound_to 7997
  140.4552  143.2470  151.8430 H   0  0  0  0  0  0  0  0  0  0  0  0  # atno 10167 bound_to 10162
  157.3278  130.7482  149.6827 H   0  0  0  0  0  0  0  0  0  0  0  0  # atno 10718 bound_to 10713
  154.3364  135.2754  155.2445 H   0  0  0  0  0  0  0  0  0  0  0  0  # atno 10763 bound_to 10752
  154.4735  135.5877  153.6342 H   0  0  0  0  0  0  0  0  0  0  0  0  # atno 10764 bound_to 10752
  152.9861  135.6094  154.3561 H   0  0  0  0  0  0  0  0  0  0  0  0  # atno 10765 bound_to 10752
  140.0804  134.9100  157.1491 H   0  0  0  0  0  0  0  0  0  0  0  0  # atno 11005 bound_to 11000
  146.1835  140.6459  142.9178 LP  0  0  0  0  0  0  0  0  0  0  0  0  # atno 17320 bound_to 7965
  144.7472  140.5099  143.6827 LP  0  0  0  0  0  0  0  0  0  0  0  0  # atno 17321 bound_to 7965
  139.4800  144.5073  151.8980 LP  0  0  0  0  0  0  0  0  0  0  0  0  # atno 17342 bound_to 10162
  140.4159  144.2307  150.5888 LP  0  0  0  0  0  0  0  0  0  0  0  0  # atno 17343 bound_to 10162
  155.9692  130.4204  150.4420 LP  0  0  0  0  0  0  0  0  0  0  0  0  # atno 17370 bound_to 10713
  157.2447  131.0533  151.2415 LP  0  0  0  0  0  0  0  0  0  0  0  0  # atno 17371 bound_to 10713
  140.3496  134.2613  155.7200 LP  0  0  0  0  0  0  0  0  0  0  0  0  # atno 17394 bound_to 11000
  141.2044  133.7886  157.0286 LP  0  0  0  0  0  0  0  0  0  0  0  0  # atno 17395 bound_to 11000

$$$$
