AV-unprocessed.smi:196|AV-procd|sdf|1536|dock2
  -GOLD-   2262019393D 1   1.00000     0.00000
 Structure written by MMmdl.
 47 50  0  0  0  0  0  0  0  0  1 V2000
  151.4338  137.3001  157.6562 C   0  0  0  0  0  0  0  0  0  0  0  0
  151.5542  137.5871  156.1512 C   0  0  2  0  0  0  0  0  0  0  0  0
  151.3559  138.9858  155.9596 O   0  0  0  0  0  0  0  0  0  0  0  0
  150.7737  139.1968  154.6857 C   0  0  0  0  0  0  0  0  0  0  0  0
  149.7742  138.0547  154.5904 C   0  0  0  0  0  0  0  0  0  0  0  0
  150.5276  136.8845  155.2174 C   0  0  1  0  0  0  0  0  0  0  0  0
  151.2586  136.2375  154.1887 O   0  0  0  0  0  0  0  0  0  0  0  0
  149.5995  135.8317  155.8783 C   0  0  0  0  0  0  0  0  0  0  0  0
  148.5181  135.3867  155.0116 N   0  0  0  0  0  0  0  0  0  0  0  0
  147.3765  136.0852  154.6964 C   0  0  0  0  0  0  0  0  0  0  0  0
  146.5544  135.4686  153.8938 N   0  0  0  0  0  0  0  0  0  0  0  0
  147.1749  134.2539  153.6184 C   0  0  0  0  0  0  0  0  0  0  0  0
  146.8487  133.1125  152.8222 C   0  0  0  0  0  0  0  0  0  0  0  0
  145.7212  132.9688  152.0710 N   0  0  0  0  0  0  0  0  0  0  0  0
  145.5383  131.8577  151.1408 C   0  0  0  0  0  0  0  0  0  0  0  0
  144.1944  132.1099  150.4549 C   0  0  2  0  0  0  0  0  0  0  0  0
  144.3882  132.7628  149.3079 F   0  0  0  0  0  0  0  0  0  0  0  0
  143.4525  133.0051  151.4478 C   0  0  0  0  0  0  0  0  0  0  0  0
  144.5516  133.8469  152.1213 C   0  0  2  0  0  0  0  0  0  0  0  0
  144.7826  135.1831  151.3903 C   0  0  0  0  0  0  0  0  0  0  0  0
  143.7654  136.0477  151.3891 N   0  0  0  0  0  0  0  0  0  0  0  0
  145.8514  135.4350  150.8360 O   0  0  0  0  0  0  0  0  0  0  0  0
  147.7436  132.0885  152.8215 N   0  0  0  0  0  0  0  0  0  0  0  0
  148.8735  132.1648  153.5282 C   0  0  0  0  0  0  0  0  0  0  0  0
  149.3056  133.1601  154.3019 N   0  0  0  0  0  0  0  0  0  0  0  0
  148.4155  134.1921  154.3198 C   0  0  0  0  0  0  0  0  0  0  0  0
  143.6564  131.1918  150.2173 H   0  0  0  0  0  0  0  0  0  0  0  0
  144.2590  134.0399  153.1537 H   0  0  0  0  0  0  0  0  0  0  0  0
  151.5883  136.2434  157.8742 H   0  0  0  0  0  0  0  0  0  0  0  0
  150.4567  137.5909  158.0430 H   0  0  0  0  0  0  0  0  0  0  0  0
  152.1841  137.8602  158.2145 H   0  0  0  0  0  0  0  0  0  0  0  0
  152.5740  137.3542  155.8388 H   0  0  0  0  0  0  0  0  0  0  0  0
  150.3032  140.1776  154.6145 H   0  0  0  0  0  0  0  0  0  0  0  0
  151.5382  139.1194  153.9111 H   0  0  0  0  0  0  0  0  0  0  0  0
  148.9017  138.3058  155.1945 H   0  0  0  0  0  0  0  0  0  0  0  0
  149.4299  137.8657  153.5726 H   0  0  0  0  0  0  0  0  0  0  0  0
  150.9973  136.6065  153.3588 H   0  0  0  0  0  0  0  0  0  0  0  0
  150.1735  134.9549  156.1805 H   0  0  0  0  0  0  0  0  0  0  0  0
  149.1505  136.2340  156.7865 H   0  0  0  0  0  0  0  0  0  0  0  0
  147.1691  137.0705  155.0880 H   0  0  0  0  0  0  0  0  0  0  0  0
  146.3499  131.7880  150.4150 H   0  0  0  0  0  0  0  0  0  0  0  0
  145.5053  130.9256  151.7067 H   0  0  0  0  0  0  0  0  0  0  0  0
  142.6700  133.5999  150.9740 H   0  0  0  0  0  0  0  0  0  0  0  0
  142.9692  132.3805  152.2003 H   0  0  0  0  0  0  0  0  0  0  0  0
  143.8593  136.9371  150.9209 H   0  0  0  0  0  0  0  0  0  0  0  0
  142.9025  135.8050  151.8539 H   0  0  0  0  0  0  0  0  0  0  0  0
  149.5249  131.3057  153.4630 H   0  0  0  0  0  0  0  0  0  0  0  0
  1  2  1  0  0  0  0
  1 29  1  0  0  0  0
  1 30  1  0  0  0  0
  1 31  1  0  0  0  0
  2  6  1  0  0  0  0
  2  3  1  0  0  0  0
  2 32  1  0  0  0  0
  3  4  1  0  0  0  0
  4  5  1  0  0  0  0
  4 33  1  0  0  0  0
  4 34  1  0  0  0  0
  5  6  1  0  0  0  0
  5 35  1  0  0  0  0
  5 36  1  0  0  0  0
  6  7  1  0  0  0  0
  6  8  1  0  0  0  0
  7 37  1  0  0  0  0
  8  9  1  0  0  0  0
  8 38  1  0  0  0  0
  8 39  1  0  0  0  0
  9 26  1  0  0  0  0
  9 10  1  0  0  0  0
 10 11  2  0  0  0  0
 10 40  1  0  0  0  0
 11 12  1  0  0  0  0
 12 26  2  0  0  0  0
 12 13  1  0  0  0  0
 13 14  1  0  0  0  0
 13 23  2  0  0  0  0
 14 19  1  0  0  0  0
 14 15  1  0  0  0  0
 15 16  1  0  0  0  0
 15 41  1  0  0  0  0
 15 42  1  0  0  0  0
 16 27  1  0  0  0  0
 16 17  1  0  0  0  0
 16 18  1  0  0  0  0
 18 19  1  0  0  0  0
 18 43  1  0  0  0  0
 18 44  1  0  0  0  0
 19 28  1  0  0  0  0
 19 20  1  0  0  0  0
 20 21  1  0  0  0  0
 20 22  2  0  0  0  0
 21 45  1  0  0  0  0
 21 46  1  0  0  0  0
 23 24  1  0  0  0  0
 24 25  2  0  0  0  0
 24 47  1  0  0  0  0
 25 26  1  0  0  0  0
M  END
> <s_m_source_file>
AV-unprocessed.smi

> <i_m_source_file_index>
196

> <i_lp_mmshare_version>
43012

> <i_f3d_flags>
0

> <s_epik_input>
W0NIMl0xW0NIMl1PW0NAQEhdKFtDSDNdKVtDQEBdMShbT0hdKVtDSDJdbihbY0hdbjIpYyhjMjMpbltjSF1uYzNONFtDSDJdW0NASF0oRilbQ0gyXVtDQEhdNEMoPU8pW05IMl0=

> <s_epik_cmdline>
J2VwaWtfcHl0aG9uJywgJy1waCcsICc3LjAnLCAnLXRuJywgJzgnLCAnLW1hJywgJzIwMCcsICctbWV0YWxfYmluZGluZycsICctaW1hZScsICc8aW5maWxlLm1hZT4nLCAnLW9tYWUnLCAnPG91dGZpbGUubWFlPic=

> <r_lp_tautomer_probability>
1

> <r_epik_Ionization_Penalty>
0.000857933

> <r_epik_Ionization_Penalty_Charging>
0

> <r_epik_Ionization_Penalty_Neutral>
0.000857933

> <r_epik_State_Penalty>
0.000462053

> <r_epik_Charging_Adjusted_Penalty>
0.000462053

> <i_epik_Tot_Q>
0

> <i_epik_Tot_abs_Q>
0

> <r_epik_Metal_State_Penalty>
-0

> <b_epik_Metal_Only>
0

> <s_lp_Force_Field>
OPLS_2005

> <r_lp_Energy>
42.9342

> <b_lp_Chiralities_Consistent>
1

> <s_lp_Variant>
AV-unprocessed.smi:196-9

> <Gold.Version>
5.8.1

> <Gold.Id.Protein>
6NUR|6NUR_protein|mol2

> <Gold.PLP.Fitness>
44.9806

> <Gold.PLP.PLP>
-37.4362

> <Gold.PLP.part.hbond>
-3.2343

> <Gold.PLP.part.metal>
0.0000

> <Gold.PLP.part.buried>
-4.7123

> <Gold.PLP.part.nonpolar>
-29.6498

> <Gold.PLP.part.repulsive>
0.6028

> <Gold.PLP.ligand.clash>
0.0000

> <Gold.PLP.ligand.torsion>
0.3373

> <Gold.PLP.Chemscore.Hbond>
2.7296

> <Gold.PLP.Chemscore.CHOScore>
0.0000

> <Gold.PLP.Chemscore.Metal>
0.0000

> <Gold.Chemscore.Hbonds>
donor molecule, donor type, donor heavy atom, donor atom, acceptor molecule, acceptor atom, score
      L1  H     7    37       P1  7949  0.66
      L1  H    21    45       P1 10171  1.00
      P1  H 10752 10764       L1     7  1.00

> <Gold.PLP.Chemscore.Internal.Correction>
0.0302

> <Gold.Rescore>
     Score         DG    S(hbond)    S(metal)    S(lipo)     H(rot)  DE(clash)    DE(int)     intcor
     12.57     -12.94       2.04        0.00      62.40       2.60       0.14       0.23       ----

> <Gold.Chemscore.Fitness>
12.5700

> <Gold.Chemscore.DG>
-12.9401

> <Gold.Chemscore.ZeroCoef>
-5.4800

> <Gold.Chemscore.Hbond>
2.0381

> <Gold.Chemscore.Metal>
0.0000

> <Gold.Chemscore.Lipo>
62.3975

> <Gold.Chemscore.Internal_Hbond>
0.0000

> <Gold.Chemscore.DEClash>
0.1415

> <Gold.Chemscore.DEInternal>
0.2286

> <Gold.Chemscore.Rot>
2.5968

> <Gold.Chemscore.Internal.Correction>
   9.000000E+99

> <Gold.Chemscore.Hbonds>
donor molecule, donor type, donor heavy atom, donor atom, acceptor molecule, acceptor atom, score
      L1  H     7    37       P1  7949  0.17
      L1  H    21    45       P1 10171  0.98
      P1  H 10752 10764       L1     7  0.69

> <Gold.Chemscore.Hbond.Weighted>
-6.8073

> <Gold.Chemscore.Metal.Weighted>
-0.0000

> <Gold.Chemscore.Lipo.Weighted>
-7.3005

> <Gold.Chemscore.Internal_Hbond.Weighted>
0.0000

> <Gold.Chemscore.DEClash.Weighted>
0.1415

> <Gold.Chemscore.DEInternal.Weighted>
0.2286

> <Gold.Chemscore.Rot.Weighted>
6.6477

> <Gold.Chemscore.Internal.Correction.Weighted>
   9.000000E+99

> <Gold.Protein.RotatedTorsions>
[ 6907 6896 6895 6894 ] final -159.54 input  -60.11 | X-H torsion
[ 7974 7965 7964 7962 ] final   99.04 input  175.53 | X-H torsion
[ 8008 7997 7996 7995 ] final   70.67 input   59.86 | X-H torsion
[ 10167 10162 10161 10158 ] final  106.26 input  -65.29 | X-H torsion
[ 10718 10713 10712 10709 ] final  154.44 input   66.30 | X-H torsion
[ 10763 10752 10751 10750 ] final  -90.92 input  -60.55 | X-H torsion
[ 11005 11000 10999 10996 ] final   93.27 input  -57.11 | X-H torsion

> <Gold.Protein.ActiveResidues>
 VAL166  LYS551  ARG553  GLY616  TRP617  ASP618  TYR619  PRO620  LYS621  CYS622 
 ASP623  PHE694  ASN695  SER759  ASP760  ASP761  ALA762  ILE779  LEU786  VAL792 
 PHE793  MET794  SER795  GLU796  ALA797  LYS798  CYS799  TRP800  GLU811  SER814 

> <Gold.Protein.RotatedAtoms>
  151.3351  133.3984  159.2665 H   0  0  0  0  0  0  0  0  0  0  0  0  # atno 6907 bound_to 6896
  150.9923  134.9256  159.7917 H   0  0  0  0  0  0  0  0  0  0  0  0  # atno 6908 bound_to 6896
  152.5251  134.3316  159.9237 H   0  0  0  0  0  0  0  0  0  0  0  0  # atno 6909 bound_to 6896
  145.4042  139.2343  143.3284 H   0  0  0  0  0  0  0  0  0  0  0  0  # atno 7974 bound_to 7965
  155.7423  140.3490  155.5110 H   0  0  0  0  0  0  0  0  0  0  0  0  # atno 8008 bound_to 7997
  155.9083  140.1046  157.1320 H   0  0  0  0  0  0  0  0  0  0  0  0  # atno 8009 bound_to 7997
  154.4052  140.1273  156.4511 H   0  0  0  0  0  0  0  0  0  0  0  0  # atno 8010 bound_to 7997
  139.7024  144.7092  151.1164 H   0  0  0  0  0  0  0  0  0  0  0  0  # atno 10167 bound_to 10162
  157.2315  131.0740  151.1850 H   0  0  0  0  0  0  0  0  0  0  0  0  # atno 10718 bound_to 10713
  154.6707  135.5287  153.8135 H   0  0  0  0  0  0  0  0  0  0  0  0  # atno 10763 bound_to 10752
  153.0499  135.6528  154.0729 H   0  0  0  0  0  0  0  0  0  0  0  0  # atno 10764 bound_to 10752
  154.0628  135.2960  155.3301 H   0  0  0  0  0  0  0  0  0  0  0  0  # atno 10765 bound_to 10752
  139.8812  134.8780  156.3694 H   0  0  0  0  0  0  0  0  0  0  0  0  # atno 11005 bound_to 11000
  146.2737  140.4743  142.8804 LP  0  0  0  0  0  0  0  0  0  0  0  0  # atno 17320 bound_to 7965
  144.8353  140.6772  143.6264 LP  0  0  0  0  0  0  0  0  0  0  0  0  # atno 17321 bound_to 7965
  140.7713  143.5406  150.9317 LP  0  0  0  0  0  0  0  0  0  0  0  0  # atno 17342 bound_to 10162
  139.9088  143.6745  152.3119 LP  0  0  0  0  0  0  0  0  0  0  0  0  # atno 17343 bound_to 10162
  157.3473  130.7064  149.6418 LP  0  0  0  0  0  0  0  0  0  0  0  0  # atno 17370 bound_to 10713
  155.9675  130.4263  150.4691 LP  0  0  0  0  0  0  0  0  0  0  0  0  # atno 17371 bound_to 10713
  140.9475  133.7473  156.0227 LP  0  0  0  0  0  0  0  0  0  0  0  0  # atno 17394 bound_to 11000
  140.8146  134.3360  157.5401 LP  0  0  0  0  0  0  0  0  0  0  0  0  # atno 17395 bound_to 11000

$$$$
