AV-unprocessed.smi:157|AV-procd|sdf|1309|dock1
  -GOLD-   2262019 03D 1   1.00000     0.00000
 Structure written by MMmdl.
 36 38  0  0  0  0  0  0  0  0  2 V2000
  147.9421  138.4447  152.1311 O   0  0  0  0  0  0  0  0  0  0  0  0
  147.0528  138.7818  153.1740 C   0  0  0  0  0  0  0  0  0  0  0  0
  145.7627  137.9589  153.0449 C   0  0  1  0  0  0  0  0  0  0  0  0
  146.0616  136.5705  153.1611 O   0  0  0  0  0  0  0  0  0  0  0  0
  144.9507  135.8774  153.6498 C   0  0  2  0  0  0  0  0  0  0  0  0
  144.3770  135.0453  152.5464 N   0  0  0  0  0  0  0  0  0  0  0  0
  143.1550  135.1725  151.9855 C   0  0  0  0  0  0  0  0  0  0  0  0
  142.9009  134.2962  151.0286 N   0  3  0  0  0  0  0  0  0  0  0  0
  144.0238  133.5042  150.9152 C   0  0  0  0  0  0  0  0  0  0  0  0
  144.9243  133.9781  151.8726 C   0  0  0  0  0  0  0  0  0  0  0  0
  146.2140  133.5290  152.1953 N   0  0  0  0  0  0  0  0  0  0  0  0
  146.6785  132.3842  151.8119 C   0  0  0  0  0  0  0  0  0  0  0  0
  146.0994  131.4394  150.9809 N   0  0  0  0  0  0  0  0  0  0  0  0
  145.4547  131.7739  149.7234 C   0  0  0  0  0  0  0  0  0  0  0  0
  144.0703  132.4127  149.8925 C   0  0  1  0  0  0  0  0  0  0  0  0
  143.1295  131.3900  150.1471 O   0  0  0  0  0  0  0  0  0  0  0  0
  143.9258  136.9213  154.1046 C   0  0  0  0  0  0  0  0  0  0  0  0
  144.7763  138.1724  154.1941 C   0  0  2  0  0  0  0  0  0  0  0  0
  143.9899  139.3337  154.0242 O   0  0  0  0  0  0  0  0  0  0  0  0
  145.2647  138.1479  152.0916 H   0  0  0  0  0  0  0  0  0  0  0  0
  145.2486  135.1704  154.4250 H   0  0  0  0  0  0  0  0  0  0  0  0
  143.7881  132.8475  148.9330 H   0  0  0  0  0  0  0  0  0  0  0  0
  145.2984  138.2058  155.1517 H   0  0  0  0  0  0  0  0  0  0  0  0
  148.4786  137.7209  152.4166 H   0  0  0  0  0  0  0  0  0  0  0  0
  147.5269  138.6292  154.1439 H   0  0  0  0  0  0  0  0  0  0  0  0
  146.8310  139.8456  153.0850 H   0  0  0  0  0  0  0  0  0  0  0  0
  142.4501  135.9252  152.2900 H   0  0  0  0  0  0  0  0  0  0  0  0
  147.6651  132.0732  152.1583 H   0  0  0  0  0  0  0  0  0  0  0  0
  146.4929  130.5093  150.9582 H   0  0  0  0  0  0  0  0  0  0  0  0
  146.1062  132.4741  149.1982 H   0  0  0  0  0  0  0  0  0  0  0  0
  145.3962  130.8851  149.0942 H   0  0  0  0  0  0  0  0  0  0  0  0
  142.2662  131.7724  150.1803 H   0  0  0  0  0  0  0  0  0  0  0  0
  143.1457  137.0310  153.3484 H   0  0  0  0  0  0  0  0  0  0  0  0
  143.4644  136.6361  155.0505 H   0  0  0  0  0  0  0  0  0  0  0  0
  144.3344  139.8302  153.2976 H   0  0  0  0  0  0  0  0  0  0  0  0
  142.0499  134.2305  150.4846 H   0  0  0  0  0  0  0  0  0  0  0  0
  1  2  1  0  0  0  0
  1 24  1  0  0  0  0
  2  3  1  0  0  0  0
  2 25  1  0  0  0  0
  2 26  1  0  0  0  0
  3 20  1  0  0  0  0
  3 18  1  0  0  0  0
  3  4  1  0  0  0  0
  4  5  1  0  0  0  0
  5 21  1  0  0  0  0
  5  6  1  0  0  0  0
  5 17  1  0  0  0  0
  6 10  1  0  0  0  0
  6  7  1  0  0  0  0
  7  8  2  0  0  0  0
  7 27  1  0  0  0  0
  8  9  1  0  0  0  0
  8 36  1  0  0  0  0
  9 15  1  0  0  0  0
  9 10  2  0  0  0  0
 10 11  1  0  0  0  0
 11 12  2  0  0  0  0
 12 13  1  0  0  0  0
 12 28  1  0  0  0  0
 13 14  1  0  0  0  0
 13 29  1  0  0  0  0
 14 15  1  0  0  0  0
 14 30  1  0  0  0  0
 14 31  1  0  0  0  0
 15 22  1  0  0  0  0
 15 16  1  0  0  0  0
 16 32  1  0  0  0  0
 17 18  1  0  0  0  0
 17 33  1  0  0  0  0
 17 34  1  0  0  0  0
 18 23  1  0  0  0  0
 18 19  1  0  0  0  0
 19 35  1  0  0  0  0
M  CHG  1   8   1
M  END
> <s_m_source_file>
AV-unprocessed.smi

> <i_m_source_file_index>
157

> <i_lp_mmshare_version>
43012

> <i_f3d_flags>
0

> <s_epik_input>
W09IXVtDSDJdW0NASF0xT1tDQEhdKFtDSDJdW0NAQEhdMVtPSF0pbihbY0hdbjIpYyhjMjMpTj1bQ0hdW05IXVtDSDJdW0NASF0zW09IXQ==

> <s_epik_cmdline>
J2VwaWtfcHl0aG9uJywgJy1waCcsICc3LjAnLCAnLXRuJywgJzgnLCAnLW1hJywgJzIwMCcsICctbWV0YWxfYmluZGluZycsICctaW1hZScsICc8aW5maWxlLm1hZT4nLCAnLW9tYWUnLCAnPG91dGZpbGUubWFlPic=

> <r_epik_Ionization_Penalty>
1.68594

> <r_epik_Ionization_Penalty_Charging>
0

> <r_epik_Ionization_Penalty_Neutral>
1.68594

> <r_epik_State_Penalty>
1.79006

> <r_epik_Charging_Adjusted_Penalty>
1.79006

> <i_epik_Tot_Q>
1

> <i_epik_Tot_abs_Q>
1

> <r_epik_Metal_State_Penalty>
5.85324

> <b_epik_Metal_Only>
0

> <s_epik_Chemistry_Notes>
This compound has an imine and may undergo hydrolysis. This compound contains an acetal/aminal-like group ( X-CH(R)-Y where X, Y are N, S, or O) that may be acid/base labile, releasing an aldehyde.

> <s_lp_Force_Field>
OPLS_2005

> <r_lp_Energy>
51.4634

> <b_lp_Chiralities_Consistent>
1

> <s_lp_Variant>
AV-unprocessed.smi:157-19

> <Gold.Version>
5.8.1

> <Gold.Id.Protein>
6NUR|6NUR_protein|mol2

> <Gold.PLP.Fitness>
45.8581

> <Gold.PLP.PLP>
-26.8553

> <Gold.PLP.part.hbond>
-6.9830

> <Gold.PLP.part.metal>
0.0000

> <Gold.PLP.part.buried>
-2.2557

> <Gold.PLP.part.nonpolar>
-18.0446

> <Gold.PLP.part.repulsive>
1.0384

> <Gold.PLP.ligand.clash>
0.0000

> <Gold.PLP.ligand.torsion>
0.0277

> <Gold.PLP.Chemscore.Hbond>
5.5679

> <Gold.PLP.Chemscore.CHOScore>
0.7785

> <Gold.PLP.Chemscore.Metal>
0.0000

> <Gold.Chemscore.Hbonds>
donor molecule, donor type, donor heavy atom, donor atom, acceptor molecule, acceptor atom, score
      L1  H     1    24       P1  7948  0.75
      L1  H     8    36       P1 10186  1.37
      L1  H    16    32       P1 10952  0.18
      L1  H    19    35       P1 10175  0.12
      P1  H  7954  7966       L1     1  0.17
      P1  H 10785 10796       L1    16  1.00
      L1  C    12    28       P1 10747  0.53

> <Gold.PLP.Chemscore.Internal.Correction>
0.0189

> <Gold.Rescore>
     Score         DG    S(hbond)    S(metal)    S(lipo)     H(rot)  DE(clash)    DE(int)     intcor
     11.15     -13.08       3.50        0.00      45.24       3.67       1.34       0.60       ----

> <Gold.Chemscore.Fitness>
11.1451

> <Gold.Chemscore.DG>
-13.0837

> <Gold.Chemscore.ZeroCoef>
-5.4800

> <Gold.Chemscore.Hbond>
3.5017

> <Gold.Chemscore.Metal>
0.0000

> <Gold.Chemscore.Lipo>
45.2377

> <Gold.Chemscore.Internal_Hbond>
0.0000

> <Gold.Chemscore.DEClash>
1.3408

> <Gold.Chemscore.DEInternal>
0.5978

> <Gold.Chemscore.Rot>
3.6659

> <Gold.Chemscore.Internal.Correction>
   9.000000E+99

> <Gold.Chemscore.Hbonds>
donor molecule, donor type, donor heavy atom, donor atom, acceptor molecule, acceptor atom, score
      L1  H     1    24       P1  7948  0.75
      L1  H     8    36       P1 10186  0.27
      L1  H    16    32       P1 10952  0.14
      L1  H    19    35       P1 10175  0.12
      P1  H  7954  7966       L1     1  0.01
      P1  H 10785 10796       L1    16  0.48

> <Gold.Chemscore.Hbond.Weighted>
-11.6957

> <Gold.Chemscore.Metal.Weighted>
-0.0000

> <Gold.Chemscore.Lipo.Weighted>
-5.2928

> <Gold.Chemscore.Internal_Hbond.Weighted>
0.0000

> <Gold.Chemscore.DEClash.Weighted>
1.3408

> <Gold.Chemscore.DEInternal.Weighted>
0.5978

> <Gold.Chemscore.Rot.Weighted>
9.3848

> <Gold.Chemscore.Internal.Correction.Weighted>
   9.000000E+99

> <Gold.Protein.RotatedTorsions>
[ 6907 6896 6895 6894 ] final    8.24 input  -60.11 | X-H torsion
[ 7974 7965 7964 7962 ] final   89.29 input  175.53 | X-H torsion
[ 8008 7997 7996 7995 ] final -156.29 input   59.86 | X-H torsion
[ 10167 10162 10161 10158 ] final   59.48 input  -65.29 | X-H torsion
[ 10718 10713 10712 10709 ] final  -58.85 input   66.30 | X-H torsion
[ 10763 10752 10751 10750 ] final   -8.63 input  -60.55 | X-H torsion
[ 11005 11000 10999 10996 ] final -111.76 input  -57.11 | X-H torsion

> <Gold.Protein.ActiveResidues>
 VAL166  LYS551  ARG553  GLY616  TRP617  ASP618  TYR619  PRO620  LYS621  CYS622 
 ASP623  PHE694  ASN695  SER759  ASP760  ASP761  ALA762  ILE779  LEU786  VAL792 
 PHE793  MET794  SER795  GLU796  ALA797  LYS798  CYS799  TRP800  GLU811  SER814 

> <Gold.Protein.RotatedAtoms>
  151.7029  135.0927  160.0253 H   0  0  0  0  0  0  0  0  0  0  0  0  # atno 6907 bound_to 6896
  152.3709  133.6414  159.6095 H   0  0  0  0  0  0  0  0  0  0  0  0  # atno 6908 bound_to 6896
  150.7673  133.9187  159.3433 H   0  0  0  0  0  0  0  0  0  0  0  0  # atno 6909 bound_to 6896
  145.5343  139.2285  143.2601 H   0  0  0  0  0  0  0  0  0  0  0  0  # atno 7974 bound_to 7965
  155.7150  140.0783  157.2355 H   0  0  0  0  0  0  0  0  0  0  0  0  # atno 8008 bound_to 7997
  154.4053  140.1623  156.2392 H   0  0  0  0  0  0  0  0  0  0  0  0  # atno 8009 bound_to 7997
  155.9248  140.3395  155.6205 H   0  0  0  0  0  0  0  0  0  0  0  0  # atno 8010 bound_to 7997
  140.1760  144.4229  150.6638 H   0  0  0  0  0  0  0  0  0  0  0  0  # atno 10167 bound_to 10162
  156.1105  130.4175  150.0633 H   0  0  0  0  0  0  0  0  0  0  0  0  # atno 10718 bound_to 10713
  153.4432  135.7014  153.6155 H   0  0  0  0  0  0  0  0  0  0  0  0  # atno 10763 bound_to 10752
  153.4521  135.3755  155.2290 H   0  0  0  0  0  0  0  0  0  0  0  0  # atno 10764 bound_to 10752
  154.8728  135.3999  154.3834 H   0  0  0  0  0  0  0  0  0  0  0  0  # atno 10765 bound_to 10752
  141.0715  133.9371  157.2475 H   0  0  0  0  0  0  0  0  0  0  0  0  # atno 11005 bound_to 11000
  146.2024  140.6160  142.9096 LP  0  0  0  0  0  0  0  0  0  0  0  0  # atno 17320 bound_to 7965
  144.7610  140.5421  143.6736 LP  0  0  0  0  0  0  0  0  0  0  0  0  # atno 17321 bound_to 7965
  140.6551  143.2235  151.5987 LP  0  0  0  0  0  0  0  0  0  0  0  0  # atno 17342 bound_to 10162
  139.5317  144.2897  152.1162 LP  0  0  0  0  0  0  0  0  0  0  0  0  # atno 17343 bound_to 10162
  156.8598  130.9488  151.3619 LP  0  0  0  0  0  0  0  0  0  0  0  0  # atno 17370 bound_to 10713
  157.6286  130.8711  149.9233 LP  0  0  0  0  0  0  0  0  0  0  0  0  # atno 17371 bound_to 10713
  139.9528  135.0172  156.9044 LP  0  0  0  0  0  0  0  0  0  0  0  0  # atno 17394 bound_to 11000
  140.5663  134.0487  155.7415 LP  0  0  0  0  0  0  0  0  0  0  0  0  # atno 17395 bound_to 11000

$$$$
