AV-unprocessed.smi:249|AV-procd|sdf|1918|dock7
  -GOLD-   2262021 23D 1   1.00000     0.00000
 Structure written by MMmdl.
 64 67  0  0  0  0  0  0  0  0  2 V2000
  144.2382  131.8615  150.5922 C   0  0  0  0  0  0  0  0  0  0  0  0
  144.8214  133.2323  150.2216 C   0  0  0  0  0  0  0  0  0  0  0  0
  145.0155  134.1025  151.4101 N   0  3  2  0  0  0  0  0  0  0  0  0
  145.3995  135.4995  151.0708 C   0  0  0  0  0  0  0  0  0  0  0  0
  145.3743  136.3945  152.3193 C   0  0  0  0  0  0  0  0  0  0  0  0
  146.2963  135.8378  153.4230 C   0  0  1  0  0  0  0  0  0  0  0  0
  146.3671  136.6850  154.6210 N   0  0  0  0  0  0  0  0  0  0  0  0
  145.1692  136.7867  155.4459 C   0  0  0  0  0  0  0  0  0  0  0  0
  147.0833  137.8318  154.5421 C   0  0  0  0  0  0  0  0  0  0  0  0
  146.8977  138.6096  153.4461 N   0  0  0  0  0  0  0  0  0  0  0  0
  147.5792  139.7511  153.3100 C   0  0  0  0  0  0  0  0  0  0  0  0
  148.4785  140.2895  154.1361 N   0  0  0  0  0  0  0  0  0  0  0  0
  148.6718  139.5066  155.2357 C   0  0  0  0  0  0  0  0  0  0  0  0
  148.0248  138.2707  155.5167 C   0  0  0  0  0  0  0  0  0  0  0  0
  148.4756  137.7674  156.7321 N   0  0  0  0  0  0  0  0  0  0  0  0
  149.3424  138.6528  157.1430 C   0  0  0  0  0  0  0  0  0  0  0  0
  149.5143  139.7335  156.3084 N   0  0  0  0  0  0  0  0  0  0  0  0
  150.3996  140.8654  156.5157 C   0  0  0  0  0  0  0  0  0  0  0  0
  151.1230  140.8266  157.8848 C   0  0  1  0  0  0  0  0  0  0  0  0
  152.0475  139.5941  158.0352 C   0  0  0  0  0  0  0  0  0  0  0  0
  153.0169  139.5471  157.0082 O   0  0  0  0  0  0  0  0  0  0  0  0
  151.8597  142.1577  158.1788 C   0  0  2  0  0  0  0  0  0  0  0  0
  152.4136  142.2844  159.5872 C   0  0  0  0  0  0  0  0  0  0  0  0
  152.6257  143.7885  159.7182 C   0  0  0  0  0  0  0  0  0  0  0  0
  151.6116  144.3914  158.9223 O   0  0  0  0  0  0  0  0  0  0  0  0
  150.9712  143.4046  158.1199 C   0  0  0  0  0  0  0  0  0  0  0  0
  145.8902  134.3797  153.7292 C   0  0  0  0  0  0  0  0  0  0  0  0
  145.8869  133.4990  152.4621 C   0  0  2  0  0  0  0  0  0  0  0  0
  147.3134  133.1742  151.9673 C   0  0  0  0  0  0  0  0  0  0  0  0
  144.1849  131.2184  149.7136 H   0  0  0  0  0  0  0  0  0  0  0  0
  143.2292  131.9402  150.9960 H   0  0  0  0  0  0  0  0  0  0  0  0
  144.8591  131.3563  151.3327 H   0  0  0  0  0  0  0  0  0  0  0  0
  145.7840  133.0622  149.7373 H   0  0  0  0  0  0  0  0  0  0  0  0
  144.1879  133.7318  149.4873 H   0  0  0  0  0  0  0  0  0  0  0  0
  146.3857  135.5193  150.6065 H   0  0  0  0  0  0  0  0  0  0  0  0
  144.7069  135.9106  150.3372 H   0  0  0  0  0  0  0  0  0  0  0  0
  145.6792  137.4069  152.0518 H   0  0  0  0  0  0  0  0  0  0  0  0
  144.3457  136.4607  152.6760 H   0  0  0  0  0  0  0  0  0  0  0  0
  147.3089  135.8261  153.0187 H   0  0  0  0  0  0  0  0  0  0  0  0
  145.3605  137.3778  156.3427 H   0  0  0  0  0  0  0  0  0  0  0  0
  144.8499  135.7946  155.7654 H   0  0  0  0  0  0  0  0  0  0  0  0
  144.3449  137.2474  154.9021 H   0  0  0  0  0  0  0  0  0  0  0  0
  147.3753  140.3137  152.4108 H   0  0  0  0  0  0  0  0  0  0  0  0
  149.8765  138.5469  158.0764 H   0  0  0  0  0  0  0  0  0  0  0  0
  151.1266  140.8912  155.7030 H   0  0  0  0  0  0  0  0  0  0  0  0
  149.8006  141.7712  156.4213 H   0  0  0  0  0  0  0  0  0  0  0  0
  150.3491  140.7194  158.6464 H   0  0  0  0  0  0  0  0  0  0  0  0
  152.5579  139.6063  158.9979 H   0  0  0  0  0  0  0  0  0  0  0  0
  151.4726  138.6681  158.0156 H   0  0  0  0  0  0  0  0  0  0  0  0
  153.1360  138.6468  156.7467 H   0  0  0  0  0  0  0  0  0  0  0  0
  152.6805  142.2865  157.4713 H   0  0  0  0  0  0  0  0  0  0  0  0
  151.6782  141.9461  160.3187 H   0  0  0  0  0  0  0  0  0  0  0  0
  153.3341  141.7206  159.7419 H   0  0  0  0  0  0  0  0  0  0  0  0
  152.5753  144.1281  160.7530 H   0  0  0  0  0  0  0  0  0  0  0  0
  153.5982  144.0726  159.3143 H   0  0  0  0  0  0  0  0  0  0  0  0
  150.8255  143.7657  157.1015 H   0  0  0  0  0  0  0  0  0  0  0  0
  149.9888  143.2017  158.5488 H   0  0  0  0  0  0  0  0  0  0  0  0
  146.5532  133.9420  154.4757 H   0  0  0  0  0  0  0  0  0  0  0  0
  144.8907  134.3634  154.1650 H   0  0  0  0  0  0  0  0  0  0  0  0
  145.4291  132.5504  152.7466 H   0  0  0  0  0  0  0  0  0  0  0  0
  147.9035  132.7245  152.7662 H   0  0  0  0  0  0  0  0  0  0  0  0
  147.8504  134.0600  151.6302 H   0  0  0  0  0  0  0  0  0  0  0  0
  147.3025  132.4609  151.1433 H   0  0  0  0  0  0  0  0  0  0  0  0
  144.1038  134.1681  151.8399 H   0  0  0  0  0  0  0  0  0  0  0  0
  1  2  1  0  0  0  0
  1 30  1  0  0  0  0
  1 31  1  0  0  0  0
  1 32  1  0  0  0  0
  2  3  1  0  0  0  0
  2 33  1  0  0  0  0
  2 34  1  0  0  0  0
  3 28  1  0  0  0  0
  3  4  1  0  0  0  0
  3 64  1  0  0  0  0
  4  5  1  0  0  0  0
  4 35  1  0  0  0  0
  4 36  1  0  0  0  0
  5  6  1  0  0  0  0
  5 37  1  0  0  0  0
  5 38  1  0  0  0  0
  6  7  1  0  0  0  0
  6 27  1  0  0  0  0
  6 39  1  0  0  0  0
  7  8  1  0  0  0  0
  7  9  1  0  0  0  0
  8 40  1  0  0  0  0
  8 41  1  0  0  0  0
  8 42  1  0  0  0  0
  9 14  1  0  0  0  0
  9 10  2  0  0  0  0
 10 11  1  0  0  0  0
 11 12  2  0  0  0  0
 11 43  1  0  0  0  0
 12 13  1  0  0  0  0
 13 17  1  0  0  0  0
 13 14  2  0  0  0  0
 14 15  1  0  0  0  0
 15 16  2  0  0  0  0
 16 17  1  0  0  0  0
 16 44  1  0  0  0  0
 17 18  1  0  0  0  0
 18 19  1  0  0  0  0
 18 45  1  0  0  0  0
 18 46  1  0  0  0  0
 19 20  1  0  0  0  0
 19 22  1  0  0  0  0
 19 47  1  0  0  0  0
 20 21  1  0  0  0  0
 20 48  1  0  0  0  0
 20 49  1  0  0  0  0
 21 50  1  0  0  0  0
 22 26  1  0  0  0  0
 22 23  1  0  0  0  0
 22 51  1  0  0  0  0
 23 24  1  0  0  0  0
 23 52  1  0  0  0  0
 23 53  1  0  0  0  0
 24 25  1  0  0  0  0
 24 54  1  0  0  0  0
 24 55  1  0  0  0  0
 25 26  1  0  0  0  0
 26 56  1  0  0  0  0
 26 57  1  0  0  0  0
 27 28  1  0  0  0  0
 27 58  1  0  0  0  0
 27 59  1  0  0  0  0
 28 29  1  0  0  0  0
 28 60  1  0  0  0  0
 29 61  1  0  0  0  0
 29 62  1  0  0  0  0
 29 63  1  0  0  0  0
M  CHG  1   3   1
M  END
> <s_m_source_file>
AV-unprocessed.smi

> <i_m_source_file_index>
249

> <i_lp_mmshare_version>
43012

> <i_f3d_flags>
0

> <s_epik_input>
W0NIM11bQ0gyXU4xW0NIMl1bQ0gyXVtDQEhdKFtDSDJdW0NASF0xW0NIM10pTihbQ0gzXSljKG5bY0hdbjIpYyhjMjMpbltjSF1uM1tDSDJdW0NASF0oW0NIMl1bT0hdKVtDQEBIXTRbQ0gyXVtDSDJdT1tDSDJdNA==

> <s_epik_cmdline>
J2VwaWtfcHl0aG9uJywgJy1waCcsICc3LjAnLCAnLXRuJywgJzgnLCAnLW1hJywgJzIwMCcsICctbWV0YWxfYmluZGluZycsICctaW1hZScsICc8aW5maWxlLm1hZT4nLCAnLW9tYWUnLCAnPG91dGZpbGUubWFlPic=

> <r_lp_tautomer_probability>
1

> <r_epik_Ionization_Penalty>
0.00294688

> <r_epik_Ionization_Penalty_Charging>
0.00169971

> <r_epik_Ionization_Penalty_Neutral>
0.00124717

> <r_epik_State_Penalty>
-0

> <r_epik_Charging_Adjusted_Penalty>
0.00169971

> <i_epik_Tot_Q>
1

> <i_epik_Tot_abs_Q>
1

> <r_epik_Metal_State_Penalty>
-0

> <b_epik_Metal_Only>
0

> <s_lp_Force_Field>
OPLS_2005

> <r_lp_Energy>
53.4352

> <b_lp_Chiralities_Consistent>
1

> <s_lp_Variant>
AV-unprocessed.smi:249-21

> <Gold.Version>
5.8.1

> <Gold.Id.Protein>
6NUR|6NUR_protein|mol2

> <Gold.PLP.Fitness>
41.7606

> <Gold.PLP.PLP>
-37.8874

> <Gold.PLP.part.hbond>
-1.0000

> <Gold.PLP.part.metal>
0.0000

> <Gold.PLP.part.buried>
-5.4988

> <Gold.PLP.part.nonpolar>
-32.0204

> <Gold.PLP.part.repulsive>
0.4738

> <Gold.PLP.ligand.clash>
0.0013

> <Gold.PLP.ligand.torsion>
0.7584

> <Gold.PLP.Chemscore.Hbond>
1.0000

> <Gold.PLP.Chemscore.CHOScore>
0.4534

> <Gold.PLP.Chemscore.Metal>
0.0000

> <Gold.Chemscore.Hbonds>
donor molecule, donor type, donor heavy atom, donor atom, acceptor molecule, acceptor atom, score
      P1  H  7997  8010       L1    21  0.90
      L1  C    11    43       P1  7957  0.41

> <Gold.PLP.Chemscore.Internal.Correction>
1.0309

> <Gold.Rescore>
     Score         DG    S(hbond)    S(metal)    S(lipo)     H(rot)  DE(clash)    DE(int)     intcor
     11.19     -12.82       0.94        0.00      99.30       2.90       0.63       1.00       ----

> <Gold.Chemscore.Fitness>
11.1852

> <Gold.Chemscore.DG>
-12.8162

> <Gold.Chemscore.ZeroCoef>
-5.4800

> <Gold.Chemscore.Hbond>
0.9413

> <Gold.Chemscore.Metal>
0.0000

> <Gold.Chemscore.Lipo>
99.2985

> <Gold.Chemscore.Internal_Hbond>
0.0000

> <Gold.Chemscore.DEClash>
0.6324

> <Gold.Chemscore.DEInternal>
0.9986

> <Gold.Chemscore.Rot>
2.9006

> <Gold.Chemscore.Internal.Correction>
   9.000000E+99

> <Gold.Chemscore.Hbonds>
donor molecule, donor type, donor heavy atom, donor atom, acceptor molecule, acceptor atom, score
      P1  H  7997  8010       L1    21  0.19

> <Gold.Chemscore.Hbond.Weighted>
-3.1439

> <Gold.Chemscore.Metal.Weighted>
-0.0000

> <Gold.Chemscore.Lipo.Weighted>
-11.6179

> <Gold.Chemscore.Internal_Hbond.Weighted>
0.0000

> <Gold.Chemscore.DEClash.Weighted>
0.6324

> <Gold.Chemscore.DEInternal.Weighted>
0.9986

> <Gold.Chemscore.Rot.Weighted>
7.4256

> <Gold.Chemscore.Internal.Correction.Weighted>
   9.000000E+99

> <Gold.Protein.RotatedTorsions>
[ 6907 6896 6895 6894 ] final -143.40 input  -60.11 | X-H torsion
[ 7974 7965 7964 7962 ] final   34.24 input  175.53 | X-H torsion
[ 8008 7997 7996 7995 ] final   60.40 input   59.86 | X-H torsion
[ 10167 10162 10161 10158 ] final  153.17 input  -65.29 | X-H torsion
[ 10718 10713 10712 10709 ] final   30.96 input   66.30 | X-H torsion
[ 10763 10752 10751 10750 ] final  120.50 input  -60.55 | X-H torsion
[ 11005 11000 10999 10996 ] final  -26.91 input  -57.11 | X-H torsion

> <Gold.Protein.ActiveResidues>
 VAL166  LYS551  ARG553  GLY616  TRP617  ASP618  TYR619  PRO620  LYS621  CYS622 
 ASP623  PHE694  ASN695  SER759  ASP760  ASP761  ALA762  ILE779  LEU786  VAL792 
 PHE793  MET794  SER795  GLU796  ALA797  LYS798  CYS799  TRP800  GLU811  SER814 

> <Gold.Protein.RotatedAtoms>
  151.0999  133.5251  159.2610 H   0  0  0  0  0  0  0  0  0  0  0  0  # atno 6907 bound_to 6896
  151.2086  135.0471  159.8912 H   0  0  0  0  0  0  0  0  0  0  0  0  # atno 6908 bound_to 6896
  152.5442  134.0818  159.8292 H   0  0  0  0  0  0  0  0  0  0  0  0  # atno 6909 bound_to 6896
  146.1366  139.6294  142.9191 H   0  0  0  0  0  0  0  0  0  0  0  0  # atno 7974 bound_to 7965
  155.5817  140.3491  155.4542 H   0  0  0  0  0  0  0  0  0  0  0  0  # atno 8008 bound_to 7997
  156.0368  140.1287  157.0224 H   0  0  0  0  0  0  0  0  0  0  0  0  # atno 8009 bound_to 7997
  154.4375  140.1032  156.6165 H   0  0  0  0  0  0  0  0  0  0  0  0  # atno 8010 bound_to 7997
  139.4828  144.5296  151.7745 H   0  0  0  0  0  0  0  0  0  0  0  0  # atno 10167 bound_to 10162
  157.2664  130.7186  149.6481 H   0  0  0  0  0  0  0  0  0  0  0  0  # atno 10718 bound_to 10713
  153.5994  135.3451  155.2940 H   0  0  0  0  0  0  0  0  0  0  0  0  # atno 10763 bound_to 10752
  154.8639  135.4224  154.2429 H   0  0  0  0  0  0  0  0  0  0  0  0  # atno 10764 bound_to 10752
  153.3254  135.7041  153.7065 H   0  0  0  0  0  0  0  0  0  0  0  0  # atno 10765 bound_to 10752
  140.9072  133.7485  156.0622 H   0  0  0  0  0  0  0  0  0  0  0  0  # atno 11005 bound_to 11000
  145.5142  141.0434  143.2471 LP  0  0  0  0  0  0  0  0  0  0  0  0  # atno 17320 bound_to 7965
  144.7746  139.6657  143.7180 LP  0  0  0  0  0  0  0  0  0  0  0  0  # atno 17321 bound_to 7965
  140.4820  144.1435  150.5934 LP  0  0  0  0  0  0  0  0  0  0  0  0  # atno 17342 bound_to 10162
  140.4267  143.2587  151.9648 LP  0  0  0  0  0  0  0  0  0  0  0  0  # atno 17343 bound_to 10162
  155.9663  130.4381  150.5204 LP  0  0  0  0  0  0  0  0  0  0  0  0  # atno 17370 bound_to 10713
  157.3120  131.0665  151.1994 LP  0  0  0  0  0  0  0  0  0  0  0  0  # atno 17371 bound_to 10713
  140.8156  134.3349  157.5398 LP  0  0  0  0  0  0  0  0  0  0  0  0  # atno 17394 bound_to 11000
  139.8751  134.9279  156.3438 LP  0  0  0  0  0  0  0  0  0  0  0  0  # atno 17395 bound_to 11000

$$$$
