AV-unprocessed.smi:2448|AV-procd|sdf|9653|dock5
  -GOLD-   2272013283D 1   1.00000     0.00000
 Structure written by MMmdl.
 37 38  0  0  0  0  0  0  0  0  1 V2000
  149.3590  142.5826  154.5567 O   0  0  0  0  0  0  0  0  0  0  0  0
  148.7484  141.3902  155.0171 C   0  0  1  0  0  0  0  0  0  0  0  0
  149.7366  140.6902  155.9719 C   0  0  0  0  0  0  0  0  0  0  0  0
  151.0996  140.6763  155.4377 N   0  0  0  0  0  0  0  0  0  0  0  0
  152.1073  139.9590  156.2336 C   0  0  1  0  0  0  0  0  0  0  0  0
  151.9539  140.1894  157.7605 C   0  0  0  0  0  0  0  0  0  0  0  0
  152.1786  141.6199  158.2257 C   0  0  0  0  0  0  0  0  0  0  0  0
  151.4487  142.6855  157.6573 C   0  0  0  0  0  0  0  0  0  0  0  0
  151.6896  143.9926  158.1256 C   0  0  0  0  0  0  0  0  0  0  0  0
  152.5808  144.2795  159.0985 N   0  0  0  0  0  0  0  0  0  0  0  0
  153.2679  143.2547  159.6467 C   0  0  0  0  0  0  0  0  0  0  0  0
  153.1035  141.9124  159.2505 C   0  0  0  0  0  0  0  0  0  0  0  0
  152.0559  138.4552  155.8899 C   0  0  0  0  0  0  0  0  0  0  0  0
  153.0261  137.8081  156.5374 F   0  0  0  0  0  0  0  0  0  0  0  0
  150.8890  137.9330  156.2677 F   0  0  0  0  0  0  0  0  0  0  0  0
  152.2121  138.2654  154.5792 F   0  0  0  0  0  0  0  0  0  0  0  0
  147.3822  141.7134  155.6486 C   0  0  0  0  0  0  0  0  0  0  0  0
  146.4140  142.0695  154.5160 C   0  0  0  0  0  0  0  0  0  0  0  0
  146.8678  141.0773  153.0718 S   0  0  0  0  0  0  0  0  0  0  0  0
  148.4377  140.5198  153.7872 C   0  0  0  0  0  0  0  0  0  0  0  0
  149.4203  143.1844  155.2828 H   0  0  0  0  0  0  0  0  0  0  0  0
  149.7330  141.2097  156.9309 H   0  0  0  0  0  0  0  0  0  0  0  0
  149.3849  139.6785  156.1632 H   0  0  0  0  0  0  0  0  0  0  0  0
  151.4121  141.6307  155.2889 H   0  0  0  0  0  0  0  0  0  0  0  0
  153.0979  140.2966  155.9279 H   0  0  0  0  0  0  0  0  0  0  0  0
  150.9775  139.8358  158.0940 H   0  0  0  0  0  0  0  0  0  0  0  0
  152.6831  139.5835  158.2985 H   0  0  0  0  0  0  0  0  0  0  0  0
  150.7244  142.5107  156.8753 H   0  0  0  0  0  0  0  0  0  0  0  0
  151.1511  144.8302  157.7072 H   0  0  0  0  0  0  0  0  0  0  0  0
  153.9696  143.5113  160.4265 H   0  0  0  0  0  0  0  0  0  0  0  0
  153.6749  141.1294  159.7266 H   0  0  0  0  0  0  0  0  0  0  0  0
  147.0083  140.8298  156.1679 H   0  0  0  0  0  0  0  0  0  0  0  0
  147.4413  142.5142  156.3869 H   0  0  0  0  0  0  0  0  0  0  0  0
  145.3742  141.9011  154.7962 H   0  0  0  0  0  0  0  0  0  0  0  0
  146.5194  143.1220  154.2511 H   0  0  0  0  0  0  0  0  0  0  0  0
  149.2365  140.5348  153.0447 H   0  0  0  0  0  0  0  0  0  0  0  0
  148.2982  139.4811  154.0888 H   0  0  0  0  0  0  0  0  0  0  0  0
  1  2  1  0  0  0  0
  1 21  1  0  0  0  0
  2 20  1  0  0  0  0
  2  3  1  0  0  0  0
  2 17  1  0  0  0  0
  3  4  1  0  0  0  0
  3 22  1  0  0  0  0
  3 23  1  0  0  0  0
  4  5  1  0  0  0  0
  4 24  1  0  0  0  0
  5  6  1  0  0  0  0
  5 13  1  0  0  0  0
  5 25  1  0  0  0  0
  6  7  1  0  0  0  0
  6 26  1  0  0  0  0
  6 27  1  0  0  0  0
  7 12  1  0  0  0  0
  7  8  2  0  0  0  0
  8  9  1  0  0  0  0
  8 28  1  0  0  0  0
  9 10  2  0  0  0  0
  9 29  1  0  0  0  0
 10 11  1  0  0  0  0
 11 12  2  0  0  0  0
 11 30  1  0  0  0  0
 12 31  1  0  0  0  0
 13 14  1  0  0  0  0
 13 15  1  0  0  0  0
 13 16  1  0  0  0  0
 17 18  1  0  0  0  0
 17 32  1  0  0  0  0
 17 33  1  0  0  0  0
 18 19  1  0  0  0  0
 18 34  1  0  0  0  0
 18 35  1  0  0  0  0
 19 20  1  0  0  0  0
 20 36  1  0  0  0  0
 20 37  1  0  0  0  0
M  END
> <s_m_source_file>
AV-unprocessed.smi

> <i_m_source_file_index>
2448

> <i_lp_mmshare_version>
43012

> <i_f3d_flags>
0

> <s_epik_input>
W0NIMl0xU1tDSDJdW0NIMl1bQ0BAXTEoW09IXSlbQ0gyXVtOSF1bQ0BASF0oQyhGKShGKUYpW0NIMl1jMltjSF1bY0hdbltjSF1bY0hdMg==

> <s_epik_cmdline>
J2VwaWtfcHl0aG9uJywgJy1waCcsICc3LjAnLCAnLXRuJywgJzgnLCAnLW1hJywgJzIwMCcsICctbWV0YWxfYmluZGluZycsICctaW1hZScsICc8aW5maWxlLm1hZT4nLCAnLW9tYWUnLCAnPG91dGZpbGUubWFlPic=

> <r_epik_Ionization_Penalty>
0.187708

> <r_epik_Ionization_Penalty_Charging>
0

> <r_epik_Ionization_Penalty_Neutral>
0.187708

> <r_epik_State_Penalty>
0.22769

> <r_epik_Charging_Adjusted_Penalty>
0.22769

> <i_epik_Tot_Q>
0

> <i_epik_Tot_abs_Q>
0

> <r_epik_Metal_State_Penalty>
0.176206

> <b_epik_Metal_Only>
0

> <s_lp_Force_Field>
OPLS_2005

> <r_lp_Energy>
32.0446

> <b_lp_Chiralities_Consistent>
1

> <s_lp_Variant>
AV-unprocessed.smi:2448-3

> <Gold.Version>
5.8.1

> <Gold.Id.Protein>
6NUR|6NUR_protein|mol2

> <Gold.PLP.Fitness>
44.7515

> <Gold.PLP.PLP>
-39.1179

> <Gold.PLP.part.hbond>
-3.0000

> <Gold.PLP.part.metal>
0.0000

> <Gold.PLP.part.buried>
-0.2013

> <Gold.PLP.part.nonpolar>
-35.7856

> <Gold.PLP.part.repulsive>
0.0332

> <Gold.PLP.ligand.clash>
0.0000

> <Gold.PLP.ligand.torsion>
0.4408

> <Gold.PLP.Chemscore.Hbond>
1.0702

> <Gold.PLP.Chemscore.CHOScore>
0.9436

> <Gold.PLP.Chemscore.Metal>
0.0000

> <Gold.Chemscore.Hbonds>
donor molecule, donor type, donor heavy atom, donor atom, acceptor molecule, acceptor atom, score
      L1  H     1    21       P1  8028  0.74
      P1  H  8011  8017       L1     1  0.02

> <Gold.PLP.Chemscore.Internal.Correction>
0.4736

> <Gold.Rescore>
     Score         DG    S(hbond)    S(metal)    S(lipo)     H(rot)  DE(clash)    DE(int)     intcor
     14.52     -16.19       1.26        0.00     106.25       2.31       0.90       0.77       ----

> <Gold.Chemscore.Fitness>
14.5212

> <Gold.Chemscore.DG>
-16.1927

> <Gold.Chemscore.ZeroCoef>
-5.4800

> <Gold.Chemscore.Hbond>
1.2570

> <Gold.Chemscore.Metal>
0.0000

> <Gold.Chemscore.Lipo>
106.2451

> <Gold.Chemscore.Internal_Hbond>
0.0000

> <Gold.Chemscore.DEClash>
0.8968

> <Gold.Chemscore.DEInternal>
0.7747

> <Gold.Chemscore.Rot>
2.3111

> <Gold.Chemscore.Internal.Correction>
   9.000000E+99

> <Gold.Chemscore.Hbonds>
donor molecule, donor type, donor heavy atom, donor atom, acceptor molecule, acceptor atom, score
      L1  H     1    21       P1  8028  0.74
      P1  H  8011  8017       L1     1  0.03

> <Gold.Chemscore.Hbond.Weighted>
-4.1984

> <Gold.Chemscore.Metal.Weighted>
-0.0000

> <Gold.Chemscore.Lipo.Weighted>
-12.4307

> <Gold.Chemscore.Internal_Hbond.Weighted>
0.0000

> <Gold.Chemscore.DEClash.Weighted>
0.8968

> <Gold.Chemscore.DEInternal.Weighted>
0.7747

> <Gold.Chemscore.Rot.Weighted>
5.9164

> <Gold.Chemscore.Internal.Correction.Weighted>
   9.000000E+99

> <Gold.Protein.RotatedTorsions>
[ 6907 6896 6895 6894 ] final  158.60 input  -60.11 | X-H torsion
[ 7974 7965 7964 7962 ] final  179.18 input  175.53 | X-H torsion
[ 8008 7997 7996 7995 ] final  132.79 input   59.86 | X-H torsion
[ 10167 10162 10161 10158 ] final  -55.52 input  -65.29 | X-H torsion
[ 10718 10713 10712 10709 ] final  -43.87 input   66.30 | X-H torsion
[ 10763 10752 10751 10750 ] final -112.40 input  -60.55 | X-H torsion
[ 11005 11000 10999 10996 ] final   20.14 input  -57.11 | X-H torsion

> <Gold.Protein.ActiveResidues>
 VAL166  LYS551  ARG553  GLY616  TRP617  ASP618  TYR619  PRO620  LYS621  CYS622 
 ASP623  PHE694  ASN695  SER759  ASP760  ASP761  ALA762  ILE779  LEU786  VAL792 
 PHE793  MET794  SER795  GLU796  ALA797  LYS798  CYS799  TRP800  GLU811  SER814 

> <Gold.Protein.RotatedAtoms>
  151.9980  133.3815  159.4170 H   0  0  0  0  0  0  0  0  0  0  0  0  # atno 6907 bound_to 6896
  150.6913  134.3865  159.5066 H   0  0  0  0  0  0  0  0  0  0  0  0  # atno 6908 bound_to 6896
  152.1608  134.8913  160.0592 H   0  0  0  0  0  0  0  0  0  0  0  0  # atno 6909 bound_to 6896
  144.7148  140.0509  143.6435 H   0  0  0  0  0  0  0  0  0  0  0  0  # atno 7974 bound_to 7965
  156.2986  140.2538  156.3146 H   0  0  0  0  0  0  0  0  0  0  0  0  # atno 8008 bound_to 7997
  154.9293  140.0399  157.2058 H   0  0  0  0  0  0  0  0  0  0  0  0  # atno 8009 bound_to 7997
  154.8234  140.2864  155.5776 H   0  0  0  0  0  0  0  0  0  0  0  0  # atno 8010 bound_to 7997
  140.6370  143.2487  151.5092 H   0  0  0  0  0  0  0  0  0  0  0  0  # atno 10167 bound_to 10162
  156.2445  130.4182  149.8722 H   0  0  0  0  0  0  0  0  0  0  0  0  # atno 10718 bound_to 10713
  154.8348  135.4492  154.1188 H   0  0  0  0  0  0  0  0  0  0  0  0  # atno 10763 bound_to 10752
  153.2430  135.6918  153.7768 H   0  0  0  0  0  0  0  0  0  0  0  0  # atno 10764 bound_to 10752
  153.7109  135.3357  155.3222 H   0  0  0  0  0  0  0  0  0  0  0  0  # atno 10765 bound_to 10752
  140.4059  134.1669  155.7665 H   0  0  0  0  0  0  0  0  0  0  0  0  # atno 11005 bound_to 11000
  145.9944  139.3041  143.0965 LP  0  0  0  0  0  0  0  0  0  0  0  0  # atno 17320 bound_to 7965
  145.8865  140.9330  143.0574 LP  0  0  0  0  0  0  0  0  0  0  0  0  # atno 17321 bound_to 7965
  139.5580  144.2228  152.1644 LP  0  0  0  0  0  0  0  0  0  0  0  0  # atno 17342 bound_to 10162
  140.1487  144.5135  150.6700 LP  0  0  0  0  0  0  0  0  0  0  0  0  # atno 17343 bound_to 10162
  156.6292  130.8658  151.3492 LP  0  0  0  0  0  0  0  0  0  0  0  0  # atno 17370 bound_to 10713
  157.7189  130.9533  150.1361 LP  0  0  0  0  0  0  0  0  0  0  0  0  # atno 17371 bound_to 10713
  141.1839  133.8354  157.1157 LP  0  0  0  0  0  0  0  0  0  0  0  0  # atno 17394 bound_to 11000
  140.0302  134.9904  157.0766 LP  0  0  0  0  0  0  0  0  0  0  0  0  # atno 17395 bound_to 11000

$$$$
