AV-unprocessed.smi:971|AV-procd|sdf|4295|dock7
  -GOLD-   22720 2203D 1   1.00000     0.00000
 Structure written by MMmdl.
 34 35  0  0  0  0  0  0  0  0  1 V2000
  151.6000  145.4271  160.0133 C   0  0  0  0  0  0  0  0  0  0  0  0
  152.1314  144.3116  160.9198 C   0  0  0  0  0  0  0  0  0  0  0  0
  152.2646  143.0050  160.1942 C   0  0  0  0  0  0  0  0  0  0  0  0
  151.6718  142.8569  158.9366 N   0  0  0  0  0  0  0  0  0  0  0  0
  151.8845  141.6519  158.4041 C   0  0  0  0  0  0  0  0  0  0  0  0
  151.3341  141.2261  157.0849 C   0  0  0  0  0  0  0  0  0  0  0  0
  150.8332  142.4130  156.2464 C   0  0  0  0  0  0  0  0  0  0  0  0
  149.5672  142.1107  155.5883 N   0  0  0  0  0  0  0  0  0  0  0  0
  149.3416  141.0493  154.7990 C   0  0  0  0  0  0  0  0  0  0  0  0
  150.2039  140.2070  154.5447 O   0  0  0  0  0  0  0  0  0  0  0  0
  147.9503  140.9790  154.2601 C   0  0  0  0  0  0  0  0  0  0  0  0
  147.0655  142.1958  154.4407 C   0  0  0  0  0  0  0  0  0  0  0  0
  146.8095  140.9542  155.2573 C   0  0  0  0  0  0  0  0  0  0  0  0
  152.8241  140.5930  159.4461 S   0  0  0  0  0  0  0  0  0  0  0  0
  152.9324  141.8802  160.6199 C   0  0  0  0  0  0  0  0  0  0  0  0
  153.6780  141.6872  161.8986 C   0  0  0  0  0  0  0  0  0  0  0  0
  151.5130  146.3652  160.5615 H   0  0  0  0  0  0  0  0  0  0  0  0
  150.6139  145.1793  159.6192 H   0  0  0  0  0  0  0  0  0  0  0  0
  152.2669  145.5956  159.1672 H   0  0  0  0  0  0  0  0  0  0  0  0
  153.0925  144.6149  161.3354 H   0  0  0  0  0  0  0  0  0  0  0  0
  151.4638  144.1965  161.7744 H   0  0  0  0  0  0  0  0  0  0  0  0
  152.1090  140.6787  156.5466 H   0  0  0  0  0  0  0  0  0  0  0  0
  150.5201  140.5217  157.2606 H   0  0  0  0  0  0  0  0  0  0  0  0
  150.6812  143.2814  156.8877 H   0  0  0  0  0  0  0  0  0  0  0  0
  151.5806  142.7009  155.5050 H   0  0  0  0  0  0  0  0  0  0  0  0
  148.8057  142.7551  155.7455 H   0  0  0  0  0  0  0  0  0  0  0  0
  147.8115  140.4070  153.3436 H   0  0  0  0  0  0  0  0  0  0  0  0
  147.4710  143.0619  154.9610 H   0  0  0  0  0  0  0  0  0  0  0  0
  146.3746  142.4276  153.6328 H   0  0  0  0  0  0  0  0  0  0  0  0
  145.9447  140.3450  155.0029 H   0  0  0  0  0  0  0  0  0  0  0  0
  147.0442  140.9974  156.3196 H   0  0  0  0  0  0  0  0  0  0  0  0
  154.3813  142.5038  162.0641 H   0  0  0  0  0  0  0  0  0  0  0  0
  154.2434  140.7552  161.8903 H   0  0  0  0  0  0  0  0  0  0  0  0
  152.9912  141.6564  162.7444 H   0  0  0  0  0  0  0  0  0  0  0  0
  1  2  1  0  0  0  0
  1 17  1  0  0  0  0
  1 18  1  0  0  0  0
  1 19  1  0  0  0  0
  2  3  1  0  0  0  0
  2 20  1  0  0  0  0
  2 21  1  0  0  0  0
  3 15  2  0  0  0  0
  3  4  1  0  0  0  0
  4  5  2  0  0  0  0
  5  6  1  0  0  0  0
  5 14  1  0  0  0  0
  6  7  1  0  0  0  0
  6 22  1  0  0  0  0
  6 23  1  0  0  0  0
  7  8  1  0  0  0  0
  7 24  1  0  0  0  0
  7 25  1  0  0  0  0
  8  9  1  0  0  0  0
  8 26  1  0  0  0  0
  9 10  2  0  0  0  0
  9 11  1  0  0  0  0
 11 13  1  0  0  0  0
 11 12  1  0  0  0  0
 11 27  1  0  0  0  0
 12 13  1  0  0  0  0
 12 28  1  0  0  0  0
 12 29  1  0  0  0  0
 13 30  1  0  0  0  0
 13 31  1  0  0  0  0
 14 15  1  0  0  0  0
 15 16  1  0  0  0  0
 16 32  1  0  0  0  0
 16 33  1  0  0  0  0
 16 34  1  0  0  0  0
M  END
> <s_m_source_file>
AV-unprocessed.smi

> <i_m_source_file_index>
971

> <i_lp_mmshare_version>
43012

> <i_f3d_flags>
0

> <s_epik_input>
W0NIM11bQ0gyXWMxbmMoc2MxW0NIM10pW0NIMl1bQ0gyXVtOSF1DKD1PKVtDSF0yW0NIMl1bQ0gyXTI=

> <s_epik_cmdline>
J2VwaWtfcHl0aG9uJywgJy1waCcsICc3LjAnLCAnLXRuJywgJzgnLCAnLW1hJywgJzIwMCcsICctbWV0YWxfYmluZGluZycsICctaW1hZScsICc8aW5maWxlLm1hZT4nLCAnLW9tYWUnLCAnPG91dGZpbGUubWFlPic=

> <r_epik_Ionization_Penalty>
0.00242093

> <r_epik_Ionization_Penalty_Charging>
0

> <r_epik_Ionization_Penalty_Neutral>
0.00242093

> <r_epik_State_Penalty>
0.00167523

> <r_epik_Charging_Adjusted_Penalty>
0.00167523

> <i_epik_Tot_Q>
0

> <i_epik_Tot_abs_Q>
0

> <r_epik_Metal_State_Penalty>
-0

> <b_epik_Metal_Only>
0

> <s_lp_Force_Field>
OPLS_2005

> <r_lp_Energy>
-4.35298

> <b_lp_Chiralities_Consistent>
1

> <s_lp_Variant>
AV-unprocessed.smi:971-1

> <Gold.Version>
5.8.1

> <Gold.Id.Protein>
6NUR|6NUR_protein|mol2

> <Gold.PLP.Fitness>
44.6052

> <Gold.PLP.PLP>
-40.8260

> <Gold.PLP.part.hbond>
-2.0000

> <Gold.PLP.part.metal>
0.0000

> <Gold.PLP.part.buried>
-5.7463

> <Gold.PLP.part.nonpolar>
-32.4051

> <Gold.PLP.part.repulsive>
0.2860

> <Gold.PLP.ligand.clash>
0.0000

> <Gold.PLP.ligand.torsion>
0.7467

> <Gold.PLP.Chemscore.Hbond>
1.7200

> <Gold.PLP.Chemscore.CHOScore>
0.0000

> <Gold.PLP.Chemscore.Metal>
0.0000

> <Gold.Chemscore.Hbonds>
donor molecule, donor type, donor heavy atom, donor atom, acceptor molecule, acceptor atom, score
      L1  H     8    26       P1  8028  0.54
      P1  H  7989  7998       L1    10  1.00

> <Gold.PLP.Chemscore.Internal.Correction>
0.1127

> <Gold.Rescore>
     Score         DG    S(hbond)    S(metal)    S(lipo)     H(rot)  DE(clash)    DE(int)     intcor
     17.90     -18.93       1.53        0.00     105.10       1.54       0.28       0.75       ----

> <Gold.Chemscore.Fitness>
17.8994

> <Gold.Chemscore.DG>
-18.9275

> <Gold.Chemscore.ZeroCoef>
-5.4800

> <Gold.Chemscore.Hbond>
1.5281

> <Gold.Chemscore.Metal>
0.0000

> <Gold.Chemscore.Lipo>
105.1003

> <Gold.Chemscore.Internal_Hbond>
0.0000

> <Gold.Chemscore.DEClash>
0.2819

> <Gold.Chemscore.DEInternal>
0.7462

> <Gold.Chemscore.Rot>
1.5441

> <Gold.Chemscore.Internal.Correction>
   9.000000E+99

> <Gold.Chemscore.Hbonds>
donor molecule, donor type, donor heavy atom, donor atom, acceptor molecule, acceptor atom, score
      L1  H     8    26       P1  8028  0.53
      P1  H  7989  7998       L1    10  0.83

> <Gold.Chemscore.Hbond.Weighted>
-5.1037

> <Gold.Chemscore.Metal.Weighted>
-0.0000

> <Gold.Chemscore.Lipo.Weighted>
-12.2967

> <Gold.Chemscore.Internal_Hbond.Weighted>
0.0000

> <Gold.Chemscore.DEClash.Weighted>
0.2819

> <Gold.Chemscore.DEInternal.Weighted>
0.7462

> <Gold.Chemscore.Rot.Weighted>
3.9529

> <Gold.Chemscore.Internal.Correction.Weighted>
   9.000000E+99

> <Gold.Protein.RotatedTorsions>
[ 6907 6896 6895 6894 ] final   24.84 input  -60.11 | X-H torsion
[ 7974 7965 7964 7962 ] final   -1.89 input  175.53 | X-H torsion
[ 8008 7997 7996 7995 ] final  -23.06 input   59.86 | X-H torsion
[ 10167 10162 10161 10158 ] final  -52.55 input  -65.29 | X-H torsion
[ 10718 10713 10712 10709 ] final  -64.42 input   66.30 | X-H torsion
[ 10763 10752 10751 10750 ] final  -28.02 input  -60.55 | X-H torsion
[ 11005 11000 10999 10996 ] final  134.42 input  -57.11 | X-H torsion

> <Gold.Protein.ActiveResidues>
 VAL166  LYS551  ARG553  GLY616  TRP617  ASP618  TYR619  PRO620  LYS621  CYS622 
 ASP623  PHE694  ASN695  SER759  ASP760  ASP761  ALA762  ILE779  LEU786  VAL792 
 PHE793  MET794  SER795  GLU796  ALA797  LYS798  CYS799  TRP800  GLU811  SER814 

> <Gold.Protein.RotatedAtoms>
  151.9635  135.0112  160.0548 H   0  0  0  0  0  0  0  0  0  0  0  0  # atno 6907 bound_to 6896
  152.1847  133.4727  159.4985 H   0  0  0  0  0  0  0  0  0  0  0  0  # atno 6908 bound_to 6896
  150.6924  134.1706  159.4253 H   0  0  0  0  0  0  0  0  0  0  0  0  # atno 6909 bound_to 6896
  146.2411  140.1489  142.8334 H   0  0  0  0  0  0  0  0  0  0  0  0  # atno 7974 bound_to 7965
  154.4607  140.1991  156.0253 H   0  0  0  0  0  0  0  0  0  0  0  0  # atno 8008 bound_to 7997
  156.0834  140.3268  155.7694 H   0  0  0  0  0  0  0  0  0  0  0  0  # atno 8009 bound_to 7997
  155.5074  140.0559  157.2920 H   0  0  0  0  0  0  0  0  0  0  0  0  # atno 8010 bound_to 7997
  140.6531  143.2580  151.4665 H   0  0  0  0  0  0  0  0  0  0  0  0  # atno 10167 bound_to 10162
  156.0730  130.4233  150.1418 H   0  0  0  0  0  0  0  0  0  0  0  0  # atno 10718 bound_to 10713
  153.7416  135.6932  153.4966 H   0  0  0  0  0  0  0  0  0  0  0  0  # atno 10763 bound_to 10752
  153.2065  135.4418  155.0328 H   0  0  0  0  0  0  0  0  0  0  0  0  # atno 10764 bound_to 10752
  154.8219  135.3426  154.6941 H   0  0  0  0  0  0  0  0  0  0  0  0  # atno 10765 bound_to 10752
  139.9914  134.9513  156.9864 H   0  0  0  0  0  0  0  0  0  0  0  0  # atno 11005 bound_to 11000
  145.0184  140.8773  143.5181 LP  0  0  0  0  0  0  0  0  0  0  0  0  # atno 17320 bound_to 7965
  145.1533  139.2501  143.5429 LP  0  0  0  0  0  0  0  0  0  0  0  0  # atno 17321 bound_to 7965
  139.5749  144.1842  152.1889 LP  0  0  0  0  0  0  0  0  0  0  0  0  # atno 17342 bound_to 10162
  140.1149  144.5424  150.6900 LP  0  0  0  0  0  0  0  0  0  0  0  0  # atno 17343 bound_to 10162
  156.9465  130.9761  151.3506 LP  0  0  0  0  0  0  0  0  0  0  0  0  # atno 17370 bound_to 10713
  157.5811  130.8377  149.8524 LP  0  0  0  0  0  0  0  0  0  0  0  0  # atno 17371 bound_to 10713
  140.4901  134.1201  155.7231 LP  0  0  0  0  0  0  0  0  0  0  0  0  # atno 17394 bound_to 11000
  141.1569  133.8866  157.1954 LP  0  0  0  0  0  0  0  0  0  0  0  0  # atno 17395 bound_to 11000

$$$$
