AV-unprocessed.smi:160|AV-procd|sdf|1344|dock9
  -GOLD-   2262019 43D 1   1.00000     0.00000
 Structure written by MMmdl.
 29 30  0  0  0  0  0  0  0  0  1 V2000
  152.4384  138.4875  154.7320 N   0  0  0  0  0  0  0  0  0  0  0  0
  152.3013  139.2408  155.8282 C   0  0  0  0  0  0  0  0  0  0  0  0
  153.0596  139.1461  156.7919 O   0  0  0  0  0  0  0  0  0  0  0  0
  151.1617  140.2216  155.8211 C   0  0  0  0  0  0  0  0  0  0  0  0
  151.0044  141.1307  156.8287 N   0  0  0  0  0  0  0  0  0  0  0  0
  149.9133  141.7436  156.3878 C   0  0  0  0  0  0  0  0  0  0  0  0
  149.4421  141.2611  155.2334 N   0  0  0  0  0  0  0  0  0  0  0  0
  148.2491  141.6884  154.4306 C   0  0  1  0  0  0  0  0  0  0  0  0
  148.1688  140.8749  153.2975 O   0  0  0  0  0  0  0  0  0  0  0  0
  147.1462  139.9000  153.4771 C   0  0  2  0  0  0  0  0  0  0  0  0
  146.6867  139.3689  152.1110 C   0  0  0  0  0  0  0  0  0  0  0  0
  147.7721  138.7681  151.4373 O   0  0  0  0  0  0  0  0  0  0  0  0
  146.0827  140.7156  154.2133 C   0  0  1  0  0  0  0  0  0  0  0  0
  145.1033  139.9082  154.8403 O   0  0  0  0  0  0  0  0  0  0  0  0
  146.9084  141.5497  155.1925 C   0  0  1  0  0  0  0  0  0  0  0  0
  147.0220  140.9419  156.4708 O   0  0  0  0  0  0  0  0  0  0  0  0
  150.2583  140.2509  154.8403 N   0  0  0  0  0  0  0  0  0  0  0  0
  148.4744  142.7138  154.1350 H   0  0  0  0  0  0  0  0  0  0  0  0
  147.5001  139.0892  154.1170 H   0  0  0  0  0  0  0  0  0  0  0  0
  145.5878  141.3845  153.5076 H   0  0  0  0  0  0  0  0  0  0  0  0
  146.4677  142.5383  155.3254 H   0  0  0  0  0  0  0  0  0  0  0  0
  153.1846  137.8102  154.6755 H   0  0  0  0  0  0  0  0  0  0  0  0
  151.7912  138.6029  153.9651 H   0  0  0  0  0  0  0  0  0  0  0  0
  149.4463  142.5601  156.9187 H   0  0  0  0  0  0  0  0  0  0  0  0
  145.9207  138.6044  152.2432 H   0  0  0  0  0  0  0  0  0  0  0  0
  146.2521  140.1617  151.5013 H   0  0  0  0  0  0  0  0  0  0  0  0
  148.5756  139.1301  151.7782 H   0  0  0  0  0  0  0  0  0  0  0  0
  144.3486  139.8585  154.2739 H   0  0  0  0  0  0  0  0  0  0  0  0
  146.8858  140.0117  156.3766 H   0  0  0  0  0  0  0  0  0  0  0  0
  1  2  1  0  0  0  0
  1 22  1  0  0  0  0
  1 23  1  0  0  0  0
  2  3  2  0  0  0  0
  2  4  1  0  0  0  0
  4 17  2  0  0  0  0
  4  5  1  0  0  0  0
  5  6  2  0  0  0  0
  6  7  1  0  0  0  0
  6 24  1  0  0  0  0
  7  8  1  0  0  0  0
  7 17  1  0  0  0  0
  8 18  1  0  0  0  0
  8 15  1  0  0  0  0
  8  9  1  0  0  0  0
  9 10  1  0  0  0  0
 10 19  1  0  0  0  0
 10 11  1  0  0  0  0
 10 13  1  0  0  0  0
 11 12  1  0  0  0  0
 11 25  1  0  0  0  0
 11 26  1  0  0  0  0
 12 27  1  0  0  0  0
 13 20  1  0  0  0  0
 13 14  1  0  0  0  0
 13 15  1  0  0  0  0
 14 28  1  0  0  0  0
 15 21  1  0  0  0  0
 15 16  1  0  0  0  0
 16 29  1  0  0  0  0
M  END
> <s_m_source_file>
AV-unprocessed.smi

> <i_m_source_file_index>
160

> <i_lp_mmshare_version>
43012

> <i_f3d_flags>
0

> <s_epik_input>
W05IMl1DKD1PKWMxbltjSF1uKG4xKVtDQEBIXTJPW0NASF0oW0NIMl1bT0hdKVtDQEBIXShbT0hdKVtDQEhdMltPSF0=

> <s_epik_cmdline>
J2VwaWtfcHl0aG9uJywgJy1waCcsICc3LjAnLCAnLXRuJywgJzgnLCAnLW1hJywgJzIwMCcsICctbWV0YWxfYmluZGluZycsICctaW1hZScsICc8aW5maWxlLm1hZT4nLCAnLW9tYWUnLCAnPG91dGZpbGUubWFlPic=

> <r_lp_tautomer_probability>
1

> <r_epik_Ionization_Penalty>
1.06932e-05

> <r_epik_Ionization_Penalty_Charging>
0

> <r_epik_Ionization_Penalty_Neutral>
1.06932e-05

> <r_epik_State_Penalty>
-0

> <r_epik_Charging_Adjusted_Penalty>
0

> <i_epik_Tot_Q>
0

> <i_epik_Tot_abs_Q>
0

> <r_epik_Metal_State_Penalty>
0.0142097

> <b_epik_Metal_Only>
0

> <s_epik_Chemistry_Notes>
This compound contains an acetal/aminal-like group ( X-CH(R)-Y where X, Y are N, S, or O) that may be acid/base labile, releasing an aldehyde.

> <s_lp_Force_Field>
OPLS_2005

> <r_lp_Energy>
46.1789

> <b_lp_Chiralities_Consistent>
1

> <s_lp_Variant>
AV-unprocessed.smi:160-2

> <Gold.Version>
5.8.1

> <Gold.Id.Protein>
6NUR|6NUR_protein|mol2

> <Gold.PLP.Fitness>
40.2366

> <Gold.PLP.PLP>
-25.0196

> <Gold.PLP.part.hbond>
-5.8128

> <Gold.PLP.part.metal>
0.0000

> <Gold.PLP.part.buried>
-0.2874

> <Gold.PLP.part.nonpolar>
-22.8237

> <Gold.PLP.part.repulsive>
4.1542

> <Gold.PLP.ligand.clash>
0.0000

> <Gold.PLP.ligand.torsion>
0.0317

> <Gold.PLP.Chemscore.Hbond>
4.0880

> <Gold.PLP.Chemscore.CHOScore>
1.0000

> <Gold.PLP.Chemscore.Metal>
0.0000

> <Gold.Chemscore.Hbonds>
donor molecule, donor type, donor heavy atom, donor atom, acceptor molecule, acceptor atom, score
      L1  H    12    27       P1  7957  0.52
      L1  H    14    28       P1 10175  0.85
      P1  H  7954  7966       L1    12  0.82
      P1  H  7989  7998       L1    17  0.60
      P1  H  7997  8010       L1     3  0.96
      L1  C     6    24       P1  8028  0.74

> <Gold.PLP.Chemscore.Internal.Correction>
0.0165

> <Gold.Rescore>
     Score         DG    S(hbond)    S(metal)    S(lipo)     H(rot)  DE(clash)    DE(int)     intcor
      4.71      -7.10       2.73        0.00      24.88       4.06       2.04       0.35       ----

> <Gold.Chemscore.Fitness>
4.7070

> <Gold.Chemscore.DG>
-7.1039

> <Gold.Chemscore.ZeroCoef>
-5.4800

> <Gold.Chemscore.Hbond>
2.7264

> <Gold.Chemscore.Metal>
0.0000

> <Gold.Chemscore.Lipo>
24.8833

> <Gold.Chemscore.Internal_Hbond>
0.0000

> <Gold.Chemscore.DEClash>
2.0445

> <Gold.Chemscore.DEInternal>
0.3524

> <Gold.Chemscore.Rot>
4.0600

> <Gold.Chemscore.Internal.Correction>
   9.000000E+99

> <Gold.Chemscore.Hbonds>
donor molecule, donor type, donor heavy atom, donor atom, acceptor molecule, acceptor atom, score
      L1  H    12    27       P1  7957  0.48
      L1  H    14    28       P1 10175  0.80
      P1  H  7954  7966       L1    12  0.49
      P1  H  7989  7998       L1    17  0.03
      P1  H  7997  8010       L1     3  0.91

> <Gold.Chemscore.Hbond.Weighted>
-9.1062

> <Gold.Chemscore.Metal.Weighted>
-0.0000

> <Gold.Chemscore.Lipo.Weighted>
-2.9113

> <Gold.Chemscore.Internal_Hbond.Weighted>
0.0000

> <Gold.Chemscore.DEClash.Weighted>
2.0445

> <Gold.Chemscore.DEInternal.Weighted>
0.3524

> <Gold.Chemscore.Rot.Weighted>
10.3936

> <Gold.Chemscore.Internal.Correction.Weighted>
   9.000000E+99

> <Gold.Protein.RotatedTorsions>
[ 6907 6896 6895 6894 ] final -161.39 input  -60.11 | X-H torsion
[ 7974 7965 7964 7962 ] final  112.65 input  175.53 | X-H torsion
[ 8008 7997 7996 7995 ] final   41.27 input   59.86 | X-H torsion
[ 10167 10162 10161 10158 ] final   75.50 input  -65.29 | X-H torsion
[ 10718 10713 10712 10709 ] final -112.92 input   66.30 | X-H torsion
[ 10763 10752 10751 10750 ] final  160.45 input  -60.55 | X-H torsion
[ 11005 11000 10999 10996 ] final    7.64 input  -57.11 | X-H torsion

> <Gold.Protein.ActiveResidues>
 VAL166  LYS551  ARG553  GLY616  TRP617  ASP618  TYR619  PRO620  LYS621  CYS622 
 ASP623  PHE694  ASN695  SER759  ASP760  ASP761  ALA762  ILE779  LEU786  VAL792 
 PHE793  MET794  SER795  GLU796  ALA797  LYS798  CYS799  TRP800  GLU811  SER814 

> <Gold.Protein.RotatedAtoms>
  151.3639  133.3879  159.2692 H   0  0  0  0  0  0  0  0  0  0  0  0  # atno 6907 bound_to 6896
  150.9703  134.9078  159.7794 H   0  0  0  0  0  0  0  0  0  0  0  0  # atno 6908 bound_to 6896
  152.5182  134.3601  159.9334 H   0  0  0  0  0  0  0  0  0  0  0  0  # atno 6909 bound_to 6896
  145.2269  139.2837  143.4188 H   0  0  0  0  0  0  0  0  0  0  0  0  # atno 7974 bound_to 7965
  155.2668  140.3363  155.4268 H   0  0  0  0  0  0  0  0  0  0  0  0  # atno 8008 bound_to 7997
  156.2150  140.1785  156.7651 H   0  0  0  0  0  0  0  0  0  0  0  0  # atno 8009 bound_to 7997
  154.5741  140.0665  156.8992 H   0  0  0  0  0  0  0  0  0  0  0  0  # atno 8010 bound_to 7997
  140.0022  144.5677  150.7727 H   0  0  0  0  0  0  0  0  0  0  0  0  # atno 10167 bound_to 10162
  156.0735  130.5946  150.8573 H   0  0  0  0  0  0  0  0  0  0  0  0  # atno 10718 bound_to 10713
  154.2475  135.2772  155.2829 H   0  0  0  0  0  0  0  0  0  0  0  0  # atno 10763 bound_to 10752
  154.5493  135.5680  153.6911 H   0  0  0  0  0  0  0  0  0  0  0  0  # atno 10764 bound_to 10752
  152.9987  135.6270  154.2621 H   0  0  0  0  0  0  0  0  0  0  0  0  # atno 10765 bound_to 10752
  140.5460  134.0329  155.7920 H   0  0  0  0  0  0  0  0  0  0  0  0  # atno 11005 bound_to 11000
  146.3362  140.2592  142.8601 LP  0  0  0  0  0  0  0  0  0  0  0  0  # atno 17320 bound_to 7965
  144.9713  140.8371  143.5454 LP  0  0  0  0  0  0  0  0  0  0  0  0  # atno 17321 bound_to 7965
  140.7414  143.2818  151.3578 LP  0  0  0  0  0  0  0  0  0  0  0  0  # atno 17342 bound_to 10162
  139.6263  144.0807  152.2437 LP  0  0  0  0  0  0  0  0  0  0  0  0  # atno 17343 bound_to 10162
  157.5818  131.0946  150.9258 LP  0  0  0  0  0  0  0  0  0  0  0  0  # atno 17370 bound_to 10713
  156.9452  130.5399  149.5281 LP  0  0  0  0  0  0  0  0  0  0  0  0  # atno 17371 bound_to 10713
  141.1200  133.9478  157.2749 LP  0  0  0  0  0  0  0  0  0  0  0  0  # atno 17394 bound_to 11000
  139.9479  135.0181  156.8908 LP  0  0  0  0  0  0  0  0  0  0  0  0  # atno 17395 bound_to 11000

$$$$
