AV-unprocessed.smi:3046|AV-procd|sdf|11613|dock10
  -GOLD-   2272016593D 1   1.00000     0.00000
 Structure written by MMmdl.
 38 38  0  0  0  0  0  0  0  0  2 V2000
  152.3440  138.2217  154.5740 C   0  0  0  0  0  0  0  0  0  0  0  0
  151.0651  138.0689  154.9491 C   0  0  0  0  0  0  0  0  0  0  0  0
  149.8808  138.6673  154.2212 C   0  0  0  0  0  0  0  0  0  0  0  0
  148.8563  137.6579  153.9981 N   0  0  0  0  0  0  0  0  0  0  0  0
  147.9978  137.2296  154.9352 C   0  0  0  0  0  0  0  0  0  0  0  0
  147.9913  137.6609  156.0890 O   0  0  0  0  0  0  0  0  0  0  0  0
  146.9885  136.1609  154.4988 C   0  0  2  0  0  0  0  0  0  0  0  0
  146.1884  135.6617  155.7153 C   0  0  0  0  0  0  0  0  0  0  0  0
  147.6847  135.0382  153.8261 N   0  3  0  0  0  0  0  0  0  0  0  0
  146.8197  134.0057  153.2115 C   0  0  2  0  0  0  0  0  0  0  0  0
  147.6402  132.7243  152.9898 C   0  0  0  0  0  0  0  0  0  0  0  0
  146.1857  134.5324  151.9028 C   0  0  0  0  0  0  0  0  0  0  0  0
  145.4136  133.5255  151.1972 N   0  0  0  0  0  0  0  0  0  0  0  0
  145.8579  132.3630  150.6025 C   0  0  0  0  0  0  0  0  0  0  0  0
  144.7705  131.7479  150.0514 C   0  0  0  0  0  0  0  0  0  0  0  0
  143.6935  132.6258  150.3580 C   0  0  0  0  0  0  0  0  0  0  0  0
  144.0826  133.6914  151.0398 N   0  0  0  0  0  0  0  0  0  0  0  0
  152.6087  138.7975  153.6990 H   0  0  0  0  0  0  0  0  0  0  0  0
  153.1455  137.7707  155.1404 H   0  0  0  0  0  0  0  0  0  0  0  0
  150.8424  137.4889  155.8329 H   0  0  0  0  0  0  0  0  0  0  0  0
  149.4730  139.4785  154.8257 H   0  0  0  0  0  0  0  0  0  0  0  0
  150.1978  139.0938  153.2681 H   0  0  0  0  0  0  0  0  0  0  0  0
  148.7951  137.2635  153.0703 H   0  0  0  0  0  0  0  0  0  0  0  0
  146.3027  136.6296  153.7925 H   0  0  0  0  0  0  0  0  0  0  0  0
  145.6892  136.4859  156.2265 H   0  0  0  0  0  0  0  0  0  0  0  0
  146.8336  135.1648  156.4413 H   0  0  0  0  0  0  0  0  0  0  0  0
  145.4138  134.9528  155.4234 H   0  0  0  0  0  0  0  0  0  0  0  0
  148.2743  135.4191  153.0997 H   0  0  0  0  0  0  0  0  0  0  0  0
  146.0246  133.7594  153.9157 H   0  0  0  0  0  0  0  0  0  0  0  0
  147.0205  131.9095  152.6144 H   0  0  0  0  0  0  0  0  0  0  0  0
  148.0893  132.3814  153.9225 H   0  0  0  0  0  0  0  0  0  0  0  0
  148.4456  132.8873  152.2728 H   0  0  0  0  0  0  0  0  0  0  0  0
  145.5259  135.3778  152.0979 H   0  0  0  0  0  0  0  0  0  0  0  0
  146.9644  134.8979  151.2319 H   0  0  0  0  0  0  0  0  0  0  0  0
  146.8981  132.0722  150.6215 H   0  0  0  0  0  0  0  0  0  0  0  0
  144.7483  130.8145  149.5086 H   0  0  0  0  0  0  0  0  0  0  0  0
  142.6485  132.5223  150.1052 H   0  0  0  0  0  0  0  0  0  0  0  0
  148.2801  134.5979  154.5130 H   0  0  0  0  0  0  0  0  0  0  0  0
  1  2  2  0  0  0  0
  1 18  1  0  0  0  0
  1 19  1  0  0  0  0
  2  3  1  0  0  0  0
  2 20  1  0  0  0  0
  3  4  1  0  0  0  0
  3 21  1  0  0  0  0
  3 22  1  0  0  0  0
  4  5  1  0  0  0  0
  4 23  1  0  0  0  0
  5  6  2  0  0  0  0
  5  7  1  0  0  0  0
  7  8  1  0  0  0  0
  7  9  1  0  0  0  0
  7 24  1  0  0  0  0
  8 25  1  0  0  0  0
  8 26  1  0  0  0  0
  8 27  1  0  0  0  0
  9 10  1  0  0  0  0
  9 28  1  0  0  0  0
  9 38  1  0  0  0  0
 10 11  1  0  0  0  0
 10 12  1  0  0  0  0
 10 29  1  0  0  0  0
 11 30  1  0  0  0  0
 11 31  1  0  0  0  0
 11 32  1  0  0  0  0
 12 13  1  0  0  0  0
 12 33  1  0  0  0  0
 12 34  1  0  0  0  0
 13 17  1  0  0  0  0
 13 14  1  0  0  0  0
 14 15  2  0  0  0  0
 14 35  1  0  0  0  0
 15 16  1  0  0  0  0
 15 36  1  0  0  0  0
 16 17  2  0  0  0  0
 16 37  1  0  0  0  0
M  CHG  1   9   1
M  END
> <s_m_source_file>
AV-unprocessed.smi

> <i_m_source_file_index>
3046

> <i_lp_mmshare_version>
43012

> <i_f3d_flags>
0

> <s_epik_input>
W0NIMl09W0NIXVtDSDJdW05IXUMoPU8pW0NASF0oW0NIM10pW05IXVtDQEhdKFtDSDNdKVtDSDJdbjFbY0hdW2NIXVtjSF1uMQ==

> <s_epik_cmdline>
J2VwaWtfcHl0aG9uJywgJy1waCcsICc3LjAnLCAnLXRuJywgJzgnLCAnLW1hJywgJzIwMCcsICctbWV0YWxfYmluZGluZycsICctaW1hZScsICc8aW5maWxlLm1hZT4nLCAnLW9tYWUnLCAnPG91dGZpbGUubWFlPic=

> <r_lp_tautomer_probability>
1

> <r_epik_Ionization_Penalty>
0.132961

> <r_epik_Ionization_Penalty_Charging>
0.132956

> <r_epik_Ionization_Penalty_Neutral>
5.00268e-06

> <r_epik_State_Penalty>
0.122332

> <r_epik_Charging_Adjusted_Penalty>
0.255288

> <i_epik_Tot_Q>
1

> <i_epik_Tot_abs_Q>
1

> <r_epik_Metal_State_Penalty>
0.122338

> <b_epik_Metal_Only>
0

> <s_lp_Force_Field>
OPLS_2005

> <r_lp_Energy>
6.28532

> <b_lp_Chiralities_Consistent>
1

> <s_lp_Variant>
AV-unprocessed.smi:3046-1

> <Gold.Version>
5.8.1

> <Gold.Id.Protein>
6NUR|6NUR_protein|mol2

> <Gold.PLP.Fitness>
42.5524

> <Gold.PLP.PLP>
-28.2057

> <Gold.PLP.part.hbond>
-2.0000

> <Gold.PLP.part.metal>
0.0000

> <Gold.PLP.part.buried>
-3.8288

> <Gold.PLP.part.nonpolar>
-23.1610

> <Gold.PLP.part.repulsive>
0.1810

> <Gold.PLP.ligand.clash>
0.0000

> <Gold.PLP.ligand.torsion>
0.5035

> <Gold.PLP.Chemscore.Hbond>
3.0000

> <Gold.PLP.Chemscore.CHOScore>
2.1010

> <Gold.PLP.Chemscore.Metal>
0.0000

> <Gold.Chemscore.Hbonds>
donor molecule, donor type, donor heavy atom, donor atom, acceptor molecule, acceptor atom, score
      L1  H     4    23       P1  7948  1.00
      L1  H     9    28       P1  7948  2.00
      L1  C    14    35       P1 10747  1.00
      L1  C    16    37       P1 10186  0.86
      L1  C    16    37       P1 10952  0.12

> <Gold.PLP.Chemscore.Internal.Correction>
0.0507

> <Gold.Rescore>
     Score         DG    S(hbond)    S(metal)    S(lipo)     H(rot)  DE(clash)    DE(int)     intcor
     13.60     -14.61       1.95        0.00      71.92       2.26       0.24       0.76       ----

> <Gold.Chemscore.Fitness>
13.6016

> <Gold.Chemscore.DG>
-14.6075

> <Gold.Chemscore.ZeroCoef>
-5.4800

> <Gold.Chemscore.Hbond>
1.9475

> <Gold.Chemscore.Metal>
0.0000

> <Gold.Chemscore.Lipo>
71.9239

> <Gold.Chemscore.Internal_Hbond>
0.0000

> <Gold.Chemscore.DEClash>
0.2446

> <Gold.Chemscore.DEInternal>
0.7613

> <Gold.Chemscore.Rot>
2.2626

> <Gold.Chemscore.Internal.Correction>
   9.000000E+99

> <Gold.Chemscore.Hbonds>
donor molecule, donor type, donor heavy atom, donor atom, acceptor molecule, acceptor atom, score
      L1  H     4    23       P1  7948  0.97
      L1  H     9    28       P1  7948  0.98

> <Gold.Chemscore.Hbond.Weighted>
-6.5045

> <Gold.Chemscore.Metal.Weighted>
-0.0000

> <Gold.Chemscore.Lipo.Weighted>
-8.4151

> <Gold.Chemscore.Internal_Hbond.Weighted>
0.0000

> <Gold.Chemscore.DEClash.Weighted>
0.2446

> <Gold.Chemscore.DEInternal.Weighted>
0.7613

> <Gold.Chemscore.Rot.Weighted>
5.7922

> <Gold.Chemscore.Internal.Correction.Weighted>
   9.000000E+99

> <Gold.Protein.RotatedTorsions>
[ 6907 6896 6895 6894 ] final  148.78 input  -60.11 | X-H torsion
[ 7974 7965 7964 7962 ] final -102.31 input  175.53 | X-H torsion
[ 8008 7997 7996 7995 ] final -119.00 input   59.86 | X-H torsion
[ 10167 10162 10161 10158 ] final  138.60 input  -65.29 | X-H torsion
[ 10718 10713 10712 10709 ] final  -61.37 input   66.30 | X-H torsion
[ 10763 10752 10751 10750 ] final  164.38 input  -60.55 | X-H torsion
[ 11005 11000 10999 10996 ] final  -76.99 input  -57.11 | X-H torsion

> <Gold.Protein.ActiveResidues>
 VAL166  LYS551  ARG553  GLY616  TRP617  ASP618  TYR619  PRO620  LYS621  CYS622 
 ASP623  PHE694  ASN695  SER759  ASP760  ASP761  ALA762  ILE779  LEU786  VAL792 
 PHE793  MET794  SER795  GLU796  ALA797  LYS798  CYS799  TRP800  GLU811  SER814 

> <Gold.Protein.RotatedAtoms>
  152.1368  133.4440  159.4747 H   0  0  0  0  0  0  0  0  0  0  0  0  # atno 6907 bound_to 6896
  150.6882  134.2353  159.4460 H   0  0  0  0  0  0  0  0  0  0  0  0  # atno 6908 bound_to 6896
  152.0241  134.9805  160.0622 H   0  0  0  0  0  0  0  0  0  0  0  0  # atno 6909 bound_to 6896
  145.2704  140.9297  143.2989 H   0  0  0  0  0  0  0  0  0  0  0  0  # atno 7974 bound_to 7965
  155.1087  140.0397  157.2718 H   0  0  0  0  0  0  0  0  0  0  0  0  # atno 8008 bound_to 7997
  154.6702  140.2610  155.6990 H   0  0  0  0  0  0  0  0  0  0  0  0  # atno 8009 bound_to 7997
  156.2655  140.2799  156.1208 H   0  0  0  0  0  0  0  0  0  0  0  0  # atno 8010 bound_to 7997
  139.5105  144.6344  151.5735 H   0  0  0  0  0  0  0  0  0  0  0  0  # atno 10167 bound_to 10162
  156.0926  130.4198  150.0984 H   0  0  0  0  0  0  0  0  0  0  0  0  # atno 10718 bound_to 10713
  154.3081  135.2758  155.2579 H   0  0  0  0  0  0  0  0  0  0  0  0  # atno 10763 bound_to 10752
  154.4986  135.5814  153.6517 H   0  0  0  0  0  0  0  0  0  0  0  0  # atno 10764 bound_to 10752
  152.9891  135.6152  154.3256 H   0  0  0  0  0  0  0  0  0  0  0  0  # atno 10765 bound_to 10752
  141.1657  133.7005  156.7753 H   0  0  0  0  0  0  0  0  0  0  0  0  # atno 11005 bound_to 11000
  144.9340  139.4265  143.6481 LP  0  0  0  0  0  0  0  0  0  0  0  0  # atno 17320 bound_to 7965
  146.3248  139.8266  142.8916 LP  0  0  0  0  0  0  0  0  0  0  0  0  # atno 17321 bound_to 7965
  140.6087  143.9476  150.6437 LP  0  0  0  0  0  0  0  0  0  0  0  0  # atno 17342 bound_to 10162
  140.2711  143.3455  152.1237 LP  0  0  0  0  0  0  0  0  0  0  0  0  # atno 17343 bound_to 10162
  156.8991  130.9614  151.3578 LP  0  0  0  0  0  0  0  0  0  0  0  0  # atno 17370 bound_to 10713
  157.6079  130.8561  149.8905 LP  0  0  0  0  0  0  0  0  0  0  0  0  # atno 17371 bound_to 10713
  140.2434  134.8596  157.3596 LP  0  0  0  0  0  0  0  0  0  0  0  0  # atno 17394 bound_to 11000
  140.1773  134.4533  155.7793 LP  0  0  0  0  0  0  0  0  0  0  0  0  # atno 17395 bound_to 11000

$$$$
