AV-unprocessed.smi:1570|AV-procd|sdf|6325|dock5
  -GOLD-   22720 6533D 1   1.00000     0.00000
 Structure written by MMmdl.
 52 54  0  0  0  0  0  0  0  0  2 V2000
  155.0941  140.2029  160.1941 C   0  0  0  0  0  0  0  0  0  0  0  0
  153.8269  140.8554  160.7602 C   0  0  0  0  0  0  0  0  0  0  0  0
  152.8429  141.1008  159.7091 N   0  0  0  0  0  0  0  0  0  0  0  0
  152.2138  140.1661  158.9589 C   0  0  0  0  0  0  0  0  0  0  0  0
  152.3623  138.9469  159.0438 O   0  0  0  0  0  0  0  0  0  0  0  0
  151.3733  140.8040  158.1103 N   0  0  0  0  0  0  0  0  0  0  0  0
  150.4885  140.1747  157.1322 C   0  0  0  0  0  0  0  0  0  0  0  0
  150.6181  140.8339  155.7434 C   0  0  1  0  0  0  0  0  0  0  0  0
  151.9803  140.7965  155.3647 O   0  0  0  0  0  0  0  0  0  0  0  0
  149.8128  140.0701  154.6724 C   0  0  0  0  0  0  0  0  0  0  0  0
  148.4217  139.7689  155.1079 N   0  3  1  0  0  0  0  0  0  0  0  0
  147.6671  140.9656  155.5526 C   0  0  0  0  0  0  0  0  0  0  0  0
  147.1659  141.7911  154.3500 C   0  0  2  0  0  0  0  0  0  0  0  0
  146.3093  142.9839  154.7881 C   0  0  0  0  0  0  0  0  0  0  0  0
  146.3675  140.9559  153.5184 O   0  0  0  0  0  0  0  0  0  0  0  0
  147.0921  139.8537  152.9825 C   0  0  2  0  0  0  0  0  0  0  0  0
  146.1544  139.0741  152.0543 C   0  0  0  0  0  0  0  0  0  0  0  0
  147.6162  138.9786  154.1413 C   0  0  0  0  0  0  0  0  0  0  0  0
  151.4444  142.1845  158.3445 C   0  0  0  0  0  0  0  0  0  0  0  0
  150.7596  143.2609  157.7537 C   0  0  0  0  0  0  0  0  0  0  0  0
  151.0558  144.5579  158.2349 C   0  0  0  0  0  0  0  0  0  0  0  0
  152.0054  144.7494  159.2716 C   0  0  0  0  0  0  0  0  0  0  0  0
  152.6798  143.6483  159.8494 C   0  0  0  0  0  0  0  0  0  0  0  0
  152.3683  142.3710  159.3516 C   0  0  0  0  0  0  0  0  0  0  0  0
  155.8222  140.0213  160.9846 H   0  0  0  0  0  0  0  0  0  0  0  0
  155.5669  140.8409  159.4468 H   0  0  0  0  0  0  0  0  0  0  0  0
  154.8684  139.2450  159.7241 H   0  0  0  0  0  0  0  0  0  0  0  0
  153.3894  140.2185  161.5296 H   0  0  0  0  0  0  0  0  0  0  0  0
  154.0823  141.7938  161.2554 H   0  0  0  0  0  0  0  0  0  0  0  0
  150.6586  139.0983  157.0841 H   0  0  0  0  0  0  0  0  0  0  0  0
  149.4671  140.2872  157.4996 H   0  0  0  0  0  0  0  0  0  0  0  0
  150.2893  141.8713  155.7935 H   0  0  0  0  0  0  0  0  0  0  0  0
  152.0433  140.4343  154.4939 H   0  0  0  0  0  0  0  0  0  0  0  0
  149.7911  140.6729  153.7631 H   0  0  0  0  0  0  0  0  0  0  0  0
  150.3234  139.1450  154.4050 H   0  0  0  0  0  0  0  0  0  0  0  0
  146.8145  140.6293  156.1443 H   0  0  0  0  0  0  0  0  0  0  0  0
  148.2776  141.5764  156.2186 H   0  0  0  0  0  0  0  0  0  0  0  0
  148.0125  142.1692  153.7745 H   0  0  0  0  0  0  0  0  0  0  0  0
  146.8778  143.6632  155.4236 H   0  0  0  0  0  0  0  0  0  0  0  0
  145.4324  142.6566  155.3473 H   0  0  0  0  0  0  0  0  0  0  0  0
  145.9610  143.5513  153.9248 H   0  0  0  0  0  0  0  0  0  0  0  0
  147.9235  140.2290  152.3848 H   0  0  0  0  0  0  0  0  0  0  0  0
  146.6657  138.2225  151.6049 H   0  0  0  0  0  0  0  0  0  0  0  0
  145.7917  139.7081  151.2448 H   0  0  0  0  0  0  0  0  0  0  0  0
  145.2861  138.6959  152.5948 H   0  0  0  0  0  0  0  0  0  0  0  0
  148.1794  138.1297  153.7564 H   0  0  0  0  0  0  0  0  0  0  0  0
  146.7691  138.5556  154.6833 H   0  0  0  0  0  0  0  0  0  0  0  0
  150.0337  143.1101  156.9686 H   0  0  0  0  0  0  0  0  0  0  0  0
  150.5505  145.4126  157.8095 H   0  0  0  0  0  0  0  0  0  0  0  0
  152.2144  145.7482  159.6258 H   0  0  0  0  0  0  0  0  0  0  0  0
  153.3997  143.7879  160.6423 H   0  0  0  0  0  0  0  0  0  0  0  0
  148.5311  139.1915  155.9299 H   0  0  0  0  0  0  0  0  0  0  0  0
  1  2  1  0  0  0  0
  1 25  1  0  0  0  0
  1 26  1  0  0  0  0
  1 27  1  0  0  0  0
  2  3  1  0  0  0  0
  2 28  1  0  0  0  0
  2 29  1  0  0  0  0
  3 24  1  0  0  0  0
  3  4  1  0  0  0  0
  4  5  2  0  0  0  0
  4  6  1  0  0  0  0
  6  7  1  0  0  0  0
  6 19  1  0  0  0  0
  7  8  1  0  0  0  0
  7 30  1  0  0  0  0
  7 31  1  0  0  0  0
  8  9  1  0  0  0  0
  8 10  1  0  0  0  0
  8 32  1  0  0  0  0
  9 33  1  0  0  0  0
 10 11  1  0  0  0  0
 10 34  1  0  0  0  0
 10 35  1  0  0  0  0
 11 18  1  0  0  0  0
 11 12  1  0  0  0  0
 11 52  1  0  0  0  0
 12 13  1  0  0  0  0
 12 36  1  0  0  0  0
 12 37  1  0  0  0  0
 13 14  1  0  0  0  0
 13 15  1  0  0  0  0
 13 38  1  0  0  0  0
 14 39  1  0  0  0  0
 14 40  1  0  0  0  0
 14 41  1  0  0  0  0
 15 16  1  0  0  0  0
 16 17  1  0  0  0  0
 16 18  1  0  0  0  0
 16 42  1  0  0  0  0
 17 43  1  0  0  0  0
 17 44  1  0  0  0  0
 17 45  1  0  0  0  0
 18 46  1  0  0  0  0
 18 47  1  0  0  0  0
 19 24  2  0  0  0  0
 19 20  1  0  0  0  0
 20 21  2  0  0  0  0
 20 48  1  0  0  0  0
 21 22  1  0  0  0  0
 21 49  1  0  0  0  0
 22 23  2  0  0  0  0
 22 50  1  0  0  0  0
 23 24  1  0  0  0  0
 23 51  1  0  0  0  0
M  CHG  1  11   1
M  END
> <s_m_source_file>
AV-unprocessed.smi

> <i_m_source_file_index>
1570

> <i_lp_mmshare_version>
43012

> <i_f3d_flags>
0

> <s_epik_input>
W2NIXTFbY0hdW2NIXVtjSF1jKGMxMiluKFtDSDJdW0NIM10pYyg9TyluMltDSDJdW0NASF0oW09IXSlbQ0gyXU4zW0NIMl1bQ0BASF0oW0NIM10pT1tDQEBIXShbQ0gzXSlbQ0gyXTM=

> <s_epik_cmdline>
J2VwaWtfcHl0aG9uJywgJy1waCcsICc3LjAnLCAnLXRuJywgJzgnLCAnLW1hJywgJzIwMCcsICctbWV0YWxfYmluZGluZycsICctaW1hZScsICc8aW5maWxlLm1hZT4nLCAnLW9tYWUnLCAnPG91dGZpbGUubWFlPic=

> <r_epik_Ionization_Penalty>
0.706332

> <r_epik_Ionization_Penalty_Charging>
0.706318

> <r_epik_Ionization_Penalty_Neutral>
1.42224e-05

> <r_epik_State_Penalty>
0.729493

> <r_epik_Charging_Adjusted_Penalty>
1.43581

> <i_epik_Tot_Q>
1

> <i_epik_Tot_abs_Q>
1

> <r_epik_Metal_State_Penalty>
0.729493

> <b_epik_Metal_Only>
0

> <s_lp_Force_Field>
OPLS_2005

> <r_lp_Energy>
54.0737

> <b_lp_Chiralities_Consistent>
1

> <s_lp_Variant>
AV-unprocessed.smi:1570-14

> <Gold.Version>
5.8.1

> <Gold.Id.Protein>
6NUR|6NUR_protein|mol2

> <Gold.PLP.Fitness>
54.1907

> <Gold.PLP.PLP>
-52.4908

> <Gold.PLP.part.hbond>
-1.8522

> <Gold.PLP.part.metal>
0.0000

> <Gold.PLP.part.buried>
-0.4888

> <Gold.PLP.part.nonpolar>
-51.1073

> <Gold.PLP.part.repulsive>
0.2104

> <Gold.PLP.ligand.clash>
0.0000

> <Gold.PLP.ligand.torsion>
0.2121

> <Gold.PLP.Chemscore.Hbond>
0.6825

> <Gold.PLP.Chemscore.CHOScore>
0.0000

> <Gold.PLP.Chemscore.Metal>
0.0000

> <Gold.PLP.Chemscore.Internal.Correction>
0.0766

> <Gold.Rescore>
     Score         DG    S(hbond)    S(metal)    S(lipo)     H(rot)  DE(clash)    DE(int)     intcor
     15.67     -15.87       0.02        0.00     134.86       2.13       0.04       0.17       ----

> <Gold.Chemscore.Fitness>
15.6670

> <Gold.Chemscore.DG>
-15.8686

> <Gold.Chemscore.ZeroCoef>
-5.4800

> <Gold.Chemscore.Hbond>
0.0189

> <Gold.Chemscore.Metal>
0.0000

> <Gold.Chemscore.Lipo>
134.8618

> <Gold.Chemscore.Internal_Hbond>
0.0000

> <Gold.Chemscore.DEClash>
0.0354

> <Gold.Chemscore.DEInternal>
0.1662

> <Gold.Chemscore.Rot>
2.1303

> <Gold.Chemscore.Internal.Correction>
   9.000000E+99

> <Gold.Chemscore.Hbond.Weighted>
-0.0633

> <Gold.Chemscore.Metal.Weighted>
-0.0000

> <Gold.Chemscore.Lipo.Weighted>
-15.7788

> <Gold.Chemscore.Internal_Hbond.Weighted>
0.0000

> <Gold.Chemscore.DEClash.Weighted>
0.0354

> <Gold.Chemscore.DEInternal.Weighted>
0.1662

> <Gold.Chemscore.Rot.Weighted>
5.4535

> <Gold.Chemscore.Internal.Correction.Weighted>
   9.000000E+99

> <Gold.Protein.RotatedTorsions>
[ 6907 6896 6895 6894 ] final  -93.38 input  -60.11 | X-H torsion
[ 7974 7965 7964 7962 ] final -120.75 input  175.53 | X-H torsion
[ 8008 7997 7996 7995 ] final  -42.45 input   59.86 | X-H torsion
[ 10167 10162 10161 10158 ] final  147.30 input  -65.29 | X-H torsion
[ 10718 10713 10712 10709 ] final   19.06 input   66.30 | X-H torsion
[ 10763 10752 10751 10750 ] final -168.50 input  -60.55 | X-H torsion
[ 11005 11000 10999 10996 ] final  132.17 input  -57.11 | X-H torsion

> <Gold.Protein.ActiveResidues>
 VAL166  LYS551  ARG553  GLY616  TRP617  ASP618  TYR619  PRO620  LYS621  CYS622 
 ASP623  PHE694  ASN695  SER759  ASP760  ASP761  ALA762  ILE779  LEU786  VAL792 
 PHE793  MET794  SER795  GLU796  ALA797  LYS798  CYS799  TRP800  GLU811  SER814 

> <Gold.Protein.RotatedAtoms>
  150.6921  134.1976  159.4309 H   0  0  0  0  0  0  0  0  0  0  0  0  # atno 6907 bound_to 6896
  151.9944  134.9959  160.0572 H   0  0  0  0  0  0  0  0  0  0  0  0  # atno 6908 bound_to 6896
  152.1637  133.4563  159.4911 H   0  0  0  0  0  0  0  0  0  0  0  0  # atno 6909 bound_to 6896
  145.0479  140.8195  143.4227 H   0  0  0  0  0  0  0  0  0  0  0  0  # atno 7974 bound_to 7965
  154.3999  140.1473  156.3358 H   0  0  0  0  0  0  0  0  0  0  0  0  # atno 8008 bound_to 7997
  155.8402  140.3462  155.5606 H   0  0  0  0  0  0  0  0  0  0  0  0  # atno 8009 bound_to 7997
  155.8095  140.0882  157.1902 H   0  0  0  0  0  0  0  0  0  0  0  0  # atno 8010 bound_to 7997
  139.4892  144.5766  151.6954 H   0  0  0  0  0  0  0  0  0  0  0  0  # atno 10167 bound_to 10162
  157.1052  130.6485  149.5882 H   0  0  0  0  0  0  0  0  0  0  0  0  # atno 10718 bound_to 10713
  154.6621  135.2926  154.9852 H   0  0  0  0  0  0  0  0  0  0  0  0  # atno 10763 bound_to 10752
  154.0908  135.6591  153.4856 H   0  0  0  0  0  0  0  0  0  0  0  0  # atno 10764 bound_to 10752
  153.0436  135.5219  154.7578 H   0  0  0  0  0  0  0  0  0  0  0  0  # atno 10765 bound_to 10752
  139.9774  134.9559  156.9543 H   0  0  0  0  0  0  0  0  0  0  0  0  # atno 11005 bound_to 11000
  145.1565  139.2484  143.5414 LP  0  0  0  0  0  0  0  0  0  0  0  0  # atno 17320 bound_to 7965
  146.3515  140.1280  142.8598 LP  0  0  0  0  0  0  0  0  0  0  0  0  # atno 17321 bound_to 7965
  140.5363  144.0650  150.6072 LP  0  0  0  0  0  0  0  0  0  0  0  0  # atno 17342 bound_to 10162
  140.3657  143.2883  152.0334 LP  0  0  0  0  0  0  0  0  0  0  0  0  # atno 17343 bound_to 10162
  155.9864  130.4898  150.7076 LP  0  0  0  0  0  0  0  0  0  0  0  0  # atno 17370 bound_to 10713
  157.4607  131.0883  151.0749 LP  0  0  0  0  0  0  0  0  0  0  0  0  # atno 17371 bound_to 10713
  140.5167  134.0948  155.7282 LP  0  0  0  0  0  0  0  0  0  0  0  0  # atno 17394 bound_to 11000
  141.1449  133.9072  157.2238 LP  0  0  0  0  0  0  0  0  0  0  0  0  # atno 17395 bound_to 11000

$$$$
