AV-unprocessed.smi:1919|AV-procd|sdf|7774|dock2
  -GOLD-   22720 9523D 1   1.00000     0.00000
 Structure written by MMmdl.
 36 38  0  0  0  0  0  0  0  0  1 V2000
  151.4187  136.5659  154.0292 O   0  0  0  0  0  0  0  0  0  0  0  0
  151.5028  137.8111  154.6924 C   0  0  0  0  0  0  0  0  0  0  0  0
  150.2891  138.6798  154.5188 C   0  0  0  0  0  0  0  0  0  0  0  0
  149.2531  138.3366  153.7491 N   0  0  0  0  0  0  0  0  0  0  0  0
  148.3990  139.4129  153.8853 C   0  0  0  0  0  0  0  0  0  0  0  0
  147.1269  139.6543  153.3189 C   0  0  0  0  0  0  0  0  0  0  0  0
  146.4321  140.8473  153.6069 C   0  0  0  0  0  0  0  0  0  0  0  0
  146.9982  141.8143  154.4628 C   0  0  0  0  0  0  0  0  0  0  0  0
  148.2646  141.5931  155.0380 C   0  0  0  0  0  0  0  0  0  0  0  0
  148.9530  140.4000  154.7476 C   0  0  0  0  0  0  0  0  0  0  0  0
  150.1835  139.8828  155.1387 N   0  0  0  0  0  0  0  0  0  0  0  0
  151.1365  140.5304  156.0302 C   0  0  0  0  0  0  0  0  0  0  0  0
  150.5822  140.7132  157.4572 C   0  0  1  0  0  0  0  0  0  0  0  0
  150.7412  139.5187  158.1978 O   0  0  0  0  0  0  0  0  0  0  0  0
  151.2202  141.9075  158.1485 C   0  0  0  0  0  0  0  0  0  0  0  0
  151.2286  143.1778  157.5306 C   0  0  0  0  0  0  0  0  0  0  0  0
  151.8175  144.2796  158.1812 C   0  0  0  0  0  0  0  0  0  0  0  0
  152.3985  144.1185  159.4536 C   0  0  0  0  0  0  0  0  0  0  0  0
  152.3878  142.8557  160.0765 C   0  0  0  0  0  0  0  0  0  0  0  0
  152.9423  142.7005  161.3018 F   0  0  0  0  0  0  0  0  0  0  0  0
  151.7995  141.7537  159.4262 C   0  0  0  0  0  0  0  0  0  0  0  0
  150.9833  136.6958  153.2010 H   0  0  0  0  0  0  0  0  0  0  0  0
  151.6642  137.6197  155.7529 H   0  0  0  0  0  0  0  0  0  0  0  0
  152.3766  138.3453  154.3193 H   0  0  0  0  0  0  0  0  0  0  0  0
  146.6857  138.9198  152.6617 H   0  0  0  0  0  0  0  0  0  0  0  0
  145.4602  141.0211  153.1687 H   0  0  0  0  0  0  0  0  0  0  0  0
  146.4597  142.7258  154.6775 H   0  0  0  0  0  0  0  0  0  0  0  0
  148.7009  142.3312  155.6945 H   0  0  0  0  0  0  0  0  0  0  0  0
  152.0685  139.9656  156.0466 H   0  0  0  0  0  0  0  0  0  0  0  0
  151.3831  141.5036  155.6035 H   0  0  0  0  0  0  0  0  0  0  0  0
  149.5081  140.8933  157.3942 H   0  0  0  0  0  0  0  0  0  0  0  0
  150.3854  138.8037  157.6926 H   0  0  0  0  0  0  0  0  0  0  0  0
  150.7820  143.3117  156.5561 H   0  0  0  0  0  0  0  0  0  0  0  0
  151.8227  145.2486  157.7043 H   0  0  0  0  0  0  0  0  0  0  0  0
  152.8499  144.9634  159.9527 H   0  0  0  0  0  0  0  0  0  0  0  0
  151.7943  140.7896  159.9135 H   0  0  0  0  0  0  0  0  0  0  0  0
  1  2  1  0  0  0  0
  1 22  1  0  0  0  0
  2  3  1  0  0  0  0
  2 23  1  0  0  0  0
  2 24  1  0  0  0  0
  3 11  1  0  0  0  0
  3  4  2  0  0  0  0
  4  5  1  0  0  0  0
  5 10  2  0  0  0  0
  5  6  1  0  0  0  0
  6  7  2  0  0  0  0
  6 25  1  0  0  0  0
  7  8  1  0  0  0  0
  7 26  1  0  0  0  0
  8  9  2  0  0  0  0
  8 27  1  0  0  0  0
  9 10  1  0  0  0  0
  9 28  1  0  0  0  0
 10 11  1  0  0  0  0
 11 12  1  0  0  0  0
 12 13  1  0  0  0  0
 12 29  1  0  0  0  0
 12 30  1  0  0  0  0
 13 14  1  0  0  0  0
 13 15  1  0  0  0  0
 13 31  1  0  0  0  0
 14 32  1  0  0  0  0
 15 21  1  0  0  0  0
 15 16  2  0  0  0  0
 16 17  1  0  0  0  0
 16 33  1  0  0  0  0
 17 18  2  0  0  0  0
 17 34  1  0  0  0  0
 18 19  1  0  0  0  0
 18 35  1  0  0  0  0
 19 20  1  0  0  0  0
 19 21  2  0  0  0  0
 21 36  1  0  0  0  0
M  END
> <s_m_source_file>
AV-unprocessed.smi

> <i_m_source_file_index>
1919

> <i_lp_mmshare_version>
43012

> <i_f3d_flags>
0

> <s_epik_input>
W2NIXTFbY0hdW2NIXVtjSF1jKGMxMiluKGMobjIpW0NIMl1bT0hdKVtDSDJdW0NASF0oW09IXSljM1tjSF1bY0hdW2NIXWMoRilbY0hdMw==

> <s_epik_cmdline>
J2VwaWtfcHl0aG9uJywgJy1waCcsICc3LjAnLCAnLXRuJywgJzgnLCAnLW1hJywgJzIwMCcsICctbWV0YWxfYmluZGluZycsICctaW1hZScsICc8aW5maWxlLm1hZT4nLCAnLW9tYWUnLCAnPG91dGZpbGUubWFlPic=

> <r_epik_Ionization_Penalty>
0.0634732

> <r_epik_Ionization_Penalty_Charging>
0

> <r_epik_Ionization_Penalty_Neutral>
0.0634732

> <r_epik_State_Penalty>
0.0551572

> <r_epik_Charging_Adjusted_Penalty>
0.0551572

> <i_epik_Tot_Q>
0

> <i_epik_Tot_abs_Q>
0

> <r_epik_Metal_State_Penalty>
5.78034e-05

> <b_epik_Metal_Only>
0

> <s_lp_Force_Field>
OPLS_2005

> <r_lp_Energy>
10.9494

> <b_lp_Chiralities_Consistent>
1

> <s_lp_Variant>
AV-unprocessed.smi:1919-2

> <Gold.Version>
5.8.1

> <Gold.Id.Protein>
6NUR|6NUR_protein|mol2

> <Gold.PLP.Fitness>
54.6349

> <Gold.PLP.PLP>
-50.0779

> <Gold.PLP.part.hbond>
-2.0000

> <Gold.PLP.part.metal>
0.0000

> <Gold.PLP.part.buried>
-1.9248

> <Gold.PLP.part.nonpolar>
-47.5121

> <Gold.PLP.part.repulsive>
1.4908

> <Gold.PLP.ligand.clash>
0.0000

> <Gold.PLP.ligand.torsion>
0.3762

> <Gold.PLP.Chemscore.Hbond>
1.7520

> <Gold.PLP.Chemscore.CHOScore>
0.0000

> <Gold.PLP.Chemscore.Metal>
0.0000

> <Gold.Chemscore.Hbonds>
donor molecule, donor type, donor heavy atom, donor atom, acceptor molecule, acceptor atom, score
      L1  H     1    22       P1  7949  0.67
      P1  H 10752 10765       L1     1  1.00

> <Gold.PLP.Chemscore.Internal.Correction>
0.0536

> <Gold.Rescore>
     Score         DG    S(hbond)    S(metal)    S(lipo)     H(rot)  DE(clash)    DE(int)     intcor
     16.70     -17.35       1.39        0.00     121.88       2.75       0.23       0.41       ----

> <Gold.Chemscore.Fitness>
16.7023

> <Gold.Chemscore.DG>
-17.3502

> <Gold.Chemscore.ZeroCoef>
-5.4800

> <Gold.Chemscore.Hbond>
1.3924

> <Gold.Chemscore.Metal>
0.0000

> <Gold.Chemscore.Lipo>
121.8761

> <Gold.Chemscore.Internal_Hbond>
0.0000

> <Gold.Chemscore.DEClash>
0.2342

> <Gold.Chemscore.DEInternal>
0.4138

> <Gold.Chemscore.Rot>
2.7500

> <Gold.Chemscore.Internal.Correction>
   9.000000E+99

> <Gold.Chemscore.Hbonds>
donor molecule, donor type, donor heavy atom, donor atom, acceptor molecule, acceptor atom, score
      L1  H     1    22       P1  7949  0.15
      P1  H 10752 10765       L1     1  0.77

> <Gold.Chemscore.Hbond.Weighted>
-4.6507

> <Gold.Chemscore.Metal.Weighted>
-0.0000

> <Gold.Chemscore.Lipo.Weighted>
-14.2595

> <Gold.Chemscore.Internal_Hbond.Weighted>
0.0000

> <Gold.Chemscore.DEClash.Weighted>
0.2342

> <Gold.Chemscore.DEInternal.Weighted>
0.4138

> <Gold.Chemscore.Rot.Weighted>
7.0399

> <Gold.Chemscore.Internal.Correction.Weighted>
   9.000000E+99

> <Gold.Protein.RotatedTorsions>
[ 6907 6896 6895 6894 ] final  -56.19 input  -60.11 | X-H torsion
[ 7974 7965 7964 7962 ] final   91.67 input  175.53 | X-H torsion
[ 8008 7997 7996 7995 ] final   34.73 input   59.86 | X-H torsion
[ 10167 10162 10161 10158 ] final  116.35 input  -65.29 | X-H torsion
[ 10718 10713 10712 10709 ] final   93.97 input   66.30 | X-H torsion
[ 10763 10752 10751 10750 ] final  143.83 input  -60.55 | X-H torsion
[ 11005 11000 10999 10996 ] final  133.70 input  -57.11 | X-H torsion

> <Gold.Protein.ActiveResidues>
 VAL166  LYS551  ARG553  GLY616  TRP617  ASP618  TYR619  PRO620  LYS621  CYS622 
 ASP623  PHE694  ASN695  SER759  ASP760  ASP761  ALA762  ILE779  LEU786  VAL792 
 PHE793  MET794  SER795  GLU796  ALA797  LYS798  CYS799  TRP800  GLU811  SER814 

> <Gold.Protein.RotatedAtoms>
  150.8189  134.7385  159.6753 H   0  0  0  0  0  0  0  0  0  0  0  0  # atno 6907 bound_to 6896
  152.4305  134.5782  159.9950 H   0  0  0  0  0  0  0  0  0  0  0  0  # atno 6908 bound_to 6896
  151.5972  133.3323  159.3076 H   0  0  0  0  0  0  0  0  0  0  0  0  # atno 6909 bound_to 6896
  145.5026  139.2276  143.2769 H   0  0  0  0  0  0  0  0  0  0  0  0  # atno 7974 bound_to 7965
  155.1596  140.3282  155.4414 H   0  0  0  0  0  0  0  0  0  0  0  0  # atno 8008 bound_to 7997
  156.2547  140.1962  156.6655 H   0  0  0  0  0  0  0  0  0  0  0  0  # atno 8009 bound_to 7997
  154.6414  140.0570  156.9836 H   0  0  0  0  0  0  0  0  0  0  0  0  # atno 8010 bound_to 7997
  139.6253  144.7107  151.2546 H   0  0  0  0  0  0  0  0  0  0  0  0  # atno 10167 bound_to 10162
  157.6951  131.0496  150.4115 H   0  0  0  0  0  0  0  0  0  0  0  0  # atno 10718 bound_to 10713
  153.9788  135.2943  155.3422 H   0  0  0  0  0  0  0  0  0  0  0  0  # atno 10763 bound_to 10752
  154.7280  135.5080  153.8921 H   0  0  0  0  0  0  0  0  0  0  0  0  # atno 10764 bound_to 10752
  153.0864  135.6695  154.0054 H   0  0  0  0  0  0  0  0  0  0  0  0  # atno 10765 bound_to 10752
  139.9868  134.9529  156.9762 H   0  0  0  0  0  0  0  0  0  0  0  0  # atno 11005 bound_to 11000
  146.2216  140.5828  142.9014 LP  0  0  0  0  0  0  0  0  0  0  0  0  # atno 17320 bound_to 7965
  144.7771  140.5763  143.6630 LP  0  0  0  0  0  0  0  0  0  0  0  0  # atno 17321 bound_to 7965
  140.7407  143.6579  150.8190 LP  0  0  0  0  0  0  0  0  0  0  0  0  # atno 17342 bound_to 10162
  140.0196  143.5556  152.2806 LP  0  0  0  0  0  0  0  0  0  0  0  0  # atno 17343 bound_to 10162
  156.4499  130.4009  149.6643 LP  0  0  0  0  0  0  0  0  0  0  0  0  # atno 17370 bound_to 10713
  156.3796  130.7572  151.2563 LP  0  0  0  0  0  0  0  0  0  0  0  0  # atno 17371 bound_to 10713
  140.4986  134.1120  155.7246 LP  0  0  0  0  0  0  0  0  0  0  0  0  # atno 17394 bound_to 11000
  141.1531  133.8932  157.2046 LP  0  0  0  0  0  0  0  0  0  0  0  0  # atno 17395 bound_to 11000

$$$$
