AV-unprocessed.smi:287|AV-procd|sdf|2186|dock2
  -GOLD-   2262021563D 1   1.00000     0.00000
 Structure written by MMmdl.
 55 58  0  0  0  0  0  0  0  0  1 V2000
  152.6839  143.4317  162.1786 C   0  0  0  0  0  0  0  0  0  0  0  0
  153.2472  142.0930  161.8452 C   0  0  0  0  0  0  0  0  0  0  0  0
  153.0350  141.2050  160.8314 C   0  0  0  0  0  0  0  0  0  0  0  0
  153.8956  140.0888  161.0547 C   0  0  0  0  0  0  0  0  0  0  0  0
  154.0070  138.8560  160.1671 C   0  0  2  0  0  0  0  0  0  0  0  0
  154.7364  137.7325  160.9222 C   0  0  0  0  0  0  0  0  0  0  0  0
  154.7752  139.0847  159.0017 O   0  0  0  0  0  0  0  0  0  0  0  0
  152.6273  138.3607  159.6762 C   0  0  0  0  0  0  0  0  0  0  0  0
  152.6854  137.7536  158.3504 N   0  0  0  0  0  0  0  0  0  0  0  0
  152.2921  138.4503  157.2645 C   0  0  0  0  0  0  0  0  0  0  0  0
  153.0299  138.4465  156.1237 N   0  0  0  0  0  0  0  0  0  0  0  0
  152.6144  139.1393  155.0592 C   0  0  0  0  0  0  0  0  0  0  0  0
  151.5152  139.8850  154.9262 N   0  0  0  0  0  0  0  0  0  0  0  0
  150.7729  139.8944  156.0711 C   0  0  0  0  0  0  0  0  0  0  0  0
  151.0929  139.2076  157.2750 C   0  0  0  0  0  0  0  0  0  0  0  0
  150.1108  139.4433  158.2278 N   0  0  0  0  0  0  0  0  0  0  0  0
  149.2594  140.2224  157.6166 C   0  0  0  0  0  0  0  0  0  0  0  0
  149.5809  140.5449  156.3167 N   0  0  0  0  0  0  0  0  0  0  0  0
  148.8035  141.4003  155.3712 C   0  0  2  0  0  0  0  0  0  0  0  0
  147.6668  141.8530  156.0350 O   0  0  0  0  0  0  0  0  0  0  0  0
  146.6102  141.9638  155.0947 C   0  0  2  0  0  0  0  0  0  0  0  0
  145.2479  142.0724  155.8025 C   0  0  0  0  0  0  0  0  0  0  0  0
  144.2144  142.2256  154.8529 O   0  0  0  0  0  0  0  0  0  0  0  0
  146.8254  140.7592  154.1647 C   0  0  2  0  0  0  0  0  0  0  0  0
  146.2161  139.5888  154.6756 O   0  0  0  0  0  0  0  0  0  0  0  0
  148.3454  140.6004  154.1367 C   0  0  1  0  0  0  0  0  0  0  0  0
  148.8542  141.1702  152.9472 O   0  0  0  0  0  0  0  0  0  0  0  0
  154.5626  140.3882  162.2185 C   0  0  0  0  0  0  0  0  0  0  0  0
  155.5919  139.6808  163.0367 C   0  0  0  0  0  0  0  0  0  0  0  0
  154.1773  141.6024  162.7019 O   0  0  0  0  0  0  0  0  0  0  0  0
  149.4636  142.2362  155.1335 H   0  0  0  0  0  0  0  0  0  0  0  0
  146.7899  142.8793  154.5274 H   0  0  0  0  0  0  0  0  0  0  0  0
  146.4029  140.9419  153.1758 H   0  0  0  0  0  0  0  0  0  0  0  0
  148.6585  139.5566  154.1980 H   0  0  0  0  0  0  0  0  0  0  0  0
  152.0500  143.7990  161.3713 H   0  0  0  0  0  0  0  0  0  0  0  0
  153.4810  144.1580  162.3383 H   0  0  0  0  0  0  0  0  0  0  0  0
  152.0823  143.3829  163.0862 H   0  0  0  0  0  0  0  0  0  0  0  0
  152.3452  141.3433  160.0121 H   0  0  0  0  0  0  0  0  0  0  0  0
  154.2015  137.4544  161.8310 H   0  0  0  0  0  0  0  0  0  0  0  0
  155.7416  138.0387  161.2150 H   0  0  0  0  0  0  0  0  0  0  0  0
  154.8294  136.8341  160.3105 H   0  0  0  0  0  0  0  0  0  0  0  0
  155.4030  138.3840  158.9148 H   0  0  0  0  0  0  0  0  0  0  0  0
  152.1812  137.6691  160.3925 H   0  0  0  0  0  0  0  0  0  0  0  0
  151.9550  139.2177  159.6099 H   0  0  0  0  0  0  0  0  0  0  0  0
  153.1095  136.8379  158.3018 H   0  0  0  0  0  0  0  0  0  0  0  0
  153.2532  139.0885  154.1899 H   0  0  0  0  0  0  0  0  0  0  0  0
  148.3657  140.5855  158.1026 H   0  0  0  0  0  0  0  0  0  0  0  0
  145.0487  141.2048  156.4318 H   0  0  0  0  0  0  0  0  0  0  0  0
  145.2399  142.9439  156.4573 H   0  0  0  0  0  0  0  0  0  0  0  0
  144.2812  141.5265  154.2206 H   0  0  0  0  0  0  0  0  0  0  0  0
  146.8235  138.8699  154.5794 H   0  0  0  0  0  0  0  0  0  0  0  0
  149.2207  140.4793  152.4168 H   0  0  0  0  0  0  0  0  0  0  0  0
  155.2444  138.6872  163.3198 H   0  0  0  0  0  0  0  0  0  0  0  0
  155.8162  140.2302  163.9514 H   0  0  0  0  0  0  0  0  0  0  0  0
  156.5200  139.5695  162.4761 H   0  0  0  0  0  0  0  0  0  0  0  0
  1  2  1  0  0  0  0
  1 35  1  0  0  0  0
  1 36  1  0  0  0  0
  1 37  1  0  0  0  0
  2 30  1  0  0  0  0
  2  3  2  0  0  0  0
  3  4  1  0  0  0  0
  3 38  1  0  0  0  0
  4  5  1  0  0  0  0
  4 28  2  0  0  0  0
  5  6  1  0  0  0  0
  5  7  1  0  0  0  0
  5  8  1  0  0  0  0
  6 39  1  0  0  0  0
  6 40  1  0  0  0  0
  6 41  1  0  0  0  0
  7 42  1  0  0  0  0
  8  9  1  0  0  0  0
  8 43  1  0  0  0  0
  8 44  1  0  0  0  0
  9 10  1  0  0  0  0
  9 45  1  0  0  0  0
 10 15  1  0  0  0  0
 10 11  2  0  0  0  0
 11 12  1  0  0  0  0
 12 13  2  0  0  0  0
 12 46  1  0  0  0  0
 13 14  1  0  0  0  0
 14 18  1  0  0  0  0
 14 15  2  0  0  0  0
 15 16  1  0  0  0  0
 16 17  2  0  0  0  0
 17 18  1  0  0  0  0
 17 47  1  0  0  0  0
 18 19  1  0  0  0  0
 19 31  1  0  0  0  0
 19 26  1  0  0  0  0
 19 20  1  0  0  0  0
 20 21  1  0  0  0  0
 21 32  1  0  0  0  0
 21 22  1  0  0  0  0
 21 24  1  0  0  0  0
 22 23  1  0  0  0  0
 22 48  1  0  0  0  0
 22 49  1  0  0  0  0
 23 50  1  0  0  0  0
 24 33  1  0  0  0  0
 24 25  1  0  0  0  0
 24 26  1  0  0  0  0
 25 51  1  0  0  0  0
 26 34  1  0  0  0  0
 26 27  1  0  0  0  0
 27 52  1  0  0  0  0
 28 29  1  0  0  0  0
 28 30  1  0  0  0  0
 29 53  1  0  0  0  0
 29 54  1  0  0  0  0
 29 55  1  0  0  0  0
M  END
> <s_m_source_file>
AV-unprocessed.smi

> <i_m_source_file_index>
287

> <i_lp_mmshare_version>
43012

> <i_f3d_flags>
0

> <s_epik_input>
W0NIM11jMVtjSF1jKGMobzEpW0NIM10pW0NAQF0oW0NIM10pKFtPSF0pW0NIMl1bTkhdYyhuW2NIXW4yKWMoYzIzKW5bY0hdbjNbQ0BASF00T1tDQEhdKFtDSDJdW09IXSlbQ0BASF0oW09IXSlbQ0BIXTRbT0hd

> <s_epik_cmdline>
J2VwaWtfcHl0aG9uJywgJy1waCcsICc3LjAnLCAnLXRuJywgJzgnLCAnLW1hJywgJzIwMCcsICctbWV0YWxfYmluZGluZycsICctaW1hZScsICc8aW5maWxlLm1hZT4nLCAnLW9tYWUnLCAnPG91dGZpbGUubWFlPic=

> <r_lp_tautomer_probability>
1

> <r_epik_Ionization_Penalty>
0.000992612

> <r_epik_Ionization_Penalty_Charging>
0

> <r_epik_Ionization_Penalty_Neutral>
0.000992612

> <r_epik_State_Penalty>
-0

> <r_epik_Charging_Adjusted_Penalty>
0

> <i_epik_Tot_Q>
0

> <i_epik_Tot_abs_Q>
0

> <r_epik_Metal_State_Penalty>
-0

> <b_epik_Metal_Only>
0

> <s_epik_Chemistry_Notes>
This compound contains an acetal/aminal-like group ( X-CH(R)-Y where X, Y are N, S, or O) that may be acid/base labile, releasing an aldehyde.

> <s_lp_Force_Field>
OPLS_2005

> <r_lp_Energy>
38.0531

> <b_lp_Chiralities_Consistent>
1

> <s_lp_Variant>
AV-unprocessed.smi:287-10

> <Gold.Version>
5.8.1

> <Gold.Id.Protein>
6NUR|6NUR_protein|mol2

> <Gold.PLP.Fitness>
54.4658

> <Gold.PLP.PLP>
-45.3298

> <Gold.PLP.part.hbond>
-6.4907

> <Gold.PLP.part.metal>
0.0000

> <Gold.PLP.part.buried>
-5.4258

> <Gold.PLP.part.nonpolar>
-34.3054

> <Gold.PLP.part.repulsive>
0.4853

> <Gold.PLP.ligand.clash>
0.0073

> <Gold.PLP.ligand.torsion>
1.8214

> <Gold.PLP.Chemscore.Hbond>
4.1676

> <Gold.PLP.Chemscore.CHOScore>
0.0000

> <Gold.PLP.Chemscore.Metal>
0.0000

> <Gold.Chemscore.Hbonds>
donor molecule, donor type, donor heavy atom, donor atom, acceptor molecule, acceptor atom, score
      L1  H    23    50       P1 10175  0.86
      L1  H    27    52       P1  7957  0.60
      P1  H  7989  7998       L1    13  1.00
      P1  H  7997  8008       L1     7  0.80
      P1  H  8011  8017       L1    27  0.85

> <Gold.PLP.Chemscore.Internal.Correction>
0.2833

> <Gold.Rescore>
     Score         DG    S(hbond)    S(metal)    S(lipo)     H(rot)  DE(clash)    DE(int)     intcor
      7.98     -11.33       2.45        0.00      95.33       5.27       0.17       3.18       ----

> <Gold.Chemscore.Fitness>
7.9787

> <Gold.Chemscore.DG>
-11.3310

> <Gold.Chemscore.ZeroCoef>
-5.4800

> <Gold.Chemscore.Hbond>
2.4494

> <Gold.Chemscore.Metal>
0.0000

> <Gold.Chemscore.Lipo>
95.3317

> <Gold.Chemscore.Internal_Hbond>
0.0000

> <Gold.Chemscore.DEClash>
0.1732

> <Gold.Chemscore.DEInternal>
3.1791

> <Gold.Chemscore.Rot>
5.2672

> <Gold.Chemscore.Internal.Correction>
   9.000000E+99

> <Gold.Chemscore.Hbonds>
donor molecule, donor type, donor heavy atom, donor atom, acceptor molecule, acceptor atom, score
      L1  H    23    50       P1 10175  0.21
      L1  H    27    52       P1  7957  0.57
      P1  H  7989  7998       L1    13  0.69
      P1  H  7997  8008       L1     7  0.12
      P1  H  8011  8017       L1    27  0.14

> <Gold.Chemscore.Hbond.Weighted>
-8.1811

> <Gold.Chemscore.Metal.Weighted>
-0.0000

> <Gold.Chemscore.Lipo.Weighted>
-11.1538

> <Gold.Chemscore.Internal_Hbond.Weighted>
0.0000

> <Gold.Chemscore.DEClash.Weighted>
0.1732

> <Gold.Chemscore.DEInternal.Weighted>
3.1791

> <Gold.Chemscore.Rot.Weighted>
13.4839

> <Gold.Chemscore.Internal.Correction.Weighted>
   9.000000E+99

> <Gold.Protein.RotatedTorsions>
[ 6907 6896 6895 6894 ] final -139.03 input  -60.11 | X-H torsion
[ 7974 7965 7964 7962 ] final  163.86 input  175.53 | X-H torsion
[ 8008 7997 7996 7995 ] final -130.73 input   59.86 | X-H torsion
[ 10167 10162 10161 10158 ] final   97.38 input  -65.29 | X-H torsion
[ 10718 10713 10712 10709 ] final  117.16 input   66.30 | X-H torsion
[ 10763 10752 10751 10750 ] final  -91.59 input  -60.55 | X-H torsion
[ 11005 11000 10999 10996 ] final   70.64 input  -57.11 | X-H torsion

> <Gold.Protein.ActiveResidues>
 VAL166  LYS551  ARG553  GLY616  TRP617  ASP618  TYR619  PRO620  LYS621  CYS622 
 ASP623  PHE694  ASN695  SER759  ASP760  ASP761  ALA762  ILE779  LEU786  VAL792 
 PHE793  MET794  SER795  GLU796  ALA797  LYS798  CYS799  TRP800  GLU811  SER814 

> <Gold.Protein.RotatedAtoms>
  151.0426  133.5693  159.2649 H   0  0  0  0  0  0  0  0  0  0  0  0  # atno 6907 bound_to 6896
  151.2734  135.0691  159.9152 H   0  0  0  0  0  0  0  0  0  0  0  0  # atno 6908 bound_to 6896
  152.5367  134.0152  159.8010 H   0  0  0  0  0  0  0  0  0  0  0  0  # atno 6909 bound_to 6896
  144.7571  139.8242  143.6346 H   0  0  0  0  0  0  0  0  0  0  0  0  # atno 7974 bound_to 7965
  155.3006  140.0452  157.3029 H   0  0  0  0  0  0  0  0  0  0  0  0  # atno 8008 bound_to 7997
  154.5489  140.2311  155.8485 H   0  0  0  0  0  0  0  0  0  0  0  0  # atno 8009 bound_to 7997
  156.1949  140.3041  155.9413 H   0  0  0  0  0  0  0  0  0  0  0  0  # atno 8010 bound_to 7997
  139.7806  144.6889  151.0028 H   0  0  0  0  0  0  0  0  0  0  0  0  # atno 10167 bound_to 10162
  157.6114  131.1034  150.7576 H   0  0  0  0  0  0  0  0  0  0  0  0  # atno 10718 bound_to 10713
  154.6776  135.5262  153.8220 H   0  0  0  0  0  0  0  0  0  0  0  0  # atno 10763 bound_to 10752
  153.0543  135.6544  154.0626 H   0  0  0  0  0  0  0  0  0  0  0  0  # atno 10764 bound_to 10752
  154.0517  135.2969  155.3319 H   0  0  0  0  0  0  0  0  0  0  0  0  # atno 10765 bound_to 10752
  139.9586  134.7100  156.0696 H   0  0  0  0  0  0  0  0  0  0  0  0  # atno 11005 bound_to 11000
  146.1593  139.4702  142.9998 LP  0  0  0  0  0  0  0  0  0  0  0  0  # atno 17320 bound_to 7965
  145.6743  141.0208  143.1640 LP  0  0  0  0  0  0  0  0  0  0  0  0  # atno 17321 bound_to 7965
  140.7818  143.4487  151.0444 LP  0  0  0  0  0  0  0  0  0  0  0  0  # atno 17342 bound_to 10162
  139.8168  143.7875  152.3175 LP  0  0  0  0  0  0  0  0  0  0  0  0  # atno 17343 bound_to 10162
  156.7952  130.4903  149.5378 LP  0  0  0  0  0  0  0  0  0  0  0  0  # atno 17370 bound_to 10713
  156.1219  130.6116  151.0206 LP  0  0  0  0  0  0  0  0  0  0  0  0  # atno 17371 bound_to 10713
  141.1261  133.6599  156.3340 LP  0  0  0  0  0  0  0  0  0  0  0  0  # atno 17394 bound_to 11000
  140.5551  134.5989  157.5418 LP  0  0  0  0  0  0  0  0  0  0  0  0  # atno 17395 bound_to 11000

$$$$
