AV-unprocessed.smi:3287|AV-procd|sdf|12602|dock9
  -GOLD-   2272018533D 1   1.00000     0.00000
 Structure written by MMmdl.
 43 44  0  0  0  0  0  0  0  0  2 V2000
  152.6419  143.5716  161.9507 C   0  0  0  0  0  0  0  0  0  0  0  0
  151.8779  143.2533  160.6549 C   0  0  2  0  0  0  0  0  0  0  0  0
  152.7568  142.4934  159.6423 C   0  0  0  0  0  0  0  0  0  0  0  0
  151.9586  142.1041  158.3884 C   0  0  0  0  0  0  0  0  0  0  0  0
  151.3083  143.3293  157.7223 C   0  0  1  0  0  0  0  0  0  0  0  0
  150.5224  142.8979  156.5454 N   0  3  0  0  0  0  0  0  0  0  0  0
  149.6137  141.7537  156.7761 C   0  0  0  0  0  0  0  0  0  0  0  0
  149.3066  141.0069  155.4664 C   0  0  1  0  0  0  0  0  0  0  0  0
  149.2464  141.9455  154.4101 O   0  0  0  0  0  0  0  0  0  0  0  0
  150.3388  139.9229  155.1975 C   0  0  0  0  0  0  0  0  0  0  0  0
  151.6090  139.9542  155.8130 C   0  0  0  0  0  0  0  0  0  0  0  0
  152.5209  138.9177  155.5300 C   0  0  0  0  0  0  0  0  0  0  0  0
  152.2414  137.8913  154.6987 N   0  0  0  0  0  0  0  0  0  0  0  0
  151.0251  137.8654  154.1138 C   0  0  0  0  0  0  0  0  0  0  0  0
  150.0413  138.8514  154.3296 C   0  0  0  0  0  0  0  0  0  0  0  0
  150.4316  144.0890  158.7435 C   0  0  0  0  0  0  0  0  0  0  0  0
  151.2130  144.4969  160.0107 C   0  0  2  0  0  0  0  0  0  0  0  0
  152.1860  145.6599  159.7288 C   0  0  0  0  0  0  0  0  0  0  0  0
  153.5291  144.1756  161.7603 H   0  0  0  0  0  0  0  0  0  0  0  0
  152.9724  142.6559  162.4421 H   0  0  0  0  0  0  0  0  0  0  0  0
  152.0112  144.1124  162.6569 H   0  0  0  0  0  0  0  0  0  0  0  0
  151.0688  142.5784  160.9395 H   0  0  0  0  0  0  0  0  0  0  0  0
  153.6170  143.1003  159.3581 H   0  0  0  0  0  0  0  0  0  0  0  0
  153.1613  141.5928  160.1057 H   0  0  0  0  0  0  0  0  0  0  0  0
  152.6166  141.5991  157.6802 H   0  0  0  0  0  0  0  0  0  0  0  0
  151.1893  141.3804  158.6627 H   0  0  0  0  0  0  0  0  0  0  0  0
  152.1065  143.9834  157.3689 H   0  0  0  0  0  0  0  0  0  0  0  0
  149.9528  143.6789  156.2534 H   0  0  0  0  0  0  0  0  0  0  0  0
  150.0472  141.0679  157.5043 H   0  0  0  0  0  0  0  0  0  0  0  0
  148.6847  142.1307  157.2061 H   0  0  0  0  0  0  0  0  0  0  0  0
  148.3247  140.5373  155.5414 H   0  0  0  0  0  0  0  0  0  0  0  0
  149.1756  142.8117  154.7830 H   0  0  0  0  0  0  0  0  0  0  0  0
  151.8833  140.7515  156.4883 H   0  0  0  0  0  0  0  0  0  0  0  0
  153.5004  138.9127  155.9849 H   0  0  0  0  0  0  0  0  0  0  0  0
  150.8288  137.0328  153.4544 H   0  0  0  0  0  0  0  0  0  0  0  0
  149.0826  138.7809  153.8369 H   0  0  0  0  0  0  0  0  0  0  0  0
  149.9919  144.9785  158.2923 H   0  0  0  0  0  0  0  0  0  0  0  0
  149.5922  143.4556  159.0343 H   0  0  0  0  0  0  0  0  0  0  0  0
  150.4805  144.8794  160.7232 H   0  0  0  0  0  0  0  0  0  0  0  0
  153.0031  145.3652  159.0713 H   0  0  0  0  0  0  0  0  0  0  0  0
  152.6253  146.0449  160.6489 H   0  0  0  0  0  0  0  0  0  0  0  0
  151.6680  146.4938  159.2543 H   0  0  0  0  0  0  0  0  0  0  0  0
  151.1564  142.6675  155.7932 H   0  0  0  0  0  0  0  0  0  0  0  0
  1  2  1  0  0  0  0
  1 19  1  0  0  0  0
  1 20  1  0  0  0  0
  1 21  1  0  0  0  0
  2 17  1  0  0  0  0
  2  3  1  0  0  0  0
  2 22  1  0  0  0  0
  3  4  1  0  0  0  0
  3 23  1  0  0  0  0
  3 24  1  0  0  0  0
  4  5  1  0  0  0  0
  4 25  1  0  0  0  0
  4 26  1  0  0  0  0
  5  6  1  0  0  0  0
  5 16  1  0  0  0  0
  5 27  1  0  0  0  0
  6  7  1  0  0  0  0
  6 28  1  0  0  0  0
  6 43  1  0  0  0  0
  7  8  1  0  0  0  0
  7 29  1  0  0  0  0
  7 30  1  0  0  0  0
  8  9  1  0  0  0  0
  8 10  1  0  0  0  0
  8 31  1  0  0  0  0
  9 32  1  0  0  0  0
 10 15  1  0  0  0  0
 10 11  2  0  0  0  0
 11 12  1  0  0  0  0
 11 33  1  0  0  0  0
 12 13  2  0  0  0  0
 12 34  1  0  0  0  0
 13 14  1  0  0  0  0
 14 15  2  0  0  0  0
 14 35  1  0  0  0  0
 15 36  1  0  0  0  0
 16 17  1  0  0  0  0
 16 37  1  0  0  0  0
 16 38  1  0  0  0  0
 17 18  1  0  0  0  0
 17 39  1  0  0  0  0
 18 40  1  0  0  0  0
 18 41  1  0  0  0  0
 18 42  1  0  0  0  0
M  CHG  1   6   1
M  END
> <s_m_source_file>
AV-unprocessed.smi

> <i_m_source_file_index>
3287

> <i_lp_mmshare_version>
43012

> <i_f3d_flags>
0

> <s_epik_input>
W0NIM11bQ0BASF0xW0NIMl1bQ0gyXVtDQEhdKFtDSDJdW0NASF0xW0NIM10pW05IXVtDSDJdW0NASF0oW09IXSljMltjSF1bY0hdbltjSF1bY0hdMg==

> <s_epik_cmdline>
J2VwaWtfcHl0aG9uJywgJy1waCcsICc3LjAnLCAnLXRuJywgJzgnLCAnLW1hJywgJzIwMCcsICctbWV0YWxfYmluZGluZycsICctaW1hZScsICc8aW5maWxlLm1hZT4nLCAnLW9tYWUnLCAnPG91dGZpbGUubWFlPic=

> <r_lp_tautomer_probability>
1

> <r_epik_Ionization_Penalty>
0.00537262

> <r_epik_Ionization_Penalty_Charging>
0.00321624

> <r_epik_Ionization_Penalty_Neutral>
0.00215638

> <r_epik_State_Penalty>
-0

> <r_epik_Charging_Adjusted_Penalty>
0.00321624

> <i_epik_Tot_Q>
1

> <i_epik_Tot_abs_Q>
1

> <r_epik_Metal_State_Penalty>
-0

> <b_epik_Metal_Only>
0

> <s_lp_Force_Field>
OPLS_2005

> <r_lp_Energy>
17.6896

> <b_lp_Chiralities_Consistent>
1

> <s_lp_Variant>
AV-unprocessed.smi:3287-13

> <Gold.Version>
5.8.1

> <Gold.Id.Protein>
6NUR|6NUR_protein|mol2

> <Gold.PLP.Fitness>
56.4498

> <Gold.PLP.PLP>
-45.8164

> <Gold.PLP.part.hbond>
-4.1851

> <Gold.PLP.part.metal>
0.0000

> <Gold.PLP.part.buried>
-4.4374

> <Gold.PLP.part.nonpolar>
-36.8361

> <Gold.PLP.part.repulsive>
0.1498

> <Gold.PLP.ligand.clash>
0.0000

> <Gold.PLP.ligand.torsion>
1.0726

> <Gold.PLP.Chemscore.Hbond>
3.2087

> <Gold.PLP.Chemscore.CHOScore>
1.0464

> <Gold.PLP.Chemscore.Metal>
0.0000

> <Gold.Chemscore.Hbonds>
donor molecule, donor type, donor heavy atom, donor atom, acceptor molecule, acceptor atom, score
      L1  H     6    28       P1  8028  2.00
      L1  H     9    32       P1  8028  0.81
      P1  H  8011  8017       L1     9  0.23
      P1  H 10752 10764       L1    13  0.12
      L1  C    14    35       P1  7948  0.20
      L1  C    14    35       P1  7949  0.84

> <Gold.PLP.Chemscore.Internal.Correction>
0.0133

> <Gold.Rescore>
     Score         DG    S(hbond)    S(metal)    S(lipo)     H(rot)  DE(clash)    DE(int)     intcor
     22.71     -23.40       2.08        0.00     135.38       1.90       0.07       0.62       ----

> <Gold.Chemscore.Fitness>
22.7089

> <Gold.Chemscore.DG>
-23.4031

> <Gold.Chemscore.ZeroCoef>
-5.4800

> <Gold.Chemscore.Hbond>
2.0827

> <Gold.Chemscore.Metal>
0.0000

> <Gold.Chemscore.Lipo>
135.3835

> <Gold.Chemscore.Internal_Hbond>
0.0000

> <Gold.Chemscore.DEClash>
0.0725

> <Gold.Chemscore.DEInternal>
0.6216

> <Gold.Chemscore.Rot>
1.9035

> <Gold.Chemscore.Internal.Correction>
   9.000000E+99

> <Gold.Chemscore.Hbonds>
donor molecule, donor type, donor heavy atom, donor atom, acceptor molecule, acceptor atom, score
      L1  H     6    28       P1  8028  0.99
      L1  H     9    32       P1  8028  0.80
      P1  H  8011  8017       L1     9  0.06
      P1  H 10752 10764       L1    13  0.04

> <Gold.Chemscore.Hbond.Weighted>
-6.9561

> <Gold.Chemscore.Metal.Weighted>
-0.0000

> <Gold.Chemscore.Lipo.Weighted>
-15.8399

> <Gold.Chemscore.Internal_Hbond.Weighted>
0.0000

> <Gold.Chemscore.DEClash.Weighted>
0.0725

> <Gold.Chemscore.DEInternal.Weighted>
0.6216

> <Gold.Chemscore.Rot.Weighted>
4.8729

> <Gold.Chemscore.Internal.Correction.Weighted>
   9.000000E+99

> <Gold.Protein.RotatedTorsions>
[ 6907 6896 6895 6894 ] final   38.94 input  -60.11 | X-H torsion
[ 7974 7965 7964 7962 ] final   73.15 input  175.53 | X-H torsion
[ 8008 7997 7996 7995 ] final -121.01 input   59.86 | X-H torsion
[ 10167 10162 10161 10158 ] final   74.67 input  -65.29 | X-H torsion
[ 10718 10713 10712 10709 ] final   20.95 input   66.30 | X-H torsion
[ 10763 10752 10751 10750 ] final  -72.59 input  -60.55 | X-H torsion
[ 11005 11000 10999 10996 ] final    7.68 input  -57.11 | X-H torsion

> <Gold.Protein.ActiveResidues>
 VAL166  LYS551  ARG553  GLY616  TRP617  ASP618  TYR619  PRO620  LYS621  CYS622 
 ASP623  PHE694  ASN695  SER759  ASP760  ASP761  ALA762  ILE779  LEU786  VAL792 
 PHE793  MET794  SER795  GLU796  ALA797  LYS798  CYS799  TRP800  GLU811  SER814 

> <Gold.Protein.RotatedAtoms>
  152.1631  134.8896  160.0539 H   0  0  0  0  0  0  0  0  0  0  0  0  # atno 6907 bound_to 6896
  151.9884  133.3777  159.4143 H   0  0  0  0  0  0  0  0  0  0  0  0  # atno 6908 bound_to 6896
  150.6890  134.3886  159.5110 H   0  0  0  0  0  0  0  0  0  0  0  0  # atno 6909 bound_to 6896
  145.7445  139.2734  143.1467 H   0  0  0  0  0  0  0  0  0  0  0  0  # atno 7974 bound_to 7965
  155.1411  140.0402  157.2798 H   0  0  0  0  0  0  0  0  0  0  0  0  # atno 8008 bound_to 7997
  154.6472  140.2561  155.7228 H   0  0  0  0  0  0  0  0  0  0  0  0  # atno 8009 bound_to 7997
  156.2560  140.2843  156.0891 H   0  0  0  0  0  0  0  0  0  0  0  0  # atno 8010 bound_to 7997
  140.0112  144.5612  150.7657 H   0  0  0  0  0  0  0  0  0  0  0  0  # atno 10167 bound_to 10162
  157.1317  130.6594  149.5954 H   0  0  0  0  0  0  0  0  0  0  0  0  # atno 10718 bound_to 10713
  154.4477  135.5925  153.6171 H   0  0  0  0  0  0  0  0  0  0  0  0  # atno 10763 bound_to 10752
  152.9811  135.6013  154.3643 H   0  0  0  0  0  0  0  0  0  0  0  0  # atno 10764 bound_to 10752
  154.3501  135.2841  155.2355 H   0  0  0  0  0  0  0  0  0  0  0  0  # atno 10765 bound_to 10752
  140.5455  134.0333  155.7918 H   0  0  0  0  0  0  0  0  0  0  0  0  # atno 11005 bound_to 11000
  146.0416  140.8159  142.9826 LP  0  0  0  0  0  0  0  0  0  0  0  0  # atno 17320 bound_to 7965
  144.6863  140.2919  143.7277 LP  0  0  0  0  0  0  0  0  0  0  0  0  # atno 17321 bound_to 7965
  140.7380  143.2773  151.3703 LP  0  0  0  0  0  0  0  0  0  0  0  0  # atno 17342 bound_to 10162
  139.6204  144.0919  152.2385 LP  0  0  0  0  0  0  0  0  0  0  0  0  # atno 17343 bound_to 10162
  155.9806  130.4808  150.6784 LP  0  0  0  0  0  0  0  0  0  0  0  0  # atno 17370 bound_to 10713
  157.4386  131.0858  151.0966 LP  0  0  0  0  0  0  0  0  0  0  0  0  # atno 17371 bound_to 10713
  141.1202  133.9473  157.2744 LP  0  0  0  0  0  0  0  0  0  0  0  0  # atno 17394 bound_to 11000
  139.9482  135.0180  156.8915 LP  0  0  0  0  0  0  0  0  0  0  0  0  # atno 17395 bound_to 11000

$$$$
