AV-unprocessed.smi:2587|AV-procd|sdf|10147|dock3
  -GOLD-   2272014163D 1   1.00000     0.00000
 Structure written by MMmdl.
 40 41  0  0  0  0  0  0  0  0  2 V2000
  148.6859  133.0612  153.0665 C   0  0  0  0  0  0  0  0  0  0  0  0
  147.3968  133.2874  152.7736 C   0  0  0  0  0  0  0  0  0  0  0  0
  146.8566  133.4719  151.3699 C   0  0  0  0  0  0  0  0  0  0  0  0
  145.4343  133.8055  151.3494 N   0  0  0  0  0  0  0  0  0  0  0  0
  144.4740  132.7276  151.1100 C   0  0  0  0  0  0  0  0  0  0  0  0
  144.0942  132.6000  149.6269 C   0  0  0  0  0  0  0  0  0  0  0  0
  143.8803  133.8847  149.0863 O   0  0  0  0  0  0  0  0  0  0  0  0
  144.9898  135.0745  151.7959 C   0  0  0  0  0  0  0  0  0  0  0  0
  143.7575  135.2481  152.4644 C   0  0  0  0  0  0  0  0  0  0  0  0
  143.3927  136.5531  152.8738 C   0  0  0  0  0  0  0  0  0  0  0  0
  142.1951  136.8494  153.5629 N   0  0  0  0  0  0  0  0  0  0  0  0
  142.2798  137.6278  154.7961 C   0  0  0  0  0  0  0  0  0  0  0  0
  140.8867  138.1195  155.2233 C   0  0  0  0  0  0  0  0  0  0  0  0
  139.9961  137.0142  155.3184 O   0  0  0  0  0  0  0  0  0  0  0  0
  139.8284  136.3648  154.0636 C   0  0  0  0  0  0  0  0  0  0  0  0
  141.1770  135.7997  153.5873 C   0  0  0  0  0  0  0  0  0  0  0  0
  144.2394  137.5810  152.6050 N   0  3  0  0  0  0  0  0  0  0  0  0
  145.3972  137.3593  151.9701 C   0  0  0  0  0  0  0  0  0  0  0  0
  145.7818  136.1458  151.5690 N   0  0  0  0  0  0  0  0  0  0  0  0
  149.4344  132.9927  152.2909 H   0  0  0  0  0  0  0  0  0  0  0  0
  149.0090  132.9424  154.0905 H   0  0  0  0  0  0  0  0  0  0  0  0
  146.6773  133.3547  153.5767 H   0  0  0  0  0  0  0  0  0  0  0  0
  147.4186  134.2830  150.9056 H   0  0  0  0  0  0  0  0  0  0  0  0
  147.0557  132.5884  150.7623 H   0  0  0  0  0  0  0  0  0  0  0  0
  144.8552  131.7798  151.4917 H   0  0  0  0  0  0  0  0  0  0  0  0
  143.5768  132.9351  151.6947 H   0  0  0  0  0  0  0  0  0  0  0  0
  144.8857  132.1059  149.0625 H   0  0  0  0  0  0  0  0  0  0  0  0
  143.1862  132.0092  149.5040 H   0  0  0  0  0  0  0  0  0  0  0  0
  142.9532  134.0023  148.9466 H   0  0  0  0  0  0  0  0  0  0  0  0
  143.1126  134.4067  152.6569 H   0  0  0  0  0  0  0  0  0  0  0  0
  142.7184  137.0111  155.5817 H   0  0  0  0  0  0  0  0  0  0  0  0
  142.9267  138.4942  154.6554 H   0  0  0  0  0  0  0  0  0  0  0  0
  140.9444  138.6139  156.1931 H   0  0  0  0  0  0  0  0  0  0  0  0
  140.4980  138.8532  154.5151 H   0  0  0  0  0  0  0  0  0  0  0  0
  139.1028  135.5590  154.1751 H   0  0  0  0  0  0  0  0  0  0  0  0
  139.4180  137.0624  153.3316 H   0  0  0  0  0  0  0  0  0  0  0  0
  141.0392  135.3503  152.6040 H   0  0  0  0  0  0  0  0  0  0  0  0
  141.5076  135.0059  154.2584 H   0  0  0  0  0  0  0  0  0  0  0  0
  146.0271  138.2182  151.7911 H   0  0  0  0  0  0  0  0  0  0  0  0
  143.9891  138.5253  152.8992 H   0  0  0  0  0  0  0  0  0  0  0  0
  1  2  2  0  0  0  0
  1 20  1  0  0  0  0
  1 21  1  0  0  0  0
  2  3  1  0  0  0  0
  2 22  1  0  0  0  0
  3  4  1  0  0  0  0
  3 23  1  0  0  0  0
  3 24  1  0  0  0  0
  4  5  1  0  0  0  0
  4  8  1  0  0  0  0
  5  6  1  0  0  0  0
  5 25  1  0  0  0  0
  5 26  1  0  0  0  0
  6  7  1  0  0  0  0
  6 27  1  0  0  0  0
  6 28  1  0  0  0  0
  7 29  1  0  0  0  0
  8 19  1  0  0  0  0
  8  9  2  0  0  0  0
  9 10  1  0  0  0  0
  9 30  1  0  0  0  0
 10 11  1  0  0  0  0
 10 17  2  0  0  0  0
 11 16  1  0  0  0  0
 11 12  1  0  0  0  0
 12 13  1  0  0  0  0
 12 31  1  0  0  0  0
 12 32  1  0  0  0  0
 13 14  1  0  0  0  0
 13 33  1  0  0  0  0
 13 34  1  0  0  0  0
 14 15  1  0  0  0  0
 15 16  1  0  0  0  0
 15 35  1  0  0  0  0
 15 36  1  0  0  0  0
 16 37  1  0  0  0  0
 16 38  1  0  0  0  0
 17 18  1  0  0  0  0
 17 40  1  0  0  0  0
 18 19  2  0  0  0  0
 18 39  1  0  0  0  0
M  CHG  1  17   1
M  END
> <s_m_source_file>
AV-unprocessed.smi

> <i_m_source_file_index>
2587

> <i_lp_mmshare_version>
43012

> <i_f3d_flags>
0

> <s_epik_input>
W0NIMl09W0NIXVtDSDJdTihbQ0gyXVtDSDJdW09IXSljMVtjSF1jKG5bY0hdbjEpTjJbQ0gyXVtDSDJdT1tDSDJdW0NIMl0y

> <s_epik_cmdline>
J2VwaWtfcHl0aG9uJywgJy1waCcsICc3LjAnLCAnLXRuJywgJzgnLCAnLW1hJywgJzIwMCcsICctbWV0YWxfYmluZGluZycsICctaW1hZScsICc8aW5maWxlLm1hZT4nLCAnLW9tYWUnLCAnPG91dGZpbGUubWFlPic=

> <r_lp_tautomer_probability>
0.999336

> <r_epik_Ionization_Penalty>
3.67622

> <r_epik_Ionization_Penalty_Charging>
3.67622

> <r_epik_Ionization_Penalty_Neutral>
1.25637e-07

> <r_epik_State_Penalty>
2.4309

> <r_epik_Charging_Adjusted_Penalty>
6.10712

> <i_epik_Tot_Q>
1

> <i_epik_Tot_abs_Q>
1

> <r_epik_Metal_State_Penalty>
2.43203

> <b_epik_Metal_Only>
0

> <s_lp_Force_Field>
OPLS_2005

> <r_lp_Energy>
13.6673

> <b_lp_Chiralities_Consistent>
1

> <s_lp_Variant>
AV-unprocessed.smi:2587-2

> <Gold.Version>
5.8.1

> <Gold.Id.Protein>
6NUR|6NUR_protein|mol2

> <Gold.PLP.Fitness>
43.6361

> <Gold.PLP.PLP>
-36.3703

> <Gold.PLP.part.hbond>
-4.4421

> <Gold.PLP.part.metal>
0.0000

> <Gold.PLP.part.buried>
-5.9940

> <Gold.PLP.part.nonpolar>
-26.7659

> <Gold.PLP.part.repulsive>
0.3921

> <Gold.PLP.ligand.clash>
0.0000

> <Gold.PLP.ligand.torsion>
1.2030

> <Gold.PLP.Chemscore.Hbond>
3.0000

> <Gold.PLP.Chemscore.CHOScore>
0.0000

> <Gold.PLP.Chemscore.Metal>
0.0000

> <Gold.Chemscore.Hbonds>
donor molecule, donor type, donor heavy atom, donor atom, acceptor molecule, acceptor atom, score
      L1  H     7    29       P1 10186  0.89
      L1  H    17    40       P1 10175  2.00

> <Gold.PLP.Chemscore.Internal.Correction>
0.6718

> <Gold.Rescore>
     Score         DG    S(hbond)    S(metal)    S(lipo)     H(rot)  DE(clash)    DE(int)     intcor
     10.29     -12.70       1.99        0.00      60.89       2.57       1.39       1.02       ----

> <Gold.Chemscore.Fitness>
10.2936

> <Gold.Chemscore.DG>
-12.6964

> <Gold.Chemscore.ZeroCoef>
-5.4800

> <Gold.Chemscore.Hbond>
1.9940

> <Gold.Chemscore.Metal>
0.0000

> <Gold.Chemscore.Lipo>
60.8855

> <Gold.Chemscore.Internal_Hbond>
0.0000

> <Gold.Chemscore.DEClash>
1.3856

> <Gold.Chemscore.DEInternal>
1.0172

> <Gold.Chemscore.Rot>
2.5653

> <Gold.Chemscore.Internal.Correction>
   9.000000E+99

> <Gold.Chemscore.Hbonds>
donor molecule, donor type, donor heavy atom, donor atom, acceptor molecule, acceptor atom, score
      L1  H     7    29       P1 10186  0.85
      L1  H    17    40       P1 10175  0.91

> <Gold.Chemscore.Hbond.Weighted>
-6.6599

> <Gold.Chemscore.Metal.Weighted>
-0.0000

> <Gold.Chemscore.Lipo.Weighted>
-7.1236

> <Gold.Chemscore.Internal_Hbond.Weighted>
0.0000

> <Gold.Chemscore.DEClash.Weighted>
1.3856

> <Gold.Chemscore.DEInternal.Weighted>
1.0172

> <Gold.Chemscore.Rot.Weighted>
6.5671

> <Gold.Chemscore.Internal.Correction.Weighted>
   9.000000E+99

> <Gold.Protein.RotatedTorsions>
[ 6907 6896 6895 6894 ] final   92.58 input  -60.11 | X-H torsion
[ 7974 7965 7964 7962 ] final  -99.78 input  175.53 | X-H torsion
[ 8008 7997 7996 7995 ] final  177.61 input   59.86 | X-H torsion
[ 10167 10162 10161 10158 ] final  153.34 input  -65.29 | X-H torsion
[ 10718 10713 10712 10709 ] final -173.89 input   66.30 | X-H torsion
[ 10763 10752 10751 10750 ] final  -94.08 input  -60.55 | X-H torsion
[ 11005 11000 10999 10996 ] final   55.83 input  -57.11 | X-H torsion

> <Gold.Protein.ActiveResidues>
 VAL166  LYS551  ARG553  GLY616  TRP617  ASP618  TYR619  PRO620  LYS621  CYS622 
 ASP623  PHE694  ASN695  SER759  ASP760  ASP761  ALA762  ILE779  LEU786  VAL792 
 PHE793  MET794  SER795  GLU796  ALA797  LYS798  CYS799  TRP800  GLU811  SER814 

> <Gold.Protein.RotatedAtoms>
  152.5453  134.1480  159.8506 H   0  0  0  0  0  0  0  0  0  0  0  0  # atno 6907 bound_to 6896
  151.1510  133.4900  159.2603 H   0  0  0  0  0  0  0  0  0  0  0  0  # atno 6908 bound_to 6896
  151.1472  135.0220  159.8707 H   0  0  0  0  0  0  0  0  0  0  0  0  # atno 6909 bound_to 6896
  145.3031  140.9382  143.2812 H   0  0  0  0  0  0  0  0  0  0  0  0  # atno 7974 bound_to 7965
  156.0638  140.1354  156.9910 H   0  0  0  0  0  0  0  0  0  0  0  0  # atno 8008 bound_to 7997
  154.4495  140.0986  156.6627 H   0  0  0  0  0  0  0  0  0  0  0  0  # atno 8009 bound_to 7997
  155.5336  140.3459  155.4434 H   0  0  0  0  0  0  0  0  0  0  0  0  # atno 8010 bound_to 7997
  139.4827  144.5281  151.7767 H   0  0  0  0  0  0  0  0  0  0  0  0  # atno 10167 bound_to 10162
  156.7770  130.9469  151.3120 H   0  0  0  0  0  0  0  0  0  0  0  0  # atno 10718 bound_to 10713
  154.7021  135.5170  153.8542 H   0  0  0  0  0  0  0  0  0  0  0  0  # atno 10763 bound_to 10752
  153.0712  135.6602  154.0252 H   0  0  0  0  0  0  0  0  0  0  0  0  # atno 10764 bound_to 10752
  154.0109  135.3002  155.3372 H   0  0  0  0  0  0  0  0  0  0  0  0  # atno 10765 bound_to 10752
  140.0576  134.5648  155.9189 H   0  0  0  0  0  0  0  0  0  0  0  0  # atno 11005 bound_to 11000
  144.9077  139.4568  143.6602 LP  0  0  0  0  0  0  0  0  0  0  0  0  # atno 17320 bound_to 7965
  146.3145  139.7868  142.8994 LP  0  0  0  0  0  0  0  0  0  0  0  0  # atno 17321 bound_to 7965
  140.4804  144.1458  150.5931 LP  0  0  0  0  0  0  0  0  0  0  0  0  # atno 17342 bound_to 10162
  140.4284  143.2579  151.9627 LP  0  0  0  0  0  0  0  0  0  0  0  0  # atno 17343 bound_to 10162
  157.6664  130.9012  149.9942 LP  0  0  0  0  0  0  0  0  0  0  0  0  # atno 17370 bound_to 10713
  156.1242  130.3645  149.9837 LP  0  0  0  0  0  0  0  0  0  0  0  0  # atno 17371 bound_to 10713
  141.1959  133.6589  156.5665 LP  0  0  0  0  0  0  0  0  0  0  0  0  # atno 17394 bound_to 11000
  140.3820  134.7515  157.4667 LP  0  0  0  0  0  0  0  0  0  0  0  0  # atno 17395 bound_to 11000

$$$$
