AV-unprocessed.smi:33|AV-procd|sdf|204|dock2
  -GOLD-   2262015483D 1   1.00000     0.00000
 Structure written by MMmdl.
 67 72  0  0  0  0  0  0  0  0  1 V2000
  154.3996  139.6177  158.7892 O   0  0  0  0  0  0  0  0  0  0  0  0
  153.3210  140.2003  158.9184 C   0  0  0  0  0  0  0  0  0  0  0  0
  152.1765  139.7907  158.3269 O   0  0  0  0  0  0  0  0  0  0  0  0
  151.9758  138.4077  158.0683 C   0  0  0  0  0  0  0  0  0  0  0  0
  152.4359  137.9729  156.6625 C   0  0  1  0  0  0  0  0  0  0  0  0
  152.1625  136.5987  156.4004 O   0  0  0  0  0  0  0  0  0  0  0  0
  151.0300  136.4555  155.5885 C   0  0  1  0  0  0  0  0  0  0  0  0
  149.9444  135.8372  156.4150 N   0  0  0  0  0  0  0  0  0  0  0  0
  149.2850  136.3445  157.5158 C   0  0  0  0  0  0  0  0  0  0  0  0
  148.3667  135.5689  158.0260 N   0  0  0  0  0  0  0  0  0  0  0  0
  148.4351  134.4181  157.2528 C   0  0  0  0  0  0  0  0  0  0  0  0
  147.7481  133.1750  157.2678 C   0  0  0  0  0  0  0  0  0  0  0  0
  146.7626  132.8995  158.1526 N   0  0  0  0  0  0  0  0  0  0  0  0
  146.0688  134.0445  158.7541 C   0  0  0  0  0  0  0  0  0  0  0  0
  145.8992  135.0728  158.0967 O   0  0  0  0  0  0  0  0  0  0  0  0
  145.5173  133.9424  160.1476 C   0  0  0  0  0  0  0  0  0  0  0  0
  144.3706  134.6809  160.5129 C   0  0  0  0  0  0  0  0  0  0  0  0
  143.8675  134.6060  161.8263 C   0  0  0  0  0  0  0  0  0  0  0  0
  144.5183  133.8078  162.7864 C   0  0  0  0  0  0  0  0  0  0  0  0
  145.6778  133.0907  162.4355 C   0  0  0  0  0  0  0  0  0  0  0  0
  146.1807  133.1636  161.1225 C   0  0  0  0  0  0  0  0  0  0  0  0
  146.4972  131.4856  158.4602 C   0  0  0  0  0  0  0  0  0  0  0  0
  147.3441  130.6298  158.1959 O   0  0  0  0  0  0  0  0  0  0  0  0
  145.2134  131.0796  159.1269 C   0  0  0  0  0  0  0  0  0  0  0  0
  145.2114  130.0282  160.0694 C   0  0  0  0  0  0  0  0  0  0  0  0
  144.0104  129.6323  160.6893 C   0  0  0  0  0  0  0  0  0  0  0  0
  142.8013  130.2724  160.3572 C   0  0  0  0  0  0  0  0  0  0  0  0
  142.7917  131.3030  159.3982 C   0  0  0  0  0  0  0  0  0  0  0  0
  143.9924  131.7003  158.7785 C   0  0  0  0  0  0  0  0  0  0  0  0
  148.1033  132.2382  156.3514 N   0  0  0  0  0  0  0  0  0  0  0  0
  149.0631  132.5119  155.4623 C   0  0  0  0  0  0  0  0  0  0  0  0
  149.7786  133.6308  155.3224 N   0  0  0  0  0  0  0  0  0  0  0  0
  149.4299  134.5691  156.2497 C   0  0  0  0  0  0  0  0  0  0  0  0
  150.6119  137.8639  155.1215 C   0  0  2  0  0  0  0  0  0  0  0  0
  150.3390  137.9455  153.7366 O   0  0  0  0  0  0  0  0  0  0  0  0
  151.8170  138.7203  155.4846 C   0  0  2  0  0  0  0  0  0  0  0  0
  152.7164  138.7151  154.4962 F   0  0  0  0  0  0  0  0  0  0  0  0
  153.1461  141.4154  159.7651 C   0  0  0  0  0  0  0  0  0  0  0  0
  153.6227  141.4029  161.0971 C   0  0  0  0  0  0  0  0  0  0  0  0
  153.4710  142.5320  161.9247 C   0  0  0  0  0  0  0  0  0  0  0  0
  152.8449  143.6894  161.4284 C   0  0  0  0  0  0  0  0  0  0  0  0
  152.3627  143.7135  160.1069 C   0  0  0  0  0  0  0  0  0  0  0  0
  152.5117  142.5843  159.2795 C   0  0  0  0  0  0  0  0  0  0  0  0
  152.5231  137.8391  158.8209 H   0  0  0  0  0  0  0  0  0  0  0  0
  150.9216  138.1517  158.1840 H   0  0  0  0  0  0  0  0  0  0  0  0
  153.5194  138.0966  156.6432 H   0  0  0  0  0  0  0  0  0  0  0  0
  151.2122  135.7424  154.7834 H   0  0  0  0  0  0  0  0  0  0  0  0
  149.4860  137.3248  157.9224 H   0  0  0  0  0  0  0  0  0  0  0  0
  143.8645  135.2985  159.7848 H   0  0  0  0  0  0  0  0  0  0  0  0
  142.9829  135.1630  162.0975 H   0  0  0  0  0  0  0  0  0  0  0  0
  144.1325  133.7513  163.7937 H   0  0  0  0  0  0  0  0  0  0  0  0
  146.1837  132.4860  163.1738 H   0  0  0  0  0  0  0  0  0  0  0  0
  147.0771  132.6165  160.8671 H   0  0  0  0  0  0  0  0  0  0  0  0
  146.1338  129.5303  160.3321 H   0  0  0  0  0  0  0  0  0  0  0  0
  144.0171  128.8364  161.4191 H   0  0  0  0  0  0  0  0  0  0  0  0
  141.8806  129.9685  160.8328 H   0  0  0  0  0  0  0  0  0  0  0  0
  141.8633  131.7887  159.1366 H   0  0  0  0  0  0  0  0  0  0  0  0
  143.9718  132.4893  158.0406 H   0  0  0  0  0  0  0  0  0  0  0  0
  149.2892  131.7220  154.7613 H   0  0  0  0  0  0  0  0  0  0  0  0
  149.7391  138.1971  155.6805 H   0  0  0  0  0  0  0  0  0  0  0  0
  149.6173  137.3683  153.5393 H   0  0  0  0  0  0  0  0  0  0  0  0
  151.5694  139.7601  155.7006 H   0  0  0  0  0  0  0  0  0  0  0  0
  154.1076  140.5255  161.5007 H   0  0  0  0  0  0  0  0  0  0  0  0
  153.8353  142.5097  162.9414 H   0  0  0  0  0  0  0  0  0  0  0  0
  152.7259  144.5550  162.0632 H   0  0  0  0  0  0  0  0  0  0  0  0
  151.8736  144.5989  159.7278 H   0  0  0  0  0  0  0  0  0  0  0  0
  152.1317  142.6381  158.2719 H   0  0  0  0  0  0  0  0  0  0  0  0
  1  2  2  0  0  0  0
  2  3  1  0  0  0  0
  2 38  1  0  0  0  0
  3  4  1  0  0  0  0
  4  5  1  0  0  0  0
  4 44  1  0  0  0  0
  4 45  1  0  0  0  0
  5 36  1  0  0  0  0
  5  6  1  0  0  0  0
  5 46  1  0  0  0  0
  6  7  1  0  0  0  0
  7  8  1  0  0  0  0
  7 34  1  0  0  0  0
  7 47  1  0  0  0  0
  8 33  1  0  0  0  0
  8  9  1  0  0  0  0
  9 10  2  0  0  0  0
  9 48  1  0  0  0  0
 10 11  1  0  0  0  0
 11 33  2  0  0  0  0
 11 12  1  0  0  0  0
 12 13  1  0  0  0  0
 12 30  2  0  0  0  0
 13 14  1  0  0  0  0
 13 22  1  0  0  0  0
 14 15  2  0  0  0  0
 14 16  1  0  0  0  0
 16 21  1  0  0  0  0
 16 17  2  0  0  0  0
 17 18  1  0  0  0  0
 17 49  1  0  0  0  0
 18 19  2  0  0  0  0
 18 50  1  0  0  0  0
 19 20  1  0  0  0  0
 19 51  1  0  0  0  0
 20 21  2  0  0  0  0
 20 52  1  0  0  0  0
 21 53  1  0  0  0  0
 22 23  2  0  0  0  0
 22 24  1  0  0  0  0
 24 29  1  0  0  0  0
 24 25  2  0  0  0  0
 25 26  1  0  0  0  0
 25 54  1  0  0  0  0
 26 27  2  0  0  0  0
 26 55  1  0  0  0  0
 27 28  1  0  0  0  0
 27 56  1  0  0  0  0
 28 29  2  0  0  0  0
 28 57  1  0  0  0  0
 29 58  1  0  0  0  0
 30 31  1  0  0  0  0
 31 32  2  0  0  0  0
 31 59  1  0  0  0  0
 32 33  1  0  0  0  0
 34 35  1  0  0  0  0
 34 36  1  0  0  0  0
 34 60  1  0  0  0  0
 35 61  1  0  0  0  0
 36 37  1  0  0  0  0
 36 62  1  0  0  0  0
 38 43  1  0  0  0  0
 38 39  2  0  0  0  0
 39 40  1  0  0  0  0
 39 63  1  0  0  0  0
 40 41  2  0  0  0  0
 40 64  1  0  0  0  0
 41 42  1  0  0  0  0
 41 65  1  0  0  0  0
 42 43  2  0  0  0  0
 42 66  1  0  0  0  0
 43 67  1  0  0  0  0
M  END
> <s_m_source_file>
AV-unprocessed.smi

> <i_m_source_file_index>
33

> <i_lp_mmshare_version>
43012

> <i_f3d_flags>
0

> <s_epik_input>
W2NIXTFbY0hdW2NIXVtjSF1bY0hdYzFDKD1PKU9bQ0gyXVtDQEBIXTJPW0NASF0oW0NAQEhdKFtPSF0pW0NAQEhdMkYpbihbY0hdbjMpYyhjMzQpbltjSF1uYzROKEMoPU8pYzVbY0hdW2NIXVtjSF1bY0hdW2NIXTUpQyg9TyljNltjSF1bY0hdW2NIXVtjSF1bY0hdNg==

> <s_epik_cmdline>
J2VwaWtfcHl0aG9uJywgJy1waCcsICc3LjAnLCAnLXRuJywgJzgnLCAnLW1hJywgJzIwMCcsICctbWV0YWxfYmluZGluZycsICctaW1hZScsICc8aW5maWxlLm1hZT4nLCAnLW9tYWUnLCAnPG91dGZpbGUubWFlPic=

> <r_lp_tautomer_probability>
1

> <r_epik_Ionization_Penalty>
0.00067664

> <r_epik_Ionization_Penalty_Charging>
0

> <r_epik_Ionization_Penalty_Neutral>
0.00067664

> <r_epik_State_Penalty>
0.000428095

> <r_epik_Charging_Adjusted_Penalty>
0.000428095

> <i_epik_Tot_Q>
0

> <i_epik_Tot_abs_Q>
0

> <r_epik_Metal_State_Penalty>
-0

> <b_epik_Metal_Only>
0

> <s_epik_Chemistry_Notes>
This compound has an ester and may undergo hydrolysis at high or low pH. This compound contains an acetal/aminal-like group ( X-CH(R)-Y where X, Y are N, S, or O) that may be acid/base labile, releasing an aldehyde.

> <s_lp_Force_Field>
OPLS_2005

> <r_lp_Energy>
67.2923

> <b_lp_Chiralities_Consistent>
1

> <s_lp_Variant>
AV-unprocessed.smi:33-6

> <Gold.Version>
5.8.1

> <Gold.Id.Protein>
6NUR|6NUR_protein|mol2

> <Gold.PLP.Fitness>
59.3252

> <Gold.PLP.PLP>
-55.1186

> <Gold.PLP.part.hbond>
-4.0000

> <Gold.PLP.part.metal>
0.0000

> <Gold.PLP.part.buried>
-8.9119

> <Gold.PLP.part.nonpolar>
-42.4855

> <Gold.PLP.part.repulsive>
0.0446

> <Gold.PLP.ligand.clash>
0.0000

> <Gold.PLP.ligand.torsion>
3.3448

> <Gold.PLP.Chemscore.Hbond>
2.3499

> <Gold.PLP.Chemscore.CHOScore>
0.0000

> <Gold.PLP.Chemscore.Metal>
0.0000

> <Gold.Chemscore.Hbonds>
donor molecule, donor type, donor heavy atom, donor atom, acceptor molecule, acceptor atom, score
      L1  H    35    61       P1  7948  0.58
      P1  H  7997  8009       L1     1  1.00
      P1  H 10752 10763       L1     6  0.73

> <Gold.PLP.Chemscore.Internal.Correction>
3.8464

> <Gold.Rescore>
     Score         DG    S(hbond)    S(metal)    S(lipo)     H(rot)  DE(clash)    DE(int)     intcor
     10.28     -20.53       1.53        0.00     140.10       2.52       0.04      10.21       ----

> <Gold.Chemscore.Fitness>
10.2837

> <Gold.Chemscore.DG>
-20.5309

> <Gold.Chemscore.ZeroCoef>
-5.4800

> <Gold.Chemscore.Hbond>
1.5335

> <Gold.Chemscore.Metal>
0.0000

> <Gold.Chemscore.Lipo>
140.1047

> <Gold.Chemscore.Internal_Hbond>
0.0000

> <Gold.Chemscore.DEClash>
0.0417

> <Gold.Chemscore.DEInternal>
10.2055

> <Gold.Chemscore.Rot>
2.5247

> <Gold.Chemscore.Internal.Correction>
   9.000000E+99

> <Gold.Chemscore.Hbonds>
donor molecule, donor type, donor heavy atom, donor atom, acceptor molecule, acceptor atom, score
      L1  H    35    61       P1  7948  0.48
      P1  H  7997  8009       L1     1  0.70
      P1  H 10752 10763       L1     6  0.14

> <Gold.Chemscore.Hbond.Weighted>
-5.1219

> <Gold.Chemscore.Metal.Weighted>
-0.0000

> <Gold.Chemscore.Lipo.Weighted>
-16.3923

> <Gold.Chemscore.Internal_Hbond.Weighted>
0.0000

> <Gold.Chemscore.DEClash.Weighted>
0.0417

> <Gold.Chemscore.DEInternal.Weighted>
10.2055

> <Gold.Chemscore.Rot.Weighted>
6.4633

> <Gold.Chemscore.Internal.Correction.Weighted>
   9.000000E+99

> <Gold.Protein.RotatedTorsions>
[ 6907 6896 6895 6894 ] final  139.86 input  -60.11 | X-H torsion
[ 7974 7965 7964 7962 ] final   69.87 input  175.53 | X-H torsion
[ 8008 7997 7996 7995 ] final  121.63 input   59.86 | X-H torsion
[ 10167 10162 10161 10158 ] final -123.88 input  -65.29 | X-H torsion
[ 10718 10713 10712 10709 ] final  -27.30 input   66.30 | X-H torsion
[ 10763 10752 10751 10750 ] final  113.83 input  -60.55 | X-H torsion
[ 11005 11000 10999 10996 ] final  -52.09 input  -57.11 | X-H torsion

> <Gold.Protein.ActiveResidues>
 VAL166  LYS551  ARG553  GLY616  TRP617  ASP618  TYR619  PRO620  LYS621  CYS622 
 ASP623  PHE694  ASN695  SER759  ASP760  ASP761  ALA762  ILE779  LEU786  VAL792 
 PHE793  MET794  SER795  GLU796  ALA797  LYS798  CYS799  TRP800  GLU811  SER814 

> <Gold.Protein.RotatedAtoms>
  152.2499  133.5206  159.5319 H   0  0  0  0  0  0  0  0  0  0  0  0  # atno 6907 bound_to 6896
  150.7090  134.0974  159.3962 H   0  0  0  0  0  0  0  0  0  0  0  0  # atno 6908 bound_to 6896
  151.8894  135.0422  160.0547 H   0  0  0  0  0  0  0  0  0  0  0  0  # atno 6909 bound_to 6896
  145.7851  139.2906  143.1243 H   0  0  0  0  0  0  0  0  0  0  0  0  # atno 7974 bound_to 7965
  156.2694  140.2804  156.1338 H   0  0  0  0  0  0  0  0  0  0  0  0  # atno 8008 bound_to 7997
  155.1025  140.0390  157.2719 H   0  0  0  0  0  0  0  0  0  0  0  0  # atno 8009 bound_to 7997
  154.6804  140.2607  155.6920 H   0  0  0  0  0  0  0  0  0  0  0  0  # atno 8010 bound_to 7997
  139.9987  143.5563  152.2312 H   0  0  0  0  0  0  0  0  0  0  0  0  # atno 10167 bound_to 10162
  156.4399  130.4462  149.7060 H   0  0  0  0  0  0  0  0  0  0  0  0  # atno 10718 bound_to 10713
  153.4983  135.3643  155.2527 H   0  0  0  0  0  0  0  0  0  0  0  0  # atno 10763 bound_to 10752
  154.8749  135.3994  154.3508 H   0  0  0  0  0  0  0  0  0  0  0  0  # atno 10764 bound_to 10752
  153.4140  135.7078  153.6406 H   0  0  0  0  0  0  0  0  0  0  0  0  # atno 10765 bound_to 10752
  141.0906  133.6633  156.3973 H   0  0  0  0  0  0  0  0  0  0  0  0  # atno 11005 bound_to 11000
  146.0035  140.8499  143.0007 LP  0  0  0  0  0  0  0  0  0  0  0  0  # atno 17320 bound_to 7965
  144.6790  140.2386  143.7346 LP  0  0  0  0  0  0  0  0  0  0  0  0  # atno 17321 bound_to 7965
  139.6287  144.7641  151.2582 LP  0  0  0  0  0  0  0  0  0  0  0  0  # atno 17342 bound_to 10162
  140.7427  143.6518  150.8242 LP  0  0  0  0  0  0  0  0  0  0  0  0  # atno 17343 bound_to 10162
  156.3929  130.7636  151.2638 LP  0  0  0  0  0  0  0  0  0  0  0  0  # atno 17370 bound_to 10713
  157.7506  131.0262  150.3954 LP  0  0  0  0  0  0  0  0  0  0  0  0  # atno 17371 bound_to 10713
  140.5261  134.6257  157.5334 LP  0  0  0  0  0  0  0  0  0  0  0  0  # atno 17394 bound_to 11000
  139.9731  134.7260  156.0002 LP  0  0  0  0  0  0  0  0  0  0  0  0  # atno 17395 bound_to 11000

$$$$
