AV-unprocessed.smi:1409|AV-procd|sdf|5728|dock8
  -GOLD-   22720 5363D 1   1.00000     0.00000
 Structure written by MMmdl.
 37 38  0  0  0  0  0  0  0  0  1 V2000
  148.3060  131.9786  153.1154 C   0  0  0  0  0  0  0  0  0  0  0  0
  147.8132  132.9853  152.2378 O   0  0  0  0  0  0  0  0  0  0  0  0
  146.5467  132.8349  151.7051 C   0  0  0  0  0  0  0  0  0  0  0  0
  146.0801  131.5775  151.5001 N   0  0  0  0  0  0  0  0  0  0  0  0
  144.8440  131.4272  150.9824 C   0  0  0  0  0  0  0  0  0  0  0  0
  144.0129  132.5115  150.6487 C   0  0  0  0  0  0  0  0  0  0  0  0
  144.4934  133.8166  150.8618 C   0  0  0  0  0  0  0  0  0  0  0  0
  145.7938  133.9928  151.3968 C   0  0  0  0  0  0  0  0  0  0  0  0
  146.3882  135.2588  151.6667 N   0  0  0  0  0  0  0  0  0  0  0  0
  145.8083  136.4393  151.9437 C   0  0  0  0  0  0  0  0  0  0  0  0
  144.5976  136.6478  152.0070 O   0  0  0  0  0  0  0  0  0  0  0  0
  146.7321  137.3905  152.1429 N   0  0  0  0  0  0  0  0  0  0  0  0
  146.4589  138.7882  152.4652 C   0  0  0  0  0  0  0  0  0  0  0  0
  147.7233  139.5223  152.9500 C   0  0  1  0  0  0  0  0  0  0  0  0
  147.4096  140.9285  153.4972 C   0  0  0  0  0  0  0  0  0  0  0  0
  148.6658  141.4794  154.1786 C   0  0  0  0  0  0  0  0  0  0  0  0
  149.4950  140.0283  154.9270 S   0  0  0  0  0  0  0  0  0  0  0  0
  150.8889  139.9805  154.4602 O   0  0  0  0  0  0  0  0  0  0  0  0
  149.1738  139.9655  156.3608 O   0  0  0  0  0  0  0  0  0  0  0  0
  148.5064  138.7663  154.0378 C   0  0  0  0  0  0  0  0  0  0  0  0
  149.3121  132.2444  153.4392 H   0  0  0  0  0  0  0  0  0  0  0  0
  148.3638  131.0082  152.6202 H   0  0  0  0  0  0  0  0  0  0  0  0
  147.6844  131.8898  154.0074 H   0  0  0  0  0  0  0  0  0  0  0  0
  144.5065  130.4122  150.8331 H   0  0  0  0  0  0  0  0  0  0  0  0
  143.0268  132.3458  150.2407 H   0  0  0  0  0  0  0  0  0  0  0  0
  143.8473  134.6438  150.6168 H   0  0  0  0  0  0  0  0  0  0  0  0
  147.3964  135.2700  151.6132 H   0  0  0  0  0  0  0  0  0  0  0  0
  147.7038  137.1267  152.0684 H   0  0  0  0  0  0  0  0  0  0  0  0
  146.0857  139.2666  151.5594 H   0  0  0  0  0  0  0  0  0  0  0  0
  145.6595  138.8732  153.2032 H   0  0  0  0  0  0  0  0  0  0  0  0
  148.3919  139.6537  152.0977 H   0  0  0  0  0  0  0  0  0  0  0  0
  147.0569  141.5988  152.7130 H   0  0  0  0  0  0  0  0  0  0  0  0
  146.6112  140.8559  154.2368 H   0  0  0  0  0  0  0  0  0  0  0  0
  149.3447  141.9152  153.4453 H   0  0  0  0  0  0  0  0  0  0  0  0
  148.4472  142.2269  154.9414 H   0  0  0  0  0  0  0  0  0  0  0  0
  147.8308  138.3054  154.7591 H   0  0  0  0  0  0  0  0  0  0  0  0
  149.1603  137.9931  153.6341 H   0  0  0  0  0  0  0  0  0  0  0  0
  1  2  1  0  0  0  0
  1 21  1  0  0  0  0
  1 22  1  0  0  0  0
  1 23  1  0  0  0  0
  2  3  1  0  0  0  0
  3  8  1  0  0  0  0
  3  4  2  0  0  0  0
  4  5  1  0  0  0  0
  5  6  2  0  0  0  0
  5 24  1  0  0  0  0
  6  7  1  0  0  0  0
  6 25  1  0  0  0  0
  7  8  2  0  0  0  0
  7 26  1  0  0  0  0
  8  9  1  0  0  0  0
  9 10  1  0  0  0  0
  9 27  1  0  0  0  0
 10 11  2  0  0  0  0
 10 12  1  0  0  0  0
 12 13  1  0  0  0  0
 12 28  1  0  0  0  0
 13 14  1  0  0  0  0
 13 29  1  0  0  0  0
 13 30  1  0  0  0  0
 14 20  1  0  0  0  0
 14 15  1  0  0  0  0
 14 31  1  0  0  0  0
 15 16  1  0  0  0  0
 15 32  1  0  0  0  0
 15 33  1  0  0  0  0
 16 17  1  0  0  0  0
 16 34  1  0  0  0  0
 16 35  1  0  0  0  0
 17 18  2  0  0  0  0
 17 19  2  0  0  0  0
 17 20  1  0  0  0  0
 20 36  1  0  0  0  0
 20 37  1  0  0  0  0
M  END
> <s_m_source_file>
AV-unprocessed.smi

> <i_m_source_file_index>
1409

> <i_lp_mmshare_version>
43012

> <i_f3d_flags>
0

> <s_epik_input>
W0NIM11PYzFuW2NIXVtjSF1bY0hdYzFbTkhdQyg9TylbTkhdW0NIMl1bQ0BASF0oW0NIMl0yKVtDSDJdW0NIMl1TMig9Tyk9Tw==

> <s_epik_cmdline>
J2VwaWtfcHl0aG9uJywgJy1waCcsICc3LjAnLCAnLXRuJywgJzgnLCAnLW1hJywgJzIwMCcsICctbWV0YWxfYmluZGluZycsICctaW1hZScsICc8aW5maWxlLm1hZT4nLCAnLW9tYWUnLCAnPG91dGZpbGUubWFlPic=

> <r_lp_tautomer_probability>
1

> <r_epik_Ionization_Penalty>
9.0549e-05

> <r_epik_Ionization_Penalty_Charging>
0

> <r_epik_Ionization_Penalty_Neutral>
9.0549e-05

> <r_epik_State_Penalty>
-0

> <r_epik_Charging_Adjusted_Penalty>
0

> <i_epik_Tot_Q>
0

> <i_epik_Tot_abs_Q>
0

> <r_epik_Metal_State_Penalty>
-0

> <b_epik_Metal_Only>
0

> <s_lp_Force_Field>
OPLS_2005

> <r_lp_Energy>
6.49732

> <b_lp_Chiralities_Consistent>
1

> <s_lp_Variant>
AV-unprocessed.smi:1409-2

> <Gold.Version>
5.8.1

> <Gold.Id.Protein>
6NUR|6NUR_protein|mol2

> <Gold.PLP.Fitness>
41.3570

> <Gold.PLP.PLP>
-33.6883

> <Gold.PLP.part.hbond>
-2.9540

> <Gold.PLP.part.metal>
0.0000

> <Gold.PLP.part.buried>
-2.3405

> <Gold.PLP.part.nonpolar>
-30.1210

> <Gold.PLP.part.repulsive>
1.7451

> <Gold.PLP.ligand.clash>
0.0000

> <Gold.PLP.ligand.torsion>
0.6556

> <Gold.PLP.Chemscore.Hbond>
2.9920

> <Gold.PLP.Chemscore.CHOScore>
0.0000

> <Gold.PLP.Chemscore.Metal>
0.0000

> <Gold.Chemscore.Hbonds>
donor molecule, donor type, donor heavy atom, donor atom, acceptor molecule, acceptor atom, score
      L1  H     9    27       P1  7948  0.98
      L1  H    12    28       P1  7948  1.00
      P1  H  7989  7998       L1    18  0.94

> <Gold.PLP.Chemscore.Internal.Correction>
0.0039

> <Gold.Rescore>
     Score         DG    S(hbond)    S(metal)    S(lipo)     H(rot)  DE(clash)    DE(int)     intcor
     17.27     -18.54       2.91        0.00      63.44       1.59       0.52       0.75       ----

> <Gold.Chemscore.Fitness>
17.2725

> <Gold.Chemscore.DG>
-18.5422

> <Gold.Chemscore.ZeroCoef>
-5.4800

> <Gold.Chemscore.Hbond>
2.9087

> <Gold.Chemscore.Metal>
0.0000

> <Gold.Chemscore.Lipo>
63.4395

> <Gold.Chemscore.Internal_Hbond>
0.0000

> <Gold.Chemscore.DEClash>
0.5187

> <Gold.Chemscore.DEInternal>
0.7509

> <Gold.Chemscore.Rot>
1.5919

> <Gold.Chemscore.Internal.Correction>
   9.000000E+99

> <Gold.Chemscore.Hbonds>
donor molecule, donor type, donor heavy atom, donor atom, acceptor molecule, acceptor atom, score
      L1  H     9    27       P1  7948  0.85
      L1  H    12    28       P1  7948  0.93
      P1  H  7989  7998       L1    18  0.90

> <Gold.Chemscore.Hbond.Weighted>
-9.7151

> <Gold.Chemscore.Metal.Weighted>
-0.0000

> <Gold.Chemscore.Lipo.Weighted>
-7.4224

> <Gold.Chemscore.Internal_Hbond.Weighted>
0.0000

> <Gold.Chemscore.DEClash.Weighted>
0.5187

> <Gold.Chemscore.DEInternal.Weighted>
0.7509

> <Gold.Chemscore.Rot.Weighted>
4.0754

> <Gold.Chemscore.Internal.Correction.Weighted>
   9.000000E+99

> <Gold.Protein.RotatedTorsions>
[ 6907 6896 6895 6894 ] final  168.31 input  -60.11 | X-H torsion
[ 7974 7965 7964 7962 ] final   17.14 input  175.53 | X-H torsion
[ 8008 7997 7996 7995 ] final   66.62 input   59.86 | X-H torsion
[ 10167 10162 10161 10158 ] final   90.98 input  -65.29 | X-H torsion
[ 10718 10713 10712 10709 ] final   30.67 input   66.30 | X-H torsion
[ 10763 10752 10751 10750 ] final -110.30 input  -60.55 | X-H torsion
[ 11005 11000 10999 10996 ] final  -84.42 input  -57.11 | X-H torsion

> <Gold.Protein.ActiveResidues>
 VAL166  LYS551  ARG553  GLY616  TRP617  ASP618  TYR619  PRO620  LYS621  CYS622 
 ASP623  PHE694  ASN695  SER759  ASP760  ASP761  ALA762  ILE779  LEU786  VAL792 
 PHE793  MET794  SER795  GLU796  ALA797  LYS798  CYS799  TRP800  GLU811  SER814 

> <Gold.Protein.RotatedAtoms>
  151.8496  133.3437  159.3668 H   0  0  0  0  0  0  0  0  0  0  0  0  # atno 6907 bound_to 6896
  150.7210  134.5311  159.5710 H   0  0  0  0  0  0  0  0  0  0  0  0  # atno 6908 bound_to 6896
  152.2802  134.7837  160.0449 H   0  0  0  0  0  0  0  0  0  0  0  0  # atno 6909 bound_to 6896
  146.2228  139.8646  142.8598 H   0  0  0  0  0  0  0  0  0  0  0  0  # atno 7974 bound_to 7965
  155.6802  140.3496  155.4852 H   0  0  0  0  0  0  0  0  0  0  0  0  # atno 8008 bound_to 7997
  155.9613  140.1138  157.0916 H   0  0  0  0  0  0  0  0  0  0  0  0  # atno 8009 bound_to 7997
  154.4144  140.1175  156.5169 H   0  0  0  0  0  0  0  0  0  0  0  0  # atno 8010 bound_to 7997
  139.8419  144.6637  150.9273 H   0  0  0  0  0  0  0  0  0  0  0  0  # atno 10167 bound_to 10162
  157.2626  130.7169  149.6462 H   0  0  0  0  0  0  0  0  0  0  0  0  # atno 10718 bound_to 10713
  154.8241  135.4569  154.0865 H   0  0  0  0  0  0  0  0  0  0  0  0  # atno 10763 bound_to 10752
  153.2194  135.6892  153.8025 H   0  0  0  0  0  0  0  0  0  0  0  0  # atno 10764 bound_to 10752
  153.7447  135.3307  155.3287 H   0  0  0  0  0  0  0  0  0  0  0  0  # atno 10765 bound_to 10752
  141.1650  133.7345  156.8866 H   0  0  0  0  0  0  0  0  0  0  0  0  # atno 11005 bound_to 11000
  145.2669  141.0096  143.3794 LP  0  0  0  0  0  0  0  0  0  0  0  0  # atno 17320 bound_to 7965
  144.9254  139.4362  143.6521 LP  0  0  0  0  0  0  0  0  0  0  0  0  # atno 17321 bound_to 7965
  140.7797  143.3905  151.1319 LP  0  0  0  0  0  0  0  0  0  0  0  0  # atno 17342 bound_to 10162
  139.7550  143.8721  152.3086 LP  0  0  0  0  0  0  0  0  0  0  0  0  # atno 17343 bound_to 10162
  155.9664  130.4392  150.5251 LP  0  0  0  0  0  0  0  0  0  0  0  0  # atno 17370 bound_to 10713
  157.3159  131.0672  151.1967 LP  0  0  0  0  0  0  0  0  0  0  0  0  # atno 17371 bound_to 10713
  140.1678  134.9121  157.2795 LP  0  0  0  0  0  0  0  0  0  0  0  0  # atno 17394 bound_to 11000
  140.2537  134.3653  155.7432 LP  0  0  0  0  0  0  0  0  0  0  0  0  # atno 17395 bound_to 11000

$$$$
