AV-unprocessed.smi:3243|AV-procd|sdf|12396|dock10
  -GOLD-   2272018273D 1   1.00000     0.00000
 Structure written by MMmdl.
 37 38  0  0  0  0  0  0  0  0  1 V2000
  144.3621  143.9120  154.6065 C   0  0  0  0  0  0  0  0  0  0  0  0
  145.1236  143.1687  155.7135 C   0  0  0  0  0  0  0  0  0  0  0  0
  145.3959  144.0407  156.9477 C   0  0  0  0  0  0  0  0  0  0  0  0
  146.3684  142.5159  155.1997 C   0  0  0  0  0  0  0  0  0  0  0  0
  147.2417  141.8683  155.9770 N   0  0  0  0  0  0  0  0  0  0  0  0
  148.3244  141.3503  155.2602 C   0  0  0  0  0  0  0  0  0  0  0  0
  149.4067  140.6030  155.9780 C   0  0  0  0  0  0  0  0  0  0  0  0
  150.7556  141.3388  155.9176 C   0  0  0  0  0  0  0  0  0  0  0  0
  150.7291  142.5765  156.6882 N   0  0  0  0  0  0  0  0  0  0  0  0
  151.3408  142.7646  157.8675 C   0  0  0  0  0  0  0  0  0  0  0  0
  151.9759  141.8843  158.4477 O   0  0  0  0  0  0  0  0  0  0  0  0
  151.1318  144.1184  158.4573 C   0  0  2  0  0  0  0  0  0  0  0  0
  152.3428  145.0048  158.6668 C   0  0  0  0  0  0  0  0  0  0  0  0
  151.6492  144.3999  159.8625 C   0  0  2  0  0  0  0  0  0  0  0  0
  152.3777  143.3835  160.7244 C   0  0  0  0  0  0  0  0  0  0  0  0
  148.2578  141.6137  153.9146 C   0  0  0  0  0  0  0  0  0  0  0  0
  146.8314  142.5245  153.5012 S   0  0  0  0  0  0  0  0  0  0  0  0
  144.1150  143.2417  153.7827 H   0  0  0  0  0  0  0  0  0  0  0  0
  144.9535  144.7340  154.2016 H   0  0  0  0  0  0  0  0  0  0  0  0
  143.4285  144.3294  154.9843 H   0  0  0  0  0  0  0  0  0  0  0  0
  144.4695  142.3618  156.0462 H   0  0  0  0  0  0  0  0  0  0  0  0
  145.8594  143.4581  157.7445 H   0  0  0  0  0  0  0  0  0  0  0  0
  144.4714  144.4630  157.3423 H   0  0  0  0  0  0  0  0  0  0  0  0
  146.0638  144.8691  156.7088 H   0  0  0  0  0  0  0  0  0  0  0  0
  149.1176  140.4475  157.0183 H   0  0  0  0  0  0  0  0  0  0  0  0
  149.5175  139.6066  155.5479 H   0  0  0  0  0  0  0  0  0  0  0  0
  151.5418  140.7042  156.3275 H   0  0  0  0  0  0  0  0  0  0  0  0
  151.0334  141.5479  154.8830 H   0  0  0  0  0  0  0  0  0  0  0  0
  150.2101  143.3484  156.2952 H   0  0  0  0  0  0  0  0  0  0  0  0
  150.1868  144.5944  158.2038 H   0  0  0  0  0  0  0  0  0  0  0  0
  153.3223  144.6107  158.4001 H   0  0  0  0  0  0  0  0  0  0  0  0
  152.2128  146.0699  158.4863 H   0  0  0  0  0  0  0  0  0  0  0  0
  151.0203  145.0685  160.4473 H   0  0  0  0  0  0  0  0  0  0  0  0
  153.0888  142.8013  160.1372 H   0  0  0  0  0  0  0  0  0  0  0  0
  151.6623  142.7013  161.1839 H   0  0  0  0  0  0  0  0  0  0  0  0
  152.9263  143.8936  161.5162 H   0  0  0  0  0  0  0  0  0  0  0  0
  148.9597  141.3306  153.1444 H   0  0  0  0  0  0  0  0  0  0  0  0
  1  2  1  0  0  0  0
  1 18  1  0  0  0  0
  1 19  1  0  0  0  0
  1 20  1  0  0  0  0
  2  3  1  0  0  0  0
  2  4  1  0  0  0  0
  2 21  1  0  0  0  0
  3 22  1  0  0  0  0
  3 23  1  0  0  0  0
  3 24  1  0  0  0  0
  4 17  1  0  0  0  0
  4  5  2  0  0  0  0
  5  6  1  0  0  0  0
  6  7  1  0  0  0  0
  6 16  2  0  0  0  0
  7  8  1  0  0  0  0
  7 25  1  0  0  0  0
  7 26  1  0  0  0  0
  8  9  1  0  0  0  0
  8 27  1  0  0  0  0
  8 28  1  0  0  0  0
  9 10  1  0  0  0  0
  9 29  1  0  0  0  0
 10 11  2  0  0  0  0
 10 12  1  0  0  0  0
 12 14  1  0  0  0  0
 12 13  1  0  0  0  0
 12 30  1  0  0  0  0
 13 14  1  0  0  0  0
 13 31  1  0  0  0  0
 13 32  1  0  0  0  0
 14 15  1  0  0  0  0
 14 33  1  0  0  0  0
 15 34  1  0  0  0  0
 15 35  1  0  0  0  0
 15 36  1  0  0  0  0
 16 17  1  0  0  0  0
 16 37  1  0  0  0  0
M  END
> <s_m_source_file>
AV-unprocessed.smi

> <i_m_source_file_index>
3243

> <i_lp_mmshare_version>
43012

> <i_f3d_flags>
0

> <s_epik_input>
W0NIM11bQ0hdKFtDSDNdKWMxbmMoW2NIXXMxKVtDSDJdW0NIMl1bTkhdQyg9TylbQ0BASF0yW0NIMl1bQ0BIXTJbQ0gzXQ==

> <s_epik_cmdline>
J2VwaWtfcHl0aG9uJywgJy1waCcsICc3LjAnLCAnLXRuJywgJzgnLCAnLW1hJywgJzIwMCcsICctbWV0YWxfYmluZGluZycsICctaW1hZScsICc8aW5maWxlLm1hZT4nLCAnLW9tYWUnLCAnPG91dGZpbGUubWFlPic=

> <r_epik_Ionization_Penalty>
0.00084212

> <r_epik_Ionization_Penalty_Charging>
0

> <r_epik_Ionization_Penalty_Neutral>
0.00084212

> <r_epik_State_Penalty>
0.000542609

> <r_epik_Charging_Adjusted_Penalty>
0.000542609

> <i_epik_Tot_Q>
0

> <i_epik_Tot_abs_Q>
0

> <r_epik_Metal_State_Penalty>
-0

> <b_epik_Metal_Only>
0

> <s_lp_Force_Field>
OPLS_2005

> <r_lp_Energy>
-0.500157

> <b_lp_Chiralities_Consistent>
1

> <s_lp_Variant>
AV-unprocessed.smi:3243-3

> <Gold.Version>
5.8.1

> <Gold.Id.Protein>
6NUR|6NUR_protein|mol2

> <Gold.PLP.Fitness>
42.9496

> <Gold.PLP.PLP>
-37.5479

> <Gold.PLP.part.hbond>
-1.0000

> <Gold.PLP.part.metal>
0.0000

> <Gold.PLP.part.buried>
-6.3119

> <Gold.PLP.part.nonpolar>
-30.6838

> <Gold.PLP.part.repulsive>
0.1686

> <Gold.PLP.ligand.clash>
0.0000

> <Gold.PLP.ligand.torsion>
0.3092

> <Gold.PLP.Chemscore.Hbond>
1.0000

> <Gold.PLP.Chemscore.CHOScore>
0.9512

> <Gold.PLP.Chemscore.Metal>
0.0000

> <Gold.Chemscore.Hbonds>
donor molecule, donor type, donor heavy atom, donor atom, acceptor molecule, acceptor atom, score
      L1  H     9    29       P1  8028  1.00
      L1  C    16    37       P1  7957  1.00

> <Gold.PLP.Chemscore.Internal.Correction>
0.1665

> <Gold.Rescore>
     Score         DG    S(hbond)    S(metal)    S(lipo)     H(rot)  DE(clash)    DE(int)     intcor
     14.42     -16.05       1.00        0.00      94.45       1.49       0.02       1.61       ----

> <Gold.Chemscore.Fitness>
14.4164

> <Gold.Chemscore.DG>
-16.0489

> <Gold.Chemscore.ZeroCoef>
-5.4800

> <Gold.Chemscore.Hbond>
0.9953

> <Gold.Chemscore.Metal>
0.0000

> <Gold.Chemscore.Lipo>
94.4546

> <Gold.Chemscore.Internal_Hbond>
0.0000

> <Gold.Chemscore.DEClash>
0.0229

> <Gold.Chemscore.DEInternal>
1.6097

> <Gold.Chemscore.Rot>
1.4870

> <Gold.Chemscore.Internal.Correction>
   9.000000E+99

> <Gold.Chemscore.Hbonds>
donor molecule, donor type, donor heavy atom, donor atom, acceptor molecule, acceptor atom, score
      L1  H     9    29       P1  8028  0.96

> <Gold.Chemscore.Hbond.Weighted>
-3.3244

> <Gold.Chemscore.Metal.Weighted>
-0.0000

> <Gold.Chemscore.Lipo.Weighted>
-11.0512

> <Gold.Chemscore.Internal_Hbond.Weighted>
0.0000

> <Gold.Chemscore.DEClash.Weighted>
0.0229

> <Gold.Chemscore.DEInternal.Weighted>
1.6097

> <Gold.Chemscore.Rot.Weighted>
3.8067

> <Gold.Chemscore.Internal.Correction.Weighted>
   9.000000E+99

> <Gold.Protein.RotatedTorsions>
[ 6907 6896 6895 6894 ] final   -9.16 input  -60.11 | X-H torsion
[ 7974 7965 7964 7962 ] final -142.63 input  175.53 | X-H torsion
[ 8008 7997 7996 7995 ] final  175.79 input   59.86 | X-H torsion
[ 10167 10162 10161 10158 ] final -159.27 input  -65.29 | X-H torsion
[ 10718 10713 10712 10709 ] final  144.10 input   66.30 | X-H torsion
[ 10763 10752 10751 10750 ] final -160.67 input  -60.55 | X-H torsion
[ 11005 11000 10999 10996 ] final   -6.62 input  -57.11 | X-H torsion

> <Gold.Protein.ActiveResidues>
 VAL166  LYS551  ARG553  GLY616  TRP617  ASP618  TYR619  PRO620  LYS621  CYS622 
 ASP623  PHE694  ASN695  SER759  ASP760  ASP761  ALA762  ILE779  LEU786  VAL792 
 PHE793  MET794  SER795  GLU796  ALA797  LYS798  CYS799  TRP800  GLU811  SER814 

> <Gold.Protein.RotatedAtoms>
  151.4222  135.0999  159.9617 H   0  0  0  0  0  0  0  0  0  0  0  0  # atno 6907 bound_to 6896
  152.4984  133.8696  159.7302 H   0  0  0  0  0  0  0  0  0  0  0  0  # atno 6908 bound_to 6896
  150.9215  133.6817  159.2859 H   0  0  0  0  0  0  0  0  0  0  0  0  # atno 6909 bound_to 6896
  144.8429  140.5934  143.5440 H   0  0  0  0  0  0  0  0  0  0  0  0  # atno 7974 bound_to 7965
  156.0833  140.1400  156.9684 H   0  0  0  0  0  0  0  0  0  0  0  0  # atno 8008 bound_to 7997
  154.4598  140.0947  156.6909 H   0  0  0  0  0  0  0  0  0  0  0  0  # atno 8009 bound_to 7997
  155.5039  140.3452  155.4378 H   0  0  0  0  0  0  0  0  0  0  0  0  # atno 8010 bound_to 7997
  139.6628  143.9883  152.2236 H   0  0  0  0  0  0  0  0  0  0  0  0  # atno 10167 bound_to 10162
  157.3612  131.0965  151.0913 H   0  0  0  0  0  0  0  0  0  0  0  0  # atno 10718 bound_to 10713
  154.7370  135.3059  154.8794 H   0  0  0  0  0  0  0  0  0  0  0  0  # atno 10763 bound_to 10752
  153.9620  135.6752  153.4749 H   0  0  0  0  0  0  0  0  0  0  0  0  # atno 10764 bound_to 10752
  153.0972  135.4930  154.8723 H   0  0  0  0  0  0  0  0  0  0  0  0  # atno 10765 bound_to 10752
  140.7040  133.8965  155.8703 H   0  0  0  0  0  0  0  0  0  0  0  0  # atno 11005 bound_to 11000
  145.4656  139.1508  143.3842 LP  0  0  0  0  0  0  0  0  0  0  0  0  # atno 17320 bound_to 7965
  146.2719  140.4788  142.8811 LP  0  0  0  0  0  0  0  0  0  0  0  0  # atno 17321 bound_to 7965
  139.9626  144.6547  150.8065 LP  0  0  0  0  0  0  0  0  0  0  0  0  # atno 17342 bound_to 10162
  140.7587  143.3113  151.2839 LP  0  0  0  0  0  0  0  0  0  0  0  0  # atno 17343 bound_to 10162
  157.2052  130.6413  149.5753 LP  0  0  0  0  0  0  0  0  0  0  0  0  # atno 17370 bound_to 10713
  155.9738  130.4678  150.6336 LP  0  0  0  0  0  0  0  0  0  0  0  0  # atno 17371 bound_to 10713
  141.0140  134.0981  157.4191 LP  0  0  0  0  0  0  0  0  0  0  0  0  # atno 17394 bound_to 11000
  139.8889  135.0101  156.6648 LP  0  0  0  0  0  0  0  0  0  0  0  0  # atno 17395 bound_to 11000

$$$$
