AV-unprocessed.smi:1680|AV-procd|sdf|6739|dock3
  -GOLD-   22720 7493D 1   1.00000     0.00000
 Structure written by MMmdl.
 37 38  0  0  0  0  0  0  0  0  2 V2000
  151.7106  146.0436  160.0767 C   0  0  0  0  0  0  0  0  0  0  0  0
  152.0965  144.6131  160.4588 C   0  0  0  0  0  0  0  0  0  0  0  0
  152.1161  144.3190  161.6543 O   0  0  0  0  0  0  0  0  0  0  0  0
  152.4003  143.7266  159.4815 N   0  0  0  0  0  0  0  0  0  0  0  0
  152.3285  144.0462  158.0533 C   0  0  0  0  0  0  0  0  0  0  0  0
  151.2295  143.1830  157.4038 C   0  0  0  0  0  0  0  0  0  0  0  0
  151.5240  141.7598  157.5937 N   0  0  0  0  0  0  0  0  0  0  0  0
  150.4894  140.9585  156.9395 C   0  0  0  0  0  0  0  0  0  0  0  0
  151.0066  140.1676  155.7200 C   0  0  0  0  0  0  0  0  0  0  0  0
  151.4579  138.8287  156.0903 N   0  0  0  0  0  0  0  0  0  0  0  0
  152.6800  138.3177  155.8808 C   0  0  0  0  0  0  0  0  0  0  0  0
  153.5495  138.9995  155.3330 O   0  0  0  0  0  0  0  0  0  0  0  0
  152.8206  137.0467  156.3217 N   0  5  0  0  0  0  0  0  0  0  0  0
  153.2115  136.8141  157.5856 C   0  0  0  0  0  0  0  0  0  0  0  0
  153.5003  135.5812  158.0325 N   0  0  0  0  0  0  0  0  0  0  0  0
  153.8796  135.5593  159.3679 N   0  0  0  0  0  0  0  0  0  0  0  0
  153.8598  136.7818  159.8985 C   0  0  0  0  0  0  0  0  0  0  0  0
  153.3718  138.0698  158.8173 S   0  0  0  0  0  0  0  0  0  0  0  0
  151.6222  141.4531  159.0258 C   0  0  0  0  0  0  0  0  0  0  0  0
  152.7258  142.3101  159.6746 C   0  0  0  0  0  0  0  0  0  0  0  0
  152.5234  146.5329  159.5391 H   0  0  0  0  0  0  0  0  0  0  0  0
  151.4971  146.6353  160.9675 H   0  0  0  0  0  0  0  0  0  0  0  0
  150.8173  146.0483  159.4517 H   0  0  0  0  0  0  0  0  0  0  0  0
  152.1208  145.1007  157.8676 H   0  0  0  0  0  0  0  0  0  0  0  0
  153.2942  143.8442  157.5874 H   0  0  0  0  0  0  0  0  0  0  0  0
  150.2555  143.4255  157.8318 H   0  0  0  0  0  0  0  0  0  0  0  0
  151.1780  143.4060  156.3376 H   0  0  0  0  0  0  0  0  0  0  0  0
  150.0398  140.2793  157.6654 H   0  0  0  0  0  0  0  0  0  0  0  0
  149.6889  141.6166  156.5980 H   0  0  0  0  0  0  0  0  0  0  0  0
  150.2801  140.1365  154.9081 H   0  0  0  0  0  0  0  0  0  0  0  0
  151.8719  140.6893  155.3113 H   0  0  0  0  0  0  0  0  0  0  0  0
  150.7808  138.2300  156.5395 H   0  0  0  0  0  0  0  0  0  0  0  0
  154.1299  136.9257  160.9340 H   0  0  0  0  0  0  0  0  0  0  0  0
  150.6648  141.6344  159.5167 H   0  0  0  0  0  0  0  0  0  0  0  0
  151.8644  140.4020  159.1736 H   0  0  0  0  0  0  0  0  0  0  0  0
  153.6891  142.0950  159.2092 H   0  0  0  0  0  0  0  0  0  0  0  0
  152.8358  142.0260  160.7199 H   0  0  0  0  0  0  0  0  0  0  0  0
  1  2  1  0  0  0  0
  1 21  1  0  0  0  0
  1 22  1  0  0  0  0
  1 23  1  0  0  0  0
  2  3  2  0  0  0  0
  2  4  1  0  0  0  0
  4 20  1  0  0  0  0
  4  5  1  0  0  0  0
  5  6  1  0  0  0  0
  5 24  1  0  0  0  0
  5 25  1  0  0  0  0
  6  7  1  0  0  0  0
  6 26  1  0  0  0  0
  6 27  1  0  0  0  0
  7  8  1  0  0  0  0
  7 19  1  0  0  0  0
  8  9  1  0  0  0  0
  8 28  1  0  0  0  0
  8 29  1  0  0  0  0
  9 10  1  0  0  0  0
  9 30  1  0  0  0  0
  9 31  1  0  0  0  0
 10 11  1  0  0  0  0
 10 32  1  0  0  0  0
 11 12  2  0  0  0  0
 11 13  1  0  0  0  0
 13 14  1  0  0  0  0
 14 18  1  0  0  0  0
 14 15  2  0  0  0  0
 15 16  1  0  0  0  0
 16 17  2  0  0  0  0
 17 18  1  0  0  0  0
 17 33  1  0  0  0  0
 19 20  1  0  0  0  0
 19 34  1  0  0  0  0
 19 35  1  0  0  0  0
 20 36  1  0  0  0  0
 20 37  1  0  0  0  0
M  CHG  1  13  -1
M  END
> <s_m_source_file>
AV-unprocessed.smi

> <i_m_source_file_index>
1680

> <i_lp_mmshare_version>
43012

> <i_f3d_flags>
0

> <s_epik_input>
W0NIM11DKD1PKU4xW0NIMl1bQ0gyXU4oW0NIMl1bQ0gyXTEpW0NIMl1bQ0gyXVtOSF1DKD1PKVtOSF1jMm5uW2NIXXMy

> <s_epik_cmdline>
J2VwaWtfcHl0aG9uJywgJy1waCcsICc3LjAnLCAnLXRuJywgJzgnLCAnLW1hJywgJzIwMCcsICctbWV0YWxfYmluZGluZycsICctaW1hZScsICc8aW5maWxlLm1hZT4nLCAnLW9tYWUnLCAnPG91dGZpbGUubWFlPic=

> <r_lp_tautomer_probability>
1

> <r_epik_Ionization_Penalty>
3.80493

> <r_epik_Ionization_Penalty_Charging>
3.53258

> <r_epik_Ionization_Penalty_Neutral>
0.272353

> <r_epik_State_Penalty>
3.75006

> <r_epik_Charging_Adjusted_Penalty>
7.28264

> <i_epik_Tot_Q>
-1

> <i_epik_Tot_abs_Q>
1

> <r_epik_Metal_State_Penalty>
0.749383

> <b_epik_Metal_Only>
1

> <s_lp_Force_Field>
OPLS_2005

> <r_lp_Energy>
35.6067

> <b_lp_Chiralities_Consistent>
1

> <s_lp_Variant>
AV-unprocessed.smi:1680-3

> <Gold.Version>
5.8.1

> <Gold.Id.Protein>
6NUR|6NUR_protein|mol2

> <Gold.PLP.Fitness>
46.3125

> <Gold.PLP.PLP>
-38.9622

> <Gold.PLP.part.hbond>
-3.5057

> <Gold.PLP.part.metal>
0.0000

> <Gold.PLP.part.buried>
-5.7719

> <Gold.PLP.part.nonpolar>
-30.6038

> <Gold.PLP.part.repulsive>
0.2952

> <Gold.PLP.ligand.clash>
0.0000

> <Gold.PLP.ligand.torsion>
1.6994

> <Gold.PLP.Chemscore.Hbond>
3.5680

> <Gold.PLP.Chemscore.CHOScore>
0.0000

> <Gold.PLP.Chemscore.Metal>
0.0000

> <Gold.Chemscore.Hbonds>
donor molecule, donor type, donor heavy atom, donor atom, acceptor molecule, acceptor atom, score
      P1  H  6896  6908       L1    16  0.80
      P1  H  7997  8008       L1    12  1.00
      P1  H 10752 10763       L1    13  1.60

> <Gold.PLP.Chemscore.Internal.Correction>
0.0450

> <Gold.Rescore>
     Score         DG    S(hbond)    S(metal)    S(lipo)     H(rot)  DE(clash)    DE(int)     intcor
     14.31     -16.04       1.96        0.00      72.81       1.77       0.02       1.71       ----

> <Gold.Chemscore.Fitness>
14.3144

> <Gold.Chemscore.DG>
-16.0382

> <Gold.Chemscore.ZeroCoef>
-5.4800

> <Gold.Chemscore.Hbond>
1.9640

> <Gold.Chemscore.Metal>
0.0000

> <Gold.Chemscore.Lipo>
72.8075

> <Gold.Chemscore.Internal_Hbond>
0.0000

> <Gold.Chemscore.DEClash>
0.0183

> <Gold.Chemscore.DEInternal>
1.7055

> <Gold.Chemscore.Rot>
1.7657

> <Gold.Chemscore.Internal.Correction>
   9.000000E+99

> <Gold.Chemscore.Hbonds>
donor molecule, donor type, donor heavy atom, donor atom, acceptor molecule, acceptor atom, score
      P1  H  6896  6908       L1    16  0.10
      P1  H  7997  8008       L1    12  0.93
      P1  H 10752 10763       L1    13  0.59

> <Gold.Chemscore.Hbond.Weighted>
-6.5599

> <Gold.Chemscore.Metal.Weighted>
-0.0000

> <Gold.Chemscore.Lipo.Weighted>
-8.5185

> <Gold.Chemscore.Internal_Hbond.Weighted>
0.0000

> <Gold.Chemscore.DEClash.Weighted>
0.0183

> <Gold.Chemscore.DEInternal.Weighted>
1.7055

> <Gold.Chemscore.Rot.Weighted>
4.5201

> <Gold.Chemscore.Internal.Correction.Weighted>
   9.000000E+99

> <Gold.Protein.RotatedTorsions>
[ 6907 6896 6895 6894 ] final  -48.10 input  -60.11 | X-H torsion
[ 7974 7965 7964 7962 ] final -115.54 input  175.53 | X-H torsion
[ 8008 7997 7996 7995 ] final  -24.41 input   59.86 | X-H torsion
[ 10167 10162 10161 10158 ] final -150.68 input  -65.29 | X-H torsion
[ 10718 10713 10712 10709 ] final  -34.39 input   66.30 | X-H torsion
[ 10763 10752 10751 10750 ] final   97.32 input  -60.55 | X-H torsion
[ 11005 11000 10999 10996 ] final   99.26 input  -57.11 | X-H torsion

> <Gold.Protein.ActiveResidues>
 VAL166  LYS551  ARG553  GLY616  TRP617  ASP618  TYR619  PRO620  LYS621  CYS622 
 ASP623  PHE694  ASN695  SER759  ASP760  ASP761  ALA762  ILE779  LEU786  VAL792 
 PHE793  MET794  SER795  GLU796  ALA797  LYS798  CYS799  TRP800  GLU811  SER814 

> <Gold.Protein.RotatedAtoms>
  150.8939  134.8346  159.7312 H   0  0  0  0  0  0  0  0  0  0  0  0  # atno 6907 bound_to 6896
  152.4853  134.4605  159.9613 H   0  0  0  0  0  0  0  0  0  0  0  0  # atno 6908 bound_to 6896
  151.4665  133.3541  159.2852 H   0  0  0  0  0  0  0  0  0  0  0  0  # atno 6909 bound_to 6896
  145.1072  140.8589  143.3891 H   0  0  0  0  0  0  0  0  0  0  0  0  # atno 7974 bound_to 7965
  154.4531  140.1954  156.0460 H   0  0  0  0  0  0  0  0  0  0  0  0  # atno 8008 bound_to 7997
  156.0689  140.3287  155.7524 H   0  0  0  0  0  0  0  0  0  0  0  0  # atno 8009 bound_to 7997
  155.5294  140.0576  157.2882 H   0  0  0  0  0  0  0  0  0  0  0  0  # atno 8010 bound_to 7997
  139.7333  143.8774  152.2541 H   0  0  0  0  0  0  0  0  0  0  0  0  # atno 10167 bound_to 10162
  156.3511  130.4308  149.7703 H   0  0  0  0  0  0  0  0  0  0  0  0  # atno 10718 bound_to 10713
  153.2755  135.4187  155.1029 H   0  0  0  0  0  0  0  0  0  0  0  0  # atno 10763 bound_to 10752
  154.8471  135.3482  154.6184 H   0  0  0  0  0  0  0  0  0  0  0  0  # atno 10764 bound_to 10752
  153.6605  135.7048  153.5236 H   0  0  0  0  0  0  0  0  0  0  0  0  # atno 10765 bound_to 10752
  139.8771  134.9087  156.4578 H   0  0  0  0  0  0  0  0  0  0  0  0  # atno 11005 bound_to 11000
  145.0888  139.2905  143.5745 LP  0  0  0  0  0  0  0  0  0  0  0  0  # atno 17320 bound_to 7965
  146.3528  140.0418  142.8642 LP  0  0  0  0  0  0  0  0  0  0  0  0  # atno 17321 bound_to 7965
  139.8704  144.7071  150.8994 LP  0  0  0  0  0  0  0  0  0  0  0  0  # atno 17342 bound_to 10162
  140.7775  143.3743  151.1592 LP  0  0  0  0  0  0  0  0  0  0  0  0  # atno 17343 bound_to 10162
  156.4903  130.8082  151.3092 LP  0  0  0  0  0  0  0  0  0  0  0  0  # atno 17370 bound_to 10713
  157.7461  130.9977  150.2827 LP  0  0  0  0  0  0  0  0  0  0  0  0  # atno 17371 bound_to 10713
  140.8885  133.7865  155.9545 LP  0  0  0  0  0  0  0  0  0  0  0  0  # atno 17394 bound_to 11000
  140.8778  134.2648  157.5159 LP  0  0  0  0  0  0  0  0  0  0  0  0  # atno 17395 bound_to 11000

$$$$
