AV-unprocessed.smi:1350|AV-procd|sdf|5520|dock4
  -GOLD-   22720 5103D 1   1.00000     0.00000
 Structure written by MMmdl.
 43 45  0  0  0  0  0  0  0  0  1 V2000
  148.3479  132.9503  157.4666 C   0  0  0  0  0  0  0  0  0  0  0  0
  148.7189  134.1557  158.1195 O   0  0  0  0  0  0  0  0  0  0  0  0
  147.9892  134.5622  159.2185 C   0  0  0  0  0  0  0  0  0  0  0  0
  146.9636  133.7752  159.8040 C   0  0  0  0  0  0  0  0  0  0  0  0
  146.2513  134.2402  160.9256 C   0  0  0  0  0  0  0  0  0  0  0  0
  146.5515  135.4962  161.4800 C   0  0  0  0  0  0  0  0  0  0  0  0
  147.5653  136.2861  160.9101 C   0  0  0  0  0  0  0  0  0  0  0  0
  148.2822  135.8292  159.7841 C   0  0  0  0  0  0  0  0  0  0  0  0
  149.3753  136.7203  159.2166 C   0  0  0  0  0  0  0  0  0  0  0  0
  148.8402  137.9267  158.6987 O   0  0  0  0  0  0  0  0  0  0  0  0
  149.6702  138.5212  157.7145 C   0  0  0  0  0  0  0  0  0  0  0  0
  149.5438  140.0481  157.8096 C   0  0  2  0  0  0  0  0  0  0  0  0
  148.2865  140.4304  157.2868 O   0  0  0  0  0  0  0  0  0  0  0  0
  150.6683  140.7820  157.0539 C   0  0  0  0  0  0  0  0  0  0  0  0
  151.3424  141.7615  157.8864 N   0  0  0  0  0  0  0  0  0  0  0  0
  151.3325  143.1009  157.7440 C   0  0  0  0  0  0  0  0  0  0  0  0
  152.0232  143.8132  158.6300 N   0  0  0  0  0  0  0  0  0  0  0  0
  152.5422  142.8198  159.4427 C   0  0  0  0  0  0  0  0  0  0  0  0
  153.3722  142.9075  160.5834 C   0  0  0  0  0  0  0  0  0  0  0  0
  153.7819  141.7397  161.2602 C   0  0  0  0  0  0  0  0  0  0  0  0
  153.3695  140.4691  160.8085 C   0  0  0  0  0  0  0  0  0  0  0  0
  152.5419  140.3565  159.6749 C   0  0  0  0  0  0  0  0  0  0  0  0
  152.1357  141.5242  159.0029 C   0  0  0  0  0  0  0  0  0  0  0  0
  149.0140  132.7811  156.6207 H   0  0  0  0  0  0  0  0  0  0  0  0
  147.3302  133.0036  157.0776 H   0  0  0  0  0  0  0  0  0  0  0  0
  148.4376  132.0916  158.1332 H   0  0  0  0  0  0  0  0  0  0  0  0
  146.7015  132.8047  159.4114 H   0  0  0  0  0  0  0  0  0  0  0  0
  145.4735  133.6306  161.3614 H   0  0  0  0  0  0  0  0  0  0  0  0
  146.0061  135.8530  162.3413 H   0  0  0  0  0  0  0  0  0  0  0  0
  147.7939  137.2502  161.3406 H   0  0  0  0  0  0  0  0  0  0  0  0
  150.0777  136.9458  160.0205 H   0  0  0  0  0  0  0  0  0  0  0  0
  149.9415  136.2101  158.4375 H   0  0  0  0  0  0  0  0  0  0  0  0
  150.7081  138.2126  157.8515 H   0  0  0  0  0  0  0  0  0  0  0  0
  149.3539  138.1822  156.7264 H   0  0  0  0  0  0  0  0  0  0  0  0
  149.5613  140.3372  158.8614 H   0  0  0  0  0  0  0  0  0  0  0  0
  147.8377  139.6548  156.9868 H   0  0  0  0  0  0  0  0  0  0  0  0
  151.4149  140.0694  156.7012 H   0  0  0  0  0  0  0  0  0  0  0  0
  150.2742  141.2835  156.1687 H   0  0  0  0  0  0  0  0  0  0  0  0
  150.7843  143.5805  156.9461 H   0  0  0  0  0  0  0  0  0  0  0  0
  153.6938  143.8753  160.9386 H   0  0  0  0  0  0  0  0  0  0  0  0
  154.4159  141.8192  162.1310 H   0  0  0  0  0  0  0  0  0  0  0  0
  153.6883  139.5804  161.3332 H   0  0  0  0  0  0  0  0  0  0  0  0
  152.2223  139.3859  159.3257 H   0  0  0  0  0  0  0  0  0  0  0  0
  1  2  1  0  0  0  0
  1 24  1  0  0  0  0
  1 25  1  0  0  0  0
  1 26  1  0  0  0  0
  2  3  1  0  0  0  0
  3  8  1  0  0  0  0
  3  4  2  0  0  0  0
  4  5  1  0  0  0  0
  4 27  1  0  0  0  0
  5  6  2  0  0  0  0
  5 28  1  0  0  0  0
  6  7  1  0  0  0  0
  6 29  1  0  0  0  0
  7  8  2  0  0  0  0
  7 30  1  0  0  0  0
  8  9  1  0  0  0  0
  9 10  1  0  0  0  0
  9 31  1  0  0  0  0
  9 32  1  0  0  0  0
 10 11  1  0  0  0  0
 11 12  1  0  0  0  0
 11 33  1  0  0  0  0
 11 34  1  0  0  0  0
 12 13  1  0  0  0  0
 12 14  1  0  0  0  0
 12 35  1  0  0  0  0
 13 36  1  0  0  0  0
 14 15  1  0  0  0  0
 14 37  1  0  0  0  0
 14 38  1  0  0  0  0
 15 23  1  0  0  0  0
 15 16  1  0  0  0  0
 16 17  2  0  0  0  0
 16 39  1  0  0  0  0
 17 18  1  0  0  0  0
 18 23  2  0  0  0  0
 18 19  1  0  0  0  0
 19 20  2  0  0  0  0
 19 40  1  0  0  0  0
 20 21  1  0  0  0  0
 20 41  1  0  0  0  0
 21 22  2  0  0  0  0
 21 42  1  0  0  0  0
 22 23  1  0  0  0  0
 22 43  1  0  0  0  0
M  END
> <s_m_source_file>
AV-unprocessed.smi

> <i_m_source_file_index>
1350

> <i_lp_mmshare_version>
43012

> <i_f3d_flags>
0

> <s_epik_input>
W0NIM11PYzFbY0hdW2NIXVtjSF1bY0hdYzFbQ0gyXU9bQ0gyXVtDQEhdKFtPSF0pW0NIMl1uKFtjSF1uMiljKGMyMylbY0hdW2NIXVtjSF1bY0hdMw==

> <s_epik_cmdline>
J2VwaWtfcHl0aG9uJywgJy1waCcsICc3LjAnLCAnLXRuJywgJzgnLCAnLW1hJywgJzIwMCcsICctbWV0YWxfYmluZGluZycsICctaW1hZScsICc8aW5maWxlLm1hZT4nLCAnLW9tYWUnLCAnPG91dGZpbGUubWFlPic=

> <r_lp_tautomer_probability>
1

> <r_epik_Ionization_Penalty>
0.0713119

> <r_epik_Ionization_Penalty_Charging>
0

> <r_epik_Ionization_Penalty_Neutral>
0.0713119

> <r_epik_State_Penalty>
0.06259

> <r_epik_Charging_Adjusted_Penalty>
0.06259

> <i_epik_Tot_Q>
0

> <i_epik_Tot_abs_Q>
0

> <r_epik_Metal_State_Penalty>
6.60119e-05

> <b_epik_Metal_Only>
0

> <s_lp_Force_Field>
OPLS_2005

> <r_lp_Energy>
18.6906

> <b_lp_Chiralities_Consistent>
1

> <s_lp_Variant>
AV-unprocessed.smi:1350-1

> <Gold.Version>
5.8.1

> <Gold.Id.Protein>
6NUR|6NUR_protein|mol2

> <Gold.PLP.Fitness>
49.0520

> <Gold.PLP.PLP>
-45.5775

> <Gold.PLP.part.hbond>
-2.5632

> <Gold.PLP.part.metal>
0.0000

> <Gold.PLP.part.buried>
-4.3032

> <Gold.PLP.part.nonpolar>
-38.9671

> <Gold.PLP.part.repulsive>
0.0818

> <Gold.PLP.ligand.clash>
0.0000

> <Gold.PLP.ligand.torsion>
1.2676

> <Gold.PLP.Chemscore.Hbond>
0.9588

> <Gold.PLP.Chemscore.CHOScore>
1.0000

> <Gold.PLP.Chemscore.Metal>
0.0000

> <Gold.Chemscore.Hbonds>
donor molecule, donor type, donor heavy atom, donor atom, acceptor molecule, acceptor atom, score
      P1  H  6896  6907       L1     2  0.08
      L1  C    16    39       P1  8028  0.96

> <Gold.PLP.Chemscore.Internal.Correction>
0.1335

> <Gold.Rescore>
     Score         DG    S(hbond)    S(metal)    S(lipo)     H(rot)  DE(clash)    DE(int)     intcor
     12.70     -14.68       0.81        0.00     113.00       2.63       0.15       1.83       ----

> <Gold.Chemscore.Fitness>
12.7031

> <Gold.Chemscore.DG>
-14.6820

> <Gold.Chemscore.ZeroCoef>
-5.4800

> <Gold.Chemscore.Hbond>
0.8132

> <Gold.Chemscore.Metal>
0.0000

> <Gold.Chemscore.Lipo>
112.9958

> <Gold.Chemscore.Internal_Hbond>
0.0000

> <Gold.Chemscore.DEClash>
0.1488

> <Gold.Chemscore.DEInternal>
1.8302

> <Gold.Chemscore.Rot>
2.6308

> <Gold.Chemscore.Internal.Correction>
   9.000000E+99

> <Gold.Chemscore.Hbond.Weighted>
-2.7162

> <Gold.Chemscore.Metal.Weighted>
-0.0000

> <Gold.Chemscore.Lipo.Weighted>
-13.2205

> <Gold.Chemscore.Internal_Hbond.Weighted>
0.0000

> <Gold.Chemscore.DEClash.Weighted>
0.1488

> <Gold.Chemscore.DEInternal.Weighted>
1.8302

> <Gold.Chemscore.Rot.Weighted>
6.7347

> <Gold.Chemscore.Internal.Correction.Weighted>
   9.000000E+99

> <Gold.Protein.RotatedTorsions>
[ 6907 6896 6895 6894 ] final  -83.28 input  -60.11 | X-H torsion
[ 7974 7965 7964 7962 ] final   59.75 input  175.53 | X-H torsion
[ 8008 7997 7996 7995 ] final  -98.60 input   59.86 | X-H torsion
[ 10167 10162 10161 10158 ] final   50.81 input  -65.29 | X-H torsion
[ 10718 10713 10712 10709 ] final   53.66 input   66.30 | X-H torsion
[ 10763 10752 10751 10750 ] final   97.93 input  -60.55 | X-H torsion
[ 11005 11000 10999 10996 ] final    2.01 input  -57.11 | X-H torsion

> <Gold.Protein.ActiveResidues>
 VAL166  LYS551  ARG553  GLY616  TRP617  ASP618  TYR619  PRO620  LYS621  CYS622 
 ASP623  PHE694  ASN695  SER759  ASP760  ASP761  ALA762  ILE779  LEU786  VAL792 
 PHE793  MET794  SER795  GLU796  ALA797  LYS798  CYS799  TRP800  GLU811  SER814 

> <Gold.Protein.RotatedAtoms>
  150.6887  134.3536  159.4919 H   0  0  0  0  0  0  0  0  0  0  0  0  # atno 6907 bound_to 6896
  152.1374  134.9086  160.0565 H   0  0  0  0  0  0  0  0  0  0  0  0  # atno 6908 bound_to 6896
  152.0232  133.3872  159.4304 H   0  0  0  0  0  0  0  0  0  0  0  0  # atno 6909 bound_to 6896
  145.9037  139.3601  143.0577 H   0  0  0  0  0  0  0  0  0  0  0  0  # atno 7974 bound_to 7965
  154.8034  140.0454  157.1289 H   0  0  0  0  0  0  0  0  0  0  0  0  # atno 8008 bound_to 7997
  154.9453  140.3058  155.5081 H   0  0  0  0  0  0  0  0  0  0  0  0  # atno 8009 bound_to 7997
  156.2964  140.2298  156.4525 H   0  0  0  0  0  0  0  0  0  0  0  0  # atno 8010 bound_to 7997
  140.2685  144.3292  150.6297 H   0  0  0  0  0  0  0  0  0  0  0  0  # atno 10167 bound_to 10162
  157.5187  130.8550  149.8530 H   0  0  0  0  0  0  0  0  0  0  0  0  # atno 10718 bound_to 10713
  153.2829  135.4166  155.1095 H   0  0  0  0  0  0  0  0  0  0  0  0  # atno 10763 bound_to 10752
  154.8495  135.3499  154.6087 H   0  0  0  0  0  0  0  0  0  0  0  0  # atno 10764 bound_to 10752
  153.6508  135.7053  153.5267 H   0  0  0  0  0  0  0  0  0  0  0  0  # atno 10765 bound_to 10752
  140.6090  133.9765  155.8168 H   0  0  0  0  0  0  0  0  0  0  0  0  # atno 11005 bound_to 11000
  145.8758  140.9392  143.0627 LP  0  0  0  0  0  0  0  0  0  0  0  0  # atno 17320 bound_to 7965
  144.6737  140.0715  143.7473 LP  0  0  0  0  0  0  0  0  0  0  0  0  # atno 17321 bound_to 7965
  140.5909  143.2168  151.7255 LP  0  0  0  0  0  0  0  0  0  0  0  0  # atno 17342 bound_to 10162
  139.4996  144.3941  152.0250 LP  0  0  0  0  0  0  0  0  0  0  0  0  # atno 17343 bound_to 10162
  156.0338  130.3757  150.1615 LP  0  0  0  0  0  0  0  0  0  0  0  0  # atno 17370 bound_to 10713
  156.9803  130.9862  151.3439 LP  0  0  0  0  0  0  0  0  0  0  0  0  # atno 17371 bound_to 10713
  141.0821  134.0047  157.3370 LP  0  0  0  0  0  0  0  0  0  0  0  0  # atno 17394 bound_to 11000
  139.9200  135.0200  156.8028 LP  0  0  0  0  0  0  0  0  0  0  0  0  # atno 17395 bound_to 11000

$$$$
