AV-unprocessed.smi:2183|AV-procd|sdf|8865|dock7
  -GOLD-   2272012 63D 1   1.00000     0.00000
 Structure written by MMmdl.
 40 42  0  0  0  0  0  0  0  0  1 V2000
  150.8748  139.1284  153.9548 O   0  0  0  0  0  0  0  0  0  0  0  0
  150.7020  138.9037  155.3371 C   0  0  0  0  0  0  0  0  0  0  0  0
  150.9928  140.1177  156.1662 C   0  0  0  0  0  0  0  0  0  0  0  0
  151.8255  140.0685  157.2068 N   0  0  0  0  0  0  0  0  0  0  0  0
  151.8238  141.3721  157.6617 C   0  0  0  0  0  0  0  0  0  0  0  0
  152.5149  141.9691  158.7403 C   0  0  0  0  0  0  0  0  0  0  0  0
  152.3600  143.3441  159.0134 C   0  0  0  0  0  0  0  0  0  0  0  0
  151.5146  144.1398  158.2135 C   0  0  0  0  0  0  0  0  0  0  0  0
  150.8157  143.5641  157.1351 C   0  0  0  0  0  0  0  0  0  0  0  0
  150.9713  142.1904  156.8684 C   0  0  0  0  0  0  0  0  0  0  0  0
  150.4381  141.3315  155.9117 N   0  0  0  0  0  0  0  0  0  0  0  0
  149.4999  141.7071  154.8605 C   0  0  0  0  0  0  0  0  0  0  0  0
  148.3572  140.6857  154.6867 C   0  0  2  0  0  0  0  0  0  0  0  0
  148.3534  140.1848  153.3654 O   0  0  0  0  0  0  0  0  0  0  0  0
  146.9792  141.2964  154.9785 C   0  0  0  0  0  0  0  0  0  0  0  0
  146.6438  142.1920  153.9270 O   0  0  0  0  0  0  0  0  0  0  0  0
  145.7362  143.1954  154.1878 C   0  0  0  0  0  0  0  0  0  0  0  0
  145.4250  144.0668  153.1236 C   0  0  0  0  0  0  0  0  0  0  0  0
  144.5090  145.1216  153.2995 C   0  0  0  0  0  0  0  0  0  0  0  0
  143.8917  145.3152  154.5493 C   0  0  0  0  0  0  0  0  0  0  0  0
  142.7686  146.6064  154.7683 Cl  0  0  0  0  0  0  0  0  0  0  0  0
  144.1928  144.4531  155.6201 C   0  0  0  0  0  0  0  0  0  0  0  0
  145.1092  143.3980  155.4435 C   0  0  0  0  0  0  0  0  0  0  0  0
  150.1316  138.7675  153.4966 H   0  0  0  0  0  0  0  0  0  0  0  0
  149.6713  138.5907  155.5078 H   0  0  0  0  0  0  0  0  0  0  0  0
  151.3325  138.0748  155.6588 H   0  0  0  0  0  0  0  0  0  0  0  0
  153.1667  141.3687  159.3571 H   0  0  0  0  0  0  0  0  0  0  0  0
  152.8935  143.7905  159.8398 H   0  0  0  0  0  0  0  0  0  0  0  0
  151.4032  145.1925  158.4280 H   0  0  0  0  0  0  0  0  0  0  0  0
  150.1684  144.1717  156.5203 H   0  0  0  0  0  0  0  0  0  0  0  0
  149.0894  142.6839  155.1185 H   0  0  0  0  0  0  0  0  0  0  0  0
  150.0280  141.8427  153.9177 H   0  0  0  0  0  0  0  0  0  0  0  0
  148.5132  139.8376  155.3539 H   0  0  0  0  0  0  0  0  0  0  0  0
  149.1086  140.5282  152.9124 H   0  0  0  0  0  0  0  0  0  0  0  0
  146.2316  140.5065  155.0695 H   0  0  0  0  0  0  0  0  0  0  0  0
  147.0119  141.8436  155.9224 H   0  0  0  0  0  0  0  0  0  0  0  0
  145.8944  143.9248  152.1610 H   0  0  0  0  0  0  0  0  0  0  0  0
  144.2819  145.7805  152.4744 H   0  0  0  0  0  0  0  0  0  0  0  0
  143.7207  144.5992  156.5805 H   0  0  0  0  0  0  0  0  0  0  0  0
  145.3145  142.7584  156.2882 H   0  0  0  0  0  0  0  0  0  0  0  0
  1  2  1  0  0  0  0
  1 24  1  0  0  0  0
  2  3  1  0  0  0  0
  2 25  1  0  0  0  0
  2 26  1  0  0  0  0
  3 11  1  0  0  0  0
  3  4  2  0  0  0  0
  4  5  1  0  0  0  0
  5 10  2  0  0  0  0
  5  6  1  0  0  0  0
  6  7  2  0  0  0  0
  6 27  1  0  0  0  0
  7  8  1  0  0  0  0
  7 28  1  0  0  0  0
  8  9  2  0  0  0  0
  8 29  1  0  0  0  0
  9 10  1  0  0  0  0
  9 30  1  0  0  0  0
 10 11  1  0  0  0  0
 11 12  1  0  0  0  0
 12 13  1  0  0  0  0
 12 31  1  0  0  0  0
 12 32  1  0  0  0  0
 13 14  1  0  0  0  0
 13 15  1  0  0  0  0
 13 33  1  0  0  0  0
 14 34  1  0  0  0  0
 15 16  1  0  0  0  0
 15 35  1  0  0  0  0
 15 36  1  0  0  0  0
 16 17  1  0  0  0  0
 17 23  1  0  0  0  0
 17 18  2  0  0  0  0
 18 19  1  0  0  0  0
 18 37  1  0  0  0  0
 19 20  2  0  0  0  0
 19 38  1  0  0  0  0
 20 21  1  0  0  0  0
 20 22  1  0  0  0  0
 22 23  2  0  0  0  0
 22 39  1  0  0  0  0
 23 40  1  0  0  0  0
M  END
> <s_m_source_file>
AV-unprocessed.smi

> <i_m_source_file_index>
2183

> <i_lp_mmshare_version>
43012

> <i_f3d_flags>
0

> <s_epik_input>
W2NIXTFbY0hdW2NIXVtjSF1jKGMxMiluKGMobjIpW0NIMl1bT0hdKVtDSDJdW0NASF0oW09IXSlbQ0gyXU9jM1tjSF1bY0hdYyhDbClbY0hdW2NIXTM=

> <s_epik_cmdline>
J2VwaWtfcHl0aG9uJywgJy1waCcsICc3LjAnLCAnLXRuJywgJzgnLCAnLW1hJywgJzIwMCcsICctbWV0YWxfYmluZGluZycsICctaW1hZScsICc8aW5maWxlLm1hZT4nLCAnLW9tYWUnLCAnPG91dGZpbGUubWFlPic=

> <r_lp_tautomer_probability>
1

> <r_epik_Ionization_Penalty>
0.0586933

> <r_epik_Ionization_Penalty_Charging>
0

> <r_epik_Ionization_Penalty_Neutral>
0.0586933

> <r_epik_State_Penalty>
0.0507031

> <r_epik_Charging_Adjusted_Penalty>
0.0507031

> <i_epik_Tot_Q>
0

> <i_epik_Tot_abs_Q>
0

> <r_epik_Metal_State_Penalty>
5.29335e-05

> <b_epik_Metal_Only>
0

> <s_lp_Force_Field>
OPLS_2005

> <r_lp_Energy>
13.44

> <b_lp_Chiralities_Consistent>
1

> <s_lp_Variant>
AV-unprocessed.smi:2183-1

> <Gold.Version>
5.8.1

> <Gold.Id.Protein>
6NUR|6NUR_protein|mol2

> <Gold.PLP.Fitness>
50.4657

> <Gold.PLP.PLP>
-48.1737

> <Gold.PLP.part.hbond>
-2.3604

> <Gold.PLP.part.metal>
0.0000

> <Gold.PLP.part.buried>
-0.2703

> <Gold.PLP.part.nonpolar>
-45.4618

> <Gold.PLP.part.repulsive>
0.1869

> <Gold.PLP.ligand.clash>
0.0000

> <Gold.PLP.ligand.torsion>
1.2042

> <Gold.PLP.Chemscore.Hbond>
1.5440

> <Gold.PLP.Chemscore.CHOScore>
0.0000

> <Gold.PLP.Chemscore.Metal>
0.0000

> <Gold.Chemscore.Hbonds>
donor molecule, donor type, donor heavy atom, donor atom, acceptor molecule, acceptor atom, score
      L1  H    14    34       P1  7957  0.50
      P1  H  7989  7998       L1     1  1.00

> <Gold.PLP.Chemscore.Internal.Correction>
0.0684

> <Gold.Rescore>
     Score         DG    S(hbond)    S(metal)    S(lipo)     H(rot)  DE(clash)    DE(int)     intcor
     15.45     -18.37       1.60        0.00     130.91       3.04       1.86       1.06       ----

> <Gold.Chemscore.Fitness>
15.4530

> <Gold.Chemscore.DG>
-18.3730

> <Gold.Chemscore.ZeroCoef>
-5.4800

> <Gold.Chemscore.Hbond>
1.6013

> <Gold.Chemscore.Metal>
0.0000

> <Gold.Chemscore.Lipo>
130.9083

> <Gold.Chemscore.Internal_Hbond>
0.0000

> <Gold.Chemscore.DEClash>
1.8635

> <Gold.Chemscore.DEInternal>
1.0564

> <Gold.Chemscore.Rot>
3.0358

> <Gold.Chemscore.Internal.Correction>
   9.000000E+99

> <Gold.Chemscore.Hbonds>
donor molecule, donor type, donor heavy atom, donor atom, acceptor molecule, acceptor atom, score
      L1  H    14    34       P1  7957  0.50
      P1  H  7989  7998       L1     1  0.89

> <Gold.Chemscore.Hbond.Weighted>
-5.3483

> <Gold.Chemscore.Metal.Weighted>
-0.0000

> <Gold.Chemscore.Lipo.Weighted>
-15.3163

> <Gold.Chemscore.Internal_Hbond.Weighted>
0.0000

> <Gold.Chemscore.DEClash.Weighted>
1.8635

> <Gold.Chemscore.DEInternal.Weighted>
1.0564

> <Gold.Chemscore.Rot.Weighted>
7.7716

> <Gold.Chemscore.Internal.Correction.Weighted>
   9.000000E+99

> <Gold.Protein.RotatedTorsions>
[ 6907 6896 6895 6894 ] final    1.58 input  -60.11 | X-H torsion
[ 7974 7965 7964 7962 ] final  163.17 input  175.53 | X-H torsion
[ 8008 7997 7996 7995 ] final -100.21 input   59.86 | X-H torsion
[ 10167 10162 10161 10158 ] final  178.01 input  -65.29 | X-H torsion
[ 10718 10713 10712 10709 ] final   88.86 input   66.30 | X-H torsion
[ 10763 10752 10751 10750 ] final  -42.40 input  -60.55 | X-H torsion
[ 11005 11000 10999 10996 ] final -129.03 input  -57.11 | X-H torsion

> <Gold.Protein.ActiveResidues>
 VAL166  LYS551  ARG553  GLY616  TRP617  ASP618  TYR619  PRO620  LYS621  CYS622 
 ASP623  PHE694  ASN695  SER759  ASP760  ASP761  ALA762  ILE779  LEU786  VAL792 
 PHE793  MET794  SER795  GLU796  ALA797  LYS798  CYS799  TRP800  GLU811  SER814 

> <Gold.Protein.RotatedAtoms>
  151.5950  135.1051  160.0047 H   0  0  0  0  0  0  0  0  0  0  0  0  # atno 6907 bound_to 6896
  152.4287  133.7235  159.6558 H   0  0  0  0  0  0  0  0  0  0  0  0  # atno 6908 bound_to 6896
  150.8178  133.8235  159.3175 H   0  0  0  0  0  0  0  0  0  0  0  0  # atno 6909 bound_to 6896
  144.7602  139.8144  143.6335 H   0  0  0  0  0  0  0  0  0  0  0  0  # atno 7974 bound_to 7965
  154.8255  140.0442  157.1441 H   0  0  0  0  0  0  0  0  0  0  0  0  # atno 8008 bound_to 7997
  154.9211  140.3027  155.5196 H   0  0  0  0  0  0  0  0  0  0  0  0  # atno 8009 bound_to 7997
  156.2983  140.2340  156.4261 H   0  0  0  0  0  0  0  0  0  0  0  0  # atno 8010 bound_to 7997
  139.5276  144.2731  152.0611 H   0  0  0  0  0  0  0  0  0  0  0  0  # atno 10167 bound_to 10162
  157.6952  131.0311  150.3338 H   0  0  0  0  0  0  0  0  0  0  0  0  # atno 10718 bound_to 10713
  153.9785  135.6720  153.4749 H   0  0  0  0  0  0  0  0  0  0  0  0  # atno 10763 bound_to 10752
  153.0760  135.4949  154.8401 H   0  0  0  0  0  0  0  0  0  0  0  0  # atno 10764 bound_to 10752
  154.7178  135.3111  154.9057 H   0  0  0  0  0  0  0  0  0  0  0  0  # atno 10765 bound_to 10752
  140.9466  134.1122  157.4101 H   0  0  0  0  0  0  0  0  0  0  0  0  # atno 11005 bound_to 11000
  146.1657  139.4787  142.9960 LP  0  0  0  0  0  0  0  0  0  0  0  0  # atno 17320 bound_to 7965
  145.6645  141.0232  143.1691 LP  0  0  0  0  0  0  0  0  0  0  0  0  # atno 17321 bound_to 7965
  140.2190  144.4486  150.6351 LP  0  0  0  0  0  0  0  0  0  0  0  0  # atno 17342 bound_to 10162
  140.6431  143.2207  151.6246 LP  0  0  0  0  0  0  0  0  0  0  0  0  # atno 17343 bound_to 10162
  156.3808  130.3880  149.7103 LP  0  0  0  0  0  0  0  0  0  0  0  0  # atno 17370 bound_to 10713
  156.4486  130.7896  151.2917 LP  0  0  0  0  0  0  0  0  0  0  0  0  # atno 17371 bound_to 10713
  139.8835  135.0053  156.6305 LP  0  0  0  0  0  0  0  0  0  0  0  0  # atno 17394 bound_to 11000
  140.7661  133.8777  155.8455 LP  0  0  0  0  0  0  0  0  0  0  0  0  # atno 17395 bound_to 11000

$$$$
