AV-unprocessed.smi:3126|AV-procd|sdf|11910|dock3
  -GOLD-   2272017293D 1   1.00000     0.00000
 Structure written by MMmdl.
 42 43  0  0  0  0  0  0  0  0  2 V2000
  145.1540  142.5413  156.0772 C   0  0  0  0  0  0  0  0  0  0  0  0
  146.2238  141.8565  156.9391 C   0  0  0  0  0  0  0  0  0  0  0  0
  147.6481  141.9307  156.3523 C   0  0  2  0  0  0  0  0  0  0  0  0
  147.7340  141.3232  154.9357 C   0  0  0  0  0  0  0  0  0  0  0  0
  149.1645  141.3772  154.3782 C   0  0  0  0  0  0  0  0  0  0  0  0
  150.1585  140.6823  155.3215 C   0  0  0  0  0  0  0  0  0  0  0  0
  150.1045  141.2652  156.7498 C   0  0  1  0  0  0  0  0  0  0  0  0
  150.6550  142.6391  156.8211 N   0  3  0  0  0  0  0  0  0  0  0  0
  151.1560  143.0540  158.1478 C   0  0  0  0  0  0  0  0  0  0  0  0
  152.2730  142.1195  158.6297 C   0  0  0  0  0  0  0  0  0  0  0  0
  152.6192  142.3545  160.0866 C   0  0  0  0  0  0  0  0  0  0  0  0
  151.9991  143.3857  160.8222 C   0  0  0  0  0  0  0  0  0  0  0  0
  152.3623  143.5699  162.1702 C   0  0  0  0  0  0  0  0  0  0  0  0
  153.3323  142.7126  162.7271 C   0  0  0  0  0  0  0  0  0  0  0  0
  153.9323  141.7222  162.0321 N   0  0  0  0  0  0  0  0  0  0  0  0
  153.5779  141.5515  160.7407 C   0  0  0  0  0  0  0  0  0  0  0  0
  148.6606  141.2356  157.2898 C   0  0  0  0  0  0  0  0  0  0  0  0
  144.1864  142.5217  156.5791 H   0  0  0  0  0  0  0  0  0  0  0  0
  145.0298  142.0444  155.1154 H   0  0  0  0  0  0  0  0  0  0  0  0
  145.4071  143.5849  155.8889 H   0  0  0  0  0  0  0  0  0  0  0  0
  146.2179  142.3326  157.9204 H   0  0  0  0  0  0  0  0  0  0  0  0
  145.9445  140.8161  157.1090 H   0  0  0  0  0  0  0  0  0  0  0  0
  147.9229  142.9845  156.2862 H   0  0  0  0  0  0  0  0  0  0  0  0
  147.3916  140.2876  154.9574 H   0  0  0  0  0  0  0  0  0  0  0  0
  147.0703  141.8519  154.2520 H   0  0  0  0  0  0  0  0  0  0  0  0
  149.1950  140.9034  153.3965 H   0  0  0  0  0  0  0  0  0  0  0  0
  149.4607  142.4158  154.2261 H   0  0  0  0  0  0  0  0  0  0  0  0
  149.9128  139.6204  155.3659 H   0  0  0  0  0  0  0  0  0  0  0  0
  151.1659  140.7319  154.9094 H   0  0  0  0  0  0  0  0  0  0  0  0
  150.7115  140.6393  157.4054 H   0  0  0  0  0  0  0  0  0  0  0  0
  151.3964  142.7283  156.1411 H   0  0  0  0  0  0  0  0  0  0  0  0
  151.5302  144.0770  158.0877 H   0  0  0  0  0  0  0  0  0  0  0  0
  150.3403  143.0499  158.8706 H   0  0  0  0  0  0  0  0  0  0  0  0
  151.9749  141.0783  158.4984 H   0  0  0  0  0  0  0  0  0  0  0  0
  153.1700  142.2624  158.0252 H   0  0  0  0  0  0  0  0  0  0  0  0
  151.2610  144.0269  160.3631 H   0  0  0  0  0  0  0  0  0  0  0  0
  151.9095  144.3502  162.7640 H   0  0  0  0  0  0  0  0  0  0  0  0
  153.6350  142.8268  163.7574 H   0  0  0  0  0  0  0  0  0  0  0  0
  154.0783  140.7535  160.2123 H   0  0  0  0  0  0  0  0  0  0  0  0
  148.6294  141.6910  158.2806 H   0  0  0  0  0  0  0  0  0  0  0  0
  148.3589  140.1964  157.4294 H   0  0  0  0  0  0  0  0  0  0  0  0
  149.9132  143.2766  156.5694 H   0  0  0  0  0  0  0  0  0  0  0  0
  1  2  1  0  0  0  0
  1 18  1  0  0  0  0
  1 19  1  0  0  0  0
  1 20  1  0  0  0  0
  2  3  1  0  0  0  0
  2 21  1  0  0  0  0
  2 22  1  0  0  0  0
  3 17  1  0  0  0  0
  3  4  1  0  0  0  0
  3 23  1  0  0  0  0
  4  5  1  0  0  0  0
  4 24  1  0  0  0  0
  4 25  1  0  0  0  0
  5  6  1  0  0  0  0
  5 26  1  0  0  0  0
  5 27  1  0  0  0  0
  6  7  1  0  0  0  0
  6 28  1  0  0  0  0
  6 29  1  0  0  0  0
  7  8  1  0  0  0  0
  7 17  1  0  0  0  0
  7 30  1  0  0  0  0
  8  9  1  0  0  0  0
  8 31  1  0  0  0  0
  8 42  1  0  0  0  0
  9 10  1  0  0  0  0
  9 32  1  0  0  0  0
  9 33  1  0  0  0  0
 10 11  1  0  0  0  0
 10 34  1  0  0  0  0
 10 35  1  0  0  0  0
 11 16  1  0  0  0  0
 11 12  2  0  0  0  0
 12 13  1  0  0  0  0
 12 36  1  0  0  0  0
 13 14  2  0  0  0  0
 13 37  1  0  0  0  0
 14 15  1  0  0  0  0
 14 38  1  0  0  0  0
 15 16  2  0  0  0  0
 16 39  1  0  0  0  0
 17 40  1  0  0  0  0
 17 41  1  0  0  0  0
M  CHG  1   8   1
M  END
> <s_m_source_file>
AV-unprocessed.smi

> <i_m_source_file_index>
3126

> <i_lp_mmshare_version>
43012

> <i_f3d_flags>
0

> <s_epik_input>
W0NIM11bQ0gyXVtDQEBIXTFbQ0gyXVtDSDJdW0NIMl1bQ0BIXShbQ0gyXTEpW05IXVtDSDJdW0NIMl1jMltjSF1bY0hdW2NIXW5bY0hdMg==

> <s_epik_cmdline>
J2VwaWtfcHl0aG9uJywgJy1waCcsICc3LjAnLCAnLXRuJywgJzgnLCAnLW1hJywgJzIwMCcsICctbWV0YWxfYmluZGluZycsICctaW1hZScsICc8aW5maWxlLm1hZT4nLCAnLW9tYWUnLCAnPG91dGZpbGUubWFlPic=

> <r_lp_tautomer_probability>
1

> <r_epik_Ionization_Penalty>
0.000947364

> <r_epik_Ionization_Penalty_Charging>
0.000286103

> <r_epik_Ionization_Penalty_Neutral>
0.000661261

> <r_epik_State_Penalty>
-0

> <r_epik_Charging_Adjusted_Penalty>
0.000286103

> <i_epik_Tot_Q>
1

> <i_epik_Tot_abs_Q>
1

> <r_epik_Metal_State_Penalty>
-0

> <b_epik_Metal_Only>
0

> <s_lp_Force_Field>
OPLS_2005

> <r_lp_Energy>
17.7549

> <b_lp_Chiralities_Consistent>
1

> <s_lp_Variant>
AV-unprocessed.smi:3126-1

> <Gold.Version>
5.8.1

> <Gold.Id.Protein>
6NUR|6NUR_protein|mol2

> <Gold.PLP.Fitness>
44.7644

> <Gold.PLP.PLP>
-39.2901

> <Gold.PLP.part.hbond>
-1.7414

> <Gold.PLP.part.metal>
0.0000

> <Gold.PLP.part.buried>
-3.3232

> <Gold.PLP.part.nonpolar>
-33.7263

> <Gold.PLP.part.repulsive>
0.0429

> <Gold.PLP.ligand.clash>
0.0000

> <Gold.PLP.ligand.torsion>
0.2720

> <Gold.PLP.Chemscore.Hbond>
2.0000

> <Gold.PLP.Chemscore.CHOScore>
0.0000

> <Gold.PLP.Chemscore.Metal>
0.0000

> <Gold.Chemscore.Hbonds>
donor molecule, donor type, donor heavy atom, donor atom, acceptor molecule, acceptor atom, score
      L1  H     8    42       P1  8028  2.00

> <Gold.PLP.Chemscore.Internal.Correction>
0.0183

> <Gold.Rescore>
     Score         DG    S(hbond)    S(metal)    S(lipo)     H(rot)  DE(clash)    DE(int)     intcor
     18.07     -18.35       1.00        0.00     111.07       1.35       0.04       0.24       ----

> <Gold.Chemscore.Fitness>
18.0711

> <Gold.Chemscore.DG>
-18.3490

> <Gold.Chemscore.ZeroCoef>
-5.4800

> <Gold.Chemscore.Hbond>
0.9974

> <Gold.Chemscore.Metal>
0.0000

> <Gold.Chemscore.Lipo>
111.0745

> <Gold.Chemscore.Internal_Hbond>
0.0000

> <Gold.Chemscore.DEClash>
0.0368

> <Gold.Chemscore.DEInternal>
0.2411

> <Gold.Chemscore.Rot>
1.3507

> <Gold.Chemscore.Internal.Correction>
   9.000000E+99

> <Gold.Chemscore.Hbonds>
donor molecule, donor type, donor heavy atom, donor atom, acceptor molecule, acceptor atom, score
      L1  H     8    42       P1  8028  0.97

> <Gold.Chemscore.Hbond.Weighted>
-3.3312

> <Gold.Chemscore.Metal.Weighted>
-0.0000

> <Gold.Chemscore.Lipo.Weighted>
-12.9957

> <Gold.Chemscore.Internal_Hbond.Weighted>
0.0000

> <Gold.Chemscore.DEClash.Weighted>
0.0368

> <Gold.Chemscore.DEInternal.Weighted>
0.2411

> <Gold.Chemscore.Rot.Weighted>
3.4579

> <Gold.Chemscore.Internal.Correction.Weighted>
   9.000000E+99

> <Gold.Protein.RotatedTorsions>
[ 6907 6896 6895 6894 ] final  -80.94 input  -60.11 | X-H torsion
[ 7974 7965 7964 7962 ] final -125.40 input  175.53 | X-H torsion
[ 8008 7997 7996 7995 ] final  175.87 input   59.86 | X-H torsion
[ 10167 10162 10161 10158 ] final  -32.57 input  -65.29 | X-H torsion
[ 10718 10713 10712 10709 ] final  -13.47 input   66.30 | X-H torsion
[ 10763 10752 10751 10750 ] final    6.53 input  -60.55 | X-H torsion
[ 11005 11000 10999 10996 ] final    0.28 input  -57.11 | X-H torsion

> <Gold.Protein.ActiveResidues>
 VAL166  LYS551  ARG553  GLY616  TRP617  ASP618  TYR619  PRO620  LYS621  CYS622 
 ASP623  PHE694  ASN695  SER759  ASP760  ASP761  ALA762  ILE779  LEU786  VAL792 
 PHE793  MET794  SER795  GLU796  ALA797  LYS798  CYS799  TRP800  GLU811  SER814 

> <Gold.Protein.RotatedAtoms>
  150.6920  134.3893  159.5068 H   0  0  0  0  0  0  0  0  0  0  0  0  # atno 6907 bound_to 6896
  152.1684  134.8852  160.0545 H   0  0  0  0  0  0  0  0  0  0  0  0  # atno 6908 bound_to 6896
  151.9887  133.3748  159.4173 H   0  0  0  0  0  0  0  0  0  0  0  0  # atno 6909 bound_to 6896
  144.9979  140.7793  143.4514 H   0  0  0  0  0  0  0  0  0  0  0  0  # atno 7974 bound_to 7965
  156.0825  140.1398  156.9694 H   0  0  0  0  0  0  0  0  0  0  0  0  # atno 8008 bound_to 7997
  154.4593  140.0949  156.6897 H   0  0  0  0  0  0  0  0  0  0  0  0  # atno 8009 bound_to 7997
  155.5052  140.3452  155.4380 H   0  0  0  0  0  0  0  0  0  0  0  0  # atno 8010 bound_to 7997
  140.7219  143.3685  151.1824 H   0  0  0  0  0  0  0  0  0  0  0  0  # atno 10167 bound_to 10162
  156.6299  130.4898  149.6133 H   0  0  0  0  0  0  0  0  0  0  0  0  # atno 10718 bound_to 10713
  153.2467  135.6909  153.7723 H   0  0  0  0  0  0  0  0  0  0  0  0  # atno 10763 bound_to 10752
  153.6833  135.3325  155.3184 H   0  0  0  0  0  0  0  0  0  0  0  0  # atno 10764 bound_to 10752
  154.8378  135.4527  154.1409 H   0  0  0  0  0  0  0  0  0  0  0  0  # atno 10765 bound_to 10752
  140.6283  133.9598  155.8261 H   0  0  0  0  0  0  0  0  0  0  0  0  # atno 11005 bound_to 11000
  145.2193  139.2166  143.5101 LP  0  0  0  0  0  0  0  0  0  0  0  0  # atno 17320 bound_to 7965
  146.3446  140.2048  142.8589 LP  0  0  0  0  0  0  0  0  0  0  0  0  # atno 17321 bound_to 7965
  139.7251  143.9161  152.3000 LP  0  0  0  0  0  0  0  0  0  0  0  0  # atno 17342 bound_to 10162
  139.8931  144.6954  150.8748 LP  0  0  0  0  0  0  0  0  0  0  0  0  # atno 17343 bound_to 10162
  156.2243  130.6756  151.1400 LP  0  0  0  0  0  0  0  0  0  0  0  0  # atno 17370 bound_to 10713
  157.7203  131.0685  150.6162 LP  0  0  0  0  0  0  0  0  0  0  0  0  # atno 17371 bound_to 10713
  141.0693  134.0229  157.3548 LP  0  0  0  0  0  0  0  0  0  0  0  0  # atno 17394 bound_to 11000
  139.9126  135.0192  156.7753 LP  0  0  0  0  0  0  0  0  0  0  0  0  # atno 17395 bound_to 11000

$$$$
