AV-unprocessed.smi:1662|AV-procd|sdf|6657|dock8
  -GOLD-   22720 7363D 1   1.00000     0.00000
 Structure written by MMmdl.
 47 48  0  0  0  0  0  0  0  0  1 V2000
  156.2360  140.1297  163.6310 C   0  0  0  0  0  0  0  0  0  0  0  0
  155.5969  138.9951  162.8765 C   0  0  0  0  0  0  0  0  0  0  0  0
  155.0852  139.2793  161.7240 N   0  0  0  0  0  0  0  0  0  0  0  0
  154.4724  138.3123  160.9505 N   0  0  0  0  0  0  0  0  0  0  0  0
  153.9250  138.8161  159.6819 C   0  0  0  0  0  0  0  0  0  0  0  0
  153.9614  140.3473  159.5673 C   0  0  0  0  0  0  0  0  0  0  0  0
  155.0262  140.9606  159.6556 O   0  0  0  0  0  0  0  0  0  0  0  0
  152.7797  140.9452  159.3474 N   0  0  0  0  0  0  0  0  0  0  0  0
  152.5565  142.3844  159.2130 C   0  0  2  0  0  0  0  0  0  0  0  0
  152.6537  143.0279  160.6096 C   0  0  0  0  0  0  0  0  0  0  0  0
  152.3608  144.5341  160.5686 C   0  0  0  0  0  0  0  0  0  0  0  0
  150.9947  144.8149  159.9233 C   0  0  0  0  0  0  0  0  0  0  0  0
  150.8782  144.2003  158.5136 C   0  0  1  0  0  0  0  0  0  0  0  0
  151.7190  144.9810  157.4827 C   0  0  0  0  0  0  0  0  0  0  0  0
  151.1803  142.6780  158.5579 C   0  0  1  0  0  0  0  0  0  0  0  0
  151.0059  142.0070  157.1810 C   0  0  0  0  0  0  0  0  0  0  0  0
  154.3569  136.9979  161.2983 C   0  0  0  0  0  0  0  0  0  0  0  0
  153.8116  136.1658  160.5717 O   0  0  0  0  0  0  0  0  0  0  0  0
  154.9372  136.6837  162.6059 C   0  0  0  0  0  0  0  0  0  0  0  0
  154.8308  135.3194  163.0117 C   0  0  0  0  0  0  0  0  0  0  0  0
  154.7651  134.2122  163.3429 N   0  0  0  0  0  0  0  0  0  0  0  0
  155.5337  137.6262  163.3780 C   0  0  0  0  0  0  0  0  0  0  0  0
  156.1507  137.3518  164.7427 C   0  0  0  0  0  0  0  0  0  0  0  0
  157.2864  139.9182  163.8314 H   0  0  0  0  0  0  0  0  0  0  0  0
  155.7344  140.2905  164.5855 H   0  0  0  0  0  0  0  0  0  0  0  0
  156.1904  141.0665  163.0732 H   0  0  0  0  0  0  0  0  0  0  0  0
  154.4821  138.4022  158.8393 H   0  0  0  0  0  0  0  0  0  0  0  0
  152.8992  138.4649  159.5547 H   0  0  0  0  0  0  0  0  0  0  0  0
  151.9627  140.3556  159.2793 H   0  0  0  0  0  0  0  0  0  0  0  0
  153.3392  142.8216  158.5913 H   0  0  0  0  0  0  0  0  0  0  0  0
  151.9482  142.5454  161.2876 H   0  0  0  0  0  0  0  0  0  0  0  0
  153.6465  142.8606  161.0292 H   0  0  0  0  0  0  0  0  0  0  0  0
  152.3818  144.9413  161.5800 H   0  0  0  0  0  0  0  0  0  0  0  0
  153.1485  145.0477  160.0171 H   0  0  0  0  0  0  0  0  0  0  0  0
  150.2108  144.4026  160.5601 H   0  0  0  0  0  0  0  0  0  0  0  0
  150.8152  145.8898  159.8841 H   0  0  0  0  0  0  0  0  0  0  0  0
  149.8379  144.3166  158.2065 H   0  0  0  0  0  0  0  0  0  0  0  0
  152.7888  144.8873  157.6658 H   0  0  0  0  0  0  0  0  0  0  0  0
  151.4751  146.0433  157.5083 H   0  0  0  0  0  0  0  0  0  0  0  0
  151.5264  144.6375  156.4667 H   0  0  0  0  0  0  0  0  0  0  0  0
  150.4209  142.2356  159.2052 H   0  0  0  0  0  0  0  0  0  0  0  0
  151.8068  142.2834  156.4950 H   0  0  0  0  0  0  0  0  0  0  0  0
  150.0584  142.2907  156.7229 H   0  0  0  0  0  0  0  0  0  0  0  0
  151.0080  140.9201  157.2637 H   0  0  0  0  0  0  0  0  0  0  0  0
  156.0502  136.3084  165.0395 H   0  0  0  0  0  0  0  0  0  0  0  0
  155.6674  137.9574  165.5101 H   0  0  0  0  0  0  0  0  0  0  0  0
  157.2150  137.5893  164.7360 H   0  0  0  0  0  0  0  0  0  0  0  0
  1  2  1  0  0  0  0
  1 24  1  0  0  0  0
  1 25  1  0  0  0  0
  1 26  1  0  0  0  0
  2 22  1  0  0  0  0
  2  3  2  0  0  0  0
  3  4  1  0  0  0  0
  4  5  1  0  0  0  0
  4 17  1  0  0  0  0
  5  6  1  0  0  0  0
  5 27  1  0  0  0  0
  5 28  1  0  0  0  0
  6  7  2  0  0  0  0
  6  8  1  0  0  0  0
  8  9  1  0  0  0  0
  8 29  1  0  0  0  0
  9 15  1  0  0  0  0
  9 10  1  0  0  0  0
  9 30  1  0  0  0  0
 10 11  1  0  0  0  0
 10 31  1  0  0  0  0
 10 32  1  0  0  0  0
 11 12  1  0  0  0  0
 11 33  1  0  0  0  0
 11 34  1  0  0  0  0
 12 13  1  0  0  0  0
 12 35  1  0  0  0  0
 12 36  1  0  0  0  0
 13 14  1  0  0  0  0
 13 15  1  0  0  0  0
 13 37  1  0  0  0  0
 14 38  1  0  0  0  0
 14 39  1  0  0  0  0
 14 40  1  0  0  0  0
 15 16  1  0  0  0  0
 15 41  1  0  0  0  0
 16 42  1  0  0  0  0
 16 43  1  0  0  0  0
 16 44  1  0  0  0  0
 17 18  2  0  0  0  0
 17 19  1  0  0  0  0
 19 20  1  0  0  0  0
 19 22  2  0  0  0  0
 20 21  3  0  0  0  0
 22 23  1  0  0  0  0
 23 45  1  0  0  0  0
 23 46  1  0  0  0  0
 23 47  1  0  0  0  0
M  END
> <s_m_source_file>
AV-unprocessed.smi

> <i_m_source_file_index>
1662

> <i_lp_mmshare_version>
43012

> <i_f3d_flags>
0

> <s_epik_input>
TiNDYyhjMVtDSDNdKWMoPU8pbihuYzFbQ0gzXSlbQ0gyXUMoPU8pW05IXVtDQEBIXTJbQ0gyXVtDSDJdW0NIMl1bQ0BASF0oW0NIM10pW0NASF0yW0NIM10=

> <s_epik_cmdline>
J2VwaWtfcHl0aG9uJywgJy1waCcsICc3LjAnLCAnLXRuJywgJzgnLCAnLW1hJywgJzIwMCcsICctbWV0YWxfYmluZGluZycsICctaW1hZScsICc8aW5maWxlLm1hZT4nLCAnLW9tYWUnLCAnPG91dGZpbGUubWFlPic=

> <r_lp_tautomer_probability>
1

> <r_epik_Ionization_Penalty>
1.90709e-08

> <r_epik_Ionization_Penalty_Charging>
2.37982e-11

> <r_epik_Ionization_Penalty_Neutral>
1.90471e-08

> <r_epik_State_Penalty>
-0

> <r_epik_Charging_Adjusted_Penalty>
2.37982e-11

> <i_epik_Tot_Q>
0

> <i_epik_Tot_abs_Q>
0

> <r_epik_Metal_State_Penalty>
-0

> <b_epik_Metal_Only>
0

> <s_lp_Force_Field>
OPLS_2005

> <r_lp_Energy>
29.144

> <b_lp_Chiralities_Consistent>
1

> <s_lp_Variant>
AV-unprocessed.smi:1662-1

> <Gold.Version>
5.8.1

> <Gold.Id.Protein>
6NUR|6NUR_protein|mol2

> <Gold.PLP.Fitness>
45.1796

> <Gold.PLP.PLP>
-42.7339

> <Gold.PLP.part.hbond>
-1.0000

> <Gold.PLP.part.metal>
0.0000

> <Gold.PLP.part.buried>
-7.4254

> <Gold.PLP.part.nonpolar>
-34.6683

> <Gold.PLP.part.repulsive>
0.1345

> <Gold.PLP.ligand.clash>
0.0000

> <Gold.PLP.ligand.torsion>
0.2796

> <Gold.PLP.Chemscore.Hbond>
1.0000

> <Gold.PLP.Chemscore.CHOScore>
0.0000

> <Gold.PLP.Chemscore.Metal>
0.0000

> <Gold.Chemscore.Hbonds>
donor molecule, donor type, donor heavy atom, donor atom, acceptor molecule, acceptor atom, score
      P1  H  6896  6908       L1    18  0.93

> <Gold.PLP.Chemscore.Internal.Correction>
0.0049

> <Gold.Rescore>
     Score         DG    S(hbond)    S(metal)    S(lipo)     H(rot)  DE(clash)    DE(int)     intcor
     16.81     -20.05       1.00        0.00     127.80       1.45       1.62       1.63       ----

> <Gold.Chemscore.Fitness>
16.8079

> <Gold.Chemscore.DG>
-20.0518

> <Gold.Chemscore.ZeroCoef>
-5.4800

> <Gold.Chemscore.Hbond>
0.9975

> <Gold.Chemscore.Metal>
0.0000

> <Gold.Chemscore.Lipo>
127.8029

> <Gold.Chemscore.Internal_Hbond>
0.0000

> <Gold.Chemscore.DEClash>
1.6152

> <Gold.Chemscore.DEInternal>
1.6287

> <Gold.Chemscore.Rot>
1.4504

> <Gold.Chemscore.Internal.Correction>
   9.000000E+99

> <Gold.Chemscore.Hbonds>
donor molecule, donor type, donor heavy atom, donor atom, acceptor molecule, acceptor atom, score
      P1  H  6896  6908       L1    18  0.89

> <Gold.Chemscore.Hbond.Weighted>
-3.3318

> <Gold.Chemscore.Metal.Weighted>
-0.0000

> <Gold.Chemscore.Lipo.Weighted>
-14.9529

> <Gold.Chemscore.Internal_Hbond.Weighted>
0.0000

> <Gold.Chemscore.DEClash.Weighted>
1.6152

> <Gold.Chemscore.DEInternal.Weighted>
1.6287

> <Gold.Chemscore.Rot.Weighted>
3.7129

> <Gold.Chemscore.Internal.Correction.Weighted>
   9.000000E+99

> <Gold.Protein.RotatedTorsions>
[ 6907 6896 6895 6894 ] final  -71.84 input  -60.11 | X-H torsion
[ 7974 7965 7964 7962 ] final  -42.32 input  175.53 | X-H torsion
[ 8008 7997 7996 7995 ] final  106.41 input   59.86 | X-H torsion
[ 10167 10162 10161 10158 ] final   70.14 input  -65.29 | X-H torsion
[ 10718 10713 10712 10709 ] final  101.59 input   66.30 | X-H torsion
[ 10763 10752 10751 10750 ] final  -34.65 input  -60.55 | X-H torsion
[ 11005 11000 10999 10996 ] final  -47.64 input  -57.11 | X-H torsion

> <Gold.Protein.ActiveResidues>
 VAL166  LYS551  ARG553  GLY616  TRP617  ASP618  TYR619  PRO620  LYS621  CYS622 
 ASP623  PHE694  ASN695  SER759  ASP760  ASP761  ALA762  ILE779  LEU786  VAL792 
 PHE793  MET794  SER795  GLU796  ALA797  LYS798  CYS799  TRP800  GLU811  SER814 

> <Gold.Protein.RotatedAtoms>
  150.7195  134.5250  159.5672 H   0  0  0  0  0  0  0  0  0  0  0  0  # atno 6907 bound_to 6896
  152.2796  134.7840  160.0408 H   0  0  0  0  0  0  0  0  0  0  0  0  # atno 6908 bound_to 6896
  151.8491  133.3401  159.3704 H   0  0  0  0  0  0  0  0  0  0  0  0  # atno 6909 bound_to 6896
  146.0127  140.6945  142.9216 H   0  0  0  0  0  0  0  0  0  0  0  0  # atno 7974 bound_to 7965
  156.1740  140.3113  155.9026 H   0  0  0  0  0  0  0  0  0  0  0  0  # atno 8008 bound_to 7997
  155.3526  140.0472  157.3063 H   0  0  0  0  0  0  0  0  0  0  0  0  # atno 8009 bound_to 7997
  154.5271  140.2218  155.8881 H   0  0  0  0  0  0  0  0  0  0  0  0  # atno 8010 bound_to 7997
  140.0601  144.5239  150.7300 H   0  0  0  0  0  0  0  0  0  0  0  0  # atno 10167 bound_to 10162
  157.6825  131.0730  150.5275 H   0  0  0  0  0  0  0  0  0  0  0  0  # atno 10718 bound_to 10713
  153.8502  135.6849  153.4793 H   0  0  0  0  0  0  0  0  0  0  0  0  # atno 10763 bound_to 10752
  153.1401  135.4661  154.9481 H   0  0  0  0  0  0  0  0  0  0  0  0  # atno 10764 bound_to 10752
  154.7805  135.3267  154.7947 H   0  0  0  0  0  0  0  0  0  0  0  0  # atno 10765 bound_to 10752
  141.0653  133.6696  156.3327 H   0  0  0  0  0  0  0  0  0  0  0  0  # atno 11005 bound_to 11000
  144.6959  140.3427  143.7196 LP  0  0  0  0  0  0  0  0  0  0  0  0  # atno 17320 bound_to 7965
  145.7317  139.1738  143.2427 LP  0  0  0  0  0  0  0  0  0  0  0  0  # atno 17321 bound_to 7965
  140.7176  143.2558  151.4385 LP  0  0  0  0  0  0  0  0  0  0  0  0  # atno 17342 bound_to 10162
  139.5899  144.1523  152.2075 LP  0  0  0  0  0  0  0  0  0  0  0  0  # atno 17343 bound_to 10162
  156.5586  130.4250  149.6073 LP  0  0  0  0  0  0  0  0  0  0  0  0  # atno 17370 bound_to 10713
  156.2841  130.7087  151.1919 LP  0  0  0  0  0  0  0  0  0  0  0  0  # atno 17371 bound_to 10713
  140.5786  134.5769  157.5474 LP  0  0  0  0  0  0  0  0  0  0  0  0  # atno 17394 bound_to 11000
  139.9471  134.7683  156.0537 LP  0  0  0  0  0  0  0  0  0  0  0  0  # atno 17395 bound_to 11000

$$$$
