AV-unprocessed.smi:3105|AV-procd|sdf|11821|dock6
  -GOLD-   2272017193D 1   1.00000     0.00000
 Structure written by MMmdl.
 34 34  0  0  0  0  0  0  0  0  2 V2000
  150.7465  140.5102  158.4215 C   0  0  0  0  0  0  0  0  0  0  0  0
  150.4680  141.9983  158.1207 C   0  0  2  0  0  0  0  0  0  0  0  0
  149.9642  142.1497  156.7363 N   0  3  0  0  0  0  0  0  0  0  0  0
  148.7004  141.4388  156.4375 C   0  0  0  0  0  0  0  0  0  0  0  0
  148.3670  141.4617  154.9323 C   0  0  0  0  0  0  0  0  0  0  0  0
  149.4062  140.7712  154.0382 C   0  0  0  0  0  0  0  0  0  0  0  0
  148.9808  140.3476  152.8458 N   0  0  0  0  0  0  0  0  0  0  0  0
  150.5699  140.6195  154.4063 O   0  0  0  0  0  0  0  0  0  0  0  0
  151.7175  142.8975  158.3224 C   0  0  1  0  0  0  0  0  0  0  0  0
  151.4442  144.3749  157.9783 C   0  0  0  0  0  0  0  0  0  0  0  0
  152.2648  142.7913  159.6695 N   0  0  0  0  0  0  0  0  0  0  0  0
  153.5103  142.3361  160.0513 C   0  0  0  0  0  0  0  0  0  0  0  0
  153.5754  142.4166  161.4127 C   0  0  0  0  0  0  0  0  0  0  0  0
  152.3057  142.9413  161.7817 C   0  0  0  0  0  0  0  0  0  0  0  0
  151.5236  143.1638  160.7380 N   0  0  0  0  0  0  0  0  0  0  0  0
  151.0531  140.3559  159.4561 H   0  0  0  0  0  0  0  0  0  0  0  0
  151.5380  140.1211  157.7800 H   0  0  0  0  0  0  0  0  0  0  0  0
  149.8634  139.8913  158.2671 H   0  0  0  0  0  0  0  0  0  0  0  0
  149.6917  142.3455  158.8046 H   0  0  0  0  0  0  0  0  0  0  0  0
  149.7993  143.1331  156.5754 H   0  0  0  0  0  0  0  0  0  0  0  0
  148.7507  140.4077  156.7880 H   0  0  0  0  0  0  0  0  0  0  0  0
  147.8921  141.9167  156.9923 H   0  0  0  0  0  0  0  0  0  0  0  0
  147.4085  140.9650  154.7771 H   0  0  0  0  0  0  0  0  0  0  0  0
  148.2386  142.4910  154.5946 H   0  0  0  0  0  0  0  0  0  0  0  0
  149.6195  139.8911  152.2104 H   0  0  0  0  0  0  0  0  0  0  0  0
  148.0173  140.4909  152.5782 H   0  0  0  0  0  0  0  0  0  0  0  0
  152.4960  142.5432  157.6446 H   0  0  0  0  0  0  0  0  0  0  0  0
  151.1526  144.4974  156.9354 H   0  0  0  0  0  0  0  0  0  0  0  0
  152.3351  144.9836  158.1374 H   0  0  0  0  0  0  0  0  0  0  0  0
  150.6465  144.7897  158.5956 H   0  0  0  0  0  0  0  0  0  0  0  0
  154.2392  141.9944  159.3310 H   0  0  0  0  0  0  0  0  0  0  0  0
  154.4042  142.1425  162.0485 H   0  0  0  0  0  0  0  0  0  0  0  0
  151.9315  143.1649  162.7700 H   0  0  0  0  0  0  0  0  0  0  0  0
  150.6792  141.8361  156.0950 H   0  0  0  0  0  0  0  0  0  0  0  0
  1  2  1  0  0  0  0
  1 16  1  0  0  0  0
  1 17  1  0  0  0  0
  1 18  1  0  0  0  0
  2  3  1  0  0  0  0
  2  9  1  0  0  0  0
  2 19  1  0  0  0  0
  3  4  1  0  0  0  0
  3 20  1  0  0  0  0
  3 34  1  0  0  0  0
  4  5  1  0  0  0  0
  4 21  1  0  0  0  0
  4 22  1  0  0  0  0
  5  6  1  0  0  0  0
  5 23  1  0  0  0  0
  5 24  1  0  0  0  0
  6  7  1  0  0  0  0
  6  8  2  0  0  0  0
  7 25  1  0  0  0  0
  7 26  1  0  0  0  0
  9 10  1  0  0  0  0
  9 11  1  0  0  0  0
  9 27  1  0  0  0  0
 10 28  1  0  0  0  0
 10 29  1  0  0  0  0
 10 30  1  0  0  0  0
 11 15  1  0  0  0  0
 11 12  1  0  0  0  0
 12 13  2  0  0  0  0
 12 31  1  0  0  0  0
 13 14  1  0  0  0  0
 13 32  1  0  0  0  0
 14 15  2  0  0  0  0
 14 33  1  0  0  0  0
M  CHG  1   3   1
M  END
> <s_m_source_file>
AV-unprocessed.smi

> <i_m_source_file_index>
3105

> <i_lp_mmshare_version>
43012

> <i_f3d_flags>
0

> <s_epik_input>
W05IMl1DKD1PKVtDSDJdW0NIMl1bTkhdW0NAQEhdKFtDSDNdKVtDQEhdKFtDSDNdKW4xW2NIXVtjSF1bY0hdbjE=

> <s_epik_cmdline>
J2VwaWtfcHl0aG9uJywgJy1waCcsICc3LjAnLCAnLXRuJywgJzgnLCAnLW1hJywgJzIwMCcsICctbWV0YWxfYmluZGluZycsICctaW1hZScsICc8aW5maWxlLm1hZT4nLCAnLW9tYWUnLCAnPG91dGZpbGUubWFlPic=

> <r_lp_tautomer_probability>
1

> <r_epik_Ionization_Penalty>
0.00475669

> <r_epik_Ionization_Penalty_Charging>
0.00474654

> <r_epik_Ionization_Penalty_Neutral>
1.01546e-05

> <r_epik_State_Penalty>
-0

> <r_epik_Charging_Adjusted_Penalty>
0.00474654

> <i_epik_Tot_Q>
1

> <i_epik_Tot_abs_Q>
1

> <r_epik_Metal_State_Penalty>
-0

> <b_epik_Metal_Only>
0

> <s_lp_Force_Field>
OPLS_2005

> <r_lp_Energy>
6.92169

> <b_lp_Chiralities_Consistent>
1

> <s_lp_Variant>
AV-unprocessed.smi:3105-3

> <Gold.Version>
5.8.1

> <Gold.Id.Protein>
6NUR|6NUR_protein|mol2

> <Gold.PLP.Fitness>
45.7899

> <Gold.PLP.PLP>
-35.2864

> <Gold.PLP.part.hbond>
-3.2820

> <Gold.PLP.part.metal>
0.0000

> <Gold.PLP.part.buried>
-4.2036

> <Gold.PLP.part.nonpolar>
-28.0066

> <Gold.PLP.part.repulsive>
0.3514

> <Gold.PLP.ligand.clash>
0.0000

> <Gold.PLP.ligand.torsion>
0.3818

> <Gold.PLP.Chemscore.Hbond>
3.7120

> <Gold.PLP.Chemscore.CHOScore>
0.0000

> <Gold.PLP.Chemscore.Metal>
0.0000

> <Gold.Chemscore.Hbonds>
donor molecule, donor type, donor heavy atom, donor atom, acceptor molecule, acceptor atom, score
      L1  H     3    20       P1  8028  1.92
      P1  H  7989  7998       L1     8  0.65

> <Gold.PLP.Chemscore.Internal.Correction>
0.1310

> <Gold.Rescore>
     Score         DG    S(hbond)    S(metal)    S(lipo)     H(rot)  DE(clash)    DE(int)     intcor
     12.89     -14.90       2.48        0.00      72.11       2.85       0.02       2.00       ----

> <Gold.Chemscore.Fitness>
12.8870

> <Gold.Chemscore.DG>
-14.9006

> <Gold.Chemscore.ZeroCoef>
-5.4800

> <Gold.Chemscore.Hbond>
2.4768

> <Gold.Chemscore.Metal>
0.0000

> <Gold.Chemscore.Lipo>
72.1128

> <Gold.Chemscore.Internal_Hbond>
0.0000

> <Gold.Chemscore.DEClash>
0.0174

> <Gold.Chemscore.DEInternal>
1.9962

> <Gold.Chemscore.Rot>
2.8473

> <Gold.Chemscore.Internal.Correction>
   9.000000E+99

> <Gold.Chemscore.Hbonds>
donor molecule, donor type, donor heavy atom, donor atom, acceptor molecule, acceptor atom, score
      L1  H     3    20       P1  8028  0.89
      L1  H     7    25       P1  7957  0.01
      P1  H  7989  7998       L1     8  0.62

> <Gold.Chemscore.Hbond.Weighted>
-8.2726

> <Gold.Chemscore.Metal.Weighted>
-0.0000

> <Gold.Chemscore.Lipo.Weighted>
-8.4372

> <Gold.Chemscore.Internal_Hbond.Weighted>
0.0000

> <Gold.Chemscore.DEClash.Weighted>
0.0174

> <Gold.Chemscore.DEInternal.Weighted>
1.9962

> <Gold.Chemscore.Rot.Weighted>
7.2892

> <Gold.Chemscore.Internal.Correction.Weighted>
   9.000000E+99

> <Gold.Protein.RotatedTorsions>
[ 6907 6896 6895 6894 ] final    6.09 input  -60.11 | X-H torsion
[ 7974 7965 7964 7962 ] final   66.96 input  175.53 | X-H torsion
[ 8008 7997 7996 7995 ] final   34.47 input   59.86 | X-H torsion
[ 10167 10162 10161 10158 ] final  -85.38 input  -65.29 | X-H torsion
[ 10718 10713 10712 10709 ] final  -46.00 input   66.30 | X-H torsion
[ 10763 10752 10751 10750 ] final  -23.40 input  -60.55 | X-H torsion
[ 11005 11000 10999 10996 ] final   97.37 input  -57.11 | X-H torsion

> <Gold.Protein.ActiveResidues>
 VAL166  LYS551  ARG553  GLY616  TRP617  ASP618  TYR619  PRO620  LYS621  CYS622 
 ASP623  PHE694  ASN695  SER759  ASP760  ASP761  ALA762  ILE779  LEU786  VAL792 
 PHE793  MET794  SER795  GLU796  ALA797  LYS798  CYS799  TRP800  GLU811  SER814 

> <Gold.Protein.RotatedAtoms>
  151.6680  135.0980  160.0192 H   0  0  0  0  0  0  0  0  0  0  0  0  # atno 6907 bound_to 6896
  152.3908  133.6672  159.6244 H   0  0  0  0  0  0  0  0  0  0  0  0  # atno 6908 bound_to 6896
  150.7824  133.8874  159.3344 H   0  0  0  0  0  0  0  0  0  0  0  0  # atno 6909 bound_to 6896
  145.8204  139.3081  143.1047 H   0  0  0  0  0  0  0  0  0  0  0  0  # atno 7974 bound_to 7965
  155.1554  140.3278  155.4422 H   0  0  0  0  0  0  0  0  0  0  0  0  # atno 8008 bound_to 7997
  156.2560  140.1969  156.6614 H   0  0  0  0  0  0  0  0  0  0  0  0  # atno 8009 bound_to 7997
  154.6443  140.0566  156.9868 H   0  0  0  0  0  0  0  0  0  0  0  0  # atno 8010 bound_to 7997
  140.4043  143.2649  151.9102 H   0  0  0  0  0  0  0  0  0  0  0  0  # atno 10167 bound_to 10162
  156.2226  130.4167  149.8973 H   0  0  0  0  0  0  0  0  0  0  0  0  # atno 10718 bound_to 10713
  153.6672  135.6973  153.5158 H   0  0  0  0  0  0  0  0  0  0  0  0  # atno 10763 bound_to 10752
  153.2586  135.4252  155.0870 H   0  0  0  0  0  0  0  0  0  0  0  0  # atno 10764 bound_to 10752
  154.8436  135.3549  154.6216 H   0  0  0  0  0  0  0  0  0  0  0  0  # atno 10765 bound_to 10752
  139.8776  134.8997  156.4297 H   0  0  0  0  0  0  0  0  0  0  0  0  # atno 11005 bound_to 11000
  145.9681  140.8782  143.0176 LP  0  0  0  0  0  0  0  0  0  0  0  0  # atno 17320 bound_to 7965
  144.6748  140.1907  143.7397 LP  0  0  0  0  0  0  0  0  0  0  0  0  # atno 17321 bound_to 7965
  139.4784  144.5602  151.8251 LP  0  0  0  0  0  0  0  0  0  0  0  0  # atno 17342 bound_to 10162
  140.4707  144.1591  150.5917 LP  0  0  0  0  0  0  0  0  0  0  0  0  # atno 17343 bound_to 10162
  156.6614  130.8783  151.3548 LP  0  0  0  0  0  0  0  0  0  0  0  0  # atno 17370 bound_to 10713
  157.7095  130.9424  150.1042 LP  0  0  0  0  0  0  0  0  0  0  0  0  # atno 17371 bound_to 10713
  140.9076  133.7735  155.9753 LP  0  0  0  0  0  0  0  0  0  0  0  0  # atno 17394 bound_to 11000
  140.8582  134.2872  157.5246 LP  0  0  0  0  0  0  0  0  0  0  0  0  # atno 17395 bound_to 11000

$$$$
