AV-unprocessed.smi:2061|AV-procd|sdf|8394|dock6
  -GOLD-   2272011 83D 1   1.00000     0.00000
 Structure written by MMmdl.
 45 46  0  0  0  0  0  0  0  0  3 V2000
  149.5123  141.3036  154.4055 C   0  0  0  0  0  0  0  0  0  0  0  0
  149.7456  139.8441  154.5958 C   0  0  0  0  0  0  0  0  0  0  0  0
  148.9177  138.7575  154.5628 C   0  0  0  0  0  0  0  0  0  0  0  0
  149.7973  137.6745  154.8303 C   0  0  0  0  0  0  0  0  0  0  0  0
  149.3101  136.3413  154.8850 N   0  0  0  0  0  0  0  0  0  0  0  0
  149.8457  135.2738  155.5054 C   0  0  0  0  0  0  0  0  0  0  0  0
  150.9094  135.3831  156.1270 O   0  0  0  0  0  0  0  0  0  0  0  0
  149.0889  134.1527  155.3504 N   0  5  0  0  0  0  0  0  0  0  0  0
  148.4440  133.7605  154.0972 C   0  0  0  0  0  0  0  0  0  0  0  0
  147.0113  134.3623  154.0001 C   0  0  2  0  0  0  0  0  0  0  0  0
  145.9802  133.4491  154.7251 C   0  0  0  0  0  0  0  0  0  0  0  0
  146.6815  134.6471  152.5580 N   0  3  1  0  0  0  0  0  0  0  0  0
  146.5039  133.4917  151.6351 C   0  0  0  0  0  0  0  0  0  0  0  0
  145.1062  132.8532  151.7841 C   0  0  2  0  0  0  0  0  0  0  0  0
  144.8864  131.7114  150.7860 C   0  0  0  0  0  0  0  0  0  0  0  0
  144.1197  133.8479  151.5389 O   0  0  0  0  0  0  0  0  0  0  0  0
  144.1846  134.9218  152.4699 C   0  0  2  0  0  0  0  0  0  0  0  0
  143.0316  135.8834  152.1626 C   0  0  0  0  0  0  0  0  0  0  0  0
  145.5605  135.6108  152.3508 C   0  0  0  0  0  0  0  0  0  0  0  0
  151.0504  138.0670  155.0066 N   0  0  0  0  0  0  0  0  0  0  0  0
  151.0236  139.4585  154.8573 O   0  0  0  0  0  0  0  0  0  0  0  0
  148.4494  141.5386  154.4620 H   0  0  0  0  0  0  0  0  0  0  0  0
  149.8799  141.6289  153.4324 H   0  0  0  0  0  0  0  0  0  0  0  0
  150.0268  141.8817  155.1733 H   0  0  0  0  0  0  0  0  0  0  0  0
  147.8536  138.7415  154.3792 H   0  0  0  0  0  0  0  0  0  0  0  0
  148.4401  136.1753  154.4016 H   0  0  0  0  0  0  0  0  0  0  0  0
  149.0315  134.1006  153.2437 H   0  0  0  0  0  0  0  0  0  0  0  0
  148.3792  132.6769  153.9896 H   0  0  0  0  0  0  0  0  0  0  0  0
  147.0034  135.3161  154.5292 H   0  0  0  0  0  0  0  0  0  0  0  0
  146.2347  133.2881  155.7748 H   0  0  0  0  0  0  0  0  0  0  0  0
  145.8949  132.4644  154.2612 H   0  0  0  0  0  0  0  0  0  0  0  0
  144.9853  133.8901  154.7430 H   0  0  0  0  0  0  0  0  0  0  0  0
  146.6049  133.8720  150.6175 H   0  0  0  0  0  0  0  0  0  0  0  0
  147.2993  132.7544  151.7341 H   0  0  0  0  0  0  0  0  0  0  0  0
  144.9656  132.4596  152.7909 H   0  0  0  0  0  0  0  0  0  0  0  0
  145.6102  130.9108  150.9403 H   0  0  0  0  0  0  0  0  0  0  0  0
  144.9864  132.0602  149.7578 H   0  0  0  0  0  0  0  0  0  0  0  0
  143.8899  131.2835  150.8971 H   0  0  0  0  0  0  0  0  0  0  0  0
  144.0435  134.5314  153.4788 H   0  0  0  0  0  0  0  0  0  0  0  0
  143.0251  136.7226  152.8587 H   0  0  0  0  0  0  0  0  0  0  0  0
  142.0695  135.3771  152.2443 H   0  0  0  0  0  0  0  0  0  0  0  0
  143.1108  136.2863  151.1524 H   0  0  0  0  0  0  0  0  0  0  0  0
  145.6210  136.4520  153.0416 H   0  0  0  0  0  0  0  0  0  0  0  0
  145.6651  136.0376  151.3523 H   0  0  0  0  0  0  0  0  0  0  0  0
  147.5115  135.1154  152.2227 H   0  0  0  0  0  0  0  0  0  0  0  0
  1  2  1  0  0  0  0
  1 22  1  0  0  0  0
  1 23  1  0  0  0  0
  1 24  1  0  0  0  0
  2 21  1  0  0  0  0
  2  3  2  0  0  0  0
  3  4  1  0  0  0  0
  3 25  1  0  0  0  0
  4  5  1  0  0  0  0
  4 20  2  0  0  0  0
  5  6  1  0  0  0  0
  5 26  1  0  0  0  0
  6  7  2  0  0  0  0
  6  8  1  0  0  0  0
  8  9  1  0  0  0  0
  9 10  1  0  0  0  0
  9 27  1  0  0  0  0
  9 28  1  0  0  0  0
 10 11  1  0  0  0  0
 10 12  1  0  0  0  0
 10 29  1  0  0  0  0
 11 30  1  0  0  0  0
 11 31  1  0  0  0  0
 11 32  1  0  0  0  0
 12 19  1  0  0  0  0
 12 13  1  0  0  0  0
 12 45  1  0  0  0  0
 13 14  1  0  0  0  0
 13 33  1  0  0  0  0
 13 34  1  0  0  0  0
 14 15  1  0  0  0  0
 14 16  1  0  0  0  0
 14 35  1  0  0  0  0
 15 36  1  0  0  0  0
 15 37  1  0  0  0  0
 15 38  1  0  0  0  0
 16 17  1  0  0  0  0
 17 18  1  0  0  0  0
 17 19  1  0  0  0  0
 17 39  1  0  0  0  0
 18 40  1  0  0  0  0
 18 41  1  0  0  0  0
 18 42  1  0  0  0  0
 19 43  1  0  0  0  0
 19 44  1  0  0  0  0
 20 21  1  0  0  0  0
M  CHG  1   8  -1
M  CHG  1  12   1
M  END
> <s_m_source_file>
AV-unprocessed.smi

> <i_m_source_file_index>
2061

> <i_lp_mmshare_version>
43012

> <i_f3d_flags>
0

> <s_epik_input>
W0NIM11jMVtjSF1jKG5vMSlbTkhdQyg9TylbTkhdW0NIMl1bQ0BIXShbQ0gzXSlOMltDSDJdW0NAQEhdKFtDSDNdKU9bQ0BASF0oW0NIM10pW0NIMl0y

> <s_epik_cmdline>
J2VwaWtfcHl0aG9uJywgJy1waCcsICc3LjAnLCAnLXRuJywgJzgnLCAnLW1hJywgJzIwMCcsICctbWV0YWxfYmluZGluZycsICctaW1hZScsICc8aW5maWxlLm1hZT4nLCAnLW9tYWUnLCAnPG91dGZpbGUubWFlPic=

> <r_epik_Ionization_Penalty>
6.8073

> <r_epik_Ionization_Penalty_Charging>
6.80729

> <r_epik_Ionization_Penalty_Neutral>
5.65391e-06

> <r_epik_State_Penalty>
7.47323

> <r_epik_Charging_Adjusted_Penalty>
14.2805

> <i_epik_Tot_Q>
0

> <i_epik_Tot_abs_Q>
2

> <r_epik_Metal_State_Penalty>
3.40035

> <b_epik_Metal_Only>
1

> <s_lp_Force_Field>
OPLS_2005

> <r_lp_Energy>
21.662

> <b_lp_Chiralities_Consistent>
1

> <s_lp_Variant>
AV-unprocessed.smi:2061-35

> <Gold.Version>
5.8.1

> <Gold.Id.Protein>
6NUR|6NUR_protein|mol2

> <Gold.PLP.Fitness>
42.4790

> <Gold.PLP.PLP>
-32.5125

> <Gold.PLP.part.hbond>
-4.0000

> <Gold.PLP.part.metal>
0.0000

> <Gold.PLP.part.buried>
-3.7328

> <Gold.PLP.part.nonpolar>
-24.2289

> <Gold.PLP.part.repulsive>
0.5770

> <Gold.PLP.ligand.clash>
0.0000

> <Gold.PLP.ligand.torsion>
1.1302

> <Gold.PLP.Chemscore.Hbond>
4.0374

> <Gold.PLP.Chemscore.CHOScore>
0.0000

> <Gold.PLP.Chemscore.Metal>
0.0000

> <Gold.Chemscore.Hbonds>
donor molecule, donor type, donor heavy atom, donor atom, acceptor molecule, acceptor atom, score
      L1  H    12    45       P1  7948  2.00
      P1  H  7989  7998       L1    21  0.38

> <Gold.PLP.Chemscore.Internal.Correction>
0.1146

> <Gold.Rescore>
     Score         DG    S(hbond)    S(metal)    S(lipo)     H(rot)  DE(clash)    DE(int)     intcor
     15.23     -18.18       2.68        0.00      66.02       1.56       0.47       2.48       ----

> <Gold.Chemscore.Fitness>
15.2321

> <Gold.Chemscore.DG>
-18.1754

> <Gold.Chemscore.ZeroCoef>
-5.4800

> <Gold.Chemscore.Hbond>
2.6804

> <Gold.Chemscore.Metal>
0.0000

> <Gold.Chemscore.Lipo>
66.0159

> <Gold.Chemscore.Internal_Hbond>
0.0000

> <Gold.Chemscore.DEClash>
0.4682

> <Gold.Chemscore.DEInternal>
2.4751

> <Gold.Chemscore.Rot>
1.5550

> <Gold.Chemscore.Internal.Correction>
   9.000000E+99

> <Gold.Chemscore.Hbonds>
donor molecule, donor type, donor heavy atom, donor atom, acceptor molecule, acceptor atom, score
      L1  H    12    45       P1  7948  0.98
      P1  H  7989  7998       L1    21  0.01
      P1  H 10752 10765       L1     7  0.04

> <Gold.Chemscore.Hbond.Weighted>
-8.9524

> <Gold.Chemscore.Metal.Weighted>
-0.0000

> <Gold.Chemscore.Lipo.Weighted>
-7.7239

> <Gold.Chemscore.Internal_Hbond.Weighted>
0.0000

> <Gold.Chemscore.DEClash.Weighted>
0.4682

> <Gold.Chemscore.DEInternal.Weighted>
2.4751

> <Gold.Chemscore.Rot.Weighted>
3.9809

> <Gold.Chemscore.Internal.Correction.Weighted>
   9.000000E+99

> <Gold.Protein.RotatedTorsions>
[ 6907 6896 6895 6894 ] final -152.11 input  -60.11 | X-H torsion
[ 7974 7965 7964 7962 ] final  124.83 input  175.53 | X-H torsion
[ 8008 7997 7996 7995 ] final   95.21 input   59.86 | X-H torsion
[ 10167 10162 10161 10158 ] final  109.68 input  -65.29 | X-H torsion
[ 10718 10713 10712 10709 ] final -126.56 input   66.30 | X-H torsion
[ 10763 10752 10751 10750 ] final -165.95 input  -60.55 | X-H torsion
[ 11005 11000 10999 10996 ] final -100.65 input  -57.11 | X-H torsion

> <Gold.Protein.ActiveResidues>
 VAL166  LYS551  ARG553  GLY616  TRP617  ASP618  TYR619  PRO620  LYS621  CYS622 
 ASP623  PHE694  ASN695  SER759  ASP760  ASP761  ALA762  ILE779  LEU786  VAL792 
 PHE793  MET794  SER795  GLU796  ALA797  LYS798  CYS799  TRP800  GLU811  SER814 

> <Gold.Protein.RotatedAtoms>
  151.2230  133.4492  159.2601 H   0  0  0  0  0  0  0  0  0  0  0  0  # atno 6907 bound_to 6896
  151.0867  134.9891  159.8393 H   0  0  0  0  0  0  0  0  0  0  0  0  # atno 6908 bound_to 6896
  152.5430  134.2166  159.8824 H   0  0  0  0  0  0  0  0  0  0  0  0  # atno 6909 bound_to 6896
  145.0799  139.3665  143.4914 H   0  0  0  0  0  0  0  0  0  0  0  0  # atno 7974 bound_to 7965
  156.0664  140.3289  155.7522 H   0  0  0  0  0  0  0  0  0  0  0  0  # atno 8008 bound_to 7997
  155.5375  140.0599  157.2894 H   0  0  0  0  0  0  0  0  0  0  0  0  # atno 8009 bound_to 7997
  154.4507  140.1916  156.0546 H   0  0  0  0  0  0  0  0  0  0  0  0  # atno 8010 bound_to 7997
  139.6747  144.7123  151.1623 H   0  0  0  0  0  0  0  0  0  0  0  0  # atno 10167 bound_to 10162
  156.1776  130.6710  151.0263 H   0  0  0  0  0  0  0  0  0  0  0  0  # atno 10718 bound_to 10713
  154.6881  135.2966  154.9519 H   0  0  0  0  0  0  0  0  0  0  0  0  # atno 10763 bound_to 10752
  154.0491  135.6647  153.4802 H   0  0  0  0  0  0  0  0  0  0  0  0  # atno 10764 bound_to 10752
  153.0593  135.5125  154.7959 H   0  0  0  0  0  0  0  0  0  0  0  0  # atno 10765 bound_to 10752
  141.1262  133.8415  157.1129 H   0  0  0  0  0  0  0  0  0  0  0  0  # atno 11005 bound_to 11000
  146.3531  140.0584  142.8631 LP  0  0  0  0  0  0  0  0  0  0  0  0  # atno 17320 bound_to 7965
  145.1191  140.9451  143.4611 LP  0  0  0  0  0  0  0  0  0  0  0  0  # atno 17321 bound_to 7965
  140.7631  143.5789  150.8916 LP  0  0  0  0  0  0  0  0  0  0  0  0  # atno 17342 bound_to 10162
  139.9457  143.6330  152.3042 LP  0  0  0  0  0  0  0  0  0  0  0  0  # atno 17343 bound_to 10162
  157.6846  131.0828  150.7277 LP  0  0  0  0  0  0  0  0  0  0  0  0  # atno 17370 bound_to 10713
  156.7334  130.4717  149.5494 LP  0  0  0  0  0  0  0  0  0  0  0  0  # atno 17371 bound_to 10713
  140.0264  134.9922  157.0694 LP  0  0  0  0  0  0  0  0  0  0  0  0  # atno 17394 bound_to 11000
  140.4356  134.1734  155.7170 LP  0  0  0  0  0  0  0  0  0  0  0  0  # atno 17395 bound_to 11000

$$$$
