AV-unprocessed.smi:3336|AV-procd|sdf|12855|dock5
  -GOLD-   2272019253D 1   1.00000     0.00000
 Structure written by MMmdl.
 42 43  0  0  0  0  0  0  0  0  2 V2000
  148.5060  132.5241  153.2558 C   0  0  0  0  0  0  0  0  0  0  0  0
  148.2252  133.6200  154.2979 C   0  0  2  0  0  0  0  0  0  0  0  0
  146.7836  134.1707  154.1937 C   0  0  0  0  0  0  0  0  0  0  0  0
  146.1453  133.8563  152.9285 N   0  0  0  0  0  0  0  0  0  0  0  0
  145.0836  133.0092  152.6884 C   0  0  0  0  0  0  0  0  0  0  0  0
  144.8433  133.0311  151.3445 C   0  0  0  0  0  0  0  0  0  0  0  0
  145.8273  133.9263  150.8392 C   0  0  0  0  0  0  0  0  0  0  0  0
  146.6067  134.4169  151.7899 N   0  0  0  0  0  0  0  0  0  0  0  0
  149.2250  134.7032  154.1401 N   0  3  0  0  0  0  0  0  0  0  0  0
  149.3036  135.7157  155.2218 C   0  0  1  0  0  0  0  0  0  0  0  0
  148.9557  135.0902  156.5906 C   0  0  0  0  0  0  0  0  0  0  0  0
  150.7127  136.3455  155.2264 C   0  0  0  0  0  0  0  0  0  0  0  0
  151.6405  135.7014  155.7185 O   0  0  0  0  0  0  0  0  0  0  0  0
  150.9114  137.5684  154.6721 N   0  0  0  0  0  0  0  0  0  0  0  0
  149.8242  138.3710  154.1013 C   0  0  0  0  0  0  0  0  0  0  0  0
  149.6601  139.6432  154.9526 C   0  0  0  0  0  0  0  0  0  0  0  0
  150.8898  140.3642  154.9789 O   0  0  0  0  0  0  0  0  0  0  0  0
  151.9771  139.6008  155.4945 C   0  0  0  0  0  0  0  0  0  0  0  0
  152.1647  138.3305  154.6462 C   0  0  0  0  0  0  0  0  0  0  0  0
  147.8525  131.6619  153.3921 H   0  0  0  0  0  0  0  0  0  0  0  0
  149.5318  132.1623  153.3337 H   0  0  0  0  0  0  0  0  0  0  0  0
  148.3603  132.8948  152.2405 H   0  0  0  0  0  0  0  0  0  0  0  0
  148.3562  133.1629  155.2781 H   0  0  0  0  0  0  0  0  0  0  0  0
  146.1524  133.7716  154.9876 H   0  0  0  0  0  0  0  0  0  0  0  0
  146.7872  135.2550  154.3135 H   0  0  0  0  0  0  0  0  0  0  0  0
  144.5908  132.4694  153.4837 H   0  0  0  0  0  0  0  0  0  0  0  0
  144.0821  132.4883  150.8037 H   0  0  0  0  0  0  0  0  0  0  0  0
  145.9977  134.2308  149.8169 H   0  0  0  0  0  0  0  0  0  0  0  0
  150.1395  134.2810  154.0614 H   0  0  0  0  0  0  0  0  0  0  0  0
  148.5808  136.5122  155.0548 H   0  0  0  0  0  0  0  0  0  0  0  0
  149.1090  135.8038  157.4016 H   0  0  0  0  0  0  0  0  0  0  0  0
  149.5670  134.2115  156.8007 H   0  0  0  0  0  0  0  0  0  0  0  0
  147.9114  134.7836  156.6417 H   0  0  0  0  0  0  0  0  0  0  0  0
  150.0708  138.6368  153.0724 H   0  0  0  0  0  0  0  0  0  0  0  0
  148.8744  137.8369  154.0529 H   0  0  0  0  0  0  0  0  0  0  0  0
  148.8844  140.2827  154.5313 H   0  0  0  0  0  0  0  0  0  0  0  0
  149.3527  139.3939  155.9694 H   0  0  0  0  0  0  0  0  0  0  0  0
  152.8804  140.2102  155.4674 H   0  0  0  0  0  0  0  0  0  0  0  0
  151.7933  139.3472  156.5397 H   0  0  0  0  0  0  0  0  0  0  0  0
  153.0293  137.7821  155.0088 H   0  0  0  0  0  0  0  0  0  0  0  0
  152.3998  138.6012  153.6158 H   0  0  0  0  0  0  0  0  0  0  0  0
  149.0252  135.1803  153.2727 H   0  0  0  0  0  0  0  0  0  0  0  0
  1  2  1  0  0  0  0
  1 20  1  0  0  0  0
  1 21  1  0  0  0  0
  1 22  1  0  0  0  0
  2  3  1  0  0  0  0
  2  9  1  0  0  0  0
  2 23  1  0  0  0  0
  3  4  1  0  0  0  0
  3 24  1  0  0  0  0
  3 25  1  0  0  0  0
  4  8  1  0  0  0  0
  4  5  1  0  0  0  0
  5  6  2  0  0  0  0
  5 26  1  0  0  0  0
  6  7  1  0  0  0  0
  6 27  1  0  0  0  0
  7  8  2  0  0  0  0
  7 28  1  0  0  0  0
  9 10  1  0  0  0  0
  9 29  1  0  0  0  0
  9 42  1  0  0  0  0
 10 11  1  0  0  0  0
 10 12  1  0  0  0  0
 10 30  1  0  0  0  0
 11 31  1  0  0  0  0
 11 32  1  0  0  0  0
 11 33  1  0  0  0  0
 12 13  2  0  0  0  0
 12 14  1  0  0  0  0
 14 19  1  0  0  0  0
 14 15  1  0  0  0  0
 15 16  1  0  0  0  0
 15 34  1  0  0  0  0
 15 35  1  0  0  0  0
 16 17  1  0  0  0  0
 16 36  1  0  0  0  0
 16 37  1  0  0  0  0
 17 18  1  0  0  0  0
 18 19  1  0  0  0  0
 18 38  1  0  0  0  0
 18 39  1  0  0  0  0
 19 40  1  0  0  0  0
 19 41  1  0  0  0  0
M  CHG  1   9   1
M  END
> <s_m_source_file>
AV-unprocessed.smi

> <i_m_source_file_index>
3336

> <i_lp_mmshare_version>
43012

> <i_f3d_flags>
0

> <s_epik_input>
bjFbY0hdW2NIXVtjSF1uMVtDSDJdW0NAQEhdKFtDSDNdKVtOSF1bQ0BIXShbQ0gzXSlDKD1PKU4yW0NIMl1bQ0gyXU9bQ0gyXVtDSDJdMg==

> <s_epik_cmdline>
J2VwaWtfcHl0aG9uJywgJy1waCcsICc3LjAnLCAnLXRuJywgJzgnLCAnLW1hJywgJzIwMCcsICctbWV0YWxfYmluZGluZycsICctaW1hZScsICc8aW5maWxlLm1hZT4nLCAnLW9tYWUnLCAnPG91dGZpbGUubWFlPic=

> <r_lp_tautomer_probability>
1

> <r_epik_Ionization_Penalty>
0.200288

> <r_epik_Ionization_Penalty_Charging>
0.200285

> <r_epik_Ionization_Penalty_Neutral>
3.37705e-06

> <r_epik_State_Penalty>
0.190126

> <r_epik_Charging_Adjusted_Penalty>
0.39041

> <i_epik_Tot_Q>
1

> <i_epik_Tot_abs_Q>
1

> <r_epik_Metal_State_Penalty>
0.190133

> <b_epik_Metal_Only>
0

> <s_lp_Force_Field>
OPLS_2005

> <r_lp_Energy>
29.2722

> <b_lp_Chiralities_Consistent>
1

> <s_lp_Variant>
AV-unprocessed.smi:3336-3

> <Gold.Version>
5.8.1

> <Gold.Id.Protein>
6NUR|6NUR_protein|mol2

> <Gold.PLP.Fitness>
45.5997

> <Gold.PLP.PLP>
-30.4365

> <Gold.PLP.part.hbond>
-3.0000

> <Gold.PLP.part.metal>
0.0000

> <Gold.PLP.part.buried>
-3.7355

> <Gold.PLP.part.nonpolar>
-25.6065

> <Gold.PLP.part.repulsive>
1.9608

> <Gold.PLP.ligand.clash>
0.0000

> <Gold.PLP.ligand.torsion>
1.4786

> <Gold.PLP.Chemscore.Hbond>
4.0000

> <Gold.PLP.Chemscore.CHOScore>
2.0000

> <Gold.PLP.Chemscore.Metal>
0.0000

> <Gold.Chemscore.Hbonds>
donor molecule, donor type, donor heavy atom, donor atom, acceptor molecule, acceptor atom, score
      L1  H     9    42       P1  7948  2.00
      P1  H  7989  7998       L1    17  0.90
      P1  H 10752 10765       L1    13  1.00
      L1  C     5    26       P1 10957  0.95
      L1  C     7    28       P1  7921  1.00

> <Gold.PLP.Chemscore.Internal.Correction>
0.1204

> <Gold.Rescore>
     Score         DG    S(hbond)    S(metal)    S(lipo)     H(rot)  DE(clash)    DE(int)     intcor
     12.74     -15.38       2.09        0.00      65.49       1.85       0.14       2.51       ----

> <Gold.Chemscore.Fitness>
12.7385

> <Gold.Chemscore.DG>
-15.3821

> <Gold.Chemscore.ZeroCoef>
-5.4800

> <Gold.Chemscore.Hbond>
2.0916

> <Gold.Chemscore.Metal>
0.0000

> <Gold.Chemscore.Lipo>
65.4933

> <Gold.Chemscore.Internal_Hbond>
0.0000

> <Gold.Chemscore.DEClash>
0.1385

> <Gold.Chemscore.DEInternal>
2.5051

> <Gold.Chemscore.Rot>
1.8541

> <Gold.Chemscore.Internal.Correction>
   9.000000E+99

> <Gold.Chemscore.Hbonds>
donor molecule, donor type, donor heavy atom, donor atom, acceptor molecule, acceptor atom, score
      L1  H     9    42       P1  7948  0.35
      P1  H  7989  7998       L1    17  0.17
      P1  H 10752 10765       L1    13  0.87

> <Gold.Chemscore.Hbond.Weighted>
-6.9859

> <Gold.Chemscore.Metal.Weighted>
-0.0000

> <Gold.Chemscore.Lipo.Weighted>
-7.6627

> <Gold.Chemscore.Internal_Hbond.Weighted>
0.0000

> <Gold.Chemscore.DEClash.Weighted>
0.1385

> <Gold.Chemscore.DEInternal.Weighted>
2.5051

> <Gold.Chemscore.Rot.Weighted>
4.7465

> <Gold.Chemscore.Internal.Correction.Weighted>
   9.000000E+99

> <Gold.Protein.RotatedTorsions>
[ 6907 6896 6895 6894 ] final   52.59 input  -60.11 | X-H torsion
[ 7974 7965 7964 7962 ] final -153.90 input  175.53 | X-H torsion
[ 8008 7997 7996 7995 ] final -161.82 input   59.86 | X-H torsion
[ 10167 10162 10161 10158 ] final  -67.33 input  -65.29 | X-H torsion
[ 10718 10713 10712 10709 ] final  179.02 input   66.30 | X-H torsion
[ 10763 10752 10751 10750 ] final -172.74 input  -60.55 | X-H torsion
[ 11005 11000 10999 10996 ] final  169.47 input  -57.11 | X-H torsion

> <Gold.Protein.ActiveResidues>
 VAL166  LYS551  ARG553  GLY616  TRP617  ASP618  TYR619  PRO620  LYS621  CYS622 
 ASP623  PHE694  ASN695  SER759  ASP760  ASP761  ALA762  ILE779  LEU786  VAL792 
 PHE793  MET794  SER795  GLU796  ALA797  LYS798  CYS799  TRP800  GLU811  SER814 

> <Gold.Protein.RotatedAtoms>
  152.3249  134.7334  160.0304 H   0  0  0  0  0  0  0  0  0  0  0  0  # atno 6907 bound_to 6896
  151.7770  133.3341  159.3469 H   0  0  0  0  0  0  0  0  0  0  0  0  # atno 6908 bound_to 6896
  150.7390  134.5897  159.6026 H   0  0  0  0  0  0  0  0  0  0  0  0  # atno 6909 bound_to 6896
  144.7716  140.4461  143.5903 H   0  0  0  0  0  0  0  0  0  0  0  0  # atno 7974 bound_to 7965
  155.7977  140.0887  157.1974 H   0  0  0  0  0  0  0  0  0  0  0  0  # atno 8008 bound_to 7997
  154.3983  140.1478  156.3296 H   0  0  0  0  0  0  0  0  0  0  0  0  # atno 8009 bound_to 7997
  155.8494  140.3435  155.5686 H   0  0  0  0  0  0  0  0  0  0  0  0  # atno 8010 bound_to 7997
  140.5591  143.2312  151.6764 H   0  0  0  0  0  0  0  0  0  0  0  0  # atno 10167 bound_to 10162
  156.8819  130.9818  151.3061 H   0  0  0  0  0  0  0  0  0  0  0  0  # atno 10718 bound_to 10713
  154.6159  135.2869  155.0381 H   0  0  0  0  0  0  0  0  0  0  0  0  # atno 10763 bound_to 10752
  154.1594  135.6490  153.4986 H   0  0  0  0  0  0  0  0  0  0  0  0  # atno 10764 bound_to 10752
  153.0214  135.5374  154.6930 H   0  0  0  0  0  0  0  0  0  0  0  0  # atno 10765 bound_to 10752
  140.2981  134.7618  157.3894 H   0  0  0  0  0  0  0  0  0  0  0  0  # atno 11005 bound_to 11000
  145.6306  139.1536  143.2971 LP  0  0  0  0  0  0  0  0  0  0  0  0  # atno 17320 bound_to 7965
  146.1867  140.6410  142.9164 LP  0  0  0  0  0  0  0  0  0  0  0  0  # atno 17321 bound_to 7965
  139.5061  144.3692  152.0486 LP  0  0  0  0  0  0  0  0  0  0  0  0  # atno 17342 bound_to 10162
  140.2817  144.3852  150.6117 LP  0  0  0  0  0  0  0  0  0  0  0  0  # atno 17343 bound_to 10162
  157.6135  130.8601  149.8990 LP  0  0  0  0  0  0  0  0  0  0  0  0  # atno 17370 bound_to 10713
  156.0673  130.3690  150.0852 LP  0  0  0  0  0  0  0  0  0  0  0  0  # atno 17371 bound_to 10713
  140.1134  134.5315  155.8246 LP  0  0  0  0  0  0  0  0  0  0  0  0  # atno 17394 bound_to 11000
  141.2133  133.6732  156.6732 LP  0  0  0  0  0  0  0  0  0  0  0  0  # atno 17395 bound_to 11000

$$$$
