AV-unprocessed.smi:2074|AV-procd|sdf|8454|dock5
  -GOLD-   2272011153D 1   1.00000     0.00000
 Structure written by MMmdl.
 44 45  0  0  0  0  0  0  0  0  2 V2000
  146.8826  133.7540  161.9720 C   0  0  0  0  0  0  0  0  0  0  0  0
  147.1740  135.0643  161.2982 C   0  0  0  0  0  0  0  0  0  0  0  0
  146.9187  136.1908  161.9415 N   0  0  0  0  0  0  0  0  0  0  0  0
  147.2876  137.2216  161.0721 O   0  0  0  0  0  0  0  0  0  0  0  0
  147.7574  136.6686  159.9254 C   0  0  0  0  0  0  0  0  0  0  0  0
  148.2070  137.6159  158.8650 C   0  0  0  0  0  0  0  0  0  0  0  0
  147.7137  135.3031  160.0007 C   0  0  0  0  0  0  0  0  0  0  0  0
  148.1362  134.2928  158.9644 C   0  0  0  0  0  0  0  0  0  0  0  0
  147.4851  134.6296  157.6228 C   0  0  0  0  0  0  0  0  0  0  0  0
  146.2642  134.7609  157.5437 O   0  0  0  0  0  0  0  0  0  0  0  0
  148.3119  134.7751  156.5773 N   0  0  0  0  0  0  0  0  0  0  0  0
  147.8893  135.1390  155.2304 C   0  0  0  0  0  0  0  0  0  0  0  0
  147.8873  133.9210  154.2683 C   0  0  2  0  0  0  0  0  0  0  0  0
  149.3367  133.4468  154.0041 C   0  0  0  0  0  0  0  0  0  0  0  0
  147.1780  134.1881  152.9724 N   0  3  0  0  0  0  0  0  0  0  0  0
  147.0193  132.9639  152.1390 C   0  0  0  0  0  0  0  0  0  0  0  0
  146.3516  133.2865  150.7923 C   0  0  0  0  0  0  0  0  0  0  0  0
  145.0883  133.8899  151.0237 O   0  0  0  0  0  0  0  0  0  0  0  0
  145.2228  135.1196  151.7192 C   0  0  0  0  0  0  0  0  0  0  0  0
  145.8627  134.8770  153.0976 C   0  0  0  0  0  0  0  0  0  0  0  0
  147.4291  132.9348  161.5054 H   0  0  0  0  0  0  0  0  0  0  0  0
  145.8202  133.5160  161.9183 H   0  0  0  0  0  0  0  0  0  0  0  0
  147.1667  133.7784  163.0246 H   0  0  0  0  0  0  0  0  0  0  0  0
  148.8429  137.1140  158.1355 H   0  0  0  0  0  0  0  0  0  0  0  0
  148.7765  138.4394  159.2962 H   0  0  0  0  0  0  0  0  0  0  0  0
  147.3515  138.0353  158.3355 H   0  0  0  0  0  0  0  0  0  0  0  0
  149.2193  134.2708  158.8408 H   0  0  0  0  0  0  0  0  0  0  0  0
  147.8478  133.2825  159.2574 H   0  0  0  0  0  0  0  0  0  0  0  0
  149.3015  134.6478  156.7322 H   0  0  0  0  0  0  0  0  0  0  0  0
  146.8901  135.5629  155.3324 H   0  0  0  0  0  0  0  0  0  0  0  0
  148.5411  135.9221  154.8384 H   0  0  0  0  0  0  0  0  0  0  0  0
  147.3519  133.1167  154.7760 H   0  0  0  0  0  0  0  0  0  0  0  0
  149.8807  133.2532  154.9281 H   0  0  0  0  0  0  0  0  0  0  0  0
  149.8988  134.1966  153.4466 H   0  0  0  0  0  0  0  0  0  0  0  0
  149.3786  132.5148  153.4435 H   0  0  0  0  0  0  0  0  0  0  0  0
  147.9807  132.4980  151.9333 H   0  0  0  0  0  0  0  0  0  0  0  0
  146.4201  132.2296  152.6802 H   0  0  0  0  0  0  0  0  0  0  0  0
  146.9817  133.9425  150.1892 H   0  0  0  0  0  0  0  0  0  0  0  0
  146.2040  132.3716  150.2183 H   0  0  0  0  0  0  0  0  0  0  0  0
  145.8179  135.8208  151.1317 H   0  0  0  0  0  0  0  0  0  0  0  0
  144.2352  135.5657  151.8380 H   0  0  0  0  0  0  0  0  0  0  0  0
  145.1947  134.2811  153.7216 H   0  0  0  0  0  0  0  0  0  0  0  0
  145.9764  135.8504  153.5733 H   0  0  0  0  0  0  0  0  0  0  0  0
  147.7696  134.8205  152.4525 H   0  0  0  0  0  0  0  0  0  0  0  0
  1  2  1  0  0  0  0
  1 21  1  0  0  0  0
  1 22  1  0  0  0  0
  1 23  1  0  0  0  0
  2  7  1  0  0  0  0
  2  3  2  0  0  0  0
  3  4  1  0  0  0  0
  4  5  1  0  0  0  0
  5  6  1  0  0  0  0
  5  7  2  0  0  0  0
  6 24  1  0  0  0  0
  6 25  1  0  0  0  0
  6 26  1  0  0  0  0
  7  8  1  0  0  0  0
  8  9  1  0  0  0  0
  8 27  1  0  0  0  0
  8 28  1  0  0  0  0
  9 10  2  0  0  0  0
  9 11  1  0  0  0  0
 11 12  1  0  0  0  0
 11 29  1  0  0  0  0
 12 13  1  0  0  0  0
 12 30  1  0  0  0  0
 12 31  1  0  0  0  0
 13 14  1  0  0  0  0
 13 15  1  0  0  0  0
 13 32  1  0  0  0  0
 14 33  1  0  0  0  0
 14 34  1  0  0  0  0
 14 35  1  0  0  0  0
 15 20  1  0  0  0  0
 15 16  1  0  0  0  0
 15 44  1  0  0  0  0
 16 17  1  0  0  0  0
 16 36  1  0  0  0  0
 16 37  1  0  0  0  0
 17 18  1  0  0  0  0
 17 38  1  0  0  0  0
 17 39  1  0  0  0  0
 18 19  1  0  0  0  0
 19 20  1  0  0  0  0
 19 40  1  0  0  0  0
 19 41  1  0  0  0  0
 20 42  1  0  0  0  0
 20 43  1  0  0  0  0
M  CHG  1  15   1
M  END
> <s_m_source_file>
AV-unprocessed.smi

> <i_m_source_file_index>
2074

> <i_lp_mmshare_version>
43012

> <i_f3d_flags>
0

> <s_epik_input>
W0NIM11jMW5vYyhbQ0gzXSljMVtDSDJdQyg9TylbTkhdW0NIMl1bQ0BIXShbQ0gzXSlOMltDSDJdW0NIMl1PW0NIMl1bQ0gyXTI=

> <s_epik_cmdline>
J2VwaWtfcHl0aG9uJywgJy1waCcsICc3LjAnLCAnLXRuJywgJzgnLCAnLW1hJywgJzIwMCcsICctbWV0YWxfYmluZGluZycsICctaW1hZScsICc8aW5maWxlLm1hZT4nLCAnLW9tYWUnLCAnPG91dGZpbGUubWFlPic=

> <r_epik_Ionization_Penalty>
0.663207

> <r_epik_Ionization_Penalty_Charging>
0.663207

> <r_epik_Ionization_Penalty_Neutral>
1.0751e-07

> <r_epik_State_Penalty>
0.682743

> <r_epik_Charging_Adjusted_Penalty>
1.34595

> <i_epik_Tot_Q>
1

> <i_epik_Tot_abs_Q>
1

> <r_epik_Metal_State_Penalty>
0.682743

> <b_epik_Metal_Only>
0

> <s_lp_Force_Field>
OPLS_2005

> <r_lp_Energy>
15.5823

> <b_lp_Chiralities_Consistent>
1

> <s_lp_Variant>
AV-unprocessed.smi:2074-3

> <Gold.Version>
5.8.1

> <Gold.Id.Protein>
6NUR|6NUR_protein|mol2

> <Gold.PLP.Fitness>
40.0933

> <Gold.PLP.PLP>
-29.2681

> <Gold.PLP.part.hbond>
-3.0000

> <Gold.PLP.part.metal>
0.0000

> <Gold.PLP.part.buried>
-4.4308

> <Gold.PLP.part.nonpolar>
-21.7815

> <Gold.PLP.part.repulsive>
0.1751

> <Gold.PLP.ligand.clash>
0.0000

> <Gold.PLP.ligand.torsion>
0.3684

> <Gold.PLP.Chemscore.Hbond>
3.8400

> <Gold.PLP.Chemscore.CHOScore>
0.0000

> <Gold.PLP.Chemscore.Metal>
0.0000

> <Gold.Chemscore.Hbonds>
donor molecule, donor type, donor heavy atom, donor atom, acceptor molecule, acceptor atom, score
      L1  H    15    44       P1  7948  2.00
      P1  H  6931  6943       L1     4  0.50
      P1  H  6934  6947       L1     4  1.00

> <Gold.PLP.Chemscore.Internal.Correction>
0.0421

> <Gold.Rescore>
     Score         DG    S(hbond)    S(metal)    S(lipo)     H(rot)  DE(clash)    DE(int)     intcor
     16.56     -16.84       2.55        0.00      63.75       1.80       0.01       0.27       ----

> <Gold.Chemscore.Fitness>
16.5642

> <Gold.Chemscore.DG>
-16.8448

> <Gold.Chemscore.ZeroCoef>
-5.4800

> <Gold.Chemscore.Hbond>
2.5463

> <Gold.Chemscore.Metal>
0.0000

> <Gold.Chemscore.Lipo>
63.7452

> <Gold.Chemscore.Internal_Hbond>
0.0000

> <Gold.Chemscore.DEClash>
0.0121

> <Gold.Chemscore.DEInternal>
0.2684

> <Gold.Chemscore.Rot>
1.7961

> <Gold.Chemscore.Internal.Correction>
   9.000000E+99

> <Gold.Chemscore.Hbonds>
donor molecule, donor type, donor heavy atom, donor atom, acceptor molecule, acceptor atom, score
      L1  H    15    44       P1  7948  0.85
      P1  H  6931  6943       L1     4  0.15
      P1  H  6934  6947       L1     4  0.77

> <Gold.Chemscore.Hbond.Weighted>
-8.5047

> <Gold.Chemscore.Metal.Weighted>
-0.0000

> <Gold.Chemscore.Lipo.Weighted>
-7.4582

> <Gold.Chemscore.Internal_Hbond.Weighted>
0.0000

> <Gold.Chemscore.DEClash.Weighted>
0.0121

> <Gold.Chemscore.DEInternal.Weighted>
0.2684

> <Gold.Chemscore.Rot.Weighted>
4.5980

> <Gold.Chemscore.Internal.Correction.Weighted>
   9.000000E+99

> <Gold.Protein.RotatedTorsions>
[ 6907 6896 6895 6894 ] final  -51.90 input  -60.11 | X-H torsion
[ 7974 7965 7964 7962 ] final   44.29 input  175.53 | X-H torsion
[ 8008 7997 7996 7995 ] final  129.38 input   59.86 | X-H torsion
[ 10167 10162 10161 10158 ] final   -6.90 input  -65.29 | X-H torsion
[ 10718 10713 10712 10709 ] final -134.52 input   66.30 | X-H torsion
[ 10763 10752 10751 10750 ] final -111.20 input  -60.55 | X-H torsion
[ 11005 11000 10999 10996 ] final   64.86 input  -57.11 | X-H torsion

> <Gold.Protein.ActiveResidues>
 VAL166  LYS551  ARG553  GLY616  TRP617  ASP618  TYR619  PRO620  LYS621  CYS622 
 ASP623  PHE694  ASN695  SER759  ASP760  ASP761  ALA762  ILE779  LEU786  VAL792 
 PHE793  MET794  SER795  GLU796  ALA797  LYS798  CYS799  TRP800  GLU811  SER814 

> <Gold.Protein.RotatedAtoms>
  150.8568  134.7909  159.7051 H   0  0  0  0  0  0  0  0  0  0  0  0  # atno 6907 bound_to 6896
  152.4617  134.5165  159.9779 H   0  0  0  0  0  0  0  0  0  0  0  0  # atno 6908 bound_to 6896
  151.5276  133.3417  159.2948 H   0  0  0  0  0  0  0  0  0  0  0  0  # atno 6909 bound_to 6896
  146.0581  139.5091  142.9675 H   0  0  0  0  0  0  0  0  0  0  0  0  # atno 7974 bound_to 7965
  156.2935  140.2622  156.2589 H   0  0  0  0  0  0  0  0  0  0  0  0  # atno 8008 bound_to 7997
  154.9808  140.0390  157.2295 H   0  0  0  0  0  0  0  0  0  0  0  0  # atno 8009 bound_to 7997
  154.7773  140.2789  155.6095 H   0  0  0  0  0  0  0  0  0  0  0  0  # atno 8010 bound_to 7997
  140.7012  143.6142  150.8675 H   0  0  0  0  0  0  0  0  0  0  0  0  # atno 10167 bound_to 10162
  156.2564  130.7183  151.1101 H   0  0  0  0  0  0  0  0  0  0  0  0  # atno 10718 bound_to 10713
  154.8288  135.4536  154.1003 H   0  0  0  0  0  0  0  0  0  0  0  0  # atno 10763 bound_to 10752
  153.2294  135.6903  153.7914 H   0  0  0  0  0  0  0  0  0  0  0  0  # atno 10764 bound_to 10752
  153.7302  135.3328  155.3260 H   0  0  0  0  0  0  0  0  0  0  0  0  # atno 10765 bound_to 10752
  139.9931  134.6560  156.0056 H   0  0  0  0  0  0  0  0  0  0  0  0  # atno 11005 bound_to 11000
  145.6608  141.0241  143.1710 LP  0  0  0  0  0  0  0  0  0  0  0  0  # atno 17320 bound_to 7965
  144.7159  139.8198  143.7399 LP  0  0  0  0  0  0  0  0  0  0  0  0  # atno 17321 bound_to 7965
  139.9864  143.5895  152.2925 LP  0  0  0  0  0  0  0  0  0  0  0  0  # atno 17342 bound_to 10162
  139.6534  144.7661  151.2103 LP  0  0  0  0  0  0  0  0  0  0  0  0  # atno 17343 bound_to 10162
  157.7234  131.0666  150.6038 LP  0  0  0  0  0  0  0  0  0  0  0  0  # atno 17370 bound_to 10713
  156.6122  130.4383  149.5854 LP  0  0  0  0  0  0  0  0  0  0  0  0  # atno 17371 bound_to 10713
  141.1582  133.6541  156.4232 LP  0  0  0  0  0  0  0  0  0  0  0  0  # atno 17394 bound_to 11000
  140.4870  134.6611  157.5195 LP  0  0  0  0  0  0  0  0  0  0  0  0  # atno 17395 bound_to 11000

$$$$
