AV-unprocessed.smi:2867|AV-procd|sdf|11025|dock9
  -GOLD-   2272015483D 1   1.00000     0.00000
 Structure written by MMmdl.
 39 41  0  0  0  0  0  0  0  0  2 V2000
  144.9532  137.7555  161.0449 C   0  0  0  0  0  0  0  0  0  0  0  0
  145.9122  138.2250  160.1134 O   0  0  0  0  0  0  0  0  0  0  0  0
  145.5105  138.0166  158.7711 C   0  0  0  0  0  0  0  0  0  0  0  0
  145.9856  136.6303  158.3212 C   0  0  0  0  0  0  0  0  0  0  0  0
  147.4346  136.5243  158.3716 N   0  0  0  0  0  0  0  0  0  0  0  0
  148.1845  135.8128  159.2510 C   0  0  0  0  0  0  0  0  0  0  0  0
  147.6304  135.0182  160.3373 C   0  0  0  0  0  0  0  0  0  0  0  0
  147.1228  135.6473  161.4937 C   0  0  0  0  0  0  0  0  0  0  0  0
  146.5865  134.8726  162.5407 C   0  0  0  0  0  0  0  0  0  0  0  0
  146.5597  133.4682  162.4355 C   0  0  0  0  0  0  0  0  0  0  0  0
  147.0715  132.8378  161.2843 C   0  0  0  0  0  0  0  0  0  0  0  0
  147.0460  131.4878  161.1838 F   0  0  0  0  0  0  0  0  0  0  0  0
  147.6087  133.6116  160.2373 C   0  0  0  0  0  0  0  0  0  0  0  0
  149.5019  135.8719  159.0464 N   0  0  0  0  0  0  0  0  0  0  0  0
  149.6131  136.6925  157.9410 C   0  0  0  0  0  0  0  0  0  0  0  0
  150.7541  137.1342  157.2360 C   0  0  0  0  0  0  0  0  0  0  0  0
  150.6081  137.9736  156.1109 C   0  0  0  0  0  0  0  0  0  0  0  0
  152.0665  138.5188  155.2263 S   0  0  0  0  0  0  0  0  0  0  0  0
  152.0248  137.4012  154.0639 N   0  5  0  0  0  0  0  0  0  0  0  0
  151.7770  139.8723  154.7278 O   0  0  0  0  0  0  0  0  0  0  0  0
  153.2025  138.3447  156.1449 O   0  0  0  0  0  0  0  0  0  0  0  0
  149.3303  138.3859  155.6754 C   0  0  0  0  0  0  0  0  0  0  0  0
  148.1834  137.9559  156.3696 C   0  0  0  0  0  0  0  0  0  0  0  0
  148.3321  137.1178  157.4912 C   0  0  0  0  0  0  0  0  0  0  0  0
  145.3113  137.9305  162.0593 H   0  0  0  0  0  0  0  0  0  0  0  0
  144.7801  136.6849  160.9288 H   0  0  0  0  0  0  0  0  0  0  0  0
  144.0030  138.2787  160.9288 H   0  0  0  0  0  0  0  0  0  0  0  0
  144.4244  138.0881  158.6914 H   0  0  0  0  0  0  0  0  0  0  0  0
  145.9404  138.7867  158.1282 H   0  0  0  0  0  0  0  0  0  0  0  0
  145.5556  135.8599  158.9620 H   0  0  0  0  0  0  0  0  0  0  0  0
  145.6403  136.4160  157.3103 H   0  0  0  0  0  0  0  0  0  0  0  0
  147.1426  136.7243  161.5779 H   0  0  0  0  0  0  0  0  0  0  0  0
  146.1959  135.3551  163.4245 H   0  0  0  0  0  0  0  0  0  0  0  0
  146.1477  132.8747  163.2382 H   0  0  0  0  0  0  0  0  0  0  0  0
  147.9996  133.1252  159.3553 H   0  0  0  0  0  0  0  0  0  0  0  0
  151.7375  136.8223  157.5549 H   0  0  0  0  0  0  0  0  0  0  0  0
  151.4927  137.7891  153.2763 H   0  0  0  0  0  0  0  0  0  0  0  0
  149.2284  139.0243  154.8103 H   0  0  0  0  0  0  0  0  0  0  0  0
  147.2023  138.2640  156.0404 H   0  0  0  0  0  0  0  0  0  0  0  0
  1  2  1  0  0  0  0
  1 25  1  0  0  0  0
  1 26  1  0  0  0  0
  1 27  1  0  0  0  0
  2  3  1  0  0  0  0
  3  4  1  0  0  0  0
  3 28  1  0  0  0  0
  3 29  1  0  0  0  0
  4  5  1  0  0  0  0
  4 30  1  0  0  0  0
  4 31  1  0  0  0  0
  5 24  1  0  0  0  0
  5  6  1  0  0  0  0
  6  7  1  0  0  0  0
  6 14  2  0  0  0  0
  7 13  1  0  0  0  0
  7  8  2  0  0  0  0
  8  9  1  0  0  0  0
  8 32  1  0  0  0  0
  9 10  2  0  0  0  0
  9 33  1  0  0  0  0
 10 11  1  0  0  0  0
 10 34  1  0  0  0  0
 11 12  1  0  0  0  0
 11 13  2  0  0  0  0
 13 35  1  0  0  0  0
 14 15  1  0  0  0  0
 15 24  2  0  0  0  0
 15 16  1  0  0  0  0
 16 17  2  0  0  0  0
 16 36  1  0  0  0  0
 17 18  1  0  0  0  0
 17 22  1  0  0  0  0
 18 19  1  0  0  0  0
 18 20  2  0  0  0  0
 18 21  2  0  0  0  0
 19 37  1  0  0  0  0
 22 23  2  0  0  0  0
 22 38  1  0  0  0  0
 23 24  1  0  0  0  0
 23 39  1  0  0  0  0
M  CHG  1  19  -1
M  END
> <s_m_source_file>
AV-unprocessed.smi

> <i_m_source_file_index>
2867

> <i_lp_mmshare_version>
43012

> <i_f3d_flags>
0

> <s_epik_input>
W05IMl1TKD1PKSg9TyljKFtjSF0xKVtjSF1bY0hdYyhjMTIpbihbQ0gyXVtDSDJdT1tDSDNdKWMobjIpLWMzW2NIXVtjSF1bY0hdYyhGKVtjSF0z

> <s_epik_cmdline>
J2VwaWtfcHl0aG9uJywgJy1waCcsICc3LjAnLCAnLXRuJywgJzgnLCAnLW1hJywgJzIwMCcsICctbWV0YWxfYmluZGluZycsICctaW1hZScsICc8aW5maWxlLm1hZT4nLCAnLW9tYWUnLCAnPG91dGZpbGUubWFlPic=

> <r_epik_Ionization_Penalty>
4.13732

> <r_epik_Ionization_Penalty_Charging>
3.73366

> <r_epik_Ionization_Penalty_Neutral>
0.403663

> <r_epik_State_Penalty>
3.79183

> <r_epik_Charging_Adjusted_Penalty>
7.52549

> <i_epik_Tot_Q>
-1

> <i_epik_Tot_abs_Q>
1

> <r_epik_Metal_State_Penalty>
0.634538

> <b_epik_Metal_Only>
1

> <s_lp_Force_Field>
OPLS_2005

> <r_lp_Energy>
13.7357

> <b_lp_Chiralities_Consistent>
1

> <s_lp_Variant>
AV-unprocessed.smi:2867-3

> <Gold.Version>
5.8.1

> <Gold.Id.Protein>
6NUR|6NUR_protein|mol2

> <Gold.PLP.Fitness>
46.7986

> <Gold.PLP.PLP>
-32.3953

> <Gold.PLP.part.hbond>
-5.5025

> <Gold.PLP.part.metal>
0.0000

> <Gold.PLP.part.buried>
-5.9833

> <Gold.PLP.part.nonpolar>
-21.8473

> <Gold.PLP.part.repulsive>
0.0696

> <Gold.PLP.ligand.clash>
0.0000

> <Gold.PLP.ligand.torsion>
2.7544

> <Gold.PLP.Chemscore.Hbond>
5.5680

> <Gold.PLP.Chemscore.CHOScore>
0.0000

> <Gold.PLP.Chemscore.Metal>
0.0000

> <Gold.Chemscore.Hbonds>
donor molecule, donor type, donor heavy atom, donor atom, acceptor molecule, acceptor atom, score
      P1  H  6896  6907       L1    14  1.00
      P1  H  6934  6947       L1     2  0.80
      P1  H  7989  7998       L1    20  1.00
      P1  H  7997  8009       L1    21  0.76
      P1  H 10752 10764       L1    19  1.89

> <Gold.PLP.Chemscore.Internal.Correction>
3.2082

> <Gold.Rescore>
     Score         DG    S(hbond)    S(metal)    S(lipo)     H(rot)  DE(clash)    DE(int)     intcor
     22.02     -24.91       4.70        0.00      63.08       1.43       0.10       2.78       ----

> <Gold.Chemscore.Fitness>
22.0193

> <Gold.Chemscore.DG>
-24.9087

> <Gold.Chemscore.ZeroCoef>
-5.4800

> <Gold.Chemscore.Hbond>
4.7038

> <Gold.Chemscore.Metal>
0.0000

> <Gold.Chemscore.Lipo>
63.0843

> <Gold.Chemscore.Internal_Hbond>
0.0000

> <Gold.Chemscore.DEClash>
0.1045

> <Gold.Chemscore.DEInternal>
2.7850

> <Gold.Chemscore.Rot>
1.4308

> <Gold.Chemscore.Internal.Correction>
   9.000000E+99

> <Gold.Chemscore.Hbonds>
donor molecule, donor type, donor heavy atom, donor atom, acceptor molecule, acceptor atom, score
      P1  H  6896  6907       L1    14  1.00
      P1  H  6934  6947       L1     2  0.59
      P1  H  7989  7998       L1    20  0.93
      P1  H  7997  8009       L1    21  0.61
      P1  H 10752 10764       L1    19  0.89

> <Gold.Chemscore.Hbond.Weighted>
-15.7107

> <Gold.Chemscore.Metal.Weighted>
-0.0000

> <Gold.Chemscore.Lipo.Weighted>
-7.3809

> <Gold.Chemscore.Internal_Hbond.Weighted>
0.0000

> <Gold.Chemscore.DEClash.Weighted>
0.1045

> <Gold.Chemscore.DEInternal.Weighted>
2.7850

> <Gold.Chemscore.Rot.Weighted>
3.6628

> <Gold.Chemscore.Internal.Correction.Weighted>
   9.000000E+99

> <Gold.Protein.RotatedTorsions>
[ 6907 6896 6895 6894 ] final  -50.15 input  -60.11 | X-H torsion
[ 7974 7965 7964 7962 ] final   78.12 input  175.53 | X-H torsion
[ 8008 7997 7996 7995 ] final -165.49 input   59.86 | X-H torsion
[ 10167 10162 10161 10158 ] final   24.51 input  -65.29 | X-H torsion
[ 10718 10713 10712 10709 ] final  122.54 input   66.30 | X-H torsion
[ 10763 10752 10751 10750 ] final  -88.05 input  -60.55 | X-H torsion
[ 11005 11000 10999 10996 ] final -167.55 input  -57.11 | X-H torsion

> <Gold.Protein.ActiveResidues>
 VAL166  LYS551  ARG553  GLY616  TRP617  ASP618  TYR619  PRO620  LYS621  CYS622 
 ASP623  PHE694  ASN695  SER759  ASP760  ASP761  ALA762  ILE779  LEU786  VAL792 
 PHE793  MET794  SER795  GLU796  ALA797  LYS798  CYS799  TRP800  GLU811  SER814 

> <Gold.Protein.RotatedAtoms>
  150.8735  134.8114  159.7172 H   0  0  0  0  0  0  0  0  0  0  0  0  # atno 6907 bound_to 6896
  152.4731  134.4908  159.9704 H   0  0  0  0  0  0  0  0  0  0  0  0  # atno 6908 bound_to 6896
  151.4993  133.3469  159.2902 H   0  0  0  0  0  0  0  0  0  0  0  0  # atno 6909 bound_to 6896
  145.6812  139.2524  143.1813 H   0  0  0  0  0  0  0  0  0  0  0  0  # atno 7974 bound_to 7965
  155.8505  140.0962  157.1678 H   0  0  0  0  0  0  0  0  0  0  0  0  # atno 8008 bound_to 7997
  154.3985  140.1384  156.3900 H   0  0  0  0  0  0  0  0  0  0  0  0  # atno 8009 bound_to 7997
  155.7966  140.3454  155.5382 H   0  0  0  0  0  0  0  0  0  0  0  0  # atno 8010 bound_to 7997
  140.5182  144.0047  150.6404 H   0  0  0  0  0  0  0  0  0  0  0  0  # atno 10167 bound_to 10162
  157.5734  131.1081  150.8324 H   0  0  0  0  0  0  0  0  0  0  0  0  # atno 10718 bound_to 10713
  154.6403  135.5391  153.7781 H   0  0  0  0  0  0  0  0  0  0  0  0  # atno 10763 bound_to 10752
  153.0330  135.6457  154.1170 H   0  0  0  0  0  0  0  0  0  0  0  0  # atno 10764 bound_to 10752
  154.1095  135.2927  155.3214 H   0  0  0  0  0  0  0  0  0  0  0  0  # atno 10765 bound_to 10752
  140.5520  134.5419  157.5124 H   0  0  0  0  0  0  0  0  0  0  0  0  # atno 11005 bound_to 11000
  146.0962  140.7597  142.9571 LP  0  0  0  0  0  0  0  0  0  0  0  0  # atno 17320 bound_to 7965
  144.7025  140.3716  143.7144 LP  0  0  0  0  0  0  0  0  0  0  0  0  # atno 17321 bound_to 7965
  140.3388  143.3032  152.0610 LP  0  0  0  0  0  0  0  0  0  0  0  0  # atno 17342 bound_to 10162
  139.4915  144.6457  151.6783 LP  0  0  0  0  0  0  0  0  0  0  0  0  # atno 17343 bound_to 10162
  156.8789  130.5172  149.5292 LP  0  0  0  0  0  0  0  0  0  0  0  0  # atno 17370 bound_to 10713
  156.0779  130.5797  150.9508 LP  0  0  0  0  0  0  0  0  0  0  0  0  # atno 17371 bound_to 10713
  139.9450  134.7718  156.0583 LP  0  0  0  0  0  0  0  0  0  0  0  0  # atno 17394 bound_to 11000
  141.1166  133.6626  156.3109 LP  0  0  0  0  0  0  0  0  0  0  0  0  # atno 17395 bound_to 11000

$$$$
