AV-unprocessed.smi:3061|AV-procd|sdf|11681|dock1
  -GOLD-   2272017 83D 1   1.00000     0.00000
 Structure written by MMmdl.
 35 36  0  0  0  0  0  0  0  0  1 V2000
  150.6939  139.1349  155.8440 C   0  0  0  0  0  0  0  0  0  0  0  0
  150.0486  140.5120  156.0484 C   0  0  2  0  0  0  0  0  0  0  0  0
  149.4772  141.0678  154.7265 C   0  0  0  0  0  0  0  0  0  0  0  0
  148.2607  140.3902  154.3131 N   0  0  0  0  0  0  0  0  0  0  0  0
  148.0842  139.3170  153.5407 C   0  0  0  0  0  0  0  0  0  0  0  0
  146.8140  138.9670  153.3928 N   0  0  0  0  0  0  0  0  0  0  0  0
  146.2205  139.9356  154.1520 C   0  0  0  0  0  0  0  0  0  0  0  0
  147.0426  140.8163  154.7225 N   0  0  0  0  0  0  0  0  0  0  0  0
  151.0430  141.4257  156.6099 N   0  0  0  0  0  0  0  0  0  0  0  0
  150.9815  141.9984  157.8227 C   0  0  0  0  0  0  0  0  0  0  0  0
  150.0813  141.7742  158.6329 O   0  0  0  0  0  0  0  0  0  0  0  0
  152.0972  142.9968  158.1658 C   0  0  1  0  0  0  0  0  0  0  0  0
  151.5409  144.4299  158.2918 C   0  0  0  0  0  0  0  0  0  0  0  0
  151.6939  144.7553  159.7681 C   0  0  0  0  0  0  0  0  0  0  0  0
  151.2612  145.7904  160.2727 O   0  0  0  0  0  0  0  0  0  0  0  0
  152.3382  143.7762  160.4091 N   0  0  0  0  0  0  0  0  0  0  0  0
  152.6447  143.7477  161.8325 C   0  0  0  0  0  0  0  0  0  0  0  0
  152.7591  142.6995  159.5293 C   0  0  0  0  0  0  0  0  0  0  0  0
  149.9721  138.4182  155.4512 H   0  0  0  0  0  0  0  0  0  0  0  0
  151.0738  138.7359  156.7851 H   0  0  0  0  0  0  0  0  0  0  0  0
  151.5273  139.1858  155.1423 H   0  0  0  0  0  0  0  0  0  0  0  0
  149.2261  140.3789  156.7537 H   0  0  0  0  0  0  0  0  0  0  0  0
  149.2785  142.1374  154.8146 H   0  0  0  0  0  0  0  0  0  0  0  0
  150.2090  140.9528  153.9262 H   0  0  0  0  0  0  0  0  0  0  0  0
  148.9009  138.7759  153.0859 H   0  0  0  0  0  0  0  0  0  0  0  0
  145.1505  139.9942  154.2874 H   0  0  0  0  0  0  0  0  0  0  0  0
  151.8193  141.6720  156.0127 H   0  0  0  0  0  0  0  0  0  0  0  0
  152.8557  142.9651  157.3818 H   0  0  0  0  0  0  0  0  0  0  0  0
  152.1287  145.1332  157.7014 H   0  0  0  0  0  0  0  0  0  0  0  0
  150.4973  144.5252  157.9866 H   0  0  0  0  0  0  0  0  0  0  0  0
  153.1885  144.6458  162.1272 H   0  0  0  0  0  0  0  0  0  0  0  0
  153.2593  142.8832  162.0846 H   0  0  0  0  0  0  0  0  0  0  0  0
  151.7263  143.6931  162.4181 H   0  0  0  0  0  0  0  0  0  0  0  0
  152.4708  141.7318  159.9442 H   0  0  0  0  0  0  0  0  0  0  0  0
  153.8462  142.7086  159.4416 H   0  0  0  0  0  0  0  0  0  0  0  0
  1  2  1  0  0  0  0
  1 19  1  0  0  0  0
  1 20  1  0  0  0  0
  1 21  1  0  0  0  0
  2  3  1  0  0  0  0
  2  9  1  0  0  0  0
  2 22  1  0  0  0  0
  3  4  1  0  0  0  0
  3 23  1  0  0  0  0
  3 24  1  0  0  0  0
  4  8  1  0  0  0  0
  4  5  1  0  0  0  0
  5  6  2  0  0  0  0
  5 25  1  0  0  0  0
  6  7  1  0  0  0  0
  7  8  2  0  0  0  0
  7 26  1  0  0  0  0
  9 10  1  0  0  0  0
  9 27  1  0  0  0  0
 10 11  2  0  0  0  0
 10 12  1  0  0  0  0
 12 18  1  0  0  0  0
 12 13  1  0  0  0  0
 12 28  1  0  0  0  0
 13 14  1  0  0  0  0
 13 29  1  0  0  0  0
 13 30  1  0  0  0  0
 14 15  2  0  0  0  0
 14 16  1  0  0  0  0
 16 17  1  0  0  0  0
 16 18  1  0  0  0  0
 17 31  1  0  0  0  0
 17 32  1  0  0  0  0
 17 33  1  0  0  0  0
 18 34  1  0  0  0  0
 18 35  1  0  0  0  0
M  END
> <s_m_source_file>
AV-unprocessed.smi

> <i_m_source_file_index>
3061

> <i_lp_mmshare_version>
43012

> <i_f3d_flags>
0

> <s_epik_input>
bjFbY0hdbltjSF1uMVtDSDJdW0NAQEhdKFtDSDNdKVtOSF1DKD1PKVtDQEBIXTJbQ0gyXUMoPU8pTihbQ0gzXSlbQ0gyXTI=

> <s_epik_cmdline>
J2VwaWtfcHl0aG9uJywgJy1waCcsICc3LjAnLCAnLXRuJywgJzgnLCAnLW1hJywgJzIwMCcsICctbWV0YWxfYmluZGluZycsICctaW1hZScsICc8aW5maWxlLm1hZT4nLCAnLW9tYWUnLCAnPG91dGZpbGUubWFlPic=

> <r_lp_tautomer_probability>
1

> <r_epik_Ionization_Penalty>
4.97611e-05

> <r_epik_Ionization_Penalty_Charging>
0

> <r_epik_Ionization_Penalty_Neutral>
4.97611e-05

> <r_epik_State_Penalty>
-0

> <r_epik_Charging_Adjusted_Penalty>
0

> <i_epik_Tot_Q>
0

> <i_epik_Tot_abs_Q>
0

> <r_epik_Metal_State_Penalty>
-0

> <b_epik_Metal_Only>
0

> <s_lp_Force_Field>
OPLS_2005

> <r_lp_Energy>
12.1986

> <b_lp_Chiralities_Consistent>
1

> <s_lp_Variant>
AV-unprocessed.smi:3061-3

> <Gold.Version>
5.8.1

> <Gold.Id.Protein>
6NUR|6NUR_protein|mol2

> <Gold.PLP.Fitness>
39.7399

> <Gold.PLP.PLP>
-34.7465

> <Gold.PLP.part.hbond>
-1.9902

> <Gold.PLP.part.metal>
0.0000

> <Gold.PLP.part.buried>
-2.0374

> <Gold.PLP.part.nonpolar>
-31.4953

> <Gold.PLP.part.repulsive>
0.7048

> <Gold.PLP.ligand.clash>
0.0000

> <Gold.PLP.ligand.torsion>
0.6022

> <Gold.PLP.Chemscore.Hbond>
0.0000

> <Gold.PLP.Chemscore.CHOScore>
2.0477

> <Gold.PLP.Chemscore.Metal>
0.0000

> <Gold.Chemscore.Hbonds>
donor molecule, donor type, donor heavy atom, donor atom, acceptor molecule, acceptor atom, score
      L1  C     5    25       P1  7948  0.34
      L1  C     5    25       P1  7957  0.55
      L1  C     7    26       P1 10175  0.85

> <Gold.PLP.Chemscore.Internal.Correction>
0.0549

> <Gold.Rescore>
     Score         DG    S(hbond)    S(metal)    S(lipo)     H(rot)  DE(clash)    DE(int)     intcor
      6.15      -6.76       0.00        0.00      63.91       2.42       0.21       0.40       ----

> <Gold.Chemscore.Fitness>
6.1495

> <Gold.Chemscore.DG>
-6.7636

> <Gold.Chemscore.ZeroCoef>
-5.4800

> <Gold.Chemscore.Hbond>
0.0000

> <Gold.Chemscore.Metal>
0.0000

> <Gold.Chemscore.Lipo>
63.9149

> <Gold.Chemscore.Internal_Hbond>
0.0000

> <Gold.Chemscore.DEClash>
0.2096

> <Gold.Chemscore.DEInternal>
0.4045

> <Gold.Chemscore.Rot>
2.4197

> <Gold.Chemscore.Internal.Correction>
   9.000000E+99

> <Gold.Chemscore.Hbond.Weighted>
-0.0000

> <Gold.Chemscore.Metal.Weighted>
-0.0000

> <Gold.Chemscore.Lipo.Weighted>
-7.4780

> <Gold.Chemscore.Internal_Hbond.Weighted>
0.0000

> <Gold.Chemscore.DEClash.Weighted>
0.2096

> <Gold.Chemscore.DEInternal.Weighted>
0.4045

> <Gold.Chemscore.Rot.Weighted>
6.1945

> <Gold.Chemscore.Internal.Correction.Weighted>
   9.000000E+99

> <Gold.Protein.RotatedTorsions>
[ 6907 6896 6895 6894 ] final -128.25 input  -60.11 | X-H torsion
[ 7974 7965 7964 7962 ] final  -10.24 input  175.53 | X-H torsion
[ 8008 7997 7996 7995 ] final   72.45 input   59.86 | X-H torsion
[ 10167 10162 10161 10158 ] final  -93.85 input  -65.29 | X-H torsion
[ 10718 10713 10712 10709 ] final  153.08 input   66.30 | X-H torsion
[ 10763 10752 10751 10750 ] final  116.08 input  -60.55 | X-H torsion
[ 11005 11000 10999 10996 ] final -161.25 input  -57.11 | X-H torsion

> <Gold.Protein.ActiveResidues>
 VAL166  LYS551  ARG553  GLY616  TRP617  ASP618  TYR619  PRO620  LYS621  CYS622 
 ASP623  PHE694  ASN695  SER759  ASP760  ASP761  ALA762  ILE779  LEU786  VAL792 
 PHE793  MET794  SER795  GLU796  ALA797  LYS798  CYS799  TRP800  GLU811  SER814 

> <Gold.Protein.RotatedAtoms>
  150.9159  133.6940  159.2843 H   0  0  0  0  0  0  0  0  0  0  0  0  # atno 6907 bound_to 6896
  151.4411  135.1019  159.9680 H   0  0  0  0  0  0  0  0  0  0  0  0  # atno 6908 bound_to 6896
  152.4954  133.8567  159.7284 H   0  0  0  0  0  0  0  0  0  0  0  0  # atno 6909 bound_to 6896
  146.2227  140.2735  142.8358 H   0  0  0  0  0  0  0  0  0  0  0  0  # atno 7974 bound_to 7965
  155.7690  140.3485  155.5237 H   0  0  0  0  0  0  0  0  0  0  0  0  # atno 8008 bound_to 7997
  155.8840  140.1007  157.1486 H   0  0  0  0  0  0  0  0  0  0  0  0  # atno 8009 bound_to 7997
  154.4027  140.1317  156.4219 H   0  0  0  0  0  0  0  0  0  0  0  0  # atno 8010 bound_to 7997
  140.3205  143.3052  152.0052 H   0  0  0  0  0  0  0  0  0  0  0  0  # atno 10167 bound_to 10162
  157.2494  131.0775  151.1740 H   0  0  0  0  0  0  0  0  0  0  0  0  # atno 10718 bound_to 10713
  153.5318  135.3576  155.2679 H   0  0  0  0  0  0  0  0  0  0  0  0  # atno 10763 bound_to 10752
  154.8726  135.4070  154.3143 H   0  0  0  0  0  0  0  0  0  0  0  0  # atno 10764 bound_to 10752
  153.3833  135.7069  153.6617 H   0  0  0  0  0  0  0  0  0  0  0  0  # atno 10765 bound_to 10752
  140.6224  134.4736  157.5224 H   0  0  0  0  0  0  0  0  0  0  0  0  # atno 11005 bound_to 11000
  144.9250  140.7911  143.5725 LP  0  0  0  0  0  0  0  0  0  0  0  0  # atno 17320 bound_to 7965
  145.2675  139.1968  143.4859 LP  0  0  0  0  0  0  0  0  0  0  0  0  # atno 17321 bound_to 7965
  139.4875  144.6315  151.7061 LP  0  0  0  0  0  0  0  0  0  0  0  0  # atno 17342 bound_to 10162
  140.5488  144.0459  150.6118 LP  0  0  0  0  0  0  0  0  0  0  0  0  # atno 17343 bound_to 10162
  157.3294  130.6977  149.6315 LP  0  0  0  0  0  0  0  0  0  0  0  0  # atno 17370 bound_to 10713
  155.9667  130.4312  150.4909 LP  0  0  0  0  0  0  0  0  0  0  0  0  # atno 17371 bound_to 10713
  139.9148  134.8269  156.1404 LP  0  0  0  0  0  0  0  0  0  0  0  0  # atno 17394 bound_to 11000
  141.0733  133.6787  156.2184 LP  0  0  0  0  0  0  0  0  0  0  0  0  # atno 17395 bound_to 11000

$$$$
