AV-unprocessed.smi:2424|AV-procd|sdf|9567|dock10
  -GOLD-   2272013203D 1   1.00000     0.00000
 Structure written by MMmdl.
 49 50  0  0  0  0  0  0  0  0  2 V2000
  148.6573  142.0373  157.7198 C   0  0  0  0  0  0  0  0  0  0  0  0
  149.4161  140.7175  157.9334 C   0  0  0  0  0  0  0  0  0  0  0  0
  150.7855  140.6203  157.2102 C   0  0  0  0  0  0  0  0  0  0  0  0
  151.6994  141.7577  157.7299 C   0  0  0  0  0  0  0  0  0  0  0  0
  151.9902  141.7316  159.2400 C   0  0  0  0  0  0  0  0  0  0  0  0
  151.4816  139.2280  157.1622 C   0  0  1  0  0  0  0  0  0  0  0  0
  150.5520  138.1036  157.2885 N   0  0  0  0  0  0  0  0  0  0  0  0
  150.1632  137.5399  158.4391 C   0  0  0  0  0  0  0  0  0  0  0  0
  150.5711  137.9016  159.5426 O   0  0  0  0  0  0  0  0  0  0  0  0
  149.2773  136.5553  158.2080 N   0  0  0  0  0  0  0  0  0  0  0  0
  148.6441  135.7131  159.1305 C   0  0  0  0  0  0  0  0  0  0  0  0
  148.2249  134.4543  158.7505 C   0  0  0  0  0  0  0  0  0  0  0  0
  147.6026  133.5096  159.4883 N   0  5  0  0  0  0  0  0  0  0  0  0
  147.3309  133.7908  160.7949 C   0  0  0  0  0  0  0  0  0  0  0  0
  146.7608  132.9819  161.5262 O   0  0  0  0  0  0  0  0  0  0  0  0
  147.7355  135.1023  161.3402 C   0  0  0  0  0  0  0  0  0  0  0  0
  147.4442  135.4072  162.7996 C   0  0  0  0  0  0  0  0  0  0  0  0
  148.3563  136.0006  160.5355 C   0  0  0  0  0  0  0  0  0  0  0  0
  151.8665  139.4906  155.6962 C   0  0  1  0  0  0  0  0  0  0  0  0
  151.9332  138.3529  154.6793 C   0  0  0  0  0  0  0  0  0  0  0  0
  150.7328  140.5327  155.6600 C   0  0  1  0  0  0  0  0  0  0  0  0
  149.5021  139.9866  155.1971 O   0  0  0  0  0  0  0  0  0  0  0  0
  148.7562  140.8901  154.3995 C   0  0  0  0  0  0  0  0  0  0  0  0
  147.6575  141.9747  158.1499 H   0  0  0  0  0  0  0  0  0  0  0  0
  148.5451  142.2651  156.6596 H   0  0  0  0  0  0  0  0  0  0  0  0
  149.1577  142.8788  158.1976 H   0  0  0  0  0  0  0  0  0  0  0  0
  149.5276  140.5300  159.0008 H   0  0  0  0  0  0  0  0  0  0  0  0
  148.7500  139.9249  157.5935 H   0  0  0  0  0  0  0  0  0  0  0  0
  152.6616  141.7181  157.2197 H   0  0  0  0  0  0  0  0  0  0  0  0
  151.2965  142.7331  157.4593 H   0  0  0  0  0  0  0  0  0  0  0  0
  152.7352  142.4849  159.4967 H   0  0  0  0  0  0  0  0  0  0  0  0
  152.3784  140.7649  159.5598 H   0  0  0  0  0  0  0  0  0  0  0  0
  151.1004  141.9504  159.8296 H   0  0  0  0  0  0  0  0  0  0  0  0
  152.3582  139.1563  157.8075 H   0  0  0  0  0  0  0  0  0  0  0  0
  150.1665  137.7397  156.4292 H   0  0  0  0  0  0  0  0  0  0  0  0
  149.0224  136.3956  157.2443 H   0  0  0  0  0  0  0  0  0  0  0  0
  148.4129  134.1649  157.6939 H   0  0  0  0  0  0  0  0  0  0  0  0
  147.8056  136.3972  163.0792 H   0  0  0  0  0  0  0  0  0  0  0  0
  147.9309  134.6766  163.4462 H   0  0  0  0  0  0  0  0  0  0  0  0
  146.3707  135.3745  162.9885 H   0  0  0  0  0  0  0  0  0  0  0  0
  148.6435  136.9439  160.9704 H   0  0  0  0  0  0  0  0  0  0  0  0
  152.8185  140.0239  155.6913 H   0  0  0  0  0  0  0  0  0  0  0  0
  150.9808  137.8308  154.5852 H   0  0  0  0  0  0  0  0  0  0  0  0
  152.6827  137.6155  154.9670 H   0  0  0  0  0  0  0  0  0  0  0  0
  152.2028  138.7248  153.6910 H   0  0  0  0  0  0  0  0  0  0  0  0
  151.0004  141.4723  155.1725 H   0  0  0  0  0  0  0  0  0  0  0  0
  147.8514  140.3994  154.0416 H   0  0  0  0  0  0  0  0  0  0  0  0
  149.3237  141.2248  153.5311 H   0  0  0  0  0  0  0  0  0  0  0  0
  148.4571  141.7649  154.9782 H   0  0  0  0  0  0  0  0  0  0  0  0
  1  2  1  0  0  0  0
  1 24  1  0  0  0  0
  1 25  1  0  0  0  0
  1 26  1  0  0  0  0
  2  3  1  0  0  0  0
  2 27  1  0  0  0  0
  2 28  1  0  0  0  0
  3 21  1  0  0  0  0
  3  4  1  0  0  0  0
  3  6  1  0  0  0  0
  4  5  1  0  0  0  0
  4 29  1  0  0  0  0
  4 30  1  0  0  0  0
  5 31  1  0  0  0  0
  5 32  1  0  0  0  0
  5 33  1  0  0  0  0
  6  7  1  0  0  0  0
  6 19  1  0  0  0  0
  6 34  1  0  0  0  0
  7  8  1  0  0  0  0
  7 35  1  0  0  0  0
  8  9  2  0  0  0  0
  8 10  1  0  0  0  0
 10 11  1  0  0  0  0
 10 36  1  0  0  0  0
 11 18  1  0  0  0  0
 11 12  2  0  0  0  0
 12 13  1  0  0  0  0
 12 37  1  0  0  0  0
 13 14  1  0  0  0  0
 14 15  2  0  0  0  0
 14 16  1  0  0  0  0
 16 17  1  0  0  0  0
 16 18  2  0  0  0  0
 17 38  1  0  0  0  0
 17 39  1  0  0  0  0
 17 40  1  0  0  0  0
 18 41  1  0  0  0  0
 19 20  1  0  0  0  0
 19 21  1  0  0  0  0
 19 42  1  0  0  0  0
 20 43  1  0  0  0  0
 20 44  1  0  0  0  0
 20 45  1  0  0  0  0
 21 22  1  0  0  0  0
 21 46  1  0  0  0  0
 22 23  1  0  0  0  0
 23 47  1  0  0  0  0
 23 48  1  0  0  0  0
 23 49  1  0  0  0  0
M  CHG  1  13  -1
M  END
> <s_m_source_file>
AV-unprocessed.smi

> <i_m_source_file_index>
2424

> <i_lp_mmshare_version>
43012

> <i_f3d_flags>
0

> <s_epik_input>
W0NIM11PW0NAQEhdMVtDQEhdKFtDSDNdKVtDQEBIXShDMShbQ0gyXVtDSDNdKVtDSDJdW0NIM10pW05IXUMoPU8pW05IXWMyW2NIXVtuSF1jKD1PKWMoW0NIM10pW2NIXTI=

> <s_epik_cmdline>
J2VwaWtfcHl0aG9uJywgJy1waCcsICc3LjAnLCAnLXRuJywgJzgnLCAnLW1hJywgJzIwMCcsICctbWV0YWxfYmluZGluZycsICctaW1hZScsICc8aW5maWxlLm1hZT4nLCAnLW9tYWUnLCAnPG91dGZpbGUubWFlPic=

> <r_lp_tautomer_probability>
1

> <r_epik_Ionization_Penalty>
7.6122

> <r_epik_Ionization_Penalty_Charging>
1.53843

> <r_epik_Ionization_Penalty_Neutral>
6.07377

> <r_epik_State_Penalty>
6.07371

> <r_epik_Charging_Adjusted_Penalty>
7.61214

> <i_epik_Tot_Q>
-1

> <i_epik_Tot_abs_Q>
1

> <r_epik_Metal_State_Penalty>
2.02136

> <b_epik_Metal_Only>
1

> <s_lp_Force_Field>
OPLS_2005

> <r_lp_Energy>
42.7103

> <b_lp_Chiralities_Consistent>
1

> <s_lp_Variant>
AV-unprocessed.smi:2424-9

> <Gold.Version>
5.8.1

> <Gold.Id.Protein>
6NUR|6NUR_protein|mol2

> <Gold.PLP.Fitness>
35.6762

> <Gold.PLP.PLP>
-37.2831

> <Gold.PLP.part.hbond>
-1.0000

> <Gold.PLP.part.metal>
0.0000

> <Gold.PLP.part.buried>
-6.3329

> <Gold.PLP.part.nonpolar>
-30.6379

> <Gold.PLP.part.repulsive>
0.1630

> <Gold.PLP.ligand.clash>
0.0000

> <Gold.PLP.ligand.torsion>
1.1193

> <Gold.PLP.Chemscore.Hbond>
0.0000

> <Gold.PLP.Chemscore.CHOScore>
0.0000

> <Gold.PLP.Chemscore.Metal>
0.0000

> <Gold.PLP.Chemscore.Internal.Correction>
0.6318

> <Gold.Rescore>
     Score         DG    S(hbond)    S(metal)    S(lipo)     H(rot)  DE(clash)    DE(int)     intcor
     11.47     -12.88       0.00        0.00      96.55       1.52       0.29       1.12       ----

> <Gold.Chemscore.Fitness>
11.4747

> <Gold.Chemscore.DG>
-12.8838

> <Gold.Chemscore.ZeroCoef>
-5.4800

> <Gold.Chemscore.Hbond>
0.0000

> <Gold.Chemscore.Metal>
0.0000

> <Gold.Chemscore.Lipo>
96.5471

> <Gold.Chemscore.Internal_Hbond>
0.0000

> <Gold.Chemscore.DEClash>
0.2906

> <Gold.Chemscore.DEInternal>
1.1185

> <Gold.Chemscore.Rot>
1.5204

> <Gold.Chemscore.Internal.Correction>
   9.000000E+99

> <Gold.Chemscore.Hbond.Weighted>
-0.0000

> <Gold.Chemscore.Metal.Weighted>
-0.0000

> <Gold.Chemscore.Lipo.Weighted>
-11.2960

> <Gold.Chemscore.Internal_Hbond.Weighted>
0.0000

> <Gold.Chemscore.DEClash.Weighted>
0.2906

> <Gold.Chemscore.DEInternal.Weighted>
1.1185

> <Gold.Chemscore.Rot.Weighted>
3.8922

> <Gold.Chemscore.Internal.Correction.Weighted>
   9.000000E+99

> <Gold.Protein.RotatedTorsions>
[ 6907 6896 6895 6894 ] final -107.83 input  -60.11 | X-H torsion
[ 7974 7965 7964 7962 ] final -154.31 input  175.53 | X-H torsion
[ 8008 7997 7996 7995 ] final -154.22 input   59.86 | X-H torsion
[ 10167 10162 10161 10158 ] final  -36.38 input  -65.29 | X-H torsion
[ 10718 10713 10712 10709 ] final  -46.17 input   66.30 | X-H torsion
[ 10763 10752 10751 10750 ] final  105.58 input  -60.55 | X-H torsion
[ 11005 11000 10999 10996 ] final   56.71 input  -57.11 | X-H torsion

> <Gold.Protein.ActiveResidues>
 VAL166  LYS551  ARG553  GLY616  TRP617  ASP618  TYR619  PRO620  LYS621  CYS622 
 ASP623  PHE694  ASN695  SER759  ASP760  ASP761  ALA762  ILE779  LEU786  VAL792 
 PHE793  MET794  SER795  GLU796  ALA797  LYS798  CYS799  TRP800  GLU811  SER814 

> <Gold.Protein.RotatedAtoms>
  150.7466  133.9768  159.3563 H   0  0  0  0  0  0  0  0  0  0  0  0  # atno 6907 bound_to 6896
  151.7706  135.0785  160.0368 H   0  0  0  0  0  0  0  0  0  0  0  0  # atno 6908 bound_to 6896
  152.3342  133.5955  159.5866 H   0  0  0  0  0  0  0  0  0  0  0  0  # atno 6909 bound_to 6896
  144.7696  140.4405  143.5917 H   0  0  0  0  0  0  0  0  0  0  0  0  # atno 7974 bound_to 7965
  155.6830  140.0746  157.2477 H   0  0  0  0  0  0  0  0  0  0  0  0  # atno 8008 bound_to 7997
  154.4102  140.1678  156.2055 H   0  0  0  0  0  0  0  0  0  0  0  0  # atno 8009 bound_to 7997
  155.9518  140.3377  155.6417 H   0  0  0  0  0  0  0  0  0  0  0  0  # atno 8010 bound_to 7997
  140.7144  143.3413  151.2352 H   0  0  0  0  0  0  0  0  0  0  0  0  # atno 10167 bound_to 10162
  156.2210  130.4166  149.8993 H   0  0  0  0  0  0  0  0  0  0  0  0  # atno 10718 bound_to 10713
  153.3813  135.3905  155.1859 H   0  0  0  0  0  0  0  0  0  0  0  0  # atno 10763 bound_to 10752
  154.8708  135.3726  154.4853 H   0  0  0  0  0  0  0  0  0  0  0  0  # atno 10764 bound_to 10752
  153.5331  135.7085  153.5735 H   0  0  0  0  0  0  0  0  0  0  0  0  # atno 10765 bound_to 10752
  140.0508  134.5739  155.9266 H   0  0  0  0  0  0  0  0  0  0  0  0  # atno 11005 bound_to 11000
  145.6365  139.1543  143.2940 LP  0  0  0  0  0  0  0  0  0  0  0  0  # atno 17320 bound_to 7965
  146.1831  140.6465  142.9180 LP  0  0  0  0  0  0  0  0  0  0  0  0  # atno 17321 bound_to 7965
  139.6921  143.9675  152.2864 LP  0  0  0  0  0  0  0  0  0  0  0  0  # atno 17342 bound_to 10162
  139.9340  144.6724  150.8334 LP  0  0  0  0  0  0  0  0  0  0  0  0  # atno 17343 bound_to 10162
  156.6640  130.8793  151.3552 LP  0  0  0  0  0  0  0  0  0  0  0  0  # atno 17370 bound_to 10713
  157.7087  130.9415  150.1016 LP  0  0  0  0  0  0  0  0  0  0  0  0  # atno 17371 bound_to 10713
  141.1929  133.6577  156.5525 LP  0  0  0  0  0  0  0  0  0  0  0  0  # atno 17394 bound_to 11000
  140.3920  134.7432  157.4727 LP  0  0  0  0  0  0  0  0  0  0  0  0  # atno 17395 bound_to 11000

$$$$
