AV-unprocessed.smi:2023|AV-procd|sdf|8190|dock1
  -GOLD-   2272010443D 1   1.00000     0.00000
 Structure written by MMmdl.
 34 35  0  0  0  0  0  0  0  0  2 V2000
  153.4041  136.8288  157.0216 O   0  0  0  0  0  0  0  0  0  0  0  0
  152.4429  137.5657  157.8582 S   0  0  0  0  0  0  0  0  0  0  0  0
  151.6327  136.7938  158.8149 O   0  0  0  0  0  0  0  0  0  0  0  0
  153.0421  138.9273  158.4986 N   0  5  0  0  0  0  0  0  0  0  0  0
  152.7874  139.2263  159.8966 C   0  0  0  0  0  0  0  0  0  0  0  0
  153.3034  140.6402  160.2421 C   0  0  0  0  0  0  0  0  0  0  0  0
  152.6399  141.7703  159.4614 C   0  0  0  0  0  0  0  0  0  0  0  0
  153.1233  143.0942  159.5455 C   0  0  0  0  0  0  0  0  0  0  0  0
  152.4850  144.1017  158.7973 C   0  0  0  0  0  0  0  0  0  0  0  0
  151.3875  143.7430  157.9900 C   0  0  0  0  0  0  0  0  0  0  0  0
  150.9182  142.4809  157.8931 N   0  0  0  0  0  0  0  0  0  0  0  0
  151.5350  141.5207  158.6158 C   0  0  0  0  0  0  0  0  0  0  0  0
  151.3252  138.3102  156.7562 N   0  0  0  0  0  0  0  0  0  0  0  0
  151.8979  138.9481  155.5586 C   0  0  0  0  0  0  0  0  0  0  0  0
  150.7989  139.3392  154.5575 C   0  0  0  0  0  0  0  0  0  0  0  0
  149.8231  140.1513  155.1912 O   0  0  0  0  0  0  0  0  0  0  0  0
  149.1763  139.4511  156.2423 C   0  0  0  0  0  0  0  0  0  0  0  0
  150.1940  139.0691  157.3283 C   0  0  0  0  0  0  0  0  0  0  0  0
  151.7268  139.1608  160.1413 H   0  0  0  0  0  0  0  0  0  0  0  0
  153.2874  138.5090  160.5477 H   0  0  0  0  0  0  0  0  0  0  0  0
  153.1450  140.8244  161.3052 H   0  0  0  0  0  0  0  0  0  0  0  0
  154.3828  140.6897  160.0914 H   0  0  0  0  0  0  0  0  0  0  0  0
  153.9683  143.3341  160.1740 H   0  0  0  0  0  0  0  0  0  0  0  0
  152.8284  145.1244  158.8415 H   0  0  0  0  0  0  0  0  0  0  0  0
  150.8749  144.4906  157.4030 H   0  0  0  0  0  0  0  0  0  0  0  0
  151.1342  140.5225  158.5169 H   0  0  0  0  0  0  0  0  0  0  0  0
  152.4602  139.8307  155.8657 H   0  0  0  0  0  0  0  0  0  0  0  0
  152.6022  138.2703  155.0770 H   0  0  0  0  0  0  0  0  0  0  0  0
  151.2329  139.8938  153.7256 H   0  0  0  0  0  0  0  0  0  0  0  0
  150.3286  138.4506  154.1334 H   0  0  0  0  0  0  0  0  0  0  0  0
  148.4011  140.0891  156.6667 H   0  0  0  0  0  0  0  0  0  0  0  0
  148.6758  138.5635  155.8517 H   0  0  0  0  0  0  0  0  0  0  0  0
  149.6932  138.4871  158.1009 H   0  0  0  0  0  0  0  0  0  0  0  0
  150.5815  139.9675  157.8096 H   0  0  0  0  0  0  0  0  0  0  0  0
  1  2  2  0  0  0  0
  2  3  2  0  0  0  0
  2  4  1  0  0  0  0
  2 13  1  0  0  0  0
  4  5  1  0  0  0  0
  5  6  1  0  0  0  0
  5 19  1  0  0  0  0
  5 20  1  0  0  0  0
  6  7  1  0  0  0  0
  6 21  1  0  0  0  0
  6 22  1  0  0  0  0
  7 12  1  0  0  0  0
  7  8  2  0  0  0  0
  8  9  1  0  0  0  0
  8 23  1  0  0  0  0
  9 10  2  0  0  0  0
  9 24  1  0  0  0  0
 10 11  1  0  0  0  0
 10 25  1  0  0  0  0
 11 12  2  0  0  0  0
 12 26  1  0  0  0  0
 13 18  1  0  0  0  0
 13 14  1  0  0  0  0
 14 15  1  0  0  0  0
 14 27  1  0  0  0  0
 14 28  1  0  0  0  0
 15 16  1  0  0  0  0
 15 29  1  0  0  0  0
 15 30  1  0  0  0  0
 16 17  1  0  0  0  0
 17 18  1  0  0  0  0
 17 31  1  0  0  0  0
 17 32  1  0  0  0  0
 18 33  1  0  0  0  0
 18 34  1  0  0  0  0
M  CHG  1   4  -1
M  END
> <s_m_source_file>
AV-unprocessed.smi

> <i_m_source_file_index>
2023

> <i_lp_mmshare_version>
43012

> <i_f3d_flags>
0

> <s_epik_input>
W0NIMl0xW0NIMl1PW0NIMl1bQ0gyXU4xUyg9TykoPU8pW05IXVtDSDJdW0NIMl1jMltjSF1bY0hdW2NIXW5bY0hdMg==

> <s_epik_cmdline>
J2VwaWtfcHl0aG9uJywgJy1waCcsICc3LjAnLCAnLXRuJywgJzgnLCAnLW1hJywgJzIwMCcsICctbWV0YWxfYmluZGluZycsICctaW1hZScsICc8aW5maWxlLm1hZT4nLCAnLW9tYWUnLCAnPG91dGZpbGUubWFlPic=

> <r_epik_Ionization_Penalty>
1.23471

> <r_epik_Ionization_Penalty_Charging>
1.20871

> <r_epik_Ionization_Penalty_Neutral>
0.025996

> <r_epik_State_Penalty>
1.46261

> <r_epik_Charging_Adjusted_Penalty>
2.67132

> <i_epik_Tot_Q>
-1

> <i_epik_Tot_abs_Q>
1

> <r_epik_Metal_State_Penalty>
0.521406

> <b_epik_Metal_Only>
0

> <s_lp_Force_Field>
OPLS_2005

> <r_lp_Energy>
4.19534

> <b_lp_Chiralities_Consistent>
1

> <s_lp_Variant>
AV-unprocessed.smi:2023-2

> <Gold.Version>
5.8.1

> <Gold.Id.Protein>
6NUR|6NUR_protein|mol2

> <Gold.PLP.Fitness>
44.6728

> <Gold.PLP.PLP>
-31.3214

> <Gold.PLP.part.hbond>
-3.0000

> <Gold.PLP.part.metal>
0.0000

> <Gold.PLP.part.buried>
-4.3105

> <Gold.PLP.part.nonpolar>
-25.3492

> <Gold.PLP.part.repulsive>
0.1080

> <Gold.PLP.ligand.clash>
0.0000

> <Gold.PLP.ligand.torsion>
0.8837

> <Gold.PLP.Chemscore.Hbond>
3.5135

> <Gold.PLP.Chemscore.CHOScore>
1.0000

> <Gold.PLP.Chemscore.Metal>
0.0000

> <Gold.Chemscore.Hbonds>
donor molecule, donor type, donor heavy atom, donor atom, acceptor molecule, acceptor atom, score
      P1  H  6896  6909       L1     3  0.72
      P1  H 10752 10763       L1     1  0.50
      L1  C    10    25       P1  8028  0.78

> <Gold.PLP.Chemscore.Internal.Correction>
1.5785

> <Gold.Rescore>
     Score         DG    S(hbond)    S(metal)    S(lipo)     H(rot)  DE(clash)    DE(int)     intcor
     18.94     -20.16       2.38        0.00      91.78       1.56       0.02       1.20       ----

> <Gold.Chemscore.Fitness>
18.9442

> <Gold.Chemscore.DG>
-20.1648

> <Gold.Chemscore.ZeroCoef>
-5.4800

> <Gold.Chemscore.Hbond>
2.3796

> <Gold.Chemscore.Metal>
0.0000

> <Gold.Chemscore.Lipo>
91.7801

> <Gold.Chemscore.Internal_Hbond>
0.0000

> <Gold.Chemscore.DEClash>
0.0234

> <Gold.Chemscore.DEInternal>
1.1972

> <Gold.Chemscore.Rot>
1.5630

> <Gold.Chemscore.Internal.Correction>
   9.000000E+99

> <Gold.Chemscore.Hbonds>
donor molecule, donor type, donor heavy atom, donor atom, acceptor molecule, acceptor atom, score
      P1  H  6896  6909       L1     3  0.67
      P1  H  7997  8010       L1     4  0.06
      P1  H 10752 10763       L1     1  0.48

> <Gold.Chemscore.Hbond.Weighted>
-7.9478

> <Gold.Chemscore.Metal.Weighted>
-0.0000

> <Gold.Chemscore.Lipo.Weighted>
-10.7383

> <Gold.Chemscore.Internal_Hbond.Weighted>
0.0000

> <Gold.Chemscore.DEClash.Weighted>
0.0234

> <Gold.Chemscore.DEInternal.Weighted>
1.1972

> <Gold.Chemscore.Rot.Weighted>
4.0013

> <Gold.Chemscore.Internal.Correction.Weighted>
   9.000000E+99

> <Gold.Protein.RotatedTorsions>
[ 6907 6896 6895 6894 ] final  132.28 input  -60.11 | X-H torsion
[ 7974 7965 7964 7962 ] final   44.78 input  175.53 | X-H torsion
[ 8008 7997 7996 7995 ] final   19.19 input   59.86 | X-H torsion
[ 10167 10162 10161 10158 ] final -124.60 input  -65.29 | X-H torsion
[ 10718 10713 10712 10709 ] final   64.14 input   66.30 | X-H torsion
[ 10763 10752 10751 10750 ] final  129.59 input  -60.55 | X-H torsion
[ 11005 11000 10999 10996 ] final  -98.99 input  -57.11 | X-H torsion

> <Gold.Protein.ActiveResidues>
 VAL166  LYS551  ARG553  GLY616  TRP617  ASP618  TYR619  PRO620  LYS621  CYS622 
 ASP623  PHE694  ASN695  SER759  ASP760  ASP761  ALA762  ILE779  LEU786  VAL792 
 PHE793  MET794  SER795  GLU796  ALA797  LYS798  CYS799  TRP800  GLU811  SER814 

> <Gold.Protein.RotatedAtoms>
  152.3340  133.5991  159.5829 H   0  0  0  0  0  0  0  0  0  0  0  0  # atno 6907 bound_to 6896
  150.7439  133.9824  159.3589 H   0  0  0  0  0  0  0  0  0  0  0  0  # atno 6908 bound_to 6896
  151.7696  135.0790  160.0409 H   0  0  0  0  0  0  0  0  0  0  0  0  # atno 6909 bound_to 6896
  146.0539  139.5037  142.9701 H   0  0  0  0  0  0  0  0  0  0  0  0  # atno 7974 bound_to 7965
  154.9170  140.3022  155.5236 H   0  0  0  0  0  0  0  0  0  0  0  0  # atno 8008 bound_to 7997
  156.3012  140.2378  156.4152 H   0  0  0  0  0  0  0  0  0  0  0  0  # atno 8009 bound_to 7997
  154.8368  140.0415  157.1503 H   0  0  0  0  0  0  0  0  0  0  0  0  # atno 8010 bound_to 7997
  139.9910  143.5641  152.2342 H   0  0  0  0  0  0  0  0  0  0  0  0  # atno 10167 bound_to 10162
  157.6020  130.9144  149.9807 H   0  0  0  0  0  0  0  0  0  0  0  0  # atno 10718 bound_to 10713
  153.7443  135.3219  155.3310 H   0  0  0  0  0  0  0  0  0  0  0  0  # atno 10763 bound_to 10752
  154.8284  135.4552  154.0995 H   0  0  0  0  0  0  0  0  0  0  0  0  # atno 10764 bound_to 10752
  153.2179  135.6944  153.8117 H   0  0  0  0  0  0  0  0  0  0  0  0  # atno 10765 bound_to 10752
  141.1325  133.8287  157.0913 H   0  0  0  0  0  0  0  0  0  0  0  0  # atno 11005 bound_to 11000
  145.6678  141.0224  143.1674 LP  0  0  0  0  0  0  0  0  0  0  0  0  # atno 17320 bound_to 7965
  144.7137  139.8275  143.7406 LP  0  0  0  0  0  0  0  0  0  0  0  0  # atno 17321 bound_to 7965
  139.6340  144.7648  151.2477 LP  0  0  0  0  0  0  0  0  0  0  0  0  # atno 17342 bound_to 10162
  140.7455  143.6430  150.8317 LP  0  0  0  0  0  0  0  0  0  0  0  0  # atno 17343 bound_to 10162
  156.1095  130.3651  150.0074 LP  0  0  0  0  0  0  0  0  0  0  0  0  # atno 17370 bound_to 10713
  156.8175  130.9347  151.3642 LP  0  0  0  0  0  0  0  0  0  0  0  0  # atno 17371 bound_to 10713
  140.0390  134.9863  157.0927 LP  0  0  0  0  0  0  0  0  0  0  0  0  # atno 17394 bound_to 11000
  140.4164  134.1927  155.7163 LP  0  0  0  0  0  0  0  0  0  0  0  0  # atno 17395 bound_to 11000

$$$$
