AV-unprocessed.smi:1406|AV-procd|sdf|5717|dock5
  -GOLD-   22720 5353D 1   1.00000     0.00000
 Structure written by MMmdl.
 41 43  0  0  0  0  0  0  0  0  2 V2000
  150.2469  137.9705  158.4520 C   0  0  0  0  0  0  0  0  0  0  0  0
  149.3975  137.6710  157.2000 C   0  0  2  0  0  0  0  0  0  0  0  0
  149.2181  136.1657  156.9456 C   0  0  0  0  0  0  0  0  0  0  0  0
  149.5508  135.3379  157.7944 O   0  0  0  0  0  0  0  0  0  0  0  0
  148.6775  135.8229  155.7650 N   0  0  0  0  0  0  0  0  0  0  0  0
  148.4510  134.4539  155.3059 C   0  0  2  0  0  0  0  0  0  0  0  0
  149.6842  133.8392  154.6174 C   0  0  0  0  0  0  0  0  0  0  0  0
  149.1119  133.0443  153.4392 C   0  0  0  0  0  0  0  0  0  0  0  0
  147.9480  133.8442  153.0405 N   0  3  1  0  0  0  0  0  0  0  0  0
  146.9896  133.2687  152.0758 C   0  0  0  0  0  0  0  0  0  0  0  0
  145.9795  134.3672  151.6799 C   0  0  0  0  0  0  0  0  0  0  0  0
  145.3268  135.0354  152.9119 C   0  0  0  0  0  0  0  0  0  0  0  0
  146.3802  135.4963  153.9428 C   0  0  0  0  0  0  0  0  0  0  0  0
  147.3014  134.3100  154.2795 C   0  0  2  0  0  0  0  0  0  0  0  0
  149.9261  138.3264  156.0101 N   0  0  0  0  0  0  0  0  0  0  0  0
  150.9925  139.1165  155.8676 C   0  0  0  0  0  0  0  0  0  0  0  0
  151.1589  139.5801  154.6371 N   0  0  0  0  0  0  0  0  0  0  0  0
  150.0803  139.0039  154.0283 C   0  0  0  0  0  0  0  0  0  0  0  0
  149.3032  138.2518  154.8073 N   0  0  0  0  0  0  0  0  0  0  0  0
  149.8063  137.5213  159.3426 H   0  0  0  0  0  0  0  0  0  0  0  0
  150.3129  139.0445  158.6280 H   0  0  0  0  0  0  0  0  0  0  0  0
  151.2648  137.5892  158.3587 H   0  0  0  0  0  0  0  0  0  0  0  0
  148.4043  138.0865  157.3792 H   0  0  0  0  0  0  0  0  0  0  0  0
  148.4307  136.5654  155.1267 H   0  0  0  0  0  0  0  0  0  0  0  0
  148.2135  133.8312  156.1711 H   0  0  0  0  0  0  0  0  0  0  0  0
  150.3365  134.6262  154.2353 H   0  0  0  0  0  0  0  0  0  0  0  0
  150.2769  133.2189  155.2906 H   0  0  0  0  0  0  0  0  0  0  0  0
  149.8258  132.9257  152.6238 H   0  0  0  0  0  0  0  0  0  0  0  0
  148.7863  132.0548  153.7640 H   0  0  0  0  0  0  0  0  0  0  0  0
  147.5226  132.9125  151.1937 H   0  0  0  0  0  0  0  0  0  0  0  0
  146.4808  132.4101  152.5168 H   0  0  0  0  0  0  0  0  0  0  0  0
  146.4940  135.1305  151.0946 H   0  0  0  0  0  0  0  0  0  0  0  0
  145.2102  133.9506  151.0291 H   0  0  0  0  0  0  0  0  0  0  0  0
  144.7139  135.8814  152.5992 H   0  0  0  0  0  0  0  0  0  0  0  0
  144.6482  134.3248  153.3856 H   0  0  0  0  0  0  0  0  0  0  0  0
  146.9606  136.3278  153.5403 H   0  0  0  0  0  0  0  0  0  0  0  0
  145.8789  135.8612  154.8396 H   0  0  0  0  0  0  0  0  0  0  0  0
  146.6714  133.4958  154.6450 H   0  0  0  0  0  0  0  0  0  0  0  0
  151.6591  139.3610  156.6817 H   0  0  0  0  0  0  0  0  0  0  0  0
  149.8576  139.1479  152.9813 H   0  0  0  0  0  0  0  0  0  0  0  0
  148.3308  134.6695  152.6018 H   0  0  0  0  0  0  0  0  0  0  0  0
  1  2  1  0  0  0  0
  1 20  1  0  0  0  0
  1 21  1  0  0  0  0
  1 22  1  0  0  0  0
  2  3  1  0  0  0  0
  2 15  1  0  0  0  0
  2 23  1  0  0  0  0
  3  4  2  0  0  0  0
  3  5  1  0  0  0  0
  5  6  1  0  0  0  0
  5 24  1  0  0  0  0
  6 14  1  0  0  0  0
  6  7  1  0  0  0  0
  6 25  1  0  0  0  0
  7  8  1  0  0  0  0
  7 26  1  0  0  0  0
  7 27  1  0  0  0  0
  8  9  1  0  0  0  0
  8 28  1  0  0  0  0
  8 29  1  0  0  0  0
  9 14  1  0  0  0  0
  9 10  1  0  0  0  0
  9 41  1  0  0  0  0
 10 11  1  0  0  0  0
 10 30  1  0  0  0  0
 10 31  1  0  0  0  0
 11 12  1  0  0  0  0
 11 32  1  0  0  0  0
 11 33  1  0  0  0  0
 12 13  1  0  0  0  0
 12 34  1  0  0  0  0
 12 35  1  0  0  0  0
 13 14  1  0  0  0  0
 13 36  1  0  0  0  0
 13 37  1  0  0  0  0
 14 38  1  0  0  0  0
 15 19  1  0  0  0  0
 15 16  1  0  0  0  0
 16 17  2  0  0  0  0
 16 39  1  0  0  0  0
 17 18  1  0  0  0  0
 18 19  2  0  0  0  0
 18 40  1  0  0  0  0
M  CHG  1   9   1
M  END
> <s_m_source_file>
AV-unprocessed.smi

> <i_m_source_file_index>
1406

> <i_lp_mmshare_version>
43012

> <i_f3d_flags>
0

> <s_epik_input>
bjFbY0hdbltjSF1uMVtDQEhdKFtDSDNdKUMoPU8pW05IXVtDQEhdKFtDSDJdW0NIMl0yKVtDQEBIXShOMjMpW0NIMl1bQ0gyXVtDSDJdW0NIMl0z

> <s_epik_cmdline>
J2VwaWtfcHl0aG9uJywgJy1waCcsICc3LjAnLCAnLXRuJywgJzgnLCAnLW1hJywgJzIwMCcsICctbWV0YWxfYmluZGluZycsICctaW1hZScsICc8aW5maWxlLm1hZT4nLCAnLW9tYWUnLCAnPG91dGZpbGUubWFlPic=

> <r_lp_tautomer_probability>
1

> <r_epik_Ionization_Penalty>
0.00197066

> <r_epik_Ionization_Penalty_Charging>
0.00196223

> <r_epik_Ionization_Penalty_Neutral>
8.43107e-06

> <r_epik_State_Penalty>
0.00133866

> <r_epik_Charging_Adjusted_Penalty>
0.00330089

> <i_epik_Tot_Q>
1

> <i_epik_Tot_abs_Q>
1

> <r_epik_Metal_State_Penalty>
-0

> <b_epik_Metal_Only>
0

> <s_lp_Force_Field>
OPLS_2005

> <r_lp_Energy>
47.4686

> <b_lp_Chiralities_Consistent>
1

> <s_lp_Variant>
AV-unprocessed.smi:1406-9

> <Gold.Version>
5.8.1

> <Gold.Id.Protein>
6NUR|6NUR_protein|mol2

> <Gold.PLP.Fitness>
36.6334

> <Gold.PLP.PLP>
-23.1471

> <Gold.PLP.part.hbond>
-3.0000

> <Gold.PLP.part.metal>
0.0000

> <Gold.PLP.part.buried>
-4.1246

> <Gold.PLP.part.nonpolar>
-16.2280

> <Gold.PLP.part.repulsive>
0.2187

> <Gold.PLP.ligand.clash>
0.0000

> <Gold.PLP.ligand.torsion>
0.7211

> <Gold.PLP.Chemscore.Hbond>
3.9440

> <Gold.PLP.Chemscore.CHOScore>
1.0000

> <Gold.PLP.Chemscore.Metal>
0.0000

> <Gold.Chemscore.Hbonds>
donor molecule, donor type, donor heavy atom, donor atom, acceptor molecule, acceptor atom, score
      L1  H     9    41       P1  7948  2.00
      P1  H  6896  6908       L1     4  0.57
      P1  H  7989  7998       L1    17  1.00
      L1  C    18    40       P1  7957  1.00

> <Gold.PLP.Chemscore.Internal.Correction>
0.0966

> <Gold.Rescore>
     Score         DG    S(hbond)    S(metal)    S(lipo)     H(rot)  DE(clash)    DE(int)     intcor
     11.12     -13.46       2.58        0.00      35.77       1.89       0.00       2.33       ----

> <Gold.Chemscore.Fitness>
11.1235

> <Gold.Chemscore.DG>
-13.4580

> <Gold.Chemscore.ZeroCoef>
-5.4800

> <Gold.Chemscore.Hbond>
2.5815

> <Gold.Chemscore.Metal>
0.0000

> <Gold.Chemscore.Lipo>
35.7709

> <Gold.Chemscore.Internal_Hbond>
0.0000

> <Gold.Chemscore.DEClash>
0.0038

> <Gold.Chemscore.DEInternal>
2.3307

> <Gold.Chemscore.Rot>
1.8865

> <Gold.Chemscore.Internal.Correction>
   9.000000E+99

> <Gold.Chemscore.Hbonds>
donor molecule, donor type, donor heavy atom, donor atom, acceptor molecule, acceptor atom, score
      L1  H     9    41       P1  7948  0.30
      P1  H  6896  6908       L1     4  0.54
      P1  H  7989  7998       L1    17  0.40

> <Gold.Chemscore.Hbond.Weighted>
-8.6223

> <Gold.Chemscore.Metal.Weighted>
-0.0000

> <Gold.Chemscore.Lipo.Weighted>
-4.1852

> <Gold.Chemscore.Internal_Hbond.Weighted>
0.0000

> <Gold.Chemscore.DEClash.Weighted>
0.0038

> <Gold.Chemscore.DEInternal.Weighted>
2.3307

> <Gold.Chemscore.Rot.Weighted>
4.8295

> <Gold.Chemscore.Internal.Correction.Weighted>
   9.000000E+99

> <Gold.Protein.RotatedTorsions>
[ 6907 6896 6895 6894 ] final  154.76 input  -60.11 | X-H torsion
[ 7974 7965 7964 7962 ] final  -12.25 input  175.53 | X-H torsion
[ 8008 7997 7996 7995 ] final   -9.55 input   59.86 | X-H torsion
[ 10167 10162 10161 10158 ] final -137.04 input  -65.29 | X-H torsion
[ 10718 10713 10712 10709 ] final  118.00 input   66.30 | X-H torsion
[ 10763 10752 10751 10750 ] final  174.76 input  -60.55 | X-H torsion
[ 11005 11000 10999 10996 ] final -112.14 input  -57.11 | X-H torsion

> <Gold.Protein.ActiveResidues>
 VAL166  LYS551  ARG553  GLY616  TRP617  ASP618  TYR619  PRO620  LYS621  CYS622 
 ASP623  PHE694  ASN695  SER759  ASP760  ASP761  ALA762  ILE779  LEU786  VAL792 
 PHE793  MET794  SER795  GLU796  ALA797  LYS798  CYS799  TRP800  GLU811  SER814 

> <Gold.Protein.RotatedAtoms>
  152.0538  133.4031  159.4388 H   0  0  0  0  0  0  0  0  0  0  0  0  # atno 6907 bound_to 6896
  150.6869  134.3277  159.4823 H   0  0  0  0  0  0  0  0  0  0  0  0  # atno 6908 bound_to 6896
  152.1090  134.9287  160.0618 H   0  0  0  0  0  0  0  0  0  0  0  0  # atno 6909 bound_to 6896
  146.2158  140.3031  142.8376 H   0  0  0  0  0  0  0  0  0  0  0  0  # atno 7974 bound_to 7965
  154.5636  140.2352  155.8298 H   0  0  0  0  0  0  0  0  0  0  0  0  # atno 8008 bound_to 7997
  156.2050  140.3042  155.9566 H   0  0  0  0  0  0  0  0  0  0  0  0  # atno 8009 bound_to 7997
  155.2843  140.0424  157.3008 H   0  0  0  0  0  0  0  0  0  0  0  0  # atno 8010 bound_to 7997
  139.8618  143.7068  152.2649 H   0  0  0  0  0  0  0  0  0  0  0  0  # atno 10167 bound_to 10162
  157.6060  131.1043  150.7694 H   0  0  0  0  0  0  0  0  0  0  0  0  # atno 10718 bound_to 10713
  154.4584  135.2767  155.1731 H   0  0  0  0  0  0  0  0  0  0  0  0  # atno 10763 bound_to 10752
  154.3529  135.6146  153.5655 H   0  0  0  0  0  0  0  0  0  0  0  0  # atno 10764 bound_to 10752
  152.9852  135.5815  154.4942 H   0  0  0  0  0  0  0  0  0  0  0  0  # atno 10765 bound_to 10752
  141.0693  133.9407  157.2517 H   0  0  0  0  0  0  0  0  0  0  0  0  # atno 11005 bound_to 11000
  144.9043  140.7680  143.5847 LP  0  0  0  0  0  0  0  0  0  0  0  0  # atno 17320 bound_to 7965
  145.2958  139.1867  143.4716 LP  0  0  0  0  0  0  0  0  0  0  0  0  # atno 17321 bound_to 7965
  139.7367  144.7569  151.0717 LP  0  0  0  0  0  0  0  0  0  0  0  0  # atno 17342 bound_to 10162
  140.7774  143.5022  150.9757 LP  0  0  0  0  0  0  0  0  0  0  0  0  # atno 17343 bound_to 10162
  156.8082  130.4943  149.5359 LP  0  0  0  0  0  0  0  0  0  0  0  0  # atno 17370 bound_to 10713
  156.1146  130.6065  151.0100 LP  0  0  0  0  0  0  0  0  0  0  0  0  # atno 17371 bound_to 10713
  139.9507  135.0176  156.8986 LP  0  0  0  0  0  0  0  0  0  0  0  0  # atno 17394 bound_to 11000
  140.5707  134.0446  155.7429 LP  0  0  0  0  0  0  0  0  0  0  0  0  # atno 17395 bound_to 11000

$$$$
