AV-unprocessed.smi:79|AV-procd|sdf|782|dock1
  -GOLD-   2262017143D 1   1.00000     0.00000
 Structure written by MMmdl.
 56 59  0  0  0  0  0  0  0  0  2 V2000
  152.6655  144.2270  159.0228 C   0  0  0  0  0  0  0  0  0  0  0  0
  151.2539  143.8090  158.5922 C   0  0  1  0  0  0  0  0  0  0  0  0
  150.5787  144.9566  158.1185 O   0  0  0  0  0  0  0  0  0  0  0  0
  151.2792  142.7427  157.4795 C   0  0  0  0  0  0  0  0  0  0  0  0
  149.9184  142.3688  157.0155 N   0  3  2  0  0  0  0  0  0  0  0  0
  149.0687  141.7830  158.0878 C   0  0  0  0  0  0  0  0  0  0  0  0
  147.6536  141.4640  157.5700 C   0  0  0  0  0  0  0  0  0  0  0  0
  147.7130  140.6067  156.3907 N   0  0  0  0  0  0  0  0  0  0  0  0
  147.7716  139.2865  156.7043 C   0  0  0  0  0  0  0  0  0  0  0  0
  148.6469  138.4605  156.0731 N   0  0  0  0  0  0  0  0  0  0  0  0
  148.7164  137.1688  156.4087 C   0  0  0  0  0  0  0  0  0  0  0  0
  148.0209  136.5102  157.3376 N   0  0  0  0  0  0  0  0  0  0  0  0
  147.1473  137.3366  157.9807 C   0  0  0  0  0  0  0  0  0  0  0  0
  146.9630  138.7248  157.7297 C   0  0  0  0  0  0  0  0  0  0  0  0
  145.9920  139.2371  158.5805 N   0  0  0  0  0  0  0  0  0  0  0  0
  145.6218  138.2090  159.2947 C   0  0  0  0  0  0  0  0  0  0  0  0
  146.2588  137.0250  158.9956 N   0  0  0  0  0  0  0  0  0  0  0  0
  146.0465  135.7336  159.6317 C   0  0  0  0  0  0  0  0  0  0  0  0
  146.6835  135.6139  161.0288 C   0  0  0  0  0  0  0  0  0  0  0  0
  146.3693  134.2141  161.5948 C   0  0  0  0  0  0  0  0  0  0  0  0
  146.7591  134.0767  162.9468 O   0  0  0  0  0  0  0  0  0  0  0  0
  148.1482  136.0672  161.1119 C   0  0  0  0  0  0  0  0  0  0  0  0
  147.8681  136.9736  162.2015 O   0  0  0  0  0  0  0  0  0  0  0  0
  146.4515  136.7947  161.9824 C   0  0  0  0  0  0  0  0  0  0  0  0
  148.5310  141.1694  155.3093 C   0  0  2  0  0  0  0  0  0  0  0  0
  148.5128  140.3409  154.0102 C   0  0  0  0  0  0  0  0  0  0  0  0
  149.9550  141.5188  155.7960 C   0  0  0  0  0  0  0  0  0  0  0  0
  153.2242  143.3740  159.4095 H   0  0  0  0  0  0  0  0  0  0  0  0
  152.6292  144.9791  159.8117 H   0  0  0  0  0  0  0  0  0  0  0  0
  153.2316  144.6443  158.1893 H   0  0  0  0  0  0  0  0  0  0  0  0
  150.7251  143.4395  159.4701 H   0  0  0  0  0  0  0  0  0  0  0  0
  149.9901  144.6982  157.4252 H   0  0  0  0  0  0  0  0  0  0  0  0
  151.8620  143.1303  156.6421 H   0  0  0  0  0  0  0  0  0  0  0  0
  151.8001  141.8460  157.8195 H   0  0  0  0  0  0  0  0  0  0  0  0
  149.5396  140.8746  158.4671 H   0  0  0  0  0  0  0  0  0  0  0  0
  148.9889  142.4692  158.9298 H   0  0  0  0  0  0  0  0  0  0  0  0
  147.0600  141.0054  158.3620 H   0  0  0  0  0  0  0  0  0  0  0  0
  147.1395  142.3873  157.3007 H   0  0  0  0  0  0  0  0  0  0  0  0
  149.4333  136.5795  155.8560 H   0  0  0  0  0  0  0  0  0  0  0  0
  144.8690  138.2892  160.0647 H   0  0  0  0  0  0  0  0  0  0  0  0
  144.9734  135.5460  159.6847 H   0  0  0  0  0  0  0  0  0  0  0  0
  146.4448  134.9691  158.9634 H   0  0  0  0  0  0  0  0  0  0  0  0
  145.3017  133.9998  161.5454 H   0  0  0  0  0  0  0  0  0  0  0  0
  146.8748  133.4398  161.0170 H   0  0  0  0  0  0  0  0  0  0  0  0
  146.0048  134.2320  163.4947 H   0  0  0  0  0  0  0  0  0  0  0  0
  148.8502  135.2802  161.3895 H   0  0  0  0  0  0  0  0  0  0  0  0
  148.4988  136.5993  160.2264 H   0  0  0  0  0  0  0  0  0  0  0  0
  146.0084  137.6713  161.5087 H   0  0  0  0  0  0  0  0  0  0  0  0
  145.9143  136.5347  162.8950 H   0  0  0  0  0  0  0  0  0  0  0  0
  148.0480  142.1148  155.0578 H   0  0  0  0  0  0  0  0  0  0  0  0
  148.9923  140.8891  153.1990 H   0  0  0  0  0  0  0  0  0  0  0  0
  147.4905  140.1252  153.6980 H   0  0  0  0  0  0  0  0  0  0  0  0
  149.0399  139.3927  154.1094 H   0  0  0  0  0  0  0  0  0  0  0  0
  150.4835  142.0520  155.0045 H   0  0  0  0  0  0  0  0  0  0  0  0
  150.5326  140.6171  156.0004 H   0  0  0  0  0  0  0  0  0  0  0  0
  149.4719  143.2304  156.7345 H   0  0  0  0  0  0  0  0  0  0  0  0
  1  2  1  0  0  0  0
  1 28  1  0  0  0  0
  1 29  1  0  0  0  0
  1 30  1  0  0  0  0
  2  3  1  0  0  0  0
  2  4  1  0  0  0  0
  2 31  1  0  0  0  0
  3 32  1  0  0  0  0
  4  5  1  0  0  0  0
  4 33  1  0  0  0  0
  4 34  1  0  0  0  0
  5 27  1  0  0  0  0
  5  6  1  0  0  0  0
  5 56  1  0  0  0  0
  6  7  1  0  0  0  0
  6 35  1  0  0  0  0
  6 36  1  0  0  0  0
  7  8  1  0  0  0  0
  7 37  1  0  0  0  0
  7 38  1  0  0  0  0
  8  9  1  0  0  0  0
  8 25  1  0  0  0  0
  9 14  1  0  0  0  0
  9 10  2  0  0  0  0
 10 11  1  0  0  0  0
 11 12  2  0  0  0  0
 11 39  1  0  0  0  0
 12 13  1  0  0  0  0
 13 17  1  0  0  0  0
 13 14  2  0  0  0  0
 14 15  1  0  0  0  0
 15 16  2  0  0  0  0
 16 17  1  0  0  0  0
 16 40  1  0  0  0  0
 17 18  1  0  0  0  0
 18 19  1  0  0  0  0
 18 41  1  0  0  0  0
 18 42  1  0  0  0  0
 19 24  1  0  0  0  0
 19 20  1  0  0  0  0
 19 22  1  0  0  0  0
 20 21  1  0  0  0  0
 20 43  1  0  0  0  0
 20 44  1  0  0  0  0
 21 45  1  0  0  0  0
 22 23  1  0  0  0  0
 22 46  1  0  0  0  0
 22 47  1  0  0  0  0
 23 24  1  0  0  0  0
 24 48  1  0  0  0  0
 24 49  1  0  0  0  0
 25 26  1  0  0  0  0
 25 27  1  0  0  0  0
 25 50  1  0  0  0  0
 26 51  1  0  0  0  0
 26 52  1  0  0  0  0
 26 53  1  0  0  0  0
 27 54  1  0  0  0  0
 27 55  1  0  0  0  0
M  CHG  1   5   1
M  END
> <s_m_source_file>
AV-unprocessed.smi

> <i_m_source_file_index>
79

> <i_lp_mmshare_version>
43012

> <i_f3d_flags>
0

> <s_epik_input>
W0NIM11bQ0BIXShbT0hdKVtDSDJdTjFbQ0gyXVtDSDJdTihbQ0BASF0oW0NIM10pW0NIMl0xKWMobltjSF1uMiljKGMyMyluW2NIXW4zW0NIMl1DNChbQ0gyXVtPSF0pW0NIMl1PW0NIMl00

> <s_epik_cmdline>
J2VwaWtfcHl0aG9uJywgJy1waCcsICc3LjAnLCAnLXRuJywgJzgnLCAnLW1hJywgJzIwMCcsICctbWV0YWxfYmluZGluZycsICctaW1hZScsICc8aW5maWxlLm1hZT4nLCAnLW9tYWUnLCAnPG91dGZpbGUubWFlPic=

> <r_lp_tautomer_probability>
1

> <r_epik_Ionization_Penalty>
0.00515943

> <r_epik_Ionization_Penalty_Charging>
0.00509693

> <r_epik_Ionization_Penalty_Neutral>
6.25007e-05

> <r_epik_State_Penalty>
-0

> <r_epik_Charging_Adjusted_Penalty>
0.00509693

> <i_epik_Tot_Q>
1

> <i_epik_Tot_abs_Q>
1

> <r_epik_Metal_State_Penalty>
-0

> <b_epik_Metal_Only>
0

> <s_lp_Force_Field>
OPLS_2005

> <r_lp_Energy>
48.9332

> <b_lp_Chiralities_Consistent>
1

> <s_lp_Variant>
AV-unprocessed.smi:79-6

> <Gold.Version>
5.8.1

> <Gold.Id.Protein>
6NUR|6NUR_protein|mol2

> <Gold.PLP.Fitness>
47.3048

> <Gold.PLP.PLP>
-35.8423

> <Gold.PLP.part.hbond>
-6.7002

> <Gold.PLP.part.metal>
0.0000

> <Gold.PLP.part.buried>
-3.5695

> <Gold.PLP.part.nonpolar>
-25.6104

> <Gold.PLP.part.repulsive>
0.0572

> <Gold.PLP.ligand.clash>
0.0000

> <Gold.PLP.ligand.torsion>
0.6530

> <Gold.PLP.Chemscore.Hbond>
3.9920

> <Gold.PLP.Chemscore.CHOScore>
0.0000

> <Gold.PLP.Chemscore.Metal>
0.0000

> <Gold.Chemscore.Hbonds>
donor molecule, donor type, donor heavy atom, donor atom, acceptor molecule, acceptor atom, score
      L1  H     3    32       P1  8028  0.78
      L1  H     5    56       P1  8028  2.00
      P1  H  6931  6943       L1    23  1.00

> <Gold.PLP.Chemscore.Internal.Correction>
0.7926

> <Gold.Rescore>
     Score         DG    S(hbond)    S(metal)    S(lipo)     H(rot)  DE(clash)    DE(int)     intcor
     10.58     -15.40       2.73        0.00      88.23       3.72       1.41       3.41       ----

> <Gold.Chemscore.Fitness>
10.5823

> <Gold.Chemscore.DG>
-15.4034

> <Gold.Chemscore.ZeroCoef>
-5.4800

> <Gold.Chemscore.Hbond>
2.7336

> <Gold.Chemscore.Metal>
0.0000

> <Gold.Chemscore.Lipo>
88.2311

> <Gold.Chemscore.Internal_Hbond>
0.0000

> <Gold.Chemscore.DEClash>
1.4116

> <Gold.Chemscore.DEInternal>
3.4095

> <Gold.Chemscore.Rot>
3.7226

> <Gold.Chemscore.Internal.Correction>
   9.000000E+99

> <Gold.Chemscore.Hbonds>
donor molecule, donor type, donor heavy atom, donor atom, acceptor molecule, acceptor atom, score
      L1  H     3    32       P1  8028  0.11
      L1  H     5    56       P1  8028  0.99
      P1  H  6931  6943       L1    23  0.34

> <Gold.Chemscore.Hbond.Weighted>
-9.1302

> <Gold.Chemscore.Metal.Weighted>
-0.0000

> <Gold.Chemscore.Lipo.Weighted>
-10.3230

> <Gold.Chemscore.Internal_Hbond.Weighted>
0.0000

> <Gold.Chemscore.DEClash.Weighted>
1.4116

> <Gold.Chemscore.DEInternal.Weighted>
3.4095

> <Gold.Chemscore.Rot.Weighted>
9.5298

> <Gold.Chemscore.Internal.Correction.Weighted>
   9.000000E+99

> <Gold.Protein.RotatedTorsions>
[ 6907 6896 6895 6894 ] final   70.75 input  -60.11 | X-H torsion
[ 7974 7965 7964 7962 ] final -172.98 input  175.53 | X-H torsion
[ 8008 7997 7996 7995 ] final -161.98 input   59.86 | X-H torsion
[ 10167 10162 10161 10158 ] final   18.34 input  -65.29 | X-H torsion
[ 10718 10713 10712 10709 ] final  139.42 input   66.30 | X-H torsion
[ 10763 10752 10751 10750 ] final  142.65 input  -60.55 | X-H torsion
[ 11005 11000 10999 10996 ] final   97.67 input  -57.11 | X-H torsion

> <Gold.Protein.ActiveResidues>
 VAL166  LYS551  ARG553  GLY616  TRP617  ASP618  TYR619  PRO620  LYS621  CYS622 
 ASP623  PHE694  ASN695  SER759  ASP760  ASP761  ALA762  ILE779  LEU786  VAL792 
 PHE793  MET794  SER795  GLU796  ALA797  LYS798  CYS799  TRP800  GLU811  SER814 

> <Gold.Protein.RotatedAtoms>
  152.4768  134.4823  159.9669 H   0  0  0  0  0  0  0  0  0  0  0  0  # atno 6907 bound_to 6896
  151.4837  133.3534  159.2850 H   0  0  0  0  0  0  0  0  0  0  0  0  # atno 6908 bound_to 6896
  150.8812  134.8230  159.7288 H   0  0  0  0  0  0  0  0  0  0  0  0  # atno 6909 bound_to 6896
  144.7141  140.1690  143.6369 H   0  0  0  0  0  0  0  0  0  0  0  0  # atno 7974 bound_to 7965
  155.8001  140.0890  157.1962 H   0  0  0  0  0  0  0  0  0  0  0  0  # atno 8008 bound_to 7997
  154.3982  140.1474  156.3323 H   0  0  0  0  0  0  0  0  0  0  0  0  # atno 8009 bound_to 7997
  155.8471  140.3436  155.5672 H   0  0  0  0  0  0  0  0  0  0  0  0  # atno 8010 bound_to 7997
  140.5661  143.9249  150.6677 H   0  0  0  0  0  0  0  0  0  0  0  0  # atno 10167 bound_to 10162
  157.4146  131.1032  151.0418 H   0  0  0  0  0  0  0  0  0  0  0  0  # atno 10718 bound_to 10713
  153.9594  135.2962  155.3434 H   0  0  0  0  0  0  0  0  0  0  0  0  # atno 10763 bound_to 10752
  154.7383  135.5036  153.9082 H   0  0  0  0  0  0  0  0  0  0  0  0  # atno 10764 bound_to 10752
  153.0954  135.6719  153.9883 H   0  0  0  0  0  0  0  0  0  0  0  0  # atno 10765 bound_to 10752
  139.8775  134.9012  156.4341 H   0  0  0  0  0  0  0  0  0  0  0  0  # atno 11005 bound_to 11000
  145.8961  139.2403  143.1521 LP  0  0  0  0  0  0  0  0  0  0  0  0  # atno 17320 bound_to 7965
  145.9856  140.8646  143.0092 LP  0  0  0  0  0  0  0  0  0  0  0  0  # atno 17321 bound_to 7965
  140.2712  143.3455  152.1236 LP  0  0  0  0  0  0  0  0  0  0  0  0  # atno 17342 bound_to 10162
  139.5093  144.6865  151.5872 LP  0  0  0  0  0  0  0  0  0  0  0  0  # atno 17343 bound_to 10162
  157.1370  130.6127  149.5545 LP  0  0  0  0  0  0  0  0  0  0  0  0  # atno 17370 bound_to 10713
  155.9861  130.4894  150.7063 LP  0  0  0  0  0  0  0  0  0  0  0  0  # atno 17371 bound_to 10713
  140.9045  133.7755  155.9719 LP  0  0  0  0  0  0  0  0  0  0  0  0  # atno 17394 bound_to 11000
  140.8614  134.2836  157.5233 LP  0  0  0  0  0  0  0  0  0  0  0  0  # atno 17395 bound_to 11000

$$$$
