AV-unprocessed.smi:1409|AV-procd|sdf|5727|dock3
  -GOLD-   22720 5363D 1   1.00000     0.00000
 Structure written by MMmdl.
 37 38  0  0  0  0  0  0  0  0  1 V2000
  146.4383  133.1595  150.2301 C   0  0  0  0  0  0  0  0  0  0  0  0
  146.3699  134.3544  151.0004 O   0  0  0  0  0  0  0  0  0  0  0  0
  145.1751  134.6751  151.6162 C   0  0  0  0  0  0  0  0  0  0  0  0
  144.1054  133.8660  151.4111 N   0  0  0  0  0  0  0  0  0  0  0  0
  142.9392  134.1775  152.0132 C   0  0  0  0  0  0  0  0  0  0  0  0
  142.7790  135.2971  152.8498 C   0  0  0  0  0  0  0  0  0  0  0  0
  143.8869  136.1378  153.0644 C   0  0  0  0  0  0  0  0  0  0  0  0
  145.1138  135.8326  152.4267 C   0  0  0  0  0  0  0  0  0  0  0  0
  146.2978  136.6021  152.5944 N   0  0  0  0  0  0  0  0  0  0  0  0
  146.5480  137.5606  153.5020 C   0  0  0  0  0  0  0  0  0  0  0  0
  145.7547  137.9579  154.3551 O   0  0  0  0  0  0  0  0  0  0  0  0
  147.7816  138.0616  153.3487 N   0  0  0  0  0  0  0  0  0  0  0  0
  148.3547  139.1393  154.1484 C   0  0  0  0  0  0  0  0  0  0  0  0
  149.5626  138.6693  154.9832 C   0  0  2  0  0  0  0  0  0  0  0  0
  150.0022  139.6874  156.0567 C   0  0  0  0  0  0  0  0  0  0  0  0
  151.3613  139.2538  156.6127 C   0  0  0  0  0  0  0  0  0  0  0  0
  152.2557  138.5138  155.1972 S   0  0  0  0  0  0  0  0  0  0  0  0
  153.1654  139.5133  154.6170 O   0  0  0  0  0  0  0  0  0  0  0  0
  152.7416  137.1797  155.5805 O   0  0  0  0  0  0  0  0  0  0  0  0
  150.7873  138.3474  154.1109 C   0  0  0  0  0  0  0  0  0  0  0  0
  147.4386  133.0591  149.8093 H   0  0  0  0  0  0  0  0  0  0  0  0
  145.7316  133.1780  149.3992 H   0  0  0  0  0  0  0  0  0  0  0  0
  146.2475  132.2779  150.8440 H   0  0  0  0  0  0  0  0  0  0  0  0
  142.1104  133.5103  151.8276 H   0  0  0  0  0  0  0  0  0  0  0  0
  141.8293  135.5034  153.3210 H   0  0  0  0  0  0  0  0  0  0  0  0
  143.7799  136.9867  153.7219 H   0  0  0  0  0  0  0  0  0  0  0  0
  147.0108  136.4527  151.8954 H   0  0  0  0  0  0  0  0  0  0  0  0
  148.3646  137.6760  152.6201 H   0  0  0  0  0  0  0  0  0  0  0  0
  148.6428  139.9689  153.5002 H   0  0  0  0  0  0  0  0  0  0  0  0
  147.5728  139.5214  154.8053 H   0  0  0  0  0  0  0  0  0  0  0  0
  149.2906  137.7496  155.5037 H   0  0  0  0  0  0  0  0  0  0  0  0
  150.1067  140.6710  155.5965 H   0  0  0  0  0  0  0  0  0  0  0  0
  149.2645  139.7849  156.8537 H   0  0  0  0  0  0  0  0  0  0  0  0
  151.9360  140.0777  157.0360 H   0  0  0  0  0  0  0  0  0  0  0  0
  151.2379  138.4835  157.3743 H   0  0  0  0  0  0  0  0  0  0  0  0
  150.7495  137.3459  153.6819 H   0  0  0  0  0  0  0  0  0  0  0  0
  150.8948  139.0668  153.2987 H   0  0  0  0  0  0  0  0  0  0  0  0
  1  2  1  0  0  0  0
  1 21  1  0  0  0  0
  1 22  1  0  0  0  0
  1 23  1  0  0  0  0
  2  3  1  0  0  0  0
  3  8  1  0  0  0  0
  3  4  2  0  0  0  0
  4  5  1  0  0  0  0
  5  6  2  0  0  0  0
  5 24  1  0  0  0  0
  6  7  1  0  0  0  0
  6 25  1  0  0  0  0
  7  8  2  0  0  0  0
  7 26  1  0  0  0  0
  8  9  1  0  0  0  0
  9 10  1  0  0  0  0
  9 27  1  0  0  0  0
 10 11  2  0  0  0  0
 10 12  1  0  0  0  0
 12 13  1  0  0  0  0
 12 28  1  0  0  0  0
 13 14  1  0  0  0  0
 13 29  1  0  0  0  0
 13 30  1  0  0  0  0
 14 20  1  0  0  0  0
 14 15  1  0  0  0  0
 14 31  1  0  0  0  0
 15 16  1  0  0  0  0
 15 32  1  0  0  0  0
 15 33  1  0  0  0  0
 16 17  1  0  0  0  0
 16 34  1  0  0  0  0
 16 35  1  0  0  0  0
 17 18  2  0  0  0  0
 17 19  2  0  0  0  0
 17 20  1  0  0  0  0
 20 36  1  0  0  0  0
 20 37  1  0  0  0  0
M  END
> <s_m_source_file>
AV-unprocessed.smi

> <i_m_source_file_index>
1409

> <i_lp_mmshare_version>
43012

> <i_f3d_flags>
0

> <s_epik_input>
W0NIM11PYzFuW2NIXVtjSF1bY0hdYzFbTkhdQyg9TylbTkhdW0NIMl1bQ0BASF0oW0NIMl0yKVtDSDJdW0NIMl1TMig9Tyk9Tw==

> <s_epik_cmdline>
J2VwaWtfcHl0aG9uJywgJy1waCcsICc3LjAnLCAnLXRuJywgJzgnLCAnLW1hJywgJzIwMCcsICctbWV0YWxfYmluZGluZycsICctaW1hZScsICc8aW5maWxlLm1hZT4nLCAnLW9tYWUnLCAnPG91dGZpbGUubWFlPic=

> <r_lp_tautomer_probability>
1

> <r_epik_Ionization_Penalty>
9.0549e-05

> <r_epik_Ionization_Penalty_Charging>
0

> <r_epik_Ionization_Penalty_Neutral>
9.0549e-05

> <r_epik_State_Penalty>
-0

> <r_epik_Charging_Adjusted_Penalty>
0

> <i_epik_Tot_Q>
0

> <i_epik_Tot_abs_Q>
0

> <r_epik_Metal_State_Penalty>
-0

> <b_epik_Metal_Only>
0

> <s_lp_Force_Field>
OPLS_2005

> <r_lp_Energy>
8.54576

> <b_lp_Chiralities_Consistent>
1

> <s_lp_Variant>
AV-unprocessed.smi:1409-1

> <Gold.Version>
5.8.1

> <Gold.Id.Protein>
6NUR|6NUR_protein|mol2

> <Gold.PLP.Fitness>
39.9549

> <Gold.PLP.PLP>
-28.4625

> <Gold.PLP.part.hbond>
-5.0000

> <Gold.PLP.part.metal>
0.0000

> <Gold.PLP.part.buried>
-4.1836

> <Gold.PLP.part.nonpolar>
-20.4257

> <Gold.PLP.part.repulsive>
0.5474

> <Gold.PLP.ligand.clash>
0.0000

> <Gold.PLP.ligand.torsion>
0.1175

> <Gold.PLP.Chemscore.Hbond>
3.6678

> <Gold.PLP.Chemscore.CHOScore>
0.2355

> <Gold.PLP.Chemscore.Metal>
0.0000

> <Gold.Chemscore.Hbonds>
donor molecule, donor type, donor heavy atom, donor atom, acceptor molecule, acceptor atom, score
      L1  H     9    27       P1  7948  0.77
      L1  H    12    28       P1  7948  0.94
      P1  H  7989  7998       L1    18  0.11
      P1  H  7997  8009       L1    18  1.00
      P1  H 10752 10765       L1    19  0.59
      L1  C     5    24       P1 10186  0.27

> <Gold.PLP.Chemscore.Internal.Correction>
0.0175

> <Gold.Rescore>
     Score         DG    S(hbond)    S(metal)    S(lipo)     H(rot)  DE(clash)    DE(int)     intcor
     18.72     -20.08       3.78        0.00      51.73       1.59       0.02       1.34       ----

> <Gold.Chemscore.Fitness>
18.7230

> <Gold.Chemscore.DG>
-20.0785

> <Gold.Chemscore.ZeroCoef>
-5.4800

> <Gold.Chemscore.Hbond>
3.7789

> <Gold.Chemscore.Metal>
0.0000

> <Gold.Chemscore.Lipo>
51.7293

> <Gold.Chemscore.Internal_Hbond>
0.0000

> <Gold.Chemscore.DEClash>
0.0153

> <Gold.Chemscore.DEInternal>
1.3403

> <Gold.Chemscore.Rot>
1.5919

> <Gold.Chemscore.Internal.Correction>
   9.000000E+99

> <Gold.Chemscore.Hbonds>
donor molecule, donor type, donor heavy atom, donor atom, acceptor molecule, acceptor atom, score
      L1  H     9    27       P1  7948  0.75
      L1  H    12    28       P1  7948  0.92
      P1  H  7989  7998       L1    18  0.04
      P1  H  7997  8009       L1    18  0.92
      P1  H 10752 10765       L1    19  0.60

> <Gold.Chemscore.Hbond.Weighted>
-12.6215

> <Gold.Chemscore.Metal.Weighted>
-0.0000

> <Gold.Chemscore.Lipo.Weighted>
-6.0523

> <Gold.Chemscore.Internal_Hbond.Weighted>
0.0000

> <Gold.Chemscore.DEClash.Weighted>
0.0153

> <Gold.Chemscore.DEInternal.Weighted>
1.3403

> <Gold.Chemscore.Rot.Weighted>
4.0754

> <Gold.Chemscore.Internal.Correction.Weighted>
   9.000000E+99

> <Gold.Protein.RotatedTorsions>
[ 6907 6896 6895 6894 ] final -176.30 input  -60.11 | X-H torsion
[ 7974 7965 7964 7962 ] final  -53.96 input  175.53 | X-H torsion
[ 8008 7997 7996 7995 ] final -129.74 input   59.86 | X-H torsion
[ 10167 10162 10161 10158 ] final   -8.30 input  -65.29 | X-H torsion
[ 10718 10713 10712 10709 ] final  -17.17 input   66.30 | X-H torsion
[ 10763 10752 10751 10750 ] final -154.83 input  -60.55 | X-H torsion
[ 11005 11000 10999 10996 ] final    4.74 input  -57.11 | X-H torsion

> <Gold.Protein.ActiveResidues>
 VAL166  LYS551  ARG553  GLY616  TRP617  ASP618  TYR619  PRO620  LYS621  CYS622 
 ASP623  PHE694  ASN695  SER759  ASP760  ASP761  ALA762  ILE779  LEU786  VAL792 
 PHE793  MET794  SER795  GLU796  ALA797  LYS798  CYS799  TRP800  GLU811  SER814 

> <Gold.Protein.RotatedAtoms>
  151.6025  133.3355  159.3050 H   0  0  0  0  0  0  0  0  0  0  0  0  # atno 6907 bound_to 6896
  150.8200  134.7406  159.6775 H   0  0  0  0  0  0  0  0  0  0  0  0  # atno 6908 bound_to 6896
  152.4294  134.5812  160.0000 H   0  0  0  0  0  0  0  0  0  0  0  0  # atno 6909 bound_to 6896
  145.8910  140.8070  142.9791 H   0  0  0  0  0  0  0  0  0  0  0  0  # atno 7974 bound_to 7965
  155.2842  140.0445  157.3018 H   0  0  0  0  0  0  0  0  0  0  0  0  # atno 8008 bound_to 7997
  154.5579  140.2337  155.8349 H   0  0  0  0  0  0  0  0  0  0  0  0  # atno 8009 bound_to 7997
  156.2023  140.3022  155.9559 H   0  0  0  0  0  0  0  0  0  0  0  0  # atno 8010 bound_to 7997
  140.7055  143.5984  150.8822 H   0  0  0  0  0  0  0  0  0  0  0  0  # atno 10167 bound_to 10162
  156.5773  130.4765  149.6336 H   0  0  0  0  0  0  0  0  0  0  0  0  # atno 10718 bound_to 10713
  154.7831  135.3181  154.7946 H   0  0  0  0  0  0  0  0  0  0  0  0  # atno 10763 bound_to 10752
  153.8653  135.6849  153.4783 H   0  0  0  0  0  0  0  0  0  0  0  0  # atno 10764 bound_to 10752
  153.1473  135.4714  154.9523 H   0  0  0  0  0  0  0  0  0  0  0  0  # atno 10765 bound_to 10752
  140.5785  134.0035  155.8038 H   0  0  0  0  0  0  0  0  0  0  0  0  # atno 11005 bound_to 11000
  144.6730  140.1530  143.7428 LP  0  0  0  0  0  0  0  0  0  0  0  0  # atno 17320 bound_to 7965
  145.8908  139.2375  143.1550 LP  0  0  0  0  0  0  0  0  0  0  0  0  # atno 17321 bound_to 7965
  139.9709  143.6058  152.2974 LP  0  0  0  0  0  0  0  0  0  0  0  0  # atno 17342 bound_to 10162
  139.6644  144.7662  151.1901 LP  0  0  0  0  0  0  0  0  0  0  0  0  # atno 17343 bound_to 10162
  156.2662  130.6991  151.1774 LP  0  0  0  0  0  0  0  0  0  0  0  0  # atno 17370 bound_to 10713
  157.7334  131.0591  150.5576 LP  0  0  0  0  0  0  0  0  0  0  0  0  # atno 17371 bound_to 10713
  141.1011  133.9766  157.3077 LP  0  0  0  0  0  0  0  0  0  0  0  0  # atno 17394 bound_to 11000
  139.9328  135.0199  156.8458 LP  0  0  0  0  0  0  0  0  0  0  0  0  # atno 17395 bound_to 11000

$$$$
