AV-unprocessed.smi:1230|AV-procd|sdf|5152|dock9
  -GOLD-   22720 4223D 1   1.00000     0.00000
 Structure written by MMmdl.
 38 39  0  0  0  0  0  0  0  0  2 V2000
  151.1349  145.3718  160.1226 C   0  0  0  0  0  0  0  0  0  0  0  0
  151.5462  143.9945  160.6682 C   0  0  2  0  0  0  0  0  0  0  0  0
  152.5035  144.1485  161.8674 C   0  0  0  0  0  0  0  0  0  0  0  0
  152.9375  142.7863  162.4296 C   0  0  0  0  0  0  0  0  0  0  0  0
  153.5781  141.9186  161.3376 C   0  0  0  0  0  0  0  0  0  0  0  0
  152.6281  141.7491  160.1436 C   0  0  0  0  0  0  0  0  0  0  0  0
  152.1837  143.1122  159.5713 C   0  0  1  0  0  0  0  0  0  0  0  0
  151.2069  142.8849  158.5655 O   0  0  0  0  0  0  0  0  0  0  0  0
  151.6826  142.1638  157.4383 C   0  0  0  0  0  0  0  0  0  0  0  0
  150.4826  141.7624  156.5683 C   0  0  0  0  0  0  0  0  0  0  0  0
  150.3803  140.3010  156.4526 N   0  0  0  0  0  0  0  0  0  0  0  0
  150.3235  139.5588  157.6445 C   0  0  0  0  0  0  0  0  0  0  0  0
  150.2597  138.2142  157.6371 C   0  0  0  0  0  0  0  0  0  0  0  0
  150.2123  137.4379  158.8322 C   0  0  0  0  0  0  0  0  0  0  0  0
  150.1704  136.7814  159.7852 N   0  0  0  0  0  0  0  0  0  0  0  0
  150.2470  137.5211  156.3512 C   0  0  0  0  0  0  0  0  0  0  0  0
  150.1822  136.2930  156.3141 O   0  0  0  0  0  0  0  0  0  0  0  0
  150.3107  138.2910  155.2251 N   0  5  0  0  0  0  0  0  0  0  0  0
  150.3842  139.6587  155.2459 C   0  0  0  0  0  0  0  0  0  0  0  0
  150.4574  140.3289  154.2156 O   0  0  0  0  0  0  0  0  0  0  0  0
  151.9965  145.9197  159.7400 H   0  0  0  0  0  0  0  0  0  0  0  0
  150.6730  145.9798  160.9007 H   0  0  0  0  0  0  0  0  0  0  0  0
  150.4132  145.2781  159.3109 H   0  0  0  0  0  0  0  0  0  0  0  0
  150.6435  143.4945  161.0229 H   0  0  0  0  0  0  0  0  0  0  0  0
  153.3869  144.7119  161.5635 H   0  0  0  0  0  0  0  0  0  0  0  0
  152.0237  144.7302  162.6552 H   0  0  0  0  0  0  0  0  0  0  0  0
  153.6401  142.9287  163.2511 H   0  0  0  0  0  0  0  0  0  0  0  0
  152.0725  142.2696  162.8473 H   0  0  0  0  0  0  0  0  0  0  0  0
  154.5097  142.3768  161.0029 H   0  0  0  0  0  0  0  0  0  0  0  0
  153.8408  140.9419  161.7448 H   0  0  0  0  0  0  0  0  0  0  0  0
  153.1172  141.1499  159.3760 H   0  0  0  0  0  0  0  0  0  0  0  0
  151.7500  141.1830  160.4573 H   0  0  0  0  0  0  0  0  0  0  0  0
  153.0440  143.6400  159.1542 H   0  0  0  0  0  0  0  0  0  0  0  0
  152.3644  142.7996  156.8724 H   0  0  0  0  0  0  0  0  0  0  0  0
  152.2435  141.2762  157.7325 H   0  0  0  0  0  0  0  0  0  0  0  0
  149.5653  142.1791  156.9868 H   0  0  0  0  0  0  0  0  0  0  0  0
  150.5755  142.2147  155.5799 H   0  0  0  0  0  0  0  0  0  0  0  0
  150.3472  140.1443  158.5521 H   0  0  0  0  0  0  0  0  0  0  0  0
  1  2  1  0  0  0  0
  1 21  1  0  0  0  0
  1 22  1  0  0  0  0
  1 23  1  0  0  0  0
  2  7  1  0  0  0  0
  2  3  1  0  0  0  0
  2 24  1  0  0  0  0
  3  4  1  0  0  0  0
  3 25  1  0  0  0  0
  3 26  1  0  0  0  0
  4  5  1  0  0  0  0
  4 27  1  0  0  0  0
  4 28  1  0  0  0  0
  5  6  1  0  0  0  0
  5 29  1  0  0  0  0
  5 30  1  0  0  0  0
  6  7  1  0  0  0  0
  6 31  1  0  0  0  0
  6 32  1  0  0  0  0
  7  8  1  0  0  0  0
  7 33  1  0  0  0  0
  8  9  1  0  0  0  0
  9 10  1  0  0  0  0
  9 34  1  0  0  0  0
  9 35  1  0  0  0  0
 10 11  1  0  0  0  0
 10 36  1  0  0  0  0
 10 37  1  0  0  0  0
 11 19  1  0  0  0  0
 11 12  1  0  0  0  0
 12 13  2  0  0  0  0
 12 38  1  0  0  0  0
 13 14  1  0  0  0  0
 13 16  1  0  0  0  0
 14 15  3  0  0  0  0
 16 17  2  0  0  0  0
 16 18  1  0  0  0  0
 18 19  1  0  0  0  0
 19 20  2  0  0  0  0
M  CHG  1  18  -1
M  END
> <s_m_source_file>
AV-unprocessed.smi

> <i_m_source_file_index>
1230

> <i_lp_mmshare_version>
43012

> <i_f3d_flags>
0

> <s_epik_input>
W0NIM11bQ0BASF0xW0NIMl1bQ0gyXVtDSDJdW0NIMl1bQ0BIXTFPW0NIMl1bQ0gyXW4yW2NIXWMoQyNOKWMoPU8pW25IXWMyPU8=

> <s_epik_cmdline>
J2VwaWtfcHl0aG9uJywgJy1waCcsICc3LjAnLCAnLXRuJywgJzgnLCAnLW1hJywgJzIwMCcsICctbWV0YWxfYmluZGluZycsICctaW1hZScsICc8aW5maWxlLm1hZT4nLCAnLW9tYWUnLCAnPG91dGZpbGUubWFlPic=

> <r_epik_Ionization_Penalty>
0.400014

> <r_epik_Ionization_Penalty_Charging>
4.81474e-10

> <r_epik_Ionization_Penalty_Neutral>
0.400014

> <r_epik_State_Penalty>
0.399305

> <r_epik_Charging_Adjusted_Penalty>
0.399305

> <i_epik_Tot_Q>
-1

> <i_epik_Tot_abs_Q>
1

> <r_epik_Metal_State_Penalty>
0.00056968

> <b_epik_Metal_Only>
0

> <s_lp_Force_Field>
OPLS_2005

> <r_lp_Energy>
24.1099

> <b_lp_Chiralities_Consistent>
1

> <s_lp_Variant>
AV-unprocessed.smi:1230-1

> <Gold.Version>
5.8.1

> <Gold.Id.Protein>
6NUR|6NUR_protein|mol2

> <Gold.PLP.Fitness>
44.0970

> <Gold.PLP.PLP>
-38.9464

> <Gold.PLP.part.hbond>
-1.9387

> <Gold.PLP.part.metal>
0.0000

> <Gold.PLP.part.buried>
-6.8533

> <Gold.PLP.part.nonpolar>
-30.9186

> <Gold.PLP.part.repulsive>
0.2965

> <Gold.PLP.ligand.clash>
0.0000

> <Gold.PLP.ligand.torsion>
0.4291

> <Gold.PLP.Chemscore.Hbond>
2.0000

> <Gold.PLP.Chemscore.CHOScore>
0.0000

> <Gold.PLP.Chemscore.Metal>
0.0000

> <Gold.Chemscore.Hbonds>
donor molecule, donor type, donor heavy atom, donor atom, acceptor molecule, acceptor atom, score
      P1  H  6896  6908       L1    15  1.00
      P1  H  7989  7998       L1    20  0.86

> <Gold.PLP.Chemscore.Internal.Correction>
0.0088

> <Gold.Rescore>
     Score         DG    S(hbond)    S(metal)    S(lipo)     H(rot)  DE(clash)    DE(int)     intcor
     18.28     -18.81       1.93        0.00     100.46       1.90       0.09       0.44       ----

> <Gold.Chemscore.Fitness>
18.2814

> <Gold.Chemscore.DG>
-18.8116

> <Gold.Chemscore.ZeroCoef>
-5.4800

> <Gold.Chemscore.Hbond>
1.9273

> <Gold.Chemscore.Metal>
0.0000

> <Gold.Chemscore.Lipo>
100.4636

> <Gold.Chemscore.Internal_Hbond>
0.0000

> <Gold.Chemscore.DEClash>
0.0859

> <Gold.Chemscore.DEInternal>
0.4443

> <Gold.Chemscore.Rot>
1.8984

> <Gold.Chemscore.Internal.Correction>
   9.000000E+99

> <Gold.Chemscore.Hbonds>
donor molecule, donor type, donor heavy atom, donor atom, acceptor molecule, acceptor atom, score
      P1  H  6896  6908       L1    15  0.96
      P1  H  7989  7998       L1    20  0.81

> <Gold.Chemscore.Hbond.Weighted>
-6.4372

> <Gold.Chemscore.Metal.Weighted>
-0.0000

> <Gold.Chemscore.Lipo.Weighted>
-11.7542

> <Gold.Chemscore.Internal_Hbond.Weighted>
0.0000

> <Gold.Chemscore.DEClash.Weighted>
0.0859

> <Gold.Chemscore.DEInternal.Weighted>
0.4443

> <Gold.Chemscore.Rot.Weighted>
4.8598

> <Gold.Chemscore.Internal.Correction.Weighted>
   9.000000E+99

> <Gold.Protein.RotatedTorsions>
[ 6907 6896 6895 6894 ] final -161.04 input  -60.11 | X-H torsion
[ 7974 7965 7964 7962 ] final   94.28 input  175.53 | X-H torsion
[ 8008 7997 7996 7995 ] final -111.43 input   59.86 | X-H torsion
[ 10167 10162 10161 10158 ] final  -30.47 input  -65.29 | X-H torsion
[ 10718 10713 10712 10709 ] final  126.23 input   66.30 | X-H torsion
[ 10763 10752 10751 10750 ] final   94.13 input  -60.55 | X-H torsion
[ 11005 11000 10999 10996 ] final -142.24 input  -57.11 | X-H torsion

> <Gold.Protein.ActiveResidues>
 VAL166  LYS551  ARG553  GLY616  TRP617  ASP618  TYR619  PRO620  LYS621  CYS622 
 ASP623  PHE694  ASN695  SER759  ASP760  ASP761  ALA762  ILE779  LEU786  VAL792 
 PHE793  MET794  SER795  GLU796  ALA797  LYS798  CYS799  TRP800  GLU811  SER814 

> <Gold.Protein.RotatedAtoms>
  151.3584  133.3899  159.2686 H   0  0  0  0  0  0  0  0  0  0  0  0  # atno 6907 bound_to 6896
  150.9745  134.9113  159.7818 H   0  0  0  0  0  0  0  0  0  0  0  0  # atno 6908 bound_to 6896
  152.5196  134.3547  159.9315 H   0  0  0  0  0  0  0  0  0  0  0  0  # atno 6909 bound_to 6896
  145.4677  139.2283  143.2952 H   0  0  0  0  0  0  0  0  0  0  0  0  # atno 7974 bound_to 7965
  154.9897  140.0395  157.2314 H   0  0  0  0  0  0  0  0  0  0  0  0  # atno 8008 bound_to 7997
  154.7639  140.2789  155.6169 H   0  0  0  0  0  0  0  0  0  0  0  0  # atno 8009 bound_to 7997
  156.2909  140.2623  156.2425 H   0  0  0  0  0  0  0  0  0  0  0  0  # atno 8010 bound_to 7997
  140.7249  143.3846  151.1538 H   0  0  0  0  0  0  0  0  0  0  0  0  # atno 10167 bound_to 10162
  157.5437  131.1096  150.8817 H   0  0  0  0  0  0  0  0  0  0  0  0  # atno 10718 bound_to 10713
  153.2381  135.4301  155.0668 H   0  0  0  0  0  0  0  0  0  0  0  0  # atno 10763 bound_to 10752
  154.8328  135.3396  154.6689 H   0  0  0  0  0  0  0  0  0  0  0  0  # atno 10764 bound_to 10752
  153.7114  135.7022  153.5093 H   0  0  0  0  0  0  0  0  0  0  0  0  # atno 10765 bound_to 10752
  140.8245  134.2591  157.4885 H   0  0  0  0  0  0  0  0  0  0  0  0  # atno 11005 bound_to 11000
  146.2415  140.5452  142.8932 LP  0  0  0  0  0  0  0  0  0  0  0  0  # atno 17320 bound_to 7965
  144.7964  140.6131  143.6507 LP  0  0  0  0  0  0  0  0  0  0  0  0  # atno 17321 bound_to 7965
  139.7441  143.8879  152.3058 LP  0  0  0  0  0  0  0  0  0  0  0  0  # atno 17342 bound_to 10162
  139.8710  144.7068  150.8987 LP  0  0  0  0  0  0  0  0  0  0  0  0  # atno 17343 bound_to 10162
  156.9363  130.5368  149.5279 LP  0  0  0  0  0  0  0  0  0  0  0  0  # atno 17370 bound_to 10713
  156.0517  130.5586  150.9004 LP  0  0  0  0  0  0  0  0  0  0  0  0  # atno 17371 bound_to 10713
  139.8707  134.9553  156.4202 LP  0  0  0  0  0  0  0  0  0  0  0  0  # atno 17394 bound_to 11000
  140.9064  133.7743  155.9740 LP  0  0  0  0  0  0  0  0  0  0  0  0  # atno 17395 bound_to 11000

$$$$
