AV-unprocessed.smi:283|AV-procd|sdf|2129|dock10
  -GOLD-   2262021443D 1   1.00000     0.00000
 Structure written by MMmdl.
 48 51  0  0  0  0  0  0  0  0  1 V2000
  149.2325  142.1804  157.6465 C   0  0  0  0  0  0  0  0  0  0  0  0
  150.5576  141.7594  156.9967 C   0  0  2  0  0  0  0  0  0  0  0  0
  150.3354  140.6040  156.1296 N   0  0  0  0  0  0  0  0  0  0  0  0
  149.2786  140.5536  155.2888 C   0  0  0  0  0  0  0  0  0  0  0  0
  148.7875  141.7527  154.8950 N   0  0  0  0  0  0  0  0  0  0  0  0
  147.7290  141.8103  154.0825 C   0  0  0  0  0  0  0  0  0  0  0  0
  147.0292  140.8060  153.5522 N   0  0  0  0  0  0  0  0  0  0  0  0
  147.5273  139.5928  153.9299 C   0  0  0  0  0  0  0  0  0  0  0  0
  148.6434  139.3786  154.7883 C   0  0  0  0  0  0  0  0  0  0  0  0
  148.8525  138.0126  154.9318 N   0  0  0  0  0  0  0  0  0  0  0  0
  147.9065  137.4620  154.2226 C   0  0  0  0  0  0  0  0  0  0  0  0
  147.0688  138.3427  153.5696 N   0  0  0  0  0  0  0  0  0  0  0  0
  145.8751  138.0695  152.7005 C   0  0  2  0  0  0  0  0  0  0  0  0
  144.9229  137.4196  153.4856 O   0  0  0  0  0  0  0  0  0  0  0  0
  145.0137  136.0139  153.2876 C   0  0  1  0  0  0  0  0  0  0  0  0
  143.7364  135.2992  153.7650 C   0  0  0  0  0  0  0  0  0  0  0  0
  143.7645  133.9425  153.3754 O   0  0  0  0  0  0  0  0  0  0  0  0
  145.3094  135.9203  151.7834 C   0  0  1  0  0  0  0  0  0  0  0  0
  144.1061  135.9806  151.0341 O   0  0  0  0  0  0  0  0  0  0  0  0
  146.2244  137.1244  151.5343 C   0  0  1  0  0  0  0  0  0  0  0  0
  146.0226  137.7176  150.2651 O   0  0  0  0  0  0  0  0  0  0  0  0
  151.6350  141.5601  158.0670 C   0  0  0  0  0  0  0  0  0  0  0  0
  151.9731  140.2543  158.4932 C   0  0  0  0  0  0  0  0  0  0  0  0
  152.9648  140.0513  159.4708 C   0  0  0  0  0  0  0  0  0  0  0  0
  153.6240  141.1542  160.0421 C   0  0  0  0  0  0  0  0  0  0  0  0
  153.2852  142.4586  159.6382 C   0  0  0  0  0  0  0  0  0  0  0  0
  152.2933  142.6677  158.6591 C   0  0  0  0  0  0  0  0  0  0  0  0
  151.9090  144.2936  158.2134 Cl  0  0  0  0  0  0  0  0  0  0  0  0
  145.5116  139.0473  152.3835 H   0  0  0  0  0  0  0  0  0  0  0  0
  145.8733  135.6261  153.8346 H   0  0  0  0  0  0  0  0  0  0  0  0
  145.8085  134.9830  151.5355 H   0  0  0  0  0  0  0  0  0  0  0  0
  147.2679  136.8169  151.5976 H   0  0  0  0  0  0  0  0  0  0  0  0
  149.3541  143.0945  158.2285 H   0  0  0  0  0  0  0  0  0  0  0  0
  148.8550  141.4072  158.3168 H   0  0  0  0  0  0  0  0  0  0  0  0
  148.4680  142.3716  156.8928 H   0  0  0  0  0  0  0  0  0  0  0  0
  150.8565  142.5740  156.3396 H   0  0  0  0  0  0  0  0  0  0  0  0
  151.1451  140.0153  155.9989 H   0  0  0  0  0  0  0  0  0  0  0  0
  147.3934  142.8032  153.8217 H   0  0  0  0  0  0  0  0  0  0  0  0
  147.8086  136.3888  154.1578 H   0  0  0  0  0  0  0  0  0  0  0  0
  143.6141  135.3773  154.8457 H   0  0  0  0  0  0  0  0  0  0  0  0
  142.8581  135.7520  153.3036 H   0  0  0  0  0  0  0  0  0  0  0  0
  143.3876  133.4218  154.0680 H   0  0  0  0  0  0  0  0  0  0  0  0
  143.9450  136.8817  150.7988 H   0  0  0  0  0  0  0  0  0  0  0  0
  145.1289  138.0213  150.2143 H   0  0  0  0  0  0  0  0  0  0  0  0
  151.4744  139.3956  158.0685 H   0  0  0  0  0  0  0  0  0  0  0  0
  153.2180  139.0489  159.7829 H   0  0  0  0  0  0  0  0  0  0  0  0
  154.3848  141.0001  160.7931 H   0  0  0  0  0  0  0  0  0  0  0  0
  153.7880  143.3039  160.0847 H   0  0  0  0  0  0  0  0  0  0  0  0
  1  2  1  0  0  0  0
  1 33  1  0  0  0  0
  1 34  1  0  0  0  0
  1 35  1  0  0  0  0
  2  3  1  0  0  0  0
  2 22  1  0  0  0  0
  2 36  1  0  0  0  0
  3  4  1  0  0  0  0
  3 37  1  0  0  0  0
  4  9  1  0  0  0  0
  4  5  2  0  0  0  0
  5  6  1  0  0  0  0
  6  7  2  0  0  0  0
  6 38  1  0  0  0  0
  7  8  1  0  0  0  0
  8 12  1  0  0  0  0
  8  9  2  0  0  0  0
  9 10  1  0  0  0  0
 10 11  2  0  0  0  0
 11 12  1  0  0  0  0
 11 39  1  0  0  0  0
 12 13  1  0  0  0  0
 13 29  1  0  0  0  0
 13 20  1  0  0  0  0
 13 14  1  0  0  0  0
 14 15  1  0  0  0  0
 15 30  1  0  0  0  0
 15 16  1  0  0  0  0
 15 18  1  0  0  0  0
 16 17  1  0  0  0  0
 16 40  1  0  0  0  0
 16 41  1  0  0  0  0
 17 42  1  0  0  0  0
 18 31  1  0  0  0  0
 18 19  1  0  0  0  0
 18 20  1  0  0  0  0
 19 43  1  0  0  0  0
 20 32  1  0  0  0  0
 20 21  1  0  0  0  0
 21 44  1  0  0  0  0
 22 27  1  0  0  0  0
 22 23  2  0  0  0  0
 23 24  1  0  0  0  0
 23 45  1  0  0  0  0
 24 25  2  0  0  0  0
 24 46  1  0  0  0  0
 25 26  1  0  0  0  0
 25 47  1  0  0  0  0
 26 27  2  0  0  0  0
 26 48  1  0  0  0  0
 27 28  1  0  0  0  0
M  END
> <s_m_source_file>
AV-unprocessed.smi

> <i_m_source_file_index>
283

> <i_lp_mmshare_version>
43012

> <i_f3d_flags>
0

> <s_epik_input>
Q2xjMVtjSF1bY0hdW2NIXVtjSF1jMVtDQEhdKFtDSDNdKVtOSF1jKG5bY0hdbjIpYyhjMjMpbltjSF1uM1tDQEBIXTRPW0NASF0oW0NIMl1bT0hdKVtDQEBIXShbT0hdKVtDQEhdNFtPSF0=

> <s_epik_cmdline>
J2VwaWtfcHl0aG9uJywgJy1waCcsICc3LjAnLCAnLXRuJywgJzgnLCAnLW1hJywgJzIwMCcsICctbWV0YWxfYmluZGluZycsICctaW1hZScsICc8aW5maWxlLm1hZT4nLCAnLW9tYWUnLCAnPG91dGZpbGUubWFlPic=

> <r_lp_tautomer_probability>
1

> <r_epik_Ionization_Penalty>
0.000266407

> <r_epik_Ionization_Penalty_Charging>
0

> <r_epik_Ionization_Penalty_Neutral>
0.000266407

> <r_epik_State_Penalty>
-0

> <r_epik_Charging_Adjusted_Penalty>
0

> <i_epik_Tot_Q>
0

> <i_epik_Tot_abs_Q>
0

> <r_epik_Metal_State_Penalty>
-0

> <b_epik_Metal_Only>
0

> <s_epik_Chemistry_Notes>
This compound contains an acetal/aminal-like group ( X-CH(R)-Y where X, Y are N, S, or O) that may be acid/base labile, releasing an aldehyde.

> <s_lp_Force_Field>
OPLS_2005

> <r_lp_Energy>
46.6771

> <b_lp_Chiralities_Consistent>
1

> <s_lp_Variant>
AV-unprocessed.smi:283-5

> <Gold.Version>
5.8.1

> <Gold.Id.Protein>
6NUR|6NUR_protein|mol2

> <Gold.PLP.Fitness>
51.9267

> <Gold.PLP.PLP>
-42.4914

> <Gold.PLP.part.hbond>
-3.8253

> <Gold.PLP.part.metal>
0.0000

> <Gold.PLP.part.buried>
-2.4913

> <Gold.PLP.part.nonpolar>
-38.7789

> <Gold.PLP.part.repulsive>
1.3532

> <Gold.PLP.ligand.clash>
0.0000

> <Gold.PLP.ligand.torsion>
0.9526

> <Gold.PLP.Chemscore.Hbond>
3.4628

> <Gold.PLP.Chemscore.CHOScore>
0.2910

> <Gold.PLP.Chemscore.Metal>
0.0000

> <Gold.Chemscore.Hbonds>
donor molecule, donor type, donor heavy atom, donor atom, acceptor molecule, acceptor atom, score
      L1  H    17    42       P1 10957  1.00
      L1  H    19    43       P1 10171  1.00
      L1  H    21    44       P1 10171  0.73
      P1  H  7954  7966       L1    21  0.33
      L1  C    11    39       P1  7948  0.26

> <Gold.PLP.Chemscore.Internal.Correction>
0.0792

> <Gold.Rescore>
     Score         DG    S(hbond)    S(metal)    S(lipo)     H(rot)  DE(clash)    DE(int)     intcor
     12.54     -14.93       2.79        0.00      90.65       4.10       0.63       1.76       ----

> <Gold.Chemscore.Fitness>
12.5419

> <Gold.Chemscore.DG>
-14.9260

> <Gold.Chemscore.ZeroCoef>
-5.4800

> <Gold.Chemscore.Hbond>
2.7927

> <Gold.Chemscore.Metal>
0.0000

> <Gold.Chemscore.Lipo>
90.6530

> <Gold.Chemscore.Internal_Hbond>
0.0000

> <Gold.Chemscore.DEClash>
0.6270

> <Gold.Chemscore.DEInternal>
1.7571

> <Gold.Chemscore.Rot>
4.0968

> <Gold.Chemscore.Internal.Correction>
   9.000000E+99

> <Gold.Chemscore.Hbonds>
donor molecule, donor type, donor heavy atom, donor atom, acceptor molecule, acceptor atom, score
      L1  H    17    42       P1 10957  0.95
      L1  H    19    43       P1 10171  0.98
      L1  H    21    44       P1 10171  0.73
      P1  H  7954  7966       L1    21  0.03

> <Gold.Chemscore.Hbond.Weighted>
-9.3275

> <Gold.Chemscore.Metal.Weighted>
-0.0000

> <Gold.Chemscore.Lipo.Weighted>
-10.6064

> <Gold.Chemscore.Internal_Hbond.Weighted>
0.0000

> <Gold.Chemscore.DEClash.Weighted>
0.6270

> <Gold.Chemscore.DEInternal.Weighted>
1.7571

> <Gold.Chemscore.Rot.Weighted>
10.4879

> <Gold.Chemscore.Internal.Correction.Weighted>
   9.000000E+99

> <Gold.Protein.RotatedTorsions>
[ 6907 6896 6895 6894 ] final -112.73 input  -60.11 | X-H torsion
[ 7974 7965 7964 7962 ] final   87.64 input  175.53 | X-H torsion
[ 8008 7997 7996 7995 ] final  123.57 input   59.86 | X-H torsion
[ 10167 10162 10161 10158 ] final   18.00 input  -65.29 | X-H torsion
[ 10718 10713 10712 10709 ] final  -60.80 input   66.30 | X-H torsion
[ 10763 10752 10751 10750 ] final  -35.32 input  -60.55 | X-H torsion
[ 11005 11000 10999 10996 ] final  -53.17 input  -57.11 | X-H torsion

> <Gold.Protein.ActiveResidues>
 VAL166  LYS551  ARG553  GLY616  TRP617  ASP618  TYR619  PRO620  LYS621  CYS622 
 ASP623  PHE694  ASN695  SER759  ASP760  ASP761  ALA762  ILE779  LEU786  VAL792 
 PHE793  MET794  SER795  GLU796  ALA797  LYS798  CYS799  TRP800  GLU811  SER814 

> <Gold.Protein.RotatedAtoms>
  150.7779  133.9047  159.3351 H   0  0  0  0  0  0  0  0  0  0  0  0  # atno 6907 bound_to 6896
  151.6917  135.0943  160.0244 H   0  0  0  0  0  0  0  0  0  0  0  0  # atno 6908 bound_to 6896
  152.3821  133.6522  159.6205 H   0  0  0  0  0  0  0  0  0  0  0  0  # atno 6909 bound_to 6896
  145.5562  139.2300  143.2485 H   0  0  0  0  0  0  0  0  0  0  0  0  # atno 7974 bound_to 7965
  156.2770  140.2760  156.1648 H   0  0  0  0  0  0  0  0  0  0  0  0  # atno 8008 bound_to 7997
  155.0716  140.0387  157.2628 H   0  0  0  0  0  0  0  0  0  0  0  0  # atno 8009 bound_to 7997
  154.7035  140.2654  155.6702 H   0  0  0  0  0  0  0  0  0  0  0  0  # atno 8010 bound_to 7997
  140.5685  143.9205  150.6695 H   0  0  0  0  0  0  0  0  0  0  0  0  # atno 10167 bound_to 10162
  156.0965  130.4192  150.0905 H   0  0  0  0  0  0  0  0  0  0  0  0  # atno 10718 bound_to 10713
  153.8613  135.6840  153.4782 H   0  0  0  0  0  0  0  0  0  0  0  0  # atno 10763 bound_to 10752
  153.1340  135.4685  154.9391 H   0  0  0  0  0  0  0  0  0  0  0  0  # atno 10764 bound_to 10752
  154.7757  135.3252  154.8046 H   0  0  0  0  0  0  0  0  0  0  0  0  # atno 10765 bound_to 10752
  141.0962  133.6624  156.4133 H   0  0  0  0  0  0  0  0  0  0  0  0  # atno 11005 bound_to 11000
  146.1882  140.6386  142.9157 LP  0  0  0  0  0  0  0  0  0  0  0  0  # atno 17320 bound_to 7965
  144.7505  140.5178  143.6805 LP  0  0  0  0  0  0  0  0  0  0  0  0  # atno 17321 bound_to 7965
  140.2674  143.3480  152.1268 LP  0  0  0  0  0  0  0  0  0  0  0  0  # atno 17342 bound_to 10162
  139.5105  144.6885  151.5822 LP  0  0  0  0  0  0  0  0  0  0  0  0  # atno 17343 bound_to 10162
  156.8903  130.9586  151.3589 LP  0  0  0  0  0  0  0  0  0  0  0  0  # atno 17370 bound_to 10713
  157.6127  130.8595  149.8978 LP  0  0  0  0  0  0  0  0  0  0  0  0  # atno 17371 bound_to 10713
  140.5133  134.6374  157.5292 LP  0  0  0  0  0  0  0  0  0  0  0  0  # atno 17394 bound_to 11000
  139.9800  134.7153  155.9878 LP  0  0  0  0  0  0  0  0  0  0  0  0  # atno 17395 bound_to 11000

$$$$
