AV-unprocessed.smi:315|AV-procd|sdf|2318|dock6
  -GOLD-   2262022223D 1   1.00000     0.00000
 Structure written by MMmdl.
 47 49  0  0  0  0  0  0  0  0  2 V2000
  152.4048  138.0391  154.1922 C   0  0  0  0  0  0  0  0  0  0  0  0
  151.1431  138.1048  155.0562 C   0  0  0  0  0  0  0  0  0  0  0  0
  150.0150  138.2300  154.1972 O   0  0  0  0  0  0  0  0  0  0  0  0
  149.3434  139.4369  154.1500 C   0  0  0  0  0  0  0  0  0  0  0  0
  149.9223  140.5241  154.7179 N   0  0  0  0  0  0  0  0  0  0  0  0
  149.2624  141.6997  154.6709 C   0  0  0  0  0  0  0  0  0  0  0  0
  147.9996  141.8512  154.0682 C   0  0  0  0  0  0  0  0  0  0  0  0
  147.3970  140.7243  153.4790 C   0  0  0  0  0  0  0  0  0  0  0  0
  148.0850  139.4875  153.5079 C   0  0  0  0  0  0  0  0  0  0  0  0
  147.5726  138.2801  152.9625 N   0  0  0  0  0  0  0  0  0  0  0  0
  146.3136  137.9814  152.5899 C   0  0  0  0  0  0  0  0  0  0  0  0
  145.3424  138.7199  152.7335 O   0  0  0  0  0  0  0  0  0  0  0  0
  146.1904  136.7723  152.0138 N   0  0  0  0  0  0  0  0  0  0  0  0
  144.9724  136.1444  151.4983 C   0  0  2  0  0  0  0  0  0  0  0  0
  143.7390  136.3085  152.4104 C   0  0  0  0  0  0  0  0  0  0  0  0
  142.9896  134.9641  152.3344 C   0  0  0  0  0  0  0  0  0  0  0  0
  143.7306  134.1605  151.3439 N   0  3  2  0  0  0  0  0  0  0  0  0
  143.6134  132.6893  151.4437 C   0  0  0  0  0  0  0  0  0  0  0  0
  144.3899  132.0379  150.2813 C   0  0  0  0  0  0  0  0  0  0  0  0
  145.8479  132.5377  150.2146 C   0  0  0  0  0  0  0  0  0  0  0  0
  145.9081  134.0773  150.2056 C   0  0  0  0  0  0  0  0  0  0  0  0
  145.1239  134.6268  151.4082 C   0  0  1  0  0  0  0  0  0  0  0  0
  153.2966  137.9426  154.8114 H   0  0  0  0  0  0  0  0  0  0  0  0
  152.5121  138.9409  153.5891 H   0  0  0  0  0  0  0  0  0  0  0  0
  152.3723  137.1843  153.5162 H   0  0  0  0  0  0  0  0  0  0  0  0
  151.0630  137.1994  155.6601 H   0  0  0  0  0  0  0  0  0  0  0  0
  151.2066  138.9594  155.7318 H   0  0  0  0  0  0  0  0  0  0  0  0
  149.7526  142.5439  155.1327 H   0  0  0  0  0  0  0  0  0  0  0  0
  147.5023  142.8098  154.0617 H   0  0  0  0  0  0  0  0  0  0  0  0
  146.4207  140.8289  153.0324 H   0  0  0  0  0  0  0  0  0  0  0  0
  148.2718  137.5902  152.7302 H   0  0  0  0  0  0  0  0  0  0  0  0
  147.0383  136.2308  151.9247 H   0  0  0  0  0  0  0  0  0  0  0  0
  144.7434  136.5342  150.5042 H   0  0  0  0  0  0  0  0  0  0  0  0
  144.0310  136.5091  153.4423 H   0  0  0  0  0  0  0  0  0  0  0  0
  143.1134  137.1389  152.0804 H   0  0  0  0  0  0  0  0  0  0  0  0
  143.0078  134.4710  153.3076 H   0  0  0  0  0  0  0  0  0  0  0  0
  141.9483  135.0846  152.0345 H   0  0  0  0  0  0  0  0  0  0  0  0
  144.0059  132.3492  152.4033 H   0  0  0  0  0  0  0  0  0  0  0  0
  142.5624  132.4016  151.4037 H   0  0  0  0  0  0  0  0  0  0  0  0
  144.3711  130.9522  150.3809 H   0  0  0  0  0  0  0  0  0  0  0  0
  143.8891  132.2685  149.3401 H   0  0  0  0  0  0  0  0  0  0  0  0
  146.3998  132.1586  151.0757 H   0  0  0  0  0  0  0  0  0  0  0  0
  146.3427  132.1371  149.3293 H   0  0  0  0  0  0  0  0  0  0  0  0
  146.9449  134.4127  150.2432 H   0  0  0  0  0  0  0  0  0  0  0  0
  145.4877  134.4595  149.2744 H   0  0  0  0  0  0  0  0  0  0  0  0
  145.5710  134.2556  152.3338 H   0  0  0  0  0  0  0  0  0  0  0  0
  143.3808  134.4301  150.4355 H   0  0  0  0  0  0  0  0  0  0  0  0
  1  2  1  0  0  0  0
  1 23  1  0  0  0  0
  1 24  1  0  0  0  0
  1 25  1  0  0  0  0
  2  3  1  0  0  0  0
  2 26  1  0  0  0  0
  2 27  1  0  0  0  0
  3  4  1  0  0  0  0
  4  9  1  0  0  0  0
  4  5  2  0  0  0  0
  5  6  1  0  0  0  0
  6  7  2  0  0  0  0
  6 28  1  0  0  0  0
  7  8  1  0  0  0  0
  7 29  1  0  0  0  0
  8  9  2  0  0  0  0
  8 30  1  0  0  0  0
  9 10  1  0  0  0  0
 10 11  1  0  0  0  0
 10 31  1  0  0  0  0
 11 12  2  0  0  0  0
 11 13  1  0  0  0  0
 13 14  1  0  0  0  0
 13 32  1  0  0  0  0
 14 22  1  0  0  0  0
 14 15  1  0  0  0  0
 14 33  1  0  0  0  0
 15 16  1  0  0  0  0
 15 34  1  0  0  0  0
 15 35  1  0  0  0  0
 16 17  1  0  0  0  0
 16 36  1  0  0  0  0
 16 37  1  0  0  0  0
 17 22  1  0  0  0  0
 17 18  1  0  0  0  0
 17 47  1  0  0  0  0
 18 19  1  0  0  0  0
 18 38  1  0  0  0  0
 18 39  1  0  0  0  0
 19 20  1  0  0  0  0
 19 40  1  0  0  0  0
 19 41  1  0  0  0  0
 20 21  1  0  0  0  0
 20 42  1  0  0  0  0
 20 43  1  0  0  0  0
 21 22  1  0  0  0  0
 21 44  1  0  0  0  0
 21 45  1  0  0  0  0
 22 46  1  0  0  0  0
M  CHG  1  17   1
M  END
> <s_m_source_file>
AV-unprocessed.smi

> <i_m_source_file_index>
315

> <i_lp_mmshare_version>
43012

> <i_f3d_flags>
0

> <s_epik_input>
W0NIM11bQ0gyXU9jMW5bY0hdW2NIXVtjSF1jMVtOSF1DKD1PKVtOSF1bQ0BIXShbQ0gyXVtDSDJdMilbQ0BASF0oTjIzKVtDSDJdW0NIMl1bQ0gyXVtDSDJdMw==

> <s_epik_cmdline>
J2VwaWtfcHl0aG9uJywgJy1waCcsICc3LjAnLCAnLXRuJywgJzgnLCAnLW1hJywgJzIwMCcsICctbWV0YWxfYmluZGluZycsICctaW1hZScsICc8aW5maWxlLm1hZT4nLCAnLW9tYWUnLCAnPG91dGZpbGUubWFlPic=

> <r_lp_tautomer_probability>
1

> <r_epik_Ionization_Penalty>
0.00106455

> <r_epik_Ionization_Penalty_Charging>
0.000974069

> <r_epik_Ionization_Penalty_Neutral>
9.04821e-05

> <r_epik_State_Penalty>
0.000633842

> <r_epik_Charging_Adjusted_Penalty>
0.00160791

> <i_epik_Tot_Q>
1

> <i_epik_Tot_abs_Q>
1

> <r_epik_Metal_State_Penalty>
-0

> <b_epik_Metal_Only>
0

> <s_lp_Force_Field>
OPLS_2005

> <r_lp_Energy>
47.5763

> <b_lp_Chiralities_Consistent>
1

> <s_lp_Variant>
AV-unprocessed.smi:315-3

> <Gold.Version>
5.8.1

> <Gold.Id.Protein>
6NUR|6NUR_protein|mol2

> <Gold.PLP.Fitness>
43.6381

> <Gold.PLP.PLP>
-34.4181

> <Gold.PLP.part.hbond>
-3.5740

> <Gold.PLP.part.metal>
0.0000

> <Gold.PLP.part.buried>
2.5327

> <Gold.PLP.part.nonpolar>
-35.8514

> <Gold.PLP.part.repulsive>
5.0620

> <Gold.PLP.ligand.clash>
0.0000

> <Gold.PLP.ligand.torsion>
0.8007

> <Gold.PLP.Chemscore.Hbond>
2.6178

> <Gold.PLP.Chemscore.CHOScore>
0.9856

> <Gold.PLP.Chemscore.Metal>
0.0000

> <Gold.Chemscore.Hbonds>
donor molecule, donor type, donor heavy atom, donor atom, acceptor molecule, acceptor atom, score
      L1  H    10    31       P1  7948  1.00
      L1  H    13    32       P1  7948  0.96
      P1  H  7989  7998       L1     5  0.69
      L1  C     6    28       P1  8028  0.99

> <Gold.PLP.Chemscore.Internal.Correction>
0.0111

> <Gold.Rescore>
     Score         DG    S(hbond)    S(metal)    S(lipo)     H(rot)  DE(clash)    DE(int)     intcor
     13.70     -19.34       1.84        0.00      95.99       1.38       2.48       3.16       ----

> <Gold.Chemscore.Fitness>
13.6992

> <Gold.Chemscore.DG>
-19.3433

> <Gold.Chemscore.ZeroCoef>
-5.4800

> <Gold.Chemscore.Hbond>
1.8435

> <Gold.Chemscore.Metal>
0.0000

> <Gold.Chemscore.Lipo>
95.9919

> <Gold.Chemscore.Internal_Hbond>
0.0000

> <Gold.Chemscore.DEClash>
2.4806

> <Gold.Chemscore.DEInternal>
3.1635

> <Gold.Chemscore.Rot>
1.3770

> <Gold.Chemscore.Internal.Correction>
   9.000000E+99

> <Gold.Chemscore.Hbonds>
donor molecule, donor type, donor heavy atom, donor atom, acceptor molecule, acceptor atom, score
      L1  H    10    31       P1  7948  0.99
      L1  H    13    32       P1  7948  0.92
      P1  H  7989  7998       L1     5  0.12

> <Gold.Chemscore.Hbond.Weighted>
-6.1574

> <Gold.Chemscore.Metal.Weighted>
-0.0000

> <Gold.Chemscore.Lipo.Weighted>
-11.2310

> <Gold.Chemscore.Internal_Hbond.Weighted>
0.0000

> <Gold.Chemscore.DEClash.Weighted>
2.4806

> <Gold.Chemscore.DEInternal.Weighted>
3.1635

> <Gold.Chemscore.Rot.Weighted>
3.5252

> <Gold.Chemscore.Internal.Correction.Weighted>
   9.000000E+99

> <Gold.Protein.RotatedTorsions>
[ 6907 6896 6895 6894 ] final  110.83 input  -60.11 | X-H torsion
[ 7974 7965 7964 7962 ] final -178.20 input  175.53 | X-H torsion
[ 8008 7997 7996 7995 ] final  -80.13 input   59.86 | X-H torsion
[ 10167 10162 10161 10158 ] final   78.72 input  -65.29 | X-H torsion
[ 10718 10713 10712 10709 ] final  105.75 input   66.30 | X-H torsion
[ 10763 10752 10751 10750 ] final -173.55 input  -60.55 | X-H torsion
[ 11005 11000 10999 10996 ] final  -44.95 input  -57.11 | X-H torsion

> <Gold.Protein.ActiveResidues>
 VAL166  LYS551  ARG553  GLY616  TRP617  ASP618  TYR619  PRO620  LYS621  CYS622 
 ASP623  PHE694  ASN695  SER759  ASP760  ASP761  ALA762  ILE779  LEU786  VAL792 
 PHE793  MET794  SER795  GLU796  ALA797  LYS798  CYS799  TRP800  GLU811  SER814 

> <Gold.Protein.RotatedAtoms>
  152.5000  133.8744  159.7314 H   0  0  0  0  0  0  0  0  0  0  0  0  # atno 6907 bound_to 6896
  150.9222  133.6857  159.2836 H   0  0  0  0  0  0  0  0  0  0  0  0  # atno 6908 bound_to 6896
  151.4230  135.1005  159.9672 H   0  0  0  0  0  0  0  0  0  0  0  0  # atno 6909 bound_to 6896
  144.7130  140.0904  143.6421 H   0  0  0  0  0  0  0  0  0  0  0  0  # atno 7974 bound_to 7965
  154.5853  140.0667  156.9162 H   0  0  0  0  0  0  0  0  0  0  0  0  # atno 8008 bound_to 7997
  155.2390  140.3343  155.4276 H   0  0  0  0  0  0  0  0  0  0  0  0  # atno 8009 bound_to 7997
  156.2218  140.1802  156.7443 H   0  0  0  0  0  0  0  0  0  0  0  0  # atno 8010 bound_to 7997
  139.9679  144.5915  150.8012 H   0  0  0  0  0  0  0  0  0  0  0  0  # atno 10167 bound_to 10162
  157.6694  131.0835  150.5904 H   0  0  0  0  0  0  0  0  0  0  0  0  # atno 10718 bound_to 10713
  154.6065  135.2860  155.0479 H   0  0  0  0  0  0  0  0  0  0  0  0  # atno 10763 bound_to 10752
  154.1724  135.6470  153.5017 H   0  0  0  0  0  0  0  0  0  0  0  0  # atno 10764 bound_to 10752
  153.0177  135.5404  154.6803 H   0  0  0  0  0  0  0  0  0  0  0  0  # atno 10765 bound_to 10752
  141.0484  133.6752  156.2944 H   0  0  0  0  0  0  0  0  0  0  0  0  # atno 11005 bound_to 11000
  145.9625  139.2810  143.1147 LP  0  0  0  0  0  0  0  0  0  0  0  0  # atno 17320 bound_to 7965
  145.9205  140.9118  143.0407 LP  0  0  0  0  0  0  0  0  0  0  0  0  # atno 17321 bound_to 7965
  140.7532  143.3003  151.3097 LP  0  0  0  0  0  0  0  0  0  0  0  0  # atno 17342 bound_to 10162
  139.6503  144.0374  152.2621 LP  0  0  0  0  0  0  0  0  0  0  0  0  # atno 17343 bound_to 10162
  156.6204  130.4404  149.5824 LP  0  0  0  0  0  0  0  0  0  0  0  0  # atno 17370 bound_to 10713
  156.2360  130.6823  151.1510 LP  0  0  0  0  0  0  0  0  0  0  0  0  # atno 17371 bound_to 10713
  140.6103  134.5465  157.5532 LP  0  0  0  0  0  0  0  0  0  0  0  0  # atno 17394 bound_to 11000
  139.9330  134.7928  156.0879 LP  0  0  0  0  0  0  0  0  0  0  0  0  # atno 17395 bound_to 11000

$$$$
