AV-unprocessed.smi:3195|AV-procd|sdf|12213|dock2
  -GOLD-   2272018 53D 1   1.00000     0.00000
 Structure written by MMmdl.
 30 31  0  0  0  0  0  0  0  0  1 V2000
  149.5232  140.6820  154.6965 C   0  0  0  0  0  0  0  0  0  0  0  0
  150.5460  139.8181  155.4540 C   0  0  1  0  0  0  0  0  0  0  0  0
  150.7934  140.3910  156.8664 C   0  0  0  0  0  0  0  0  0  0  0  0
  150.5371  139.6929  157.8484 O   0  0  0  0  0  0  0  0  0  0  0  0
  151.2774  141.6462  156.9367 N   0  0  0  0  0  0  0  0  0  0  0  0
  151.6029  142.4115  158.0902 C   0  0  0  0  0  0  0  0  0  0  0  0
  151.8916  141.8526  159.2923 N   0  0  0  0  0  0  0  0  0  0  0  0
  152.1898  142.6498  160.3391 C   0  0  0  0  0  0  0  0  0  0  0  0
  152.2200  144.0531  160.2533 C   0  0  0  0  0  0  0  0  0  0  0  0
  151.9241  144.6468  159.0139 C   0  0  0  0  0  0  0  0  0  0  0  0
  151.6114  143.8193  157.9167 C   0  0  0  0  0  0  0  0  0  0  0  0
  151.3227  144.3907  156.7081 O   0  0  0  0  0  0  0  0  0  0  0  0
  150.1233  138.3309  155.5056 C   0  0  0  0  0  0  0  0  0  0  0  0
  151.1543  137.6131  154.6533 C   0  0  0  0  0  0  0  0  0  0  0  0
  152.3574  138.5372  154.7423 C   0  0  0  0  0  0  0  0  0  0  0  0
  151.7631  139.8257  154.6994 O   0  0  0  0  0  0  0  0  0  0  0  0
  148.5533  140.6854  155.1954 H   0  0  0  0  0  0  0  0  0  0  0  0
  149.3705  140.3081  153.6836 H   0  0  0  0  0  0  0  0  0  0  0  0
  149.8596  141.7165  154.6159 H   0  0  0  0  0  0  0  0  0  0  0  0
  151.4365  142.1096  156.0535 H   0  0  0  0  0  0  0  0  0  0  0  0
  152.4108  142.1535  161.2723 H   0  0  0  0  0  0  0  0  0  0  0  0
  152.4638  144.6562  161.1153 H   0  0  0  0  0  0  0  0  0  0  0  0
  151.9369  145.7216  158.9081 H   0  0  0  0  0  0  0  0  0  0  0  0
  150.4120  144.6267  156.6172 H   0  0  0  0  0  0  0  0  0  0  0  0
  150.1568  137.9333  156.5216 H   0  0  0  0  0  0  0  0  0  0  0  0
  149.1121  138.1636  155.1327 H   0  0  0  0  0  0  0  0  0  0  0  0
  151.3670  136.6013  154.9991 H   0  0  0  0  0  0  0  0  0  0  0  0
  150.8080  137.5559  153.6205 H   0  0  0  0  0  0  0  0  0  0  0  0
  152.8861  138.4021  155.6873 H   0  0  0  0  0  0  0  0  0  0  0  0
  153.0644  138.3919  153.9255 H   0  0  0  0  0  0  0  0  0  0  0  0
  1  2  1  0  0  0  0
  1 17  1  0  0  0  0
  1 18  1  0  0  0  0
  1 19  1  0  0  0  0
  2 16  1  0  0  0  0
  2  3  1  0  0  0  0
  2 13  1  0  0  0  0
  3  4  2  0  0  0  0
  3  5  1  0  0  0  0
  5  6  1  0  0  0  0
  5 20  1  0  0  0  0
  6 11  1  0  0  0  0
  6  7  2  0  0  0  0
  7  8  1  0  0  0  0
  8  9  2  0  0  0  0
  8 21  1  0  0  0  0
  9 10  1  0  0  0  0
  9 22  1  0  0  0  0
 10 11  2  0  0  0  0
 10 23  1  0  0  0  0
 11 12  1  0  0  0  0
 12 24  1  0  0  0  0
 13 14  1  0  0  0  0
 13 25  1  0  0  0  0
 13 26  1  0  0  0  0
 14 15  1  0  0  0  0
 14 27  1  0  0  0  0
 14 28  1  0  0  0  0
 15 16  1  0  0  0  0
 15 29  1  0  0  0  0
 15 30  1  0  0  0  0
M  END
> <s_m_source_file>
AV-unprocessed.smi

> <i_m_source_file_index>
3195

> <i_lp_mmshare_version>
43012

> <i_f3d_flags>
0

> <s_epik_input>
TzFbQ0gyXVtDSDJdW0NIMl1bQ0BAXTEoW0NIM10pQyg9TylbTkhdYzJuW2NIXVtjSF1bY0hdYzJbT0hd

> <s_epik_cmdline>
J2VwaWtfcHl0aG9uJywgJy1waCcsICc3LjAnLCAnLXRuJywgJzgnLCAnLW1hJywgJzIwMCcsICctbWV0YWxfYmluZGluZycsICctaW1hZScsICc8aW5maWxlLm1hZT4nLCAnLW9tYWUnLCAnPG91dGZpbGUubWFlPic=

> <r_lp_tautomer_probability>
0.43658

> <r_epik_Ionization_Penalty>
0.0203228

> <r_epik_Ionization_Penalty_Charging>
0

> <r_epik_Ionization_Penalty_Neutral>
0.0203228

> <r_epik_State_Penalty>
0.430346

> <r_epik_Charging_Adjusted_Penalty>
0.430346

> <i_epik_Tot_Q>
0

> <i_epik_Tot_abs_Q>
0

> <r_epik_Metal_State_Penalty>
0.387439

> <b_epik_Metal_Only>
0

> <s_lp_Force_Field>
OPLS_2005

> <r_lp_Energy>
21.434

> <b_lp_Chiralities_Consistent>
1

> <s_lp_Variant>
AV-unprocessed.smi:3195-1

> <Gold.Version>
5.8.1

> <Gold.Id.Protein>
6NUR|6NUR_protein|mol2

> <Gold.PLP.Fitness>
41.0688

> <Gold.PLP.PLP>
-35.3286

> <Gold.PLP.part.hbond>
-1.8881

> <Gold.PLP.part.metal>
0.0000

> <Gold.PLP.part.buried>
-4.0427

> <Gold.PLP.part.nonpolar>
-29.6419

> <Gold.PLP.part.repulsive>
0.1562

> <Gold.PLP.ligand.clash>
0.0000

> <Gold.PLP.ligand.torsion>
0.1458

> <Gold.PLP.Chemscore.Hbond>
2.0000

> <Gold.PLP.Chemscore.CHOScore>
0.0000

> <Gold.PLP.Chemscore.Metal>
0.0000

> <Gold.Chemscore.Hbonds>
donor molecule, donor type, donor heavy atom, donor atom, acceptor molecule, acceptor atom, score
      L1  H    12    24       P1  8028  1.00
      P1  H  7989  7998       L1    16  1.00

> <Gold.PLP.Chemscore.Internal.Correction>
0.0318

> <Gold.Rescore>
     Score         DG    S(hbond)    S(metal)    S(lipo)     H(rot)  DE(clash)    DE(int)     intcor
     16.43     -17.84       1.97        0.00      81.32       1.46       0.03       1.38       ----

> <Gold.Chemscore.Fitness>
16.4317

> <Gold.Chemscore.DG>
-17.8444

> <Gold.Chemscore.ZeroCoef>
-5.4800

> <Gold.Chemscore.Hbond>
1.9742

> <Gold.Chemscore.Metal>
0.0000

> <Gold.Chemscore.Lipo>
81.3211

> <Gold.Chemscore.Internal_Hbond>
0.0000

> <Gold.Chemscore.DEClash>
0.0301

> <Gold.Chemscore.DEInternal>
1.3826

> <Gold.Chemscore.Rot>
1.4625

> <Gold.Chemscore.Internal.Correction>
   9.000000E+99

> <Gold.Chemscore.Hbonds>
donor molecule, donor type, donor heavy atom, donor atom, acceptor molecule, acceptor atom, score
      L1  H    12    24       P1  8028  0.89
      P1  H  7989  7998       L1    16  0.74

> <Gold.Chemscore.Hbond.Weighted>
-6.5938

> <Gold.Chemscore.Metal.Weighted>
-0.0000

> <Gold.Chemscore.Lipo.Weighted>
-9.5146

> <Gold.Chemscore.Internal_Hbond.Weighted>
0.0000

> <Gold.Chemscore.DEClash.Weighted>
0.0301

> <Gold.Chemscore.DEInternal.Weighted>
1.3826

> <Gold.Chemscore.Rot.Weighted>
3.7440

> <Gold.Chemscore.Internal.Correction.Weighted>
   9.000000E+99

> <Gold.Protein.RotatedTorsions>
[ 6907 6896 6895 6894 ] final -177.31 input  -60.11 | X-H torsion
[ 7974 7965 7964 7962 ] final  -83.50 input  175.53 | X-H torsion
[ 8008 7997 7996 7995 ] final  -67.42 input   59.86 | X-H torsion
[ 10167 10162 10161 10158 ] final  158.57 input  -65.29 | X-H torsion
[ 10718 10713 10712 10709 ] final   63.29 input   66.30 | X-H torsion
[ 10763 10752 10751 10750 ] final -124.31 input  -60.55 | X-H torsion
[ 11005 11000 10999 10996 ] final -109.95 input  -57.11 | X-H torsion

> <Gold.Protein.ActiveResidues>
 VAL166  LYS551  ARG553  GLY616  TRP617  ASP618  TYR619  PRO620  LYS621  CYS622 
 ASP623  PHE694  ASN695  SER759  ASP760  ASP761  ALA762  ILE779  LEU786  VAL792 
 PHE793  MET794  SER795  GLU796  ALA797  LYS798  CYS799  TRP800  GLU811  SER814 

> <Gold.Protein.RotatedAtoms>
  151.6189  133.3341  159.3083 H   0  0  0  0  0  0  0  0  0  0  0  0  # atno 6907 bound_to 6896
  150.8116  134.7278  159.6705 H   0  0  0  0  0  0  0  0  0  0  0  0  # atno 6908 bound_to 6896
  152.4213  134.5955  160.0037 H   0  0  0  0  0  0  0  0  0  0  0  0  # atno 6909 bound_to 6896
  145.5191  140.9533  143.1665 H   0  0  0  0  0  0  0  0  0  0  0  0  # atno 7974 bound_to 7965
  154.4799  140.0893  156.7351 H   0  0  0  0  0  0  0  0  0  0  0  0  # atno 8008 bound_to 7997
  155.4499  140.3457  155.4281 H   0  0  0  0  0  0  0  0  0  0  0  0  # atno 8009 bound_to 7997
  156.1174  140.1464  156.9241 H   0  0  0  0  0  0  0  0  0  0  0  0  # atno 8010 bound_to 7997
  139.4827  144.4812  151.8442 H   0  0  0  0  0  0  0  0  0  0  0  0  # atno 10167 bound_to 10162
  157.5961  130.9097  149.9697 H   0  0  0  0  0  0  0  0  0  0  0  0  # atno 10718 bound_to 10713
  154.8721  135.4068  154.3085 H   0  0  0  0  0  0  0  0  0  0  0  0  # atno 10763 bound_to 10752
  153.3932  135.7015  153.6485 H   0  0  0  0  0  0  0  0  0  0  0  0  # atno 10764 bound_to 10752
  153.5258  135.3677  155.2624 H   0  0  0  0  0  0  0  0  0  0  0  0  # atno 10765 bound_to 10752
  141.0819  133.9205  157.2269 H   0  0  0  0  0  0  0  0  0  0  0  0  # atno 11005 bound_to 11000
  144.7686  139.6788  143.7204 LP  0  0  0  0  0  0  0  0  0  0  0  0  # atno 17320 bound_to 7965
  146.2118  139.5479  142.9676 LP  0  0  0  0  0  0  0  0  0  0  0  0  # atno 17321 bound_to 7965
  140.4288  144.2144  150.5887 LP  0  0  0  0  0  0  0  0  0  0  0  0  # atno 17342 bound_to 10162
  140.4800  143.2382  151.8968 LP  0  0  0  0  0  0  0  0  0  0  0  0  # atno 17343 bound_to 10162
  156.1024  130.3655  150.0194 LP  0  0  0  0  0  0  0  0  0  0  0  0  # atno 17370 bound_to 10713
  156.8307  130.9391  151.3637 LP  0  0  0  0  0  0  0  0  0  0  0  0  # atno 17371 bound_to 10713
  139.9634  135.0148  156.9322 LP  0  0  0  0  0  0  0  0  0  0  0  0  # atno 17394 bound_to 11000
  140.5449  134.0684  155.7352 LP  0  0  0  0  0  0  0  0  0  0  0  0  # atno 17395 bound_to 11000

$$$$
