AV-unprocessed.smi:589|AV-procd|sdf|3007|dock8
  -GOLD-   2262023513D 1   1.00000     0.00000
 Structure written by MMmdl.
 40 41  0  0  0  0  0  0  0  0  1 V2000
  151.9133  145.1628  158.8951 C   0  0  0  0  0  0  0  0  0  0  0  0
  152.2067  143.6774  158.8786 C   0  0  0  0  0  0  0  0  0  0  0  0
  153.0872  143.1012  159.8118 C   0  0  0  0  0  0  0  0  0  0  0  0
  153.3270  141.7132  159.7550 C   0  0  0  0  0  0  0  0  0  0  0  0
  154.2479  141.0975  160.7988 C   0  0  0  0  0  0  0  0  0  0  0  0
  152.6822  140.9462  158.7430 C   0  0  0  0  0  0  0  0  0  0  0  0
  152.8934  139.4567  158.6270 C   0  0  0  0  0  0  0  0  0  0  0  0
  151.7914  138.7207  158.4560 N   0  0  0  0  0  0  0  0  0  0  0  0
  154.0133  138.9578  158.7209 O   0  0  0  0  0  0  0  0  0  0  0  0
  151.7962  141.6283  157.8589 C   0  0  0  0  0  0  0  0  0  0  0  0
  151.1230  140.9405  156.8347 N   0  0  0  0  0  0  0  0  0  0  0  0
  150.0573  141.6925  156.1889 C   0  0  0  0  0  0  0  0  0  0  0  0
  149.2465  140.7581  155.2737 C   0  0  1  0  0  0  0  0  0  0  0  0
  148.1737  141.5163  154.4857 C   0  0  0  0  0  0  0  0  0  0  0  0
  150.1256  140.1291  154.3395 O   0  0  0  0  0  0  0  0  0  0  0  0
  151.1981  139.3854  154.9271 C   0  0  2  0  0  0  0  0  0  0  0  0
  150.7071  138.0830  155.5843 C   0  0  0  0  0  0  0  0  0  0  0  0
  152.0076  140.2848  155.8824 C   0  0  0  0  0  0  0  0  0  0  0  0
  151.5745  142.9624  157.9287 N   0  0  0  0  0  0  0  0  0  0  0  0
  152.4178  145.6574  159.7255 H   0  0  0  0  0  0  0  0  0  0  0  0
  150.8417  145.3367  158.9966 H   0  0  0  0  0  0  0  0  0  0  0  0
  152.2510  145.6253  157.9674 H   0  0  0  0  0  0  0  0  0  0  0  0
  153.5632  143.7132  160.5640 H   0  0  0  0  0  0  0  0  0  0  0  0
  153.8069  140.1975  161.2283 H   0  0  0  0  0  0  0  0  0  0  0  0
  154.4329  141.7920  161.6190 H   0  0  0  0  0  0  0  0  0  0  0  0
  155.2105  140.8401  160.3566 H   0  0  0  0  0  0  0  0  0  0  0  0
  151.8637  137.7176  158.3680 H   0  0  0  0  0  0  0  0  0  0  0  0
  150.8898  139.1731  158.4122 H   0  0  0  0  0  0  0  0  0  0  0  0
  149.4091  142.1355  156.9458 H   0  0  0  0  0  0  0  0  0  0  0  0
  150.4844  142.5105  155.6067 H   0  0  0  0  0  0  0  0  0  0  0  0
  148.7482  139.9987  155.8770 H   0  0  0  0  0  0  0  0  0  0  0  0
  147.4670  142.0051  155.1567 H   0  0  0  0  0  0  0  0  0  0  0  0
  147.6091  140.8383  153.8453 H   0  0  0  0  0  0  0  0  0  0  0  0
  148.6181  142.2828  153.8502 H   0  0  0  0  0  0  0  0  0  0  0  0
  151.8547  139.0967  154.1061 H   0  0  0  0  0  0  0  0  0  0  0  0
  151.5506  137.4763  155.9138 H   0  0  0  0  0  0  0  0  0  0  0  0
  150.1265  137.4869  154.8801 H   0  0  0  0  0  0  0  0  0  0  0  0
  150.0844  138.2696  156.4590 H   0  0  0  0  0  0  0  0  0  0  0  0
  152.5374  141.0459  155.3077 H   0  0  0  0  0  0  0  0  0  0  0  0
  152.7622  139.6998  156.4096 H   0  0  0  0  0  0  0  0  0  0  0  0
  1  2  1  0  0  0  0
  1 20  1  0  0  0  0
  1 21  1  0  0  0  0
  1 22  1  0  0  0  0
  2 19  1  0  0  0  0
  2  3  2  0  0  0  0
  3  4  1  0  0  0  0
  3 23  1  0  0  0  0
  4  5  1  0  0  0  0
  4  6  2  0  0  0  0
  5 24  1  0  0  0  0
  5 25  1  0  0  0  0
  5 26  1  0  0  0  0
  6  7  1  0  0  0  0
  6 10  1  0  0  0  0
  7  8  1  0  0  0  0
  7  9  2  0  0  0  0
  8 27  1  0  0  0  0
  8 28  1  0  0  0  0
 10 11  1  0  0  0  0
 10 19  2  0  0  0  0
 11 18  1  0  0  0  0
 11 12  1  0  0  0  0
 12 13  1  0  0  0  0
 12 29  1  0  0  0  0
 12 30  1  0  0  0  0
 13 14  1  0  0  0  0
 13 15  1  0  0  0  0
 13 31  1  0  0  0  0
 14 32  1  0  0  0  0
 14 33  1  0  0  0  0
 14 34  1  0  0  0  0
 15 16  1  0  0  0  0
 16 17  1  0  0  0  0
 16 18  1  0  0  0  0
 16 35  1  0  0  0  0
 17 36  1  0  0  0  0
 17 37  1  0  0  0  0
 17 38  1  0  0  0  0
 18 39  1  0  0  0  0
 18 40  1  0  0  0  0
M  END
> <s_m_source_file>
AV-unprocessed.smi

> <i_m_source_file_index>
589

> <i_lp_mmshare_version>
43012

> <i_f3d_flags>
0

> <s_epik_input>
W0NIM11jMVtjSF1jKFtDSDNdKWMoQyg9TylbTkgyXSljKG4xKU4yW0NIMl1bQ0BASF0oW0NIM10pT1tDQEBIXShbQ0gzXSlbQ0gyXTI=

> <s_epik_cmdline>
J2VwaWtfcHl0aG9uJywgJy1waCcsICc3LjAnLCAnLXRuJywgJzgnLCAnLW1hJywgJzIwMCcsICctbWV0YWxfYmluZGluZycsICctaW1hZScsICc8aW5maWxlLm1hZT4nLCAnLW9tYWUnLCAnPG91dGZpbGUubWFlPic=

> <r_lp_tautomer_probability>
1

> <r_epik_Ionization_Penalty>
0.000626871

> <r_epik_Ionization_Penalty_Charging>
0

> <r_epik_Ionization_Penalty_Neutral>
0.000626871

> <r_epik_State_Penalty>
0.000395665

> <r_epik_Charging_Adjusted_Penalty>
0.000395665

> <i_epik_Tot_Q>
0

> <i_epik_Tot_abs_Q>
0

> <r_epik_Metal_State_Penalty>
-0

> <b_epik_Metal_Only>
0

> <s_lp_Force_Field>
OPLS_2005

> <r_lp_Energy>
27.549

> <b_lp_Chiralities_Consistent>
1

> <s_lp_Variant>
AV-unprocessed.smi:589-3

> <Gold.Version>
5.8.1

> <Gold.Id.Protein>
6NUR|6NUR_protein|mol2

> <Gold.PLP.Fitness>
41.9808

> <Gold.PLP.PLP>
-40.3861

> <Gold.PLP.part.hbond>
-2.0000

> <Gold.PLP.part.metal>
0.0000

> <Gold.PLP.part.buried>
-4.5989

> <Gold.PLP.part.nonpolar>
-34.3353

> <Gold.PLP.part.repulsive>
0.2755

> <Gold.PLP.ligand.clash>
0.0000

> <Gold.PLP.ligand.torsion>
0.8755

> <Gold.PLP.Chemscore.Hbond>
1.0000

> <Gold.PLP.Chemscore.CHOScore>
0.0000

> <Gold.PLP.Chemscore.Metal>
0.0000

> <Gold.Chemscore.Hbonds>
donor molecule, donor type, donor heavy atom, donor atom, acceptor molecule, acceptor atom, score
      P1  H  7997  8009       L1     9  1.00

> <Gold.PLP.Chemscore.Internal.Correction>
0.3458

> <Gold.Rescore>
     Score         DG    S(hbond)    S(metal)    S(lipo)     H(rot)  DE(clash)    DE(int)     intcor
     16.13     -18.60       0.96        0.00     106.59       1.00       0.00       2.47       ----

> <Gold.Chemscore.Fitness>
16.1300

> <Gold.Chemscore.DG>
-18.5986

> <Gold.Chemscore.ZeroCoef>
-5.4800

> <Gold.Chemscore.Hbond>
0.9604

> <Gold.Chemscore.Metal>
0.0000

> <Gold.Chemscore.Lipo>
106.5874

> <Gold.Chemscore.Internal_Hbond>
0.0000

> <Gold.Chemscore.DEClash>
0.0030

> <Gold.Chemscore.DEInternal>
2.4656

> <Gold.Chemscore.Rot>
1.0000

> <Gold.Chemscore.Internal.Correction>
   9.000000E+99

> <Gold.Chemscore.Hbonds>
donor molecule, donor type, donor heavy atom, donor atom, acceptor molecule, acceptor atom, score
      P1  H  7997  8009       L1     9  0.24

> <Gold.Chemscore.Hbond.Weighted>
-3.2079

> <Gold.Chemscore.Metal.Weighted>
-0.0000

> <Gold.Chemscore.Lipo.Weighted>
-12.4707

> <Gold.Chemscore.Internal_Hbond.Weighted>
0.0000

> <Gold.Chemscore.DEClash.Weighted>
0.0030

> <Gold.Chemscore.DEInternal.Weighted>
2.4656

> <Gold.Chemscore.Rot.Weighted>
2.5600

> <Gold.Chemscore.Internal.Correction.Weighted>
   9.000000E+99

> <Gold.Protein.RotatedTorsions>
[ 6907 6896 6895 6894 ] final   12.65 input  -60.11 | X-H torsion
[ 7974 7965 7964 7962 ] final  -26.12 input  175.53 | X-H torsion
[ 8008 7997 7996 7995 ] final  126.03 input   59.86 | X-H torsion
[ 10167 10162 10161 10158 ] final  -83.44 input  -65.29 | X-H torsion
[ 10718 10713 10712 10709 ] final  140.43 input   66.30 | X-H torsion
[ 10763 10752 10751 10750 ] final  171.29 input  -60.55 | X-H torsion
[ 11005 11000 10999 10996 ] final   32.13 input  -57.11 | X-H torsion

> <Gold.Protein.ActiveResidues>
 VAL166  LYS551  ARG553  GLY616  TRP617  ASP618  TYR619  PRO620  LYS621  CYS622 
 ASP623  PHE694  ASN695  SER759  ASP760  ASP761  ALA762  ILE779  LEU786  VAL792 
 PHE793  MET794  SER795  GLU796  ALA797  LYS798  CYS799  TRP800  GLU811  SER814 

> <Gold.Protein.RotatedAtoms>
  151.7737  135.0780  160.0363 H   0  0  0  0  0  0  0  0  0  0  0  0  # atno 6907 bound_to 6896
  152.3271  133.5913  159.5792 H   0  0  0  0  0  0  0  0  0  0  0  0  # atno 6908 bound_to 6896
  150.7401  133.9840  159.3627 H   0  0  0  0  0  0  0  0  0  0  0  0  # atno 6909 bound_to 6896
  146.1446  140.4978  142.8637 H   0  0  0  0  0  0  0  0  0  0  0  0  # atno 7974 bound_to 7965
  156.2852  140.2702  156.2044 H   0  0  0  0  0  0  0  0  0  0  0  0  # atno 8008 bound_to 7997
  155.0328  140.0386  157.2498 H   0  0  0  0  0  0  0  0  0  0  0  0  # atno 8009 bound_to 7997
  154.7340  140.2712  155.6436 H   0  0  0  0  0  0  0  0  0  0  0  0  # atno 8010 bound_to 7997
  140.4226  143.2579  151.8869 H   0  0  0  0  0  0  0  0  0  0  0  0  # atno 10167 bound_to 10162
  157.4033  131.1019  151.0529 H   0  0  0  0  0  0  0  0  0  0  0  0  # atno 10718 bound_to 10713
  154.4097  135.2756  155.2044 H   0  0  0  0  0  0  0  0  0  0  0  0  # atno 10763 bound_to 10752
  154.4035  135.6039  153.5914 H   0  0  0  0  0  0  0  0  0  0  0  0  # atno 10764 bound_to 10752
  152.9831  135.5932  154.4377 H   0  0  0  0  0  0  0  0  0  0  0  0  # atno 10765 bound_to 10752
  140.2767  134.3020  155.7812 H   0  0  0  0  0  0  0  0  0  0  0  0  # atno 11005 bound_to 11000
  144.7832  140.5882  143.6592 LP  0  0  0  0  0  0  0  0  0  0  0  0  # atno 17320 bound_to 7965
  145.4967  139.1485  143.3680 LP  0  0  0  0  0  0  0  0  0  0  0  0  # atno 17321 bound_to 7965
  139.4783  144.5421  151.8512 LP  0  0  0  0  0  0  0  0  0  0  0  0  # atno 17342 bound_to 10162
  140.4517  144.1846  150.5898 LP  0  0  0  0  0  0  0  0  0  0  0  0  # atno 17343 bound_to 10162
  157.1520  130.6188  149.5585 LP  0  0  0  0  0  0  0  0  0  0  0  0  # atno 17370 bound_to 10713
  155.9829  130.4846  150.6907 LP  0  0  0  0  0  0  0  0  0  0  0  0  # atno 17371 bound_to 10713
  141.2169  133.7500  156.9417 LP  0  0  0  0  0  0  0  0  0  0  0  0  # atno 17394 bound_to 11000
  140.1322  134.9348  157.2353 LP  0  0  0  0  0  0  0  0  0  0  0  0  # atno 17395 bound_to 11000

$$$$
