AV-unprocessed.smi:234|AV-procd|sdf|1795|dock2
  -GOLD-   2262020363D 1   1.00000     0.00000
 Structure written by MMmdl.
 59 62  0  0  0  0  0  0  0  0  1 V2000
  146.9287  135.1290  162.0765 C   0  0  0  0  0  0  0  0  0  0  0  0
  147.5808  136.4998  162.2983 C   0  0  0  0  0  0  0  0  0  0  0  0
  147.4887  137.3376  161.1536 O   0  0  0  0  0  0  0  0  0  0  0  0
  148.1701  136.8573  160.0017 C   0  0  2  0  0  0  0  0  0  0  0  0
  148.3807  137.8887  158.8894 C   0  0  0  0  0  0  0  0  0  0  0  0
  148.0902  136.7390  157.9220 C   0  0  2  0  0  0  0  0  0  0  0  0
  147.3508  137.1515  156.7266 N   0  0  0  0  0  0  0  0  0  0  0  0
  148.0773  137.9690  155.7637 C   0  0  0  0  0  0  0  0  0  0  0  0
  146.6640  136.1708  156.0958 C   0  0  0  0  0  0  0  0  0  0  0  0
  145.3044  136.1700  156.1053 N   0  0  0  0  0  0  0  0  0  0  0  0
  144.6326  135.2051  155.4703 C   0  0  0  0  0  0  0  0  0  0  0  0
  145.1133  134.1684  154.7803 N   0  0  0  0  0  0  0  0  0  0  0  0
  146.4775  134.1627  154.7791 C   0  0  0  0  0  0  0  0  0  0  0  0
  147.3227  135.1125  155.4164 C   0  0  0  0  0  0  0  0  0  0  0  0
  148.6557  134.7850  155.2059 N   0  0  0  0  0  0  0  0  0  0  0  0
  148.6022  133.7036  154.4772 C   0  0  0  0  0  0  0  0  0  0  0  0
  147.3340  133.2693  154.1599 N   0  0  0  0  0  0  0  0  0  0  0  0
  146.9873  132.1152  153.3451 C   0  0  0  0  0  0  0  0  0  0  0  0
  146.5196  132.4898  151.9170 C   0  0  1  0  0  0  0  0  0  0  0  0
  147.5761  133.1802  151.2706 O   0  0  0  0  0  0  0  0  0  0  0  0
  146.1751  131.2538  151.0794 C   0  0  0  0  0  0  0  0  0  0  0  0
  144.6672  131.3496  150.8782 C   0  0  0  0  0  0  0  0  0  0  0  0
  144.4390  132.7467  150.8446 O   0  0  0  0  0  0  0  0  0  0  0  0
  145.2068  133.3164  151.8940 C   0  0  2  0  0  0  0  0  0  0  0  0
  145.3350  134.8377  151.7070 C   0  0  0  0  0  0  0  0  0  0  0  0
  147.2373  136.0745  159.0422 C   0  0  0  0  0  0  0  0  0  0  0  0
  147.3240  134.5518  159.1497 C   0  0  0  0  0  0  0  0  0  0  0  0
  145.7443  136.4464  159.1211 C   0  0  0  0  0  0  0  0  0  0  0  0
  147.1284  134.4684  162.9201 H   0  0  0  0  0  0  0  0  0  0  0  0
  147.3201  134.6499  161.1788 H   0  0  0  0  0  0  0  0  0  0  0  0
  145.8472  135.2061  161.9758 H   0  0  0  0  0  0  0  0  0  0  0  0
  147.1672  136.9937  163.1786 H   0  0  0  0  0  0  0  0  0  0  0  0
  148.6414  136.3504  162.5014 H   0  0  0  0  0  0  0  0  0  0  0  0
  149.0766  136.2931  160.2349 H   0  0  0  0  0  0  0  0  0  0  0  0
  147.6285  138.6795  158.8825 H   0  0  0  0  0  0  0  0  0  0  0  0
  149.3922  138.2888  158.8196 H   0  0  0  0  0  0  0  0  0  0  0  0
  148.9985  136.1729  157.7034 H   0  0  0  0  0  0  0  0  0  0  0  0
  148.9386  137.4270  155.3716 H   0  0  0  0  0  0  0  0  0  0  0  0
  148.4364  138.8850  156.2326 H   0  0  0  0  0  0  0  0  0  0  0  0
  147.4416  138.2563  154.9249 H   0  0  0  0  0  0  0  0  0  0  0  0
  143.5561  135.2761  155.5192 H   0  0  0  0  0  0  0  0  0  0  0  0
  149.4933  133.1971  154.1358 H   0  0  0  0  0  0  0  0  0  0  0  0
  147.8544  131.4548  153.3009 H   0  0  0  0  0  0  0  0  0  0  0  0
  146.2052  131.5560  153.8602 H   0  0  0  0  0  0  0  0  0  0  0  0
  147.9753  132.5943  150.6457 H   0  0  0  0  0  0  0  0  0  0  0  0
  146.6650  131.2883  150.1047 H   0  0  0  0  0  0  0  0  0  0  0  0
  146.4635  130.3145  151.5524 H   0  0  0  0  0  0  0  0  0  0  0  0
  144.3320  130.8630  149.9622 H   0  0  0  0  0  0  0  0  0  0  0  0
  144.1316  130.9092  151.7207 H   0  0  0  0  0  0  0  0  0  0  0  0
  144.6469  133.1273  152.8107 H   0  0  0  0  0  0  0  0  0  0  0  0
  145.9386  135.2846  152.4973 H   0  0  0  0  0  0  0  0  0  0  0  0
  144.3543  135.3121  151.7352 H   0  0  0  0  0  0  0  0  0  0  0  0
  145.7918  135.0888  150.7497 H   0  0  0  0  0  0  0  0  0  0  0  0
  146.7124  134.0573  158.3945 H   0  0  0  0  0  0  0  0  0  0  0  0
  146.9850  134.2031  160.1256 H   0  0  0  0  0  0  0  0  0  0  0  0
  148.3471  134.1997  159.0167 H   0  0  0  0  0  0  0  0  0  0  0  0
  145.1584  135.9378  158.3556 H   0  0  0  0  0  0  0  0  0  0  0  0
  145.5780  137.5161  158.9937 H   0  0  0  0  0  0  0  0  0  0  0  0
  145.3166  136.1689  160.0848 H   0  0  0  0  0  0  0  0  0  0  0  0
  1  2  1  0  0  0  0
  1 29  1  0  0  0  0
  1 30  1  0  0  0  0
  1 31  1  0  0  0  0
  2  3  1  0  0  0  0
  2 32  1  0  0  0  0
  2 33  1  0  0  0  0
  3  4  1  0  0  0  0
  4 26  1  0  0  0  0
  4  5  1  0  0  0  0
  4 34  1  0  0  0  0
  5  6  1  0  0  0  0
  5 35  1  0  0  0  0
  5 36  1  0  0  0  0
  6  7  1  0  0  0  0
  6 26  1  0  0  0  0
  6 37  1  0  0  0  0
  7  8  1  0  0  0  0
  7  9  1  0  0  0  0
  8 38  1  0  0  0  0
  8 39  1  0  0  0  0
  8 40  1  0  0  0  0
  9 14  1  0  0  0  0
  9 10  2  0  0  0  0
 10 11  1  0  0  0  0
 11 12  2  0  0  0  0
 11 41  1  0  0  0  0
 12 13  1  0  0  0  0
 13 17  1  0  0  0  0
 13 14  2  0  0  0  0
 14 15  1  0  0  0  0
 15 16  2  0  0  0  0
 16 17  1  0  0  0  0
 16 42  1  0  0  0  0
 17 18  1  0  0  0  0
 18 19  1  0  0  0  0
 18 43  1  0  0  0  0
 18 44  1  0  0  0  0
 19 24  1  0  0  0  0
 19 20  1  0  0  0  0
 19 21  1  0  0  0  0
 20 45  1  0  0  0  0
 21 22  1  0  0  0  0
 21 46  1  0  0  0  0
 21 47  1  0  0  0  0
 22 23  1  0  0  0  0
 22 48  1  0  0  0  0
 22 49  1  0  0  0  0
 23 24  1  0  0  0  0
 24 25  1  0  0  0  0
 24 50  1  0  0  0  0
 25 51  1  0  0  0  0
 25 52  1  0  0  0  0
 25 53  1  0  0  0  0
 26 27  1  0  0  0  0
 26 28  1  0  0  0  0
 27 54  1  0  0  0  0
 27 55  1  0  0  0  0
 27 56  1  0  0  0  0
 28 57  1  0  0  0  0
 28 58  1  0  0  0  0
 28 59  1  0  0  0  0
M  END
> <s_m_source_file>
AV-unprocessed.smi

> <i_m_source_file_index>
234

> <i_lp_mmshare_version>
43012

> <i_f3d_flags>
0

> <s_epik_input>
W0NIM11bQ0gyXU9bQ0BASF0oQzEoW0NIM10pW0NIM10pW0NIMl1bQ0BIXTFOKFtDSDNdKWMobltjSF1uMiljKGMyMyluW2NIXW4zW0NIMl1bQ0BAXTQoW09IXSlbQ0gyXVtDSDJdT1tDQEhdNFtDSDNd

> <s_epik_cmdline>
J2VwaWtfcHl0aG9uJywgJy1waCcsICc3LjAnLCAnLXRuJywgJzgnLCAnLW1hJywgJzIwMCcsICctbWV0YWxfYmluZGluZycsICctaW1hZScsICc8aW5maWxlLm1hZT4nLCAnLW9tYWUnLCAnPG91dGZpbGUubWFlPic=

> <r_lp_tautomer_probability>
1

> <r_epik_Ionization_Penalty>
0.00349132

> <r_epik_Ionization_Penalty_Charging>
0

> <r_epik_Ionization_Penalty_Neutral>
0.00349132

> <r_epik_State_Penalty>
0.00242418

> <r_epik_Charging_Adjusted_Penalty>
0.00242418

> <i_epik_Tot_Q>
0

> <i_epik_Tot_abs_Q>
0

> <r_epik_Metal_State_Penalty>
-0

> <b_epik_Metal_Only>
0

> <s_lp_Force_Field>
OPLS_2005

> <r_lp_Energy>
47.8509

> <b_lp_Chiralities_Consistent>
1

> <s_lp_Variant>
AV-unprocessed.smi:234-11

> <Gold.Version>
5.8.1

> <Gold.Id.Protein>
6NUR|6NUR_protein|mol2

> <Gold.PLP.Fitness>
40.8889

> <Gold.PLP.PLP>
-34.0405

> <Gold.PLP.part.hbond>
-2.9209

> <Gold.PLP.part.metal>
0.0000

> <Gold.PLP.part.buried>
-6.0538

> <Gold.PLP.part.nonpolar>
-25.1729

> <Gold.PLP.part.repulsive>
0.2534

> <Gold.PLP.ligand.clash>
0.0000

> <Gold.PLP.ligand.torsion>
0.7894

> <Gold.PLP.Chemscore.Hbond>
2.5606

> <Gold.PLP.Chemscore.CHOScore>
0.0000

> <Gold.PLP.Chemscore.Metal>
0.0000

> <Gold.Chemscore.Hbonds>
donor molecule, donor type, donor heavy atom, donor atom, acceptor molecule, acceptor atom, score
      L1  H    20    45       P1 10747  0.99
      P1  H  6931  6943       L1     3  0.15
      P1  H  6934  6947       L1     3  0.94

> <Gold.PLP.Chemscore.Internal.Correction>
0.7455

> <Gold.Rescore>
     Score         DG    S(hbond)    S(metal)    S(lipo)     H(rot)  DE(clash)    DE(int)     intcor
     14.27     -15.33       2.29        0.00      76.32       2.62       0.00       1.07       ----

> <Gold.Chemscore.Fitness>
14.2685

> <Gold.Chemscore.DG>
-15.3342

> <Gold.Chemscore.ZeroCoef>
-5.4800

> <Gold.Chemscore.Hbond>
2.2866

> <Gold.Chemscore.Metal>
0.0000

> <Gold.Chemscore.Lipo>
76.3155

> <Gold.Chemscore.Internal_Hbond>
0.0000

> <Gold.Chemscore.DEClash>
0.0000

> <Gold.Chemscore.DEInternal>
1.0657

> <Gold.Chemscore.Rot>
2.6219

> <Gold.Chemscore.Internal.Correction>
   9.000000E+99

> <Gold.Chemscore.Hbonds>
donor molecule, donor type, donor heavy atom, donor atom, acceptor molecule, acceptor atom, score
      L1  H    20    45       P1 10747  0.88
      P1  H  6934  6947       L1     3  0.60

> <Gold.Chemscore.Hbond.Weighted>
-7.6374

> <Gold.Chemscore.Metal.Weighted>
-0.0000

> <Gold.Chemscore.Lipo.Weighted>
-8.9289

> <Gold.Chemscore.Internal_Hbond.Weighted>
0.0000

> <Gold.Chemscore.DEClash.Weighted>
0.0000

> <Gold.Chemscore.DEInternal.Weighted>
1.0657

> <Gold.Chemscore.Rot.Weighted>
6.7121

> <Gold.Chemscore.Internal.Correction.Weighted>
   9.000000E+99

> <Gold.Protein.RotatedTorsions>
[ 6907 6896 6895 6894 ] final  -54.45 input  -60.11 | X-H torsion
[ 7974 7965 7964 7962 ] final  153.18 input  175.53 | X-H torsion
[ 8008 7997 7996 7995 ] final  160.88 input   59.86 | X-H torsion
[ 10167 10162 10161 10158 ] final  -68.42 input  -65.29 | X-H torsion
[ 10718 10713 10712 10709 ] final   48.88 input   66.30 | X-H torsion
[ 10763 10752 10751 10750 ] final   93.82 input  -60.55 | X-H torsion
[ 11005 11000 10999 10996 ] final  -82.22 input  -57.11 | X-H torsion

> <Gold.Protein.ActiveResidues>
 VAL166  LYS551  ARG553  GLY616  TRP617  ASP618  TYR619  PRO620  LYS621  CYS622 
 ASP623  PHE694  ASN695  SER759  ASP760  ASP761  ALA762  ILE779  LEU786  VAL792 
 PHE793  MET794  SER795  GLU796  ALA797  LYS798  CYS799  TRP800  GLU811  SER814 

> <Gold.Protein.RotatedAtoms>
  150.8337  134.7601  159.6874 H   0  0  0  0  0  0  0  0  0  0  0  0  # atno 6907 bound_to 6896
  152.4437  134.5535  159.9883 H   0  0  0  0  0  0  0  0  0  0  0  0  # atno 6908 bound_to 6896
  151.5690  133.3355  159.3021 H   0  0  0  0  0  0  0  0  0  0  0  0  # atno 6909 bound_to 6896
  144.8172  139.6766  143.6116 H   0  0  0  0  0  0  0  0  0  0  0  0  # atno 7974 bound_to 7965
  156.2142  140.1792  156.7627 H   0  0  0  0  0  0  0  0  0  0  0  0  # atno 8008 bound_to 7997
  154.5767  140.0673  156.9073 H   0  0  0  0  0  0  0  0  0  0  0  0  # atno 8009 bound_to 7997
  155.2576  140.3333  155.4278 H   0  0  0  0  0  0  0  0  0  0  0  0  # atno 8010 bound_to 7997
  140.5509  143.2312  151.6913 H   0  0  0  0  0  0  0  0  0  0  0  0  # atno 10167 bound_to 10162
  157.4731  130.8268  149.8009 H   0  0  0  0  0  0  0  0  0  0  0  0  # atno 10718 bound_to 10713
  153.2346  135.4312  155.0632 H   0  0  0  0  0  0  0  0  0  0  0  0  # atno 10763 bound_to 10752
  154.8313  135.3388  154.6737 H   0  0  0  0  0  0  0  0  0  0  0  0  # atno 10764 bound_to 10752
  153.7163  135.7020  153.5080 H   0  0  0  0  0  0  0  0  0  0  0  0  # atno 10765 bound_to 10752
  141.1664  133.7234  156.8538 H   0  0  0  0  0  0  0  0  0  0  0  0  # atno 11005 bound_to 11000
  146.2476  139.6130  142.9449 LP  0  0  0  0  0  0  0  0  0  0  0  0  # atno 17320 bound_to 7965
  145.5187  141.0433  143.2447 LP  0  0  0  0  0  0  0  0  0  0  0  0  # atno 17321 bound_to 7965
  139.5027  144.3820  152.0367 LP  0  0  0  0  0  0  0  0  0  0  0  0  # atno 17342 bound_to 10162
  140.2937  144.3725  150.6081 LP  0  0  0  0  0  0  0  0  0  0  0  0  # atno 17343 bound_to 10162
  156.0083  130.3845  150.2353 LP  0  0  0  0  0  0  0  0  0  0  0  0  # atno 17370 bound_to 10713
  157.0536  131.0069  151.3246 LP  0  0  0  0  0  0  0  0  0  0  0  0  # atno 17371 bound_to 10713
  140.1896  134.8975  157.3045 LP  0  0  0  0  0  0  0  0  0  0  0  0  # atno 17394 bound_to 11000
  140.2304  134.3916  155.7524 LP  0  0  0  0  0  0  0  0  0  0  0  0  # atno 17395 bound_to 11000

$$$$
