AV-unprocessed.smi:35|AV-procd|sdf|249|dock9
  -GOLD-   2262016 13D 1   1.00000     0.00000
 Structure written by MMmdl.
 29 30  0  0  0  0  0  0  0  0  1 V2000
  153.8411  139.5270  160.3145 O   0  0  0  0  0  0  0  0  0  0  0  0
  153.3869  139.3416  159.1876 C   0  0  0  0  0  0  0  0  0  0  0  0
  153.6499  138.1489  158.5073 N   0  0  0  0  0  0  0  0  0  0  0  0
  153.1912  137.8245  157.2285 C   0  0  0  0  0  0  0  0  0  0  0  0
  153.4752  136.7340  156.7354 O   0  0  0  0  0  0  0  0  0  0  0  0
  152.4007  138.7898  156.5643 N   0  0  0  0  0  0  0  0  0  0  0  0
  151.8708  138.5075  155.1774 C   0  0  2  0  0  0  0  0  0  0  0  0
  151.1469  139.6230  154.7517 O   0  0  0  0  0  0  0  0  0  0  0  0
  149.8991  139.2122  154.2062 C   0  0  2  0  0  0  0  0  0  0  0  0
  148.8879  140.3604  154.3488 C   0  0  0  0  0  0  0  0  0  0  0  0
  149.2200  141.4259  153.4845 O   0  0  0  0  0  0  0  0  0  0  0  0
  149.5609  137.9497  155.0036 C   0  0  1  0  0  0  0  0  0  0  0  0
  148.6250  137.1137  154.3488 O   0  0  0  0  0  0  0  0  0  0  0  0
  150.9261  137.2932  155.1947 C   0  0  1  0  0  0  0  0  0  0  0  0
  151.2457  136.3867  154.1542 O   0  0  0  0  0  0  0  0  0  0  0  0
  152.1064  139.9860  157.2042 C   0  0  0  0  0  0  0  0  0  0  0  0
  152.5557  140.2831  158.4456 C   0  0  0  0  0  0  0  0  0  0  0  0
  152.0222  142.0429  159.1820 Br  0  0  0  0  0  0  0  0  0  0  0  0
  154.2173  137.4619  158.9824 H   0  0  0  0  0  0  0  0  0  0  0  0
  152.7286  138.3871  154.5138 H   0  0  0  0  0  0  0  0  0  0  0  0
  150.0615  138.9667  153.1549 H   0  0  0  0  0  0  0  0  0  0  0  0
  147.8739  140.0187  154.1394 H   0  0  0  0  0  0  0  0  0  0  0  0
  148.8951  140.7376  155.3717 H   0  0  0  0  0  0  0  0  0  0  0  0
  149.4706  141.0666  152.6468 H   0  0  0  0  0  0  0  0  0  0  0  0
  149.1588  138.2283  155.9784 H   0  0  0  0  0  0  0  0  0  0  0  0
  148.8601  137.0607  153.4347 H   0  0  0  0  0  0  0  0  0  0  0  0
  150.9888  136.7603  156.1447 H   0  0  0  0  0  0  0  0  0  0  0  0
  151.0454  136.7975  153.3272 H   0  0  0  0  0  0  0  0  0  0  0  0
  151.4926  140.7169  156.6990 H   0  0  0  0  0  0  0  0  0  0  0  0
  1  2  2  0  0  0  0
  2 17  1  0  0  0  0
  2  3  1  0  0  0  0
  3 19  1  0  0  0  0
  3  4  1  0  0  0  0
  4  5  2  0  0  0  0
  4  6  1  0  0  0  0
  6  7  1  0  0  0  0
  6 16  1  0  0  0  0
  7 14  1  0  0  0  0
  7  8  1  0  0  0  0
  7 20  1  0  0  0  0
  8  9  1  0  0  0  0
  9 10  1  0  0  0  0
  9 12  1  0  0  0  0
  9 21  1  0  0  0  0
 10 11  1  0  0  0  0
 10 22  1  0  0  0  0
 10 23  1  0  0  0  0
 11 24  1  0  0  0  0
 12 13  1  0  0  0  0
 12 14  1  0  0  0  0
 12 25  1  0  0  0  0
 13 26  1  0  0  0  0
 14 15  1  0  0  0  0
 14 27  1  0  0  0  0
 15 28  1  0  0  0  0
 16 17  2  0  0  0  0
 16 29  1  0  0  0  0
 17 18  1  0  0  0  0
M  END
> <s_m_source_file>
AV-unprocessed.smi

> <i_m_source_file_index>
35

> <i_lp_mmshare_version>
43012

> <i_f3d_flags>
0

> <s_epik_input>
Tz1jMVtuSF1jKD1PKW4oW2NIXWMxQnIpW0NAQEhdMk9bQ0BASF0oW0NIMl1bT0hdKVtDQEBIXShbT0hdKVtDQEhdMltPSF0=

> <s_epik_cmdline>
J2VwaWtfcHl0aG9uJywgJy1waCcsICc3LjAnLCAnLXRuJywgJzgnLCAnLW1hJywgJzIwMCcsICctbWV0YWxfYmluZGluZycsICctaW1hZScsICc8aW5maWxlLm1hZT4nLCAnLW9tYWUnLCAnPG91dGZpbGUubWFlPic=

> <r_lp_tautomer_probability>
0.999537

> <r_epik_Ionization_Penalty>
0.10812

> <r_epik_Ionization_Penalty_Charging>
0.108119

> <r_epik_Ionization_Penalty_Neutral>
4.93006e-07

> <r_epik_State_Penalty>
0.0979238

> <r_epik_Charging_Adjusted_Penalty>
0.206043

> <i_epik_Tot_Q>
0

> <i_epik_Tot_abs_Q>
0

> <r_epik_Metal_State_Penalty>
3.07911

> <b_epik_Metal_Only>
0

> <s_epik_Chemistry_Notes>
This compound contains an acetal/aminal-like group ( X-CH(R)-Y where X, Y are N, S, or O) that may be acid/base labile, releasing an aldehyde.

> <s_lp_Force_Field>
OPLS_2005

> <r_lp_Energy>
30.5202

> <b_lp_Chiralities_Consistent>
1

> <s_lp_Variant>
AV-unprocessed.smi:35-3

> <Gold.Version>
5.8.1

> <Gold.Id.Protein>
6NUR|6NUR_protein|mol2

> <Gold.PLP.Fitness>
45.5478

> <Gold.PLP.PLP>
-29.6146

> <Gold.PLP.part.hbond>
-8.2660

> <Gold.PLP.part.metal>
0.0000

> <Gold.PLP.part.buried>
-4.0864

> <Gold.PLP.part.nonpolar>
-18.3104

> <Gold.PLP.part.repulsive>
0.1504

> <Gold.PLP.ligand.clash>
0.0000

> <Gold.PLP.ligand.torsion>
0.0413

> <Gold.PLP.Chemscore.Hbond>
5.3360

> <Gold.PLP.Chemscore.CHOScore>
0.0000

> <Gold.PLP.Chemscore.Metal>
0.0000

> <Gold.Chemscore.Hbonds>
donor molecule, donor type, donor heavy atom, donor atom, acceptor molecule, acceptor atom, score
      L1  H    11    24       P1  7957  1.00
      L1  H    13    26       P1  7948  1.00
      L1  H    15    28       P1  7949  0.54
      P1  H  7989  7998       L1     8  1.00
      P1  H 10752 10764       L1    15  0.98
      P1  H 10752 10765       L1     5  0.80

> <Gold.PLP.Chemscore.Internal.Correction>
0.0077

> <Gold.Rescore>
     Score         DG    S(hbond)    S(metal)    S(lipo)     H(rot)  DE(clash)    DE(int)     intcor
     16.15     -16.48       4.55        0.00      44.35       3.67       0.18       0.15       ----

> <Gold.Chemscore.Fitness>
16.1471

> <Gold.Chemscore.DG>
-16.4750

> <Gold.Chemscore.ZeroCoef>
-5.4800

> <Gold.Chemscore.Hbond>
4.5515

> <Gold.Chemscore.Metal>
0.0000

> <Gold.Chemscore.Lipo>
44.3468

> <Gold.Chemscore.Internal_Hbond>
0.0000

> <Gold.Chemscore.DEClash>
0.1801

> <Gold.Chemscore.DEInternal>
0.1479

> <Gold.Chemscore.Rot>
3.6701

> <Gold.Chemscore.Internal.Correction>
   9.000000E+99

> <Gold.Chemscore.Hbonds>
donor molecule, donor type, donor heavy atom, donor atom, acceptor molecule, acceptor atom, score
      L1  H    11    24       P1  7957  1.00
      L1  H    13    26       P1  7948  0.98
      L1  H    15    28       P1  7949  0.19
      P1  H  7989  7998       L1     8  0.26
      P1  H 10752 10764       L1    15  0.45
      P1  H 10752 10765       L1     5  0.78

> <Gold.Chemscore.Hbond.Weighted>
-15.2019

> <Gold.Chemscore.Metal.Weighted>
-0.0000

> <Gold.Chemscore.Lipo.Weighted>
-5.1886

> <Gold.Chemscore.Internal_Hbond.Weighted>
0.0000

> <Gold.Chemscore.DEClash.Weighted>
0.1801

> <Gold.Chemscore.DEInternal.Weighted>
0.1479

> <Gold.Chemscore.Rot.Weighted>
9.3955

> <Gold.Chemscore.Internal.Correction.Weighted>
   9.000000E+99

> <Gold.Protein.RotatedTorsions>
[ 6907 6896 6895 6894 ] final    4.33 input  -60.11 | X-H torsion
[ 7974 7965 7964 7962 ] final  -86.59 input  175.53 | X-H torsion
[ 8008 7997 7996 7995 ] final  -14.11 input   59.86 | X-H torsion
[ 10167 10162 10161 10158 ] final  -91.92 input  -65.29 | X-H torsion
[ 10718 10713 10712 10709 ] final  -74.73 input   66.30 | X-H torsion
[ 10763 10752 10751 10750 ] final  -99.61 input  -60.55 | X-H torsion
[ 11005 11000 10999 10996 ] final  170.58 input  -57.11 | X-H torsion

> <Gold.Protein.ActiveResidues>
 VAL166  LYS551  ARG553  GLY616  TRP617  ASP618  TYR619  PRO620  LYS621  CYS622 
 ASP623  PHE694  ASN695  SER759  ASP760  ASP761  ALA762  ILE779  LEU786  VAL792 
 PHE793  MET794  SER795  GLU796  ALA797  LYS798  CYS799  TRP800  GLU811  SER814 

> <Gold.Protein.RotatedAtoms>
  151.6395  135.1014  160.0138 H   0  0  0  0  0  0  0  0  0  0  0  0  # atno 6907 bound_to 6896
  152.4062  133.6888  159.6367 H   0  0  0  0  0  0  0  0  0  0  0  0  # atno 6908 bound_to 6896
  150.7956  133.8622  159.3276 H   0  0  0  0  0  0  0  0  0  0  0  0  # atno 6909 bound_to 6896
  145.4778  140.9558  143.1881 H   0  0  0  0  0  0  0  0  0  0  0  0  # atno 7974 bound_to 7965
  154.5237  140.2232  155.8929 H   0  0  0  0  0  0  0  0  0  0  0  0  # atno 8008 bound_to 7997
  156.1690  140.3126  155.8904 H   0  0  0  0  0  0  0  0  0  0  0  0  # atno 8009 bound_to 7997
  155.3597  140.0460  157.3037 H   0  0  0  0  0  0  0  0  0  0  0  0  # atno 8010 bound_to 7997
  140.3400  143.2947  151.9845 H   0  0  0  0  0  0  0  0  0  0  0  0  # atno 10167 bound_to 10162
  156.0232  130.4424  150.2936 H   0  0  0  0  0  0  0  0  0  0  0  0  # atno 10718 bound_to 10713
  154.7512  135.4966  153.9293 H   0  0  0  0  0  0  0  0  0  0  0  0  # atno 10763 bound_to 10752
  153.1146  135.6717  153.9449 H   0  0  0  0  0  0  0  0  0  0  0  0  # atno 10764 bound_to 10752
  153.9199  135.3089  155.3427 H   0  0  0  0  0  0  0  0  0  0  0  0  # atno 10765 bound_to 10752
  140.3099  134.7525  157.3983 H   0  0  0  0  0  0  0  0  0  0  0  0  # atno 11005 bound_to 11000
  144.7907  139.6335  143.7114 LP  0  0  0  0  0  0  0  0  0  0  0  0  # atno 17320 bound_to 7965
  146.2359  139.5904  142.9524 LP  0  0  0  0  0  0  0  0  0  0  0  0  # atno 17321 bound_to 7965
  139.4842  144.6164  151.7338 LP  0  0  0  0  0  0  0  0  0  0  0  0  # atno 17342 bound_to 10162
  140.5317  144.0719  150.6056 LP  0  0  0  0  0  0  0  0  0  0  0  0  # atno 17343 bound_to 10162
  157.1039  131.0203  151.3074 LP  0  0  0  0  0  0  0  0  0  0  0  0  # atno 17370 bound_to 10713
  157.4758  130.7735  149.7366 LP  0  0  0  0  0  0  0  0  0  0  0  0  # atno 17371 bound_to 10713
  140.1034  134.5442  155.8332 LP  0  0  0  0  0  0  0  0  0  0  0  0  # atno 17394 bound_to 11000
  141.2110  133.6702  156.6553 LP  0  0  0  0  0  0  0  0  0  0  0  0  # atno 17395 bound_to 11000

$$$$
