AV-unprocessed.smi:2706|AV-procd|sdf|10455|dock3
  -GOLD-   2272014493D 1   1.00000     0.00000
 Structure written by MMmdl.
 43 46  0  0  0  0  0  0  0  0  1 V2000
  153.2808  139.5006  159.9097 C   0  0  0  0  0  0  0  0  0  0  0  0
  153.4459  140.8871  160.3120 N   0  0  0  0  0  0  0  0  0  0  0  0
  154.4748  141.1418  161.3058 C   0  0  0  0  0  0  0  0  0  0  0  0
  152.8801  141.9170  159.5850 C   0  0  0  0  0  0  0  0  0  0  0  0
  153.0573  143.1883  159.9923 C   0  0  0  0  0  0  0  0  0  0  0  0
  152.4661  144.2706  159.2333 C   0  0  0  0  0  0  0  0  0  0  0  0
  151.7397  144.0267  158.1234 C   0  0  0  0  0  0  0  0  0  0  0  0
  151.5254  142.6693  157.6511 C   0  0  0  0  0  0  0  0  0  0  0  0
  150.8200  142.4625  156.5766 N   0  0  0  0  0  0  0  0  0  0  0  0
  150.5750  141.1914  156.0680 C   0  0  0  0  0  0  0  0  0  0  0  0
  151.2462  140.5358  155.2655 O   0  0  0  0  0  0  0  0  0  0  0  0
  149.4354  140.7127  156.5861 N   0  0  0  0  0  0  0  0  0  0  0  0
  148.8463  139.4416  156.3106 C   0  0  2  0  0  0  0  0  0  0  0  0
  148.5334  139.0117  154.8887 C   0  0  2  0  0  0  0  0  0  0  0  0
  148.1516  139.8301  153.6498 C   0  0  2  0  0  0  0  0  0  0  0  0
  148.3024  141.3513  153.8525 C   0  0  0  0  0  0  0  0  0  0  0  0
  147.1565  141.6687  154.8378 C   0  0  0  0  0  0  0  0  0  0  0  0
  146.5157  140.2833  155.0563 C   0  0  1  0  0  0  0  0  0  0  0  0
  146.6325  139.7006  153.6523 C   0  0  0  0  0  0  0  0  0  0  0  0
  147.4005  139.3256  155.8630 C   0  0  2  0  0  0  0  0  0  0  0  0
  152.1287  141.6695  158.4374 N   0  0  0  0  0  0  0  0  0  0  0  0
  152.3437  139.3642  159.3689 H   0  0  0  0  0  0  0  0  0  0  0  0
  153.2678  138.8425  160.7790 H   0  0  0  0  0  0  0  0  0  0  0  0
  154.0999  139.1964  159.2576 H   0  0  0  0  0  0  0  0  0  0  0  0
  154.3634  142.1401  161.7302 H   0  0  0  0  0  0  0  0  0  0  0  0
  155.4637  141.0711  160.8523 H   0  0  0  0  0  0  0  0  0  0  0  0
  154.4154  140.4199  162.1208 H   0  0  0  0  0  0  0  0  0  0  0  0
  153.6356  143.4067  160.8786 H   0  0  0  0  0  0  0  0  0  0  0  0
  152.6094  145.2894  159.5619 H   0  0  0  0  0  0  0  0  0  0  0  0
  151.3238  144.8750  157.5994 H   0  0  0  0  0  0  0  0  0  0  0  0
  148.9375  141.3033  157.2368 H   0  0  0  0  0  0  0  0  0  0  0  0
  149.1776  138.6305  156.9572 H   0  0  0  0  0  0  0  0  0  0  0  0
  148.6913  137.9564  154.6733 H   0  0  0  0  0  0  0  0  0  0  0  0
  148.6366  139.4549  152.7483 H   0  0  0  0  0  0  0  0  0  0  0  0
  149.2898  141.6408  154.2094 H   0  0  0  0  0  0  0  0  0  0  0  0
  148.1411  141.8767  152.9103 H   0  0  0  0  0  0  0  0  0  0  0  0
  147.4828  142.1413  155.7632 H   0  0  0  0  0  0  0  0  0  0  0  0
  146.4409  142.3477  154.3722 H   0  0  0  0  0  0  0  0  0  0  0  0
  145.4985  140.3244  155.4466 H   0  0  0  0  0  0  0  0  0  0  0  0
  146.1363  140.2962  152.8834 H   0  0  0  0  0  0  0  0  0  0  0  0
  146.2865  138.6676  153.5829 H   0  0  0  0  0  0  0  0  0  0  0  0
  146.8585  138.4642  156.2493 H   0  0  0  0  0  0  0  0  0  0  0  0
  152.0317  140.6970  158.1831 H   0  0  0  0  0  0  0  0  0  0  0  0
  1  2  1  0  0  0  0
  1 22  1  0  0  0  0
  1 23  1  0  0  0  0
  1 24  1  0  0  0  0
  2  3  1  0  0  0  0
  2  4  1  0  0  0  0
  3 25  1  0  0  0  0
  3 26  1  0  0  0  0
  3 27  1  0  0  0  0
  4 21  1  0  0  0  0
  4  5  2  0  0  0  0
  5  6  1  0  0  0  0
  5 28  1  0  0  0  0
  6  7  2  0  0  0  0
  6 29  1  0  0  0  0
  7  8  1  0  0  0  0
  7 30  1  0  0  0  0
  8  9  2  0  0  0  0
  8 21  1  0  0  0  0
  9 10  1  0  0  0  0
 10 11  2  0  0  0  0
 10 12  1  0  0  0  0
 12 13  1  0  0  0  0
 12 31  1  0  0  0  0
 13 20  1  0  0  0  0
 13 14  1  0  0  0  0
 13 32  1  0  0  0  0
 14 20  1  0  0  0  0
 14 15  1  0  0  0  0
 14 33  1  0  0  0  0
 15 19  1  0  0  0  0
 15 16  1  0  0  0  0
 15 34  1  0  0  0  0
 16 17  1  0  0  0  0
 16 35  1  0  0  0  0
 16 36  1  0  0  0  0
 17 18  1  0  0  0  0
 17 37  1  0  0  0  0
 17 38  1  0  0  0  0
 18 19  1  0  0  0  0
 18 20  1  0  0  0  0
 18 39  1  0  0  0  0
 19 40  1  0  0  0  0
 19 41  1  0  0  0  0
 20 42  1  0  0  0  0
 21 43  1  0  0  0  0
M  END
> <s_m_source_file>
AV-unprocessed.smi

> <i_m_source_file_index>
2706

> <i_lp_mmshare_version>
43012

> <i_f3d_flags>
0

> <s_epik_input>
W0NIM11OKFtDSDNdKWMxW2NIXVtjSF1bY0hdYyhuMSlbTkhdQyg9TylbTkhdW0NASF0yW0NAQEhdM1tDQEBIXShbQ0gyXTQpW0NIMl1bQ0gyXVtDQEBIXTRbQ0BIXTIz

> <s_epik_cmdline>
J2VwaWtfcHl0aG9uJywgJy1waCcsICc3LjAnLCAnLXRuJywgJzgnLCAnLW1hJywgJzIwMCcsICctbWV0YWxfYmluZGluZycsICctaW1hZScsICc8aW5maWxlLm1hZT4nLCAnLW9tYWUnLCAnPG91dGZpbGUubWFlPic=

> <r_lp_tautomer_probability>
0.999994

> <r_epik_Ionization_Penalty>
2.07242

> <r_epik_Ionization_Penalty_Charging>
2.07242

> <r_epik_Ionization_Penalty_Neutral>
9.73808e-07

> <r_epik_State_Penalty>
3.96009

> <r_epik_Charging_Adjusted_Penalty>
6.03251

> <i_epik_Tot_Q>
0

> <i_epik_Tot_abs_Q>
0

> <r_epik_Metal_State_Penalty>
3.98849

> <b_epik_Metal_Only>
1

> <s_lp_Force_Field>
OPLS_2005

> <r_lp_Energy>
108.692

> <b_lp_Chiralities_Consistent>
1

> <s_lp_Variant>
AV-unprocessed.smi:2706-12

> <Gold.Version>
5.8.1

> <Gold.Id.Protein>
6NUR|6NUR_protein|mol2

> <Gold.PLP.Fitness>
39.3100

> <Gold.PLP.PLP>
-38.0756

> <Gold.PLP.part.hbond>
-1.0000

> <Gold.PLP.part.metal>
0.0000

> <Gold.PLP.part.buried>
-0.6340

> <Gold.PLP.part.nonpolar>
-37.0374

> <Gold.PLP.part.repulsive>
0.2828

> <Gold.PLP.ligand.clash>
0.0000

> <Gold.PLP.ligand.torsion>
0.8352

> <Gold.PLP.Chemscore.Hbond>
0.9120

> <Gold.PLP.Chemscore.CHOScore>
0.0000

> <Gold.PLP.Chemscore.Metal>
0.0000

> <Gold.Chemscore.Hbonds>
donor molecule, donor type, donor heavy atom, donor atom, acceptor molecule, acceptor atom, score
      P1  H  7989  7998       L1    11  0.91

> <Gold.PLP.Chemscore.Internal.Correction>
0.1688

> <Gold.Rescore>
     Score         DG    S(hbond)    S(metal)    S(lipo)     H(rot)  DE(clash)    DE(int)     intcor
     15.19     -16.20       0.93        0.00      86.95       1.00       0.18       0.83       ----

> <Gold.Chemscore.Fitness>
15.1923

> <Gold.Chemscore.DG>
-16.2042

> <Gold.Chemscore.ZeroCoef>
-5.4800

> <Gold.Chemscore.Hbond>
0.9316

> <Gold.Chemscore.Metal>
0.0000

> <Gold.Chemscore.Lipo>
86.9464

> <Gold.Chemscore.Internal_Hbond>
0.0000

> <Gold.Chemscore.DEClash>
0.1772

> <Gold.Chemscore.DEInternal>
0.8346

> <Gold.Chemscore.Rot>
1.0000

> <Gold.Chemscore.Internal.Correction>
   9.000000E+99

> <Gold.Chemscore.Hbonds>
donor molecule, donor type, donor heavy atom, donor atom, acceptor molecule, acceptor atom, score
      P1  H  7989  7998       L1    11  0.88

> <Gold.Chemscore.Hbond.Weighted>
-3.1114

> <Gold.Chemscore.Metal.Weighted>
-0.0000

> <Gold.Chemscore.Lipo.Weighted>
-10.1727

> <Gold.Chemscore.Internal_Hbond.Weighted>
0.0000

> <Gold.Chemscore.DEClash.Weighted>
0.1772

> <Gold.Chemscore.DEInternal.Weighted>
0.8346

> <Gold.Chemscore.Rot.Weighted>
2.5600

> <Gold.Chemscore.Internal.Correction.Weighted>
   9.000000E+99

> <Gold.Protein.RotatedTorsions>
[ 6907 6896 6895 6894 ] final -139.28 input  -60.11 | X-H torsion
[ 7974 7965 7964 7962 ] final  175.54 input  175.53 | X-H torsion
[ 8008 7997 7996 7995 ] final  121.43 input   59.86 | X-H torsion
[ 10167 10162 10161 10158 ] final   16.17 input  -65.29 | X-H torsion
[ 10718 10713 10712 10709 ] final   52.59 input   66.30 | X-H torsion
[ 10763 10752 10751 10750 ] final  115.24 input  -60.55 | X-H torsion
[ 11005 11000 10999 10996 ] final   24.23 input  -57.11 | X-H torsion

> <Gold.Protein.ActiveResidues>
 VAL166  LYS551  ARG553  GLY616  TRP617  ASP618  TYR619  PRO620  LYS621  CYS622 
 ASP623  PHE694  ASN695  SER759  ASP760  ASP761  ALA762  ILE779  LEU786  VAL792 
 PHE793  MET794  SER795  GLU796  ALA797  LYS798  CYS799  TRP800  GLU811  SER814 

> <Gold.Protein.RotatedAtoms>
  151.0458  133.5666  159.2646 H   0  0  0  0  0  0  0  0  0  0  0  0  # atno 6907 bound_to 6896
  151.2696  135.0679  159.9139 H   0  0  0  0  0  0  0  0  0  0  0  0  # atno 6908 bound_to 6896
  152.5373  134.0191  159.8027 H   0  0  0  0  0  0  0  0  0  0  0  0  # atno 6909 bound_to 6896
  144.7200  139.9963  143.6440 H   0  0  0  0  0  0  0  0  0  0  0  0  # atno 7974 bound_to 7965
  156.2686  140.2808  156.1307 H   0  0  0  0  0  0  0  0  0  0  0  0  # atno 8008 bound_to 7997
  155.1058  140.0390  157.2727 H   0  0  0  0  0  0  0  0  0  0  0  0  # atno 8009 bound_to 7997
  154.6780  140.2602  155.6943 H   0  0  0  0  0  0  0  0  0  0  0  0  # atno 8010 bound_to 7997
  140.5816  143.8969  150.6795 H   0  0  0  0  0  0  0  0  0  0  0  0  # atno 10167 bound_to 10162
  157.5089  130.8487  149.8409 H   0  0  0  0  0  0  0  0  0  0  0  0  # atno 10718 bound_to 10713
  153.5192  135.3601  155.2624 H   0  0  0  0  0  0  0  0  0  0  0  0  # atno 10763 bound_to 10752
  154.8736  135.4041  154.3279 H   0  0  0  0  0  0  0  0  0  0  0  0  # atno 10764 bound_to 10752
  153.3947  135.7073  153.6536 H   0  0  0  0  0  0  0  0  0  0  0  0  # atno 10765 bound_to 10752
  140.3610  134.2125  155.7672 H   0  0  0  0  0  0  0  0  0  0  0  0  # atno 11005 bound_to 11000
  146.0372  139.3388  143.0719 LP  0  0  0  0  0  0  0  0  0  0  0  0  # atno 17320 bound_to 7965
  145.8380  140.9596  143.0814 LP  0  0  0  0  0  0  0  0  0  0  0  0  # atno 17321 bound_to 7965
  140.2470  143.3621  152.1438 LP  0  0  0  0  0  0  0  0  0  0  0  0  # atno 17342 bound_to 10162
  139.5173  144.6990  151.5548 LP  0  0  0  0  0  0  0  0  0  0  0  0  # atno 17343 bound_to 10162
  156.0276  130.3774  150.1779 LP  0  0  0  0  0  0  0  0  0  0  0  0  # atno 17370 bound_to 10713
  156.9968  130.9910  151.3401 LP  0  0  0  0  0  0  0  0  0  0  0  0  # atno 17371 bound_to 10713
  141.1984  133.8036  157.0584 LP  0  0  0  0  0  0  0  0  0  0  0  0  # atno 17394 bound_to 11000
  140.0627  134.9746  157.1332 LP  0  0  0  0  0  0  0  0  0  0  0  0  # atno 17395 bound_to 11000

$$$$
