AV-unprocessed.smi:104|AV-procd|sdf|997|dock4
  -GOLD-   2262017583D 1   1.00000     0.00000
 Structure written by MMmdl.
 47 49  0  0  0  0  0  0  0  0  1 V2000
  144.3278  135.3660  150.7999 C   0  0  0  0  0  0  0  0  0  0  0  0
  144.1658  135.5713  152.3007 C   0  0  0  0  0  0  0  0  0  0  0  0
  143.2560  136.2627  152.7587 O   0  0  0  0  0  0  0  0  0  0  0  0
  145.1025  134.9276  153.0136 O   0  0  0  0  0  0  0  0  0  0  0  0
  145.0878  135.0158  154.4284 C   0  0  0  0  0  0  0  0  0  0  0  0
  145.8344  136.2815  154.8703 C   0  0  2  0  0  0  0  0  0  0  0  0
  147.2027  136.1835  154.4848 O   0  0  0  0  0  0  0  0  0  0  0  0
  147.9528  135.8367  155.5979 C   0  0  1  0  0  0  0  0  0  0  0  0
  149.3561  136.3069  155.4116 N   0  0  0  0  0  0  0  0  0  0  0  0
  150.5298  135.5953  155.5062 C   0  0  0  0  0  0  0  0  0  0  0  0
  150.5636  133.7402  155.9364 Br  0  0  0  0  0  0  0  0  0  0  0  0
  151.6397  136.2498  155.3071 N   0  0  0  0  0  0  0  0  0  0  0  0
  151.1923  137.5420  155.0592 C   0  0  0  0  0  0  0  0  0  0  0  0
  151.8388  138.7706  154.7723 C   0  0  0  0  0  0  0  0  0  0  0  0
  153.1702  138.8918  154.6792 N   0  0  0  0  0  0  0  0  0  0  0  0
  151.0776  139.8743  154.5866 N   0  0  0  0  0  0  0  0  0  0  0  0
  149.7468  139.7812  154.6781 C   0  0  0  0  0  0  0  0  0  0  0  0
  148.9997  138.7050  154.9394 N   0  0  0  0  0  0  0  0  0  0  0  0
  149.7689  137.5916  155.1236 C   0  0  0  0  0  0  0  0  0  0  0  0
  147.3048  136.5383  156.7795 C   0  0  2  0  0  0  0  0  0  0  0  0
  147.5964  135.8338  157.9778 O   0  0  0  0  0  0  0  0  0  0  0  0
  147.3546  136.4036  159.1690 C   0  0  0  0  0  0  0  0  0  0  0  0
  147.6396  135.4616  160.3310 C   0  0  0  0  0  0  0  0  0  0  0  0
  146.9487  137.5508  159.3554 O   0  0  0  0  0  0  0  0  0  0  0  0
  145.8332  136.4523  156.4031 C   0  0  1  0  0  0  0  0  0  0  0  0
  145.1822  137.6542  156.7933 O   0  0  0  0  0  0  0  0  0  0  0  0
  143.8488  137.7699  156.6789 C   0  0  0  0  0  0  0  0  0  0  0  0
  143.3418  139.1279  157.1455 C   0  0  0  0  0  0  0  0  0  0  0  0
  143.0804  136.9092  156.2500 O   0  0  0  0  0  0  0  0  0  0  0  0
  145.3132  134.9618  150.5660 H   0  0  0  0  0  0  0  0  0  0  0  0
  144.2114  136.3142  150.2750 H   0  0  0  0  0  0  0  0  0  0  0  0
  143.5725  134.6718  150.4311 H   0  0  0  0  0  0  0  0  0  0  0  0
  144.0512  135.0637  154.7647 H   0  0  0  0  0  0  0  0  0  0  0  0
  145.5367  134.1277  154.8755 H   0  0  0  0  0  0  0  0  0  0  0  0
  145.4007  137.1566  154.3839 H   0  0  0  0  0  0  0  0  0  0  0  0
  147.9955  134.7514  155.6962 H   0  0  0  0  0  0  0  0  0  0  0  0
  153.7598  138.0833  154.8161 H   0  0  0  0  0  0  0  0  0  0  0  0
  153.5814  139.7911  154.4746 H   0  0  0  0  0  0  0  0  0  0  0  0
  149.2025  140.7007  154.5206 H   0  0  0  0  0  0  0  0  0  0  0  0
  147.6464  137.5750  156.8018 H   0  0  0  0  0  0  0  0  0  0  0  0
  148.7140  135.3846  160.4980 H   0  0  0  0  0  0  0  0  0  0  0  0
  147.2485  134.4659  160.1210 H   0  0  0  0  0  0  0  0  0  0  0  0
  147.1727  135.8297  161.2445 H   0  0  0  0  0  0  0  0  0  0  0  0
  145.3876  135.5790  156.8833 H   0  0  0  0  0  0  0  0  0  0  0  0
  143.2801  139.1544  158.2335 H   0  0  0  0  0  0  0  0  0  0  0  0
  142.3508  139.3264  156.7369 H   0  0  0  0  0  0  0  0  0  0  0  0
  144.0146  139.9203  156.8166 H   0  0  0  0  0  0  0  0  0  0  0  0
  1  2  1  0  0  0  0
  1 30  1  0  0  0  0
  1 31  1  0  0  0  0
  1 32  1  0  0  0  0
  2  3  2  0  0  0  0
  2  4  1  0  0  0  0
  4  5  1  0  0  0  0
  5  6  1  0  0  0  0
  5 33  1  0  0  0  0
  5 34  1  0  0  0  0
  6 25  1  0  0  0  0
  6  7  1  0  0  0  0
  6 35  1  0  0  0  0
  7  8  1  0  0  0  0
  8  9  1  0  0  0  0
  8 20  1  0  0  0  0
  8 36  1  0  0  0  0
  9 19  1  0  0  0  0
  9 10  1  0  0  0  0
 10 11  1  0  0  0  0
 10 12  2  0  0  0  0
 12 13  1  0  0  0  0
 13 19  2  0  0  0  0
 13 14  1  0  0  0  0
 14 15  1  0  0  0  0
 14 16  2  0  0  0  0
 15 37  1  0  0  0  0
 15 38  1  0  0  0  0
 16 17  1  0  0  0  0
 17 18  2  0  0  0  0
 17 39  1  0  0  0  0
 18 19  1  0  0  0  0
 20 21  1  0  0  0  0
 20 25  1  0  0  0  0
 20 40  1  0  0  0  0
 21 22  1  0  0  0  0
 22 23  1  0  0  0  0
 22 24  2  0  0  0  0
 23 41  1  0  0  0  0
 23 42  1  0  0  0  0
 23 43  1  0  0  0  0
 25 26  1  0  0  0  0
 25 44  1  0  0  0  0
 26 27  1  0  0  0  0
 27 28  1  0  0  0  0
 27 29  2  0  0  0  0
 28 45  1  0  0  0  0
 28 46  1  0  0  0  0
 28 47  1  0  0  0  0
M  END
> <s_m_source_file>
AV-unprocessed.smi

> <i_m_source_file_index>
104

> <i_lp_mmshare_version>
43012

> <i_f3d_flags>
0

> <s_epik_input>
W0NIM11DKD1PKU9bQ0gyXVtDQEBIXTFPW0NASF0oW0NAQEhdKE9DKD1PKVtDSDNdKVtDQEhdMU9DKD1PKVtDSDNdKW4oYyhCciluMiljKGMyMyluW2NIXW5jM1tOSDJd

> <s_epik_cmdline>
J2VwaWtfcHl0aG9uJywgJy1waCcsICc3LjAnLCAnLXRuJywgJzgnLCAnLW1hJywgJzIwMCcsICctbWV0YWxfYmluZGluZycsICctaW1hZScsICc8aW5maWxlLm1hZT4nLCAnLW9tYWUnLCAnPG91dGZpbGUubWFlPic=

> <r_lp_tautomer_probability>
1

> <r_epik_Ionization_Penalty>
7.36622e-05

> <r_epik_Ionization_Penalty_Charging>
0

> <r_epik_Ionization_Penalty_Neutral>
7.36622e-05

> <r_epik_State_Penalty>
-0

> <r_epik_Charging_Adjusted_Penalty>
0

> <i_epik_Tot_Q>
0

> <i_epik_Tot_abs_Q>
0

> <r_epik_Metal_State_Penalty>
-0

> <b_epik_Metal_Only>
0

> <s_epik_Chemistry_Notes>
This compound has an ester and may undergo hydrolysis at high or low pH. This compound contains an acetal/aminal-like group ( X-CH(R)-Y where X, Y are N, S, or O) that may be acid/base labile, releasing an aldehyde.

> <s_lp_Force_Field>
OPLS_2005

> <r_lp_Energy>
16.3368

> <b_lp_Chiralities_Consistent>
1

> <s_lp_Variant>
AV-unprocessed.smi:104-5

> <Gold.Version>
5.8.1

> <Gold.Id.Protein>
6NUR|6NUR_protein|mol2

> <Gold.PLP.Fitness>
33.4330

> <Gold.PLP.PLP>
-25.5910

> <Gold.PLP.part.hbond>
-3.0000

> <Gold.PLP.part.metal>
0.0000

> <Gold.PLP.part.buried>
-7.3854

> <Gold.PLP.part.nonpolar>
-17.9117

> <Gold.PLP.part.repulsive>
0.9711

> <Gold.PLP.ligand.clash>
0.0000

> <Gold.PLP.ligand.torsion>
0.3941

> <Gold.PLP.Chemscore.Hbond>
2.8160

> <Gold.PLP.Chemscore.CHOScore>
0.0000

> <Gold.PLP.Chemscore.Metal>
0.0000

> <Gold.Chemscore.Hbonds>
donor molecule, donor type, donor heavy atom, donor atom, acceptor molecule, acceptor atom, score
      P1  H  6934  6947       L1    24  0.59
      P1  H  7989  7998       L1    16  1.00
      P1  H 10752 10763       L1    12  1.00

> <Gold.PLP.Chemscore.Internal.Correction>
0.1822

> <Gold.Rescore>
     Score         DG    S(hbond)    S(metal)    S(lipo)     H(rot)  DE(clash)    DE(int)     intcor
      5.72      -6.22       2.69        0.00      23.86       4.31       0.00       0.51       ----

> <Gold.Chemscore.Fitness>
5.7157

> <Gold.Chemscore.DG>
-6.2236

> <Gold.Chemscore.ZeroCoef>
-5.4800

> <Gold.Chemscore.Hbond>
2.6881

> <Gold.Chemscore.Metal>
0.0000

> <Gold.Chemscore.Lipo>
23.8562

> <Gold.Chemscore.Internal_Hbond>
0.0000

> <Gold.Chemscore.DEClash>
0.0000

> <Gold.Chemscore.DEInternal>
0.5080

> <Gold.Chemscore.Rot>
4.3070

> <Gold.Chemscore.Internal.Correction>
   9.000000E+99

> <Gold.Chemscore.Hbonds>
donor molecule, donor type, donor heavy atom, donor atom, acceptor molecule, acceptor atom, score
      P1  H  6934  6947       L1    24  0.58
      P1  H  7989  7998       L1    16  0.80
      P1  H 10752 10763       L1    12  0.98

> <Gold.Chemscore.Hbond.Weighted>
-8.9783

> <Gold.Chemscore.Metal.Weighted>
-0.0000

> <Gold.Chemscore.Lipo.Weighted>
-2.7912

> <Gold.Chemscore.Internal_Hbond.Weighted>
0.0000

> <Gold.Chemscore.DEClash.Weighted>
0.0000

> <Gold.Chemscore.DEInternal.Weighted>
0.5080

> <Gold.Chemscore.Rot.Weighted>
11.0259

> <Gold.Chemscore.Internal.Correction.Weighted>
   9.000000E+99

> <Gold.Protein.RotatedTorsions>
[ 6907 6896 6895 6894 ] final  122.49 input  -60.11 | X-H torsion
[ 7974 7965 7964 7962 ] final   24.05 input  175.53 | X-H torsion
[ 8008 7997 7996 7995 ] final -100.61 input   59.86 | X-H torsion
[ 10167 10162 10161 10158 ] final -161.50 input  -65.29 | X-H torsion
[ 10718 10713 10712 10709 ] final   28.34 input   66.30 | X-H torsion
[ 10763 10752 10751 10750 ] final   57.86 input  -60.55 | X-H torsion
[ 11005 11000 10999 10996 ] final  -68.66 input  -57.11 | X-H torsion

> <Gold.Protein.ActiveResidues>
 VAL166  LYS551  ARG553  GLY616  TRP617  ASP618  TYR619  PRO620  LYS621  CYS622 
 ASP623  PHE694  ASN695  SER759  ASP760  ASP761  ALA762  ILE779  LEU786  VAL792 
 PHE793  MET794  SER795  GLU796  ALA797  LYS798  CYS799  TRP800  GLU811  SER814 

> <Gold.Protein.RotatedAtoms>
  152.4239  133.7161  159.6506 H   0  0  0  0  0  0  0  0  0  0  0  0  # atno 6907 bound_to 6896
  150.8115  133.8403  159.3186 H   0  0  0  0  0  0  0  0  0  0  0  0  # atno 6908 bound_to 6896
  151.6112  135.1042  160.0133 H   0  0  0  0  0  0  0  0  0  0  0  0  # atno 6909 bound_to 6896
  146.1956  139.7659  142.8800 H   0  0  0  0  0  0  0  0  0  0  0  0  # atno 7974 bound_to 7965
  154.8310  140.0440  157.1477 H   0  0  0  0  0  0  0  0  0  0  0  0  # atno 8008 bound_to 7997
  154.9152  140.3019  155.5225 H   0  0  0  0  0  0  0  0  0  0  0  0  # atno 8009 bound_to 7997
  156.2987  140.2351  156.4196 H   0  0  0  0  0  0  0  0  0  0  0  0  # atno 8010 bound_to 7997
  139.6461  144.0170  152.2128 H   0  0  0  0  0  0  0  0  0  0  0  0  # atno 10167 bound_to 10162
  157.2322  130.7029  149.6319 H   0  0  0  0  0  0  0  0  0  0  0  0  # atno 10718 bound_to 10713
  152.9858  135.5627  154.5458 H   0  0  0  0  0  0  0  0  0  0  0  0  # atno 10763 bound_to 10752
  154.4904  135.2792  155.1503 H   0  0  0  0  0  0  0  0  0  0  0  0  # atno 10764 bound_to 10752
  154.2974  135.6314  153.5463 H   0  0  0  0  0  0  0  0  0  0  0  0  # atno 10765 bound_to 10752
  141.1537  133.6746  156.6481 H   0  0  0  0  0  0  0  0  0  0  0  0  # atno 11005 bound_to 11000
  145.3654  141.0333  143.3261 LP  0  0  0  0  0  0  0  0  0  0  0  0  # atno 17320 bound_to 7965
  144.8573  139.5230  143.6828 LP  0  0  0  0  0  0  0  0  0  0  0  0  # atno 17321 bound_to 7965
  139.9872  144.6387  150.7847 LP  0  0  0  0  0  0  0  0  0  0  0  0  # atno 17342 bound_to 10162
  140.7515  143.2974  151.3170 LP  0  0  0  0  0  0  0  0  0  0  0  0  # atno 17343 bound_to 10162
  155.9675  130.4485  150.5622 LP  0  0  0  0  0  0  0  0  0  0  0  0  # atno 17370 bound_to 10713
  157.3466  131.0726  151.1746 LP  0  0  0  0  0  0  0  0  0  0  0  0  # atno 17371 bound_to 10713
  140.3342  134.7903  157.4349 LP  0  0  0  0  0  0  0  0  0  0  0  0  # atno 17394 bound_to 11000
  140.0992  134.5496  155.8369 LP  0  0  0  0  0  0  0  0  0  0  0  0  # atno 17395 bound_to 11000

$$$$
