AV-unprocessed.smi:1710|AV-procd|sdf|6899|dock7
  -GOLD-   22720 8103D 1   1.00000     0.00000
 Structure written by MMmdl.
 36 37  0  0  0  0  0  0  0  0  1 V2000
  150.9805  142.3879  156.5579 C   0  0  0  0  0  0  0  0  0  0  0  0
  150.7522  140.5747  156.3508 S   0  0  0  0  0  0  0  0  0  0  0  0
  151.5191  140.1479  155.1702 O   0  0  0  0  0  0  0  0  0  0  0  0
  150.9957  139.9301  157.6503 O   0  0  0  0  0  0  0  0  0  0  0  0
  149.0611  140.4002  155.9785 N   0  0  0  0  0  0  0  0  0  0  0  0
  148.5285  140.9217  154.7034 C   0  0  0  0  0  0  0  0  0  0  0  0
  148.3155  139.7997  153.6720 C   0  0  0  0  0  0  0  0  0  0  0  0
  147.4448  138.6694  154.2454 C   0  0  0  0  0  0  0  0  0  0  0  0
  147.3073  137.5811  153.2815 N   0  0  0  0  0  0  0  0  0  0  0  0
  146.1508  136.9927  152.9440 C   0  0  0  0  0  0  0  0  0  0  0  0
  145.0613  137.3088  153.4221 O   0  0  0  0  0  0  0  0  0  0  0  0
  146.3404  136.0330  152.0235 N   0  0  0  0  0  0  0  0  0  0  0  0
  145.3568  135.1939  151.4414 C   0  0  0  0  0  0  0  0  0  0  0  0
  145.5127  133.7992  151.2151 C   0  0  0  0  0  0  0  0  0  0  0  0
  144.4284  133.2747  150.6619 N   0  0  0  0  0  0  0  0  0  0  0  0
  143.5808  134.3206  150.5355 N   0  0  0  0  0  0  0  0  0  0  0  0
  144.1028  135.5084  150.9977 C   0  0  0  0  0  0  0  0  0  0  0  0
  148.0825  138.1466  155.5404 C   0  0  0  0  0  0  0  0  0  0  0  0
  148.2901  139.2820  156.5583 C   0  0  0  0  0  0  0  0  0  0  0  0
  142.6588  134.2090  150.1381 H   0  0  0  0  0  0  0  0  0  0  0  0
  152.0223  142.5882  156.8071 H   0  0  0  0  0  0  0  0  0  0  0  0
  150.3479  142.7522  157.3652 H   0  0  0  0  0  0  0  0  0  0  0  0
  150.7351  142.9007  155.6297 H   0  0  0  0  0  0  0  0  0  0  0  0
  147.5769  141.4148  154.9050 H   0  0  0  0  0  0  0  0  0  0  0  0
  149.1906  141.6867  154.2991 H   0  0  0  0  0  0  0  0  0  0  0  0
  147.8482  140.2158  152.7787 H   0  0  0  0  0  0  0  0  0  0  0  0
  149.2779  139.4008  153.3524 H   0  0  0  0  0  0  0  0  0  0  0  0
  146.4563  139.0658  154.4863 H   0  0  0  0  0  0  0  0  0  0  0  0
  148.1538  137.2570  152.8368 H   0  0  0  0  0  0  0  0  0  0  0  0
  147.2868  135.8883  151.7035 H   0  0  0  0  0  0  0  0  0  0  0  0
  146.3592  133.1633  151.4288 H   0  0  0  0  0  0  0  0  0  0  0  0
  143.5473  136.4339  150.9688 H   0  0  0  0  0  0  0  0  0  0  0  0
  147.4496  137.3757  155.9818 H   0  0  0  0  0  0  0  0  0  0  0  0
  149.0355  137.6672  155.3188 H   0  0  0  0  0  0  0  0  0  0  0  0
  148.7827  138.9041  157.4538 H   0  0  0  0  0  0  0  0  0  0  0  0
  147.3207  139.6643  156.8796 H   0  0  0  0  0  0  0  0  0  0  0  0
  1  2  1  0  0  0  0
  1 21  1  0  0  0  0
  1 22  1  0  0  0  0
  1 23  1  0  0  0  0
  2  3  2  0  0  0  0
  2  4  2  0  0  0  0
  2  5  1  0  0  0  0
  5 19  1  0  0  0  0
  5  6  1  0  0  0  0
  6  7  1  0  0  0  0
  6 24  1  0  0  0  0
  6 25  1  0  0  0  0
  7  8  1  0  0  0  0
  7 26  1  0  0  0  0
  7 27  1  0  0  0  0
  8  9  1  0  0  0  0
  8 18  1  0  0  0  0
  8 28  1  0  0  0  0
  9 10  1  0  0  0  0
  9 29  1  0  0  0  0
 10 11  2  0  0  0  0
 10 12  1  0  0  0  0
 12 13  1  0  0  0  0
 12 30  1  0  0  0  0
 13 17  2  0  0  0  0
 13 14  1  0  0  0  0
 14 15  2  0  0  0  0
 14 31  1  0  0  0  0
 15 16  1  0  0  0  0
 16 20  1  0  0  0  0
 16 17  1  0  0  0  0
 17 32  1  0  0  0  0
 18 19  1  0  0  0  0
 18 33  1  0  0  0  0
 18 34  1  0  0  0  0
 19 35  1  0  0  0  0
 19 36  1  0  0  0  0
M  END
> <s_m_source_file>
AV-unprocessed.smi

> <i_m_source_file_index>
1710

> <i_lp_mmshare_version>
43012

> <i_f3d_flags>
0

> <s_epik_input>
W0NIM11TKD1PKSg9TylOMVtDSDJdW0NIMl1bQ0hdKFtDSDJdW0NIMl0xKVtOSF1DKD1PKVtOSF1jMltjSF1uW25IXVtjSF0y

> <s_epik_cmdline>
J2VwaWtfcHl0aG9uJywgJy1waCcsICc3LjAnLCAnLXRuJywgJzgnLCAnLW1hJywgJzIwMCcsICctbWV0YWxfYmluZGluZycsICctaW1hZScsICc8aW5maWxlLm1hZT4nLCAnLW9tYWUnLCAnPG91dGZpbGUubWFlPic=

> <r_lp_tautomer_probability>
1

> <r_epik_Ionization_Penalty>
5.00334e-05

> <r_epik_Ionization_Penalty_Charging>
0

> <r_epik_Ionization_Penalty_Neutral>
5.00334e-05

> <r_epik_State_Penalty>
-0

> <r_epik_Charging_Adjusted_Penalty>
0

> <i_epik_Tot_Q>
0

> <i_epik_Tot_abs_Q>
0

> <r_epik_Metal_State_Penalty>
-0

> <b_epik_Metal_Only>
0

> <s_lp_Force_Field>
OPLS_2005

> <r_lp_Energy>
2.71919

> <b_lp_Chiralities_Consistent>
1

> <s_lp_Variant>
AV-unprocessed.smi:1710-1

> <Gold.Version>
5.8.1

> <Gold.Id.Protein>
6NUR|6NUR_protein|mol2

> <Gold.PLP.Fitness>
36.1642

> <Gold.PLP.PLP>
-22.2674

> <Gold.PLP.part.hbond>
-4.0000

> <Gold.PLP.part.metal>
0.0000

> <Gold.PLP.part.buried>
-2.3846

> <Gold.PLP.part.nonpolar>
-16.3426

> <Gold.PLP.part.repulsive>
0.4216

> <Gold.PLP.ligand.clash>
0.0000

> <Gold.PLP.ligand.torsion>
1.5774

> <Gold.PLP.Chemscore.Hbond>
4.0000

> <Gold.PLP.Chemscore.CHOScore>
1.0000

> <Gold.PLP.Chemscore.Metal>
0.0000

> <Gold.Chemscore.Hbonds>
donor molecule, donor type, donor heavy atom, donor atom, acceptor molecule, acceptor atom, score
      L1  H     9    29       P1  7948  1.00
      L1  H    12    30       P1  7948  1.00
      L1  H    16    20       P1 10186  1.00
      P1  H  7989  7998       L1     3  1.00
      L1  C    17    32       P1 10171  1.00

> <Gold.PLP.Chemscore.Internal.Correction>
2.0515

> <Gold.Rescore>
     Score         DG    S(hbond)    S(metal)    S(lipo)     H(rot)  DE(clash)    DE(int)     intcor
     18.13     -20.70       3.84        0.00      42.36       1.00       0.99       1.58       ----

> <Gold.Chemscore.Fitness>
18.1325

> <Gold.Chemscore.DG>
-20.6987

> <Gold.Chemscore.ZeroCoef>
-5.4800

> <Gold.Chemscore.Hbond>
3.8391

> <Gold.Chemscore.Metal>
0.0000

> <Gold.Chemscore.Lipo>
42.3592

> <Gold.Chemscore.Internal_Hbond>
0.0000

> <Gold.Chemscore.DEClash>
0.9898

> <Gold.Chemscore.DEInternal>
1.5763

> <Gold.Chemscore.Rot>
1.0000

> <Gold.Chemscore.Internal.Correction>
   9.000000E+99

> <Gold.Chemscore.Hbonds>
donor molecule, donor type, donor heavy atom, donor atom, acceptor molecule, acceptor atom, score
      L1  H     9    29       P1  7948  0.95
      L1  H    12    30       P1  7948  0.95
      L1  H    16    20       P1 10186  0.94
      P1  H  7989  7998       L1     3  0.95

> <Gold.Chemscore.Hbond.Weighted>
-12.8226

> <Gold.Chemscore.Metal.Weighted>
-0.0000

> <Gold.Chemscore.Lipo.Weighted>
-4.9560

> <Gold.Chemscore.Internal_Hbond.Weighted>
0.0000

> <Gold.Chemscore.DEClash.Weighted>
0.9898

> <Gold.Chemscore.DEInternal.Weighted>
1.5763

> <Gold.Chemscore.Rot.Weighted>
2.5600

> <Gold.Chemscore.Internal.Correction.Weighted>
   9.000000E+99

> <Gold.Protein.RotatedTorsions>
[ 6907 6896 6895 6894 ] final   83.42 input  -60.11 | X-H torsion
[ 7974 7965 7964 7962 ] final   99.07 input  175.53 | X-H torsion
[ 8008 7997 7996 7995 ] final -173.21 input   59.86 | X-H torsion
[ 10167 10162 10161 10158 ] final   30.28 input  -65.29 | X-H torsion
[ 10718 10713 10712 10709 ] final   31.70 input   66.30 | X-H torsion
[ 10763 10752 10751 10750 ] final   -9.33 input  -60.55 | X-H torsion
[ 11005 11000 10999 10996 ] final  126.49 input  -57.11 | X-H torsion

> <Gold.Protein.ActiveResidues>
 VAL166  LYS551  ARG553  GLY616  TRP617  ASP618  TYR619  PRO620  LYS621  CYS622 
 ASP623  PHE694  ASN695  SER759  ASP760  ASP761  ALA762  ILE779  LEU786  VAL792 
 PHE793  MET794  SER795  GLU796  ALA797  LYS798  CYS799  TRP800  GLU811  SER814 

> <Gold.Protein.RotatedAtoms>
  152.5326  134.2898  159.9038 H   0  0  0  0  0  0  0  0  0  0  0  0  # atno 6907 bound_to 6896
  151.2850  133.4185  159.2637 H   0  0  0  0  0  0  0  0  0  0  0  0  # atno 6908 bound_to 6896
  151.0250  134.9513  159.8137 H   0  0  0  0  0  0  0  0  0  0  0  0  # atno 6909 bound_to 6896
  145.4037  139.2344  143.3286 H   0  0  0  0  0  0  0  0  0  0  0  0  # atno 7974 bound_to 7965
  155.9545  140.1132  157.0948 H   0  0  0  0  0  0  0  0  0  0  0  0  # atno 8008 bound_to 7997
  154.4117  140.1194  156.5163 H   0  0  0  0  0  0  0  0  0  0  0  0  # atno 8009 bound_to 7997
  155.6800  140.3473  155.4853 H   0  0  0  0  0  0  0  0  0  0  0  0  # atno 8010 bound_to 7997
  140.4692  144.0789  150.6232 H   0  0  0  0  0  0  0  0  0  0  0  0  # atno 10167 bound_to 10162
  157.2758  130.7230  149.6529 H   0  0  0  0  0  0  0  0  0  0  0  0  # atno 10718 bound_to 10713
  153.4532  135.7015  153.6096 H   0  0  0  0  0  0  0  0  0  0  0  0  # atno 10763 bound_to 10752
  153.4421  135.3777  155.2234 H   0  0  0  0  0  0  0  0  0  0  0  0  # atno 10764 bound_to 10752
  154.8728  135.3976  154.3948 H   0  0  0  0  0  0  0  0  0  0  0  0  # atno 10765 bound_to 10752
  139.9458  134.9630  156.8714 H   0  0  0  0  0  0  0  0  0  0  0  0  # atno 11005 bound_to 11000
  146.2739  140.4738  142.8803 LP  0  0  0  0  0  0  0  0  0  0  0  0  # atno 17320 bound_to 7965
  144.8356  140.6777  143.6262 LP  0  0  0  0  0  0  0  0  0  0  0  0  # atno 17321 bound_to 7965
  140.3998  143.2709  151.9961 LP  0  0  0  0  0  0  0  0  0  0  0  0  # atno 17342 bound_to 10162
  139.4816  144.6007  151.7611 LP  0  0  0  0  0  0  0  0  0  0  0  0  # atno 17343 bound_to 10162
  155.9663  130.4353  150.5087 LP  0  0  0  0  0  0  0  0  0  0  0  0  # atno 17370 bound_to 10713
  157.3020  131.0647  151.2061 LP  0  0  0  0  0  0  0  0  0  0  0  0  # atno 17371 bound_to 10713
  140.5837  134.0327  155.7473 LP  0  0  0  0  0  0  0  0  0  0  0  0  # atno 17394 bound_to 11000
  141.1108  133.9619  157.2913 LP  0  0  0  0  0  0  0  0  0  0  0  0  # atno 17395 bound_to 11000

$$$$
