AV-unprocessed.smi:1286|AV-procd|sdf|5378|dock4
  -GOLD-   22720 4523D 1   1.00000     0.00000
 Structure written by MMmdl.
 36 37  0  0  0  0  0  0  0  0  1 V2000
  152.8365  138.3503  155.6907 C   0  0  0  0  0  0  0  0  0  0  0  0
  151.8623  139.3779  155.0858 C   0  0  1  0  0  0  0  0  0  0  0  0
  150.4831  138.7826  154.7394 C   0  0  0  0  0  0  0  0  0  0  0  0
  149.5333  139.7860  154.2925 N   0  0  0  0  0  0  0  0  0  0  0  0
  148.2239  139.6080  153.8995 C   0  0  0  0  0  0  0  0  0  0  0  0
  147.7291  140.8364  153.5673 C   0  0  0  0  0  0  0  0  0  0  0  0
  148.8269  141.7142  153.7888 C   0  0  0  0  0  0  0  0  0  0  0  0
  149.9062  141.0823  154.2208 N   0  0  0  0  0  0  0  0  0  0  0  0
  151.6795  140.4967  156.0061 N   0  0  0  0  0  0  0  0  0  0  0  0
  151.3112  140.3972  157.2926 C   0  0  0  0  0  0  0  0  0  0  0  0
  151.0738  139.3245  157.8482 O   0  0  0  0  0  0  0  0  0  0  0  0
  151.1859  141.7131  158.0685 C   0  0  0  0  0  0  0  0  0  0  0  0
  152.5136  142.1996  158.6899 C   0  0  1  0  0  0  0  0  0  0  0  0
  152.3896  143.4989  159.4492 C   0  0  0  0  0  0  0  0  0  0  0  0
  152.8506  143.4130  160.6948 C   0  0  0  0  0  0  0  0  0  0  0  0
  153.3719  142.0418  161.0227 C   0  0  0  0  0  0  0  0  0  0  0  0
  153.0846  141.2193  159.7465 C   0  0  0  0  0  0  0  0  0  0  0  0
  153.0471  137.5398  154.9926 H   0  0  0  0  0  0  0  0  0  0  0  0
  152.4297  137.9084  156.6009 H   0  0  0  0  0  0  0  0  0  0  0  0
  153.7916  138.8119  155.9428 H   0  0  0  0  0  0  0  0  0  0  0  0
  152.3002  139.7541  154.1592 H   0  0  0  0  0  0  0  0  0  0  0  0
  150.5830  138.0202  153.9648 H   0  0  0  0  0  0  0  0  0  0  0  0
  150.0595  138.2844  155.6125 H   0  0  0  0  0  0  0  0  0  0  0  0
  147.7585  138.6332  153.8926 H   0  0  0  0  0  0  0  0  0  0  0  0
  146.7346  141.0722  153.2191 H   0  0  0  0  0  0  0  0  0  0  0  0
  148.8716  142.7842  153.6489 H   0  0  0  0  0  0  0  0  0  0  0  0
  151.8493  141.4205  155.6356 H   0  0  0  0  0  0  0  0  0  0  0  0
  150.7845  142.4861  157.4108 H   0  0  0  0  0  0  0  0  0  0  0  0
  150.4467  141.5671  158.8570 H   0  0  0  0  0  0  0  0  0  0  0  0
  153.2545  142.3502  157.9031 H   0  0  0  0  0  0  0  0  0  0  0  0
  151.9835  144.3940  159.0013 H   0  0  0  0  0  0  0  0  0  0  0  0
  152.8719  144.2234  161.4084 H   0  0  0  0  0  0  0  0  0  0  0  0
  154.4393  142.0919  161.2396 H   0  0  0  0  0  0  0  0  0  0  0  0
  152.8572  141.6340  161.8933 H   0  0  0  0  0  0  0  0  0  0  0  0
  152.3682  140.4284  159.9733 H   0  0  0  0  0  0  0  0  0  0  0  0
  153.9889  140.7317  159.3807 H   0  0  0  0  0  0  0  0  0  0  0  0
  1  2  1  0  0  0  0
  1 18  1  0  0  0  0
  1 19  1  0  0  0  0
  1 20  1  0  0  0  0
  2  3  1  0  0  0  0
  2  9  1  0  0  0  0
  2 21  1  0  0  0  0
  3  4  1  0  0  0  0
  3 22  1  0  0  0  0
  3 23  1  0  0  0  0
  4  8  1  0  0  0  0
  4  5  1  0  0  0  0
  5  6  2  0  0  0  0
  5 24  1  0  0  0  0
  6  7  1  0  0  0  0
  6 25  1  0  0  0  0
  7  8  2  0  0  0  0
  7 26  1  0  0  0  0
  9 10  1  0  0  0  0
  9 27  1  0  0  0  0
 10 11  2  0  0  0  0
 10 12  1  0  0  0  0
 12 13  1  0  0  0  0
 12 28  1  0  0  0  0
 12 29  1  0  0  0  0
 13 17  1  0  0  0  0
 13 14  1  0  0  0  0
 13 30  1  0  0  0  0
 14 15  2  0  0  0  0
 14 31  1  0  0  0  0
 15 16  1  0  0  0  0
 15 32  1  0  0  0  0
 16 17  1  0  0  0  0
 16 33  1  0  0  0  0
 16 34  1  0  0  0  0
 17 35  1  0  0  0  0
 17 36  1  0  0  0  0
M  END
> <s_m_source_file>
AV-unprocessed.smi

> <i_m_source_file_index>
1286

> <i_lp_mmshare_version>
43012

> <i_f3d_flags>
0

> <s_epik_input>
bjFbY0hdW2NIXVtjSF1uMVtDSDJdW0NAQEhdKFtDSDNdKVtOSF1DKD1PKVtDSDJdW0NAQEhdMltDSF09W0NIXVtDSDJdW0NIMl0y

> <s_epik_cmdline>
J2VwaWtfcHl0aG9uJywgJy1waCcsICc3LjAnLCAnLXRuJywgJzgnLCAnLW1hJywgJzIwMCcsICctbWV0YWxfYmluZGluZycsICctaW1hZScsICc8aW5maWxlLm1hZT4nLCAnLW9tYWUnLCAnPG91dGZpbGUubWFlPic=

> <r_lp_tautomer_probability>
1

> <r_epik_Ionization_Penalty>
0.000301761

> <r_epik_Ionization_Penalty_Charging>
0

> <r_epik_Ionization_Penalty_Neutral>
0.000301761

> <r_epik_State_Penalty>
-0

> <r_epik_Charging_Adjusted_Penalty>
0

> <i_epik_Tot_Q>
0

> <i_epik_Tot_abs_Q>
0

> <r_epik_Metal_State_Penalty>
-0

> <b_epik_Metal_Only>
0

> <s_lp_Force_Field>
OPLS_2005

> <r_lp_Energy>
16.9784

> <b_lp_Chiralities_Consistent>
1

> <s_lp_Variant>
AV-unprocessed.smi:1286-4

> <Gold.Version>
5.8.1

> <Gold.Id.Protein>
6NUR|6NUR_protein|mol2

> <Gold.PLP.Fitness>
42.2176

> <Gold.PLP.PLP>
-38.9190

> <Gold.PLP.part.hbond>
-1.1099

> <Gold.PLP.part.metal>
0.0000

> <Gold.PLP.part.buried>
-2.2597

> <Gold.PLP.part.nonpolar>
-36.1090

> <Gold.PLP.part.repulsive>
0.2953

> <Gold.PLP.ligand.clash>
0.0000

> <Gold.PLP.ligand.torsion>
0.4662

> <Gold.PLP.Chemscore.Hbond>
0.3978

> <Gold.PLP.Chemscore.CHOScore>
1.0000

> <Gold.PLP.Chemscore.Metal>
0.0000

> <Gold.Chemscore.Hbonds>
donor molecule, donor type, donor heavy atom, donor atom, acceptor molecule, acceptor atom, score
      P1  H  7989  7998       L1     8  0.48
      L1  C     7    26       P1  8028  0.42

> <Gold.PLP.Chemscore.Internal.Correction>
0.0376

> <Gold.Rescore>
     Score         DG    S(hbond)    S(metal)    S(lipo)     H(rot)  DE(clash)    DE(int)     intcor
     12.75     -14.32       0.17        0.00     106.46       1.64       0.18       1.40       ----

> <Gold.Chemscore.Fitness>
12.7457

> <Gold.Chemscore.DG>
-14.3200

> <Gold.Chemscore.ZeroCoef>
-5.4800

> <Gold.Chemscore.Hbond>
0.1741

> <Gold.Chemscore.Metal>
0.0000

> <Gold.Chemscore.Lipo>
106.4565

> <Gold.Chemscore.Internal_Hbond>
0.0000

> <Gold.Chemscore.DEClash>
0.1779

> <Gold.Chemscore.DEInternal>
1.3964

> <Gold.Chemscore.Rot>
1.6394

> <Gold.Chemscore.Internal.Correction>
   9.000000E+99

> <Gold.Chemscore.Hbonds>
donor molecule, donor type, donor heavy atom, donor atom, acceptor molecule, acceptor atom, score
      P1  H  7989  7998       L1     8  0.14

> <Gold.Chemscore.Hbond.Weighted>
-0.5815

> <Gold.Chemscore.Metal.Weighted>
-0.0000

> <Gold.Chemscore.Lipo.Weighted>
-12.4554

> <Gold.Chemscore.Internal_Hbond.Weighted>
0.0000

> <Gold.Chemscore.DEClash.Weighted>
0.1779

> <Gold.Chemscore.DEInternal.Weighted>
1.3964

> <Gold.Chemscore.Rot.Weighted>
4.1969

> <Gold.Chemscore.Internal.Correction.Weighted>
   9.000000E+99

> <Gold.Protein.RotatedTorsions>
[ 6907 6896 6895 6894 ] final   -1.69 input  -60.11 | X-H torsion
[ 7974 7965 7964 7962 ] final  169.98 input  175.53 | X-H torsion
[ 8008 7997 7996 7995 ] final  124.32 input   59.86 | X-H torsion
[ 10167 10162 10161 10158 ] final  171.98 input  -65.29 | X-H torsion
[ 10718 10713 10712 10709 ] final   20.40 input   66.30 | X-H torsion
[ 10763 10752 10751 10750 ] final  -74.07 input  -60.55 | X-H torsion
[ 11005 11000 10999 10996 ] final  -99.59 input  -57.11 | X-H torsion

> <Gold.Protein.ActiveResidues>
 VAL166  LYS551  ARG553  GLY616  TRP617  ASP618  TYR619  PRO620  LYS621  CYS622 
 ASP623  PHE694  ASN695  SER759  ASP760  ASP761  ALA762  ILE779  LEU786  VAL792 
 PHE793  MET794  SER795  GLU796  ALA797  LYS798  CYS799  TRP800  GLU811  SER814 

> <Gold.Protein.RotatedAtoms>
  151.5420  135.1068  159.9928 H   0  0  0  0  0  0  0  0  0  0  0  0  # atno 6907 bound_to 6896
  152.4531  133.7665  159.6786 H   0  0  0  0  0  0  0  0  0  0  0  0  # atno 6908 bound_to 6896
  150.8466  133.7786  159.3065 H   0  0  0  0  0  0  0  0  0  0  0  0  # atno 6909 bound_to 6896
  144.7338  139.9134  143.6416 H   0  0  0  0  0  0  0  0  0  0  0  0  # atno 7974 bound_to 7965
  156.2797  140.2742  156.1770 H   0  0  0  0  0  0  0  0  0  0  0  0  # atno 8008 bound_to 7997
  155.0596  140.0386  157.2590 H   0  0  0  0  0  0  0  0  0  0  0  0  # atno 8009 bound_to 7997
  154.7128  140.2672  155.6619 H   0  0  0  0  0  0  0  0  0  0  0  0  # atno 8010 bound_to 7997
  139.5063  144.3425  152.0004 H   0  0  0  0  0  0  0  0  0  0  0  0  # atno 10167 bound_to 10162
  157.1240  130.6562  149.5932 H   0  0  0  0  0  0  0  0  0  0  0  0  # atno 10718 bound_to 10713
  154.4681  135.5876  153.6302 H   0  0  0  0  0  0  0  0  0  0  0  0  # atno 10763 bound_to 10752
  152.9831  135.6060  154.3402 H   0  0  0  0  0  0  0  0  0  0  0  0  # atno 10764 bound_to 10752
  154.3281  135.2843  155.2465 H   0  0  0  0  0  0  0  0  0  0  0  0  # atno 10765 bound_to 10752
  141.1303  133.8333  157.0991 H   0  0  0  0  0  0  0  0  0  0  0  0  # atno 11005 bound_to 11000
  146.0984  139.3978  143.0362 LP  0  0  0  0  0  0  0  0  0  0  0  0  # atno 17320 bound_to 7965
  145.7613  140.9934  143.1198 LP  0  0  0  0  0  0  0  0  0  0  0  0  # atno 17321 bound_to 7965
  140.2862  144.3804  150.6103 LP  0  0  0  0  0  0  0  0  0  0  0  0  # atno 17342 bound_to 10162
  140.5981  143.2167  151.7126 LP  0  0  0  0  0  0  0  0  0  0  0  0  # atno 17343 bound_to 10162
  155.9822  130.4834  150.6869 LP  0  0  0  0  0  0  0  0  0  0  0  0  # atno 17370 bound_to 10713
  157.4451  131.0866  151.0904 LP  0  0  0  0  0  0  0  0  0  0  0  0  # atno 17371 bound_to 10713
  140.0345  134.9885  157.0843 LP  0  0  0  0  0  0  0  0  0  0  0  0  # atno 17394 bound_to 11000
  140.4233  134.1857  155.7165 LP  0  0  0  0  0  0  0  0  0  0  0  0  # atno 17395 bound_to 11000

$$$$
