AV-unprocessed.smi:1433|AV-procd|sdf|5845|dock1
  -GOLD-   22720 5513D 1   1.00000     0.00000
 Structure written by MMmdl.
 45 46  0  0  0  0  0  0  0  0  2 V2000
  149.0451  140.7341  154.6669 C   0  0  0  0  0  0  0  0  0  0  0  0
  149.7057  139.4124  154.2594 C   0  0  2  0  0  0  0  0  0  0  0  0
  148.9981  138.1931  154.8822 C   0  0  0  0  0  0  0  0  0  0  0  0
  149.7052  136.9294  154.5363 N   0  3  2  0  0  0  0  0  0  0  0  0
  149.0782  135.6641  155.0426 C   0  0  2  0  0  0  0  0  0  0  0  0
  147.5399  135.7570  154.9190 C   0  0  0  0  0  0  0  0  0  0  0  0
  149.4947  135.2937  156.4932 C   0  0  0  0  0  0  0  0  0  0  0  0
  148.7757  136.0725  157.4976 N   0  0  0  0  0  0  0  0  0  0  0  0
  148.4321  135.6405  158.7219 C   0  0  0  0  0  0  0  0  0  0  0  0
  148.6458  134.4969  159.1230 O   0  0  0  0  0  0  0  0  0  0  0  0
  147.7573  136.6595  159.6424 C   0  0  0  0  0  0  0  0  0  0  0  0
  147.4717  136.0870  160.9472 N   0  0  0  0  0  0  0  0  0  0  0  0
  146.5854  135.0792  161.2661 C   0  0  0  0  0  0  0  0  0  0  0  0
  146.6539  134.8892  162.6165 C   0  0  0  0  0  0  0  0  0  0  0  0
  147.6244  135.8382  163.0428 C   0  0  0  0  0  0  0  0  0  0  0  0
  148.1115  136.5536  162.0422 N   0  0  0  0  0  0  0  0  0  0  0  0
  151.1389  137.0466  154.9172 C   0  0  0  0  0  0  0  0  0  0  0  0
  151.7823  138.2915  154.2796 C   0  0  2  0  0  0  0  0  0  0  0  0
  153.2436  138.4701  154.7059 C   0  0  0  0  0  0  0  0  0  0  0  0
  151.0591  139.4434  154.6919 O   0  0  0  0  0  0  0  0  0  0  0  0
  148.0035  140.7681  154.3463 H   0  0  0  0  0  0  0  0  0  0  0  0
  149.5590  141.5827  154.2147 H   0  0  0  0  0  0  0  0  0  0  0  0
  149.0671  140.8699  155.7484 H   0  0  0  0  0  0  0  0  0  0  0  0
  149.6789  139.3352  153.1709 H   0  0  0  0  0  0  0  0  0  0  0  0
  148.9463  138.2971  155.9673 H   0  0  0  0  0  0  0  0  0  0  0  0
  147.9767  138.1804  154.5031 H   0  0  0  0  0  0  0  0  0  0  0  0
  149.4207  134.8494  154.4023 H   0  0  0  0  0  0  0  0  0  0  0  0
  147.0555  134.8158  155.1785 H   0  0  0  0  0  0  0  0  0  0  0  0
  147.2110  135.9909  153.9084 H   0  0  0  0  0  0  0  0  0  0  0  0
  147.1402  136.5262  155.5806 H   0  0  0  0  0  0  0  0  0  0  0  0
  149.2552  134.2521  156.7065 H   0  0  0  0  0  0  0  0  0  0  0  0
  150.5741  135.3977  156.6172 H   0  0  0  0  0  0  0  0  0  0  0  0
  148.5527  137.0278  157.2578 H   0  0  0  0  0  0  0  0  0  0  0  0
  148.4045  137.5285  159.7678 H   0  0  0  0  0  0  0  0  0  0  0  0
  146.8259  137.0128  159.1973 H   0  0  0  0  0  0  0  0  0  0  0  0
  145.9857  134.5878  160.5141 H   0  0  0  0  0  0  0  0  0  0  0  0
  146.0973  134.1793  163.2100 H   0  0  0  0  0  0  0  0  0  0  0  0
  147.9866  136.0274  164.0425 H   0  0  0  0  0  0  0  0  0  0  0  0
  151.2207  137.1024  156.0041 H   0  0  0  0  0  0  0  0  0  0  0  0
  151.6986  136.1664  154.6062 H   0  0  0  0  0  0  0  0  0  0  0  0
  151.7463  138.2103  153.1917 H   0  0  0  0  0  0  0  0  0  0  0  0
  153.8485  137.6147  154.4039 H   0  0  0  0  0  0  0  0  0  0  0  0
  153.3302  138.5761  155.7878 H   0  0  0  0  0  0  0  0  0  0  0  0
  153.6768  139.3603  154.2492 H   0  0  0  0  0  0  0  0  0  0  0  0
  149.6739  136.8697  153.5284 H   0  0  0  0  0  0  0  0  0  0  0  0
  1  2  1  0  0  0  0
  1 21  1  0  0  0  0
  1 22  1  0  0  0  0
  1 23  1  0  0  0  0
  2 20  1  0  0  0  0
  2  3  1  0  0  0  0
  2 24  1  0  0  0  0
  3  4  1  0  0  0  0
  3 25  1  0  0  0  0
  3 26  1  0  0  0  0
  4  5  1  0  0  0  0
  4 17  1  0  0  0  0
  4 45  1  0  0  0  0
  5  6  1  0  0  0  0
  5  7  1  0  0  0  0
  5 27  1  0  0  0  0
  6 28  1  0  0  0  0
  6 29  1  0  0  0  0
  6 30  1  0  0  0  0
  7  8  1  0  0  0  0
  7 31  1  0  0  0  0
  7 32  1  0  0  0  0
  8  9  1  0  0  0  0
  8 33  1  0  0  0  0
  9 10  2  0  0  0  0
  9 11  1  0  0  0  0
 11 12  1  0  0  0  0
 11 34  1  0  0  0  0
 11 35  1  0  0  0  0
 12 16  1  0  0  0  0
 12 13  1  0  0  0  0
 13 14  2  0  0  0  0
 13 36  1  0  0  0  0
 14 15  1  0  0  0  0
 14 37  1  0  0  0  0
 15 16  2  0  0  0  0
 15 38  1  0  0  0  0
 17 18  1  0  0  0  0
 17 39  1  0  0  0  0
 17 40  1  0  0  0  0
 18 19  1  0  0  0  0
 18 20  1  0  0  0  0
 18 41  1  0  0  0  0
 19 42  1  0  0  0  0
 19 43  1  0  0  0  0
 19 44  1  0  0  0  0
M  CHG  1   4   1
M  END
> <s_m_source_file>
AV-unprocessed.smi

> <i_m_source_file_index>
1433

> <i_lp_mmshare_version>
43012

> <i_f3d_flags>
0

> <s_epik_input>
W0NIM11bQ0BASF0xW0NIMl1OKFtDSDJdW0NASF0oTzEpW0NIM10pW0NASF0oW0NIM10pW0NIMl1bTkhdQyg9TylbQ0gyXW4yW2NIXVtjSF1bY0hdbjI=

> <s_epik_cmdline>
J2VwaWtfcHl0aG9uJywgJy1waCcsICc3LjAnLCAnLXRuJywgJzgnLCAnLW1hJywgJzIwMCcsICctbWV0YWxfYmluZGluZycsICctaW1hZScsICc8aW5maWxlLm1hZT4nLCAnLW9tYWUnLCAnPG91dGZpbGUubWFlPic=

> <r_lp_tautomer_probability>
1

> <r_epik_Ionization_Penalty>
0.748405

> <r_epik_Ionization_Penalty_Charging>
0.748396

> <r_epik_Ionization_Penalty_Neutral>
8.54426e-06

> <r_epik_State_Penalty>
0.775162

> <r_epik_Charging_Adjusted_Penalty>
1.52356

> <i_epik_Tot_Q>
1

> <i_epik_Tot_abs_Q>
1

> <r_epik_Metal_State_Penalty>
0.775167

> <b_epik_Metal_Only>
0

> <s_lp_Force_Field>
OPLS_2005

> <r_lp_Energy>
19.9081

> <b_lp_Chiralities_Consistent>
1

> <s_lp_Variant>
AV-unprocessed.smi:1433-11

> <Gold.Version>
5.8.1

> <Gold.Id.Protein>
6NUR|6NUR_protein|mol2

> <Gold.PLP.Fitness>
50.3665

> <Gold.PLP.PLP>
-36.7582

> <Gold.PLP.part.hbond>
-4.1030

> <Gold.PLP.part.metal>
0.0000

> <Gold.PLP.part.buried>
-4.0288

> <Gold.PLP.part.nonpolar>
-29.2952

> <Gold.PLP.part.repulsive>
0.1702

> <Gold.PLP.ligand.clash>
0.0000

> <Gold.PLP.ligand.torsion>
0.7274

> <Gold.PLP.Chemscore.Hbond>
5.0000

> <Gold.PLP.Chemscore.CHOScore>
0.0000

> <Gold.PLP.Chemscore.Metal>
0.0000

> <Gold.Chemscore.Hbonds>
donor molecule, donor type, donor heavy atom, donor atom, acceptor molecule, acceptor atom, score
      L1  H     4    45       P1  7948  2.00
      P1  H  6896  6908       L1    10  0.98
      P1  H  6931  6943       L1    16  1.00
      P1  H  7989  7998       L1    20  0.85

> <Gold.PLP.Chemscore.Internal.Correction>
0.0630

> <Gold.Rescore>
     Score         DG    S(hbond)    S(metal)    S(lipo)     H(rot)  DE(clash)    DE(int)     intcor
     19.38     -20.30       2.94        0.00      83.51       1.87       0.17       0.75       ----

> <Gold.Chemscore.Fitness>
19.3838

> <Gold.Chemscore.DG>
-20.3017

> <Gold.Chemscore.ZeroCoef>
-5.4800

> <Gold.Chemscore.Hbond>
2.9423

> <Gold.Chemscore.Metal>
0.0000

> <Gold.Chemscore.Lipo>
83.5082

> <Gold.Chemscore.Internal_Hbond>
0.0000

> <Gold.Chemscore.DEClash>
0.1699

> <Gold.Chemscore.DEInternal>
0.7480

> <Gold.Chemscore.Rot>
1.8657

> <Gold.Chemscore.Internal.Correction>
   9.000000E+99

> <Gold.Chemscore.Hbonds>
donor molecule, donor type, donor heavy atom, donor atom, acceptor molecule, acceptor atom, score
      L1  H     4    45       P1  7948  0.64
      P1  H  6896  6908       L1    10  0.40
      P1  H  6931  6943       L1    16  0.96
      P1  H  7989  7998       L1    20  0.07

> <Gold.Chemscore.Hbond.Weighted>
-9.8274

> <Gold.Chemscore.Metal.Weighted>
-0.0000

> <Gold.Chemscore.Lipo.Weighted>
-9.7705

> <Gold.Chemscore.Internal_Hbond.Weighted>
0.0000

> <Gold.Chemscore.DEClash.Weighted>
0.1699

> <Gold.Chemscore.DEInternal.Weighted>
0.7480

> <Gold.Chemscore.Rot.Weighted>
4.7761

> <Gold.Chemscore.Internal.Correction.Weighted>
   9.000000E+99

> <Gold.Protein.RotatedTorsions>
[ 6907 6896 6895 6894 ] final  165.25 input  -60.11 | X-H torsion
[ 7974 7965 7964 7962 ] final  -97.15 input  175.53 | X-H torsion
[ 8008 7997 7996 7995 ] final   -4.33 input   59.86 | X-H torsion
[ 10167 10162 10161 10158 ] final -112.72 input  -65.29 | X-H torsion
[ 10718 10713 10712 10709 ] final  -58.17 input   66.30 | X-H torsion
[ 10763 10752 10751 10750 ] final   47.85 input  -60.55 | X-H torsion
[ 11005 11000 10999 10996 ] final -130.30 input  -57.11 | X-H torsion

> <Gold.Protein.ActiveResidues>
 VAL166  LYS551  ARG553  GLY616  TRP617  ASP618  TYR619  PRO620  LYS621  CYS622 
 ASP623  PHE694  ASN695  SER759  ASP760  ASP761  ALA762  ILE779  LEU786  VAL792 
 PHE793  MET794  SER795  GLU796  ALA797  LYS798  CYS799  TRP800  GLU811  SER814 

> <Gold.Protein.RotatedAtoms>
  151.8974  133.3530  159.3818 H   0  0  0  0  0  0  0  0  0  0  0  0  # atno 6907 bound_to 6896
  150.7088  134.4863  159.5503 H   0  0  0  0  0  0  0  0  0  0  0  0  # atno 6908 bound_to 6896
  152.2445  134.8196  160.0506 H   0  0  0  0  0  0  0  0  0  0  0  0  # atno 6909 bound_to 6896
  145.3375  140.9453  143.2627 H   0  0  0  0  0  0  0  0  0  0  0  0  # atno 7974 bound_to 7965
  154.6154  140.2486  155.7615 H   0  0  0  0  0  0  0  0  0  0  0  0  # atno 8008 bound_to 7997
  156.2396  140.2937  156.0356 H   0  0  0  0  0  0  0  0  0  0  0  0  # atno 8009 bound_to 7997
  155.1983  140.0393  157.2903 H   0  0  0  0  0  0  0  0  0  0  0  0  # atno 8010 bound_to 7997
  140.1196  143.4455  152.1699 H   0  0  0  0  0  0  0  0  0  0  0  0  # atno 10167 bound_to 10162
  156.1155  130.4171  150.0541 H   0  0  0  0  0  0  0  0  0  0  0  0  # atno 10718 bound_to 10713
  152.9796  135.5963  154.3829 H   0  0  0  0  0  0  0  0  0  0  0  0  # atno 10763 bound_to 10752
  154.3492  135.2767  155.2383 H   0  0  0  0  0  0  0  0  0  0  0  0  # atno 10764 bound_to 10752
  154.4430  135.6008  153.6196 H   0  0  0  0  0  0  0  0  0  0  0  0  # atno 10765 bound_to 10752
  140.9358  134.1259  157.4195 H   0  0  0  0  0  0  0  0  0  0  0  0  # atno 11005 bound_to 11000
  144.8816  139.4896  143.6720 LP  0  0  0  0  0  0  0  0  0  0  0  0  # atno 17320 bound_to 7965
  146.3021  139.7460  142.9083 LP  0  0  0  0  0  0  0  0  0  0  0  0  # atno 17321 bound_to 7965
  139.5575  144.7383  151.4250 LP  0  0  0  0  0  0  0  0  0  0  0  0  # atno 17342 bound_to 10162
  140.6879  143.7930  150.7213 LP  0  0  0  0  0  0  0  0  0  0  0  0  # atno 17343 bound_to 10162
  156.8493  130.9453  151.3626 LP  0  0  0  0  0  0  0  0  0  0  0  0  # atno 17370 bound_to 10713
  157.6338  130.8750  149.9322 LP  0  0  0  0  0  0  0  0  0  0  0  0  # atno 17371 bound_to 10713
  139.8807  135.0020  156.6102 LP  0  0  0  0  0  0  0  0  0  0  0  0  # atno 17394 bound_to 11000
  140.7801  133.8667  155.8561 LP  0  0  0  0  0  0  0  0  0  0  0  0  # atno 17395 bound_to 11000

$$$$
