AV-unprocessed.smi:653|AV-procd|sdf|3205|dock7
  -GOLD-   22720 0143D 1   1.00000     0.00000
 Structure written by MMmdl.
 44 45  0  0  0  0  0  0  0  0  1 V2000
  150.0629  134.5633  155.6649 C   0  0  0  0  0  0  0  0  0  0  0  0
  150.4690  136.0223  155.6701 C   0  0  0  0  0  0  0  0  0  0  0  0
  149.6169  137.0081  155.1294 C   0  0  0  0  0  0  0  0  0  0  0  0
  150.0385  138.3510  155.1637 C   0  0  0  0  0  0  0  0  0  0  0  0
  151.2909  138.6566  155.7359 C   0  0  0  0  0  0  0  0  0  0  0  0
  151.7896  140.0883  155.8003 C   0  0  0  0  0  0  0  0  0  0  0  0
  152.0115  140.5082  157.2537 C   0  0  0  0  0  0  0  0  0  0  0  0
  152.7332  139.8304  157.9854 O   0  0  0  0  0  0  0  0  0  0  0  0
  151.3857  141.6253  157.6559 N   0  0  0  0  0  0  0  0  0  0  0  0
  151.4758  142.2172  158.9876 C   0  0  0  0  0  0  0  0  0  0  0  0
  152.7536  143.0752  159.1634 C   0  0  1  0  0  0  0  0  0  0  0  0
  152.5995  144.4971  158.6408 C   0  0  0  0  0  0  0  0  0  0  0  0
  151.9532  145.2331  159.8155 C   0  0  0  0  0  0  0  0  0  0  0  0
  152.2123  144.4353  160.9679 O   0  0  0  0  0  0  0  0  0  0  0  0
  153.1114  143.3860  160.6283 C   0  0  1  0  0  0  0  0  0  0  0  0
  153.0394  142.2245  161.6460 C   0  0  0  0  0  0  0  0  0  0  0  0
  153.4109  142.7052  163.0581 C   0  0  0  0  0  0  0  0  0  0  0  0
  153.9478  141.0519  161.2385 C   0  0  0  0  0  0  0  0  0  0  0  0
  152.0663  137.5954  156.2496 C   0  0  0  0  0  0  0  0  0  0  0  0
  151.6702  136.3049  156.2213 N   0  0  0  0  0  0  0  0  0  0  0  0
  149.3645  134.3578  154.8531 H   0  0  0  0  0  0  0  0  0  0  0  0
  149.5798  134.3044  156.6074 H   0  0  0  0  0  0  0  0  0  0  0  0
  150.9314  133.9166  155.5342 H   0  0  0  0  0  0  0  0  0  0  0  0
  148.6616  136.7443  154.6998 H   0  0  0  0  0  0  0  0  0  0  0  0
  149.4093  139.1311  154.7608 H   0  0  0  0  0  0  0  0  0  0  0  0
  152.7135  140.1842  155.2273 H   0  0  0  0  0  0  0  0  0  0  0  0
  151.0618  140.7564  155.3381 H   0  0  0  0  0  0  0  0  0  0  0  0
  150.8129  142.1123  156.9819 H   0  0  0  0  0  0  0  0  0  0  0  0
  150.5827  142.7976  159.2246 H   0  0  0  0  0  0  0  0  0  0  0  0
  151.4847  141.3843  159.6894 H   0  0  0  0  0  0  0  0  0  0  0  0
  153.5855  142.5752  158.6655 H   0  0  0  0  0  0  0  0  0  0  0  0
  153.5866  144.9197  158.4485 H   0  0  0  0  0  0  0  0  0  0  0  0
  152.0284  144.5851  157.7177 H   0  0  0  0  0  0  0  0  0  0  0  0
  152.3616  146.2368  159.9343 H   0  0  0  0  0  0  0  0  0  0  0  0
  150.8744  145.3182  159.6814 H   0  0  0  0  0  0  0  0  0  0  0  0
  154.1188  143.8070  160.6544 H   0  0  0  0  0  0  0  0  0  0  0  0
  152.0129  141.8605  161.6937 H   0  0  0  0  0  0  0  0  0  0  0  0
  154.4290  143.0952  163.0897 H   0  0  0  0  0  0  0  0  0  0  0  0
  153.3444  141.8911  163.7805 H   0  0  0  0  0  0  0  0  0  0  0  0
  152.7412  143.4955  163.3982 H   0  0  0  0  0  0  0  0  0  0  0  0
  154.9917  141.3628  161.1827 H   0  0  0  0  0  0  0  0  0  0  0  0
  153.6724  140.6443  160.2664 H   0  0  0  0  0  0  0  0  0  0  0  0
  153.8830  140.2374  161.9605 H   0  0  0  0  0  0  0  0  0  0  0  0
  153.0304  137.7871  156.6976 H   0  0  0  0  0  0  0  0  0  0  0  0
  1  2  1  0  0  0  0
  1 21  1  0  0  0  0
  1 22  1  0  0  0  0
  1 23  1  0  0  0  0
  2 20  1  0  0  0  0
  2  3  2  0  0  0  0
  3  4  1  0  0  0  0
  3 24  1  0  0  0  0
  4  5  2  0  0  0  0
  4 25  1  0  0  0  0
  5  6  1  0  0  0  0
  5 19  1  0  0  0  0
  6  7  1  0  0  0  0
  6 26  1  0  0  0  0
  6 27  1  0  0  0  0
  7  8  2  0  0  0  0
  7  9  1  0  0  0  0
  9 10  1  0  0  0  0
  9 28  1  0  0  0  0
 10 11  1  0  0  0  0
 10 29  1  0  0  0  0
 10 30  1  0  0  0  0
 11 15  1  0  0  0  0
 11 12  1  0  0  0  0
 11 31  1  0  0  0  0
 12 13  1  0  0  0  0
 12 32  1  0  0  0  0
 12 33  1  0  0  0  0
 13 14  1  0  0  0  0
 13 34  1  0  0  0  0
 13 35  1  0  0  0  0
 14 15  1  0  0  0  0
 15 16  1  0  0  0  0
 15 36  1  0  0  0  0
 16 17  1  0  0  0  0
 16 18  1  0  0  0  0
 16 37  1  0  0  0  0
 17 38  1  0  0  0  0
 17 39  1  0  0  0  0
 17 40  1  0  0  0  0
 18 41  1  0  0  0  0
 18 42  1  0  0  0  0
 18 43  1  0  0  0  0
 19 20  2  0  0  0  0
 19 44  1  0  0  0  0
M  END
> <s_m_source_file>
AV-unprocessed.smi

> <i_m_source_file_index>
653

> <i_lp_mmshare_version>
43012

> <i_f3d_flags>
0

> <s_epik_input>
W0NIM11jMVtjSF1bY0hdYyhbY0hdbjEpW0NIMl1DKD1PKVtOSF1bQ0gyXVtDQEBIXTJbQ0gyXVtDSDJdT1tDQEhdMltDSF0oW0NIM10pW0NIM10=

> <s_epik_cmdline>
J2VwaWtfcHl0aG9uJywgJy1waCcsICc3LjAnLCAnLXRuJywgJzgnLCAnLW1hJywgJzIwMCcsICctbWV0YWxfYmluZGluZycsICctaW1hZScsICc8aW5maWxlLm1hZT4nLCAnLW9tYWUnLCAnPG91dGZpbGUubWFlPic=

> <r_epik_Ionization_Penalty>
0.0166429

> <r_epik_Ionization_Penalty_Charging>
0

> <r_epik_Ionization_Penalty_Neutral>
0.0166429

> <r_epik_State_Penalty>
0.0131478

> <r_epik_Charging_Adjusted_Penalty>
0.0131478

> <i_epik_Tot_Q>
0

> <i_epik_Tot_abs_Q>
0

> <r_epik_Metal_State_Penalty>
0.012786

> <b_epik_Metal_Only>
0

> <s_lp_Force_Field>
OPLS_2005

> <r_lp_Energy>
21.9695

> <b_lp_Chiralities_Consistent>
1

> <s_lp_Variant>
AV-unprocessed.smi:653-2

> <Gold.Version>
5.8.1

> <Gold.Id.Protein>
6NUR|6NUR_protein|mol2

> <Gold.PLP.Fitness>
52.4597

> <Gold.PLP.PLP>
-47.1989

> <Gold.PLP.part.hbond>
-2.0000

> <Gold.PLP.part.metal>
0.0000

> <Gold.PLP.part.buried>
-5.7161

> <Gold.PLP.part.nonpolar>
-40.3389

> <Gold.PLP.part.repulsive>
0.1920

> <Gold.PLP.ligand.clash>
0.0000

> <Gold.PLP.ligand.torsion>
0.3854

> <Gold.PLP.Chemscore.Hbond>
2.0000

> <Gold.PLP.Chemscore.CHOScore>
0.0000

> <Gold.PLP.Chemscore.Metal>
0.0000

> <Gold.Chemscore.Hbonds>
donor molecule, donor type, donor heavy atom, donor atom, acceptor molecule, acceptor atom, score
      P1  H  7997  8010       L1     8  0.82
      P1  H 10752 10763       L1    20  0.96

> <Gold.PLP.Chemscore.Internal.Correction>
0.0316

> <Gold.Rescore>
     Score         DG    S(hbond)    S(metal)    S(lipo)     H(rot)  DE(clash)    DE(int)     intcor
     19.25     -21.29       1.45        0.00     126.26       1.48       0.34       1.70       ----

> <Gold.Chemscore.Fitness>
19.2513

> <Gold.Chemscore.DG>
-21.2947

> <Gold.Chemscore.ZeroCoef>
-5.4800

> <Gold.Chemscore.Hbond>
1.4504

> <Gold.Chemscore.Metal>
0.0000

> <Gold.Chemscore.Lipo>
126.2566

> <Gold.Chemscore.Internal_Hbond>
0.0000

> <Gold.Chemscore.DEClash>
0.3430

> <Gold.Chemscore.DEInternal>
1.7004

> <Gold.Chemscore.Rot>
1.4850

> <Gold.Chemscore.Internal.Correction>
   9.000000E+99

> <Gold.Chemscore.Hbonds>
donor molecule, donor type, donor heavy atom, donor atom, acceptor molecule, acceptor atom, score
      P1  H  7997  8010       L1     8  0.18
      P1  H 10752 10763       L1    20  0.15

> <Gold.Chemscore.Hbond.Weighted>
-4.8443

> <Gold.Chemscore.Metal.Weighted>
-0.0000

> <Gold.Chemscore.Lipo.Weighted>
-14.7720

> <Gold.Chemscore.Internal_Hbond.Weighted>
0.0000

> <Gold.Chemscore.DEClash.Weighted>
0.3430

> <Gold.Chemscore.DEInternal.Weighted>
1.7004

> <Gold.Chemscore.Rot.Weighted>
3.8015

> <Gold.Chemscore.Internal.Correction.Weighted>
   9.000000E+99

> <Gold.Protein.RotatedTorsions>
[ 6907 6896 6895 6894 ] final  -69.68 input  -60.11 | X-H torsion
[ 7974 7965 7964 7962 ] final  -29.83 input  175.53 | X-H torsion
[ 8008 7997 7996 7995 ] final   39.13 input   59.86 | X-H torsion
[ 10167 10162 10161 10158 ] final  -70.47 input  -65.29 | X-H torsion
[ 10718 10713 10712 10709 ] final  142.52 input   66.30 | X-H torsion
[ 10763 10752 10751 10750 ] final   82.49 input  -60.55 | X-H torsion
[ 11005 11000 10999 10996 ] final -138.86 input  -57.11 | X-H torsion

> <Gold.Protein.ActiveResidues>
 VAL166  LYS551  ARG553  GLY616  TRP617  ASP618  TYR619  PRO620  LYS621  CYS622 
 ASP623  PHE694  ASN695  SER759  ASP760  ASP761  ALA762  ILE779  LEU786  VAL792 
 PHE793  MET794  SER795  GLU796  ALA797  LYS798  CYS799  TRP800  GLU811  SER814 

> <Gold.Protein.RotatedAtoms>
  150.7294  134.5562  159.5818 H   0  0  0  0  0  0  0  0  0  0  0  0  # atno 6907 bound_to 6896
  152.3037  134.7578  160.0361 H   0  0  0  0  0  0  0  0  0  0  0  0  # atno 6908 bound_to 6896
  151.8150  133.3351  159.3603 H   0  0  0  0  0  0  0  0  0  0  0  0  # atno 6909 bound_to 6896
  146.1188  140.5463  142.8745 H   0  0  0  0  0  0  0  0  0  0  0  0  # atno 7974 bound_to 7965
  155.2316  140.3338  155.4303 H   0  0  0  0  0  0  0  0  0  0  0  0  # atno 8008 bound_to 7997
  156.2293  140.1843  156.7330 H   0  0  0  0  0  0  0  0  0  0  0  0  # atno 8009 bound_to 7997
  154.5950  140.0632  156.9276 H   0  0  0  0  0  0  0  0  0  0  0  0  # atno 8010 bound_to 7997
  140.5350  143.2318  151.7193 H   0  0  0  0  0  0  0  0  0  0  0  0  # atno 10167 bound_to 10162
  157.3796  131.0990  151.0751 H   0  0  0  0  0  0  0  0  0  0  0  0  # atno 10718 bound_to 10713
  153.1207  135.4726  154.9191 H   0  0  0  0  0  0  0  0  0  0  0  0  # atno 10763 bound_to 10752
  154.7573  135.3122  154.8448 H   0  0  0  0  0  0  0  0  0  0  0  0  # atno 10764 bound_to 10752
  153.9014  135.6874  153.4809 H   0  0  0  0  0  0  0  0  0  0  0  0  # atno 10765 bound_to 10752
  140.8575  134.2210  157.4726 H   0  0  0  0  0  0  0  0  0  0  0  0  # atno 11005 bound_to 11000
  144.7577  140.5348  143.6757 LP  0  0  0  0  0  0  0  0  0  0  0  0  # atno 17320 bound_to 7965
  145.5511  139.1477  143.3394 LP  0  0  0  0  0  0  0  0  0  0  0  0  # atno 17321 bound_to 7965
  139.4967  144.4056  152.0135 LP  0  0  0  0  0  0  0  0  0  0  0  0  # atno 17342 bound_to 10162
  140.3161  144.3482  150.6021 LP  0  0  0  0  0  0  0  0  0  0  0  0  # atno 17343 bound_to 10162
  157.1824  130.6315  149.5676 LP  0  0  0  0  0  0  0  0  0  0  0  0  # atno 17370 bound_to 10713
  155.9773  130.4749  150.6583 LP  0  0  0  0  0  0  0  0  0  0  0  0  # atno 17371 bound_to 10713
  139.8706  134.9713  156.4733 LP  0  0  0  0  0  0  0  0  0  0  0  0  # atno 17394 bound_to 11000
  140.8721  133.7981  155.9375 LP  0  0  0  0  0  0  0  0  0  0  0  0  # atno 17395 bound_to 11000

$$$$
