AV-unprocessed.smi:1103|AV-procd|sdf|4771|dock8
  -GOLD-   22720 3313D 1   1.00000     0.00000
 Structure written by MMmdl.
 44 45  0  0  0  0  0  0  0  0  2 V2000
  147.0849  143.5527  159.4828 C   0  0  0  0  0  0  0  0  0  0  0  0
  148.1698  144.3989  160.1649 C   0  0  0  0  0  0  0  0  0  0  0  0
  149.4176  144.4787  159.3639 N   0  3  1  0  0  0  0  0  0  0  0  0
  150.5171  145.1461  160.1069 C   0  0  0  0  0  0  0  0  0  0  0  0
  151.7473  145.3451  159.2090 C   0  0  0  0  0  0  0  0  0  0  0  0
  152.2214  144.0079  158.6278 C   0  0  0  0  0  0  0  0  0  0  0  0
  151.0716  143.3087  157.8821 C   0  0  1  0  0  0  0  0  0  0  0  0
  151.5374  141.9555  157.3008 C   0  0  0  0  0  0  0  0  0  0  0  0
  150.4279  141.1084  156.8733 N   0  0  0  0  0  0  0  0  0  0  0  0
  150.3801  140.4259  155.7190 C   0  0  0  0  0  0  0  0  0  0  0  0
  151.2870  140.4525  154.8856 O   0  0  0  0  0  0  0  0  0  0  0  0
  149.1142  139.5940  155.4826 C   0  0  0  0  0  0  0  0  0  0  0  0
  147.9773  140.4107  155.0904 N   0  0  0  0  0  0  0  0  0  0  0  0
  147.9412  141.7661  154.8358 C   0  0  0  0  0  0  0  0  0  0  0  0
  146.6571  142.0875  154.4988 C   0  0  0  0  0  0  0  0  0  0  0  0
  146.0928  143.4283  154.1277 C   0  0  0  0  0  0  0  0  0  0  0  0
  145.9718  140.8420  154.5818 C   0  0  0  0  0  0  0  0  0  0  0  0
  146.7621  139.8426  154.9376 N   0  0  0  0  0  0  0  0  0  0  0  0
  149.8472  143.1643  158.8143 C   0  0  0  0  0  0  0  0  0  0  0  0
  146.1560  143.5920  160.0525 H   0  0  0  0  0  0  0  0  0  0  0  0
  147.3688  142.5038  159.4041 H   0  0  0  0  0  0  0  0  0  0  0  0
  146.8714  143.9207  158.4788 H   0  0  0  0  0  0  0  0  0  0  0  0
  147.7657  145.4026  160.3022 H   0  0  0  0  0  0  0  0  0  0  0  0
  148.3881  144.0161  161.1629 H   0  0  0  0  0  0  0  0  0  0  0  0
  150.1818  146.1182  160.4710 H   0  0  0  0  0  0  0  0  0  0  0  0
  150.7808  144.5521  160.9835 H   0  0  0  0  0  0  0  0  0  0  0  0
  151.5025  146.0323  158.3977 H   0  0  0  0  0  0  0  0  0  0  0  0
  152.5529  145.8115  159.7769 H   0  0  0  0  0  0  0  0  0  0  0  0
  153.0619  144.1767  157.9535 H   0  0  0  0  0  0  0  0  0  0  0  0
  152.5893  143.3683  159.4314 H   0  0  0  0  0  0  0  0  0  0  0  0
  150.7839  143.9527  157.0495 H   0  0  0  0  0  0  0  0  0  0  0  0
  152.2124  142.1170  156.4585 H   0  0  0  0  0  0  0  0  0  0  0  0
  152.1103  141.4064  158.0486 H   0  0  0  0  0  0  0  0  0  0  0  0
  149.6465  141.0230  157.5075 H   0  0  0  0  0  0  0  0  0  0  0  0
  149.3123  138.8492  154.7101 H   0  0  0  0  0  0  0  0  0  0  0  0
  148.8478  139.0532  156.3916 H   0  0  0  0  0  0  0  0  0  0  0  0
  148.8252  142.3822  154.9108 H   0  0  0  0  0  0  0  0  0  0  0  0
  145.0454  143.3598  153.8328 H   0  0  0  0  0  0  0  0  0  0  0  0
  146.6327  143.8742  153.2920 H   0  0  0  0  0  0  0  0  0  0  0  0
  146.1470  144.1315  154.9588 H   0  0  0  0  0  0  0  0  0  0  0  0
  144.9283  140.6356  154.3945 H   0  0  0  0  0  0  0  0  0  0  0  0
  150.0777  142.4843  159.6361 H   0  0  0  0  0  0  0  0  0  0  0  0
  149.0235  142.7175  158.2593 H   0  0  0  0  0  0  0  0  0  0  0  0
  149.2120  145.0750  158.5750 H   0  0  0  0  0  0  0  0  0  0  0  0
  1  2  1  0  0  0  0
  1 20  1  0  0  0  0
  1 21  1  0  0  0  0
  1 22  1  0  0  0  0
  2  3  1  0  0  0  0
  2 23  1  0  0  0  0
  2 24  1  0  0  0  0
  3 19  1  0  0  0  0
  3  4  1  0  0  0  0
  3 44  1  0  0  0  0
  4  5  1  0  0  0  0
  4 25  1  0  0  0  0
  4 26  1  0  0  0  0
  5  6  1  0  0  0  0
  5 27  1  0  0  0  0
  5 28  1  0  0  0  0
  6  7  1  0  0  0  0
  6 29  1  0  0  0  0
  6 30  1  0  0  0  0
  7  8  1  0  0  0  0
  7 19  1  0  0  0  0
  7 31  1  0  0  0  0
  8  9  1  0  0  0  0
  8 32  1  0  0  0  0
  8 33  1  0  0  0  0
  9 10  1  0  0  0  0
  9 34  1  0  0  0  0
 10 11  2  0  0  0  0
 10 12  1  0  0  0  0
 12 13  1  0  0  0  0
 12 35  1  0  0  0  0
 12 36  1  0  0  0  0
 13 18  1  0  0  0  0
 13 14  1  0  0  0  0
 14 15  2  0  0  0  0
 14 37  1  0  0  0  0
 15 16  1  0  0  0  0
 15 17  1  0  0  0  0
 16 38  1  0  0  0  0
 16 39  1  0  0  0  0
 16 40  1  0  0  0  0
 17 18  2  0  0  0  0
 17 41  1  0  0  0  0
 19 42  1  0  0  0  0
 19 43  1  0  0  0  0
M  CHG  1   3   1
M  END
> <s_m_source_file>
AV-unprocessed.smi

> <i_m_source_file_index>
1103

> <i_lp_mmshare_version>
43012

> <i_f3d_flags>
0

> <s_epik_input>
W0NIM11bQ0gyXU4xW0NIMl1bQ0gyXVtDSDJdW0NASF0oW0NIMl0xKVtDSDJdW05IXUMoPU8pW0NIMl1uMltjSF1jKFtDSDNdKVtjSF1uMg==

> <s_epik_cmdline>
J2VwaWtfcHl0aG9uJywgJy1waCcsICc3LjAnLCAnLXRuJywgJzgnLCAnLW1hJywgJzIwMCcsICctbWV0YWxfYmluZGluZycsICctaW1hZScsICc8aW5maWxlLm1hZT4nLCAnLW9tYWUnLCAnPG91dGZpbGUubWFlPic=

> <r_lp_tautomer_probability>
1

> <r_epik_Ionization_Penalty>
0.000672456

> <r_epik_Ionization_Penalty_Charging>
0.000647327

> <r_epik_Ionization_Penalty_Neutral>
2.51297e-05

> <r_epik_State_Penalty>
0.000409793

> <r_epik_Charging_Adjusted_Penalty>
0.00105712

> <i_epik_Tot_Q>
1

> <i_epik_Tot_abs_Q>
1

> <r_epik_Metal_State_Penalty>
-0

> <b_epik_Metal_Only>
0

> <s_lp_Force_Field>
OPLS_2005

> <r_lp_Energy>
19.0507

> <b_lp_Chiralities_Consistent>
1

> <s_lp_Variant>
AV-unprocessed.smi:1103-1

> <Gold.Version>
5.8.1

> <Gold.Id.Protein>
6NUR|6NUR_protein|mol2

> <Gold.PLP.Fitness>
47.0669

> <Gold.PLP.PLP>
-33.4496

> <Gold.PLP.part.hbond>
-1.9355

> <Gold.PLP.part.metal>
0.0000

> <Gold.PLP.part.buried>
-4.1206

> <Gold.PLP.part.nonpolar>
-28.6082

> <Gold.PLP.part.repulsive>
0.3172

> <Gold.PLP.ligand.clash>
0.0000

> <Gold.PLP.ligand.torsion>
0.5256

> <Gold.PLP.Chemscore.Hbond>
3.0000

> <Gold.PLP.Chemscore.CHOScore>
1.8744

> <Gold.PLP.Chemscore.Metal>
0.0000

> <Gold.Chemscore.Hbonds>
donor molecule, donor type, donor heavy atom, donor atom, acceptor molecule, acceptor atom, score
      L1  H     3    44       P1  8029  1.95
      P1  H  7989  7998       L1    11  0.88
      L1  C    14    37       P1  8028  0.91
      L1  C    17    41       P1 10175  1.00

> <Gold.PLP.Chemscore.Internal.Correction>
0.0454

> <Gold.Rescore>
     Score         DG    S(hbond)    S(metal)    S(lipo)     H(rot)  DE(clash)    DE(int)     intcor
     17.25     -17.69       1.89        0.00      87.25       1.68       0.03       0.41       ----

> <Gold.Chemscore.Fitness>
17.2508

> <Gold.Chemscore.DG>
-17.6866

> <Gold.Chemscore.ZeroCoef>
-5.4800

> <Gold.Chemscore.Hbond>
1.8875

> <Gold.Chemscore.Metal>
0.0000

> <Gold.Chemscore.Lipo>
87.2545

> <Gold.Chemscore.Internal_Hbond>
0.0000

> <Gold.Chemscore.DEClash>
0.0277

> <Gold.Chemscore.DEInternal>
0.4080

> <Gold.Chemscore.Rot>
1.6823

> <Gold.Chemscore.Internal.Correction>
   9.000000E+99

> <Gold.Chemscore.Hbonds>
donor molecule, donor type, donor heavy atom, donor atom, acceptor molecule, acceptor atom, score
      L1  H     3    44       P1  8029  0.77
      P1  H  7989  7998       L1    11  0.82

> <Gold.Chemscore.Hbond.Weighted>
-6.3044

> <Gold.Chemscore.Metal.Weighted>
-0.0000

> <Gold.Chemscore.Lipo.Weighted>
-10.2088

> <Gold.Chemscore.Internal_Hbond.Weighted>
0.0000

> <Gold.Chemscore.DEClash.Weighted>
0.0277

> <Gold.Chemscore.DEInternal.Weighted>
0.4080

> <Gold.Chemscore.Rot.Weighted>
4.3066

> <Gold.Chemscore.Internal.Correction.Weighted>
   9.000000E+99

> <Gold.Protein.RotatedTorsions>
[ 6907 6896 6895 6894 ] final  -51.66 input  -60.11 | X-H torsion
[ 7974 7965 7964 7962 ] final   69.31 input  175.53 | X-H torsion
[ 8008 7997 7996 7995 ] final  128.31 input   59.86 | X-H torsion
[ 10167 10162 10161 10158 ] final  101.26 input  -65.29 | X-H torsion
[ 10718 10713 10712 10709 ] final   24.33 input   66.30 | X-H torsion
[ 10763 10752 10751 10750 ] final   79.45 input  -60.55 | X-H torsion
[ 11005 11000 10999 10996 ] final  174.00 input  -57.11 | X-H torsion

> <Gold.Protein.ActiveResidues>
 VAL166  LYS551  ARG553  GLY616  TRP617  ASP618  TYR619  PRO620  LYS621  CYS622 
 ASP623  PHE694  ASN695  SER759  ASP760  ASP761  ALA762  ILE779  LEU786  VAL792 
 PHE793  MET794  SER795  GLU796  ALA797  LYS798  CYS799  TRP800  GLU811  SER814 

> <Gold.Protein.RotatedAtoms>
  150.8590  134.7937  159.7067 H   0  0  0  0  0  0  0  0  0  0  0  0  # atno 6907 bound_to 6896
  152.4633  134.5131  159.9769 H   0  0  0  0  0  0  0  0  0  0  0  0  # atno 6908 bound_to 6896
  151.5238  133.3423  159.2941 H   0  0  0  0  0  0  0  0  0  0  0  0  # atno 6909 bound_to 6896
  145.7920  139.2939  143.1204 H   0  0  0  0  0  0  0  0  0  0  0  0  # atno 7974 bound_to 7965
  156.2912  140.2648  156.2414 H   0  0  0  0  0  0  0  0  0  0  0  0  # atno 8008 bound_to 7997
  154.9973  140.0388  157.2363 H   0  0  0  0  0  0  0  0  0  0  0  0  # atno 8009 bound_to 7997
  154.7633  140.2764  155.6202 H   0  0  0  0  0  0  0  0  0  0  0  0  # atno 8010 bound_to 7997
  139.7453  144.6999  151.0513 H   0  0  0  0  0  0  0  0  0  0  0  0  # atno 10167 bound_to 10162
  157.1783  130.6791  149.6103 H   0  0  0  0  0  0  0  0  0  0  0  0  # atno 10718 bound_to 10713
  153.0954  135.4839  154.8768 H   0  0  0  0  0  0  0  0  0  0  0  0  # atno 10763 bound_to 10752
  154.7318  135.3062  154.8881 H   0  0  0  0  0  0  0  0  0  0  0  0  # atno 10764 bound_to 10752
  153.9514  135.6823  153.4797 H   0  0  0  0  0  0  0  0  0  0  0  0  # atno 10765 bound_to 10752
  140.3465  134.7231  157.4239 H   0  0  0  0  0  0  0  0  0  0  0  0  # atno 11005 bound_to 11000
  145.9967  140.8556  143.0039 LP  0  0  0  0  0  0  0  0  0  0  0  0  # atno 17320 bound_to 7965
  144.6780  140.2293  143.7357 LP  0  0  0  0  0  0  0  0  0  0  0  0  # atno 17321 bound_to 7965
  140.7791  143.4874  150.9938 LP  0  0  0  0  0  0  0  0  0  0  0  0  # atno 17342 bound_to 10162
  139.8562  143.7374  152.3176 LP  0  0  0  0  0  0  0  0  0  0  0  0  # atno 17343 bound_to 10162
  155.9728  130.4655  150.6257 LP  0  0  0  0  0  0  0  0  0  0  0  0  # atno 17370 bound_to 10713
  157.3977  131.0805  151.1337 LP  0  0  0  0  0  0  0  0  0  0  0  0  # atno 17371 bound_to 10713
  140.0738  134.5826  155.8613 LP  0  0  0  0  0  0  0  0  0  0  0  0  # atno 17394 bound_to 11000
  141.2024  133.6625  156.6004 LP  0  0  0  0  0  0  0  0  0  0  0  0  # atno 17395 bound_to 11000

$$$$
