AV-unprocessed.smi:850|AV-procd|sdf|3948|dock7
  -GOLD-   22720 1423D 1   1.00000     0.00000
 Structure written by MMmdl.
 40 42  0  0  0  0  0  0  0  0  1 V2000
  154.3359  138.2999  161.4029 C   0  0  0  0  0  0  0  0  0  0  0  0
  153.3466  138.7649  160.4381 N   0  0  0  0  0  0  0  0  0  0  0  0
  152.5777  138.0019  159.6260 C   0  0  0  0  0  0  0  0  0  0  0  0
  152.5886  136.7726  159.5627 O   0  0  0  0  0  0  0  0  0  0  0  0
  151.7969  138.8285  158.8909 N   0  0  0  0  0  0  0  0  0  0  0  0
  150.8303  138.4310  157.8697 C   0  0  0  0  0  0  0  0  0  0  0  0
  149.3909  138.4182  158.4227 C   0  0  1  0  0  0  0  0  0  0  0  0
  148.4709  138.8016  157.4210 O   0  0  0  0  0  0  0  0  0  0  0  0
  148.9614  137.0403  158.9536 C   0  0  0  0  0  0  0  0  0  0  0  0
  148.0868  137.2020  160.0639 O   0  0  0  0  0  0  0  0  0  0  0  0
  147.5019  136.0779  160.6060 C   0  0  0  0  0  0  0  0  0  0  0  0
  146.6393  136.2736  161.7047 C   0  0  0  0  0  0  0  0  0  0  0  0
  145.9959  135.1824  162.3199 C   0  0  0  0  0  0  0  0  0  0  0  0
  146.2108  133.8775  161.8396 C   0  0  0  0  0  0  0  0  0  0  0  0
  147.0705  133.6672  160.7454 C   0  0  0  0  0  0  0  0  0  0  0  0
  147.7137  134.7590  160.1299 C   0  0  0  0  0  0  0  0  0  0  0  0
  152.0854  140.1578  159.2324 C   0  0  0  0  0  0  0  0  0  0  0  0
  151.5640  141.3718  158.7521 C   0  0  0  0  0  0  0  0  0  0  0  0
  152.0822  142.5635  159.3115 C   0  0  0  0  0  0  0  0  0  0  0  0
  153.0867  142.5203  160.3134 C   0  0  0  0  0  0  0  0  0  0  0  0
  153.5946  141.2842  160.7776 C   0  0  0  0  0  0  0  0  0  0  0  0
  153.0612  140.1164  160.2056 C   0  0  0  0  0  0  0  0  0  0  0  0
  154.3132  137.2159  161.5225 H   0  0  0  0  0  0  0  0  0  0  0  0
  154.1511  138.7477  162.3795 H   0  0  0  0  0  0  0  0  0  0  0  0
  155.3374  138.5842  161.0798 H   0  0  0  0  0  0  0  0  0  0  0  0
  150.9061  139.0710  156.9888 H   0  0  0  0  0  0  0  0  0  0  0  0
  151.1015  137.4305  157.5310 H   0  0  0  0  0  0  0  0  0  0  0  0
  149.3002  139.1350  159.2398 H   0  0  0  0  0  0  0  0  0  0  0  0
  148.1662  139.6754  157.6137 H   0  0  0  0  0  0  0  0  0  0  0  0
  148.4331  136.5105  158.1592 H   0  0  0  0  0  0  0  0  0  0  0  0
  149.8363  136.4460  159.2239 H   0  0  0  0  0  0  0  0  0  0  0  0
  146.4689  137.2722  162.0794 H   0  0  0  0  0  0  0  0  0  0  0  0
  145.3377  135.3476  163.1599 H   0  0  0  0  0  0  0  0  0  0  0  0
  145.7177  133.0395  162.3100 H   0  0  0  0  0  0  0  0  0  0  0  0
  147.2375  132.6659  160.3765 H   0  0  0  0  0  0  0  0  0  0  0  0
  148.3653  134.5576  159.2933 H   0  0  0  0  0  0  0  0  0  0  0  0
  150.8016  141.3985  157.9876 H   0  0  0  0  0  0  0  0  0  0  0  0
  151.7095  143.5184  158.9709 H   0  0  0  0  0  0  0  0  0  0  0  0
  153.4689  143.4427  160.7254 H   0  0  0  0  0  0  0  0  0  0  0  0
  154.3604  141.2425  161.5381 H   0  0  0  0  0  0  0  0  0  0  0  0
  1  2  1  0  0  0  0
  1 23  1  0  0  0  0
  1 24  1  0  0  0  0
  1 25  1  0  0  0  0
  2 22  1  0  0  0  0
  2  3  1  0  0  0  0
  3  4  2  0  0  0  0
  3  5  1  0  0  0  0
  5  6  1  0  0  0  0
  5 17  1  0  0  0  0
  6  7  1  0  0  0  0
  6 26  1  0  0  0  0
  6 27  1  0  0  0  0
  7  8  1  0  0  0  0
  7  9  1  0  0  0  0
  7 28  1  0  0  0  0
  8 29  1  0  0  0  0
  9 10  1  0  0  0  0
  9 30  1  0  0  0  0
  9 31  1  0  0  0  0
 10 11  1  0  0  0  0
 11 16  1  0  0  0  0
 11 12  2  0  0  0  0
 12 13  1  0  0  0  0
 12 32  1  0  0  0  0
 13 14  2  0  0  0  0
 13 33  1  0  0  0  0
 14 15  1  0  0  0  0
 14 34  1  0  0  0  0
 15 16  2  0  0  0  0
 15 35  1  0  0  0  0
 16 36  1  0  0  0  0
 17 22  2  0  0  0  0
 17 18  1  0  0  0  0
 18 19  2  0  0  0  0
 18 37  1  0  0  0  0
 19 20  1  0  0  0  0
 19 38  1  0  0  0  0
 20 21  2  0  0  0  0
 20 39  1  0  0  0  0
 21 22  1  0  0  0  0
 21 40  1  0  0  0  0
M  END
> <s_m_source_file>
AV-unprocessed.smi

> <i_m_source_file_index>
850

> <i_lp_mmshare_version>
43012

> <i_f3d_flags>
0

> <s_epik_input>
W2NIXTFbY0hdW2NIXVtjSF1jKGMxMiluKFtDSDNdKWMoPU8pbjJbQ0gyXVtDQEhdKFtPSF0pW0NIMl1PYzNbY0hdW2NIXVtjSF1bY0hdW2NIXTM=

> <s_epik_cmdline>
J2VwaWtfcHl0aG9uJywgJy1waCcsICc3LjAnLCAnLXRuJywgJzgnLCAnLW1hJywgJzIwMCcsICctbWV0YWxfYmluZGluZycsICctaW1hZScsICc8aW5maWxlLm1hZT4nLCAnLW9tYWUnLCAnPG91dGZpbGUubWFlPic=

> <r_lp_tautomer_probability>
1

> <r_epik_Ionization_Penalty>
2.40205e-06

> <r_epik_Ionization_Penalty_Charging>
2.75209e-09

> <r_epik_Ionization_Penalty_Neutral>
2.3993e-06

> <r_epik_State_Penalty>
-0

> <r_epik_Charging_Adjusted_Penalty>
2.75209e-09

> <i_epik_Tot_Q>
0

> <i_epik_Tot_abs_Q>
0

> <r_epik_Metal_State_Penalty>
-0

> <b_epik_Metal_Only>
0

> <s_lp_Force_Field>
OPLS_2005

> <r_lp_Energy>
47.9965

> <b_lp_Chiralities_Consistent>
1

> <s_lp_Variant>
AV-unprocessed.smi:850-2

> <Gold.Version>
5.8.1

> <Gold.Id.Protein>
6NUR|6NUR_protein|mol2

> <Gold.PLP.Fitness>
50.2908

> <Gold.PLP.PLP>
-46.5833

> <Gold.PLP.part.hbond>
-3.0000

> <Gold.PLP.part.metal>
0.0000

> <Gold.PLP.part.buried>
-5.8837

> <Gold.PLP.part.nonpolar>
-38.1920

> <Gold.PLP.part.repulsive>
0.0000

> <Gold.PLP.ligand.clash>
0.0000

> <Gold.PLP.ligand.torsion>
1.1822

> <Gold.PLP.Chemscore.Hbond>
2.0140

> <Gold.PLP.Chemscore.CHOScore>
0.0000

> <Gold.PLP.Chemscore.Metal>
0.0000

> <Gold.Chemscore.Hbonds>
donor molecule, donor type, donor heavy atom, donor atom, acceptor molecule, acceptor atom, score
      P1  H  6896  6907       L1     4  1.00
      P1  H  6931  6943       L1    10  0.19
      P1  H  6934  6947       L1    10  0.40

> <Gold.PLP.Chemscore.Internal.Correction>
0.0299

> <Gold.Rescore>
     Score         DG    S(hbond)    S(metal)    S(lipo)     H(rot)  DE(clash)    DE(int)     intcor
     19.27     -20.46       2.03        0.00     116.44       2.12       0.00       1.18       ----

> <Gold.Chemscore.Fitness>
19.2725

> <Gold.Chemscore.DG>
-20.4577

> <Gold.Chemscore.ZeroCoef>
-5.4800

> <Gold.Chemscore.Hbond>
2.0293

> <Gold.Chemscore.Metal>
0.0000

> <Gold.Chemscore.Lipo>
116.4366

> <Gold.Chemscore.Internal_Hbond>
0.0000

> <Gold.Chemscore.DEClash>
0.0029

> <Gold.Chemscore.DEInternal>
1.1823

> <Gold.Chemscore.Rot>
2.1184

> <Gold.Chemscore.Internal.Correction>
   9.000000E+99

> <Gold.Chemscore.Hbonds>
donor molecule, donor type, donor heavy atom, donor atom, acceptor molecule, acceptor atom, score
      P1  H  6896  6907       L1     4  0.98
      P1  H  6931  6943       L1    10  0.08
      P1  H  6934  6947       L1    10  0.32

> <Gold.Chemscore.Hbond.Weighted>
-6.7778

> <Gold.Chemscore.Metal.Weighted>
-0.0000

> <Gold.Chemscore.Lipo.Weighted>
-13.6231

> <Gold.Chemscore.Internal_Hbond.Weighted>
0.0000

> <Gold.Chemscore.DEClash.Weighted>
0.0029

> <Gold.Chemscore.DEInternal.Weighted>
1.1823

> <Gold.Chemscore.Rot.Weighted>
5.4231

> <Gold.Chemscore.Internal.Correction.Weighted>
   9.000000E+99

> <Gold.Protein.RotatedTorsions>
[ 6907 6896 6895 6894 ] final    9.76 input  -60.11 | X-H torsion
[ 7974 7965 7964 7962 ] final -109.35 input  175.53 | X-H torsion
[ 8008 7997 7996 7995 ] final  172.84 input   59.86 | X-H torsion
[ 10167 10162 10161 10158 ] final -140.68 input  -65.29 | X-H torsion
[ 10718 10713 10712 10709 ] final    6.66 input   66.30 | X-H torsion
[ 10763 10752 10751 10750 ] final -119.96 input  -60.55 | X-H torsion
[ 11005 11000 10999 10996 ] final   22.32 input  -57.11 | X-H torsion

> <Gold.Protein.ActiveResidues>
 VAL166  LYS551  ARG553  GLY616  TRP617  ASP618  TYR619  PRO620  LYS621  CYS622 
 ASP623  PHE694  ASN695  SER759  ASP760  ASP761  ALA762  ILE779  LEU786  VAL792 
 PHE793  MET794  SER795  GLU796  ALA797  LYS798  CYS799  TRP800  GLU811  SER814 

> <Gold.Protein.RotatedAtoms>
  151.7274  135.0882  160.0294 H   0  0  0  0  0  0  0  0  0  0  0  0  # atno 6907 bound_to 6896
  152.3563  133.6237  159.5990 H   0  0  0  0  0  0  0  0  0  0  0  0  # atno 6908 bound_to 6896
  150.7573  133.9411  159.3498 H   0  0  0  0  0  0  0  0  0  0  0  0  # atno 6909 bound_to 6896
  145.1817  140.8974  143.3476 H   0  0  0  0  0  0  0  0  0  0  0  0  # atno 7974 bound_to 7965
  156.1135  140.1475  156.9306 H   0  0  0  0  0  0  0  0  0  0  0  0  # atno 8008 bound_to 7997
  154.4783  140.0887  156.7360 H   0  0  0  0  0  0  0  0  0  0  0  0  # atno 8009 bound_to 7997
  155.4555  140.3436  155.4308 H   0  0  0  0  0  0  0  0  0  0  0  0  # atno 8010 bound_to 7997
  139.8258  143.7513  152.2666 H   0  0  0  0  0  0  0  0  0  0  0  0  # atno 10167 bound_to 10162
  156.9255  130.5807  149.5648 H   0  0  0  0  0  0  0  0  0  0  0  0  # atno 10718 bound_to 10713
  154.8631  135.4220  154.2383 H   0  0  0  0  0  0  0  0  0  0  0  0  # atno 10763 bound_to 10752
  153.3354  135.6990  153.6918 H   0  0  0  0  0  0  0  0  0  0  0  0  # atno 10764 bound_to 10752
  153.5918  135.3553  155.2887 H   0  0  0  0  0  0  0  0  0  0  0  0  # atno 10765 bound_to 10752
  140.3819  134.1911  155.7663 H   0  0  0  0  0  0  0  0  0  0  0  0  # atno 11005 bound_to 11000
  145.0130  139.3493  143.6110 LP  0  0  0  0  0  0  0  0  0  0  0  0  # atno 17320 bound_to 7965
  146.3452  139.9400  142.8742 LP  0  0  0  0  0  0  0  0  0  0  0  0  # atno 17321 bound_to 7965
  139.7705  144.7478  151.0231 LP  0  0  0  0  0  0  0  0  0  0  0  0  # atno 17342 bound_to 10162
  140.7810  143.4650  151.0225 LP  0  0  0  0  0  0  0  0  0  0  0  0  # atno 17343 bound_to 10162
  156.0471  130.5546  150.8905 LP  0  0  0  0  0  0  0  0  0  0  0  0  # atno 17370 bound_to 10713
  157.5880  131.0945  150.9164 LP  0  0  0  0  0  0  0  0  0  0  0  0  # atno 17371 bound_to 10713
  141.1920  133.8181  157.0855 LP  0  0  0  0  0  0  0  0  0  0  0  0  # atno 17394 bound_to 11000
  140.0472  134.9824  157.1070 LP  0  0  0  0  0  0  0  0  0  0  0  0  # atno 17395 bound_to 11000

$$$$
