AV-unprocessed.smi:1809|AV-procd|sdf|7321|dock4
  -GOLD-   22720 8573D 1   1.00000     0.00000
 Structure written by MMmdl.
 39 41  0  0  0  0  0  0  0  0  3 V2000
  151.2742  141.1518  156.0980 C   0  0  0  0  0  0  0  0  0  0  0  0
  151.1244  139.6778  155.9374 C   0  0  0  0  0  0  0  0  0  0  0  0
  150.4101  138.9288  156.7808 N   0  0  0  0  0  0  0  0  0  0  0  0
  150.4159  137.5885  156.4228 N   0  0  0  0  0  0  0  0  0  0  0  0
  151.1234  137.3439  155.3110 C   0  0  0  0  0  0  0  0  0  0  0  0
  151.2548  136.1083  154.7999 N   0  5  0  0  0  0  0  0  0  0  0  0
  150.6876  135.0533  155.4264 C   0  0  0  0  0  0  0  0  0  0  0  0
  150.6840  134.8385  156.6408 O   0  0  0  0  0  0  0  0  0  0  0  0
  150.0809  134.1951  154.5945 N   0  0  0  0  0  0  0  0  0  0  0  0
  149.3752  132.9815  154.9909 C   0  0  0  0  0  0  0  0  0  0  0  0
  148.7832  132.2467  153.7764 C   0  0  2  0  0  0  0  0  0  0  0  0
  147.9406  133.1892  152.8861 C   0  0  0  0  0  0  0  0  0  0  0  0
  147.3314  132.3825  151.8131 N   0  3  2  0  0  0  0  0  0  0  0  0
  146.4949  133.0652  150.8118 C   0  0  0  0  0  0  0  0  0  0  0  0
  145.5740  131.9624  150.2518 C   0  0  0  0  0  0  0  0  0  0  0  0
  145.8290  130.7201  151.1257 C   0  0  0  0  0  0  0  0  0  0  0  0
  146.5100  131.3009  152.3611 C   0  0  1  0  0  0  0  0  0  0  0  0
  147.3977  130.3770  153.2049 C   0  0  0  0  0  0  0  0  0  0  0  0
  147.9679  131.1673  154.2491 O   0  0  0  0  0  0  0  0  0  0  0  0
  151.8680  138.7860  154.6206 S   0  0  0  0  0  0  0  0  0  0  0  0
  150.3845  141.6586  155.7241 H   0  0  0  0  0  0  0  0  0  0  0  0
  152.1411  141.5071  155.5408 H   0  0  0  0  0  0  0  0  0  0  0  0
  151.4081  141.4062  157.1496 H   0  0  0  0  0  0  0  0  0  0  0  0
  150.1095  134.4073  153.6078 H   0  0  0  0  0  0  0  0  0  0  0  0
  150.0747  132.3329  155.5188 H   0  0  0  0  0  0  0  0  0  0  0  0
  148.5889  133.2337  155.7045 H   0  0  0  0  0  0  0  0  0  0  0  0
  149.5944  131.8326  153.1747 H   0  0  0  0  0  0  0  0  0  0  0  0
  147.1634  133.6833  153.4711 H   0  0  0  0  0  0  0  0  0  0  0  0
  148.5673  133.9675  152.4496 H   0  0  0  0  0  0  0  0  0  0  0  0
  145.8995  133.8435  151.2918 H   0  0  0  0  0  0  0  0  0  0  0  0
  147.1087  133.5318  150.0410 H   0  0  0  0  0  0  0  0  0  0  0  0
  144.5312  132.2756  150.3151 H   0  0  0  0  0  0  0  0  0  0  0  0
  145.7899  131.7507  149.2039 H   0  0  0  0  0  0  0  0  0  0  0  0
  144.9151  130.1755  151.3651 H   0  0  0  0  0  0  0  0  0  0  0  0
  146.5040  130.0354  150.6099 H   0  0  0  0  0  0  0  0  0  0  0  0
  145.7413  131.7376  153.0031 H   0  0  0  0  0  0  0  0  0  0  0  0
  146.8069  129.5731  153.6440 H   0  0  0  0  0  0  0  0  0  0  0  0
  148.1834  129.9161  152.6041 H   0  0  0  0  0  0  0  0  0  0  0  0
  148.0848  131.9403  151.3056 H   0  0  0  0  0  0  0  0  0  0  0  0
  1  2  1  0  0  0  0
  1 21  1  0  0  0  0
  1 22  1  0  0  0  0
  1 23  1  0  0  0  0
  2 20  1  0  0  0  0
  2  3  2  0  0  0  0
  3  4  1  0  0  0  0
  4  5  2  0  0  0  0
  5  6  1  0  0  0  0
  5 20  1  0  0  0  0
  6  7  1  0  0  0  0
  7  8  2  0  0  0  0
  7  9  1  0  0  0  0
  9 10  1  0  0  0  0
  9 24  1  0  0  0  0
 10 11  1  0  0  0  0
 10 25  1  0  0  0  0
 10 26  1  0  0  0  0
 11 19  1  0  0  0  0
 11 12  1  0  0  0  0
 11 27  1  0  0  0  0
 12 13  1  0  0  0  0
 12 28  1  0  0  0  0
 12 29  1  0  0  0  0
 13 17  1  0  0  0  0
 13 14  1  0  0  0  0
 13 39  1  0  0  0  0
 14 15  1  0  0  0  0
 14 30  1  0  0  0  0
 14 31  1  0  0  0  0
 15 16  1  0  0  0  0
 15 32  1  0  0  0  0
 15 33  1  0  0  0  0
 16 17  1  0  0  0  0
 16 34  1  0  0  0  0
 16 35  1  0  0  0  0
 17 18  1  0  0  0  0
 17 36  1  0  0  0  0
 18 19  1  0  0  0  0
 18 37  1  0  0  0  0
 18 38  1  0  0  0  0
M  CHG  1   6  -1
M  CHG  1  13   1
M  END
> <s_m_source_file>
AV-unprocessed.smi

> <i_m_source_file_index>
1809

> <i_lp_mmshare_version>
43012

> <i_f3d_flags>
0

> <s_epik_input>
W0NIM11jMW5uYyhzMSlbTkhdQyg9TylbTkhdW0NIMl1bQ0BIXShbQ0gyXTIpT1tDSDJdW0NAQEhdKE4yMylbQ0gyXVtDSDJdW0NIMl0z

> <s_epik_cmdline>
J2VwaWtfcHl0aG9uJywgJy1waCcsICc3LjAnLCAnLXRuJywgJzgnLCAnLW1hJywgJzIwMCcsICctbWV0YWxfYmluZGluZycsICctaW1hZScsICc8aW5maWxlLm1hZT4nLCAnLW9tYWUnLCAnPG91dGZpbGUubWFlPic=

> <r_lp_tautomer_probability>
1

> <r_epik_Ionization_Penalty>
3.2601

> <r_epik_Ionization_Penalty_Charging>
3.1406

> <r_epik_Ionization_Penalty_Neutral>
0.119497

> <r_epik_State_Penalty>
3.08894

> <r_epik_Charging_Adjusted_Penalty>
6.22954

> <i_epik_Tot_Q>
0

> <i_epik_Tot_abs_Q>
2

> <r_epik_Metal_State_Penalty>
0.510807

> <b_epik_Metal_Only>
1

> <s_lp_Force_Field>
OPLS_2005

> <r_lp_Energy>
28.6606

> <b_lp_Chiralities_Consistent>
1

> <s_lp_Variant>
AV-unprocessed.smi:1809-13

> <Gold.Version>
5.8.1

> <Gold.Id.Protein>
6NUR|6NUR_protein|mol2

> <Gold.PLP.Fitness>
43.0575

> <Gold.PLP.PLP>
-34.8087

> <Gold.PLP.part.hbond>
-2.0000

> <Gold.PLP.part.metal>
0.0000

> <Gold.PLP.part.buried>
-4.4830

> <Gold.PLP.part.nonpolar>
-28.0876

> <Gold.PLP.part.repulsive>
0.2793

> <Gold.PLP.ligand.clash>
0.0000

> <Gold.PLP.ligand.torsion>
0.3807

> <Gold.PLP.Chemscore.Hbond>
3.0000

> <Gold.PLP.Chemscore.CHOScore>
0.0000

> <Gold.PLP.Chemscore.Metal>
0.0000

> <Gold.Chemscore.Hbonds>
donor molecule, donor type, donor heavy atom, donor atom, acceptor molecule, acceptor atom, score
      L1  H    13    39       P1 10747  1.00
      P1  H 10752 10763       L1     6  2.00

> <Gold.PLP.Chemscore.Internal.Correction>
0.0103

> <Gold.Rescore>
     Score         DG    S(hbond)    S(metal)    S(lipo)     H(rot)  DE(clash)    DE(int)     intcor
     16.15     -18.00       1.93        0.00      80.84       1.32       0.00       1.84       ----

> <Gold.Chemscore.Fitness>
16.1546

> <Gold.Chemscore.DG>
-17.9977

> <Gold.Chemscore.ZeroCoef>
-5.4800

> <Gold.Chemscore.Hbond>
1.9312

> <Gold.Chemscore.Metal>
0.0000

> <Gold.Chemscore.Lipo>
80.8425

> <Gold.Chemscore.Internal_Hbond>
0.0000

> <Gold.Chemscore.DEClash>
0.0021

> <Gold.Chemscore.DEInternal>
1.8411

> <Gold.Chemscore.Rot>
1.3246

> <Gold.Chemscore.Internal.Correction>
   9.000000E+99

> <Gold.Chemscore.Hbonds>
donor molecule, donor type, donor heavy atom, donor atom, acceptor molecule, acceptor atom, score
      L1  H    13    39       P1 10747  1.00
      P1  H 10752 10763       L1     6  0.26

> <Gold.Chemscore.Hbond.Weighted>
-6.4501

> <Gold.Chemscore.Metal.Weighted>
-0.0000

> <Gold.Chemscore.Lipo.Weighted>
-9.4586

> <Gold.Chemscore.Internal_Hbond.Weighted>
0.0000

> <Gold.Chemscore.DEClash.Weighted>
0.0021

> <Gold.Chemscore.DEInternal.Weighted>
1.8411

> <Gold.Chemscore.Rot.Weighted>
3.3910

> <Gold.Chemscore.Internal.Correction.Weighted>
   9.000000E+99

> <Gold.Protein.RotatedTorsions>
[ 6907 6896 6895 6894 ] final  175.88 input  -60.11 | X-H torsion
[ 7974 7965 7964 7962 ] final   37.02 input  175.53 | X-H torsion
[ 8008 7997 7996 7995 ] final -137.21 input   59.86 | X-H torsion
[ 10167 10162 10161 10158 ] final   12.51 input  -65.29 | X-H torsion
[ 10718 10713 10712 10709 ] final  -65.17 input   66.30 | X-H torsion
[ 10763 10752 10751 10750 ] final   64.18 input  -60.55 | X-H torsion
[ 11005 11000 10999 10996 ] final  -85.70 input  -57.11 | X-H torsion

> <Gold.Protein.ActiveResidues>
 VAL166  LYS551  ARG553  GLY616  TRP617  ASP618  TYR619  PRO620  LYS621  CYS622 
 ASP623  PHE694  ASN695  SER759  ASP760  ASP761  ALA762  ILE779  LEU786  VAL792 
 PHE793  MET794  SER795  GLU796  ALA797  LYS798  CYS799  TRP800  GLU811  SER814 

> <Gold.Protein.RotatedAtoms>
  151.7291  133.3317  159.3335 H   0  0  0  0  0  0  0  0  0  0  0  0  # atno 6907 bound_to 6896
  150.7620  134.6380  159.6231 H   0  0  0  0  0  0  0  0  0  0  0  0  # atno 6908 bound_to 6896
  152.3603  134.6883  160.0261 H   0  0  0  0  0  0  0  0  0  0  0  0  # atno 6909 bound_to 6896
  146.1168  139.5945  142.9316 H   0  0  0  0  0  0  0  0  0  0  0  0  # atno 7974 bound_to 7965
  155.4080  140.0510  157.3033 H   0  0  0  0  0  0  0  0  0  0  0  0  # atno 8008 bound_to 7997
  154.4959  140.2138  155.9407 H   0  0  0  0  0  0  0  0  0  0  0  0  # atno 8009 bound_to 7997
  156.1405  140.3155  155.8493 H   0  0  0  0  0  0  0  0  0  0  0  0  # atno 8010 bound_to 7997
  140.6063  143.8501  150.7017 H   0  0  0  0  0  0  0  0  0  0  0  0  # atno 10167 bound_to 10162
  156.0685  130.4243  150.1525 H   0  0  0  0  0  0  0  0  0  0  0  0  # atno 10718 bound_to 10713
  153.0046  135.5402  154.6470 H   0  0  0  0  0  0  0  0  0  0  0  0  # atno 10763 bound_to 10752
  154.5711  135.2842  155.0828 H   0  0  0  0  0  0  0  0  0  0  0  0  # atno 10764 bound_to 10752
  154.1993  135.6486  153.5135 H   0  0  0  0  0  0  0  0  0  0  0  0  # atno 10765 bound_to 10752
  141.1638  133.7413  156.9053 H   0  0  0  0  0  0  0  0  0  0  0  0  # atno 11005 bound_to 11000
  145.5550  141.0410  143.2258 LP  0  0  0  0  0  0  0  0  0  0  0  0  # atno 17320 bound_to 7965
  144.7560  139.7073  143.7254 LP  0  0  0  0  0  0  0  0  0  0  0  0  # atno 17321 bound_to 7965
  140.2058  143.3922  152.1756 LP  0  0  0  0  0  0  0  0  0  0  0  0  # atno 17342 bound_to 10162
  139.5327  144.7177  151.4998 LP  0  0  0  0  0  0  0  0  0  0  0  0  # atno 17343 bound_to 10162
  156.9581  130.9796  151.3485 LP  0  0  0  0  0  0  0  0  0  0  0  0  # atno 17370 bound_to 10713
  157.5742  130.8331  149.8433 LP  0  0  0  0  0  0  0  0  0  0  0  0  # atno 17371 bound_to 10713
  140.1554  134.9201  157.2647 LP  0  0  0  0  0  0  0  0  0  0  0  0  # atno 17394 bound_to 11000
  140.2673  134.3501  155.7385 LP  0  0  0  0  0  0  0  0  0  0  0  0  # atno 17395 bound_to 11000

$$$$
