AV-unprocessed.smi:3136|AV-procd|sdf|11948|dock4
  -GOLD-   2272017343D 1   1.00000     0.00000
 Structure written by MMmdl.
 40 40  0  0  0  0  0  0  0  0  2 V2000
  144.1302  133.9348  150.2225 C   0  0  0  0  0  0  0  0  0  0  0  0
  143.6712  135.0944  151.1166 C   0  0  0  0  0  0  0  0  0  0  0  0
  144.5161  136.2711  150.9465 N   0  0  0  0  0  0  0  0  0  0  0  0
  145.6134  136.5453  151.6684 C   0  0  0  0  0  0  0  0  0  0  0  0
  146.0284  135.8150  152.5687 O   0  0  0  0  0  0  0  0  0  0  0  0
  146.3409  137.8461  151.3115 C   0  0  0  0  0  0  0  0  0  0  0  0
  146.6019  138.7584  152.5234 C   0  0  0  0  0  0  0  0  0  0  0  0
  148.0524  138.9352  152.7470 N   0  3  0  0  0  0  0  0  0  0  0  0
  148.4227  139.6202  154.0074 C   0  0  2  0  0  0  0  0  0  0  0  0
  147.8663  141.0600  154.0146 C   0  0  0  0  0  0  0  0  0  0  0  0
  149.9629  139.5699  154.1982 C   0  0  2  0  0  0  0  0  0  0  0  0
  150.5217  138.1356  154.1206 C   0  0  0  0  0  0  0  0  0  0  0  0
  150.3876  140.2015  155.4414 N   0  0  0  0  0  0  0  0  0  0  0  0
  150.2086  141.5105  155.8399 C   0  0  0  0  0  0  0  0  0  0  0  0
  150.7737  141.6426  157.0758 C   0  0  0  0  0  0  0  0  0  0  0  0
  151.2853  140.3448  157.3546 C   0  0  0  0  0  0  0  0  0  0  0  0
  151.0543  139.4855  156.3754 N   0  0  0  0  0  0  0  0  0  0  0  0
  143.5172  133.0496  150.3923 H   0  0  0  0  0  0  0  0  0  0  0  0
  145.1667  133.6645  150.4275 H   0  0  0  0  0  0  0  0  0  0  0  0
  144.0522  134.1921  149.1657 H   0  0  0  0  0  0  0  0  0  0  0  0
  142.6285  135.3426  150.9123 H   0  0  0  0  0  0  0  0  0  0  0  0
  143.7182  134.7916  152.1628 H   0  0  0  0  0  0  0  0  0  0  0  0
  144.2438  136.9244  150.2264 H   0  0  0  0  0  0  0  0  0  0  0  0
  147.2873  137.5915  150.8324 H   0  0  0  0  0  0  0  0  0  0  0  0
  145.7449  138.3795  150.5697 H   0  0  0  0  0  0  0  0  0  0  0  0
  146.1337  139.7297  152.3635 H   0  0  0  0  0  0  0  0  0  0  0  0
  146.1550  138.3263  153.4201 H   0  0  0  0  0  0  0  0  0  0  0  0
  148.4624  138.0123  152.7732 H   0  0  0  0  0  0  0  0  0  0  0  0
  147.9665  139.0755  154.8356 H   0  0  0  0  0  0  0  0  0  0  0  0
  148.0675  141.5681  154.9577 H   0  0  0  0  0  0  0  0  0  0  0  0
  146.7853  141.0783  153.8812 H   0  0  0  0  0  0  0  0  0  0  0  0
  148.3086  141.6572  153.2164 H   0  0  0  0  0  0  0  0  0  0  0  0
  150.4187  140.1433  153.3889 H   0  0  0  0  0  0  0  0  0  0  0  0
  150.3343  137.6825  153.1470 H   0  0  0  0  0  0  0  0  0  0  0  0
  150.0745  137.4899  154.8771 H   0  0  0  0  0  0  0  0  0  0  0  0
  151.6011  138.1285  154.2765 H   0  0  0  0  0  0  0  0  0  0  0  0
  149.6987  142.2326  155.2192 H   0  0  0  0  0  0  0  0  0  0  0  0
  150.8172  142.5314  157.6876 H   0  0  0  0  0  0  0  0  0  0  0  0
  151.8137  140.0044  158.2329 H   0  0  0  0  0  0  0  0  0  0  0  0
  148.4534  139.4409  151.9700 H   0  0  0  0  0  0  0  0  0  0  0  0
  1  2  1  0  0  0  0
  1 18  1  0  0  0  0
  1 19  1  0  0  0  0
  1 20  1  0  0  0  0
  2  3  1  0  0  0  0
  2 21  1  0  0  0  0
  2 22  1  0  0  0  0
  3  4  1  0  0  0  0
  3 23  1  0  0  0  0
  4  5  2  0  0  0  0
  4  6  1  0  0  0  0
  6  7  1  0  0  0  0
  6 24  1  0  0  0  0
  6 25  1  0  0  0  0
  7  8  1  0  0  0  0
  7 26  1  0  0  0  0
  7 27  1  0  0  0  0
  8  9  1  0  0  0  0
  8 28  1  0  0  0  0
  8 40  1  0  0  0  0
  9 10  1  0  0  0  0
  9 11  1  0  0  0  0
  9 29  1  0  0  0  0
 10 30  1  0  0  0  0
 10 31  1  0  0  0  0
 10 32  1  0  0  0  0
 11 12  1  0  0  0  0
 11 13  1  0  0  0  0
 11 33  1  0  0  0  0
 12 34  1  0  0  0  0
 12 35  1  0  0  0  0
 12 36  1  0  0  0  0
 13 17  1  0  0  0  0
 13 14  1  0  0  0  0
 14 15  2  0  0  0  0
 14 37  1  0  0  0  0
 15 16  1  0  0  0  0
 15 38  1  0  0  0  0
 16 17  2  0  0  0  0
 16 39  1  0  0  0  0
M  CHG  1   8   1
M  END
> <s_m_source_file>
AV-unprocessed.smi

> <i_m_source_file_index>
3136

> <i_lp_mmshare_version>
43012

> <i_f3d_flags>
0

> <s_epik_input>
W0NIM11bQ0gyXVtOSF1DKD1PKVtDSDJdW0NIMl1bTkhdW0NASF0oW0NIM10pW0NASF0oW0NIM10pbjFbY0hdW2NIXVtjSF1uMQ==

> <s_epik_cmdline>
J2VwaWtfcHl0aG9uJywgJy1waCcsICc3LjAnLCAnLXRuJywgJzgnLCAnLW1hJywgJzIwMCcsICctbWV0YWxfYmluZGluZycsICctaW1hZScsICc8aW5maWxlLm1hZT4nLCAnLW9tYWUnLCAnPG91dGZpbGUubWFlPic=

> <r_lp_tautomer_probability>
1

> <r_epik_Ionization_Penalty>
0.00463447

> <r_epik_Ionization_Penalty_Charging>
0.00462393

> <r_epik_Ionization_Penalty_Neutral>
1.05394e-05

> <r_epik_State_Penalty>
-0

> <r_epik_Charging_Adjusted_Penalty>
0.00462393

> <i_epik_Tot_Q>
1

> <i_epik_Tot_abs_Q>
1

> <r_epik_Metal_State_Penalty>
-0

> <b_epik_Metal_Only>
0

> <s_lp_Force_Field>
OPLS_2005

> <r_lp_Energy>
10.4266

> <b_lp_Chiralities_Consistent>
1

> <s_lp_Variant>
AV-unprocessed.smi:3136-1

> <Gold.Version>
5.8.1

> <Gold.Id.Protein>
6NUR|6NUR_protein|mol2

> <Gold.PLP.Fitness>
45.2214

> <Gold.PLP.PLP>
-32.3052

> <Gold.PLP.part.hbond>
-2.8430

> <Gold.PLP.part.metal>
0.0000

> <Gold.PLP.part.buried>
1.9947

> <Gold.PLP.part.nonpolar>
-32.1602

> <Gold.PLP.part.repulsive>
1.2584

> <Gold.PLP.ligand.clash>
0.0000

> <Gold.PLP.ligand.torsion>
0.7147

> <Gold.PLP.Chemscore.Hbond>
3.7714

> <Gold.PLP.Chemscore.CHOScore>
0.9521

> <Gold.PLP.Chemscore.Metal>
0.0000

> <Gold.Chemscore.Hbonds>
donor molecule, donor type, donor heavy atom, donor atom, acceptor molecule, acceptor atom, score
      L1  H     3    23       P1 10171  0.98
      L1  H     8    28       P1  7948  1.95
      L1  H     8    40       P1  7957  0.96
      L1  C    14    37       P1  8028  0.70

> <Gold.PLP.Chemscore.Internal.Correction>
0.1749

> <Gold.Rescore>
     Score         DG    S(hbond)    S(metal)    S(lipo)     H(rot)  DE(clash)    DE(int)     intcor
     15.56     -17.82       2.74        0.00      77.84       2.32       1.48       0.77       ----

> <Gold.Chemscore.Fitness>
15.5640

> <Gold.Chemscore.DG>
-17.8215

> <Gold.Chemscore.ZeroCoef>
-5.4800

> <Gold.Chemscore.Hbond>
2.7432

> <Gold.Chemscore.Metal>
0.0000

> <Gold.Chemscore.Lipo>
77.8450

> <Gold.Chemscore.Internal_Hbond>
0.0000

> <Gold.Chemscore.DEClash>
1.4848

> <Gold.Chemscore.DEInternal>
0.7726

> <Gold.Chemscore.Rot>
2.3159

> <Gold.Chemscore.Internal.Correction>
   9.000000E+99

> <Gold.Chemscore.Hbonds>
donor molecule, donor type, donor heavy atom, donor atom, acceptor molecule, acceptor atom, score
      L1  H     3    23       P1 10171  0.92
      L1  H     8    28       P1  7948  0.87
      L1  H     8    40       P1  7957  0.89

> <Gold.Chemscore.Hbond.Weighted>
-9.1622

> <Gold.Chemscore.Metal.Weighted>
-0.0000

> <Gold.Chemscore.Lipo.Weighted>
-9.1079

> <Gold.Chemscore.Internal_Hbond.Weighted>
0.0000

> <Gold.Chemscore.DEClash.Weighted>
1.4848

> <Gold.Chemscore.DEInternal.Weighted>
0.7726

> <Gold.Chemscore.Rot.Weighted>
5.9286

> <Gold.Chemscore.Internal.Correction.Weighted>
   9.000000E+99

> <Gold.Protein.RotatedTorsions>
[ 6907 6896 6895 6894 ] final   -4.26 input  -60.11 | X-H torsion
[ 7974 7965 7964 7962 ] final  122.55 input  175.53 | X-H torsion
[ 8008 7997 7996 7995 ] final  -97.17 input   59.86 | X-H torsion
[ 10167 10162 10161 10158 ] final -163.80 input  -65.29 | X-H torsion
[ 10718 10713 10712 10709 ] final  -76.68 input   66.30 | X-H torsion
[ 10763 10752 10751 10750 ] final -114.97 input  -60.55 | X-H torsion
[ 11005 11000 10999 10996 ] final   10.82 input  -57.11 | X-H torsion

> <Gold.Protein.ActiveResidues>
 VAL166  LYS551  ARG553  GLY616  TRP617  ASP618  TYR619  PRO620  LYS621  CYS622 
 ASP623  PHE694  ASN695  SER759  ASP760  ASP761  ALA762  ILE779  LEU786  VAL792 
 PHE793  MET794  SER795  GLU796  ALA797  LYS798  CYS799  TRP800  GLU811  SER814 

> <Gold.Protein.RotatedAtoms>
  151.5005  135.1061  159.9827 H   0  0  0  0  0  0  0  0  0  0  0  0  # atno 6907 bound_to 6896
  152.4704  133.8012  159.6964 H   0  0  0  0  0  0  0  0  0  0  0  0  # atno 6908 bound_to 6896
  150.8709  133.7443  159.2987 H   0  0  0  0  0  0  0  0  0  0  0  0  # atno 6909 bound_to 6896
  145.1062  139.3484  143.4786 H   0  0  0  0  0  0  0  0  0  0  0  0  # atno 7974 bound_to 7965
  154.7842  140.0465  157.1151 H   0  0  0  0  0  0  0  0  0  0  0  0  # atno 8008 bound_to 7997
  154.9668  140.3084  155.4986 H   0  0  0  0  0  0  0  0  0  0  0  0  # atno 8009 bound_to 7997
  156.2941  140.2260  156.4758 H   0  0  0  0  0  0  0  0  0  0  0  0  # atno 8010 bound_to 7997
  139.6295  144.0467  152.2003 H   0  0  0  0  0  0  0  0  0  0  0  0  # atno 10167 bound_to 10162
  156.0167  130.4472  150.3231 H   0  0  0  0  0  0  0  0  0  0  0  0  # atno 10718 bound_to 10713
  154.8462  135.4398  154.1590 H   0  0  0  0  0  0  0  0  0  0  0  0  # atno 10763 bound_to 10752
  153.2731  135.6947  153.7466 H   0  0  0  0  0  0  0  0  0  0  0  0  # atno 10764 bound_to 10752
  153.6699  135.3420  155.3125 H   0  0  0  0  0  0  0  0  0  0  0  0  # atno 10765 bound_to 10752
  140.5101  134.0660  155.7816 H   0  0  0  0  0  0  0  0  0  0  0  0  # atno 11005 bound_to 11000
  146.3528  140.0961  142.8610 LP  0  0  0  0  0  0  0  0  0  0  0  0  # atno 17320 bound_to 7965
  145.0898  140.9277  143.4775 LP  0  0  0  0  0  0  0  0  0  0  0  0  # atno 17321 bound_to 7965
  140.0129  144.6210  150.7632 LP  0  0  0  0  0  0  0  0  0  0  0  0  # atno 17342 bound_to 10162
  140.7431  143.2841  151.3514 LP  0  0  0  0  0  0  0  0  0  0  0  0  # atno 17343 bound_to 10162
  157.1330  131.0277  151.2961 LP  0  0  0  0  0  0  0  0  0  0  0  0  # atno 17370 bound_to 10713
  157.4534  130.7612  149.7172 LP  0  0  0  0  0  0  0  0  0  0  0  0  # atno 17371 bound_to 10713
  141.1390  133.9172  157.2369 LP  0  0  0  0  0  0  0  0  0  0  0  0  # atno 17394 bound_to 11000
  139.9663  135.0141  156.9397 LP  0  0  0  0  0  0  0  0  0  0  0  0  # atno 17395 bound_to 11000

$$$$
