AV-unprocessed.smi:1289|AV-procd|sdf|5388|dock1
  -GOLD-   22720 4533D 1   1.00000     0.00000
 Structure written by MMmdl.
 38 40  0  0  0  0  0  0  0  0  2 V2000
  153.8116  138.5790  156.5108 N   0  0  0  0  0  0  0  0  0  0  0  0
  152.7398  138.5063  156.0810 C   0  0  0  0  0  0  0  0  0  0  0  0
  151.3934  138.4146  155.5414 C   0  0  0  0  0  0  0  0  0  0  0  0
  150.4595  137.5302  156.1156 C   0  0  0  0  0  0  0  0  0  0  0  0
  149.1574  137.4395  155.5869 C   0  0  0  0  0  0  0  0  0  0  0  0
  148.7687  138.2260  154.4832 C   0  0  0  0  0  0  0  0  0  0  0  0
  147.4779  138.0678  154.0263 O   0  0  0  0  0  0  0  0  0  0  0  0
  147.1207  138.6781  152.7932 C   0  0  0  0  0  0  0  0  0  0  0  0
  146.0785  137.8004  152.0843 C   0  0  1  0  0  0  0  0  0  0  0  0
  146.3753  137.7852  150.7020 O   0  0  0  0  0  0  0  0  0  0  0  0
  146.0530  136.3618  152.6391 C   0  0  0  0  0  0  0  0  0  0  0  0
  145.1996  135.4591  151.8535 N   0  0  0  0  0  0  0  0  0  0  0  0
  144.0640  135.7288  151.1545 C   0  0  0  0  0  0  0  0  0  0  0  0
  143.6349  134.5618  150.5989 N   0  3  0  0  0  0  0  0  0  0  0  0
  144.5100  133.5305  150.9462 C   0  0  0  0  0  0  0  0  0  0  0  0
  144.4956  132.1767  150.6245 C   0  0  0  0  0  0  0  0  0  0  0  0
  145.5471  131.3918  151.1418 C   0  0  0  0  0  0  0  0  0  0  0  0
  146.5601  131.9572  151.9431 C   0  0  0  0  0  0  0  0  0  0  0  0
  146.5642  133.3307  152.2637 C   0  0  0  0  0  0  0  0  0  0  0  0
  145.5200  134.1000  151.7508 C   0  0  0  0  0  0  0  0  0  0  0  0
  149.7127  139.1186  153.9147 C   0  0  0  0  0  0  0  0  0  0  0  0
  151.0163  139.2092  154.4408 C   0  0  0  0  0  0  0  0  0  0  0  0
  150.7353  136.9163  156.9611 H   0  0  0  0  0  0  0  0  0  0  0  0
  148.4494  136.7565  156.0329 H   0  0  0  0  0  0  0  0  0  0  0  0
  146.7011  139.6660  152.9911 H   0  0  0  0  0  0  0  0  0  0  0  0
  147.9947  138.8040  152.1518 H   0  0  0  0  0  0  0  0  0  0  0  0
  145.0923  138.2517  152.2001 H   0  0  0  0  0  0  0  0  0  0  0  0
  145.6570  138.1863  150.2365 H   0  0  0  0  0  0  0  0  0  0  0  0
  147.0577  135.9434  152.7034 H   0  0  0  0  0  0  0  0  0  0  0  0
  145.6611  136.3639  153.6567 H   0  0  0  0  0  0  0  0  0  0  0  0
  143.5883  136.6943  151.0589 H   0  0  0  0  0  0  0  0  0  0  0  0
  143.7221  131.7412  150.0091 H   0  0  0  0  0  0  0  0  0  0  0  0
  145.5785  130.3354  150.9178 H   0  0  0  0  0  0  0  0  0  0  0  0
  147.3517  131.3251  152.3187 H   0  0  0  0  0  0  0  0  0  0  0  0
  147.3489  133.7539  152.8732 H   0  0  0  0  0  0  0  0  0  0  0  0
  149.4629  139.7452  153.0722 H   0  0  0  0  0  0  0  0  0  0  0  0
  151.7238  139.8920  153.9925 H   0  0  0  0  0  0  0  0  0  0  0  0
  142.8055  134.4787  150.0251 H   0  0  0  0  0  0  0  0  0  0  0  0
  1  2  3  0  0  0  0
  2  3  1  0  0  0  0
  3 22  1  0  0  0  0
  3  4  2  0  0  0  0
  4  5  1  0  0  0  0
  4 23  1  0  0  0  0
  5  6  2  0  0  0  0
  5 24  1  0  0  0  0
  6  7  1  0  0  0  0
  6 21  1  0  0  0  0
  7  8  1  0  0  0  0
  8  9  1  0  0  0  0
  8 25  1  0  0  0  0
  8 26  1  0  0  0  0
  9 10  1  0  0  0  0
  9 11  1  0  0  0  0
  9 27  1  0  0  0  0
 10 28  1  0  0  0  0
 11 12  1  0  0  0  0
 11 29  1  0  0  0  0
 11 30  1  0  0  0  0
 12 20  1  0  0  0  0
 12 13  1  0  0  0  0
 13 14  2  0  0  0  0
 13 31  1  0  0  0  0
 14 15  1  0  0  0  0
 14 38  1  0  0  0  0
 15 20  2  0  0  0  0
 15 16  1  0  0  0  0
 16 17  2  0  0  0  0
 16 32  1  0  0  0  0
 17 18  1  0  0  0  0
 17 33  1  0  0  0  0
 18 19  2  0  0  0  0
 18 34  1  0  0  0  0
 19 20  1  0  0  0  0
 19 35  1  0  0  0  0
 21 22  2  0  0  0  0
 21 36  1  0  0  0  0
 22 37  1  0  0  0  0
M  CHG  1  14   1
M  END
> <s_m_source_file>
AV-unprocessed.smi

> <i_m_source_file_index>
1289

> <i_lp_mmshare_version>
43012

> <i_f3d_flags>
0

> <s_epik_input>
TiNDYzFbY0hdW2NIXWMoW2NIXVtjSF0xKU9bQ0gyXVtDQEhdKFtPSF0pW0NIMl1uKFtjSF1uMiljKGMyMylbY0hdW2NIXVtjSF1bY0hdMw==

> <s_epik_cmdline>
J2VwaWtfcHl0aG9uJywgJy1waCcsICc3LjAnLCAnLXRuJywgJzgnLCAnLW1hJywgJzIwMCcsICctbWV0YWxfYmluZGluZycsICctaW1hZScsICc8aW5maWxlLm1hZT4nLCAnLW9tYWUnLCAnPG91dGZpbGUubWFlPic=

> <r_epik_Ionization_Penalty>
1.39523

> <r_epik_Ionization_Penalty_Charging>
1.39523

> <r_epik_Ionization_Penalty_Neutral>
2.3993e-06

> <r_epik_State_Penalty>
1.47691

> <r_epik_Charging_Adjusted_Penalty>
2.87215

> <i_epik_Tot_Q>
1

> <i_epik_Tot_abs_Q>
1

> <r_epik_Metal_State_Penalty>
5.51858

> <b_epik_Metal_Only>
0

> <s_lp_Force_Field>
OPLS_2005

> <r_lp_Energy>
20.386

> <b_lp_Chiralities_Consistent>
1

> <s_lp_Variant>
AV-unprocessed.smi:1289-4

> <Gold.Version>
5.8.1

> <Gold.Id.Protein>
6NUR|6NUR_protein|mol2

> <Gold.PLP.Fitness>
51.6391

> <Gold.PLP.PLP>
-36.2104

> <Gold.PLP.part.hbond>
-4.7477

> <Gold.PLP.part.metal>
0.0000

> <Gold.PLP.part.buried>
-0.8950

> <Gold.PLP.part.nonpolar>
-30.6779

> <Gold.PLP.part.repulsive>
0.1711

> <Gold.PLP.ligand.clash>
0.0000

> <Gold.PLP.ligand.torsion>
1.2931

> <Gold.PLP.Chemscore.Hbond>
4.9920

> <Gold.PLP.Chemscore.CHOScore>
1.0000

> <Gold.PLP.Chemscore.Metal>
0.0000

> <Gold.Chemscore.Hbonds>
donor molecule, donor type, donor heavy atom, donor atom, acceptor molecule, acceptor atom, score
      L1  H    10    28       P1 10171  1.00
      L1  H    14    38       P1 10186  2.00
      P1  H  7954  7966       L1    10  1.00
      P1  H  7997  8010       L1     1  0.61
      L1  C    13    31       P1 10171  1.00

> <Gold.PLP.Chemscore.Internal.Correction>
0.0390

> <Gold.Rescore>
     Score         DG    S(hbond)    S(metal)    S(lipo)     H(rot)  DE(clash)    DE(int)     intcor
     19.91     -21.85       3.82        0.00      87.34       2.58       0.64       1.30       ----

> <Gold.Chemscore.Fitness>
19.9094

> <Gold.Chemscore.DG>
-21.8541

> <Gold.Chemscore.ZeroCoef>
-5.4800

> <Gold.Chemscore.Hbond>
3.8201

> <Gold.Chemscore.Metal>
0.0000

> <Gold.Chemscore.Lipo>
87.3439

> <Gold.Chemscore.Internal_Hbond>
0.0000

> <Gold.Chemscore.DEClash>
0.6428

> <Gold.Chemscore.DEInternal>
1.3019

> <Gold.Chemscore.Rot>
2.5798

> <Gold.Chemscore.Internal.Correction>
   9.000000E+99

> <Gold.Chemscore.Hbonds>
donor molecule, donor type, donor heavy atom, donor atom, acceptor molecule, acceptor atom, score
      L1  H    10    28       P1 10171  0.99
      L1  H    14    38       P1 10186  0.85
      P1  H  7954  7966       L1    10  0.90
      P1  H  7997  8010       L1     1  0.59

> <Gold.Chemscore.Hbond.Weighted>
-12.7591

> <Gold.Chemscore.Metal.Weighted>
-0.0000

> <Gold.Chemscore.Lipo.Weighted>
-10.2192

> <Gold.Chemscore.Internal_Hbond.Weighted>
0.0000

> <Gold.Chemscore.DEClash.Weighted>
0.6428

> <Gold.Chemscore.DEInternal.Weighted>
1.3019

> <Gold.Chemscore.Rot.Weighted>
6.6043

> <Gold.Chemscore.Internal.Correction.Weighted>
   9.000000E+99

> <Gold.Protein.RotatedTorsions>
[ 6907 6896 6895 6894 ] final   81.39 input  -60.11 | X-H torsion
[ 7974 7965 7964 7962 ] final   23.33 input  175.53 | X-H torsion
[ 8008 7997 7996 7995 ] final   44.68 input   59.86 | X-H torsion
[ 10167 10162 10161 10158 ] final  176.45 input  -65.29 | X-H torsion
[ 10718 10713 10712 10709 ] final -124.06 input   66.30 | X-H torsion
[ 10763 10752 10751 10750 ] final  -89.73 input  -60.55 | X-H torsion
[ 11005 11000 10999 10996 ] final   58.35 input  -57.11 | X-H torsion

> <Gold.Protein.ActiveResidues>
 VAL166  LYS551  ARG553  GLY616  TRP617  ASP618  TYR619  PRO620  LYS621  CYS622 
 ASP623  PHE694  ASN695  SER759  ASP760  ASP761  ALA762  ILE779  LEU786  VAL792 
 PHE793  MET794  SER795  GLU796  ALA797  LYS798  CYS799  TRP800  GLU811  SER814 

> <Gold.Protein.RotatedAtoms>
  152.5267  134.3211  159.9148 H   0  0  0  0  0  0  0  0  0  0  0  0  # atno 6907 bound_to 6896
  151.3160  133.4053  159.2658 H   0  0  0  0  0  0  0  0  0  0  0  0  # atno 6908 bound_to 6896
  150.9998  134.9330  159.8005 H   0  0  0  0  0  0  0  0  0  0  0  0  # atno 6909 bound_to 6896
  146.1989  139.7759  142.8776 H   0  0  0  0  0  0  0  0  0  0  0  0  # atno 7974 bound_to 7965
  155.3234  140.3398  155.4241 H   0  0  0  0  0  0  0  0  0  0  0  0  # atno 8008 bound_to 7997
  156.1898  140.1693  156.8152 H   0  0  0  0  0  0  0  0  0  0  0  0  # atno 8009 bound_to 7997
  154.5428  140.0721  156.8522 H   0  0  0  0  0  0  0  0  0  0  0  0  # atno 8010 bound_to 7997
  139.5215  144.2913  152.0461 H   0  0  0  0  0  0  0  0  0  0  0  0  # atno 10167 bound_to 10162
  156.1555  130.6565  150.9976 H   0  0  0  0  0  0  0  0  0  0  0  0  # atno 10718 bound_to 10713
  154.6583  135.5330  153.7987 H   0  0  0  0  0  0  0  0  0  0  0  0  # atno 10763 bound_to 10752
  153.0427  135.6499  154.0910 H   0  0  0  0  0  0  0  0  0  0  0  0  # atno 10764 bound_to 10752
  154.0822  135.2946  155.3268 H   0  0  0  0  0  0  0  0  0  0  0  0  # atno 10765 bound_to 10752
  140.0384  134.5909  155.9413 H   0  0  0  0  0  0  0  0  0  0  0  0  # atno 11005 bound_to 11000
  145.3551  141.0315  143.3316 LP  0  0  0  0  0  0  0  0  0  0  0  0  # atno 17320 bound_to 7965
  144.8639  139.5136  143.6799 LP  0  0  0  0  0  0  0  0  0  0  0  0  # atno 17321 bound_to 7965
  140.2364  144.4315  150.6278 LP  0  0  0  0  0  0  0  0  0  0  0  0  # atno 17342 bound_to 10162
  140.6320  143.2189  151.6475 LP  0  0  0  0  0  0  0  0  0  0  0  0  # atno 17343 bound_to 10162
  157.6692  131.0865  150.7655 LP  0  0  0  0  0  0  0  0  0  0  0  0  # atno 17370 bound_to 10713
  156.7720  130.4832  149.5416 LP  0  0  0  0  0  0  0  0  0  0  0  0  # atno 17371 bound_to 10713
  141.1870  133.6558  156.5263 LP  0  0  0  0  0  0  0  0  0  0  0  0  # atno 17394 bound_to 11000
  140.4109  134.7273  157.4835 LP  0  0  0  0  0  0  0  0  0  0  0  0  # atno 17395 bound_to 11000

$$$$
