AV-unprocessed.smi:3248|AV-procd|sdf|12416|dock10
  -GOLD-   2272018303D 1   1.00000     0.00000
 Structure written by MMmdl.
 38 39  0  0  0  0  0  0  0  0  1 V2000
  152.7587  139.4707  159.3661 C   0  0  0  0  0  0  0  0  0  0  0  0
  151.9346  140.7397  159.1118 C   0  0  1  0  0  0  0  0  0  0  0  0
  152.6988  142.0069  159.5487 C   0  0  0  0  0  0  0  0  0  0  0  0
  151.8929  143.2101  159.4339 N   0  0  0  0  0  0  0  0  0  0  0  0
  152.2905  144.5232  159.5707 C   0  0  0  0  0  0  0  0  0  0  0  0
  151.1830  145.3026  159.3985 C   0  0  0  0  0  0  0  0  0  0  0  0
  150.1423  144.3631  159.1562 C   0  0  0  0  0  0  0  0  0  0  0  0
  150.5705  143.1115  159.1752 N   0  0  0  0  0  0  0  0  0  0  0  0
  151.5929  140.8119  157.6920 N   0  0  0  0  0  0  0  0  0  0  0  0
  151.0373  139.8276  156.9636 C   0  0  0  0  0  0  0  0  0  0  0  0
  150.8652  138.6911  157.4040 O   0  0  0  0  0  0  0  0  0  0  0  0
  150.7888  140.1894  155.6815 N   0  0  0  0  0  0  0  0  0  0  0  0
  150.1006  141.4538  155.3825 C   0  0  0  0  0  0  0  0  0  0  0  0
  148.5914  141.1678  155.2567 C   0  0  0  0  0  0  0  0  0  0  0  0
  148.3654  140.1983  154.2362 O   0  0  0  0  0  0  0  0  0  0  0  0
  149.0576  138.9713  154.4586 C   0  0  0  0  0  0  0  0  0  0  0  0
  150.5704  139.2511  154.5634 C   0  0  2  0  0  0  0  0  0  0  0  0
  151.4141  137.9599  154.6089 C   0  0  0  0  0  0  0  0  0  0  0  0
  153.0079  139.3712  160.4230 H   0  0  0  0  0  0  0  0  0  0  0  0
  153.6928  139.4828  158.8035 H   0  0  0  0  0  0  0  0  0  0  0  0
  152.2048  138.5777  159.0742 H   0  0  0  0  0  0  0  0  0  0  0  0
  151.0268  140.6594  159.7122 H   0  0  0  0  0  0  0  0  0  0  0  0
  153.0124  141.9144  160.5892 H   0  0  0  0  0  0  0  0  0  0  0  0
  153.6096  142.1281  158.9597 H   0  0  0  0  0  0  0  0  0  0  0  0
  153.3156  144.7890  159.7834 H   0  0  0  0  0  0  0  0  0  0  0  0
  151.1242  146.3799  159.4415 H   0  0  0  0  0  0  0  0  0  0  0  0
  149.0955  144.5518  158.9695 H   0  0  0  0  0  0  0  0  0  0  0  0
  151.7419  141.7006  157.2368 H   0  0  0  0  0  0  0  0  0  0  0  0
  150.2609  142.2209  156.1412 H   0  0  0  0  0  0  0  0  0  0  0  0
  150.4850  141.8734  154.4520 H   0  0  0  0  0  0  0  0  0  0  0  0
  148.1823  140.8103  156.2027 H   0  0  0  0  0  0  0  0  0  0  0  0
  148.0536  142.0808  155.0019 H   0  0  0  0  0  0  0  0  0  0  0  0
  148.6813  138.4855  155.3603 H   0  0  0  0  0  0  0  0  0  0  0  0
  148.8506  138.3013  153.6239 H   0  0  0  0  0  0  0  0  0  0  0  0
  150.8785  139.7652  153.6511 H   0  0  0  0  0  0  0  0  0  0  0  0
  151.3479  137.4296  153.6586 H   0  0  0  0  0  0  0  0  0  0  0  0
  151.0765  137.2662  155.3783 H   0  0  0  0  0  0  0  0  0  0  0  0
  152.4671  138.1803  154.7850 H   0  0  0  0  0  0  0  0  0  0  0  0
  1  2  1  0  0  0  0
  1 19  1  0  0  0  0
  1 20  1  0  0  0  0
  1 21  1  0  0  0  0
  2  3  1  0  0  0  0
  2  9  1  0  0  0  0
  2 22  1  0  0  0  0
  3  4  1  0  0  0  0
  3 23  1  0  0  0  0
  3 24  1  0  0  0  0
  4  8  1  0  0  0  0
  4  5  1  0  0  0  0
  5  6  2  0  0  0  0
  5 25  1  0  0  0  0
  6  7  1  0  0  0  0
  6 26  1  0  0  0  0
  7  8  2  0  0  0  0
  7 27  1  0  0  0  0
  9 10  1  0  0  0  0
  9 28  1  0  0  0  0
 10 11  2  0  0  0  0
 10 12  1  0  0  0  0
 12 17  1  0  0  0  0
 12 13  1  0  0  0  0
 13 14  1  0  0  0  0
 13 29  1  0  0  0  0
 13 30  1  0  0  0  0
 14 15  1  0  0  0  0
 14 31  1  0  0  0  0
 14 32  1  0  0  0  0
 15 16  1  0  0  0  0
 16 17  1  0  0  0  0
 16 33  1  0  0  0  0
 16 34  1  0  0  0  0
 17 18  1  0  0  0  0
 17 35  1  0  0  0  0
 18 36  1  0  0  0  0
 18 37  1  0  0  0  0
 18 38  1  0  0  0  0
M  END
> <s_m_source_file>
AV-unprocessed.smi

> <i_m_source_file_index>
3248

> <i_lp_mmshare_version>
43012

> <i_f3d_flags>
0

> <s_epik_input>
bjFbY0hdW2NIXVtjSF1uMVtDSDJdW0NAQEhdKFtDSDNdKVtOSF1DKD1PKU4yW0NIMl1bQ0gyXU9bQ0gyXVtDQEhdMltDSDNd

> <s_epik_cmdline>
J2VwaWtfcHl0aG9uJywgJy1waCcsICc3LjAnLCAnLXRuJywgJzgnLCAnLW1hJywgJzIwMCcsICctbWV0YWxfYmluZGluZycsICctaW1hZScsICc8aW5maWxlLm1hZT4nLCAnLW9tYWUnLCAnPG91dGZpbGUubWFlPic=

> <r_lp_tautomer_probability>
1

> <r_epik_Ionization_Penalty>
4.45233e-05

> <r_epik_Ionization_Penalty_Charging>
0

> <r_epik_Ionization_Penalty_Neutral>
4.45233e-05

> <r_epik_State_Penalty>
-0

> <r_epik_Charging_Adjusted_Penalty>
0

> <i_epik_Tot_Q>
0

> <i_epik_Tot_abs_Q>
0

> <r_epik_Metal_State_Penalty>
-0

> <b_epik_Metal_Only>
0

> <s_lp_Force_Field>
OPLS_2005

> <r_lp_Energy>
30.7838

> <b_lp_Chiralities_Consistent>
1

> <s_lp_Variant>
AV-unprocessed.smi:3248-4

> <Gold.Version>
5.8.1

> <Gold.Id.Protein>
6NUR|6NUR_protein|mol2

> <Gold.PLP.Fitness>
40.5723

> <Gold.PLP.PLP>
-38.3091

> <Gold.PLP.part.hbond>
-0.0519

> <Gold.PLP.part.metal>
0.0000

> <Gold.PLP.part.buried>
-4.2868

> <Gold.PLP.part.nonpolar>
-33.8915

> <Gold.PLP.part.repulsive>
0.2628

> <Gold.PLP.ligand.clash>
0.0000

> <Gold.PLP.ligand.torsion>
0.6058

> <Gold.PLP.Chemscore.Hbond>
0.0000

> <Gold.PLP.Chemscore.CHOScore>
0.9841

> <Gold.PLP.Chemscore.Metal>
0.0000

> <Gold.Chemscore.Hbonds>
donor molecule, donor type, donor heavy atom, donor atom, acceptor molecule, acceptor atom, score
      L1  C     7    27       P1  8029  1.00

> <Gold.PLP.Chemscore.Internal.Correction>
0.5224

> <Gold.Rescore>
     Score         DG    S(hbond)    S(metal)    S(lipo)     H(rot)  DE(clash)    DE(int)     intcor
      9.57     -13.06       0.00        0.00      95.86       1.42       0.33       3.16       ----

> <Gold.Chemscore.Fitness>
9.5718

> <Gold.Chemscore.DG>
-13.0626

> <Gold.Chemscore.ZeroCoef>
-5.4800

> <Gold.Chemscore.Hbond>
0.0000

> <Gold.Chemscore.Metal>
0.0000

> <Gold.Chemscore.Lipo>
95.8599

> <Gold.Chemscore.Internal_Hbond>
0.0000

> <Gold.Chemscore.DEClash>
0.3323

> <Gold.Chemscore.DEInternal>
3.1586

> <Gold.Chemscore.Rot>
1.4191

> <Gold.Chemscore.Internal.Correction>
   9.000000E+99

> <Gold.Chemscore.Hbond.Weighted>
-0.0000

> <Gold.Chemscore.Metal.Weighted>
-0.0000

> <Gold.Chemscore.Lipo.Weighted>
-11.2156

> <Gold.Chemscore.Internal_Hbond.Weighted>
0.0000

> <Gold.Chemscore.DEClash.Weighted>
0.3323

> <Gold.Chemscore.DEInternal.Weighted>
3.1586

> <Gold.Chemscore.Rot.Weighted>
3.6330

> <Gold.Chemscore.Internal.Correction.Weighted>
   9.000000E+99

> <Gold.Protein.RotatedTorsions>
[ 6907 6896 6895 6894 ] final  166.21 input  -60.11 | X-H torsion
[ 7974 7965 7964 7962 ] final  104.17 input  175.53 | X-H torsion
[ 8008 7997 7996 7995 ] final  164.67 input   59.86 | X-H torsion
[ 10167 10162 10161 10158 ] final   92.35 input  -65.29 | X-H torsion
[ 10718 10713 10712 10709 ] final  139.45 input   66.30 | X-H torsion
[ 10763 10752 10751 10750 ] final  135.30 input  -60.55 | X-H torsion
[ 11005 11000 10999 10996 ] final   73.12 input  -57.11 | X-H torsion

> <Gold.Protein.ActiveResidues>
 VAL166  LYS551  ARG553  GLY616  TRP617  ASP618  TYR619  PRO620  LYS621  CYS622 
 ASP623  PHE694  ASN695  SER759  ASP760  ASP761  ALA762  ILE779  LEU786  VAL792 
 PHE793  MET794  SER795  GLU796  ALA797  LYS798  CYS799  TRP800  GLU811  SER814 

> <Gold.Protein.RotatedAtoms>
  151.8824  133.3498  159.3770 H   0  0  0  0  0  0  0  0  0  0  0  0  # atno 6907 bound_to 6896
  150.7124  134.5005  159.5568 H   0  0  0  0  0  0  0  0  0  0  0  0  # atno 6908 bound_to 6896
  152.2560  134.8084  160.0489 H   0  0  0  0  0  0  0  0  0  0  0  0  # atno 6909 bound_to 6896
  145.3362  139.2474  143.3634 H   0  0  0  0  0  0  0  0  0  0  0  0  # atno 7974 bound_to 7965
  156.1861  140.1690  156.8182 H   0  0  0  0  0  0  0  0  0  0  0  0  # atno 8008 bound_to 7997
  154.5416  140.0735  156.8552 H   0  0  0  0  0  0  0  0  0  0  0  0  # atno 8009 bound_to 7997
  155.3204  140.3373  155.4243 H   0  0  0  0  0  0  0  0  0  0  0  0  # atno 8010 bound_to 7997
  139.8285  144.6698  150.9429 H   0  0  0  0  0  0  0  0  0  0  0  0  # atno 10167 bound_to 10162
  157.4142  131.1031  151.0422 H   0  0  0  0  0  0  0  0  0  0  0  0  # atno 10718 bound_to 10713
  153.8377  135.3095  155.3424 H   0  0  0  0  0  0  0  0  0  0  0  0  # atno 10763 bound_to 10752
  154.7946  135.4763  154.0134 H   0  0  0  0  0  0  0  0  0  0  0  0  # atno 10764 bound_to 10752
  153.1595  135.6858  153.8855 H   0  0  0  0  0  0  0  0  0  0  0  0  # atno 10765 bound_to 10752
  139.9456  134.7319  156.0988 H   0  0  0  0  0  0  0  0  0  0  0  0  # atno 11005 bound_to 11000
  146.3026  140.3951  142.8699 LP  0  0  0  0  0  0  0  0  0  0  0  0  # atno 17320 bound_to 7965
  144.8825  140.7419  143.5977 LP  0  0  0  0  0  0  0  0  0  0  0  0  # atno 17321 bound_to 7965
  140.7808  143.4023  151.1128 LP  0  0  0  0  0  0  0  0  0  0  0  0  # atno 17342 bound_to 10162
  139.7679  143.8538  152.3114 LP  0  0  0  0  0  0  0  0  0  0  0  0  # atno 17343 bound_to 10162
  157.1375  130.6129  149.5546 LP  0  0  0  0  0  0  0  0  0  0  0  0  # atno 17370 bound_to 10713
  155.9860  130.4893  150.7058 LP  0  0  0  0  0  0  0  0  0  0  0  0  # atno 17371 bound_to 10713
  141.1105  133.6645  156.2968 LP  0  0  0  0  0  0  0  0  0  0  0  0  # atno 17394 bound_to 11000
  140.5843  134.5714  157.5486 LP  0  0  0  0  0  0  0  0  0  0  0  0  # atno 17395 bound_to 11000

$$$$
