AV-unprocessed.smi:3027|AV-procd|sdf|11516|dock6
  -GOLD-   2272016453D 1   1.00000     0.00000
 Structure written by MMmdl.
 37 38  0  0  0  0  0  0  0  0  2 V2000
  145.6656  143.3075  153.9217 C   0  0  0  0  0  0  0  0  0  0  0  0
  146.7837  142.3347  154.1626 C   0  0  0  0  0  0  0  0  0  0  0  0
  146.8166  140.9450  153.8536 C   0  0  0  0  0  0  0  0  0  0  0  0
  147.9592  140.3704  154.1923 N   0  0  0  0  0  0  0  0  0  0  0  0
  148.6918  141.3685  154.7303 N   0  0  0  0  0  0  0  0  0  0  0  0
  150.0352  141.1003  155.2090 C   0  0  0  0  0  0  0  0  0  0  0  0
  150.2631  141.5907  156.6540 C   0  0  1  0  0  0  0  0  0  0  0  0
  151.1060  140.5813  157.4445 C   0  0  0  0  0  0  0  0  0  0  0  0
  150.9349  142.9112  156.6712 N   0  3  0  0  0  0  0  0  0  0  0  0
  151.4016  143.3711  157.9978 C   0  0  0  0  0  0  0  0  0  0  0  0
  150.2522  143.8688  158.8723 C   0  0  0  0  0  0  0  0  0  0  0  0
  150.9343  144.7301  159.9392 C   0  0  0  0  0  0  0  0  0  0  0  0
  152.2382  145.2412  159.3050 C   0  0  0  0  0  0  0  0  0  0  0  0
  152.3337  144.5835  157.9223 C   0  0  0  0  0  0  0  0  0  0  0  0
  148.0061  142.5644  154.7273 C   0  0  0  0  0  0  0  0  0  0  0  0
  144.7883  142.8204  153.4960 H   0  0  0  0  0  0  0  0  0  0  0  0
  145.9617  144.0969  153.2307 H   0  0  0  0  0  0  0  0  0  0  0  0
  145.3474  143.7906  154.8459 H   0  0  0  0  0  0  0  0  0  0  0  0
  146.0484  140.3408  153.3936 H   0  0  0  0  0  0  0  0  0  0  0  0
  150.1988  140.0233  155.1506 H   0  0  0  0  0  0  0  0  0  0  0  0
  150.7547  141.5584  154.5280 H   0  0  0  0  0  0  0  0  0  0  0  0
  149.2975  141.6665  157.1564 H   0  0  0  0  0  0  0  0  0  0  0  0
  150.6214  139.6050  157.4770 H   0  0  0  0  0  0  0  0  0  0  0  0
  151.2478  140.9103  158.4746 H   0  0  0  0  0  0  0  0  0  0  0  0
  152.0919  140.4484  156.9976 H   0  0  0  0  0  0  0  0  0  0  0  0
  151.7369  142.8740  156.0587 H   0  0  0  0  0  0  0  0  0  0  0  0
  151.9063  142.5583  158.5214 H   0  0  0  0  0  0  0  0  0  0  0  0
  149.5743  144.4900  158.2847 H   0  0  0  0  0  0  0  0  0  0  0  0
  149.6687  143.0541  159.3026 H   0  0  0  0  0  0  0  0  0  0  0  0
  150.2904  145.5450  160.2717 H   0  0  0  0  0  0  0  0  0  0  0  0
  151.1671  144.1210  160.8138 H   0  0  0  0  0  0  0  0  0  0  0  0
  152.2488  146.3285  159.2231 H   0  0  0  0  0  0  0  0  0  0  0  0
  153.0892  144.9537  159.9238 H   0  0  0  0  0  0  0  0  0  0  0  0
  153.3575  144.3124  157.6635 H   0  0  0  0  0  0  0  0  0  0  0  0
  151.9763  145.2834  157.1652 H   0  0  0  0  0  0  0  0  0  0  0  0
  148.4420  143.4719  155.1190 H   0  0  0  0  0  0  0  0  0  0  0  0
  150.2847  143.5921  156.3047 H   0  0  0  0  0  0  0  0  0  0  0  0
  1  2  1  0  0  0  0
  1 16  1  0  0  0  0
  1 17  1  0  0  0  0
  1 18  1  0  0  0  0
  2 15  2  0  0  0  0
  2  3  1  0  0  0  0
  3  4  2  0  0  0  0
  3 19  1  0  0  0  0
  4  5  1  0  0  0  0
  5  6  1  0  0  0  0
  5 15  1  0  0  0  0
  6  7  1  0  0  0  0
  6 20  1  0  0  0  0
  6 21  1  0  0  0  0
  7  8  1  0  0  0  0
  7  9  1  0  0  0  0
  7 22  1  0  0  0  0
  8 23  1  0  0  0  0
  8 24  1  0  0  0  0
  8 25  1  0  0  0  0
  9 10  1  0  0  0  0
  9 26  1  0  0  0  0
  9 37  1  0  0  0  0
 10 14  1  0  0  0  0
 10 11  1  0  0  0  0
 10 27  1  0  0  0  0
 11 12  1  0  0  0  0
 11 28  1  0  0  0  0
 11 29  1  0  0  0  0
 12 13  1  0  0  0  0
 12 30  1  0  0  0  0
 12 31  1  0  0  0  0
 13 14  1  0  0  0  0
 13 32  1  0  0  0  0
 13 33  1  0  0  0  0
 14 34  1  0  0  0  0
 14 35  1  0  0  0  0
 15 36  1  0  0  0  0
M  CHG  1   9   1
M  END
> <s_m_source_file>
AV-unprocessed.smi

> <i_m_source_file_index>
3027

> <i_lp_mmshare_version>
43012

> <i_f3d_flags>
0

> <s_epik_input>
W0NIM11jMVtjSF1ubihbY0hdMSlbQ0gyXVtDQEhdKFtDSDNdKVtOSF1bQ0hdMltDSDJdW0NIMl1bQ0gyXVtDSDJdMg==

> <s_epik_cmdline>
J2VwaWtfcHl0aG9uJywgJy1waCcsICc3LjAnLCAnLXRuJywgJzgnLCAnLW1hJywgJzIwMCcsICctbWV0YWxfYmluZGluZycsICctaW1hZScsICc8aW5maWxlLm1hZT4nLCAnLW9tYWUnLCAnPG91dGZpbGUubWFlPic=

> <r_lp_tautomer_probability>
1

> <r_epik_Ionization_Penalty>
0.00150056

> <r_epik_Ionization_Penalty_Charging>
0.00149132

> <r_epik_Ionization_Penalty_Neutral>
9.24096e-06

> <r_epik_State_Penalty>
0.00099871

> <r_epik_Charging_Adjusted_Penalty>
0.00249003

> <i_epik_Tot_Q>
1

> <i_epik_Tot_abs_Q>
1

> <r_epik_Metal_State_Penalty>
-0

> <b_epik_Metal_Only>
0

> <s_lp_Force_Field>
OPLS_2005

> <r_lp_Energy>
25.7776

> <b_lp_Chiralities_Consistent>
1

> <s_lp_Variant>
AV-unprocessed.smi:3027-2

> <Gold.Version>
5.8.1

> <Gold.Id.Protein>
6NUR|6NUR_protein|mol2

> <Gold.PLP.Fitness>
44.7019

> <Gold.PLP.PLP>
-37.2060

> <Gold.PLP.part.hbond>
-1.0000

> <Gold.PLP.part.metal>
0.0000

> <Gold.PLP.part.buried>
-1.3800

> <Gold.PLP.part.nonpolar>
-35.2763

> <Gold.PLP.part.repulsive>
0.1765

> <Gold.PLP.ligand.clash>
0.0000

> <Gold.PLP.ligand.torsion>
0.7572

> <Gold.PLP.Chemscore.Hbond>
2.0000

> <Gold.PLP.Chemscore.CHOScore>
0.9946

> <Gold.PLP.Chemscore.Metal>
0.0000

> <Gold.Chemscore.Hbonds>
donor molecule, donor type, donor heavy atom, donor atom, acceptor molecule, acceptor atom, score
      L1  H     9    37       P1  8028  2.00
      L1  C     3    19       P1 10175  0.98

> <Gold.PLP.Chemscore.Internal.Correction>
0.0264

> <Gold.Rescore>
     Score         DG    S(hbond)    S(metal)    S(lipo)     H(rot)  DE(clash)    DE(int)     intcor
     15.23     -17.60       0.99        0.00     105.93       1.40       1.60       0.78       ----

> <Gold.Chemscore.Fitness>
15.2270

> <Gold.Chemscore.DG>
-17.6043

> <Gold.Chemscore.ZeroCoef>
-5.4800

> <Gold.Chemscore.Hbond>
0.9918

> <Gold.Chemscore.Metal>
0.0000

> <Gold.Chemscore.Lipo>
105.9276

> <Gold.Chemscore.Internal_Hbond>
0.0000

> <Gold.Chemscore.DEClash>
1.5951

> <Gold.Chemscore.DEInternal>
0.7821

> <Gold.Chemscore.Rot>
1.3991

> <Gold.Chemscore.Internal.Correction>
   9.000000E+99

> <Gold.Chemscore.Hbonds>
donor molecule, donor type, donor heavy atom, donor atom, acceptor molecule, acceptor atom, score
      L1  H     9    37       P1  8028  1.00

> <Gold.Chemscore.Hbond.Weighted>
-3.3125

> <Gold.Chemscore.Metal.Weighted>
-0.0000

> <Gold.Chemscore.Lipo.Weighted>
-12.3935

> <Gold.Chemscore.Internal_Hbond.Weighted>
0.0000

> <Gold.Chemscore.DEClash.Weighted>
1.5951

> <Gold.Chemscore.DEInternal.Weighted>
0.7821

> <Gold.Chemscore.Rot.Weighted>
3.5818

> <Gold.Chemscore.Internal.Correction.Weighted>
   9.000000E+99

> <Gold.Protein.RotatedTorsions>
[ 6907 6896 6895 6894 ] final -145.07 input  -60.11 | X-H torsion
[ 7974 7965 7964 7962 ] final  -48.27 input  175.53 | X-H torsion
[ 8008 7997 7996 7995 ] final   83.84 input   59.86 | X-H torsion
[ 10167 10162 10161 10158 ] final -145.88 input  -65.29 | X-H torsion
[ 10718 10713 10712 10709 ] final  -15.67 input   66.30 | X-H torsion
[ 10763 10752 10751 10750 ] final -154.15 input  -60.55 | X-H torsion
[ 11005 11000 10999 10996 ] final -103.68 input  -57.11 | X-H torsion

> <Gold.Protein.ActiveResidues>
 VAL166  LYS551  ARG553  GLY616  TRP617  ASP618  TYR619  PRO620  LYS621  CYS622 
 ASP623  PHE694  ASN695  SER759  ASP760  ASP761  ALA762  ILE779  LEU786  VAL792 
 PHE793  MET794  SER795  GLU796  ALA797  LYS798  CYS799  TRP800  GLU811  SER814 

> <Gold.Protein.RotatedAtoms>
  151.1227  133.5093  159.2601 H   0  0  0  0  0  0  0  0  0  0  0  0  # atno 6907 bound_to 6896
  151.1844  135.0375  159.8816 H   0  0  0  0  0  0  0  0  0  0  0  0  # atno 6908 bound_to 6896
  152.5456  134.1075  159.8397 H   0  0  0  0  0  0  0  0  0  0  0  0  # atno 6909 bound_to 6896
  145.9529  140.7554  142.9495 H   0  0  0  0  0  0  0  0  0  0  0  0  # atno 7974 bound_to 7965
  155.9293  140.3416  155.6235 H   0  0  0  0  0  0  0  0  0  0  0  0  # atno 8008 bound_to 7997
  155.7178  140.0779  157.2362 H   0  0  0  0  0  0  0  0  0  0  0  0  # atno 8009 bound_to 7997
  154.4082  140.1611  156.2355 H   0  0  0  0  0  0  0  0  0  0  0  0  # atno 8010 bound_to 7997
  139.7765  143.8163  152.2632 H   0  0  0  0  0  0  0  0  0  0  0  0  # atno 10167 bound_to 10162
  156.5984  130.4817  149.6250 H   0  0  0  0  0  0  0  0  0  0  0  0  # atno 10718 bound_to 10713
  154.7879  135.3196  154.7845 H   0  0  0  0  0  0  0  0  0  0  0  0  # atno 10763 bound_to 10752
  153.8540  135.6859  153.4793 H   0  0  0  0  0  0  0  0  0  0  0  0  # atno 10764 bound_to 10752
  153.1537  135.4689  154.9613 H   0  0  0  0  0  0  0  0  0  0  0  0  # atno 10765 bound_to 10752
  141.1135  133.8660  157.1516 H   0  0  0  0  0  0  0  0  0  0  0  0  # atno 11005 bound_to 11000
  144.6799  140.2465  143.7337 LP  0  0  0  0  0  0  0  0  0  0  0  0  # atno 17320 bound_to 7965
  145.8146  139.2017  143.1973 LP  0  0  0  0  0  0  0  0  0  0  0  0  # atno 17321 bound_to 7965
  139.8213  144.7294  150.9569 LP  0  0  0  0  0  0  0  0  0  0  0  0  # atno 17342 bound_to 10162
  140.7816  143.4157  151.0922 LP  0  0  0  0  0  0  0  0  0  0  0  0  # atno 17343 bound_to 10162
  156.2490  130.6896  151.1627 LP  0  0  0  0  0  0  0  0  0  0  0  0  # atno 17370 bound_to 10713
  157.7286  131.0631  150.5814 LP  0  0  0  0  0  0  0  0  0  0  0  0  # atno 17371 bound_to 10713
  140.0043  135.0015  157.0257 LP  0  0  0  0  0  0  0  0  0  0  0  0  # atno 17394 bound_to 11000
  140.4710  134.1386  155.7203 LP  0  0  0  0  0  0  0  0  0  0  0  0  # atno 17395 bound_to 11000

$$$$
