AV-unprocessed.smi:3014|AV-procd|sdf|11469|dock3
  -GOLD-   2272016403D 1   1.00000     0.00000
 Structure written by MMmdl.
 45 46  0  0  0  0  0  0  0  0  1 V2000
  153.4248  142.6331  163.1626 C   0  0  0  0  0  0  0  0  0  0  0  0
  152.8784  142.3131  161.7638 C   0  0  1  0  0  0  0  0  0  0  0  0
  152.2745  143.5645  161.0980 C   0  0  0  0  0  0  0  0  0  0  0  0
  151.7341  143.2540  159.6935 C   0  0  0  0  0  0  0  0  0  0  0  0
  152.8194  142.6281  158.8020 C   0  0  0  0  0  0  0  0  0  0  0  0
  153.4348  141.3736  159.4466 C   0  0  2  0  0  0  0  0  0  0  0  0
  152.4278  140.3685  159.4793 O   0  0  0  0  0  0  0  0  0  0  0  0
  151.8364  140.0746  158.2193 C   0  0  0  0  0  0  0  0  0  0  0  0
  151.1939  138.6866  158.2621 C   0  0  0  0  0  0  0  0  0  0  0  0
  151.6435  137.7984  157.5382 O   0  0  0  0  0  0  0  0  0  0  0  0
  150.1478  138.5355  159.0970 N   0  0  0  0  0  0  0  0  0  0  0  0
  149.3651  137.3739  159.3240 C   0  0  0  0  0  0  0  0  0  0  0  0
  149.2281  136.4995  158.2245 C   0  0  0  0  0  0  0  0  0  0  0  0
  148.4586  135.3367  158.4219 C   0  0  0  0  0  0  0  0  0  0  0  0
  147.8766  135.0629  159.6070 N   0  0  0  0  0  0  0  0  0  0  0  0
  148.0570  135.9436  160.5989 C   0  0  0  0  0  0  0  0  0  0  0  0
  147.4578  135.6620  161.8300 N   0  0  0  0  0  0  0  0  0  0  0  0
  147.4720  136.6347  162.9187 C   0  0  0  0  0  0  0  0  0  0  0  0
  146.7989  134.3819  162.0738 C   0  0  0  0  0  0  0  0  0  0  0  0
  148.7692  137.0739  160.5039 N   0  0  0  0  0  0  0  0  0  0  0  0
  153.9649  141.6940  160.8614 C   0  0  0  0  0  0  0  0  0  0  0  0
  154.2308  143.3664  163.1165 H   0  0  0  0  0  0  0  0  0  0  0  0
  153.8164  141.7378  163.6460 H   0  0  0  0  0  0  0  0  0  0  0  0
  152.6428  143.0382  163.8054 H   0  0  0  0  0  0  0  0  0  0  0  0
  152.0816  141.5777  161.8849 H   0  0  0  0  0  0  0  0  0  0  0  0
  151.4712  143.9657  161.7169 H   0  0  0  0  0  0  0  0  0  0  0  0
  153.0309  144.3476  161.0299 H   0  0  0  0  0  0  0  0  0  0  0  0
  150.8848  142.5740  159.7712 H   0  0  0  0  0  0  0  0  0  0  0  0
  151.3562  144.1666  159.2319 H   0  0  0  0  0  0  0  0  0  0  0  0
  152.4028  142.3809  157.8251 H   0  0  0  0  0  0  0  0  0  0  0  0
  153.6048  143.3634  158.6227 H   0  0  0  0  0  0  0  0  0  0  0  0
  154.2582  141.0373  158.8142 H   0  0  0  0  0  0  0  0  0  0  0  0
  151.0661  140.8086  157.9789 H   0  0  0  0  0  0  0  0  0  0  0  0
  152.5808  140.0963  157.4234 H   0  0  0  0  0  0  0  0  0  0  0  0
  149.8908  139.3492  159.6369 H   0  0  0  0  0  0  0  0  0  0  0  0
  149.6899  136.7066  157.2702 H   0  0  0  0  0  0  0  0  0  0  0  0
  148.3105  134.6230  157.6251 H   0  0  0  0  0  0  0  0  0  0  0  0
  148.4959  136.9206  163.1620 H   0  0  0  0  0  0  0  0  0  0  0  0
  147.0148  136.2386  163.8254 H   0  0  0  0  0  0  0  0  0  0  0  0
  146.9228  137.5320  162.6316 H   0  0  0  0  0  0  0  0  0  0  0  0
  147.5207  133.5666  162.0152 H   0  0  0  0  0  0  0  0  0  0  0  0
  146.0203  134.2055  161.3310 H   0  0  0  0  0  0  0  0  0  0  0  0
  146.3312  134.3448  163.0575 H   0  0  0  0  0  0  0  0  0  0  0  0
  154.7976  142.3931  160.7740 H   0  0  0  0  0  0  0  0  0  0  0  0
  154.3788  140.8020  161.3303 H   0  0  0  0  0  0  0  0  0  0  0  0
  1  2  1  0  0  0  0
  1 22  1  0  0  0  0
  1 23  1  0  0  0  0
  1 24  1  0  0  0  0
  2 21  1  0  0  0  0
  2  3  1  0  0  0  0
  2 25  1  0  0  0  0
  3  4  1  0  0  0  0
  3 26  1  0  0  0  0
  3 27  1  0  0  0  0
  4  5  1  0  0  0  0
  4 28  1  0  0  0  0
  4 29  1  0  0  0  0
  5  6  1  0  0  0  0
  5 30  1  0  0  0  0
  5 31  1  0  0  0  0
  6  7  1  0  0  0  0
  6 21  1  0  0  0  0
  6 32  1  0  0  0  0
  7  8  1  0  0  0  0
  8  9  1  0  0  0  0
  8 33  1  0  0  0  0
  8 34  1  0  0  0  0
  9 10  2  0  0  0  0
  9 11  1  0  0  0  0
 11 12  1  0  0  0  0
 11 35  1  0  0  0  0
 12 20  1  0  0  0  0
 12 13  2  0  0  0  0
 13 14  1  0  0  0  0
 13 36  1  0  0  0  0
 14 15  2  0  0  0  0
 14 37  1  0  0  0  0
 15 16  1  0  0  0  0
 16 17  1  0  0  0  0
 16 20  2  0  0  0  0
 17 18  1  0  0  0  0
 17 19  1  0  0  0  0
 18 38  1  0  0  0  0
 18 39  1  0  0  0  0
 18 40  1  0  0  0  0
 19 41  1  0  0  0  0
 19 42  1  0  0  0  0
 19 43  1  0  0  0  0
 21 44  1  0  0  0  0
 21 45  1  0  0  0  0
M  END
> <s_m_source_file>
AV-unprocessed.smi

> <i_m_source_file_index>
3014

> <i_lp_mmshare_version>
43012

> <i_f3d_flags>
0

> <s_epik_input>
W0NIM11bQ0BASF0xW0NIMl1bQ0gyXVtDSDJdW0NASF0oW0NIMl0xKU9bQ0gyXUMoPU8pW05IXWMyW2NIXVtjSF1uYyhuMilOKFtDSDNdKVtDSDNd

> <s_epik_cmdline>
J2VwaWtfcHl0aG9uJywgJy1waCcsICc3LjAnLCAnLXRuJywgJzgnLCAnLW1hJywgJzIwMCcsICctbWV0YWxfYmluZGluZycsICctaW1hZScsICc8aW5maWxlLm1hZT4nLCAnLW9tYWUnLCAnPG91dGZpbGUubWFlPic=

> <r_lp_tautomer_probability>
1

> <r_epik_Ionization_Penalty>
0.000308195

> <r_epik_Ionization_Penalty_Charging>
0

> <r_epik_Ionization_Penalty_Neutral>
0.000308195

> <r_epik_State_Penalty>
-0

> <r_epik_Charging_Adjusted_Penalty>
0

> <i_epik_Tot_Q>
0

> <i_epik_Tot_abs_Q>
0

> <r_epik_Metal_State_Penalty>
-0

> <b_epik_Metal_Only>
0

> <s_lp_Force_Field>
OPLS_2005

> <r_lp_Energy>
6.78662

> <b_lp_Chiralities_Consistent>
1

> <s_lp_Variant>
AV-unprocessed.smi:3014-4

> <Gold.Version>
5.8.1

> <Gold.Id.Protein>
6NUR|6NUR_protein|mol2

> <Gold.PLP.Fitness>
46.6628

> <Gold.PLP.PLP>
-45.0383

> <Gold.PLP.part.hbond>
-1.0000

> <Gold.PLP.part.metal>
0.0000

> <Gold.PLP.part.buried>
-5.6522

> <Gold.PLP.part.nonpolar>
-40.3703

> <Gold.PLP.part.repulsive>
1.1197

> <Gold.PLP.ligand.clash>
0.0000

> <Gold.PLP.ligand.torsion>
0.3555

> <Gold.PLP.Chemscore.Hbond>
0.7680

> <Gold.PLP.Chemscore.CHOScore>
0.0000

> <Gold.PLP.Chemscore.Metal>
0.0000

> <Gold.Chemscore.Hbonds>
donor molecule, donor type, donor heavy atom, donor atom, acceptor molecule, acceptor atom, score
      P1  H  6931  6943       L1    20  0.74

> <Gold.PLP.Chemscore.Internal.Correction>
0.0315

> <Gold.Rescore>
     Score         DG    S(hbond)    S(metal)    S(lipo)     H(rot)  DE(clash)    DE(int)     intcor
     15.02     -16.71       0.71        0.00     107.05       1.43       0.01       1.69       ----

> <Gold.Chemscore.Fitness>
15.0211

> <Gold.Chemscore.DG>
-16.7125

> <Gold.Chemscore.ZeroCoef>
-5.4800

> <Gold.Chemscore.Hbond>
0.7099

> <Gold.Chemscore.Metal>
0.0000

> <Gold.Chemscore.Lipo>
107.0497

> <Gold.Chemscore.Internal_Hbond>
0.0000

> <Gold.Chemscore.DEClash>
0.0059

> <Gold.Chemscore.DEInternal>
1.6856

> <Gold.Chemscore.Rot>
1.4310

> <Gold.Chemscore.Internal.Correction>
   9.000000E+99

> <Gold.Chemscore.Hbonds>
donor molecule, donor type, donor heavy atom, donor atom, acceptor molecule, acceptor atom, score
      P1  H  6931  6943       L1    20  0.66

> <Gold.Chemscore.Hbond.Weighted>
-2.3710

> <Gold.Chemscore.Metal.Weighted>
-0.0000

> <Gold.Chemscore.Lipo.Weighted>
-12.5248

> <Gold.Chemscore.Internal_Hbond.Weighted>
0.0000

> <Gold.Chemscore.DEClash.Weighted>
0.0059

> <Gold.Chemscore.DEInternal.Weighted>
1.6856

> <Gold.Chemscore.Rot.Weighted>
3.6632

> <Gold.Chemscore.Internal.Correction.Weighted>
   9.000000E+99

> <Gold.Protein.RotatedTorsions>
[ 6907 6896 6895 6894 ] final -120.99 input  -60.11 | X-H torsion
[ 7974 7965 7964 7962 ] final  -90.57 input  175.53 | X-H torsion
[ 8008 7997 7996 7995 ] final   -1.20 input   59.86 | X-H torsion
[ 10167 10162 10161 10158 ] final   91.54 input  -65.29 | X-H torsion
[ 10718 10713 10712 10709 ] final  -43.75 input   66.30 | X-H torsion
[ 10763 10752 10751 10750 ] final   97.19 input  -60.55 | X-H torsion
[ 11005 11000 10999 10996 ] final  144.63 input  -57.11 | X-H torsion

> <Gold.Protein.ActiveResidues>
 VAL166  LYS551  ARG553  GLY616  TRP617  ASP618  TYR619  PRO620  LYS621  CYS622 
 ASP623  PHE694  ASN695  SER759  ASP760  ASP761  ALA762  ILE779  LEU786  VAL792 
 PHE793  MET794  SER795  GLU796  ALA797  LYS798  CYS799  TRP800  GLU811  SER814 

> <Gold.Protein.RotatedAtoms>
  150.8443  133.7887  159.3048 H   0  0  0  0  0  0  0  0  0  0  0  0  # atno 6907 bound_to 6896
  151.5579  135.1064  159.9975 H   0  0  0  0  0  0  0  0  0  0  0  0  # atno 6908 bound_to 6896
  152.4500  133.7568  159.6780 H   0  0  0  0  0  0  0  0  0  0  0  0  # atno 6909 bound_to 6896
  145.4247  140.9553  143.2161 H   0  0  0  0  0  0  0  0  0  0  0  0  # atno 7974 bound_to 7965
  154.6494  140.2565  155.7231 H   0  0  0  0  0  0  0  0  0  0  0  0  # atno 8008 bound_to 7997
  156.2568  140.2871  156.0843 H   0  0  0  0  0  0  0  0  0  0  0  0  # atno 8009 bound_to 7997
  155.1474  140.0381  157.2803 H   0  0  0  0  0  0  0  0  0  0  0  0  # atno 8010 bound_to 7997
  139.8365  144.6662  150.9336 H   0  0  0  0  0  0  0  0  0  0  0  0  # atno 10167 bound_to 10162
  156.2458  130.4183  149.8707 H   0  0  0  0  0  0  0  0  0  0  0  0  # atno 10718 bound_to 10713
  153.2739  135.4192  155.1014 H   0  0  0  0  0  0  0  0  0  0  0  0  # atno 10763 bound_to 10752
  154.8466  135.3479  154.6206 H   0  0  0  0  0  0  0  0  0  0  0  0  # atno 10764 bound_to 10752
  153.6626  135.7047  153.5230 H   0  0  0  0  0  0  0  0  0  0  0  0  # atno 10765 bound_to 10752
  140.0648  134.9185  157.1245 H   0  0  0  0  0  0  0  0  0  0  0  0  # atno 11005 bound_to 11000
  144.8222  139.5772  143.6981 LP  0  0  0  0  0  0  0  0  0  0  0  0  # atno 17320 bound_to 7965
  146.2638  139.6472  142.9343 LP  0  0  0  0  0  0  0  0  0  0  0  0  # atno 17321 bound_to 7965
  140.7802  143.3952  151.1242 LP  0  0  0  0  0  0  0  0  0  0  0  0  # atno 17342 bound_to 10162
  139.7602  143.8647  152.3098 LP  0  0  0  0  0  0  0  0  0  0  0  0  # atno 17343 bound_to 10162
  156.6273  130.8651  151.3488 LP  0  0  0  0  0  0  0  0  0  0  0  0  # atno 17370 bound_to 10713
  157.7194  130.9539  150.1380 LP  0  0  0  0  0  0  0  0  0  0  0  0  # atno 17371 bound_to 10713
  140.3716  134.2384  155.7177 LP  0  0  0  0  0  0  0  0  0  0  0  0  # atno 17394 bound_to 11000
  141.1988  133.8027  157.0566 LP  0  0  0  0  0  0  0  0  0  0  0  0  # atno 17395 bound_to 11000

$$$$
