AV-unprocessed.smi:919|AV-procd|sdf|4165|dock10
  -GOLD-   22720 2 73D 1   1.00000     0.00000
 Structure written by MMmdl.
 43 45  0  0  0  0  0  0  0  0  1 V2000
  149.3619  141.7999  156.6366 C   0  0  0  0  0  0  0  0  0  0  0  0
  150.4546  140.8853  156.1625 C   0  0  0  0  0  0  0  0  0  0  0  0
  151.6218  140.8993  156.7840 N   0  0  0  0  0  0  0  0  0  0  0  0
  152.4156  139.9503  156.1325 O   0  0  0  0  0  0  0  0  0  0  0  0
  151.6849  139.3942  155.1330 C   0  0  0  0  0  0  0  0  0  0  0  0
  152.3526  138.3412  154.3149 C   0  0  0  0  0  0  0  0  0  0  0  0
  150.4337  139.9435  155.0936 C   0  0  0  0  0  0  0  0  0  0  0  0
  149.3052  139.6196  154.1528 C   0  0  0  0  0  0  0  0  0  0  0  0
  148.3247  138.6173  154.7810 C   0  0  0  0  0  0  0  0  0  0  0  0
  147.8462  137.6502  153.8014 N   0  0  0  0  0  0  0  0  0  0  0  0
  146.5592  137.3091  153.6201 C   0  0  0  0  0  0  0  0  0  0  0  0
  145.6340  137.7779  154.2807 O   0  0  0  0  0  0  0  0  0  0  0  0
  146.3494  136.4082  152.6443 N   0  0  0  0  0  0  0  0  0  0  0  0
  145.0726  135.8385  152.2054 C   0  0  1  0  0  0  0  0  0  0  0  0
  145.0056  135.7446  150.6647 C   0  0  0  0  0  0  0  0  0  0  0  0
  144.7593  134.2451  150.4155 C   0  0  1  0  0  0  0  0  0  0  0  0
  146.0378  133.4497  150.7419 C   0  0  0  0  0  0  0  0  0  0  0  0
  146.0813  133.4906  152.2809 C   0  0  0  0  0  0  0  0  0  0  0  0
  144.8554  134.3619  152.6294 C   0  0  2  0  0  0  0  0  0  0  0  0
  143.8533  133.8830  151.5843 C   0  0  0  0  0  0  0  0  0  0  0  0
  148.5249  141.8197  155.9391 H   0  0  0  0  0  0  0  0  0  0  0  0
  149.7237  142.8227  156.7450 H   0  0  0  0  0  0  0  0  0  0  0  0
  148.9773  141.4782  157.6047 H   0  0  0  0  0  0  0  0  0  0  0  0
  151.7293  137.4488  154.2544 H   0  0  0  0  0  0  0  0  0  0  0  0
  153.3115  138.0541  154.7470 H   0  0  0  0  0  0  0  0  0  0  0  0
  152.5307  138.6970  153.3002 H   0  0  0  0  0  0  0  0  0  0  0  0
  148.7669  140.5241  153.8684 H   0  0  0  0  0  0  0  0  0  0  0  0
  149.6971  139.2096  153.2211 H   0  0  0  0  0  0  0  0  0  0  0  0
  148.7926  138.0979  155.6194 H   0  0  0  0  0  0  0  0  0  0  0  0
  147.4611  139.1451  155.1868 H   0  0  0  0  0  0  0  0  0  0  0  0
  148.5400  137.2161  153.2104 H   0  0  0  0  0  0  0  0  0  0  0  0
  147.1668  136.0867  152.1460 H   0  0  0  0  0  0  0  0  0  0  0  0
  144.2483  136.4598  152.5605 H   0  0  0  0  0  0  0  0  0  0  0  0
  144.1733  136.3388  150.2848 H   0  0  0  0  0  0  0  0  0  0  0  0
  145.9116  136.0957  150.1685 H   0  0  0  0  0  0  0  0  0  0  0  0
  144.3489  134.0283  149.4288 H   0  0  0  0  0  0  0  0  0  0  0  0
  145.9604  132.4207  150.3885 H   0  0  0  0  0  0  0  0  0  0  0  0
  146.9253  133.8937  150.2893 H   0  0  0  0  0  0  0  0  0  0  0  0
  145.9603  132.4862  152.6886 H   0  0  0  0  0  0  0  0  0  0  0  0
  147.0224  133.8830  152.6661 H   0  0  0  0  0  0  0  0  0  0  0  0
  144.5219  134.2472  153.6610 H   0  0  0  0  0  0  0  0  0  0  0  0
  142.9158  134.4417  151.5947 H   0  0  0  0  0  0  0  0  0  0  0  0
  143.6343  132.8157  151.6485 H   0  0  0  0  0  0  0  0  0  0  0  0
  1  2  1  0  0  0  0
  1 21  1  0  0  0  0
  1 22  1  0  0  0  0
  1 23  1  0  0  0  0
  2  7  1  0  0  0  0
  2  3  2  0  0  0  0
  3  4  1  0  0  0  0
  4  5  1  0  0  0  0
  5  6  1  0  0  0  0
  5  7  2  0  0  0  0
  6 24  1  0  0  0  0
  6 25  1  0  0  0  0
  6 26  1  0  0  0  0
  7  8  1  0  0  0  0
  8  9  1  0  0  0  0
  8 27  1  0  0  0  0
  8 28  1  0  0  0  0
  9 10  1  0  0  0  0
  9 29  1  0  0  0  0
  9 30  1  0  0  0  0
 10 11  1  0  0  0  0
 10 31  1  0  0  0  0
 11 12  2  0  0  0  0
 11 13  1  0  0  0  0
 13 14  1  0  0  0  0
 13 32  1  0  0  0  0
 14 19  1  0  0  0  0
 14 15  1  0  0  0  0
 14 33  1  0  0  0  0
 15 16  1  0  0  0  0
 15 34  1  0  0  0  0
 15 35  1  0  0  0  0
 16 20  1  0  0  0  0
 16 17  1  0  0  0  0
 16 36  1  0  0  0  0
 17 18  1  0  0  0  0
 17 37  1  0  0  0  0
 17 38  1  0  0  0  0
 18 19  1  0  0  0  0
 18 39  1  0  0  0  0
 18 40  1  0  0  0  0
 19 20  1  0  0  0  0
 19 41  1  0  0  0  0
 20 42  1  0  0  0  0
 20 43  1  0  0  0  0
M  END
> <s_m_source_file>
AV-unprocessed.smi

> <i_m_source_file_index>
919

> <i_lp_mmshare_version>
43012

> <i_f3d_flags>
0

> <s_epik_input>
W0NIM11jMW5vYyhbQ0gzXSljMVtDSDJdW0NIMl1bTkhdQyg9TylbTkhdW0NASF0oW0NIMl1bQ0BASF0yMylbQ0BASF0oW0NIMl0zKVtDSDJdW0NIMl0y

> <s_epik_cmdline>
J2VwaWtfcHl0aG9uJywgJy1waCcsICc3LjAnLCAnLXRuJywgJzgnLCAnLW1hJywgJzIwMCcsICctbWV0YWxfYmluZGluZycsICctaW1hZScsICc8aW5maWxlLm1hZT4nLCAnLW9tYWUnLCAnPG91dGZpbGUubWFlPic=

> <r_lp_tautomer_probability>
1

> <r_epik_Ionization_Penalty>
6.40771e-05

> <r_epik_Ionization_Penalty_Charging>
0

> <r_epik_Ionization_Penalty_Neutral>
6.40771e-05

> <r_epik_State_Penalty>
-0

> <r_epik_Charging_Adjusted_Penalty>
0

> <i_epik_Tot_Q>
0

> <i_epik_Tot_abs_Q>
0

> <r_epik_Metal_State_Penalty>
-0

> <b_epik_Metal_Only>
0

> <s_lp_Force_Field>
OPLS_2005

> <r_lp_Energy>
47.6346

> <b_lp_Chiralities_Consistent>
1

> <s_lp_Variant>
AV-unprocessed.smi:919-2

> <Gold.Version>
5.8.1

> <Gold.Id.Protein>
6NUR|6NUR_protein|mol2

> <Gold.PLP.Fitness>
40.4188

> <Gold.PLP.PLP>
-33.1245

> <Gold.PLP.part.hbond>
-3.0000

> <Gold.PLP.part.metal>
0.0000

> <Gold.PLP.part.buried>
-2.1957

> <Gold.PLP.part.nonpolar>
-26.8218

> <Gold.PLP.part.repulsive>
0.1010

> <Gold.PLP.ligand.clash>
0.0000

> <Gold.PLP.ligand.torsion>
0.8619

> <Gold.PLP.Chemscore.Hbond>
3.0000

> <Gold.PLP.Chemscore.CHOScore>
0.0000

> <Gold.PLP.Chemscore.Metal>
0.0000

> <Gold.Chemscore.Hbonds>
donor molecule, donor type, donor heavy atom, donor atom, acceptor molecule, acceptor atom, score
      L1  H    10    31       P1  7948  1.00
      L1  H    13    32       P1  7948  0.99
      P1  H  7997  8010       L1     4  1.00

> <Gold.PLP.Chemscore.Internal.Correction>
0.0181

> <Gold.Rescore>
     Score         DG    S(hbond)    S(metal)    S(lipo)     H(rot)  DE(clash)    DE(int)     intcor
     19.77     -20.73       2.83        0.00      82.82       1.52       0.22       0.74       ----

> <Gold.Chemscore.Fitness>
19.7679

> <Gold.Chemscore.DG>
-20.7254

> <Gold.Chemscore.ZeroCoef>
-5.4800

> <Gold.Chemscore.Hbond>
2.8255

> <Gold.Chemscore.Metal>
0.0000

> <Gold.Chemscore.Lipo>
82.8165

> <Gold.Chemscore.Internal_Hbond>
0.0000

> <Gold.Chemscore.DEClash>
0.2208

> <Gold.Chemscore.DEInternal>
0.7367

> <Gold.Chemscore.Rot>
1.5161

> <Gold.Chemscore.Internal.Correction>
   9.000000E+99

> <Gold.Chemscore.Hbonds>
donor molecule, donor type, donor heavy atom, donor atom, acceptor molecule, acceptor atom, score
      L1  H    10    31       P1  7948  0.95
      L1  H    13    32       P1  7948  0.93
      P1  H  7997  8010       L1     4  0.88

> <Gold.Chemscore.Hbond.Weighted>
-9.4372

> <Gold.Chemscore.Metal.Weighted>
-0.0000

> <Gold.Chemscore.Lipo.Weighted>
-9.6895

> <Gold.Chemscore.Internal_Hbond.Weighted>
0.0000

> <Gold.Chemscore.DEClash.Weighted>
0.2208

> <Gold.Chemscore.DEInternal.Weighted>
0.7367

> <Gold.Chemscore.Rot.Weighted>
3.8813

> <Gold.Chemscore.Internal.Correction.Weighted>
   9.000000E+99

> <Gold.Protein.RotatedTorsions>
[ 6907 6896 6895 6894 ] final   94.43 input  -60.11 | X-H torsion
[ 7974 7965 7964 7962 ] final   42.44 input  175.53 | X-H torsion
[ 8008 7997 7996 7995 ] final   68.52 input   59.86 | X-H torsion
[ 10167 10162 10161 10158 ] final  -76.26 input  -65.29 | X-H torsion
[ 10718 10713 10712 10709 ] final -139.08 input   66.30 | X-H torsion
[ 10763 10752 10751 10750 ] final   10.57 input  -60.55 | X-H torsion
[ 11005 11000 10999 10996 ] final  135.20 input  -57.11 | X-H torsion

> <Gold.Protein.ActiveResidues>
 VAL166  LYS551  ARG553  GLY616  TRP617  ASP618  TYR619  PRO620  LYS621  CYS622 
 ASP623  PHE694  ASN695  SER759  ASP760  ASP761  ALA762  ILE779  LEU786  VAL792 
 PHE793  MET794  SER795  GLU796  ALA797  LYS798  CYS799  TRP800  GLU811  SER814 

> <Gold.Protein.RotatedAtoms>
  152.5449  134.1195  159.8392 H   0  0  0  0  0  0  0  0  0  0  0  0  # atno 6907 bound_to 6896
  151.1252  133.5068  159.2608 H   0  0  0  0  0  0  0  0  0  0  0  0  # atno 6908 bound_to 6896
  151.1735  135.0338  159.8816 H   0  0  0  0  0  0  0  0  0  0  0  0  # atno 6909 bound_to 6896
  146.0740  139.5300  142.9579 H   0  0  0  0  0  0  0  0  0  0  0  0  # atno 7974 bound_to 7965
  155.7096  140.3494  155.4968 H   0  0  0  0  0  0  0  0  0  0  0  0  # atno 8008 bound_to 7997
  155.9367  140.1094  157.1110 H   0  0  0  0  0  0  0  0  0  0  0  0  # atno 8009 bound_to 7997
  154.4095  140.1220  156.4860 H   0  0  0  0  0  0  0  0  0  0  0  0  # atno 8010 bound_to 7997
  140.4872  143.2388  151.7965 H   0  0  0  0  0  0  0  0  0  0  0  0  # atno 10167 bound_to 10162
  156.3066  130.7459  151.1524 H   0  0  0  0  0  0  0  0  0  0  0  0  # atno 10718 bound_to 10713
  153.2018  135.6857  153.8221 H   0  0  0  0  0  0  0  0  0  0  0  0  # atno 10763 bound_to 10752
  153.7485  135.3227  155.3318 H   0  0  0  0  0  0  0  0  0  0  0  0  # atno 10764 bound_to 10752
  154.8175  135.4675  154.0788 H   0  0  0  0  0  0  0  0  0  0  0  0  # atno 10765 bound_to 10752
  139.9964  134.9496  156.9973 H   0  0  0  0  0  0  0  0  0  0  0  0  # atno 11005 bound_to 11000
  145.6340  141.0298  143.1848 LP  0  0  0  0  0  0  0  0  0  0  0  0  # atno 17320 bound_to 7965
  144.7250  139.7906  143.7368 LP  0  0  0  0  0  0  0  0  0  0  0  0  # atno 17321 bound_to 7965
  139.4844  144.4696  151.9441 LP  0  0  0  0  0  0  0  0  0  0  0  0  # atno 17342 bound_to 10162
  140.3782  144.2769  150.5911 LP  0  0  0  0  0  0  0  0  0  0  0  0  # atno 17343 bound_to 10162
  157.7381  131.0544  150.5315 LP  0  0  0  0  0  0  0  0  0  0  0  0  # atno 17370 bound_to 10713
  156.5449  130.4217  149.6136 LP  0  0  0  0  0  0  0  0  0  0  0  0  # atno 17371 bound_to 10713
  140.4810  134.1289  155.7217 LP  0  0  0  0  0  0  0  0  0  0  0  0  # atno 17394 bound_to 11000
  141.1607  133.8797  157.1854 LP  0  0  0  0  0  0  0  0  0  0  0  0  # atno 17395 bound_to 11000

$$$$
