AV-unprocessed.smi:2955|AV-procd|sdf|11304|dock2
  -GOLD-   2272016203D 1   1.00000     0.00000
 Structure written by MMmdl.
 46 48  0  0  0  0  0  0  0  0  2 V2000
  152.7685  141.7521  162.1315 C   0  0  0  0  0  0  0  0  0  0  0  0
  152.2190  142.5937  160.9978 C   0  0  0  0  0  0  0  0  0  0  0  0
  152.2688  143.9997  161.0721 C   0  0  0  0  0  0  0  0  0  0  0  0
  151.7573  144.7774  160.0172 C   0  0  0  0  0  0  0  0  0  0  0  0
  151.1970  144.1512  158.8880 C   0  0  0  0  0  0  0  0  0  0  0  0
  151.1418  142.7455  158.7958 C   0  0  0  0  0  0  0  0  0  0  0  0
  150.5771  142.2170  157.6555 O   0  0  0  0  0  0  0  0  0  0  0  0
  150.5892  140.8053  157.4867 C   0  0  0  0  0  0  0  0  0  0  0  0
  151.3075  140.4615  156.1745 C   0  0  0  0  0  0  0  0  0  0  0  0
  150.4023  139.8509  155.1888 N   0  0  0  0  0  0  0  0  0  0  0  0
  150.4877  138.6639  154.5184 C   0  0  0  0  0  0  0  0  0  0  0  0
  151.5869  137.6454  154.6120 C   0  0  1  0  0  0  0  0  0  0  0  0
  152.9661  138.3196  154.5808 C   0  0  0  0  0  0  0  0  0  0  0  0
  151.4635  136.8307  155.8141 N   0  0  0  0  0  0  0  0  0  0  0  0
  150.9153  135.6096  155.8405 C   0  0  0  0  0  0  0  0  0  0  0  0
  150.4639  135.0546  154.8424 O   0  0  0  0  0  0  0  0  0  0  0  0
  149.3917  138.5816  153.7103 N   0  3  0  0  0  0  0  0  0  0  0  0
  148.5895  139.7093  153.8810 C   0  0  0  0  0  0  0  0  0  0  0  0
  147.3821  140.0665  153.2888 C   0  0  0  0  0  0  0  0  0  0  0  0
  146.8190  141.2950  153.6916 C   0  0  0  0  0  0  0  0  0  0  0  0
  147.4530  142.1146  154.6480 C   0  0  0  0  0  0  0  0  0  0  0  0
  148.6778  141.7421  155.2403 C   0  0  0  0  0  0  0  0  0  0  0  0
  149.2295  140.5271  154.8341 C   0  0  0  0  0  0  0  0  0  0  0  0
  151.6603  141.9692  159.8632 C   0  0  0  0  0  0  0  0  0  0  0  0
  152.7897  142.3160  163.0646 H   0  0  0  0  0  0  0  0  0  0  0  0
  153.7841  141.4289  161.9025 H   0  0  0  0  0  0  0  0  0  0  0  0
  152.1522  140.8662  162.2876 H   0  0  0  0  0  0  0  0  0  0  0  0
  152.6977  144.4856  161.9364 H   0  0  0  0  0  0  0  0  0  0  0  0
  151.7940  145.8552  160.0744 H   0  0  0  0  0  0  0  0  0  0  0  0
  150.8043  144.7571  158.0849 H   0  0  0  0  0  0  0  0  0  0  0  0
  151.1029  140.3299  158.3237 H   0  0  0  0  0  0  0  0  0  0  0  0
  149.5696  140.4190  157.4515 H   0  0  0  0  0  0  0  0  0  0  0  0
  151.7689  141.3472  155.7377 H   0  0  0  0  0  0  0  0  0  0  0  0
  152.1217  139.7621  156.3633 H   0  0  0  0  0  0  0  0  0  0  0  0
  151.5305  136.9838  153.7469 H   0  0  0  0  0  0  0  0  0  0  0  0
  153.0896  138.9132  153.6744 H   0  0  0  0  0  0  0  0  0  0  0  0
  153.7652  137.5778  154.5982 H   0  0  0  0  0  0  0  0  0  0  0  0
  153.1110  138.9826  155.4344 H   0  0  0  0  0  0  0  0  0  0  0  0
  151.8222  137.2143  156.6765 H   0  0  0  0  0  0  0  0  0  0  0  0
  150.9255  135.1754  156.8523 H   0  0  0  0  0  0  0  0  0  0  0  0
  146.8938  139.4390  152.5576 H   0  0  0  0  0  0  0  0  0  0  0  0
  145.8815  141.6146  153.2597 H   0  0  0  0  0  0  0  0  0  0  0  0
  146.9907  143.0485  154.9333 H   0  0  0  0  0  0  0  0  0  0  0  0
  149.1525  142.3765  155.9737 H   0  0  0  0  0  0  0  0  0  0  0  0
  151.6389  140.8904  159.8338 H   0  0  0  0  0  0  0  0  0  0  0  0
  149.2075  137.8036  153.0902 H   0  0  0  0  0  0  0  0  0  0  0  0
  1  2  1  0  0  0  0
  1 25  1  0  0  0  0
  1 26  1  0  0  0  0
  1 27  1  0  0  0  0
  2 24  1  0  0  0  0
  2  3  2  0  0  0  0
  3  4  1  0  0  0  0
  3 28  1  0  0  0  0
  4  5  2  0  0  0  0
  4 29  1  0  0  0  0
  5  6  1  0  0  0  0
  5 30  1  0  0  0  0
  6  7  1  0  0  0  0
  6 24  2  0  0  0  0
  7  8  1  0  0  0  0
  8  9  1  0  0  0  0
  8 31  1  0  0  0  0
  8 32  1  0  0  0  0
  9 10  1  0  0  0  0
  9 33  1  0  0  0  0
  9 34  1  0  0  0  0
 10 23  1  0  0  0  0
 10 11  1  0  0  0  0
 11 12  1  0  0  0  0
 11 17  2  0  0  0  0
 12 13  1  0  0  0  0
 12 14  1  0  0  0  0
 12 35  1  0  0  0  0
 13 36  1  0  0  0  0
 13 37  1  0  0  0  0
 13 38  1  0  0  0  0
 14 15  1  0  0  0  0
 14 39  1  0  0  0  0
 15 16  2  0  0  0  0
 15 40  1  0  0  0  0
 17 18  1  0  0  0  0
 17 46  1  0  0  0  0
 18 23  2  0  0  0  0
 18 19  1  0  0  0  0
 19 20  2  0  0  0  0
 19 41  1  0  0  0  0
 20 21  1  0  0  0  0
 20 42  1  0  0  0  0
 21 22  2  0  0  0  0
 21 43  1  0  0  0  0
 22 23  1  0  0  0  0
 22 44  1  0  0  0  0
 24 45  1  0  0  0  0
M  CHG  1  17   1
M  END
> <s_m_source_file>
AV-unprocessed.smi

> <i_m_source_file_index>
2955

> <i_lp_mmshare_version>
43012

> <i_f3d_flags>
0

> <s_epik_input>
W0NIM11jMVtjSF1bY0hdW2NIXWMoW2NIXTEpT1tDSDJdW0NIMl1uKGMobjIpW0NASF0oW0NIM10pW05IXVtDSF09TyljKGMyMylbY0hdW2NIXVtjSF1bY0hdMw==

> <s_epik_cmdline>
J2VwaWtfcHl0aG9uJywgJy1waCcsICc3LjAnLCAnLXRuJywgJzgnLCAnLW1hJywgJzIwMCcsICctbWV0YWxfYmluZGluZycsICctaW1hZScsICc8aW5maWxlLm1hZT4nLCAnLW9tYWUnLCAnPG91dGZpbGUubWFlPic=

> <r_lp_tautomer_probability>
1

> <r_epik_Ionization_Penalty>
1.15027

> <r_epik_Ionization_Penalty_Charging>
1.15027

> <r_epik_Ionization_Penalty_Neutral>
5.5802e-08

> <r_epik_State_Penalty>
1.21159

> <r_epik_Charging_Adjusted_Penalty>
2.36186

> <i_epik_Tot_Q>
1

> <i_epik_Tot_abs_Q>
1

> <r_epik_Metal_State_Penalty>
1.29223

> <b_epik_Metal_Only>
0

> <s_lp_Force_Field>
OPLS_2005

> <r_lp_Energy>
16.9999

> <b_lp_Chiralities_Consistent>
1

> <s_lp_Variant>
AV-unprocessed.smi:2955-4

> <Gold.Version>
5.8.1

> <Gold.Id.Protein>
6NUR|6NUR_protein|mol2

> <Gold.PLP.Fitness>
58.8040

> <Gold.PLP.PLP>
-55.6518

> <Gold.PLP.part.hbond>
-2.0000

> <Gold.PLP.part.metal>
0.0000

> <Gold.PLP.part.buried>
-0.7250

> <Gold.PLP.part.nonpolar>
-53.5433

> <Gold.PLP.part.repulsive>
0.4297

> <Gold.PLP.ligand.clash>
0.0000

> <Gold.PLP.ligand.torsion>
1.4813

> <Gold.PLP.Chemscore.Hbond>
2.0000

> <Gold.PLP.Chemscore.CHOScore>
0.0000

> <Gold.PLP.Chemscore.Metal>
0.0000

> <Gold.Chemscore.Hbonds>
donor molecule, donor type, donor heavy atom, donor atom, acceptor molecule, acceptor atom, score
      L1  H    17    46       P1  7948  2.00

> <Gold.PLP.Chemscore.Internal.Correction>
0.1148

> <Gold.Rescore>
     Score         DG    S(hbond)    S(metal)    S(lipo)     H(rot)  DE(clash)    DE(int)     intcor
     17.23     -20.40       0.96        0.00     150.81       2.32       1.18       2.00       ----

> <Gold.Chemscore.Fitness>
17.2279

> <Gold.Chemscore.DG>
-20.4030

> <Gold.Chemscore.ZeroCoef>
-5.4800

> <Gold.Chemscore.Hbond>
0.9649

> <Gold.Chemscore.Metal>
0.0000

> <Gold.Chemscore.Lipo>
150.8134

> <Gold.Chemscore.Internal_Hbond>
0.0000

> <Gold.Chemscore.DEClash>
1.1781

> <Gold.Chemscore.DEInternal>
1.9969

> <Gold.Chemscore.Rot>
2.3223

> <Gold.Chemscore.Internal.Correction>
   9.000000E+99

> <Gold.Chemscore.Hbonds>
donor molecule, donor type, donor heavy atom, donor atom, acceptor molecule, acceptor atom, score
      L1  H    17    46       P1  7948  0.96

> <Gold.Chemscore.Hbond.Weighted>
-3.2228

> <Gold.Chemscore.Metal.Weighted>
-0.0000

> <Gold.Chemscore.Lipo.Weighted>
-17.6452

> <Gold.Chemscore.Internal_Hbond.Weighted>
0.0000

> <Gold.Chemscore.DEClash.Weighted>
1.1781

> <Gold.Chemscore.DEInternal.Weighted>
1.9969

> <Gold.Chemscore.Rot.Weighted>
5.9450

> <Gold.Chemscore.Internal.Correction.Weighted>
   9.000000E+99

> <Gold.Protein.RotatedTorsions>
[ 6907 6896 6895 6894 ] final  -79.68 input  -60.11 | X-H torsion
[ 7974 7965 7964 7962 ] final   -7.87 input  175.53 | X-H torsion
[ 8008 7997 7996 7995 ] final  -72.49 input   59.86 | X-H torsion
[ 10167 10162 10161 10158 ] final -122.64 input  -65.29 | X-H torsion
[ 10718 10713 10712 10709 ] final -168.59 input   66.30 | X-H torsion
[ 10763 10752 10751 10750 ] final -138.31 input  -60.55 | X-H torsion
[ 11005 11000 10999 10996 ] final  -52.81 input  -57.11 | X-H torsion

> <Gold.Protein.ActiveResidues>
 VAL166  LYS551  ARG553  GLY616  TRP617  ASP618  TYR619  PRO620  LYS621  CYS622 
 ASP623  PHE694  ASN695  SER759  ASP760  ASP761  ALA762  ILE779  LEU786  VAL792 
 PHE793  MET794  SER795  GLU796  ALA797  LYS798  CYS799  TRP800  GLU811  SER814 

> <Gold.Protein.RotatedAtoms>
  150.6944  134.4084  159.5150 H   0  0  0  0  0  0  0  0  0  0  0  0  # atno 6907 bound_to 6896
  152.1846  134.8722  160.0532 H   0  0  0  0  0  0  0  0  0  0  0  0  # atno 6908 bound_to 6896
  151.9699  133.3687  159.4104 H   0  0  0  0  0  0  0  0  0  0  0  0  # atno 6909 bound_to 6896
  146.2295  140.2384  142.8342 H   0  0  0  0  0  0  0  0  0  0  0  0  # atno 7974 bound_to 7965
  154.5170  140.0796  156.8100 H   0  0  0  0  0  0  0  0  0  0  0  0  # atno 8008 bound_to 7997
  155.3659  140.3420  155.4224 H   0  0  0  0  0  0  0  0  0  0  0  0  # atno 8009 bound_to 7997
  156.1639  140.1597  156.8553 H   0  0  0  0  0  0  0  0  0  0  0  0  # atno 8010 bound_to 7997
  140.0121  143.5431  152.2258 H   0  0  0  0  0  0  0  0  0  0  0  0  # atno 10167 bound_to 10162
  156.6991  130.9189  151.3078 H   0  0  0  0  0  0  0  0  0  0  0  0  # atno 10718 bound_to 10713
  154.8640  135.3616  154.5364 H   0  0  0  0  0  0  0  0  0  0  0  0  # atno 10763 bound_to 10752
  153.5988  135.7013  153.5398 H   0  0  0  0  0  0  0  0  0  0  0  0  # atno 10764 bound_to 10752
  153.3309  135.4124  155.1456 H   0  0  0  0  0  0  0  0  0  0  0  0  # atno 10765 bound_to 10752
  141.0944  133.6627  156.4079 H   0  0  0  0  0  0  0  0  0  0  0  0  # atno 11005 bound_to 11000
  144.9503  140.8171  143.5576 LP  0  0  0  0  0  0  0  0  0  0  0  0  # atno 17320 bound_to 7965
  145.2344  139.2100  143.5025 LP  0  0  0  0  0  0  0  0  0  0  0  0  # atno 17321 bound_to 7965
  139.6198  144.7627  151.2766 LP  0  0  0  0  0  0  0  0  0  0  0  0  # atno 17342 bound_to 10162
  140.7377  143.6670  150.8115 LP  0  0  0  0  0  0  0  0  0  0  0  0  # atno 17343 bound_to 10162
  157.6980  130.9302  150.0700 LP  0  0  0  0  0  0  0  0  0  0  0  0  # atno 17370 bound_to 10713
  156.1741  130.3647  149.9124 LP  0  0  0  0  0  0  0  0  0  0  0  0  # atno 17371 bound_to 10713
  140.5176  134.6335  157.5307 LP  0  0  0  0  0  0  0  0  0  0  0  0  # atno 17394 bound_to 11000
  139.9777  134.7189  155.9919 LP  0  0  0  0  0  0  0  0  0  0  0  0  # atno 17395 bound_to 11000

$$$$
