AV-unprocessed.smi:2375|AV-procd|sdf|9442|dock4
  -GOLD-   2272013 73D 1   1.00000     0.00000
 Structure written by MMmdl.
 37 38  0  0  0  0  0  0  0  0  1 V2000
  143.9938  144.8916  155.1464 C   0  0  0  0  0  0  0  0  0  0  0  0
  144.9160  143.7234  155.0597 C   0  0  0  0  0  0  0  0  0  0  0  0
  145.0888  142.7183  155.9790 C   0  0  0  0  0  0  0  0  0  0  0  0
  146.0403  141.7679  155.6035 N   0  0  0  0  0  0  0  0  0  0  0  0
  146.5950  142.0405  154.4189 C   0  0  0  0  0  0  0  0  0  0  0  0
  147.6761  141.2118  153.7940 C   0  0  2  0  0  0  0  0  0  0  0  0
  147.1069  140.0329  152.9915 C   0  0  0  0  0  0  0  0  0  0  0  0
  148.7724  140.7855  154.7931 C   0  0  0  0  0  0  0  0  0  0  0  0
  149.3139  141.9254  155.5301 N   0  0  0  0  0  0  0  0  0  0  0  0
  150.4629  141.9361  156.2285 C   0  0  0  0  0  0  0  0  0  0  0  0
  151.2408  140.9852  156.2763 O   0  0  0  0  0  0  0  0  0  0  0  0
  150.7067  143.0825  156.8878 N   0  0  0  0  0  0  0  0  0  0  0  0
  151.8587  143.4092  157.7292 C   0  0  0  0  0  0  0  0  0  0  0  0
  152.0406  142.3851  158.8755 C   0  0  0  0  0  0  0  0  0  0  0  0
  152.3264  143.2438  160.0779 C   0  0  0  0  0  0  0  0  0  0  0  0
  152.1632  144.5409  159.8256 C   0  0  0  0  0  0  0  0  0  0  0  0
  151.7356  144.7984  158.4068 C   0  0  0  0  0  0  0  0  0  0  0  0
  145.9517  143.5000  153.6751 S   0  0  0  0  0  0  0  0  0  0  0  0
  143.3780  144.8405  156.0448 H   0  0  0  0  0  0  0  0  0  0  0  0
  143.3285  144.9244  154.2836 H   0  0  0  0  0  0  0  0  0  0  0  0
  144.5560  145.8251  155.1761 H   0  0  0  0  0  0  0  0  0  0  0  0
  144.5808  142.6026  156.9249 H   0  0  0  0  0  0  0  0  0  0  0  0
  148.1650  141.8612  153.0665 H   0  0  0  0  0  0  0  0  0  0  0  0
  146.4077  140.3785  152.2294 H   0  0  0  0  0  0  0  0  0  0  0  0
  146.5765  139.3333  153.6383 H   0  0  0  0  0  0  0  0  0  0  0  0
  147.9008  139.4822  152.4866 H   0  0  0  0  0  0  0  0  0  0  0  0
  148.3752  140.0349  155.4784 H   0  0  0  0  0  0  0  0  0  0  0  0
  149.5926  140.3036  154.2604 H   0  0  0  0  0  0  0  0  0  0  0  0
  148.7485  142.7616  155.5479 H   0  0  0  0  0  0  0  0  0  0  0  0
  150.0346  143.8250  156.7588 H   0  0  0  0  0  0  0  0  0  0  0  0
  152.7689  143.3915  157.1267 H   0  0  0  0  0  0  0  0  0  0  0  0
  151.1380  141.8013  159.0618 H   0  0  0  0  0  0  0  0  0  0  0  0
  152.8642  141.6978  158.6795 H   0  0  0  0  0  0  0  0  0  0  0  0
  152.6070  142.8244  161.0328 H   0  0  0  0  0  0  0  0  0  0  0  0
  152.2905  145.3376  160.5438 H   0  0  0  0  0  0  0  0  0  0  0  0
  152.3757  145.5418  157.9303 H   0  0  0  0  0  0  0  0  0  0  0  0
  150.7104  145.1711  158.4083 H   0  0  0  0  0  0  0  0  0  0  0  0
  1  2  1  0  0  0  0
  1 19  1  0  0  0  0
  1 20  1  0  0  0  0
  1 21  1  0  0  0  0
  2 18  1  0  0  0  0
  2  3  2  0  0  0  0
  3  4  1  0  0  0  0
  3 22  1  0  0  0  0
  4  5  2  0  0  0  0
  5  6  1  0  0  0  0
  5 18  1  0  0  0  0
  6  7  1  0  0  0  0
  6  8  1  0  0  0  0
  6 23  1  0  0  0  0
  7 24  1  0  0  0  0
  7 25  1  0  0  0  0
  7 26  1  0  0  0  0
  8  9  1  0  0  0  0
  8 27  1  0  0  0  0
  8 28  1  0  0  0  0
  9 10  1  0  0  0  0
  9 29  1  0  0  0  0
 10 11  2  0  0  0  0
 10 12  1  0  0  0  0
 12 13  1  0  0  0  0
 12 30  1  0  0  0  0
 13 17  1  0  0  0  0
 13 14  1  0  0  0  0
 13 31  1  0  0  0  0
 14 15  1  0  0  0  0
 14 32  1  0  0  0  0
 14 33  1  0  0  0  0
 15 16  2  0  0  0  0
 15 34  1  0  0  0  0
 16 17  1  0  0  0  0
 16 35  1  0  0  0  0
 17 36  1  0  0  0  0
 17 37  1  0  0  0  0
M  END
> <s_m_source_file>
AV-unprocessed.smi

> <i_m_source_file_index>
2375

> <i_lp_mmshare_version>
43012

> <i_f3d_flags>
0

> <s_epik_input>
W0NIM11jMVtjSF1uYyhzMSlbQ0BIXShbQ0gzXSlbQ0gyXVtOSF1DKD1PKVtOSF1bQ0hdMltDSDJdW0NIXT1bQ0hdW0NIMl0y

> <s_epik_cmdline>
J2VwaWtfcHl0aG9uJywgJy1waCcsICc3LjAnLCAnLXRuJywgJzgnLCAnLW1hJywgJzIwMCcsICctbWV0YWxfYmluZGluZycsICctaW1hZScsICc8aW5maWxlLm1hZT4nLCAnLW9tYWUnLCAnPG91dGZpbGUubWFlPic=

> <r_epik_Ionization_Penalty>
0.000644205

> <r_epik_Ionization_Penalty_Charging>
0

> <r_epik_Ionization_Penalty_Neutral>
0.000644205

> <r_epik_State_Penalty>
0.000370883

> <r_epik_Charging_Adjusted_Penalty>
0.000370883

> <i_epik_Tot_Q>
0

> <i_epik_Tot_abs_Q>
0

> <r_epik_Metal_State_Penalty>
-0

> <b_epik_Metal_Only>
0

> <s_lp_Force_Field>
OPLS_2005

> <r_lp_Energy>
17.1523

> <b_lp_Chiralities_Consistent>
1

> <s_lp_Variant>
AV-unprocessed.smi:2375-1

> <Gold.Version>
5.8.1

> <Gold.Id.Protein>
6NUR|6NUR_protein|mol2

> <Gold.PLP.Fitness>
46.9952

> <Gold.PLP.PLP>
-42.7923

> <Gold.PLP.part.hbond>
-2.0000

> <Gold.PLP.part.metal>
0.0000

> <Gold.PLP.part.buried>
-6.2826

> <Gold.PLP.part.nonpolar>
-35.3328

> <Gold.PLP.part.repulsive>
0.3080

> <Gold.PLP.ligand.clash>
0.0000

> <Gold.PLP.ligand.torsion>
0.6941

> <Gold.PLP.Chemscore.Hbond>
1.8240

> <Gold.PLP.Chemscore.CHOScore>
0.0000

> <Gold.PLP.Chemscore.Metal>
0.0000

> <Gold.Chemscore.Hbonds>
donor molecule, donor type, donor heavy atom, donor atom, acceptor molecule, acceptor atom, score
      L1  H     9    29       P1  8028  0.85
      L1  H    12    30       P1  8028  0.99

> <Gold.PLP.Chemscore.Internal.Correction>
0.1192

> <Gold.Rescore>
     Score         DG    S(hbond)    S(metal)    S(lipo)     H(rot)  DE(clash)    DE(int)     intcor
     19.94     -20.47       1.87        0.00     107.45       1.50       0.12       0.40       ----

> <Gold.Chemscore.Fitness>
19.9449

> <Gold.Chemscore.DG>
-20.4681

> <Gold.Chemscore.ZeroCoef>
-5.4800

> <Gold.Chemscore.Hbond>
1.8742

> <Gold.Chemscore.Metal>
0.0000

> <Gold.Chemscore.Lipo>
107.4460

> <Gold.Chemscore.Internal_Hbond>
0.0000

> <Gold.Chemscore.DEClash>
0.1216

> <Gold.Chemscore.DEInternal>
0.4016

> <Gold.Chemscore.Rot>
1.5012

> <Gold.Chemscore.Internal.Correction>
   9.000000E+99

> <Gold.Chemscore.Hbonds>
donor molecule, donor type, donor heavy atom, donor atom, acceptor molecule, acceptor atom, score
      L1  H     9    29       P1  8028  0.84
      L1  H    12    30       P1  8028  0.94

> <Gold.Chemscore.Hbond.Weighted>
-6.2598

> <Gold.Chemscore.Metal.Weighted>
-0.0000

> <Gold.Chemscore.Lipo.Weighted>
-12.5712

> <Gold.Chemscore.Internal_Hbond.Weighted>
0.0000

> <Gold.Chemscore.DEClash.Weighted>
0.1216

> <Gold.Chemscore.DEInternal.Weighted>
0.4016

> <Gold.Chemscore.Rot.Weighted>
3.8429

> <Gold.Chemscore.Internal.Correction.Weighted>
   9.000000E+99

> <Gold.Protein.RotatedTorsions>
[ 6907 6896 6895 6894 ] final  -78.25 input  -60.11 | X-H torsion
[ 7974 7965 7964 7962 ] final   80.53 input  175.53 | X-H torsion
[ 8008 7997 7996 7995 ] final -175.11 input   59.86 | X-H torsion
[ 10167 10162 10161 10158 ] final -177.31 input  -65.29 | X-H torsion
[ 10718 10713 10712 10709 ] final  141.96 input   66.30 | X-H torsion
[ 10763 10752 10751 10750 ] final  -55.55 input  -60.55 | X-H torsion
[ 11005 11000 10999 10996 ] final    8.50 input  -57.11 | X-H torsion

> <Gold.Protein.ActiveResidues>
 VAL166  LYS551  ARG553  GLY616  TRP617  ASP618  TYR619  PRO620  LYS621  CYS622 
 ASP623  PHE694  ASN695  SER759  ASP760  ASP761  ALA762  ILE779  LEU786  VAL792 
 PHE793  MET794  SER795  GLU796  ALA797  LYS798  CYS799  TRP800  GLU811  SER814 

> <Gold.Protein.RotatedAtoms>
  150.6977  134.4300  159.5243 H   0  0  0  0  0  0  0  0  0  0  0  0  # atno 6907 bound_to 6896
  152.2028  134.8569  160.0515 H   0  0  0  0  0  0  0  0  0  0  0  0  # atno 6908 bound_to 6896
  151.9483  133.3623  159.4027 H   0  0  0  0  0  0  0  0  0  0  0  0  # atno 6909 bound_to 6896
  145.6501  139.2445  143.1982 H   0  0  0  0  0  0  0  0  0  0  0  0  # atno 7974 bound_to 7965
  155.9784  140.1177  157.0748 H   0  0  0  0  0  0  0  0  0  0  0  0  # atno 8008 bound_to 7997
  154.4176  140.1149  156.5470 H   0  0  0  0  0  0  0  0  0  0  0  0  # atno 8009 bound_to 7997
  155.6503  140.3473  155.4748 H   0  0  0  0  0  0  0  0  0  0  0  0  # atno 8010 bound_to 7997
  139.5486  144.2168  152.1036 H   0  0  0  0  0  0  0  0  0  0  0  0  # atno 10167 bound_to 10162
  157.3860  131.0998  151.0693 H   0  0  0  0  0  0  0  0  0  0  0  0  # atno 10718 bound_to 10713
  154.1926  135.6424  153.5064 H   0  0  0  0  0  0  0  0  0  0  0  0  # atno 10763 bound_to 10752
  153.0031  135.5432  154.6399 H   0  0  0  0  0  0  0  0  0  0  0  0  # atno 10764 bound_to 10752
  154.5792  135.2923  155.0723 H   0  0  0  0  0  0  0  0  0  0  0  0  # atno 10765 bound_to 10752
  140.5363  134.0418  155.7889 H   0  0  0  0  0  0  0  0  0  0  0  0  # atno 11005 bound_to 11000
  146.1211  140.7308  142.9457 LP  0  0  0  0  0  0  0  0  0  0  0  0  # atno 17320 bound_to 7965
  144.7126  140.4094  143.7069 LP  0  0  0  0  0  0  0  0  0  0  0  0  # atno 17321 bound_to 7965
  140.1659  144.4982  150.6606 LP  0  0  0  0  0  0  0  0  0  0  0  0  # atno 17342 bound_to 10162
  140.6743  143.2298  151.5548 LP  0  0  0  0  0  0  0  0  0  0  0  0  # atno 17343 bound_to 10162
  157.1744  130.6281  149.5651 LP  0  0  0  0  0  0  0  0  0  0  0  0  # atno 17370 bound_to 10713
  155.9787  130.4774  150.6670 LP  0  0  0  0  0  0  0  0  0  0  0  0  # atno 17371 bound_to 10713
  141.1253  133.9394  157.2648 LP  0  0  0  0  0  0  0  0  0  0  0  0  # atno 17394 bound_to 11000
  139.9527  135.0172  156.9041 LP  0  0  0  0  0  0  0  0  0  0  0  0  # atno 17395 bound_to 11000

$$$$
