AV-unprocessed.smi:3048|AV-procd|sdf|11627|dock3
  -GOLD-   2272017 13D 1   1.00000     0.00000
 Structure written by MMmdl.
 37 38  0  0  0  0  0  0  0  0  1 V2000
  154.1143  140.6876  161.0664 C   0  0  0  0  0  0  0  0  0  0  0  0
  153.3599  141.9640  160.8296 C   0  0  0  0  0  0  0  0  0  0  0  0
  152.7613  142.8180  161.7990 C   0  0  0  0  0  0  0  0  0  0  0  0
  152.1700  143.8718  161.2613 N   0  0  0  0  0  0  0  0  0  0  0  0
  152.3658  143.7275  159.9335 N   0  0  0  0  0  0  0  0  0  0  0  0
  151.8441  144.7224  159.0134 C   0  0  0  0  0  0  0  0  0  0  0  0
  151.9298  144.2675  157.5477 C   0  0  0  0  0  0  0  0  0  0  0  0
  150.7970  143.4248  157.1756 N   0  0  0  0  0  0  0  0  0  0  0  0
  151.1865  142.1906  156.5026 C   0  0  0  0  0  0  0  0  0  0  0  0
  149.9560  141.4369  155.9781 C   0  0  2  0  0  0  0  0  0  0  0  0
  149.2063  140.7121  157.1129 C   0  0  0  0  0  0  0  0  0  0  0  0
  148.0404  139.8898  156.5516 C   0  0  0  0  0  0  0  0  0  0  0  0
  148.5474  138.9623  155.4423 C   0  0  0  0  0  0  0  0  0  0  0  0
  149.3397  139.7631  154.3971 C   0  0  0  0  0  0  0  0  0  0  0  0
  150.4028  140.4670  155.0320 O   0  0  0  0  0  0  0  0  0  0  0  0
  153.0833  142.5861  159.6451 C   0  0  0  0  0  0  0  0  0  0  0  0
  153.9871  140.3259  162.0869 H   0  0  0  0  0  0  0  0  0  0  0  0
  155.1842  140.8174  160.9028 H   0  0  0  0  0  0  0  0  0  0  0  0
  153.7796  139.8919  160.4007 H   0  0  0  0  0  0  0  0  0  0  0  0
  152.7410  142.7043  162.8728 H   0  0  0  0  0  0  0  0  0  0  0  0
  150.8134  144.9617  159.2811 H   0  0  0  0  0  0  0  0  0  0  0  0
  152.4206  145.6381  159.1483 H   0  0  0  0  0  0  0  0  0  0  0  0
  151.9542  145.1502  156.9080 H   0  0  0  0  0  0  0  0  0  0  0  0
  152.8671  143.7363  157.3778 H   0  0  0  0  0  0  0  0  0  0  0  0
  150.1570  143.9478  156.5858 H   0  0  0  0  0  0  0  0  0  0  0  0
  151.8687  142.4023  155.6784 H   0  0  0  0  0  0  0  0  0  0  0  0
  151.7300  141.5557  157.2034 H   0  0  0  0  0  0  0  0  0  0  0  0
  149.2789  142.1425  155.4925 H   0  0  0  0  0  0  0  0  0  0  0  0
  149.8932  140.0534  157.6459 H   0  0  0  0  0  0  0  0  0  0  0  0
  148.8348  141.4323  157.8425 H   0  0  0  0  0  0  0  0  0  0  0  0
  147.5656  139.3112  157.3444 H   0  0  0  0  0  0  0  0  0  0  0  0
  147.2781  140.5592  156.1510 H   0  0  0  0  0  0  0  0  0  0  0  0
  149.1886  138.1923  155.8727 H   0  0  0  0  0  0  0  0  0  0  0  0
  147.7115  138.4460  154.9698 H   0  0  0  0  0  0  0  0  0  0  0  0
  149.7605  139.0904  153.6498 H   0  0  0  0  0  0  0  0  0  0  0  0
  148.6911  140.4620  153.8671 H   0  0  0  0  0  0  0  0  0  0  0  0
  153.3334  142.3130  158.6304 H   0  0  0  0  0  0  0  0  0  0  0  0
  1  2  1  0  0  0  0
  1 17  1  0  0  0  0
  1 18  1  0  0  0  0
  1 19  1  0  0  0  0
  2 16  2  0  0  0  0
  2  3  1  0  0  0  0
  3  4  2  0  0  0  0
  3 20  1  0  0  0  0
  4  5  1  0  0  0  0
  5  6  1  0  0  0  0
  5 16  1  0  0  0  0
  6  7  1  0  0  0  0
  6 21  1  0  0  0  0
  6 22  1  0  0  0  0
  7  8  1  0  0  0  0
  7 23  1  0  0  0  0
  7 24  1  0  0  0  0
  8  9  1  0  0  0  0
  8 25  1  0  0  0  0
  9 10  1  0  0  0  0
  9 26  1  0  0  0  0
  9 27  1  0  0  0  0
 10 15  1  0  0  0  0
 10 11  1  0  0  0  0
 10 28  1  0  0  0  0
 11 12  1  0  0  0  0
 11 29  1  0  0  0  0
 11 30  1  0  0  0  0
 12 13  1  0  0  0  0
 12 31  1  0  0  0  0
 12 32  1  0  0  0  0
 13 14  1  0  0  0  0
 13 33  1  0  0  0  0
 13 34  1  0  0  0  0
 14 15  1  0  0  0  0
 14 35  1  0  0  0  0
 14 36  1  0  0  0  0
 16 37  1  0  0  0  0
M  END
> <s_m_source_file>
AV-unprocessed.smi

> <i_m_source_file_index>
3048

> <i_lp_mmshare_version>
43012

> <i_f3d_flags>
0

> <s_epik_input>
W0NIM11jMVtjSF1ubihbY0hdMSlbQ0gyXVtDSDJdW05IXVtDSDJdW0NAQEhdMltDSDJdW0NIMl1bQ0gyXVtDSDJdTzI=

> <s_epik_cmdline>
J2VwaWtfcHl0aG9uJywgJy1waCcsICc3LjAnLCAnLXRuJywgJzgnLCAnLW1hJywgJzIwMCcsICctbWV0YWxfYmluZGluZycsICctaW1hZScsICc8aW5maWxlLm1hZT4nLCAnLW9tYWUnLCAnPG91dGZpbGUubWFlPic=

> <r_lp_tautomer_probability>
1

> <r_epik_Ionization_Penalty>
2.52229

> <r_epik_Ionization_Penalty_Charging>
0

> <r_epik_Ionization_Penalty_Neutral>
2.52229

> <r_epik_State_Penalty>
2.68614

> <r_epik_Charging_Adjusted_Penalty>
2.68614

> <i_epik_Tot_Q>
0

> <i_epik_Tot_abs_Q>
0

> <r_epik_Metal_State_Penalty>
2.68365

> <b_epik_Metal_Only>
0

> <s_lp_Force_Field>
OPLS_2005

> <r_lp_Energy>
12.7025

> <b_lp_Chiralities_Consistent>
1

> <s_lp_Variant>
AV-unprocessed.smi:3048-3

> <Gold.Version>
5.8.1

> <Gold.Id.Protein>
6NUR|6NUR_protein|mol2

> <Gold.PLP.Fitness>
45.5301

> <Gold.PLP.PLP>
-40.9469

> <Gold.PLP.part.hbond>
-2.0000

> <Gold.PLP.part.metal>
0.0000

> <Gold.PLP.part.buried>
-6.4934

> <Gold.PLP.part.nonpolar>
-32.0169

> <Gold.PLP.part.repulsive>
0.2162

> <Gold.PLP.ligand.clash>
0.0000

> <Gold.PLP.ligand.torsion>
0.7205

> <Gold.PLP.Chemscore.Hbond>
1.9920

> <Gold.PLP.Chemscore.CHOScore>
0.0000

> <Gold.PLP.Chemscore.Metal>
0.0000

> <Gold.Chemscore.Hbonds>
donor molecule, donor type, donor heavy atom, donor atom, acceptor molecule, acceptor atom, score
      L1  H     8    25       P1  8028  1.00
      P1  H  7989  7998       L1    15  1.00

> <Gold.PLP.Chemscore.Internal.Correction>
0.0482

> <Gold.Rescore>
     Score         DG    S(hbond)    S(metal)    S(lipo)     H(rot)  DE(clash)    DE(int)     intcor
     17.91     -18.58       1.63        0.00      99.24       1.54       0.02       0.65       ----

> <Gold.Chemscore.Fitness>
17.9063

> <Gold.Chemscore.DG>
-18.5816

> <Gold.Chemscore.ZeroCoef>
-5.4800

> <Gold.Chemscore.Hbond>
1.6275

> <Gold.Chemscore.Metal>
0.0000

> <Gold.Chemscore.Lipo>
99.2384

> <Gold.Chemscore.Internal_Hbond>
0.0000

> <Gold.Chemscore.DEClash>
0.0223

> <Gold.Chemscore.DEInternal>
0.6530

> <Gold.Chemscore.Rot>
1.5411

> <Gold.Chemscore.Internal.Correction>
   9.000000E+99

> <Gold.Chemscore.Hbonds>
donor molecule, donor type, donor heavy atom, donor atom, acceptor molecule, acceptor atom, score
      L1  H     8    25       P1  8028  1.00
      P1  H  7989  7998       L1    15  0.36

> <Gold.Chemscore.Hbond.Weighted>
-5.4359

> <Gold.Chemscore.Metal.Weighted>
-0.0000

> <Gold.Chemscore.Lipo.Weighted>
-11.6109

> <Gold.Chemscore.Internal_Hbond.Weighted>
0.0000

> <Gold.Chemscore.DEClash.Weighted>
0.0223

> <Gold.Chemscore.DEInternal.Weighted>
0.6530

> <Gold.Chemscore.Rot.Weighted>
3.9452

> <Gold.Chemscore.Internal.Correction.Weighted>
   9.000000E+99

> <Gold.Protein.RotatedTorsions>
[ 6907 6896 6895 6894 ] final   71.29 input  -60.11 | X-H torsion
[ 7974 7965 7964 7962 ] final -113.85 input  175.53 | X-H torsion
[ 8008 7997 7996 7995 ] final -132.33 input   59.86 | X-H torsion
[ 10167 10162 10161 10158 ] final  118.57 input  -65.29 | X-H torsion
[ 10718 10713 10712 10709 ] final  131.21 input   66.30 | X-H torsion
[ 10763 10752 10751 10750 ] final   89.11 input  -60.55 | X-H torsion
[ 11005 11000 10999 10996 ] final  -20.08 input  -57.11 | X-H torsion

> <Gold.Protein.ActiveResidues>
 VAL166  LYS551  ARG553  GLY616  TRP617  ASP618  TYR619  PRO620  LYS621  CYS622 
 ASP623  PHE694  ASN695  SER759  ASP760  ASP761  ALA762  ILE779  LEU786  VAL792 
 PHE793  MET794  SER795  GLU796  ALA797  LYS798  CYS799  TRP800  GLU811  SER814 

> <Gold.Protein.RotatedAtoms>
  152.4801  134.4743  159.9645 H   0  0  0  0  0  0  0  0  0  0  0  0  # atno 6907 bound_to 6896
  151.4750  133.3554  159.2837 H   0  0  0  0  0  0  0  0  0  0  0  0  # atno 6908 bound_to 6896
  150.8867  134.8291  159.7325 H   0  0  0  0  0  0  0  0  0  0  0  0  # atno 6909 bound_to 6896
  145.1272  140.8703  143.3779 H   0  0  0  0  0  0  0  0  0  0  0  0  # atno 7974 bound_to 7965
  155.3272  140.0465  157.3041 H   0  0  0  0  0  0  0  0  0  0  0  0  # atno 8008 bound_to 7997
  154.5348  140.2268  155.8708 H   0  0  0  0  0  0  0  0  0  0  0  0  # atno 8009 bound_to 7997
  156.1824  140.3070  155.9180 H   0  0  0  0  0  0  0  0  0  0  0  0  # atno 8010 bound_to 7997
  139.6103  144.7080  151.2859 H   0  0  0  0  0  0  0  0  0  0  0  0  # atno 10167 bound_to 10162
  157.4989  131.1093  150.9454 H   0  0  0  0  0  0  0  0  0  0  0  0  # atno 10718 bound_to 10713
  153.1837  135.4482  155.0061 H   0  0  0  0  0  0  0  0  0  0  0  0  # atno 10763 bound_to 10752
  154.8047  135.3269  154.7465 H   0  0  0  0  0  0  0  0  0  0  0  0  # atno 10764 bound_to 10752
  153.7926  135.6969  153.4924 H   0  0  0  0  0  0  0  0  0  0  0  0  # atno 10765 bound_to 10752
  140.8429  133.7913  155.9880 H   0  0  0  0  0  0  0  0  0  0  0  0  # atno 11005 bound_to 11000
  145.0675  139.3057  143.5849 LP  0  0  0  0  0  0  0  0  0  0  0  0  # atno 17320 bound_to 7965
  146.3517  140.0139  142.8664 LP  0  0  0  0  0  0  0  0  0  0  0  0  # atno 17321 bound_to 7965
  140.7314  143.6852  150.7967 LP  0  0  0  0  0  0  0  0  0  0  0  0  # atno 17342 bound_to 10162
  140.0446  143.5312  152.2702 LP  0  0  0  0  0  0  0  0  0  0  0  0  # atno 17343 bound_to 10162
  157.0131  130.5644  149.5323 LP  0  0  0  0  0  0  0  0  0  0  0  0  # atno 17370 bound_to 10713
  156.0217  130.5312  150.8294 LP  0  0  0  0  0  0  0  0  0  0  0  0  # atno 17371 bound_to 10713
  140.8875  134.2536  157.5112 LP  0  0  0  0  0  0  0  0  0  0  0  0  # atno 17394 bound_to 11000
  139.8703  134.9645  156.4498 LP  0  0  0  0  0  0  0  0  0  0  0  0  # atno 17395 bound_to 11000

$$$$
