AV-unprocessed.smi:1803|AV-procd|sdf|7289|dock8
  -GOLD-   22720 8543D 1   1.00000     0.00000
 Structure written by MMmdl.
 35 37  0  0  0  0  0  0  0  0  3 V2000
  146.4963  143.6539  159.2748 O   0  0  0  0  0  0  0  0  0  0  0  0
  145.9239  142.5760  159.1206 C   0  0  0  0  0  0  0  0  0  0  0  0
  145.3179  141.8995  160.1309 N   0  5  0  0  0  0  0  0  0  0  0  0
  144.5189  142.5026  161.0311 C   0  0  0  0  0  0  0  0  0  0  0  0
  143.3235  142.0029  161.3840 N   0  0  0  0  0  0  0  0  0  0  0  0
  142.6672  142.7764  162.3316 N   0  0  0  0  0  0  0  0  0  0  0  0
  143.3833  143.8505  162.6631 C   0  0  0  0  0  0  0  0  0  0  0  0
  144.9268  144.0113  161.8520 S   0  0  0  0  0  0  0  0  0  0  0  0
  145.8879  142.0298  157.8909 N   0  0  0  0  0  0  0  0  0  0  0  0
  146.4807  142.5969  156.6862 C   0  0  2  0  0  0  0  0  0  0  0  0
  145.4802  142.8090  155.5336 C   0  0  0  0  0  0  0  0  0  0  0  0
  146.2503  142.4353  154.2516 C   0  0  0  0  0  0  0  0  0  0  0  0
  147.6263  142.1399  154.6957 N   0  3  2  0  0  0  0  0  0  0  0  0
  148.4381  141.2508  153.8368 C   0  0  0  0  0  0  0  0  0  0  0  0
  149.8571  141.1280  154.4288 C   0  0  0  0  0  0  0  0  0  0  0  0
  149.8255  140.6950  155.9094 C   0  0  0  0  0  0  0  0  0  0  0  0
  148.8928  141.6027  156.7343 C   0  0  0  0  0  0  0  0  0  0  0  0
  147.5052  141.6450  156.0746 C   0  0  1  0  0  0  0  0  0  0  0  0
  143.0002  144.5525  163.3886 H   0  0  0  0  0  0  0  0  0  0  0  0
  145.4066  141.1479  157.7915 H   0  0  0  0  0  0  0  0  0  0  0  0
  146.9688  143.5447  156.9226 H   0  0  0  0  0  0  0  0  0  0  0  0
  144.6072  142.1636  155.6412 H   0  0  0  0  0  0  0  0  0  0  0  0
  145.1238  143.8395  155.5093 H   0  0  0  0  0  0  0  0  0  0  0  0
  145.8047  141.5513  153.7929 H   0  0  0  0  0  0  0  0  0  0  0  0
  146.2460  143.2384  153.5144 H   0  0  0  0  0  0  0  0  0  0  0  0
  147.9668  140.2692  153.7672 H   0  0  0  0  0  0  0  0  0  0  0  0
  148.4849  141.6597  152.8269 H   0  0  0  0  0  0  0  0  0  0  0  0
  150.4458  140.4200  153.8447 H   0  0  0  0  0  0  0  0  0  0  0  0
  150.3650  142.0899  154.3481 H   0  0  0  0  0  0  0  0  0  0  0  0
  149.4795  139.6627  155.9775 H   0  0  0  0  0  0  0  0  0  0  0  0
  150.8323  140.7117  156.3277 H   0  0  0  0  0  0  0  0  0  0  0  0
  148.8143  141.2322  157.7570 H   0  0  0  0  0  0  0  0  0  0  0  0
  149.3119  142.6081  156.7956 H   0  0  0  0  0  0  0  0  0  0  0  0
  147.0854  140.6365  156.0457 H   0  0  0  0  0  0  0  0  0  0  0  0
  148.1056  143.0269  154.7535 H   0  0  0  0  0  0  0  0  0  0  0  0
  1  2  2  0  0  0  0
  2  3  1  0  0  0  0
  2  9  1  0  0  0  0
  3  4  1  0  0  0  0
  4  8  1  0  0  0  0
  4  5  2  0  0  0  0
  5  6  1  0  0  0  0
  6  7  2  0  0  0  0
  7  8  1  0  0  0  0
  7 19  1  0  0  0  0
  9 10  1  0  0  0  0
  9 20  1  0  0  0  0
 10 18  1  0  0  0  0
 10 11  1  0  0  0  0
 10 21  1  0  0  0  0
 11 12  1  0  0  0  0
 11 22  1  0  0  0  0
 11 23  1  0  0  0  0
 12 13  1  0  0  0  0
 12 24  1  0  0  0  0
 12 25  1  0  0  0  0
 13 18  1  0  0  0  0
 13 14  1  0  0  0  0
 13 35  1  0  0  0  0
 14 15  1  0  0  0  0
 14 26  1  0  0  0  0
 14 27  1  0  0  0  0
 15 16  1  0  0  0  0
 15 28  1  0  0  0  0
 15 29  1  0  0  0  0
 16 17  1  0  0  0  0
 16 30  1  0  0  0  0
 16 31  1  0  0  0  0
 17 18  1  0  0  0  0
 17 32  1  0  0  0  0
 17 33  1  0  0  0  0
 18 34  1  0  0  0  0
M  CHG  1   3  -1
M  CHG  1  13   1
M  END
> <s_m_source_file>
AV-unprocessed.smi

> <i_m_source_file_index>
1803

> <i_lp_mmshare_version>
43012

> <i_f3d_flags>
0

> <s_epik_input>
czFbY0hdbm5jMVtOSF1DKD1PKVtOSF1bQ0BIXShbQ0gyXVtDSDJdMilbQ0BASF0oTjIzKVtDSDJdW0NIMl1bQ0gyXVtDSDJdMw==

> <s_epik_cmdline>
J2VwaWtfcHl0aG9uJywgJy1waCcsICc3LjAnLCAnLXRuJywgJzgnLCAnLW1hJywgJzIwMCcsICctbWV0YWxfYmluZGluZycsICctaW1hZScsICc8aW5maWxlLm1hZT4nLCAnLW9tYWUnLCAnPG91dGZpbGUubWFlPic=

> <r_lp_tautomer_probability>
1

> <r_epik_Ionization_Penalty>
3.78828

> <r_epik_Ionization_Penalty_Charging>
3.7591

> <r_epik_Ionization_Penalty_Neutral>
0.0291838

> <r_epik_State_Penalty>
3.757

> <r_epik_Charging_Adjusted_Penalty>
7.51609

> <i_epik_Tot_Q>
0

> <i_epik_Tot_abs_Q>
2

> <r_epik_Metal_State_Penalty>
0.558016

> <b_epik_Metal_Only>
1

> <s_lp_Force_Field>
OPLS_2005

> <r_lp_Energy>
28.5802

> <b_lp_Chiralities_Consistent>
1

> <s_lp_Variant>
AV-unprocessed.smi:1803-11

> <Gold.Version>
5.8.1

> <Gold.Id.Protein>
6NUR|6NUR_protein|mol2

> <Gold.PLP.Fitness>
40.0299

> <Gold.PLP.PLP>
-29.5710

> <Gold.PLP.part.hbond>
-4.6504

> <Gold.PLP.part.metal>
0.0000

> <Gold.PLP.part.buried>
0.2615

> <Gold.PLP.part.nonpolar>
-24.3110

> <Gold.PLP.part.repulsive>
0.3394

> <Gold.PLP.ligand.clash>
0.0000

> <Gold.PLP.ligand.torsion>
0.7755

> <Gold.PLP.Chemscore.Hbond>
4.0000

> <Gold.PLP.Chemscore.CHOScore>
0.0000

> <Gold.PLP.Chemscore.Metal>
0.0000

> <Gold.Chemscore.Hbonds>
donor molecule, donor type, donor heavy atom, donor atom, acceptor molecule, acceptor atom, score
      L1  H    13    35       P1  8028  1.95
      P1  H  6934  6946       L1     3  1.80

> <Gold.PLP.Chemscore.Internal.Correction>
0.0099

> <Gold.Rescore>
     Score         DG    S(hbond)    S(metal)    S(lipo)     H(rot)  DE(clash)    DE(int)     intcor
     10.98     -13.58       1.11        0.00      59.52       1.00       1.69       0.92       ----

> <Gold.Chemscore.Fitness>
10.9761

> <Gold.Chemscore.DG>
-13.5842

> <Gold.Chemscore.ZeroCoef>
-5.4800

> <Gold.Chemscore.Hbond>
1.1080

> <Gold.Chemscore.Metal>
0.0000

> <Gold.Chemscore.Lipo>
59.5162

> <Gold.Chemscore.Internal_Hbond>
0.0000

> <Gold.Chemscore.DEClash>
1.6902

> <Gold.Chemscore.DEInternal>
0.9179

> <Gold.Chemscore.Rot>
1.0000

> <Gold.Chemscore.Internal.Correction>
   9.000000E+99

> <Gold.Chemscore.Hbonds>
donor molecule, donor type, donor heavy atom, donor atom, acceptor molecule, acceptor atom, score
      L1  H    13    35       P1  8028  0.88
      P1  H  6934  6946       L1     3  0.17

> <Gold.Chemscore.Hbond.Weighted>
-3.7008

> <Gold.Chemscore.Metal.Weighted>
-0.0000

> <Gold.Chemscore.Lipo.Weighted>
-6.9634

> <Gold.Chemscore.Internal_Hbond.Weighted>
0.0000

> <Gold.Chemscore.DEClash.Weighted>
1.6902

> <Gold.Chemscore.DEInternal.Weighted>
0.9179

> <Gold.Chemscore.Rot.Weighted>
2.5600

> <Gold.Chemscore.Internal.Correction.Weighted>
   9.000000E+99

> <Gold.Protein.RotatedTorsions>
[ 6907 6896 6895 6894 ] final  -48.89 input  -60.11 | X-H torsion
[ 7974 7965 7964 7962 ] final -170.57 input  175.53 | X-H torsion
[ 8008 7997 7996 7995 ] final  -60.88 input   59.86 | X-H torsion
[ 10167 10162 10161 10158 ] final -139.49 input  -65.29 | X-H torsion
[ 10718 10713 10712 10709 ] final  -35.33 input   66.30 | X-H torsion
[ 10763 10752 10751 10750 ] final -162.07 input  -60.55 | X-H torsion
[ 11005 11000 10999 10996 ] final  -77.22 input  -57.11 | X-H torsion

> <Gold.Protein.ActiveResidues>
 VAL166  LYS551  ARG553  GLY616  TRP617  ASP618  TYR619  PRO620  LYS621  CYS622 
 ASP623  PHE694  ASN695  SER759  ASP760  ASP761  ALA762  ILE779  LEU786  VAL792 
 PHE793  MET794  SER795  GLU796  ALA797  LYS798  CYS799  TRP800  GLU811  SER814 

> <Gold.Protein.RotatedAtoms>
  150.8860  134.8258  159.7258 H   0  0  0  0  0  0  0  0  0  0  0  0  # atno 6907 bound_to 6896
  152.4808  134.4722  159.9649 H   0  0  0  0  0  0  0  0  0  0  0  0  # atno 6908 bound_to 6896
  151.4791  133.3512  159.2871 H   0  0  0  0  0  0  0  0  0  0  0  0  # atno 6909 bound_to 6896
  144.7168  140.2051  143.6334 H   0  0  0  0  0  0  0  0  0  0  0  0  # atno 7974 bound_to 7965
  154.4420  140.1030  156.6343 H   0  0  0  0  0  0  0  0  0  0  0  0  # atno 8008 bound_to 7997
  155.5570  140.3487  155.4463 H   0  0  0  0  0  0  0  0  0  0  0  0  # atno 8009 bound_to 7997
  156.0487  140.1299  157.0063 H   0  0  0  0  0  0  0  0  0  0  0  0  # atno 8010 bound_to 7997
  139.8375  143.7366  152.2664 H   0  0  0  0  0  0  0  0  0  0  0  0  # atno 10167 bound_to 10162
  156.3399  130.4292  149.7796 H   0  0  0  0  0  0  0  0  0  0  0  0  # atno 10718 bound_to 10713
  154.7247  135.3033  154.8989 H   0  0  0  0  0  0  0  0  0  0  0  0  # atno 10763 bound_to 10752
  153.9850  135.6725  153.4755 H   0  0  0  0  0  0  0  0  0  0  0  0  # atno 10764 bound_to 10752
  153.0865  135.4981  154.8525 H   0  0  0  0  0  0  0  0  0  0  0  0  # atno 10765 bound_to 10752
  141.1659  133.7014  156.7787 H   0  0  0  0  0  0  0  0  0  0  0  0  # atno 11005 bound_to 11000
  145.8643  139.2239  143.1698 LP  0  0  0  0  0  0  0  0  0  0  0  0  # atno 17320 bound_to 7965
  146.0144  140.8406  142.9954 LP  0  0  0  0  0  0  0  0  0  0  0  0  # atno 17321 bound_to 7965
  139.7592  144.7511  151.0389 LP  0  0  0  0  0  0  0  0  0  0  0  0  # atno 17342 bound_to 10162
  140.7801  143.4770  151.0069 LP  0  0  0  0  0  0  0  0  0  0  0  0  # atno 17343 bound_to 10162
  156.5037  130.8140  151.3142 LP  0  0  0  0  0  0  0  0  0  0  0  0  # atno 17370 bound_to 10713
  157.7445  130.9936  150.2679 LP  0  0  0  0  0  0  0  0  0  0  0  0  # atno 17371 bound_to 10713
  140.2411  134.8613  157.3574 LP  0  0  0  0  0  0  0  0  0  0  0  0  # atno 17394 bound_to 11000
  140.1795  134.4507  155.7781 LP  0  0  0  0  0  0  0  0  0  0  0  0  # atno 17395 bound_to 11000

$$$$
