AV-unprocessed.smi:3325|AV-procd|sdf|12784|dock5
  -GOLD-   2272019133D 1   1.00000     0.00000
 Structure written by MMmdl.
 44 45  0  0  0  0  0  0  0  0  2 V2000
  143.8022  143.6357  163.0261 C   0  0  0  0  0  0  0  0  0  0  0  0
  143.5619  143.6745  161.5096 C   0  0  0  0  0  0  0  0  0  0  0  0
  142.3487  142.8398  161.0735 C   0  0  0  0  0  0  0  0  0  0  0  0
  144.7929  143.3030  160.7409 C   0  0  0  0  0  0  0  0  0  0  0  0
  145.9130  142.9510  161.3615 N   0  0  0  0  0  0  0  0  0  0  0  0
  146.8077  142.7101  160.3095 O   0  0  0  0  0  0  0  0  0  0  0  0
  146.1077  142.9320  159.1721 C   0  0  0  0  0  0  0  0  0  0  0  0
  146.8089  142.8189  157.8586 C   0  0  0  0  0  0  0  0  0  0  0  0
  148.0022  141.8524  157.8970 C   0  0  0  0  0  0  0  0  0  0  0  0
  148.8545  141.9905  156.6981 N   0  3  0  0  0  0  0  0  0  0  0  0
  150.2714  141.6409  156.9206 C   0  0  0  0  0  0  0  0  0  0  0  0
  150.8597  142.3984  158.1252 C   0  0  0  0  0  0  0  0  0  0  0  0
  151.3425  143.8145  157.7404 C   0  0  0  0  0  0  0  0  0  0  0  0
  151.9439  144.5573  158.9446 C   0  0  0  0  0  0  0  0  0  0  0  0
  153.0867  143.7531  159.5819 C   0  0  0  0  0  0  0  0  0  0  0  0
  152.6195  142.3426  159.9697 C   0  0  0  0  0  0  0  0  0  0  0  0
  152.0181  141.6039  158.7627 C   0  0  0  0  0  0  0  0  0  0  0  0
  144.8548  143.3283  159.3794 N   0  0  0  0  0  0  0  0  0  0  0  0
  144.6242  144.2936  163.3104 H   0  0  0  0  0  0  0  0  0  0  0  0
  144.0485  142.6288  163.3644 H   0  0  0  0  0  0  0  0  0  0  0  0
  142.9161  143.9606  163.5716 H   0  0  0  0  0  0  0  0  0  0  0  0
  143.3265  144.7115  161.2636 H   0  0  0  0  0  0  0  0  0  0  0  0
  142.1599  142.9515  160.0054 H   0  0  0  0  0  0  0  0  0  0  0  0
  141.4474  143.1519  161.6017 H   0  0  0  0  0  0  0  0  0  0  0  0
  142.5016  141.7794  161.2764 H   0  0  0  0  0  0  0  0  0  0  0  0
  146.0885  142.4840  157.1115 H   0  0  0  0  0  0  0  0  0  0  0  0
  147.1368  143.8117  157.5478 H   0  0  0  0  0  0  0  0  0  0  0  0
  148.5994  142.0341  158.7917 H   0  0  0  0  0  0  0  0  0  0  0  0
  147.6397  140.8256  157.9562 H   0  0  0  0  0  0  0  0  0  0  0  0
  148.4874  141.3919  155.9717 H   0  0  0  0  0  0  0  0  0  0  0  0
  150.3348  140.5655  157.0934 H   0  0  0  0  0  0  0  0  0  0  0  0
  150.8491  141.8535  156.0200 H   0  0  0  0  0  0  0  0  0  0  0  0
  150.0754  142.4969  158.8779 H   0  0  0  0  0  0  0  0  0  0  0  0
  152.0893  143.7473  156.9476 H   0  0  0  0  0  0  0  0  0  0  0  0
  150.5173  144.4011  157.3359 H   0  0  0  0  0  0  0  0  0  0  0  0
  152.3090  145.5363  158.6326 H   0  0  0  0  0  0  0  0  0  0  0  0
  151.1664  144.7403  159.6875 H   0  0  0  0  0  0  0  0  0  0  0  0
  153.9200  143.6825  158.8815 H   0  0  0  0  0  0  0  0  0  0  0  0
  153.4647  144.2753  160.4614 H   0  0  0  0  0  0  0  0  0  0  0  0
  153.4562  141.7731  160.3757 H   0  0  0  0  0  0  0  0  0  0  0  0
  151.8767  142.4093  160.7657 H   0  0  0  0  0  0  0  0  0  0  0  0
  151.6680  140.6208  159.0792 H   0  0  0  0  0  0  0  0  0  0  0  0
  152.7978  141.4282  158.0203 H   0  0  0  0  0  0  0  0  0  0  0  0
  148.8078  142.9481  156.3788 H   0  0  0  0  0  0  0  0  0  0  0  0
  1  2  1  0  0  0  0
  1 19  1  0  0  0  0
  1 20  1  0  0  0  0
  1 21  1  0  0  0  0
  2  3  1  0  0  0  0
  2  4  1  0  0  0  0
  2 22  1  0  0  0  0
  3 23  1  0  0  0  0
  3 24  1  0  0  0  0
  3 25  1  0  0  0  0
  4 18  1  0  0  0  0
  4  5  2  0  0  0  0
  5  6  1  0  0  0  0
  6  7  1  0  0  0  0
  7  8  1  0  0  0  0
  7 18  2  0  0  0  0
  8  9  1  0  0  0  0
  8 26  1  0  0  0  0
  8 27  1  0  0  0  0
  9 10  1  0  0  0  0
  9 28  1  0  0  0  0
  9 29  1  0  0  0  0
 10 11  1  0  0  0  0
 10 30  1  0  0  0  0
 10 44  1  0  0  0  0
 11 12  1  0  0  0  0
 11 31  1  0  0  0  0
 11 32  1  0  0  0  0
 12 17  1  0  0  0  0
 12 13  1  0  0  0  0
 12 33  1  0  0  0  0
 13 14  1  0  0  0  0
 13 34  1  0  0  0  0
 13 35  1  0  0  0  0
 14 15  1  0  0  0  0
 14 36  1  0  0  0  0
 14 37  1  0  0  0  0
 15 16  1  0  0  0  0
 15 38  1  0  0  0  0
 15 39  1  0  0  0  0
 16 17  1  0  0  0  0
 16 40  1  0  0  0  0
 16 41  1  0  0  0  0
 17 42  1  0  0  0  0
 17 43  1  0  0  0  0
M  CHG  1  10   1
M  END
> <s_m_source_file>
AV-unprocessed.smi

> <i_m_source_file_index>
3325

> <i_lp_mmshare_version>
43012

> <i_f3d_flags>
0

> <s_epik_input>
W0NIM11bQ0hdKFtDSDNdKWMxbm9jKG4xKVtDSDJdW0NIMl1bTkhdW0NIMl1bQ0hdMltDSDJdW0NIMl1bQ0gyXVtDSDJdW0NIMl0y

> <s_epik_cmdline>
J2VwaWtfcHl0aG9uJywgJy1waCcsICc3LjAnLCAnLXRuJywgJzgnLCAnLW1hJywgJzIwMCcsICctbWV0YWxfYmluZGluZycsICctaW1hZScsICc8aW5maWxlLm1hZT4nLCAnLW9tYWUnLCAnPG91dGZpbGUubWFlPic=

> <r_lp_tautomer_probability>
1

> <r_epik_Ionization_Penalty>
0.00142412

> <r_epik_Ionization_Penalty_Charging>
0.00142412

> <r_epik_Ionization_Penalty_Neutral>
2.66011e-13

> <r_epik_State_Penalty>
0.000950746

> <r_epik_Charging_Adjusted_Penalty>
0.00237487

> <i_epik_Tot_Q>
1

> <i_epik_Tot_abs_Q>
1

> <r_epik_Metal_State_Penalty>
-0

> <b_epik_Metal_Only>
0

> <s_lp_Force_Field>
OPLS_2005

> <r_lp_Energy>
7.21373

> <b_lp_Chiralities_Consistent>
1

> <s_lp_Variant>
AV-unprocessed.smi:3325-1

> <Gold.Version>
5.8.1

> <Gold.Id.Protein>
6NUR|6NUR_protein|mol2

> <Gold.PLP.Fitness>
45.9118

> <Gold.PLP.PLP>
-36.9547

> <Gold.PLP.part.hbond>
-3.0000

> <Gold.PLP.part.metal>
0.0000

> <Gold.PLP.part.buried>
-5.4433

> <Gold.PLP.part.nonpolar>
-29.9764

> <Gold.PLP.part.repulsive>
0.0718

> <Gold.PLP.ligand.clash>
0.0000

> <Gold.PLP.ligand.torsion>
0.8901

> <Gold.PLP.Chemscore.Hbond>
3.5288

> <Gold.PLP.Chemscore.CHOScore>
0.0000

> <Gold.PLP.Chemscore.Metal>
0.0000

> <Gold.Chemscore.Hbonds>
donor molecule, donor type, donor heavy atom, donor atom, acceptor molecule, acceptor atom, score
      L1  H    10    44       P1  8028  2.00
      P1  H  6933  6944       L1     6  0.69
      P1  H  6934  6946       L1     6  0.58

> <Gold.PLP.Chemscore.Internal.Correction>
0.1509

> <Gold.Rescore>
     Score         DG    S(hbond)    S(metal)    S(lipo)     H(rot)  DE(clash)    DE(int)     intcor
     16.76     -17.54       1.65        0.00      96.68       1.86       0.04       0.74       ----

> <Gold.Chemscore.Fitness>
16.7588

> <Gold.Chemscore.DG>
-17.5355

> <Gold.Chemscore.ZeroCoef>
-5.4800

> <Gold.Chemscore.Hbond>
1.6482

> <Gold.Chemscore.Metal>
0.0000

> <Gold.Chemscore.Lipo>
96.6806

> <Gold.Chemscore.Internal_Hbond>
0.0000

> <Gold.Chemscore.DEClash>
0.0354

> <Gold.Chemscore.DEInternal>
0.7413

> <Gold.Chemscore.Rot>
1.8597

> <Gold.Chemscore.Internal.Correction>
   9.000000E+99

> <Gold.Chemscore.Hbonds>
donor molecule, donor type, donor heavy atom, donor atom, acceptor molecule, acceptor atom, score
      L1  H    10    44       P1  8028  0.98
      P1  H  6933  6944       L1     6  0.13
      P1  H  6934  6946       L1     6  0.03

> <Gold.Chemscore.Hbond.Weighted>
-5.5048

> <Gold.Chemscore.Metal.Weighted>
-0.0000

> <Gold.Chemscore.Lipo.Weighted>
-11.3116

> <Gold.Chemscore.Internal_Hbond.Weighted>
0.0000

> <Gold.Chemscore.DEClash.Weighted>
0.0354

> <Gold.Chemscore.DEInternal.Weighted>
0.7413

> <Gold.Chemscore.Rot.Weighted>
4.7610

> <Gold.Chemscore.Internal.Correction.Weighted>
   9.000000E+99

> <Gold.Protein.RotatedTorsions>
[ 6907 6896 6895 6894 ] final   61.52 input  -60.11 | X-H torsion
[ 7974 7965 7964 7962 ] final -114.45 input  175.53 | X-H torsion
[ 8008 7997 7996 7995 ] final  179.45 input   59.86 | X-H torsion
[ 10167 10162 10161 10158 ] final   -4.89 input  -65.29 | X-H torsion
[ 10718 10713 10712 10709 ] final -149.47 input   66.30 | X-H torsion
[ 10763 10752 10751 10750 ] final   29.21 input  -60.55 | X-H torsion
[ 11005 11000 10999 10996 ] final  121.27 input  -57.11 | X-H torsion

> <Gold.Protein.ActiveResidues>
 VAL166  LYS551  ARG553  GLY616  TRP617  ASP618  TYR619  PRO620  LYS621  CYS622 
 ASP623  PHE694  ASN695  SER759  ASP760  ASP761  ALA762  ILE779  LEU786  VAL792 
 PHE793  MET794  SER795  GLU796  ALA797  LYS798  CYS799  TRP800  GLU811  SER814 

> <Gold.Protein.RotatedAtoms>
  152.4096  134.6148  160.0034 H   0  0  0  0  0  0  0  0  0  0  0  0  # atno 6907 bound_to 6896
  151.6329  133.3325  159.3121 H   0  0  0  0  0  0  0  0  0  0  0  0  # atno 6908 bound_to 6896
  150.7988  134.7107  159.6647 H   0  0  0  0  0  0  0  0  0  0  0  0  # atno 6909 bound_to 6896
  145.1200  140.8663  143.3819 H   0  0  0  0  0  0  0  0  0  0  0  0  # atno 7974 bound_to 7965
  156.0433  140.1308  157.0132 H   0  0  0  0  0  0  0  0  0  0  0  0  # atno 8008 bound_to 7997
  154.4401  140.1026  156.6339 H   0  0  0  0  0  0  0  0  0  0  0  0  # atno 8009 bound_to 7997
  155.5634  140.3465  155.4499 H   0  0  0  0  0  0  0  0  0  0  0  0  # atno 8010 bound_to 7997
  140.6944  143.6371  150.8469 H   0  0  0  0  0  0  0  0  0  0  0  0  # atno 10167 bound_to 10162
  156.4335  130.8087  151.2315 H   0  0  0  0  0  0  0  0  0  0  0  0  # atno 10718 bound_to 10713
  153.0444  135.6494  154.0856 H   0  0  0  0  0  0  0  0  0  0  0  0  # atno 10763 bound_to 10752
  154.0556  135.2892  155.3335 H   0  0  0  0  0  0  0  0  0  0  0  0  # atno 10764 bound_to 10752
  154.6691  135.5363  153.8181 H   0  0  0  0  0  0  0  0  0  0  0  0  # atno 10765 bound_to 10752
  139.9219  134.9638  156.7932 H   0  0  0  0  0  0  0  0  0  0  0  0  # atno 11005 bound_to 11000
  145.0750  139.3002  143.5812 LP  0  0  0  0  0  0  0  0  0  0  0  0  # atno 17320 bound_to 7965
  146.3521  140.0238  142.8656 LP  0  0  0  0  0  0  0  0  0  0  0  0  # atno 17321 bound_to 7965
  140.0088  143.5665  152.2847 LP  0  0  0  0  0  0  0  0  0  0  0  0  # atno 17342 bound_to 10162
  139.6381  144.7652  151.2395 LP  0  0  0  0  0  0  0  0  0  0  0  0  # atno 17343 bound_to 10162
  157.7508  131.0191  150.3652 LP  0  0  0  0  0  0  0  0  0  0  0  0  # atno 17370 bound_to 10713
  156.3994  130.3913  149.6971 LP  0  0  0  0  0  0  0  0  0  0  0  0  # atno 17371 bound_to 10713
  140.6450  133.9784  155.7726 LP  0  0  0  0  0  0  0  0  0  0  0  0  # atno 17394 bound_to 11000
  141.0746  134.0154  157.3476 LP  0  0  0  0  0  0  0  0  0  0  0  0  # atno 17395 bound_to 11000

$$$$
