AV-unprocessed.smi:43|AV-procd|sdf|394|dock9
  -GOLD-   2262016253D 1   1.00000     0.00000
 Structure written by MMmdl.
 25 26  0  0  0  0  0  0  0  0  2 V2000
  152.5575  137.7332  158.5632 C   0  0  0  0  0  0  0  0  0  0  0  0
  151.1348  137.7683  158.8505 N   0  0  0  0  0  0  0  0  0  0  0  0
  150.5365  136.6677  159.3720 N   0  0  0  0  0  0  0  0  0  0  0  0
  149.2788  136.9570  159.5314 N   0  0  0  0  0  0  0  0  0  0  0  0
  149.0071  138.2465  159.1243 N   0  0  0  0  0  0  0  0  0  0  0  0
  150.1824  138.7111  158.7147 C   0  0  0  0  0  0  0  0  0  0  0  0
  150.4058  139.9965  158.2001 N   0  0  0  0  0  0  0  0  0  0  0  0
  149.4940  141.1425  158.1505 C   0  0  0  0  0  0  0  0  0  0  0  0
  150.1672  142.2632  157.3578 C   0  0  1  0  0  0  0  0  0  0  0  0
  149.7658  143.5475  157.7875 O   0  0  0  0  0  0  0  0  0  0  0  0
  151.6378  141.9948  157.6068 C   0  0  0  0  0  0  0  0  0  0  0  0
  151.6842  140.4636  157.6485 C   0  0  2  0  0  0  0  0  0  0  0  0
  151.9709  139.8495  156.2663 C   0  0  0  0  0  0  0  0  0  0  0  0
  151.1573  140.1138  155.3548 O   0  0  0  0  0  0  0  0  0  0  0  0
  152.9859  139.1277  156.1414 O   0  5  0  0  0  0  0  0  0  0  0  0
  149.9454  142.1558  156.2952 H   0  0  0  0  0  0  0  0  0  0  0  0
  152.4870  140.1563  158.3202 H   0  0  0  0  0  0  0  0  0  0  0  0
  153.0822  138.4378  159.2080 H   0  0  0  0  0  0  0  0  0  0  0  0
  152.7343  137.9847  157.5181 H   0  0  0  0  0  0  0  0  0  0  0  0
  152.9585  136.7356  158.7472 H   0  0  0  0  0  0  0  0  0  0  0  0
  148.5443  140.8803  157.6865 H   0  0  0  0  0  0  0  0  0  0  0  0
  149.2972  141.4620  159.1746 H   0  0  0  0  0  0  0  0  0  0  0  0
  149.1641  143.9005  157.1505 H   0  0  0  0  0  0  0  0  0  0  0  0
  152.2841  142.4364  156.8468 H   0  0  0  0  0  0  0  0  0  0  0  0
  151.9411  142.3941  158.5758 H   0  0  0  0  0  0  0  0  0  0  0  0
  1  2  1  0  0  0  0
  1 18  1  0  0  0  0
  1 19  1  0  0  0  0
  1 20  1  0  0  0  0
  2  6  1  0  0  0  0
  2  3  1  0  0  0  0
  3  4  2  0  0  0  0
  4  5  1  0  0  0  0
  5  6  2  0  0  0  0
  6  7  1  0  0  0  0
  7 12  1  0  0  0  0
  7  8  1  0  0  0  0
  8  9  1  0  0  0  0
  8 21  1  0  0  0  0
  8 22  1  0  0  0  0
  9 16  1  0  0  0  0
  9 10  1  0  0  0  0
  9 11  1  0  0  0  0
 10 23  1  0  0  0  0
 11 12  1  0  0  0  0
 11 24  1  0  0  0  0
 11 25  1  0  0  0  0
 12 17  1  0  0  0  0
 12 13  1  0  0  0  0
 13 14  2  0  0  0  0
 13 15  1  0  0  0  0
M  CHG  1  15  -1
M  END
> <s_m_source_file>
AV-unprocessed.smi

> <i_m_source_file_index>
43

> <i_lp_mmshare_version>
43012

> <i_f3d_flags>
0

> <s_epik_input>
W0NIM11uMW5ubmMxTjJbQ0gyXVtDQEhdKFtPSF0pW0NIMl1bQ0BIXTJDKD1PKVtPSF0=

> <s_epik_cmdline>
J2VwaWtfcHl0aG9uJywgJy1waCcsICc3LjAnLCAnLXRuJywgJzgnLCAnLW1hJywgJzIwMCcsICctbWV0YWxfYmluZGluZycsICctaW1hZScsICc8aW5maWxlLm1hZT4nLCAnLW9tYWUnLCAnPG91dGZpbGUubWFlPic=

> <r_lp_tautomer_probability>
1

> <r_epik_Ionization_Penalty>
0.000193127

> <r_epik_Ionization_Penalty_Charging>
0.000192933

> <r_epik_Ionization_Penalty_Neutral>
1.93728e-07

> <r_epik_State_Penalty>
-0

> <r_epik_Charging_Adjusted_Penalty>
0.000192933

> <i_epik_Tot_Q>
-1

> <i_epik_Tot_abs_Q>
1

> <r_epik_Metal_State_Penalty>
-0

> <b_epik_Metal_Only>
0

> <s_lp_Force_Field>
OPLS_2005

> <r_lp_Energy>
20.0951

> <b_lp_Chiralities_Consistent>
1

> <s_lp_Variant>
AV-unprocessed.smi:43-4

> <Gold.Version>
5.8.1

> <Gold.Id.Protein>
6NUR|6NUR_protein|mol2

> <Gold.PLP.Fitness>
35.9189

> <Gold.PLP.PLP>
-20.9645

> <Gold.PLP.part.hbond>
-5.3680

> <Gold.PLP.part.metal>
0.0000

> <Gold.PLP.part.buried>
-4.5386

> <Gold.PLP.part.nonpolar>
-11.0267

> <Gold.PLP.part.repulsive>
0.0284

> <Gold.PLP.ligand.clash>
0.0000

> <Gold.PLP.ligand.torsion>
0.0249

> <Gold.PLP.Chemscore.Hbond>
5.0000

> <Gold.PLP.Chemscore.CHOScore>
0.0000

> <Gold.PLP.Chemscore.Metal>
0.0000

> <Gold.Chemscore.Hbonds>
donor molecule, donor type, donor heavy atom, donor atom, acceptor molecule, acceptor atom, score
      L1  H    10    23       P1  8028  1.00
      P1  H  6896  6908       L1     3  1.00
      P1  H  7989  7998       L1    14  0.93
      P1  H  7997  8010       L1    15  2.00

> <Gold.PLP.Chemscore.Internal.Correction>
0.0041

> <Gold.Rescore>
     Score         DG    S(hbond)    S(metal)    S(lipo)     H(rot)  DE(clash)    DE(int)     intcor
     15.25     -15.65       3.40        0.00      26.96       1.69       0.01       0.39       ----

> <Gold.Chemscore.Fitness>
15.2526

> <Gold.Chemscore.DG>
-15.6529

> <Gold.Chemscore.ZeroCoef>
-5.4800

> <Gold.Chemscore.Hbond>
3.3957

> <Gold.Chemscore.Metal>
0.0000

> <Gold.Chemscore.Lipo>
26.9612

> <Gold.Chemscore.Internal_Hbond>
0.0000

> <Gold.Chemscore.DEClash>
0.0110

> <Gold.Chemscore.DEInternal>
0.3893

> <Gold.Chemscore.Rot>
1.6887

> <Gold.Chemscore.Internal.Correction>
   9.000000E+99

> <Gold.Chemscore.Hbonds>
donor molecule, donor type, donor heavy atom, donor atom, acceptor molecule, acceptor atom, score
      L1  H    10    23       P1  8028  0.28
      P1  H  6896  6908       L1     3  0.87
      P1  H  7989  7998       L1    14  0.87
      P1  H  7997  8010       L1    15  0.65

> <Gold.Chemscore.Hbond.Weighted>
-11.3416

> <Gold.Chemscore.Metal.Weighted>
-0.0000

> <Gold.Chemscore.Lipo.Weighted>
-3.1545

> <Gold.Chemscore.Internal_Hbond.Weighted>
0.0000

> <Gold.Chemscore.DEClash.Weighted>
0.0110

> <Gold.Chemscore.DEInternal.Weighted>
0.3893

> <Gold.Chemscore.Rot.Weighted>
4.3232

> <Gold.Chemscore.Internal.Correction.Weighted>
   9.000000E+99

> <Gold.Protein.RotatedTorsions>
[ 6907 6896 6895 6894 ] final -162.98 input  -60.11 | X-H torsion
[ 7974 7965 7964 7962 ] final -149.59 input  175.53 | X-H torsion
[ 8008 7997 7996 7995 ] final   76.26 input   59.86 | X-H torsion
[ 10167 10162 10161 10158 ] final    0.64 input  -65.29 | X-H torsion
[ 10718 10713 10712 10709 ] final  133.41 input   66.30 | X-H torsion
[ 10763 10752 10751 10750 ] final  102.63 input  -60.55 | X-H torsion
[ 11005 11000 10999 10996 ] final  -12.93 input  -57.11 | X-H torsion

> <Gold.Protein.ActiveResidues>
 VAL166  LYS551  ARG553  GLY616  TRP617  ASP618  TYR619  PRO620  LYS621  CYS622 
 ASP623  PHE694  ASN695  SER759  ASP760  ASP761  ALA762  ILE779  LEU786  VAL792 
 PHE793  MET794  SER795  GLU796  ALA797  LYS798  CYS799  TRP800  GLU811  SER814 

> <Gold.Protein.RotatedAtoms>
  151.3888  133.3796  159.2718 H   0  0  0  0  0  0  0  0  0  0  0  0  # atno 6907 bound_to 6896
  150.9521  134.8920  159.7689 H   0  0  0  0  0  0  0  0  0  0  0  0  # atno 6908 bound_to 6896
  152.5116  134.3844  159.9414 H   0  0  0  0  0  0  0  0  0  0  0  0  # atno 6909 bound_to 6896
  144.7958  140.5044  143.5741 H   0  0  0  0  0  0  0  0  0  0  0  0  # atno 7974 bound_to 7965
  155.8248  140.3468  155.5536 H   0  0  0  0  0  0  0  0  0  0  0  0  # atno 8008 bound_to 7997
  155.8304  140.0926  157.1816 H   0  0  0  0  0  0  0  0  0  0  0  0  # atno 8009 bound_to 7997
  154.4004  140.1413  156.3595 H   0  0  0  0  0  0  0  0  0  0  0  0  # atno 8010 bound_to 7997
  140.6719  143.7024  150.7941 H   0  0  0  0  0  0  0  0  0  0  0  0  # atno 10167 bound_to 10162
  157.4775  131.1084  150.9724 H   0  0  0  0  0  0  0  0  0  0  0  0  # atno 10718 bound_to 10713
  153.3422  135.4004  155.1580 H   0  0  0  0  0  0  0  0  0  0  0  0  # atno 10763 bound_to 10752
  154.8646  135.3636  154.5331 H   0  0  0  0  0  0  0  0  0  0  0  0  # atno 10764 bound_to 10752
  153.5777  135.7077  153.5536 H   0  0  0  0  0  0  0  0  0  0  0  0  # atno 10765 bound_to 10752
  140.7708  133.8440  155.9206 H   0  0  0  0  0  0  0  0  0  0  0  0  # atno 11005 bound_to 11000
  145.5677  139.1482  143.3306 LP  0  0  0  0  0  0  0  0  0  0  0  0  # atno 17320 bound_to 7965
  146.2226  140.5811  142.9010 LP  0  0  0  0  0  0  0  0  0  0  0  0  # atno 17321 bound_to 7965
  140.0711  143.5060  152.2579 LP  0  0  0  0  0  0  0  0  0  0  0  0  # atno 17342 bound_to 10162
  139.5992  144.7577  151.3213 LP  0  0  0  0  0  0  0  0  0  0  0  0  # atno 17343 bound_to 10162
  157.0468  130.5771  149.5364 LP  0  0  0  0  0  0  0  0  0  0  0  0  # atno 17370 bound_to 10713
  156.0104  130.5195  150.7970 LP  0  0  0  0  0  0  0  0  0  0  0  0  # atno 17371 bound_to 10713
  140.9575  134.1699  157.4680 LP  0  0  0  0  0  0  0  0  0  0  0  0  # atno 17394 bound_to 11000
  139.8756  134.9932  156.5635 LP  0  0  0  0  0  0  0  0  0  0  0  0  # atno 17395 bound_to 11000

$$$$
