AV-unprocessed.smi:2775|AV-procd|sdf|10697|dock6
  -GOLD-   2272015133D 1   1.00000     0.00000
 Structure written by MMmdl.
 43 46  0  0  0  0  0  0  0  0  2 V2000
  144.0974  132.4355  150.3631 C   0  0  0  0  0  0  0  0  0  0  0  0
  144.1511  133.6713  151.2408 C   0  0  0  0  0  0  0  0  0  0  0  0
  142.9784  134.2270  151.6169 N   0  3  0  0  0  0  0  0  0  0  0  0
  142.9020  135.3217  152.4014 C   0  0  0  0  0  0  0  0  0  0  0  0
  144.0803  135.9409  152.8618 C   0  0  0  0  0  0  0  0  0  0  0  0
  145.3398  135.4086  152.4853 C   0  0  0  0  0  0  0  0  0  0  0  0
  146.5833  135.9532  152.9104 N   0  0  0  0  0  0  0  0  0  0  0  0
  146.8617  136.7397  153.9679 C   0  0  0  0  0  0  0  0  0  0  0  0
  146.0326  137.1557  154.7734 O   0  0  0  0  0  0  0  0  0  0  0  0
  148.1618  137.0642  154.0735 N   0  0  0  0  0  0  0  0  0  0  0  0
  148.7878  137.8969  155.1008 C   0  0  1  0  0  0  0  0  0  0  0  0
  150.2289  138.2734  154.7521 C   0  0  2  0  0  0  0  0  0  0  0  0
  151.5581  137.8868  155.2930 C   0  0  0  0  0  0  0  0  0  0  0  0
  152.1884  139.3023  155.3279 C   0  0  0  0  0  0  0  0  0  0  0  0
  151.1064  140.2232  155.0467 O   0  0  0  0  0  0  0  0  0  0  0  0
  149.9494  139.5583  155.5164 C   0  0  1  0  0  0  0  0  0  0  0  0
  148.5370  139.4340  154.9301 C   0  0  0  0  0  0  0  0  0  0  0  0
  147.3373  140.1313  155.5824 C   0  0  0  0  0  0  0  0  0  0  0  0
  146.7440  140.3302  154.1832 C   0  0  0  0  0  0  0  0  0  0  0  0
  148.1411  140.0983  153.5983 C   0  0  0  0  0  0  0  0  0  0  0  0
  145.3689  134.2485  151.6718 C   0  0  0  0  0  0  0  0  0  0  0  0
  146.8789  133.5408  151.2030 Cl  0  0  0  0  0  0  0  0  0  0  0  0
  144.6176  132.6154  149.4219 H   0  0  0  0  0  0  0  0  0  0  0  0
  143.0693  132.1537  150.1329 H   0  0  0  0  0  0  0  0  0  0  0  0
  144.5744  131.5935  150.8649 H   0  0  0  0  0  0  0  0  0  0  0  0
  141.9061  135.6652  152.6404 H   0  0  0  0  0  0  0  0  0  0  0  0
  143.9893  136.8031  153.5035 H   0  0  0  0  0  0  0  0  0  0  0  0
  147.3648  135.7549  152.3025 H   0  0  0  0  0  0  0  0  0  0  0  0
  148.7810  136.6990  153.3640 H   0  0  0  0  0  0  0  0  0  0  0  0
  148.6766  137.5303  156.1251 H   0  0  0  0  0  0  0  0  0  0  0  0
  150.3124  138.4491  153.6730 H   0  0  0  0  0  0  0  0  0  0  0  0
  151.4815  137.4486  156.2890 H   0  0  0  0  0  0  0  0  0  0  0  0
  152.0993  137.2017  154.6399 H   0  0  0  0  0  0  0  0  0  0  0  0
  152.6198  139.5103  156.3078 H   0  0  0  0  0  0  0  0  0  0  0  0
  152.9730  139.4196  154.5800 H   0  0  0  0  0  0  0  0  0  0  0  0
  149.9630  139.4403  156.6052 H   0  0  0  0  0  0  0  0  0  0  0  0
  146.7425  139.5013  156.2436 H   0  0  0  0  0  0  0  0  0  0  0  0
  147.6091  141.0733  156.0608 H   0  0  0  0  0  0  0  0  0  0  0  0
  146.0362  139.5472  153.9084 H   0  0  0  0  0  0  0  0  0  0  0  0
  146.3351  141.3245  154.0011 H   0  0  0  0  0  0  0  0  0  0  0  0
  148.6805  141.0298  153.4204 H   0  0  0  0  0  0  0  0  0  0  0  0
  148.1644  139.4500  152.7221 H   0  0  0  0  0  0  0  0  0  0  0  0
  142.1106  133.7960  151.2970 H   0  0  0  0  0  0  0  0  0  0  0  0
  1  2  1  0  0  0  0
  1 23  1  0  0  0  0
  1 24  1  0  0  0  0
  1 25  1  0  0  0  0
  2 21  1  0  0  0  0
  2  3  2  0  0  0  0
  3  4  1  0  0  0  0
  3 43  1  0  0  0  0
  4  5  2  0  0  0  0
  4 26  1  0  0  0  0
  5  6  1  0  0  0  0
  5 27  1  0  0  0  0
  6  7  1  0  0  0  0
  6 21  2  0  0  0  0
  7  8  1  0  0  0  0
  7 28  1  0  0  0  0
  8  9  2  0  0  0  0
  8 10  1  0  0  0  0
 10 11  1  0  0  0  0
 10 29  1  0  0  0  0
 11 17  1  0  0  0  0
 11 12  1  0  0  0  0
 11 30  1  0  0  0  0
 12 16  1  0  0  0  0
 12 13  1  0  0  0  0
 12 31  1  0  0  0  0
 13 14  1  0  0  0  0
 13 32  1  0  0  0  0
 13 33  1  0  0  0  0
 14 15  1  0  0  0  0
 14 34  1  0  0  0  0
 14 35  1  0  0  0  0
 15 16  1  0  0  0  0
 16 17  1  0  0  0  0
 16 36  1  0  0  0  0
 17 20  1  0  0  0  0
 17 18  1  0  0  0  0
 18 19  1  0  0  0  0
 18 37  1  0  0  0  0
 18 38  1  0  0  0  0
 19 20  1  0  0  0  0
 19 39  1  0  0  0  0
 19 40  1  0  0  0  0
 20 41  1  0  0  0  0
 20 42  1  0  0  0  0
 21 22  1  0  0  0  0
M  CHG  1   3   1
M  END
> <s_m_source_file>
AV-unprocessed.smi

> <i_m_source_file_index>
2775

> <i_lp_mmshare_version>
43012

> <i_f3d_flags>
0

> <s_epik_input>
W0NIM11jMW5bY0hdW2NIXWMoYzFDbClbTkhdQyg9TylbTkhdW0NAQEhdMltDQEhdKFtDSDJdW0NIMl1PMylbQ0BASF0zQzI0W0NIMl1bQ0gyXVtDSDJdNA==

> <s_epik_cmdline>
J2VwaWtfcHl0aG9uJywgJy1waCcsICc3LjAnLCAnLXRuJywgJzgnLCAnLW1hJywgJzIwMCcsICctbWV0YWxfYmluZGluZycsICctaW1hZScsICc8aW5maWxlLm1hZT4nLCAnLW9tYWUnLCAnPG91dGZpbGUubWFlPic=

> <r_epik_Ionization_Penalty>
2.4104

> <r_epik_Ionization_Penalty_Charging>
2.41038

> <r_epik_Ionization_Penalty_Neutral>
1.9872e-05

> <r_epik_State_Penalty>
2.56896

> <r_epik_Charging_Adjusted_Penalty>
4.97934

> <i_epik_Tot_Q>
1

> <i_epik_Tot_abs_Q>
1

> <r_epik_Metal_State_Penalty>
2.57906

> <b_epik_Metal_Only>
0

> <s_lp_Force_Field>
OPLS_2005

> <r_lp_Energy>
84.4101

> <b_lp_Chiralities_Consistent>
1

> <s_lp_Variant>
AV-unprocessed.smi:2775-10

> <Gold.Version>
5.8.1

> <Gold.Id.Protein>
6NUR|6NUR_protein|mol2

> <Gold.PLP.Fitness>
41.0503

> <Gold.PLP.PLP>
-29.1926

> <Gold.PLP.part.hbond>
-3.7759

> <Gold.PLP.part.metal>
0.0000

> <Gold.PLP.part.buried>
-2.2745

> <Gold.PLP.part.nonpolar>
-22.8170

> <Gold.PLP.part.repulsive>
0.1086

> <Gold.PLP.ligand.clash>
0.0000

> <Gold.PLP.ligand.torsion>
0.2663

> <Gold.PLP.Chemscore.Hbond>
4.0240

> <Gold.PLP.Chemscore.CHOScore>
0.0000

> <Gold.PLP.Chemscore.Metal>
0.0000

> <Gold.Chemscore.Hbonds>
donor molecule, donor type, donor heavy atom, donor atom, acceptor molecule, acceptor atom, score
      L1  H     3    43       P1 10186  0.69
      L1  H     7    28       P1  7948  0.93
      L1  H    10    29       P1  7948  0.96
      P1  H  7989  7998       L1    15  1.00

> <Gold.PLP.Chemscore.Internal.Correction>
0.3183

> <Gold.Rescore>
     Score         DG    S(hbond)    S(metal)    S(lipo)     H(rot)  DE(clash)    DE(int)     intcor
     19.28     -22.00       2.72        0.00      85.46       1.00       1.58       1.14       ----

> <Gold.Chemscore.Fitness>
19.2753

> <Gold.Chemscore.DG>
-21.9966

> <Gold.Chemscore.ZeroCoef>
-5.4800

> <Gold.Chemscore.Hbond>
2.7181

> <Gold.Chemscore.Metal>
0.0000

> <Gold.Chemscore.Lipo>
85.4553

> <Gold.Chemscore.Internal_Hbond>
0.0000

> <Gold.Chemscore.DEClash>
1.5831

> <Gold.Chemscore.DEInternal>
1.1382

> <Gold.Chemscore.Rot>
1.0000

> <Gold.Chemscore.Internal.Correction>
   9.000000E+99

> <Gold.Chemscore.Hbonds>
donor molecule, donor type, donor heavy atom, donor atom, acceptor molecule, acceptor atom, score
      L1  H     3    43       P1 10186  0.08
      L1  H     7    28       P1  7948  0.90
      L1  H    10    29       P1  7948  0.90
      P1  H  7989  7998       L1    15  0.25

> <Gold.Chemscore.Hbond.Weighted>
-9.0783

> <Gold.Chemscore.Metal.Weighted>
-0.0000

> <Gold.Chemscore.Lipo.Weighted>
-9.9983

> <Gold.Chemscore.Internal_Hbond.Weighted>
0.0000

> <Gold.Chemscore.DEClash.Weighted>
1.5831

> <Gold.Chemscore.DEInternal.Weighted>
1.1382

> <Gold.Chemscore.Rot.Weighted>
2.5600

> <Gold.Chemscore.Internal.Correction.Weighted>
   9.000000E+99

> <Gold.Protein.RotatedTorsions>
[ 6907 6896 6895 6894 ] final  123.04 input  -60.11 | X-H torsion
[ 7974 7965 7964 7962 ] final  -65.33 input  175.53 | X-H torsion
[ 8008 7997 7996 7995 ] final   64.06 input   59.86 | X-H torsion
[ 10167 10162 10161 10158 ] final  -23.35 input  -65.29 | X-H torsion
[ 10718 10713 10712 10709 ] final  -89.01 input   66.30 | X-H torsion
[ 10763 10752 10751 10750 ] final  -88.71 input  -60.55 | X-H torsion
[ 11005 11000 10999 10996 ] final -128.51 input  -57.11 | X-H torsion

> <Gold.Protein.ActiveResidues>
 VAL166  LYS551  ARG553  GLY616  TRP617  ASP618  TYR619  PRO620  LYS621  CYS622 
 ASP623  PHE694  ASN695  SER759  ASP760  ASP761  ALA762  ILE779  LEU786  VAL792 
 PHE793  MET794  SER795  GLU796  ALA797  LYS798  CYS799  TRP800  GLU811  SER814 

> <Gold.Protein.RotatedAtoms>
  152.4194  133.7092  159.6468 H   0  0  0  0  0  0  0  0  0  0  0  0  # atno 6907 bound_to 6896
  150.8071  133.8480  159.3206 H   0  0  0  0  0  0  0  0  0  0  0  0  # atno 6908 bound_to 6896
  151.6201  135.1035  160.0151 H   0  0  0  0  0  0  0  0  0  0  0  0  # atno 6909 bound_to 6896
  145.7556  140.8887  143.0457 H   0  0  0  0  0  0  0  0  0  0  0  0  # atno 7974 bound_to 7965
  155.6401  140.3497  155.4712 H   0  0  0  0  0  0  0  0  0  0  0  0  # atno 8008 bound_to 7997
  155.9933  140.1198  157.0641 H   0  0  0  0  0  0  0  0  0  0  0  0  # atno 8009 bound_to 7997
  154.4226  140.1115  156.5582 H   0  0  0  0  0  0  0  0  0  0  0  0  # atno 8010 bound_to 7997
  140.7288  143.4451  151.0598 H   0  0  0  0  0  0  0  0  0  0  0  0  # atno 10167 bound_to 10162
  155.9984  130.4856  150.5106 H   0  0  0  0  0  0  0  0  0  0  0  0  # atno 10718 bound_to 10713
  154.6475  135.5367  153.7862 H   0  0  0  0  0  0  0  0  0  0  0  0  # atno 10763 bound_to 10752
  153.0367  135.6474  154.1067 H   0  0  0  0  0  0  0  0  0  0  0  0  # atno 10764 bound_to 10752
  154.0987  135.2935  155.3236 H   0  0  0  0  0  0  0  0  0  0  0  0  # atno 10765 bound_to 10752
  140.9510  134.1066  157.4062 H   0  0  0  0  0  0  0  0  0  0  0  0  # atno 11005 bound_to 11000
  144.6841  139.9651  143.7481 LP  0  0  0  0  0  0  0  0  0  0  0  0  # atno 17320 bound_to 7965
  146.0314  139.3338  143.0753 LP  0  0  0  0  0  0  0  0  0  0  0  0  # atno 17321 bound_to 7965
  139.8122  143.7935  152.3172 LP  0  0  0  0  0  0  0  0  0  0  0  0  # atno 17342 bound_to 10162
  139.7988  144.7382  150.9853 LP  0  0  0  0  0  0  0  0  0  0  0  0  # atno 17343 bound_to 10162
  157.3080  131.0658  151.2021 LP  0  0  0  0  0  0  0  0  0  0  0  0  # atno 17370 bound_to 10713
  157.2977  130.6827  149.6147 LP  0  0  0  0  0  0  0  0  0  0  0  0  # atno 17371 bound_to 10713
  139.8847  135.0066  156.6389 LP  0  0  0  0  0  0  0  0  0  0  0  0  # atno 17394 bound_to 11000
  140.7603  133.8823  155.8413 LP  0  0  0  0  0  0  0  0  0  0  0  0  # atno 17395 bound_to 11000

$$$$
