AV-unprocessed.smi:2971|AV-procd|sdf|11332|dock6
  -GOLD-   2272016243D 1   1.00000     0.00000
 Structure written by MMmdl.
 36 38  0  0  0  0  0  0  0  0  1 V2000
  149.9481  142.5952  155.5801 O   0  0  0  0  0  0  0  0  0  0  0  0
  149.6709  141.3070  156.0946 C   0  0  2  0  0  0  0  0  0  0  0  0
  148.4125  140.7652  155.3984 C   0  0  0  0  0  0  0  0  0  0  0  0
  147.2633  141.2870  156.0527 O   0  0  0  0  0  0  0  0  0  0  0  0
  146.5488  142.2858  155.4249 C   0  0  0  0  0  0  0  0  0  0  0  0
  146.8085  142.7407  154.1066 C   0  0  0  0  0  0  0  0  0  0  0  0
  146.0290  143.7676  153.5394 C   0  0  0  0  0  0  0  0  0  0  0  0
  144.9845  144.3529  154.2782 C   0  0  0  0  0  0  0  0  0  0  0  0
  144.7199  143.9092  155.5869 C   0  0  0  0  0  0  0  0  0  0  0  0
  145.4977  142.8813  156.1548 C   0  0  0  0  0  0  0  0  0  0  0  0
  145.2310  142.4624  157.4151 F   0  0  0  0  0  0  0  0  0  0  0  0
  149.4834  141.4075  157.6211 C   0  0  0  0  0  0  0  0  0  0  0  0
  150.5713  142.1161  158.2722 N   0  0  0  0  0  0  0  0  0  0  0  0
  150.7325  143.4507  158.3536 C   0  0  0  0  0  0  0  0  0  0  0  0
  151.8087  143.8973  158.9946 N   0  0  0  0  0  0  0  0  0  0  0  0
  152.4178  142.7136  159.3751 C   0  0  0  0  0  0  0  0  0  0  0  0
  153.6135  142.4876  160.0941 C   0  0  0  0  0  0  0  0  0  0  0  0
  154.0440  141.1729  160.3694 C   0  0  0  0  0  0  0  0  0  0  0  0
  153.2869  140.0662  159.9328 C   0  0  0  0  0  0  0  0  0  0  0  0
  152.0924  140.2665  159.2146 C   0  0  0  0  0  0  0  0  0  0  0  0
  151.6675  141.5796  158.9395 C   0  0  0  0  0  0  0  0  0  0  0  0
  150.1540  142.5116  154.6614 H   0  0  0  0  0  0  0  0  0  0  0  0
  150.5170  140.6513  155.8838 H   0  0  0  0  0  0  0  0  0  0  0  0
  148.4002  141.1056  154.3616 H   0  0  0  0  0  0  0  0  0  0  0  0
  148.4136  139.6735  155.3911 H   0  0  0  0  0  0  0  0  0  0  0  0
  147.6009  142.3186  153.5080 H   0  0  0  0  0  0  0  0  0  0  0  0
  146.2340  144.1068  152.5346 H   0  0  0  0  0  0  0  0  0  0  0  0
  144.3875  145.1404  153.8422 H   0  0  0  0  0  0  0  0  0  0  0  0
  143.9192  144.3572  156.1567 H   0  0  0  0  0  0  0  0  0  0  0  0
  148.5443  141.9087  157.8601 H   0  0  0  0  0  0  0  0  0  0  0  0
  149.4219  140.4103  158.0589 H   0  0  0  0  0  0  0  0  0  0  0  0
  150.0187  144.1332  157.9159 H   0  0  0  0  0  0  0  0  0  0  0  0
  154.2005  143.3277  160.4346 H   0  0  0  0  0  0  0  0  0  0  0  0
  154.9596  141.0125  160.9192 H   0  0  0  0  0  0  0  0  0  0  0  0
  153.6234  139.0632  160.1506 H   0  0  0  0  0  0  0  0  0  0  0  0
  151.5077  139.4219  158.8815 H   0  0  0  0  0  0  0  0  0  0  0  0
  1  2  1  0  0  0  0
  1 22  1  0  0  0  0
  2  3  1  0  0  0  0
  2 12  1  0  0  0  0
  2 23  1  0  0  0  0
  3  4  1  0  0  0  0
  3 24  1  0  0  0  0
  3 25  1  0  0  0  0
  4  5  1  0  0  0  0
  5 10  1  0  0  0  0
  5  6  2  0  0  0  0
  6  7  1  0  0  0  0
  6 26  1  0  0  0  0
  7  8  2  0  0  0  0
  7 27  1  0  0  0  0
  8  9  1  0  0  0  0
  8 28  1  0  0  0  0
  9 10  2  0  0  0  0
  9 29  1  0  0  0  0
 10 11  1  0  0  0  0
 12 13  1  0  0  0  0
 12 30  1  0  0  0  0
 12 31  1  0  0  0  0
 13 21  1  0  0  0  0
 13 14  1  0  0  0  0
 14 15  2  0  0  0  0
 14 32  1  0  0  0  0
 15 16  1  0  0  0  0
 16 21  2  0  0  0  0
 16 17  1  0  0  0  0
 17 18  2  0  0  0  0
 17 33  1  0  0  0  0
 18 19  1  0  0  0  0
 18 34  1  0  0  0  0
 19 20  2  0  0  0  0
 19 35  1  0  0  0  0
 20 21  1  0  0  0  0
 20 36  1  0  0  0  0
M  END
> <s_m_source_file>
AV-unprocessed.smi

> <i_m_source_file_index>
2971

> <i_lp_mmshare_version>
43012

> <i_f3d_flags>
0

> <s_epik_input>
W2NIXTFbY0hdW2NIXVtjSF1jKGMxMiluKFtjSF1uMilbQ0gyXVtDQEhdKFtPSF0pW0NIMl1PYzNbY0hdW2NIXVtjSF1bY0hdYzNG

> <s_epik_cmdline>
J2VwaWtfcHl0aG9uJywgJy1waCcsICc3LjAnLCAnLXRuJywgJzgnLCAnLW1hJywgJzIwMCcsICctbWV0YWxfYmluZGluZycsICctaW1hZScsICc8aW5maWxlLm1hZT4nLCAnLW9tYWUnLCAnPG91dGZpbGUubWFlPic=

> <r_lp_tautomer_probability>
1

> <r_epik_Ionization_Penalty>
0.0600913

> <r_epik_Ionization_Penalty_Charging>
0

> <r_epik_Ionization_Penalty_Neutral>
0.0600913

> <r_epik_State_Penalty>
0.0520726

> <r_epik_Charging_Adjusted_Penalty>
0.0520726

> <i_epik_Tot_Q>
0

> <i_epik_Tot_abs_Q>
0

> <r_epik_Metal_State_Penalty>
5.44269e-05

> <b_epik_Metal_Only>
0

> <s_lp_Force_Field>
OPLS_2005

> <r_lp_Energy>
16.3694

> <b_lp_Chiralities_Consistent>
1

> <s_lp_Variant>
AV-unprocessed.smi:2971-1

> <Gold.Version>
5.8.1

> <Gold.Id.Protein>
6NUR|6NUR_protein|mol2

> <Gold.PLP.Fitness>
42.6219

> <Gold.PLP.PLP>
-41.0103

> <Gold.PLP.part.hbond>
-0.3767

> <Gold.PLP.part.metal>
0.0000

> <Gold.PLP.part.buried>
-7.1872

> <Gold.PLP.part.nonpolar>
-33.4874

> <Gold.PLP.part.repulsive>
0.1117

> <Gold.PLP.ligand.clash>
0.0000

> <Gold.PLP.ligand.torsion>
0.9341

> <Gold.PLP.Chemscore.Hbond>
0.0000

> <Gold.PLP.Chemscore.CHOScore>
1.1324

> <Gold.PLP.Chemscore.Metal>
0.0000

> <Gold.Chemscore.Hbonds>
donor molecule, donor type, donor heavy atom, donor atom, acceptor molecule, acceptor atom, score
      L1  C    14    32       P1  8028  0.92
      L1  C    14    32       P1  8029  0.07

> <Gold.PLP.Chemscore.Internal.Correction>
0.0825

> <Gold.Rescore>
     Score         DG    S(hbond)    S(metal)    S(lipo)     H(rot)  DE(clash)    DE(int)     intcor
     10.85     -11.75       0.00        0.00     105.52       2.37       0.02       0.88       ----

> <Gold.Chemscore.Fitness>
10.8503

> <Gold.Chemscore.DG>
-11.7500

> <Gold.Chemscore.ZeroCoef>
-5.4800

> <Gold.Chemscore.Hbond>
0.0000

> <Gold.Chemscore.Metal>
0.0000

> <Gold.Chemscore.Lipo>
105.5228

> <Gold.Chemscore.Internal_Hbond>
0.0000

> <Gold.Chemscore.DEClash>
0.0202

> <Gold.Chemscore.DEInternal>
0.8794

> <Gold.Chemscore.Rot>
2.3735

> <Gold.Chemscore.Internal.Correction>
   9.000000E+99

> <Gold.Chemscore.Hbond.Weighted>
-0.0000

> <Gold.Chemscore.Metal.Weighted>
-0.0000

> <Gold.Chemscore.Lipo.Weighted>
-12.3462

> <Gold.Chemscore.Internal_Hbond.Weighted>
0.0000

> <Gold.Chemscore.DEClash.Weighted>
0.0202

> <Gold.Chemscore.DEInternal.Weighted>
0.8794

> <Gold.Chemscore.Rot.Weighted>
6.0762

> <Gold.Chemscore.Internal.Correction.Weighted>
   9.000000E+99

> <Gold.Protein.RotatedTorsions>
[ 6907 6896 6895 6894 ] final  -53.68 input  -60.11 | X-H torsion
[ 7974 7965 7964 7962 ] final -131.90 input  175.53 | X-H torsion
[ 8008 7997 7996 7995 ] final  147.86 input   59.86 | X-H torsion
[ 10167 10162 10161 10158 ] final   77.61 input  -65.29 | X-H torsion
[ 10718 10713 10712 10709 ] final -166.30 input   66.30 | X-H torsion
[ 10763 10752 10751 10750 ] final  -40.26 input  -60.55 | X-H torsion
[ 11005 11000 10999 10996 ] final  -73.35 input  -57.11 | X-H torsion

> <Gold.Protein.ActiveResidues>
 VAL166  LYS551  ARG553  GLY616  TRP617  ASP618  TYR619  PRO620  LYS621  CYS622 
 ASP623  PHE694  ASN695  SER759  ASP760  ASP761  ALA762  ILE779  LEU786  VAL792 
 PHE793  MET794  SER795  GLU796  ALA797  LYS798  CYS799  TRP800  GLU811  SER814 

> <Gold.Protein.RotatedAtoms>
  150.8405  134.7695  159.6928 H   0  0  0  0  0  0  0  0  0  0  0  0  # atno 6907 bound_to 6896
  152.4493  134.5423  159.9852 H   0  0  0  0  0  0  0  0  0  0  0  0  # atno 6908 bound_to 6896
  151.5564  133.3372  159.2998 H   0  0  0  0  0  0  0  0  0  0  0  0  # atno 6909 bound_to 6896
  144.9336  140.7157  143.4890 H   0  0  0  0  0  0  0  0  0  0  0  0  # atno 7974 bound_to 7965
  156.2811  140.2144  156.5605 H   0  0  0  0  0  0  0  0  0  0  0  0  # atno 8008 bound_to 7997
  154.7217  140.0503  157.0668 H   0  0  0  0  0  0  0  0  0  0  0  0  # atno 8009 bound_to 7997
  155.0470  140.3152  155.4708 H   0  0  0  0  0  0  0  0  0  0  0  0  # atno 8010 bound_to 7997
  139.9797  144.5835  150.7911 H   0  0  0  0  0  0  0  0  0  0  0  0  # atno 10167 bound_to 10162
  156.6658  130.9064  151.3036 H   0  0  0  0  0  0  0  0  0  0  0  0  # atno 10718 bound_to 10713
  153.9430  135.6759  153.4744 H   0  0  0  0  0  0  0  0  0  0  0  0  # atno 10763 bound_to 10752
  153.0922  135.4869  154.8708 H   0  0  0  0  0  0  0  0  0  0  0  0  # atno 10764 bound_to 10752
  154.7367  135.3151  154.8758 H   0  0  0  0  0  0  0  0  0  0  0  0  # atno 10765 bound_to 10752
  141.1621  133.6875  156.7199 H   0  0  0  0  0  0  0  0  0  0  0  0  # atno 11005 bound_to 11000
  145.3102  139.1821  143.4642 LP  0  0  0  0  0  0  0  0  0  0  0  0  # atno 17320 bound_to 7965
  146.3257  140.3106  142.8626 LP  0  0  0  0  0  0  0  0  0  0  0  0  # atno 17321 bound_to 7965
  140.7493  143.2937  151.3263 LP  0  0  0  0  0  0  0  0  0  0  0  0  # atno 17342 bound_to 10162
  139.6419  144.0524  152.2561 LP  0  0  0  0  0  0  0  0  0  0  0  0  # atno 17343 bound_to 10162
  157.7094  130.9422  150.1038 LP  0  0  0  0  0  0  0  0  0  0  0  0  # atno 17370 bound_to 10713
  156.1976  130.3658  149.8829 LP  0  0  0  0  0  0  0  0  0  0  0  0  # atno 17371 bound_to 10713
  140.2824  134.8306  157.3945 LP  0  0  0  0  0  0  0  0  0  0  0  0  # atno 17394 bound_to 11000
  140.1421  134.4958  155.8024 LP  0  0  0  0  0  0  0  0  0  0  0  0  # atno 17395 bound_to 11000

$$$$
