AV-unprocessed.smi:2845|AV-procd|sdf|10948|dock7
  -GOLD-   2272015403D 1   1.00000     0.00000
 Structure written by MMmdl.
 43 45  0  0  0  0  0  0  0  0  2 V2000
  152.2970  144.9889  160.1223 C   0  0  0  0  0  0  0  0  0  0  0  0
  152.0252  143.7871  159.2336 C   0  0  0  0  0  0  0  0  0  0  0  0
  151.1699  143.9505  158.1200 C   0  0  0  0  0  0  0  0  0  0  0  0
  150.9424  142.8331  157.3253 C   0  0  0  0  0  0  0  0  0  0  0  0
  150.1647  142.6672  156.1765 N   0  3  0  0  0  0  0  0  0  0  0  0
  150.2573  141.3779  155.7463 C   0  0  0  0  0  0  0  0  0  0  0  0
  151.0800  140.7185  156.6062 N   0  0  0  0  0  0  0  0  0  0  0  0
  151.5255  139.3200  156.6115 C   0  0  0  0  0  0  0  0  0  0  0  0
  152.2227  138.9166  155.2942 C   0  0  1  0  0  0  0  0  0  0  0  0
  153.5270  138.4523  155.5770 O   0  0  0  0  0  0  0  0  0  0  0  0
  151.4666  137.8288  154.5034 C   0  0  0  0  0  0  0  0  0  0  0  0
  151.1930  136.6388  155.2918 N   0  0  0  0  0  0  0  0  0  0  0  0
  151.6117  136.2901  156.5124 C   0  0  0  0  0  0  0  0  0  0  0  0
  151.1611  135.1107  156.9216 N   0  0  0  0  0  0  0  0  0  0  0  0
  150.4356  134.7660  155.8186 C   0  0  0  0  0  0  0  0  0  0  0  0
  149.4838  133.2168  155.7445 S   0  0  1  0  0  0  0  0  0  0  0  0
  149.3220  133.2045  153.8974 C   0  0  0  0  0  0  0  0  0  0  0  0
  150.4658  132.1010  156.1087 O   0  0  0  0  0  0  0  0  0  0  0  0
  150.4340  135.6279  154.8049 N   0  0  0  0  0  0  0  0  0  0  0  0
  151.5323  141.5859  157.6059 C   0  0  0  0  0  0  0  0  0  0  0  0
  152.3762  141.4069  158.6994 C   0  0  0  0  0  0  0  0  0  0  0  0
  152.6198  142.5307  159.5200 C   0  0  0  0  0  0  0  0  0  0  0  0
  153.5353  142.3649  160.7209 C   0  0  0  0  0  0  0  0  0  0  0  0
  151.7594  145.8721  159.7755 H   0  0  0  0  0  0  0  0  0  0  0  0
  153.3609  145.2274  160.1278 H   0  0  0  0  0  0  0  0  0  0  0  0
  151.9814  144.7881  161.1465 H   0  0  0  0  0  0  0  0  0  0  0  0
  150.7136  144.9039  157.8966 H   0  0  0  0  0  0  0  0  0  0  0  0
  149.7668  140.9555  154.8809 H   0  0  0  0  0  0  0  0  0  0  0  0
  152.2021  139.1877  157.4570 H   0  0  0  0  0  0  0  0  0  0  0  0
  150.6554  138.6955  156.8161 H   0  0  0  0  0  0  0  0  0  0  0  0
  152.3306  139.7960  154.6580 H   0  0  0  0  0  0  0  0  0  0  0  0
  153.9244  138.1658  154.7690 H   0  0  0  0  0  0  0  0  0  0  0  0
  150.5155  138.2176  154.1374 H   0  0  0  0  0  0  0  0  0  0  0  0
  152.0447  137.5324  153.6268 H   0  0  0  0  0  0  0  0  0  0  0  0
  152.2508  136.9158  157.1181 H   0  0  0  0  0  0  0  0  0  0  0  0
  148.9724  134.1717  153.5355 H   0  0  0  0  0  0  0  0  0  0  0  0
  148.6074  132.4419  153.5888 H   0  0  0  0  0  0  0  0  0  0  0  0
  150.2836  132.9870  153.4328 H   0  0  0  0  0  0  0  0  0  0  0  0
  152.8273  140.4508  158.9188 H   0  0  0  0  0  0  0  0  0  0  0  0
  153.9073  141.3436  160.8003 H   0  0  0  0  0  0  0  0  0  0  0  0
  153.0030  142.5960  161.6438 H   0  0  0  0  0  0  0  0  0  0  0  0
  154.3972  143.0275  160.6409 H   0  0  0  0  0  0  0  0  0  0  0  0
  149.6124  143.3800  155.7170 H   0  0  0  0  0  0  0  0  0  0  0  0
  1  2  1  0  0  0  0
  1 24  1  0  0  0  0
  1 25  1  0  0  0  0
  1 26  1  0  0  0  0
  2 22  1  0  0  0  0
  2  3  2  0  0  0  0
  3  4  1  0  0  0  0
  3 27  1  0  0  0  0
  4 20  2  0  0  0  0
  4  5  1  0  0  0  0
  5  6  2  0  0  0  0
  5 43  1  0  0  0  0
  6  7  1  0  0  0  0
  6 28  1  0  0  0  0
  7  8  1  0  0  0  0
  7 20  1  0  0  0  0
  8  9  1  0  0  0  0
  8 29  1  0  0  0  0
  8 30  1  0  0  0  0
  9 10  1  0  0  0  0
  9 11  1  0  0  0  0
  9 31  1  0  0  0  0
 10 32  1  0  0  0  0
 11 12  1  0  0  0  0
 11 33  1  0  0  0  0
 11 34  1  0  0  0  0
 12 19  1  0  0  0  0
 12 13  1  0  0  0  0
 13 14  2  0  0  0  0
 13 35  1  0  0  0  0
 14 15  1  0  0  0  0
 15 16  1  0  0  0  0
 15 19  2  0  0  0  0
 16 17  1  0  0  0  0
 16 18  2  0  0  0  0
 17 36  1  0  0  0  0
 17 37  1  0  0  0  0
 17 38  1  0  0  0  0
 20 21  1  0  0  0  0
 21 22  2  0  0  0  0
 21 39  1  0  0  0  0
 22 23  1  0  0  0  0
 23 40  1  0  0  0  0
 23 41  1  0  0  0  0
 23 42  1  0  0  0  0
M  CHG  1   5   1
M  END
> <s_m_source_file>
AV-unprocessed.smi

> <i_m_source_file_index>
2845

> <i_lp_mmshare_version>
43012

> <i_f3d_flags>
0

> <s_epik_input>
W0NIM11jKFtjSF0xKWMoW0NIM10pW2NIXWMoYzEyKW4oW2NIXW4yKVtDSDJdW0NASF0oW09IXSlbQ0gyXW4zW2NIXW5jKG4zKVtTQF0oPU8pW0NIM10=

> <s_epik_cmdline>
J2VwaWtfcHl0aG9uJywgJy1waCcsICc3LjAnLCAnLXRuJywgJzgnLCAnLW1hJywgJzIwMCcsICctbWV0YWxfYmluZGluZycsICctaW1hZScsICc8aW5maWxlLm1hZT4nLCAnLW9tYWUnLCAnPG91dGZpbGUubWFlPic=

> <r_lp_tautomer_probability>
1

> <r_epik_Ionization_Penalty>
1.12076

> <r_epik_Ionization_Penalty_Charging>
1.12075

> <r_epik_Ionization_Penalty_Neutral>
1.54566e-06

> <r_epik_State_Penalty>
1.17957

> <r_epik_Charging_Adjusted_Penalty>
2.30033

> <i_epik_Tot_Q>
1

> <i_epik_Tot_abs_Q>
1

> <r_epik_Metal_State_Penalty>
1.26402

> <b_epik_Metal_Only>
0

> <s_lp_Force_Field>
OPLS_2005

> <r_lp_Energy>
13.65

> <b_lp_Chiralities_Consistent>
1

> <s_lp_Variant>
AV-unprocessed.smi:2845-6

> <Gold.Version>
5.8.1

> <Gold.Id.Protein>
6NUR|6NUR_protein|mol2

> <Gold.PLP.Fitness>
55.7823

> <Gold.PLP.PLP>
-49.1514

> <Gold.PLP.part.hbond>
-2.1419

> <Gold.PLP.part.metal>
0.0000

> <Gold.PLP.part.buried>
-5.9298

> <Gold.PLP.part.nonpolar>
-42.0217

> <Gold.PLP.part.repulsive>
0.3025

> <Gold.PLP.ligand.clash>
0.0000

> <Gold.PLP.ligand.torsion>
1.3735

> <Gold.PLP.Chemscore.Hbond>
2.7840

> <Gold.PLP.Chemscore.CHOScore>
0.0000

> <Gold.PLP.Chemscore.Metal>
0.0000

> <Gold.Chemscore.Hbonds>
donor molecule, donor type, donor heavy atom, donor atom, acceptor molecule, acceptor atom, score
      L1  H     5    43       P1  8028  1.95
      P1  H  7997  8008       L1    10  0.80

> <Gold.PLP.Chemscore.Internal.Correction>
1.0258

> <Gold.Rescore>
     Score         DG    S(hbond)    S(metal)    S(lipo)     H(rot)  DE(clash)    DE(int)     intcor
     13.00     -15.63       1.40        0.00     107.18       2.77       0.07       2.55       ----

> <Gold.Chemscore.Fitness>
13.0040

> <Gold.Chemscore.DG>
-15.6257

> <Gold.Chemscore.ZeroCoef>
-5.4800

> <Gold.Chemscore.Hbond>
1.4048

> <Gold.Chemscore.Metal>
0.0000

> <Gold.Chemscore.Lipo>
107.1802

> <Gold.Chemscore.Internal_Hbond>
0.0000

> <Gold.Chemscore.DEClash>
0.0734

> <Gold.Chemscore.DEInternal>
2.5483

> <Gold.Chemscore.Rot>
2.7681

> <Gold.Chemscore.Internal.Correction>
   9.000000E+99

> <Gold.Chemscore.Hbonds>
donor molecule, donor type, donor heavy atom, donor atom, acceptor molecule, acceptor atom, score
      L1  H     5    43       P1  8028  0.90
      P1  H  7997  8008       L1    10  0.14

> <Gold.Chemscore.Hbond.Weighted>
-4.6919

> <Gold.Chemscore.Metal.Weighted>
-0.0000

> <Gold.Chemscore.Lipo.Weighted>
-12.5401

> <Gold.Chemscore.Internal_Hbond.Weighted>
0.0000

> <Gold.Chemscore.DEClash.Weighted>
0.0734

> <Gold.Chemscore.DEInternal.Weighted>
2.5483

> <Gold.Chemscore.Rot.Weighted>
7.0863

> <Gold.Chemscore.Internal.Correction.Weighted>
   9.000000E+99

> <Gold.Protein.RotatedTorsions>
[ 6907 6896 6895 6894 ] final -162.18 input  -60.11 | X-H torsion
[ 7974 7965 7964 7962 ] final -108.81 input  175.53 | X-H torsion
[ 8008 7997 7996 7995 ] final  -27.92 input   59.86 | X-H torsion
[ 10167 10162 10161 10158 ] final   34.01 input  -65.29 | X-H torsion
[ 10718 10713 10712 10709 ] final  -41.56 input   66.30 | X-H torsion
[ 10763 10752 10751 10750 ] final  154.32 input  -60.55 | X-H torsion
[ 11005 11000 10999 10996 ] final  146.23 input  -57.11 | X-H torsion

> <Gold.Protein.ActiveResidues>
 VAL166  LYS551  ARG553  GLY616  TRP617  ASP618  TYR619  PRO620  LYS621  CYS622 
 ASP623  PHE694  ASN695  SER759  ASP760  ASP761  ALA762  ILE779  LEU786  VAL792 
 PHE793  MET794  SER795  GLU796  ALA797  LYS798  CYS799  TRP800  GLU811  SER814 

> <Gold.Protein.RotatedAtoms>
  151.3763  133.3837  159.2704 H   0  0  0  0  0  0  0  0  0  0  0  0  # atno 6907 bound_to 6896
  150.9612  134.9000  159.7742 H   0  0  0  0  0  0  0  0  0  0  0  0  # atno 6908 bound_to 6896
  152.5150  134.3722  159.9374 H   0  0  0  0  0  0  0  0  0  0  0  0  # atno 6909 bound_to 6896
  145.1883  140.9003  143.3439 H   0  0  0  0  0  0  0  0  0  0  0  0  # atno 7974 bound_to 7965
  154.4355  140.1859  156.1008 H   0  0  0  0  0  0  0  0  0  0  0  0  # atno 8008 bound_to 7997
  156.0293  140.3332  155.7097 H   0  0  0  0  0  0  0  0  0  0  0  0  # atno 8009 bound_to 7997
  155.5862  140.0626  157.2761 H   0  0  0  0  0  0  0  0  0  0  0  0  # atno 8010 bound_to 7997
  140.4354  144.1264  150.6165 H   0  0  0  0  0  0  0  0  0  0  0  0  # atno 10167 bound_to 10162
  156.2691  130.4205  149.8458 H   0  0  0  0  0  0  0  0  0  0  0  0  # atno 10718 bound_to 10713
  154.1504  135.2815  155.3137 H   0  0  0  0  0  0  0  0  0  0  0  0  # atno 10763 bound_to 10752
  154.6221  135.5464  153.7590 H   0  0  0  0  0  0  0  0  0  0  0  0  # atno 10764 bound_to 10752
  153.0222  135.6441  154.1649 H   0  0  0  0  0  0  0  0  0  0  0  0  # atno 10765 bound_to 10752
  140.0777  134.9115  157.1449 H   0  0  0  0  0  0  0  0  0  0  0  0  # atno 11005 bound_to 11000
  145.0067  139.3548  143.6140 LP  0  0  0  0  0  0  0  0  0  0  0  0  # atno 17320 bound_to 7965
  146.3441  139.9312  142.8753 LP  0  0  0  0  0  0  0  0  0  0  0  0  # atno 17321 bound_to 7965
  140.4379  143.2539  151.9511 LP  0  0  0  0  0  0  0  0  0  0  0  0  # atno 17342 bound_to 10162
  139.4787  144.5682  151.8131 LP  0  0  0  0  0  0  0  0  0  0  0  0  # atno 17343 bound_to 10162
  156.5946  130.8521  151.3416 LP  0  0  0  0  0  0  0  0  0  0  0  0  # atno 17370 bound_to 10713
  157.7277  130.9647  150.1712 LP  0  0  0  0  0  0  0  0  0  0  0  0  # atno 17371 bound_to 10713
  140.3534  134.2574  155.7195 LP  0  0  0  0  0  0  0  0  0  0  0  0  # atno 17394 bound_to 11000
  141.2035  133.7910  157.0335 LP  0  0  0  0  0  0  0  0  0  0  0  0  # atno 17395 bound_to 11000

$$$$
