AV-unprocessed.smi:2439|AV-procd|sdf|9603|dock7
  -GOLD-   2272013233D 1   1.00000     0.00000
 Structure written by MMmdl.
 41 43  0  0  0  0  0  0  0  0  2 V2000
  151.7666  137.4478  154.0815 N   0  0  0  0  0  0  0  0  0  0  0  0
  151.4794  138.4364  154.6094 C   0  0  0  0  0  0  0  0  0  0  0  0
  151.1172  139.6829  155.2734 C   0  0  0  0  0  0  0  0  0  0  0  0
  151.8470  140.0880  156.4105 C   0  0  0  0  0  0  0  0  0  0  0  0
  151.5041  141.2920  157.0522 C   0  0  0  0  0  0  0  0  0  0  0  0
  150.4381  142.0454  156.5286 C   0  0  0  0  0  0  0  0  0  0  0  0
  149.7319  141.6698  155.4419 N   0  0  0  0  0  0  0  0  0  0  0  0
  150.0561  140.5108  154.8172 C   0  0  0  0  0  0  0  0  0  0  0  0
  149.3004  140.1422  153.6884 N   0  0  0  0  0  0  0  0  0  0  0  0
  147.8579  139.9391  153.7537 C   0  0  0  0  0  0  0  0  0  0  0  0
  147.4620  138.4660  153.5564 C   0  0  2  0  0  0  0  0  0  0  0  0
  146.5619  138.2828  152.3215 C   0  0  0  0  0  0  0  0  0  0  0  0
  146.1380  136.8696  152.1926 N   0  3  2  0  0  0  0  0  0  0  0  0
  145.3030  136.6370  150.9871 C   0  0  0  0  0  0  0  0  0  0  0  0
  144.9602  135.1468  150.8316 C   0  0  0  0  0  0  0  0  0  0  0  0
  144.2704  134.6112  152.0927 C   0  0  0  0  0  0  0  0  0  0  0  0
  145.1404  134.8887  153.3261 C   0  0  0  0  0  0  0  0  0  0  0  0
  145.4870  136.3865  153.4407 C   0  0  1  0  0  0  0  0  0  0  0  0
  146.4031  136.6591  154.6501 C   0  0  0  0  0  0  0  0  0  0  0  0
  146.7350  138.0406  154.7042 O   0  0  0  0  0  0  0  0  0  0  0  0
  152.6611  139.4874  156.7906 H   0  0  0  0  0  0  0  0  0  0  0  0
  152.0444  141.6289  157.9244 H   0  0  0  0  0  0  0  0  0  0  0  0
  150.1450  142.9751  156.9933 H   0  0  0  0  0  0  0  0  0  0  0  0
  149.7463  140.1192  152.7822 H   0  0  0  0  0  0  0  0  0  0  0  0
  147.5031  140.2910  154.7227 H   0  0  0  0  0  0  0  0  0  0  0  0
  147.3706  140.5680  153.0077 H   0  0  0  0  0  0  0  0  0  0  0  0
  148.3585  137.8547  153.4405 H   0  0  0  0  0  0  0  0  0  0  0  0
  145.6819  138.9237  152.3979 H   0  0  0  0  0  0  0  0  0  0  0  0
  147.1015  138.5835  151.4225 H   0  0  0  0  0  0  0  0  0  0  0  0
  144.3878  137.2274  151.0560 H   0  0  0  0  0  0  0  0  0  0  0  0
  145.8376  136.9824  150.1013 H   0  0  0  0  0  0  0  0  0  0  0  0
  144.3165  135.0008  149.9638 H   0  0  0  0  0  0  0  0  0  0  0  0
  145.8715  134.5783  150.6411 H   0  0  0  0  0  0  0  0  0  0  0  0
  143.2968  135.0883  152.2124 H   0  0  0  0  0  0  0  0  0  0  0  0
  144.0849  133.5411  151.9953 H   0  0  0  0  0  0  0  0  0  0  0  0
  144.6209  134.5544  154.2248 H   0  0  0  0  0  0  0  0  0  0  0  0
  146.0571  134.3004  153.2628 H   0  0  0  0  0  0  0  0  0  0  0  0
  144.5617  136.9492  153.5788 H   0  0  0  0  0  0  0  0  0  0  0  0
  145.8958  136.3869  155.5759 H   0  0  0  0  0  0  0  0  0  0  0  0
  147.3131  136.0587  154.5992 H   0  0  0  0  0  0  0  0  0  0  0  0
  146.9794  136.3235  152.0739 H   0  0  0  0  0  0  0  0  0  0  0  0
  1  2  3  0  0  0  0
  2  3  1  0  0  0  0
  3  8  1  0  0  0  0
  3  4  2  0  0  0  0
  4  5  1  0  0  0  0
  4 21  1  0  0  0  0
  5  6  2  0  0  0  0
  5 22  1  0  0  0  0
  6  7  1  0  0  0  0
  6 23  1  0  0  0  0
  7  8  2  0  0  0  0
  8  9  1  0  0  0  0
  9 10  1  0  0  0  0
  9 24  1  0  0  0  0
 10 11  1  0  0  0  0
 10 25  1  0  0  0  0
 10 26  1  0  0  0  0
 11 20  1  0  0  0  0
 11 12  1  0  0  0  0
 11 27  1  0  0  0  0
 12 13  1  0  0  0  0
 12 28  1  0  0  0  0
 12 29  1  0  0  0  0
 13 18  1  0  0  0  0
 13 14  1  0  0  0  0
 13 41  1  0  0  0  0
 14 15  1  0  0  0  0
 14 30  1  0  0  0  0
 14 31  1  0  0  0  0
 15 16  1  0  0  0  0
 15 32  1  0  0  0  0
 15 33  1  0  0  0  0
 16 17  1  0  0  0  0
 16 34  1  0  0  0  0
 16 35  1  0  0  0  0
 17 18  1  0  0  0  0
 17 36  1  0  0  0  0
 17 37  1  0  0  0  0
 18 19  1  0  0  0  0
 18 38  1  0  0  0  0
 19 20  1  0  0  0  0
 19 39  1  0  0  0  0
 19 40  1  0  0  0  0
M  CHG  1  13   1
M  END
> <s_m_source_file>
AV-unprocessed.smi

> <i_m_source_file_index>
2439

> <i_lp_mmshare_version>
43012

> <i_f3d_flags>
0

> <s_epik_input>
TiNDYzFbY0hdW2NIXVtjSF1uYzFbTkhdW0NIMl1bQ0BIXShbQ0gyXTIpT1tDSDJdW0NAQEhdKE4yMylbQ0gyXVtDSDJdW0NIMl1bQ0gyXTM=

> <s_epik_cmdline>
J2VwaWtfcHl0aG9uJywgJy1waCcsICc3LjAnLCAnLXRuJywgJzgnLCAnLW1hJywgJzIwMCcsICctbWV0YWxfYmluZGluZycsICctaW1hZScsICc8aW5maWxlLm1hZT4nLCAnLW9tYWUnLCAnPG91dGZpbGUubWFlPic=

> <r_epik_Ionization_Penalty>
0.0803594

> <r_epik_Ionization_Penalty_Charging>
0.0803403

> <r_epik_Ionization_Penalty_Neutral>
1.90988e-05

> <r_epik_State_Penalty>
0.0711481

> <r_epik_Charging_Adjusted_Penalty>
0.151488

> <i_epik_Tot_Q>
1

> <i_epik_Tot_abs_Q>
1

> <r_epik_Metal_State_Penalty>
0.0711482

> <b_epik_Metal_Only>
0

> <s_lp_Force_Field>
OPLS_2005

> <r_lp_Energy>
27.3027

> <b_lp_Chiralities_Consistent>
1

> <s_lp_Variant>
AV-unprocessed.smi:2439-1

> <Gold.Version>
5.8.1

> <Gold.Id.Protein>
6NUR|6NUR_protein|mol2

> <Gold.PLP.Fitness>
40.1559

> <Gold.PLP.PLP>
-29.2396

> <Gold.PLP.part.hbond>
-2.8954

> <Gold.PLP.part.metal>
0.0000

> <Gold.PLP.part.buried>
1.8658

> <Gold.PLP.part.nonpolar>
-28.9357

> <Gold.PLP.part.repulsive>
1.0247

> <Gold.PLP.ligand.clash>
0.0000

> <Gold.PLP.ligand.torsion>
1.3354

> <Gold.PLP.Chemscore.Hbond>
3.7233

> <Gold.PLP.Chemscore.CHOScore>
0.8051

> <Gold.PLP.Chemscore.Metal>
0.0000

> <Gold.Chemscore.Hbonds>
donor molecule, donor type, donor heavy atom, donor atom, acceptor molecule, acceptor atom, score
      L1  H     9    24       P1  7957  0.99
      L1  H    13    41       P1  7948  2.00
      P1  H 10752 10763       L1     1  0.73
      L1  C     6    23       P1  8028  0.81

> <Gold.PLP.Chemscore.Internal.Correction>
0.0020

> <Gold.Rescore>
     Score         DG    S(hbond)    S(metal)    S(lipo)     H(rot)  DE(clash)    DE(int)     intcor
     16.49     -19.68       2.73        0.00      71.09       1.27       1.83       1.36       ----

> <Gold.Chemscore.Fitness>
16.4914

> <Gold.Chemscore.DG>
-19.6770

> <Gold.Chemscore.ZeroCoef>
-5.4800

> <Gold.Chemscore.Hbond>
2.7307

> <Gold.Chemscore.Metal>
0.0000

> <Gold.Chemscore.Lipo>
71.0880

> <Gold.Chemscore.Internal_Hbond>
0.0000

> <Gold.Chemscore.DEClash>
1.8260

> <Gold.Chemscore.DEInternal>
1.3596

> <Gold.Chemscore.Rot>
1.2659

> <Gold.Chemscore.Internal.Correction>
   9.000000E+99

> <Gold.Chemscore.Hbonds>
donor molecule, donor type, donor heavy atom, donor atom, acceptor molecule, acceptor atom, score
      L1  H     9    24       P1  7957  0.94
      L1  H    13    41       P1  7948  0.93
      P1  H 10752 10763       L1     1  0.69

> <Gold.Chemscore.Hbond.Weighted>
-9.1205

> <Gold.Chemscore.Metal.Weighted>
-0.0000

> <Gold.Chemscore.Lipo.Weighted>
-8.3173

> <Gold.Chemscore.Internal_Hbond.Weighted>
0.0000

> <Gold.Chemscore.DEClash.Weighted>
1.8260

> <Gold.Chemscore.DEInternal.Weighted>
1.3596

> <Gold.Chemscore.Rot.Weighted>
3.2408

> <Gold.Chemscore.Internal.Correction.Weighted>
   9.000000E+99

> <Gold.Protein.RotatedTorsions>
[ 6907 6896 6895 6894 ] final   44.41 input  -60.11 | X-H torsion
[ 7974 7965 7964 7962 ] final   13.65 input  175.53 | X-H torsion
[ 8008 7997 7996 7995 ] final  -28.29 input   59.86 | X-H torsion
[ 10167 10162 10161 10158 ] final  103.39 input  -65.29 | X-H torsion
[ 10718 10713 10712 10709 ] final   90.77 input   66.30 | X-H torsion
[ 10763 10752 10751 10750 ] final   28.05 input  -60.55 | X-H torsion
[ 11005 11000 10999 10996 ] final  -52.49 input  -57.11 | X-H torsion

> <Gold.Protein.ActiveResidues>
 VAL166  LYS551  ARG553  GLY616  TRP617  ASP618  TYR619  PRO620  LYS621  CYS622 
 ASP623  PHE694  ASN695  SER759  ASP760  ASP761  ALA762  ILE779  LEU786  VAL792 
 PHE793  MET794  SER795  GLU796  ALA797  LYS798  CYS799  TRP800  GLU811  SER814 

> <Gold.Protein.RotatedAtoms>
  152.2322  134.8311  160.0471 H   0  0  0  0  0  0  0  0  0  0  0  0  # atno 6907 bound_to 6896
  151.9056  133.3543  159.3854 H   0  0  0  0  0  0  0  0  0  0  0  0  # atno 6908 bound_to 6896
  150.7029  134.4710  159.5469 H   0  0  0  0  0  0  0  0  0  0  0  0  # atno 6909 bound_to 6896
  146.2324  139.9157  142.8517 H   0  0  0  0  0  0  0  0  0  0  0  0  # atno 7974 bound_to 7965
  154.4339  140.1849  156.1066 H   0  0  0  0  0  0  0  0  0  0  0  0  # atno 8008 bound_to 7997
  156.0250  140.3336  155.7053 H   0  0  0  0  0  0  0  0  0  0  0  0  # atno 8009 bound_to 7997
  155.5921  140.0632  157.2746 H   0  0  0  0  0  0  0  0  0  0  0  0  # atno 8010 bound_to 7997
  139.7267  144.7046  151.0787 H   0  0  0  0  0  0  0  0  0  0  0  0  # atno 10167 bound_to 10162
  157.6959  131.0383  150.3628 H   0  0  0  0  0  0  0  0  0  0  0  0  # atno 10718 bound_to 10713
  153.0516  135.6522  154.0678 H   0  0  0  0  0  0  0  0  0  0  0  0  # atno 10763 bound_to 10752
  154.0365  135.2907  155.3362 H   0  0  0  0  0  0  0  0  0  0  0  0  # atno 10764 bound_to 10752
  154.6808  135.5320  153.8328 H   0  0  0  0  0  0  0  0  0  0  0  0  # atno 10765 bound_to 10752
  141.0927  133.6630  156.4032 H   0  0  0  0  0  0  0  0  0  0  0  0  # atno 11005 bound_to 11000
  145.2186  140.9926  143.4059 LP  0  0  0  0  0  0  0  0  0  0  0  0  # atno 17320 bound_to 7965
  144.9629  139.3960  143.6347 LP  0  0  0  0  0  0  0  0  0  0  0  0  # atno 17321 bound_to 7965
  140.7764  143.5096  150.9669 LP  0  0  0  0  0  0  0  0  0  0  0  0  # atno 17342 bound_to 10162
  139.8784  143.7103  152.3159 LP  0  0  0  0  0  0  0  0  0  0  0  0  # atno 17343 bound_to 10162
  156.4062  130.3925  149.6924 LP  0  0  0  0  0  0  0  0  0  0  0  0  # atno 17370 bound_to 10713
  156.4224  130.7775  151.2792 LP  0  0  0  0  0  0  0  0  0  0  0  0  # atno 17371 bound_to 10713
  140.5214  134.6301  157.5319 LP  0  0  0  0  0  0  0  0  0  0  0  0  # atno 17394 bound_to 11000
  139.9756  134.7220  155.9956 LP  0  0  0  0  0  0  0  0  0  0  0  0  # atno 17395 bound_to 11000

$$$$
