AV-unprocessed.smi:183|AV-procd|sdf|1460|dock2
  -GOLD-   2262019263D 1   1.00000     0.00000
 Structure written by MMmdl.
 55 57  0  0  0  0  0  0  0  0  1 V2000
  147.1054  134.8951  161.9621 C   0  0  0  0  0  0  0  0  0  0  0  0
  147.6019  136.1224  161.2062 C   0  0  0  0  0  0  0  0  0  0  0  0
  147.4258  137.2481  161.6724 O   0  0  0  0  0  0  0  0  0  0  0  0
  148.2235  135.8913  160.0391 N   0  0  0  0  0  0  0  0  0  0  0  0
  148.7642  136.9305  159.1726 C   0  0  0  0  0  0  0  0  0  0  0  0
  149.2787  136.3401  157.8434 C   0  0  0  0  0  0  0  0  0  0  0  0
  148.3550  136.5312  156.7211 N   0  0  0  0  0  0  0  0  0  0  0  0
  148.3640  135.4568  155.8926 C   0  0  0  0  0  0  0  0  0  0  0  0
  149.5646  135.0837  155.3817 N   0  0  0  0  0  0  0  0  0  0  0  0
  149.6424  134.0580  154.5296 C   0  0  0  0  0  0  0  0  0  0  0  0
  148.6592  133.2913  154.0546 N   0  0  0  0  0  0  0  0  0  0  0  0
  147.4488  133.6692  154.5564 C   0  0  0  0  0  0  0  0  0  0  0  0
  147.2121  134.7246  155.4821 C   0  0  0  0  0  0  0  0  0  0  0  0
  145.8539  134.8045  155.7678 N   0  0  0  0  0  0  0  0  0  0  0  0
  145.3194  133.8556  155.0499 C   0  0  0  0  0  0  0  0  0  0  0  0
  146.2024  133.1371  154.2763 N   0  0  0  0  0  0  0  0  0  0  0  0
  145.8771  132.0466  153.3711 C   0  0  0  0  0  0  0  0  0  0  0  0
  146.2083  132.3429  151.8815 C   0  0  2  0  0  0  0  0  0  0  0  0
  147.5903  132.6151  151.7457 O   0  0  0  0  0  0  0  0  0  0  0  0
  145.4179  133.5035  151.2884 C   0  0  0  0  0  0  0  0  0  0  0  0
  144.0995  132.8420  150.8985 C   0  0  0  0  0  0  0  0  0  0  0  0
  144.4235  131.4892  150.5899 O   0  0  0  0  0  0  0  0  0  0  0  0
  145.7867  131.2232  150.9108 C   0  0  2  0  0  0  0  0  0  0  0  0
  145.9595  129.7790  151.4042 C   0  0  0  0  0  0  0  0  0  0  0  0
  148.1855  137.8684  156.1280 C   0  0  0  0  0  0  0  0  0  0  0  0
  146.9149  137.9490  155.2600 C   0  0  0  0  0  0  0  0  0  0  0  0
  149.3963  138.2931  155.2683 C   0  0  0  0  0  0  0  0  0  0  0  0
  147.9456  134.2687  162.2630 H   0  0  0  0  0  0  0  0  0  0  0  0
  146.4385  134.3033  161.3344 H   0  0  0  0  0  0  0  0  0  0  0  0
  146.5587  135.1878  162.8593 H   0  0  0  0  0  0  0  0  0  0  0  0
  148.3269  134.9350  159.7317 H   0  0  0  0  0  0  0  0  0  0  0  0
  147.9890  137.6729  158.9824 H   0  0  0  0  0  0  0  0  0  0  0  0
  149.5568  137.4507  159.7097 H   0  0  0  0  0  0  0  0  0  0  0  0
  150.2384  136.7952  157.5920 H   0  0  0  0  0  0  0  0  0  0  0  0
  149.4970  135.2794  157.9646 H   0  0  0  0  0  0  0  0  0  0  0  0
  150.6334  133.8219  154.1716 H   0  0  0  0  0  0  0  0  0  0  0  0
  144.2565  133.6625  155.0518 H   0  0  0  0  0  0  0  0  0  0  0  0
  146.4126  131.1593  153.7105 H   0  0  0  0  0  0  0  0  0  0  0  0
  144.8160  131.8222  153.4861 H   0  0  0  0  0  0  0  0  0  0  0  0
  147.9790  131.9399  151.2113 H   0  0  0  0  0  0  0  0  0  0  0  0
  145.2910  134.3599  151.9491 H   0  0  0  0  0  0  0  0  0  0  0  0
  145.9067  133.8690  150.3834 H   0  0  0  0  0  0  0  0  0  0  0  0
  143.4014  132.8520  151.7362 H   0  0  0  0  0  0  0  0  0  0  0  0
  143.6215  133.3392  150.0542 H   0  0  0  0  0  0  0  0  0  0  0  0
  146.3438  131.3380  149.9788 H   0  0  0  0  0  0  0  0  0  0  0  0
  146.9955  129.5816  151.6811 H   0  0  0  0  0  0  0  0  0  0  0  0
  145.6844  129.0704  150.6231 H   0  0  0  0  0  0  0  0  0  0  0  0
  145.3315  129.5688  152.2699 H   0  0  0  0  0  0  0  0  0  0  0  0
  148.0743  138.5882  156.9390 H   0  0  0  0  0  0  0  0  0  0  0  0
  146.8203  138.9304  154.7948 H   0  0  0  0  0  0  0  0  0  0  0  0
  146.0092  137.7927  155.8452 H   0  0  0  0  0  0  0  0  0  0  0  0
  146.9324  137.2057  154.4622 H   0  0  0  0  0  0  0  0  0  0  0  0
  149.2260  139.2679  154.8106 H   0  0  0  0  0  0  0  0  0  0  0  0
  149.5786  137.5793  154.4644 H   0  0  0  0  0  0  0  0  0  0  0  0
  150.3135  138.3799  155.8496 H   0  0  0  0  0  0  0  0  0  0  0  0
  1  2  1  0  0  0  0
  1 28  1  0  0  0  0
  1 29  1  0  0  0  0
  1 30  1  0  0  0  0
  2  3  2  0  0  0  0
  2  4  1  0  0  0  0
  4  5  1  0  0  0  0
  4 31  1  0  0  0  0
  5  6  1  0  0  0  0
  5 32  1  0  0  0  0
  5 33  1  0  0  0  0
  6  7  1  0  0  0  0
  6 34  1  0  0  0  0
  6 35  1  0  0  0  0
  7  8  1  0  0  0  0
  7 25  1  0  0  0  0
  8 13  1  0  0  0  0
  8  9  2  0  0  0  0
  9 10  1  0  0  0  0
 10 11  2  0  0  0  0
 10 36  1  0  0  0  0
 11 12  1  0  0  0  0
 12 16  1  0  0  0  0
 12 13  2  0  0  0  0
 13 14  1  0  0  0  0
 14 15  2  0  0  0  0
 15 16  1  0  0  0  0
 15 37  1  0  0  0  0
 16 17  1  0  0  0  0
 17 18  1  0  0  0  0
 17 38  1  0  0  0  0
 17 39  1  0  0  0  0
 18 23  1  0  0  0  0
 18 19  1  0  0  0  0
 18 20  1  0  0  0  0
 19 40  1  0  0  0  0
 20 21  1  0  0  0  0
 20 41  1  0  0  0  0
 20 42  1  0  0  0  0
 21 22  1  0  0  0  0
 21 43  1  0  0  0  0
 21 44  1  0  0  0  0
 22 23  1  0  0  0  0
 23 24  1  0  0  0  0
 23 45  1  0  0  0  0
 24 46  1  0  0  0  0
 24 47  1  0  0  0  0
 24 48  1  0  0  0  0
 25 26  1  0  0  0  0
 25 27  1  0  0  0  0
 25 49  1  0  0  0  0
 26 50  1  0  0  0  0
 26 51  1  0  0  0  0
 26 52  1  0  0  0  0
 27 53  1  0  0  0  0
 27 54  1  0  0  0  0
 27 55  1  0  0  0  0
M  END
> <s_m_source_file>
AV-unprocessed.smi

> <i_m_source_file_index>
183

> <i_lp_mmshare_version>
43012

> <i_f3d_flags>
0

> <s_epik_input>
W0NIM11DKD1PKVtOSF1bQ0gyXVtDSDJdTihbQ0hdKFtDSDNdKVtDSDNdKWMobltjSF1uMSljKGMxMiluW2NIXW4yW0NIMl1bQ0BAXTMoW09IXSlbQ0gyXVtDSDJdT1tDQEhdM1tDSDNd

> <s_epik_cmdline>
J2VwaWtfcHl0aG9uJywgJy1waCcsICc3LjAnLCAnLXRuJywgJzgnLCAnLW1hJywgJzIwMCcsICctbWV0YWxfYmluZGluZycsICctaW1hZScsICc8aW5maWxlLm1hZT4nLCAnLW9tYWUnLCAnPG91dGZpbGUubWFlPic=

> <r_lp_tautomer_probability>
1

> <r_epik_Ionization_Penalty>
0.00156158

> <r_epik_Ionization_Penalty_Charging>
0

> <r_epik_Ionization_Penalty_Neutral>
0.00156158

> <r_epik_State_Penalty>
0.000865808

> <r_epik_Charging_Adjusted_Penalty>
0.000865808

> <i_epik_Tot_Q>
0

> <i_epik_Tot_abs_Q>
0

> <r_epik_Metal_State_Penalty>
-0

> <b_epik_Metal_Only>
0

> <s_lp_Force_Field>
OPLS_2005

> <r_lp_Energy>
30.6117

> <b_lp_Chiralities_Consistent>
1

> <s_lp_Variant>
AV-unprocessed.smi:183-4

> <Gold.Version>
5.8.1

> <Gold.Id.Protein>
6NUR|6NUR_protein|mol2

> <Gold.PLP.Fitness>
43.0621

> <Gold.PLP.PLP>
-33.0288

> <Gold.PLP.part.hbond>
-3.0000

> <Gold.PLP.part.metal>
0.0000

> <Gold.PLP.part.buried>
-7.3617

> <Gold.PLP.part.nonpolar>
-22.9333

> <Gold.PLP.part.repulsive>
0.5409

> <Gold.PLP.ligand.clash>
0.0000

> <Gold.PLP.ligand.torsion>
1.1556

> <Gold.PLP.Chemscore.Hbond>
2.7280

> <Gold.PLP.Chemscore.CHOScore>
0.9963

> <Gold.PLP.Chemscore.Metal>
0.0000

> <Gold.Chemscore.Hbonds>
donor molecule, donor type, donor heavy atom, donor atom, acceptor molecule, acceptor atom, score
      L1  H    19    40       P1 10747  1.00
      P1  H  6931  6943       L1     3  0.90
      P1  H  6934  6947       L1     3  0.82
      L1  C    15    37       P1 10957  1.00

> <Gold.PLP.Chemscore.Internal.Correction>
1.1716

> <Gold.Rescore>
     Score         DG    S(hbond)    S(metal)    S(lipo)     H(rot)  DE(clash)    DE(int)     intcor
     11.45     -14.81       3.02        0.00      68.80       3.45       1.32       2.04       ----

> <Gold.Chemscore.Fitness>
11.4452

> <Gold.Chemscore.DG>
-14.8053

> <Gold.Chemscore.ZeroCoef>
-5.4800

> <Gold.Chemscore.Hbond>
3.0225

> <Gold.Chemscore.Metal>
0.0000

> <Gold.Chemscore.Lipo>
68.7989

> <Gold.Chemscore.Internal_Hbond>
0.0000

> <Gold.Chemscore.DEClash>
1.3186

> <Gold.Chemscore.DEInternal>
2.0415

> <Gold.Chemscore.Rot>
3.4451

> <Gold.Chemscore.Internal.Correction>
   9.000000E+99

> <Gold.Chemscore.Hbonds>
donor molecule, donor type, donor heavy atom, donor atom, acceptor molecule, acceptor atom, score
      L1  H    19    40       P1 10747  1.00
      P1  H  6931  6943       L1     3  0.80
      P1  H  6934  6947       L1     3  0.81

> <Gold.Chemscore.Hbond.Weighted>
-10.0952

> <Gold.Chemscore.Metal.Weighted>
-0.0000

> <Gold.Chemscore.Lipo.Weighted>
-8.0495

> <Gold.Chemscore.Internal_Hbond.Weighted>
0.0000

> <Gold.Chemscore.DEClash.Weighted>
1.3186

> <Gold.Chemscore.DEInternal.Weighted>
2.0415

> <Gold.Chemscore.Rot.Weighted>
8.8194

> <Gold.Chemscore.Internal.Correction.Weighted>
   9.000000E+99

> <Gold.Protein.RotatedTorsions>
[ 6907 6896 6895 6894 ] final  168.71 input  -60.11 | X-H torsion
[ 7974 7965 7964 7962 ] final -174.57 input  175.53 | X-H torsion
[ 8008 7997 7996 7995 ] final  107.27 input   59.86 | X-H torsion
[ 10167 10162 10161 10158 ] final   67.47 input  -65.29 | X-H torsion
[ 10718 10713 10712 10709 ] final  103.83 input   66.30 | X-H torsion
[ 10763 10752 10751 10750 ] final   99.45 input  -60.55 | X-H torsion
[ 11005 11000 10999 10996 ] final  -98.09 input  -57.11 | X-H torsion

> <Gold.Protein.ActiveResidues>
 VAL166  LYS551  ARG553  GLY616  TRP617  ASP618  TYR619  PRO620  LYS621  CYS622 
 ASP623  PHE694  ASN695  SER759  ASP760  ASP761  ALA762  ILE779  LEU786  VAL792 
 PHE793  MET794  SER795  GLU796  ALA797  LYS798  CYS799  TRP800  GLU811  SER814 

> <Gold.Protein.RotatedAtoms>
  151.8433  133.3427  159.3649 H   0  0  0  0  0  0  0  0  0  0  0  0  # atno 6907 bound_to 6896
  150.7228  134.5370  159.5738 H   0  0  0  0  0  0  0  0  0  0  0  0  # atno 6908 bound_to 6896
  152.2848  134.7788  160.0440 H   0  0  0  0  0  0  0  0  0  0  0  0  # atno 6909 bound_to 6896
  144.7131  140.1452  143.6388 H   0  0  0  0  0  0  0  0  0  0  0  0  # atno 7974 bound_to 7965
  156.1811  140.3098  155.9150 H   0  0  0  0  0  0  0  0  0  0  0  0  # atno 8008 bound_to 7997
  155.3383  140.0464  157.3061 H   0  0  0  0  0  0  0  0  0  0  0  0  # atno 8009 bound_to 7997
  154.5343  140.2241  155.8759 H   0  0  0  0  0  0  0  0  0  0  0  0  # atno 8010 bound_to 7997
  140.0892  144.5003  150.7110 H   0  0  0  0  0  0  0  0  0  0  0  0  # atno 10167 bound_to 10162
  157.6760  131.0789  150.5615 H   0  0  0  0  0  0  0  0  0  0  0  0  # atno 10718 bound_to 10713
  153.3016  135.4113  155.1257 H   0  0  0  0  0  0  0  0  0  0  0  0  # atno 10763 bound_to 10752
  154.8551  135.3542  154.5845 H   0  0  0  0  0  0  0  0  0  0  0  0  # atno 10764 bound_to 10752
  153.6270  135.7062  153.5348 H   0  0  0  0  0  0  0  0  0  0  0  0  # atno 10765 bound_to 10752
  141.1357  133.8219  157.0793 H   0  0  0  0  0  0  0  0  0  0  0  0  # atno 11005 bound_to 11000
  145.9166  139.2519  143.1406 LP  0  0  0  0  0  0  0  0  0  0  0  0  # atno 17320 bound_to 7965
  145.9663  140.8796  143.0185 LP  0  0  0  0  0  0  0  0  0  0  0  0  # atno 17321 bound_to 7965
  140.7037  143.2453  151.4788 LP  0  0  0  0  0  0  0  0  0  0  0  0  # atno 17342 bound_to 10162
  139.5735  144.1874  152.1870 LP  0  0  0  0  0  0  0  0  0  0  0  0  # atno 17343 bound_to 10162
  156.5917  130.4331  149.5934 LP  0  0  0  0  0  0  0  0  0  0  0  0  # atno 17370 bound_to 10713
  156.2578  130.6944  151.1703 LP  0  0  0  0  0  0  0  0  0  0  0  0  # atno 17371 bound_to 10713
  140.0461  134.9829  157.1052 LP  0  0  0  0  0  0  0  0  0  0  0  0  # atno 17394 bound_to 11000
  140.4060  134.2032  155.7163 LP  0  0  0  0  0  0  0  0  0  0  0  0  # atno 17395 bound_to 11000

$$$$
