AV-unprocessed.smi:1484|AV-procd|sdf|5999|dock6
  -GOLD-   22720 6 93D 1   1.00000     0.00000
 Structure written by MMmdl.
 38 39  0  0  0  0  0  0  0  0  1 V2000
  152.9615  142.8263  161.9754 C   0  0  0  0  0  0  0  0  0  0  0  0
  152.9456  142.9975  160.4498 C   0  0  2  0  0  0  0  0  0  0  0  0
  152.5482  144.4307  160.0476 C   0  0  0  0  0  0  0  0  0  0  0  0
  152.5317  144.6021  158.5206 C   0  0  0  0  0  0  0  0  0  0  0  0
  151.6055  143.5741  157.8532 C   0  0  0  0  0  0  0  0  0  0  0  0
  151.9922  142.1338  158.2452 C   0  0  2  0  0  0  0  0  0  0  0  0
  151.0592  141.1732  157.6642 N   0  0  0  0  0  0  0  0  0  0  0  0
  149.7306  141.1709  157.8509 C   0  0  0  0  0  0  0  0  0  0  0  0
  149.1477  141.9902  158.5629 O   0  0  0  0  0  0  0  0  0  0  0  0
  148.9546  140.0550  157.1358 C   0  0  0  0  0  0  0  0  0  0  0  0
  148.3046  140.4977  155.8938 N   0  0  0  0  0  0  0  0  0  0  0  0
  146.9423  140.7252  156.0167 N   0  0  0  0  0  0  0  0  0  0  0  0
  146.2618  141.1313  154.9987 C   0  0  0  0  0  0  0  0  0  0  0  0
  144.9158  141.3473  155.1650 O   0  0  0  0  0  0  0  0  0  0  0  0
  146.8936  141.3534  153.7166 C   0  0  0  0  0  0  0  0  0  0  0  0
  148.2202  141.1237  153.6051 C   0  0  0  0  0  0  0  0  0  0  0  0
  149.0219  140.6625  154.7399 C   0  0  0  0  0  0  0  0  0  0  0  0
  150.2308  140.4432  154.6659 O   0  0  0  0  0  0  0  0  0  0  0  0
  152.0128  141.9712  159.7771 C   0  0  0  0  0  0  0  0  0  0  0  0
  144.5068  140.9990  154.3880 H   0  0  0  0  0  0  0  0  0  0  0  0
  151.9726  142.9927  162.4038 H   0  0  0  0  0  0  0  0  0  0  0  0
  153.6498  143.5313  162.4422 H   0  0  0  0  0  0  0  0  0  0  0  0
  153.2806  141.8217  162.2543 H   0  0  0  0  0  0  0  0  0  0  0  0
  153.9593  142.8162  160.0894 H   0  0  0  0  0  0  0  0  0  0  0  0
  151.5625  144.6679  160.4504 H   0  0  0  0  0  0  0  0  0  0  0  0
  153.2418  145.1482  160.4873 H   0  0  0  0  0  0  0  0  0  0  0  0
  152.2116  145.6122  158.2634 H   0  0  0  0  0  0  0  0  0  0  0  0
  153.5436  144.4898  158.1292 H   0  0  0  0  0  0  0  0  0  0  0  0
  150.5735  143.7731  158.1457 H   0  0  0  0  0  0  0  0  0  0  0  0
  151.6483  143.6954  156.7701 H   0  0  0  0  0  0  0  0  0  0  0  0
  152.9960  141.9233  157.8702 H   0  0  0  0  0  0  0  0  0  0  0  0
  151.4539  140.4593  157.0690 H   0  0  0  0  0  0  0  0  0  0  0  0
  149.6265  139.2202  156.9260 H   0  0  0  0  0  0  0  0  0  0  0  0
  148.2106  139.6629  157.8316 H   0  0  0  0  0  0  0  0  0  0  0  0
  146.3111  141.6943  152.8732 H   0  0  0  0  0  0  0  0  0  0  0  0
  148.7049  141.2855  152.6537 H   0  0  0  0  0  0  0  0  0  0  0  0
  152.3322  140.9603  160.0341 H   0  0  0  0  0  0  0  0  0  0  0  0
  151.0020  142.0846  160.1724 H   0  0  0  0  0  0  0  0  0  0  0  0
  1  2  1  0  0  0  0
  1 21  1  0  0  0  0
  1 22  1  0  0  0  0
  1 23  1  0  0  0  0
  2 19  1  0  0  0  0
  2  3  1  0  0  0  0
  2 24  1  0  0  0  0
  3  4  1  0  0  0  0
  3 25  1  0  0  0  0
  3 26  1  0  0  0  0
  4  5  1  0  0  0  0
  4 27  1  0  0  0  0
  4 28  1  0  0  0  0
  5  6  1  0  0  0  0
  5 29  1  0  0  0  0
  5 30  1  0  0  0  0
  6  7  1  0  0  0  0
  6 19  1  0  0  0  0
  6 31  1  0  0  0  0
  7  8  1  0  0  0  0
  7 32  1  0  0  0  0
  8  9  2  0  0  0  0
  8 10  1  0  0  0  0
 10 33  1  0  0  0  0
 10 34  1  0  0  0  0
 10 11  1  0  0  0  0
 11 12  1  0  0  0  0
 11 17  1  0  0  0  0
 12 13  2  0  0  0  0
 13 14  1  0  0  0  0
 13 15  1  0  0  0  0
 14 20  1  0  0  0  0
 15 35  1  0  0  0  0
 15 16  2  0  0  0  0
 16 36  1  0  0  0  0
 16 17  1  0  0  0  0
 17 18  2  0  0  0  0
 19 37  1  0  0  0  0
 19 38  1  0  0  0  0
M  END
> <s_m_source_file>
AV-unprocessed.smi

> <i_m_source_file_index>
1484

> <i_lp_mmshare_version>
43012

> <i_f3d_flags>
0

> <s_epik_input>
W0NIM11bQ0BASF0xW0NIMl1bQ0gyXVtDSDJdW0NASF0oW0NIMl0xKVtOSF1DKD1PKVtDSDJdbjJbbkhdYyg9TylbY0hdW2NIXWMyPU8=

> <s_epik_cmdline>
J2VwaWtfcHl0aG9uJywgJy1waCcsICc3LjAnLCAnLXRuJywgJzgnLCAnLW1hJywgJzIwMCcsICctbWV0YWxfYmluZGluZycsICctaW1hZScsICc8aW5maWxlLm1hZT4nLCAnLW9tYWUnLCAnPG91dGZpbGUubWFlPic=

> <r_lp_tautomer_probability>
0.9996

> <r_epik_Ionization_Penalty>
2.10343

> <r_epik_Ionization_Penalty_Charging>
3.97871e-08

> <r_epik_Ionization_Penalty_Neutral>
2.10343

> <r_epik_State_Penalty>
1.67966

> <r_epik_Charging_Adjusted_Penalty>
1.67966

> <i_epik_Tot_Q>
0

> <i_epik_Tot_abs_Q>
0

> <r_epik_Metal_State_Penalty>
1.67966

> <b_epik_Metal_Only>
0

> <s_lp_Force_Field>
OPLS_2005

> <r_lp_Energy>
18.4171

> <b_lp_Chiralities_Consistent>
1

> <s_lp_Variant>
AV-unprocessed.smi:1484-7

> <Gold.Version>
5.8.1

> <Gold.Id.Protein>
6NUR|6NUR_protein|mol2

> <Gold.PLP.Fitness>
43.0218

> <Gold.PLP.PLP>
-38.1377

> <Gold.PLP.part.hbond>
-2.2713

> <Gold.PLP.part.metal>
0.0000

> <Gold.PLP.part.buried>
-3.7312

> <Gold.PLP.part.nonpolar>
-31.9530

> <Gold.PLP.part.repulsive>
0.2818

> <Gold.PLP.ligand.clash>
0.0000

> <Gold.PLP.ligand.torsion>
0.5487

> <Gold.PLP.Chemscore.Hbond>
1.9920

> <Gold.PLP.Chemscore.CHOScore>
0.0000

> <Gold.PLP.Chemscore.Metal>
0.0000

> <Gold.Chemscore.Hbonds>
donor molecule, donor type, donor heavy atom, donor atom, acceptor molecule, acceptor atom, score
      L1  H    14    20       P1 10175  0.76
      P1  H  7989  7998       L1    18  0.98

> <Gold.PLP.Chemscore.Internal.Correction>
0.0056

> <Gold.Rescore>
     Score         DG    S(hbond)    S(metal)    S(lipo)     H(rot)  DE(clash)    DE(int)     intcor
     15.88     -17.56       1.92        0.00      97.62       2.24       0.30       1.39       ----

> <Gold.Chemscore.Fitness>
15.8765

> <Gold.Chemscore.DG>
-17.5617

> <Gold.Chemscore.ZeroCoef>
-5.4800

> <Gold.Chemscore.Hbond>
1.9160

> <Gold.Chemscore.Metal>
0.0000

> <Gold.Chemscore.Lipo>
97.6236

> <Gold.Chemscore.Internal_Hbond>
0.0000

> <Gold.Chemscore.DEClash>
0.2984

> <Gold.Chemscore.DEInternal>
1.3868

> <Gold.Chemscore.Rot>
2.2421

> <Gold.Chemscore.Internal.Correction>
   9.000000E+99

> <Gold.Chemscore.Hbonds>
donor molecule, donor type, donor heavy atom, donor atom, acceptor molecule, acceptor atom, score
      L1  H    14    20       P1 10175  0.71
      P1  H  7989  7998       L1    18  0.93

> <Gold.Chemscore.Hbond.Weighted>
-6.3995

> <Gold.Chemscore.Metal.Weighted>
-0.0000

> <Gold.Chemscore.Lipo.Weighted>
-11.4220

> <Gold.Chemscore.Internal_Hbond.Weighted>
0.0000

> <Gold.Chemscore.DEClash.Weighted>
0.2984

> <Gold.Chemscore.DEInternal.Weighted>
1.3868

> <Gold.Chemscore.Rot.Weighted>
5.7398

> <Gold.Chemscore.Internal.Correction.Weighted>
   9.000000E+99

> <Gold.Protein.RotatedTorsions>
[ 6907 6896 6895 6894 ] final  123.88 input  -60.11 | X-H torsion
[ 7974 7965 7964 7962 ] final  -12.75 input  175.53 | X-H torsion
[ 8008 7997 7996 7995 ] final   62.01 input   59.86 | X-H torsion
[ 10167 10162 10161 10158 ] final  -80.68 input  -65.29 | X-H torsion
[ 10718 10713 10712 10709 ] final  110.03 input   66.30 | X-H torsion
[ 10763 10752 10751 10750 ] final  124.21 input  -60.55 | X-H torsion
[ 11005 11000 10999 10996 ] final  147.14 input  -57.11 | X-H torsion

> <Gold.Protein.ActiveResidues>
 VAL166  LYS551  ARG553  GLY616  TRP617  ASP618  TYR619  PRO620  LYS621  CYS622 
 ASP623  PHE694  ASN695  SER759  ASP760  ASP761  ALA762  ILE779  LEU786  VAL792 
 PHE793  MET794  SER795  GLU796  ALA797  LYS798  CYS799  TRP800  GLU811  SER814 

> <Gold.Protein.RotatedAtoms>
  152.4124  133.6985  159.6409 H   0  0  0  0  0  0  0  0  0  0  0  0  # atno 6907 bound_to 6896
  150.8004  133.8599  159.3238 H   0  0  0  0  0  0  0  0  0  0  0  0  # atno 6908 bound_to 6896
  151.6338  135.1022  160.0179 H   0  0  0  0  0  0  0  0  0  0  0  0  # atno 6909 bound_to 6896
  146.2140  140.3103  142.8382 H   0  0  0  0  0  0  0  0  0  0  0  0  # atno 7974 bound_to 7965
  155.6075  140.3494  155.4612 H   0  0  0  0  0  0  0  0  0  0  0  0  # atno 8008 bound_to 7997
  156.0180  140.1247  157.0410 H   0  0  0  0  0  0  0  0  0  0  0  0  # atno 8009 bound_to 7997
  154.4305  140.1068  156.5910 H   0  0  0  0  0  0  0  0  0  0  0  0  # atno 8010 bound_to 7997
  140.4481  143.2492  151.8529 H   0  0  0  0  0  0  0  0  0  0  0  0  # atno 10167 bound_to 10162
  157.6514  131.0925  150.6541 H   0  0  0  0  0  0  0  0  0  0  0  0  # atno 10718 bound_to 10713
  153.6577  135.3352  155.3118 H   0  0  0  0  0  0  0  0  0  0  0  0  # atno 10763 bound_to 10752
  154.8522  135.4356  154.1837 H   0  0  0  0  0  0  0  0  0  0  0  0  # atno 10764 bound_to 10752
  153.2796  135.7008  153.7474 H   0  0  0  0  0  0  0  0  0  0  0  0  # atno 10765 bound_to 10752
  140.0851  134.9074  157.1562 H   0  0  0  0  0  0  0  0  0  0  0  0  # atno 11005 bound_to 11000
  144.8993  140.7622  143.5877 LP  0  0  0  0  0  0  0  0  0  0  0  0  # atno 17320 bound_to 7965
  145.3029  139.1844  143.4680 LP  0  0  0  0  0  0  0  0  0  0  0  0  # atno 17321 bound_to 7965
  139.4794  144.5152  151.8878 LP  0  0  0  0  0  0  0  0  0  0  0  0  # atno 17342 bound_to 10162
  140.4239  144.2206  150.5887 LP  0  0  0  0  0  0  0  0  0  0  0  0  # atno 17343 bound_to 10162
  156.6852  130.4579  149.5616 LP  0  0  0  0  0  0  0  0  0  0  0  0  # atno 17370 bound_to 10713
  156.1901  130.6554  151.1051 LP  0  0  0  0  0  0  0  0  0  0  0  0  # atno 17371 bound_to 10713
  140.3432  134.2681  155.7209 LP  0  0  0  0  0  0  0  0  0  0  0  0  # atno 17394 bound_to 11000
  141.2060  133.7846  157.0203 LP  0  0  0  0  0  0  0  0  0  0  0  0  # atno 17395 bound_to 11000

$$$$
