AV-unprocessed.smi:1683|AV-procd|sdf|6752|dock7
  -GOLD-   22720 7513D 1   1.00000     0.00000
 Structure written by MMmdl.
 37 38  0  0  0  0  0  0  0  0  2 V2000
  152.2934  135.8443  156.7120 O   0  0  0  0  0  0  0  0  0  0  0  0
  151.1446  136.2839  156.7601 C   0  0  0  0  0  0  0  0  0  0  0  0
  150.0634  135.5761  156.4038 N   0  0  0  0  0  0  0  0  0  0  0  0
  150.0802  134.2001  155.9175 C   0  0  0  0  0  0  0  0  0  0  0  0
  149.5005  134.1094  154.4964 C   0  0  1  0  0  0  0  0  0  0  0  0
  149.3880  132.6907  153.9352 C   0  0  0  0  0  0  0  0  0  0  0  0
  148.2729  132.7770  152.8837 C   0  0  0  0  0  0  0  0  0  0  0  0
  147.5612  134.0579  153.1141 N   0  3  1  0  0  0  0  0  0  0  0  0
  146.0823  133.9940  153.0224 C   0  0  0  0  0  0  0  0  0  0  0  0
  145.5719  134.1605  151.5805 C   0  0  0  0  0  0  0  0  0  0  0  0
  146.1633  133.2560  150.8018 F   0  0  0  0  0  0  0  0  0  0  0  0
  144.2540  133.9652  151.5382 F   0  0  0  0  0  0  0  0  0  0  0  0
  145.8517  135.3743  151.1073 F   0  0  0  0  0  0  0  0  0  0  0  0
  148.0638  134.6160  154.3845 C   0  0  0  0  0  0  0  0  0  0  0  0
  150.8077  137.5181  157.1697 N   0  0  0  0  0  0  0  0  0  0  0  0
  151.6780  138.5400  157.6276 C   0  0  0  0  0  0  0  0  0  0  0  0
  153.0725  138.3769  157.8500 C   0  0  0  0  0  0  0  0  0  0  0  0
  153.6293  139.5017  158.2761 N   0  0  0  0  0  0  0  0  0  0  0  0
  152.6037  140.3813  158.3279 N   0  0  0  0  0  0  0  0  0  0  0  0
  151.3971  139.8402  157.9420 C   0  0  0  0  0  0  0  0  0  0  0  0
  152.7412  141.3368  158.6254 H   0  0  0  0  0  0  0  0  0  0  0  0
  149.1611  136.0237  156.4736 H   0  0  0  0  0  0  0  0  0  0  0  0
  151.1096  133.8401  155.9337 H   0  0  0  0  0  0  0  0  0  0  0  0
  149.5099  133.5435  156.5768 H   0  0  0  0  0  0  0  0  0  0  0  0
  150.1216  134.6998  153.8200 H   0  0  0  0  0  0  0  0  0  0  0  0
  150.3285  132.3289  153.5180 H   0  0  0  0  0  0  0  0  0  0  0  0
  149.0893  131.9991  154.7243 H   0  0  0  0  0  0  0  0  0  0  0  0
  148.6844  132.7813  151.8738 H   0  0  0  0  0  0  0  0  0  0  0  0
  147.6092  131.9153  152.9673 H   0  0  0  0  0  0  0  0  0  0  0  0
  145.7168  133.0639  153.4604 H   0  0  0  0  0  0  0  0  0  0  0  0
  145.6683  134.8030  153.6264 H   0  0  0  0  0  0  0  0  0  0  0  0
  147.4656  134.2348  155.2146 H   0  0  0  0  0  0  0  0  0  0  0  0
  148.0020  135.7048  154.3949 H   0  0  0  0  0  0  0  0  0  0  0  0
  149.8259  137.7520  157.1551 H   0  0  0  0  0  0  0  0  0  0  0  0
  153.6865  137.4980  157.7184 H   0  0  0  0  0  0  0  0  0  0  0  0
  150.4833  140.4157  157.9289 H   0  0  0  0  0  0  0  0  0  0  0  0
  147.8763  134.6912  152.3928 H   0  0  0  0  0  0  0  0  0  0  0  0
  1  2  2  0  0  0  0
  2  3  1  0  0  0  0
  2 15  1  0  0  0  0
  3  4  1  0  0  0  0
  3 22  1  0  0  0  0
  4  5  1  0  0  0  0
  4 23  1  0  0  0  0
  4 24  1  0  0  0  0
  5 14  1  0  0  0  0
  5  6  1  0  0  0  0
  5 25  1  0  0  0  0
  6  7  1  0  0  0  0
  6 26  1  0  0  0  0
  6 27  1  0  0  0  0
  7  8  1  0  0  0  0
  7 28  1  0  0  0  0
  7 29  1  0  0  0  0
  8  9  1  0  0  0  0
  8 14  1  0  0  0  0
  8 37  1  0  0  0  0
  9 10  1  0  0  0  0
  9 30  1  0  0  0  0
  9 31  1  0  0  0  0
 10 11  1  0  0  0  0
 10 12  1  0  0  0  0
 10 13  1  0  0  0  0
 14 32  1  0  0  0  0
 14 33  1  0  0  0  0
 15 16  1  0  0  0  0
 15 34  1  0  0  0  0
 16 20  2  0  0  0  0
 16 17  1  0  0  0  0
 17 18  2  0  0  0  0
 17 35  1  0  0  0  0
 18 19  1  0  0  0  0
 19 21  1  0  0  0  0
 19 20  1  0  0  0  0
 20 36  1  0  0  0  0
M  CHG  1   8   1
M  END
> <s_m_source_file>
AV-unprocessed.smi

> <i_m_source_file_index>
1683

> <i_lp_mmshare_version>
43012

> <i_f3d_flags>
0

> <s_epik_input>
W2NIXTFbbkhdbltjSF1jMVtOSF1DKD1PKVtOSF1bQ0gyXVtDQEBIXTJbQ0gyXVtDSDJdTihbQ0gyXTIpW0NIMl1DKEYpKEYpRg==

> <s_epik_cmdline>
J2VwaWtfcHl0aG9uJywgJy1waCcsICc3LjAnLCAnLXRuJywgJzgnLCAnLW1hJywgJzIwMCcsICctbWV0YWxfYmluZGluZycsICctaW1hZScsICc8aW5maWxlLm1hZT4nLCAnLW9tYWUnLCAnPG91dGZpbGUubWFlPic=

> <r_lp_tautomer_probability>
0.5

> <r_epik_Ionization_Penalty>
0.641865

> <r_epik_Ionization_Penalty_Charging>
0.64182

> <r_epik_Ionization_Penalty_Neutral>
4.50685e-05

> <r_epik_State_Penalty>
0.65957

> <r_epik_Charging_Adjusted_Penalty>
1.30139

> <i_epik_Tot_Q>
1

> <i_epik_Tot_abs_Q>
1

> <r_epik_Metal_State_Penalty>
0.659571

> <b_epik_Metal_Only>
0

> <s_lp_Force_Field>
OPLS_2005

> <r_lp_Energy>
31.2098

> <b_lp_Chiralities_Consistent>
1

> <s_lp_Variant>
AV-unprocessed.smi:1683-6

> <Gold.Version>
5.8.1

> <Gold.Id.Protein>
6NUR|6NUR_protein|mol2

> <Gold.PLP.Fitness>
40.5489

> <Gold.PLP.PLP>
-28.8550

> <Gold.PLP.part.hbond>
-3.0000

> <Gold.PLP.part.metal>
0.0000

> <Gold.PLP.part.buried>
-3.8952

> <Gold.PLP.part.nonpolar>
-22.1323

> <Gold.PLP.part.repulsive>
0.2183

> <Gold.PLP.ligand.clash>
0.0000

> <Gold.PLP.ligand.torsion>
0.3835

> <Gold.PLP.Chemscore.Hbond>
4.0000

> <Gold.PLP.Chemscore.CHOScore>
0.0000

> <Gold.PLP.Chemscore.Metal>
0.0000

> <Gold.Chemscore.Hbonds>
donor molecule, donor type, donor heavy atom, donor atom, acceptor molecule, acceptor atom, score
      L1  H     8    37       P1  7948  2.00
      P1  H  7997  8008       L1    18  1.00
      P1  H 10752 10765       L1     1  1.00

> <Gold.PLP.Chemscore.Internal.Correction>
0.4608

> <Gold.Rescore>
     Score         DG    S(hbond)    S(metal)    S(lipo)     H(rot)  DE(clash)    DE(int)     intcor
     13.58     -15.45       2.73        0.00      46.96       1.81       0.03       1.84       ----

> <Gold.Chemscore.Fitness>
13.5822

> <Gold.Chemscore.DG>
-15.4491

> <Gold.Chemscore.ZeroCoef>
-5.4800

> <Gold.Chemscore.Hbond>
2.7282

> <Gold.Chemscore.Metal>
0.0000

> <Gold.Chemscore.Lipo>
46.9642

> <Gold.Chemscore.Internal_Hbond>
0.0000

> <Gold.Chemscore.DEClash>
0.0272

> <Gold.Chemscore.DEInternal>
1.8397

> <Gold.Chemscore.Rot>
1.8116

> <Gold.Chemscore.Internal.Correction>
   9.000000E+99

> <Gold.Chemscore.Hbonds>
donor molecule, donor type, donor heavy atom, donor atom, acceptor molecule, acceptor atom, score
      L1  H     8    37       P1  7948  0.62
      P1  H  7997  8008       L1    18  0.17
      P1  H 10752 10765       L1     1  1.00

> <Gold.Chemscore.Hbond.Weighted>
-9.1120

> <Gold.Chemscore.Metal.Weighted>
-0.0000

> <Gold.Chemscore.Lipo.Weighted>
-5.4948

> <Gold.Chemscore.Internal_Hbond.Weighted>
0.0000

> <Gold.Chemscore.DEClash.Weighted>
0.0272

> <Gold.Chemscore.DEInternal.Weighted>
1.8397

> <Gold.Chemscore.Rot.Weighted>
4.6378

> <Gold.Chemscore.Internal.Correction.Weighted>
   9.000000E+99

> <Gold.Protein.RotatedTorsions>
[ 6907 6896 6895 6894 ] final -173.59 input  -60.11 | X-H torsion
[ 7974 7965 7964 7962 ] final   36.60 input  175.53 | X-H torsion
[ 8008 7997 7996 7995 ] final  -78.16 input   59.86 | X-H torsion
[ 10167 10162 10161 10158 ] final   93.83 input  -65.29 | X-H torsion
[ 10718 10713 10712 10709 ] final -128.53 input   66.30 | X-H torsion
[ 10763 10752 10751 10750 ] final -141.90 input  -60.55 | X-H torsion
[ 11005 11000 10999 10996 ] final  -52.03 input  -57.11 | X-H torsion

> <Gold.Protein.ActiveResidues>
 VAL166  LYS551  ARG553  GLY616  TRP617  ASP618  TYR619  PRO620  LYS621  CYS622 
 ASP623  PHE694  ASN695  SER759  ASP760  ASP761  ALA762  ILE779  LEU786  VAL792 
 PHE793  MET794  SER795  GLU796  ALA797  LYS798  CYS799  TRP800  GLU811  SER814 

> <Gold.Protein.RotatedAtoms>
  151.5586  133.3406  159.2966 H   0  0  0  0  0  0  0  0  0  0  0  0  # atno 6907 bound_to 6896
  150.8436  134.7740  159.6963 H   0  0  0  0  0  0  0  0  0  0  0  0  # atno 6908 bound_to 6896
  152.4498  134.5424  159.9894 H   0  0  0  0  0  0  0  0  0  0  0  0  # atno 6909 bound_to 6896
  146.1200  139.5998  142.9296 H   0  0  0  0  0  0  0  0  0  0  0  0  # atno 7974 bound_to 7965
  154.5663  140.0698  156.8897 H   0  0  0  0  0  0  0  0  0  0  0  0  # atno 8008 bound_to 7997
  155.2716  140.3365  155.4246 H   0  0  0  0  0  0  0  0  0  0  0  0  # atno 8009 bound_to 7997
  156.2083  140.1749  156.7736 H   0  0  0  0  0  0  0  0  0  0  0  0  # atno 8010 bound_to 7997
  139.8142  144.6760  150.9601 H   0  0  0  0  0  0  0  0  0  0  0  0  # atno 10167 bound_to 10162
  156.1959  130.6826  151.0481 H   0  0  0  0  0  0  0  0  0  0  0  0  # atno 10718 bound_to 10713
  154.8529  135.3511  154.5941 H   0  0  0  0  0  0  0  0  0  0  0  0  # atno 10763 bound_to 10752
  153.6551  135.6992  153.5201 H   0  0  0  0  0  0  0  0  0  0  0  0  # atno 10764 bound_to 10752
  153.2863  135.4248  155.1083 H   0  0  0  0  0  0  0  0  0  0  0  0  # atno 10765 bound_to 10752
  141.0902  133.6634  156.3964 H   0  0  0  0  0  0  0  0  0  0  0  0  # atno 11005 bound_to 11000
  145.5487  141.0415  143.2290 LP  0  0  0  0  0  0  0  0  0  0  0  0  # atno 17320 bound_to 7965
  144.7588  139.7008  143.7243 LP  0  0  0  0  0  0  0  0  0  0  0  0  # atno 17321 bound_to 7965
  140.7816  143.4155  151.0924 LP  0  0  0  0  0  0  0  0  0  0  0  0  # atno 17342 bound_to 10162
  139.7820  143.8342  152.3139 LP  0  0  0  0  0  0  0  0  0  0  0  0  # atno 17343 bound_to 10162
  157.6957  131.0794  150.6975 LP  0  0  0  0  0  0  0  0  0  0  0  0  # atno 17370 bound_to 10713
  156.7032  130.4629  149.5567 LP  0  0  0  0  0  0  0  0  0  0  0  0  # atno 17371 bound_to 10713
  140.5269  134.6250  157.5337 LP  0  0  0  0  0  0  0  0  0  0  0  0  # atno 17394 bound_to 11000
  139.9727  134.7266  156.0010 LP  0  0  0  0  0  0  0  0  0  0  0  0  # atno 17395 bound_to 11000

$$$$
