AV-unprocessed.smi:109|AV-procd|sdf|1041|dock4
  -GOLD-   2262018 73D 1   1.00000     0.00000
 Structure written by MMmdl.
 58 61  0  0  0  0  0  0  0  0  1 V2000
  145.8297  141.4385  154.2744 O   0  0  0  0  0  0  0  0  0  0  0  0
  146.9742  142.0677  153.7394 C   0  0  0  0  0  0  0  0  0  0  0  0
  148.2442  141.4373  154.3363 C   0  0  0  0  0  0  0  0  0  0  0  0
  148.3075  139.8939  154.2196 C   0  0  2  0  0  0  0  0  0  0  0  0
  147.1016  139.3091  154.8112 N   0  0  0  0  0  0  0  0  0  0  0  0
  146.8650  137.9779  154.8018 C   0  0  0  0  0  0  0  0  0  0  0  0
  147.2299  137.1838  155.8414 N   0  0  0  0  0  0  0  0  0  0  0  0
  146.9876  135.8710  155.7980 C   0  0  0  0  0  0  0  0  0  0  0  0
  146.4029  135.1635  154.8296 N   0  0  0  0  0  0  0  0  0  0  0  0
  146.0317  135.9542  153.7815 C   0  0  0  0  0  0  0  0  0  0  0  0
  146.2268  137.3613  153.6946 C   0  0  0  0  0  0  0  0  0  0  0  0
  145.7239  137.8334  152.4897 N   0  0  0  0  0  0  0  0  0  0  0  0
  145.2580  136.7642  151.9024 C   0  0  0  0  0  0  0  0  0  0  0  0
  145.3984  135.5899  152.6087 N   0  0  0  0  0  0  0  0  0  0  0  0
  144.9586  134.2208  152.1827 C   0  0  1  0  0  0  0  0  0  0  0  0
  144.2837  134.3070  150.9622 O   0  0  0  0  0  0  0  0  0  0  0  0
  144.9318  133.5068  149.9765 C   0  0  2  0  0  0  0  0  0  0  0  0
  143.9206  132.9916  148.9371 C   0  0  0  0  0  0  0  0  0  0  0  0
  143.5557  134.0267  148.0489 O   0  0  0  0  0  0  0  0  0  0  0  0
  145.7105  132.4523  150.7768 C   0  0  2  0  0  0  0  0  0  0  0  0
  144.8876  131.3555  151.1293 O   0  0  0  0  0  0  0  0  0  0  0  0
  146.1253  133.2245  152.0190 C   0  0  1  0  0  0  0  0  0  0  0  0
  147.3870  133.8400  151.8271 O   0  0  0  0  0  0  0  0  0  0  0  0
  149.5666  139.2755  154.8935 C   0  0  0  0  0  0  0  0  0  0  0  0
  150.5321  140.3405  155.4729 C   0  0  0  0  0  0  0  0  0  0  0  0
  151.7870  139.7158  156.1051 C   0  0  0  0  0  0  0  0  0  0  0  0
  152.5322  138.8199  155.1086 C   0  0  0  0  0  0  0  0  0  0  0  0
  151.5962  137.7435  154.5471 C   0  0  0  0  0  0  0  0  0  0  0  0
  150.3503  138.3728  153.9053 C   0  0  0  0  0  0  0  0  0  0  0  0
  144.2483  133.9093  152.9495 H   0  0  0  0  0  0  0  0  0  0  0  0
  145.6540  134.1484  149.4703 H   0  0  0  0  0  0  0  0  0  0  0  0
  146.5648  132.0658  150.2193 H   0  0  0  0  0  0  0  0  0  0  0  0
  146.1928  132.5901  152.9037 H   0  0  0  0  0  0  0  0  0  0  0  0
  145.2026  141.3143  153.5785 H   0  0  0  0  0  0  0  0  0  0  0  0
  146.9508  141.9614  152.6549 H   0  0  0  0  0  0  0  0  0  0  0  0
  146.9304  143.1331  153.9667 H   0  0  0  0  0  0  0  0  0  0  0  0
  149.0883  141.8826  153.8131 H   0  0  0  0  0  0  0  0  0  0  0  0
  148.3421  141.7295  155.3828 H   0  0  0  0  0  0  0  0  0  0  0  0
  148.3722  139.6439  153.1608 H   0  0  0  0  0  0  0  0  0  0  0  0
  146.4871  139.9642  155.2727 H   0  0  0  0  0  0  0  0  0  0  0  0
  147.3073  135.3071  156.6617 H   0  0  0  0  0  0  0  0  0  0  0  0
  144.7924  136.8037  150.9282 H   0  0  0  0  0  0  0  0  0  0  0  0
  144.3181  132.1465  148.3746 H   0  0  0  0  0  0  0  0  0  0  0  0
  143.0200  132.6400  149.4412 H   0  0  0  0  0  0  0  0  0  0  0  0
  144.3267  134.3044  147.5781 H   0  0  0  0  0  0  0  0  0  0  0  0
  145.4373  130.5935  151.2328 H   0  0  0  0  0  0  0  0  0  0  0  0
  147.2850  134.7724  151.9424 H   0  0  0  0  0  0  0  0  0  0  0  0
  149.2301  138.6495  155.7217 H   0  0  0  0  0  0  0  0  0  0  0  0
  150.8280  141.0356  154.6859 H   0  0  0  0  0  0  0  0  0  0  0  0
  150.0422  140.9336  156.2431 H   0  0  0  0  0  0  0  0  0  0  0  0
  152.4516  140.5021  156.4642 H   0  0  0  0  0  0  0  0  0  0  0  0
  151.5014  139.1304  156.9799 H   0  0  0  0  0  0  0  0  0  0  0  0
  152.9277  139.4260  154.2927 H   0  0  0  0  0  0  0  0  0  0  0  0
  153.3896  138.3533  155.5946 H   0  0  0  0  0  0  0  0  0  0  0  0
  152.1264  137.1369  153.8123 H   0  0  0  0  0  0  0  0  0  0  0  0
  151.2935  137.0662  155.3466 H   0  0  0  0  0  0  0  0  0  0  0  0
  149.7192  137.5665  153.5311 H   0  0  0  0  0  0  0  0  0  0  0  0
  150.6468  138.9566  153.0330 H   0  0  0  0  0  0  0  0  0  0  0  0
  1  2  1  0  0  0  0
  1 34  1  0  0  0  0
  2  3  1  0  0  0  0
  2 35  1  0  0  0  0
  2 36  1  0  0  0  0
  3  4  1  0  0  0  0
  3 37  1  0  0  0  0
  3 38  1  0  0  0  0
  4  5  1  0  0  0  0
  4 24  1  0  0  0  0
  4 39  1  0  0  0  0
  5  6  1  0  0  0  0
  5 40  1  0  0  0  0
  6 11  1  0  0  0  0
  6  7  2  0  0  0  0
  7  8  1  0  0  0  0
  8  9  2  0  0  0  0
  8 41  1  0  0  0  0
  9 10  1  0  0  0  0
 10 14  1  0  0  0  0
 10 11  2  0  0  0  0
 11 12  1  0  0  0  0
 12 13  2  0  0  0  0
 13 14  1  0  0  0  0
 13 42  1  0  0  0  0
 14 15  1  0  0  0  0
 15 30  1  0  0  0  0
 15 22  1  0  0  0  0
 15 16  1  0  0  0  0
 16 17  1  0  0  0  0
 17 31  1  0  0  0  0
 17 18  1  0  0  0  0
 17 20  1  0  0  0  0
 18 19  1  0  0  0  0
 18 43  1  0  0  0  0
 18 44  1  0  0  0  0
 19 45  1  0  0  0  0
 20 32  1  0  0  0  0
 20 21  1  0  0  0  0
 20 22  1  0  0  0  0
 21 46  1  0  0  0  0
 22 33  1  0  0  0  0
 22 23  1  0  0  0  0
 23 47  1  0  0  0  0
 24 29  1  0  0  0  0
 24 25  1  0  0  0  0
 24 48  1  0  0  0  0
 25 26  1  0  0  0  0
 25 49  1  0  0  0  0
 25 50  1  0  0  0  0
 26 27  1  0  0  0  0
 26 51  1  0  0  0  0
 26 52  1  0  0  0  0
 27 28  1  0  0  0  0
 27 53  1  0  0  0  0
 27 54  1  0  0  0  0
 28 29  1  0  0  0  0
 28 55  1  0  0  0  0
 28 56  1  0  0  0  0
 29 57  1  0  0  0  0
 29 58  1  0  0  0  0
M  END
> <s_m_source_file>
AV-unprocessed.smi

> <i_m_source_file_index>
109

> <i_lp_mmshare_version>
43012

> <i_f3d_flags>
0

> <s_epik_input>
W0NIMl0xW0NIMl1bQ0gyXVtDSDJdW0NIMl1bQ0hdMVtDQEhdKFtDSDJdW0NIMl1bT0hdKVtOSF1jKG5bY0hdbjIpYyhjMjMpbltjSF1uM1tDQEBIXTRPW0NASF0oW0NIMl1bT0hdKVtDQEBIXShbT0hdKVtDQEhdNFtPSF0=

> <s_epik_cmdline>
J2VwaWtfcHl0aG9uJywgJy1waCcsICc3LjAnLCAnLXRuJywgJzgnLCAnLW1hJywgJzIwMCcsICctbWV0YWxfYmluZGluZycsICctaW1hZScsICc8aW5maWxlLm1hZT4nLCAnLW9tYWUnLCAnPG91dGZpbGUubWFlPic=

> <r_lp_tautomer_probability>
1

> <r_epik_Ionization_Penalty>
0.000793976

> <r_epik_Ionization_Penalty_Charging>
0

> <r_epik_Ionization_Penalty_Neutral>
0.000793976

> <r_epik_State_Penalty>
-0

> <r_epik_Charging_Adjusted_Penalty>
0

> <i_epik_Tot_Q>
0

> <i_epik_Tot_abs_Q>
0

> <r_epik_Metal_State_Penalty>
-0

> <b_epik_Metal_Only>
0

> <s_epik_Chemistry_Notes>
This compound contains an acetal/aminal-like group ( X-CH(R)-Y where X, Y are N, S, or O) that may be acid/base labile, releasing an aldehyde.

> <s_lp_Force_Field>
OPLS_2005

> <r_lp_Energy>
56.0983

> <b_lp_Chiralities_Consistent>
1

> <s_lp_Variant>
AV-unprocessed.smi:109-11

> <Gold.Version>
5.8.1

> <Gold.Id.Protein>
6NUR|6NUR_protein|mol2

> <Gold.PLP.Fitness>
52.2661

> <Gold.PLP.PLP>
-44.1310

> <Gold.PLP.part.hbond>
-5.5191

> <Gold.PLP.part.metal>
0.0000

> <Gold.PLP.part.buried>
-0.7492

> <Gold.PLP.part.nonpolar>
-37.0027

> <Gold.PLP.part.repulsive>
0.5142

> <Gold.PLP.ligand.clash>
0.0000

> <Gold.PLP.ligand.torsion>
2.3790

> <Gold.PLP.Chemscore.Hbond>
3.2260

> <Gold.PLP.Chemscore.CHOScore>
1.0000

> <Gold.PLP.Chemscore.Metal>
0.0000

> <Gold.Chemscore.Hbonds>
donor molecule, donor type, donor heavy atom, donor atom, acceptor molecule, acceptor atom, score
      L1  H     1    34       P1 10175  0.98
      L1  H    19    45       P1  7921  0.99
      L1  H    23    47       P1  7948  0.30
      P1  H 10192 10197       L1    19  0.80
      L1  C    13    42       P1 10171  1.00

> <Gold.PLP.Chemscore.Internal.Correction>
0.2152

> <Gold.Rescore>
     Score         DG    S(hbond)    S(metal)    S(lipo)     H(rot)  DE(clash)    DE(int)     intcor
      8.12     -10.46       2.12        0.00     101.74       5.47       0.03       2.30       ----

> <Gold.Chemscore.Fitness>
8.1236

> <Gold.Chemscore.DG>
-10.4571

> <Gold.Chemscore.ZeroCoef>
-5.4800

> <Gold.Chemscore.Hbond>
2.1160

> <Gold.Chemscore.Metal>
0.0000

> <Gold.Chemscore.Lipo>
101.7359

> <Gold.Chemscore.Internal_Hbond>
0.0000

> <Gold.Chemscore.DEClash>
0.0294

> <Gold.Chemscore.DEInternal>
2.3041

> <Gold.Chemscore.Rot>
5.4662

> <Gold.Chemscore.Internal.Correction>
   9.000000E+99

> <Gold.Chemscore.Hbonds>
donor molecule, donor type, donor heavy atom, donor atom, acceptor molecule, acceptor atom, score
      L1  H     1    34       P1 10175  0.28
      L1  H    19    45       P1  7921  0.94
      L1  H    23    47       P1  7948  0.25
      P1  H 10192 10197       L1    19  0.31

> <Gold.Chemscore.Hbond.Weighted>
-7.0675

> <Gold.Chemscore.Metal.Weighted>
-0.0000

> <Gold.Chemscore.Lipo.Weighted>
-11.9031

> <Gold.Chemscore.Internal_Hbond.Weighted>
0.0000

> <Gold.Chemscore.DEClash.Weighted>
0.0294

> <Gold.Chemscore.DEInternal.Weighted>
2.3041

> <Gold.Chemscore.Rot.Weighted>
13.9935

> <Gold.Chemscore.Internal.Correction.Weighted>
   9.000000E+99

> <Gold.Protein.RotatedTorsions>
[ 6907 6896 6895 6894 ] final -155.12 input  -60.11 | X-H torsion
[ 7974 7965 7964 7962 ] final    7.43 input  175.53 | X-H torsion
[ 8008 7997 7996 7995 ] final -155.75 input   59.86 | X-H torsion
[ 10167 10162 10161 10158 ] final  -37.68 input  -65.29 | X-H torsion
[ 10718 10713 10712 10709 ] final   99.27 input   66.30 | X-H torsion
[ 10763 10752 10751 10750 ] final -171.59 input  -60.55 | X-H torsion
[ 11005 11000 10999 10996 ] final  177.68 input  -57.11 | X-H torsion

> <Gold.Protein.ActiveResidues>
 VAL166  LYS551  ARG553  GLY616  TRP617  ASP618  TYR619  PRO620  LYS621  CYS622 
 ASP623  PHE694  ASN695  SER759  ASP760  ASP761  ALA762  ILE779  LEU786  VAL792 
 PHE793  MET794  SER795  GLU796  ALA797  LYS798  CYS799  TRP800  GLU811  SER814 

> <Gold.Protein.RotatedAtoms>
  151.2678  133.4270  159.2619 H   0  0  0  0  0  0  0  0  0  0  0  0  # atno 6907 bound_to 6896
  151.0473  134.9649  159.8203 H   0  0  0  0  0  0  0  0  0  0  0  0  # atno 6908 bound_to 6896
  152.5376  134.2633  159.8996 H   0  0  0  0  0  0  0  0  0  0  0  0  # atno 6909 bound_to 6896
  146.2426  140.0085  142.8409 H   0  0  0  0  0  0  0  0  0  0  0  0  # atno 7974 bound_to 7965
  155.7066  140.0773  157.2388 H   0  0  0  0  0  0  0  0  0  0  0  0  # atno 8008 bound_to 7997
  154.4065  140.1637  156.2303 H   0  0  0  0  0  0  0  0  0  0  0  0  # atno 8009 bound_to 7997
  155.9320  140.3390  155.6260 H   0  0  0  0  0  0  0  0  0  0  0  0  # atno 8010 bound_to 7997
  140.7112  143.3326  151.2534 H   0  0  0  0  0  0  0  0  0  0  0  0  # atno 10167 bound_to 10162
  157.6879  131.0664  150.4922 H   0  0  0  0  0  0  0  0  0  0  0  0  # atno 10718 bound_to 10713
  154.6288  135.2884  155.0241 H   0  0  0  0  0  0  0  0  0  0  0  0  # atno 10763 bound_to 10752
  154.1409  135.6519  153.4946 H   0  0  0  0  0  0  0  0  0  0  0  0  # atno 10764 bound_to 10752
  153.0270  135.5332  154.7107 H   0  0  0  0  0  0  0  0  0  0  0  0  # atno 10765 bound_to 10752
  140.3867  134.6898  157.4483 H   0  0  0  0  0  0  0  0  0  0  0  0  # atno 11005 bound_to 11000
  145.1350  140.9539  143.4522 LP  0  0  0  0  0  0  0  0  0  0  0  0  # atno 17320 bound_to 7965
  145.0351  139.3308  143.6005 LP  0  0  0  0  0  0  0  0  0  0  0  0  # atno 17321 bound_to 7965
  139.6812  143.9851  152.2809 LP  0  0  0  0  0  0  0  0  0  0  0  0  # atno 17342 bound_to 10162
  139.9481  144.6638  150.8199 LP  0  0  0  0  0  0  0  0  0  0  0  0  # atno 17343 bound_to 10162
  156.5248  130.4170  149.6232 LP  0  0  0  0  0  0  0  0  0  0  0  0  # atno 17370 bound_to 10713
  156.3122  130.7235  151.2130 LP  0  0  0  0  0  0  0  0  0  0  0  0  # atno 17371 bound_to 10713
  140.0437  134.6230  155.8948 LP  0  0  0  0  0  0  0  0  0  0  0  0  # atno 17394 bound_to 11000
  141.1905  133.6568  156.5414 LP  0  0  0  0  0  0  0  0  0  0  0  0  # atno 17395 bound_to 11000

$$$$
