AV-unprocessed.smi:3156|AV-procd|sdf|12030|dock5
  -GOLD-   2272017443D 1   1.00000     0.00000
 Structure written by MMmdl.
 41 42  0  0  0  0  0  0  0  0  2 V2000
  148.7573  140.2124  157.1601 C   0  0  0  0  0  0  0  0  0  0  0  0
  148.6816  141.4697  156.2750 C   0  0  1  0  0  0  0  0  0  0  0  0
  149.5342  142.5225  156.8707 N   0  3  0  0  0  0  0  0  0  0  0  0
  150.9836  142.3562  156.6370 C   0  0  0  0  0  0  0  0  0  0  0  0
  151.7987  142.9975  157.7677 C   0  0  2  0  0  0  0  0  0  0  0  0
  151.6141  142.2539  159.1049 C   0  0  0  0  0  0  0  0  0  0  0  0
  152.3599  142.9786  160.2311 C   0  0  0  0  0  0  0  0  0  0  0  0
  151.9325  144.4496  160.2684 C   0  0  0  0  0  0  0  0  0  0  0  0
  152.0915  145.0866  158.8791 C   0  0  0  0  0  0  0  0  0  0  0  0
  151.3489  144.3429  157.9176 O   0  0  0  0  0  0  0  0  0  0  0  0
  149.0980  141.2070  154.8035 C   0  0  2  0  0  0  0  0  0  0  0  0
  147.8982  141.1180  153.8423 C   0  0  0  0  0  0  0  0  0  0  0  0
  149.9196  140.0093  154.6810 N   0  0  0  0  0  0  0  0  0  0  0  0
  149.5221  138.7097  154.4345 C   0  0  0  0  0  0  0  0  0  0  0  0
  150.6457  137.9343  154.4227 C   0  0  0  0  0  0  0  0  0  0  0  0
  151.6965  138.8582  154.6793 C   0  0  0  0  0  0  0  0  0  0  0  0
  151.2592  140.0974  154.8342 N   0  0  0  0  0  0  0  0  0  0  0  0
  148.0625  139.4402  156.8300 H   0  0  0  0  0  0  0  0  0  0  0  0
  148.5035  140.4463  158.1948 H   0  0  0  0  0  0  0  0  0  0  0  0
  149.7600  139.7834  157.1531 H   0  0  0  0  0  0  0  0  0  0  0  0
  147.6420  141.8030  156.2866 H   0  0  0  0  0  0  0  0  0  0  0  0
  149.2543  143.4139  156.4868 H   0  0  0  0  0  0  0  0  0  0  0  0
  151.2311  141.2972  156.5519 H   0  0  0  0  0  0  0  0  0  0  0  0
  151.2353  142.8226  155.6835 H   0  0  0  0  0  0  0  0  0  0  0  0
  152.8557  142.9937  157.4944 H   0  0  0  0  0  0  0  0  0  0  0  0
  150.5530  142.1941  159.3510 H   0  0  0  0  0  0  0  0  0  0  0  0
  151.9736  141.2279  159.0215 H   0  0  0  0  0  0  0  0  0  0  0  0
  152.1617  142.4999  161.1905 H   0  0  0  0  0  0  0  0  0  0  0  0
  153.4356  142.9117  160.0630 H   0  0  0  0  0  0  0  0  0  0  0  0
  150.8909  144.5210  160.5838 H   0  0  0  0  0  0  0  0  0  0  0  0
  152.5209  144.9961  161.0058 H   0  0  0  0  0  0  0  0  0  0  0  0
  151.7216  146.1119  158.8929 H   0  0  0  0  0  0  0  0  0  0  0  0
  153.1421  145.1309  158.5880 H   0  0  0  0  0  0  0  0  0  0  0  0
  149.7086  142.0514  154.4766 H   0  0  0  0  0  0  0  0  0  0  0  0
  147.3475  142.0576  153.8021 H   0  0  0  0  0  0  0  0  0  0  0  0
  147.2004  140.3357  154.1425 H   0  0  0  0  0  0  0  0  0  0  0  0
  148.2276  140.8970  152.8264 H   0  0  0  0  0  0  0  0  0  0  0  0
  148.4843  138.4465  154.2911 H   0  0  0  0  0  0  0  0  0  0  0  0
  150.7079  136.8687  154.2578 H   0  0  0  0  0  0  0  0  0  0  0  0
  152.7564  138.6663  154.7585 H   0  0  0  0  0  0  0  0  0  0  0  0
  149.3677  142.5390  157.8672 H   0  0  0  0  0  0  0  0  0  0  0  0
  1  2  1  0  0  0  0
  1 18  1  0  0  0  0
  1 19  1  0  0  0  0
  1 20  1  0  0  0  0
  2  3  1  0  0  0  0
  2 11  1  0  0  0  0
  2 21  1  0  0  0  0
  3  4  1  0  0  0  0
  3 22  1  0  0  0  0
  3 41  1  0  0  0  0
  4  5  1  0  0  0  0
  4 23  1  0  0  0  0
  4 24  1  0  0  0  0
  5 10  1  0  0  0  0
  5  6  1  0  0  0  0
  5 25  1  0  0  0  0
  6  7  1  0  0  0  0
  6 26  1  0  0  0  0
  6 27  1  0  0  0  0
  7  8  1  0  0  0  0
  7 28  1  0  0  0  0
  7 29  1  0  0  0  0
  8  9  1  0  0  0  0
  8 30  1  0  0  0  0
  8 31  1  0  0  0  0
  9 10  1  0  0  0  0
  9 32  1  0  0  0  0
  9 33  1  0  0  0  0
 11 12  1  0  0  0  0
 11 13  1  0  0  0  0
 11 34  1  0  0  0  0
 12 35  1  0  0  0  0
 12 36  1  0  0  0  0
 12 37  1  0  0  0  0
 13 17  1  0  0  0  0
 13 14  1  0  0  0  0
 14 15  2  0  0  0  0
 14 38  1  0  0  0  0
 15 16  1  0  0  0  0
 15 39  1  0  0  0  0
 16 17  2  0  0  0  0
 16 40  1  0  0  0  0
M  CHG  1   3   1
M  END
> <s_m_source_file>
AV-unprocessed.smi

> <i_m_source_file_index>
3156

> <i_lp_mmshare_version>
43012

> <i_f3d_flags>
0

> <s_epik_input>
bjFbY0hdW2NIXVtjSF1uMVtDQEBIXShbQ0gzXSlbQ0BIXShbQ0gzXSlbTkhdW0NIMl1bQ0BASF0yW0NIMl1bQ0gyXVtDSDJdW0NIMl1PMg==

> <s_epik_cmdline>
J2VwaWtfcHl0aG9uJywgJy1waCcsICc3LjAnLCAnLXRuJywgJzgnLCAnLW1hJywgJzIwMCcsICctbWV0YWxfYmluZGluZycsICctaW1hZScsICc8aW5maWxlLm1hZT4nLCAnLW9tYWUnLCAnPG91dGZpbGUubWFlPic=

> <r_lp_tautomer_probability>
1

> <r_epik_Ionization_Penalty>
0.00658015

> <r_epik_Ionization_Penalty_Charging>
0.00656881

> <r_epik_Ionization_Penalty_Neutral>
1.13431e-05

> <r_epik_State_Penalty>
0.0048654

> <r_epik_Charging_Adjusted_Penalty>
0.0114342

> <i_epik_Tot_Q>
1

> <i_epik_Tot_abs_Q>
1

> <r_epik_Metal_State_Penalty>
-0

> <b_epik_Metal_Only>
0

> <s_lp_Force_Field>
OPLS_2005

> <r_lp_Energy>
19.2927

> <b_lp_Chiralities_Consistent>
1

> <s_lp_Variant>
AV-unprocessed.smi:3156-2

> <Gold.Version>
5.8.1

> <Gold.Id.Protein>
6NUR|6NUR_protein|mol2

> <Gold.PLP.Fitness>
45.8505

> <Gold.PLP.PLP>
-41.1953

> <Gold.PLP.part.hbond>
-2.0000

> <Gold.PLP.part.metal>
0.0000

> <Gold.PLP.part.buried>
-5.8359

> <Gold.PLP.part.nonpolar>
-33.8413

> <Gold.PLP.part.repulsive>
0.2274

> <Gold.PLP.ligand.clash>
0.0000

> <Gold.PLP.ligand.torsion>
2.2230

> <Gold.PLP.Chemscore.Hbond>
3.0000

> <Gold.PLP.Chemscore.CHOScore>
0.0000

> <Gold.PLP.Chemscore.Metal>
0.0000

> <Gold.Chemscore.Hbonds>
donor molecule, donor type, donor heavy atom, donor atom, acceptor molecule, acceptor atom, score
      L1  H     3    22       P1  8028  2.00
      P1  H  7989  7998       L1    17  1.00

> <Gold.PLP.Chemscore.Internal.Correction>
0.1011

> <Gold.Rescore>
     Score         DG    S(hbond)    S(metal)    S(lipo)     H(rot)  DE(clash)    DE(int)     intcor
     17.39     -19.86       1.83        0.00     105.57       1.59       0.15       2.32       ----

> <Gold.Chemscore.Fitness>
17.3924

> <Gold.Chemscore.DG>
-19.8617

> <Gold.Chemscore.ZeroCoef>
-5.4800

> <Gold.Chemscore.Hbond>
1.8295

> <Gold.Chemscore.Metal>
0.0000

> <Gold.Chemscore.Lipo>
105.5689

> <Gold.Chemscore.Internal_Hbond>
0.0000

> <Gold.Chemscore.DEClash>
0.1542

> <Gold.Chemscore.DEInternal>
2.3151

> <Gold.Chemscore.Rot>
1.5938

> <Gold.Chemscore.Internal.Correction>
   9.000000E+99

> <Gold.Chemscore.Hbonds>
donor molecule, donor type, donor heavy atom, donor atom, acceptor molecule, acceptor atom, score
      L1  H     3    22       P1  8028  0.98
      P1  H  7989  7998       L1    17  0.14

> <Gold.Chemscore.Hbond.Weighted>
-6.1104

> <Gold.Chemscore.Metal.Weighted>
-0.0000

> <Gold.Chemscore.Lipo.Weighted>
-12.3516

> <Gold.Chemscore.Internal_Hbond.Weighted>
0.0000

> <Gold.Chemscore.DEClash.Weighted>
0.1542

> <Gold.Chemscore.DEInternal.Weighted>
2.3151

> <Gold.Chemscore.Rot.Weighted>
4.0802

> <Gold.Chemscore.Internal.Correction.Weighted>
   9.000000E+99

> <Gold.Protein.RotatedTorsions>
[ 6907 6896 6895 6894 ] final -124.78 input  -60.11 | X-H torsion
[ 7974 7965 7964 7962 ] final   77.99 input  175.53 | X-H torsion
[ 8008 7997 7996 7995 ] final -175.40 input   59.86 | X-H torsion
[ 10167 10162 10161 10158 ] final   53.77 input  -65.29 | X-H torsion
[ 10718 10713 10712 10709 ] final  -16.15 input   66.30 | X-H torsion
[ 10763 10752 10751 10750 ] final  -92.42 input  -60.55 | X-H torsion
[ 11005 11000 10999 10996 ] final  163.95 input  -57.11 | X-H torsion

> <Gold.Protein.ActiveResidues>
 VAL166  LYS551  ARG553  GLY616  TRP617  ASP618  TYR619  PRO620  LYS621  CYS622 
 ASP623  PHE694  ASN695  SER759  ASP760  ASP761  ALA762  ILE779  LEU786  VAL792 
 PHE793  MET794  SER795  GLU796  ALA797  LYS798  CYS799  TRP800  GLU811  SER814 

> <Gold.Protein.RotatedAtoms>
  150.8802  133.7383  159.2934 H   0  0  0  0  0  0  0  0  0  0  0  0  # atno 6907 bound_to 6896
  151.4967  135.1058  159.9827 H   0  0  0  0  0  0  0  0  0  0  0  0  # atno 6908 bound_to 6896
  152.4754  133.8081  159.7044 H   0  0  0  0  0  0  0  0  0  0  0  0  # atno 6909 bound_to 6896
  145.6829  139.2529  143.1804 H   0  0  0  0  0  0  0  0  0  0  0  0  # atno 7974 bound_to 7965
  155.9821  140.1184  157.0717 H   0  0  0  0  0  0  0  0  0  0  0  0  # atno 8008 bound_to 7997
  154.4186  140.1142  156.5518 H   0  0  0  0  0  0  0  0  0  0  0  0  # atno 8009 bound_to 7997
  155.6456  140.3473  155.4732 H   0  0  0  0  0  0  0  0  0  0  0  0  # atno 8010 bound_to 7997
  140.2372  144.3623  150.6393 H   0  0  0  0  0  0  0  0  0  0  0  0  # atno 10167 bound_to 10162
  156.5917  130.4800  149.6277 H   0  0  0  0  0  0  0  0  0  0  0  0  # atno 10718 bound_to 10713
  154.6859  135.5232  153.8325 H   0  0  0  0  0  0  0  0  0  0  0  0  # atno 10763 bound_to 10752
  153.0597  135.6564  154.0502 H   0  0  0  0  0  0  0  0  0  0  0  0  # atno 10764 bound_to 10752
  154.0383  135.2979  155.3338 H   0  0  0  0  0  0  0  0  0  0  0  0  # atno 10765 bound_to 10752
  140.2410  134.8051  157.3410 H   0  0  0  0  0  0  0  0  0  0  0  0  # atno 11005 bound_to 11000
  146.0948  140.7613  142.9577 LP  0  0  0  0  0  0  0  0  0  0  0  0  # atno 17320 bound_to 7965
  144.7020  140.3695  143.7148 LP  0  0  0  0  0  0  0  0  0  0  0  0  # atno 17321 bound_to 7965
  140.6141  143.2171  151.6827 LP  0  0  0  0  0  0  0  0  0  0  0  0  # atno 17342 bound_to 10162
  139.5089  144.3593  152.0577 LP  0  0  0  0  0  0  0  0  0  0  0  0  # atno 17343 bound_to 10162
  156.2544  130.6926  151.1674 LP  0  0  0  0  0  0  0  0  0  0  0  0  # atno 17370 bound_to 10713
  157.7302  131.0618  150.5738 LP  0  0  0  0  0  0  0  0  0  0  0  0  # atno 17371 bound_to 10713
  140.1654  134.4676  155.7867 LP  0  0  0  0  0  0  0  0  0  0  0  0  # atno 17394 bound_to 11000
  141.2210  133.6919  156.7616 LP  0  0  0  0  0  0  0  0  0  0  0  0  # atno 17395 bound_to 11000

$$$$
