AV-unprocessed.smi:2451|AV-procd|sdf|9682|dock5
  -GOLD-   2272013323D 1   1.00000     0.00000
 Structure written by MMmdl.
 37 38  0  0  0  0  0  0  0  0  2 V2000
  152.0573  144.8156  160.6494 C   0  0  0  0  0  0  0  0  0  0  0  0
  152.5302  143.5399  159.9260 C   0  0  1  0  0  0  0  0  0  0  0  0
  152.6566  142.3980  160.9649 C   0  0  0  0  0  0  0  0  0  0  0  0
  153.1213  141.1015  160.2796 C   0  0  0  0  0  0  0  0  0  0  0  0
  152.1881  140.6973  159.1188 C   0  0  0  0  0  0  0  0  0  0  0  0
  152.0377  141.7995  158.0443 C   0  0  1  0  0  0  0  0  0  0  0  0
  151.0434  141.3754  157.0673 N   0  5  0  0  0  0  0  0  0  0  0  0
  151.2805  140.0079  156.2301 S   0  0  0  0  0  0  0  0  0  0  0  0
  150.6852  140.0581  154.8845 O   0  0  0  0  0  0  0  0  0  0  0  0
  152.6654  139.5180  156.3290 O   0  0  0  0  0  0  0  0  0  0  0  0
  150.2475  138.8315  157.2044 C   0  0  0  0  0  0  0  0  0  0  0  0
  150.4510  137.4261  156.7104 C   0  0  0  0  0  0  0  0  0  0  0  0
  149.5244  136.5769  156.0431 C   0  0  0  0  0  0  0  0  0  0  0  0
  150.2375  135.4338  155.8254 C   0  0  0  0  0  0  0  0  0  0  0  0
  151.5002  135.5626  156.3046 O   0  0  0  0  0  0  0  0  0  0  0  0
  151.6280  136.8386  156.8652 N   0  0  0  0  0  0  0  0  0  0  0  0
  151.6185  143.1558  158.7057 C   0  0  2  0  0  0  0  0  0  0  0  0
  151.5651  144.3058  157.6644 C   0  0  0  0  0  0  0  0  0  0  0  0
  151.0169  144.7302  160.9647 H   0  0  0  0  0  0  0  0  0  0  0  0
  152.1496  145.7004  160.0209 H   0  0  0  0  0  0  0  0  0  0  0  0
  152.6568  145.0052  161.5402 H   0  0  0  0  0  0  0  0  0  0  0  0
  153.5352  143.7475  159.5521 H   0  0  0  0  0  0  0  0  0  0  0  0
  153.3613  142.6717  161.7509 H   0  0  0  0  0  0  0  0  0  0  0  0
  151.6947  142.2299  161.4511 H   0  0  0  0  0  0  0  0  0  0  0  0
  154.1459  141.2206  159.9211 H   0  0  0  0  0  0  0  0  0  0  0  0
  153.1543  140.2962  161.0141 H   0  0  0  0  0  0  0  0  0  0  0  0
  152.5631  139.7825  158.6580 H   0  0  0  0  0  0  0  0  0  0  0  0
  151.2078  140.4502  159.5303 H   0  0  0  0  0  0  0  0  0  0  0  0
  153.0165  141.9487  157.5856 H   0  0  0  0  0  0  0  0  0  0  0  0
  150.5247  138.9216  158.2542 H   0  0  0  0  0  0  0  0  0  0  0  0
  149.2057  139.1392  157.1090 H   0  0  0  0  0  0  0  0  0  0  0  0
  148.4972  136.7753  155.7753 H   0  0  0  0  0  0  0  0  0  0  0  0
  149.9997  134.4876  155.3622 H   0  0  0  0  0  0  0  0  0  0  0  0
  150.6072  143.0262  159.0948 H   0  0  0  0  0  0  0  0  0  0  0  0
  152.5554  144.5513  157.2765 H   0  0  0  0  0  0  0  0  0  0  0  0
  151.1513  145.2157  158.0958 H   0  0  0  0  0  0  0  0  0  0  0  0
  150.9245  144.0776  156.8102 H   0  0  0  0  0  0  0  0  0  0  0  0
  1  2  1  0  0  0  0
  1 19  1  0  0  0  0
  1 20  1  0  0  0  0
  1 21  1  0  0  0  0
  2 17  1  0  0  0  0
  2  3  1  0  0  0  0
  2 22  1  0  0  0  0
  3  4  1  0  0  0  0
  3 23  1  0  0  0  0
  3 24  1  0  0  0  0
  4  5  1  0  0  0  0
  4 25  1  0  0  0  0
  4 26  1  0  0  0  0
  5  6  1  0  0  0  0
  5 27  1  0  0  0  0
  5 28  1  0  0  0  0
  6  7  1  0  0  0  0
  6 17  1  0  0  0  0
  6 29  1  0  0  0  0
  7  8  1  0  0  0  0
  8  9  2  0  0  0  0
  8 10  2  0  0  0  0
  8 11  1  0  0  0  0
 11 12  1  0  0  0  0
 11 30  1  0  0  0  0
 11 31  1  0  0  0  0
 12 16  2  0  0  0  0
 12 13  1  0  0  0  0
 13 14  2  0  0  0  0
 13 32  1  0  0  0  0
 14 15  1  0  0  0  0
 14 33  1  0  0  0  0
 15 16  1  0  0  0  0
 17 18  1  0  0  0  0
 17 34  1  0  0  0  0
 18 35  1  0  0  0  0
 18 36  1  0  0  0  0
 18 37  1  0  0  0  0
M  CHG  1   7  -1
M  END
> <s_m_source_file>
AV-unprocessed.smi

> <i_m_source_file_index>
2451

> <i_lp_mmshare_version>
43012

> <i_f3d_flags>
0

> <s_epik_input>
W0NIM11bQ0BASF0xW0NIMl1bQ0gyXVtDSDJdW0NASF0oW0NASF0xW0NIM10pW05IXVMoPU8pKD1PKVtDSDJdYzJbY0hdW2NIXW9uMg==

> <s_epik_cmdline>
J2VwaWtfcHl0aG9uJywgJy1waCcsICc3LjAnLCAnLXRuJywgJzgnLCAnLW1hJywgJzIwMCcsICctbWV0YWxfYmluZGluZycsICctaW1hZScsICc8aW5maWxlLm1hZT4nLCAnLW9tYWUnLCAnPG91dGZpbGUubWFlPic=

> <r_lp_tautomer_probability>
1

> <r_epik_Ionization_Penalty>
5.22693

> <r_epik_Ionization_Penalty_Charging>
5.22693

> <r_epik_Ionization_Penalty_Neutral>
2.67702e-10

> <r_epik_State_Penalty>
5.22685

> <r_epik_Charging_Adjusted_Penalty>
10.4538

> <i_epik_Tot_Q>
-1

> <i_epik_Tot_abs_Q>
1

> <r_epik_Metal_State_Penalty>
1.28716

> <b_epik_Metal_Only>
1

> <s_lp_Force_Field>
OPLS_2005

> <r_lp_Energy>
12.2025

> <b_lp_Chiralities_Consistent>
1

> <s_lp_Variant>
AV-unprocessed.smi:2451-14

> <Gold.Version>
5.8.1

> <Gold.Id.Protein>
6NUR|6NUR_protein|mol2

> <Gold.PLP.Fitness>
43.2879

> <Gold.PLP.PLP>
-34.5309

> <Gold.PLP.part.hbond>
-3.0000

> <Gold.PLP.part.metal>
0.0000

> <Gold.PLP.part.buried>
-6.2584

> <Gold.PLP.part.nonpolar>
-25.9439

> <Gold.PLP.part.repulsive>
0.1241

> <Gold.PLP.ligand.clash>
0.0000

> <Gold.PLP.ligand.torsion>
0.6180

> <Gold.PLP.Chemscore.Hbond>
3.0000

> <Gold.PLP.Chemscore.CHOScore>
0.0000

> <Gold.PLP.Chemscore.Metal>
0.0000

> <Gold.Chemscore.Hbonds>
donor molecule, donor type, donor heavy atom, donor atom, acceptor molecule, acceptor atom, score
      P1  H  7989  7998       L1     9  1.00
      P1  H  7997  8009       L1    10  1.00
      P1  H 10752 10763       L1    15  0.78

> <Gold.PLP.Chemscore.Internal.Correction>
0.9929

> <Gold.Rescore>
     Score         DG    S(hbond)    S(metal)    S(lipo)     H(rot)  DE(clash)    DE(int)     intcor
     20.54     -22.49       2.76        0.00      97.17       1.40       0.01       1.94       ----

> <Gold.Chemscore.Fitness>
20.5396

> <Gold.Chemscore.DG>
-22.4912

> <Gold.Chemscore.ZeroCoef>
-5.4800

> <Gold.Chemscore.Hbond>
2.7611

> <Gold.Chemscore.Metal>
0.0000

> <Gold.Chemscore.Lipo>
97.1746

> <Gold.Chemscore.Internal_Hbond>
0.0000

> <Gold.Chemscore.DEClash>
0.0126

> <Gold.Chemscore.DEInternal>
1.9390

> <Gold.Chemscore.Rot>
1.3986

> <Gold.Chemscore.Internal.Correction>
   9.000000E+99

> <Gold.Chemscore.Hbonds>
donor molecule, donor type, donor heavy atom, donor atom, acceptor molecule, acceptor atom, score
      P1  H  7989  7998       L1     9  0.97
      P1  H  7997  8009       L1    10  1.00
      P1  H 10752 10763       L1    15  0.22

> <Gold.Chemscore.Hbond.Weighted>
-9.2222

> <Gold.Chemscore.Metal.Weighted>
-0.0000

> <Gold.Chemscore.Lipo.Weighted>
-11.3694

> <Gold.Chemscore.Internal_Hbond.Weighted>
0.0000

> <Gold.Chemscore.DEClash.Weighted>
0.0126

> <Gold.Chemscore.DEInternal.Weighted>
1.9390

> <Gold.Chemscore.Rot.Weighted>
3.5804

> <Gold.Chemscore.Internal.Correction.Weighted>
   9.000000E+99

> <Gold.Protein.RotatedTorsions>
[ 6907 6896 6895 6894 ] final   34.95 input  -60.11 | X-H torsion
[ 7974 7965 7964 7962 ] final  119.41 input  175.53 | X-H torsion
[ 8008 7997 7996 7995 ] final -152.74 input   59.86 | X-H torsion
[ 10167 10162 10161 10158 ] final   71.00 input  -65.29 | X-H torsion
[ 10718 10713 10712 10709 ] final -111.85 input   66.30 | X-H torsion
[ 10763 10752 10751 10750 ] final  104.54 input  -60.55 | X-H torsion
[ 11005 11000 10999 10996 ] final  112.98 input  -57.11 | X-H torsion

> <Gold.Protein.ActiveResidues>
 VAL166  LYS551  ARG553  GLY616  TRP617  ASP618  TYR619  PRO620  LYS621  CYS622 
 ASP623  PHE694  ASN695  SER759  ASP760  ASP761  ALA762  ILE779  LEU786  VAL792 
 PHE793  MET794  SER795  GLU796  ALA797  LYS798  CYS799  TRP800  GLU811  SER814 

> <Gold.Protein.RotatedAtoms>
  152.1094  134.9285  160.0566 H   0  0  0  0  0  0  0  0  0  0  0  0  # atno 6907 bound_to 6896
  152.0469  133.3997  159.4368 H   0  0  0  0  0  0  0  0  0  0  0  0  # atno 6908 bound_to 6896
  150.6843  134.3273  159.4855 H   0  0  0  0  0  0  0  0  0  0  0  0  # atno 6909 bound_to 6896
  145.1434  139.3254  143.4604 H   0  0  0  0  0  0  0  0  0  0  0  0  # atno 7974 bound_to 7965
  155.6600  140.0721  157.2557 H   0  0  0  0  0  0  0  0  0  0  0  0  # atno 8008 bound_to 7997
  154.4144  140.1718  156.1816 H   0  0  0  0  0  0  0  0  0  0  0  0  # atno 8009 bound_to 7997
  155.9705  140.3362  155.6575 H   0  0  0  0  0  0  0  0  0  0  0  0  # atno 8010 bound_to 7997
  140.0509  144.5312  150.7364 H   0  0  0  0  0  0  0  0  0  0  0  0  # atno 10167 bound_to 10162
  156.0671  130.5889  150.8429 H   0  0  0  0  0  0  0  0  0  0  0  0  # atno 10718 bound_to 10713
  153.3673  135.3940  155.1763 H   0  0  0  0  0  0  0  0  0  0  0  0  # atno 10763 bound_to 10752
  154.8689  135.3694  154.5023 H   0  0  0  0  0  0  0  0  0  0  0  0  # atno 10764 bound_to 10752
  153.5487  135.7083  153.5662 H   0  0  0  0  0  0  0  0  0  0  0  0  # atno 10765 bound_to 10752
  139.8941  134.9541  156.6669 H   0  0  0  0  0  0  0  0  0  0  0  0  # atno 11005 bound_to 11000
  146.3502  140.1480  142.8593 LP  0  0  0  0  0  0  0  0  0  0  0  0  # atno 17320 bound_to 7965
  145.0507  140.9016  143.4997 LP  0  0  0  0  0  0  0  0  0  0  0  0  # atno 17321 bound_to 7965
  140.7217  143.2595  151.4256 LP  0  0  0  0  0  0  0  0  0  0  0  0  # atno 17342 bound_to 10162
  139.5954  144.1409  152.2137 LP  0  0  0  0  0  0  0  0  0  0  0  0  # atno 17343 bound_to 10162
  157.5719  131.0946  150.9404 LP  0  0  0  0  0  0  0  0  0  0  0  0  # atno 17370 bound_to 10713
  156.9619  130.5458  149.5286 LP  0  0  0  0  0  0  0  0  0  0  0  0  # atno 17371 bound_to 10713
  140.7403  133.8983  155.8273 LP  0  0  0  0  0  0  0  0  0  0  0  0  # atno 17394 bound_to 11000
  141.0083  134.1056  157.4248 LP  0  0  0  0  0  0  0  0  0  0  0  0  # atno 17395 bound_to 11000

$$$$
