AV-unprocessed.smi:2147|AV-procd|sdf|8742|dock2
  -GOLD-   2272011513D 1   1.00000     0.00000
 Structure written by MMmdl.
 41 43  0  0  0  0  0  0  0  0  1 V2000
  142.8055  144.3862  156.0194 C   0  0  0  0  0  0  0  0  0  0  0  0
  143.7933  144.1247  154.8836 C   0  0  0  0  0  0  0  0  0  0  0  0
  143.6663  144.7537  153.8335 O   0  0  0  0  0  0  0  0  0  0  0  0
  144.8643  143.1134  155.1121 C   0  0  0  0  0  0  0  0  0  0  0  0
  145.7196  142.6833  154.0714 C   0  0  0  0  0  0  0  0  0  0  0  0
  146.7235  141.7279  154.3214 C   0  0  0  0  0  0  0  0  0  0  0  0
  146.8990  141.1805  155.6076 C   0  0  0  0  0  0  0  0  0  0  0  0
  147.9078  140.2543  155.7633 O   0  0  0  0  0  0  0  0  0  0  0  0
  149.0501  140.3576  154.9231 C   0  0  0  0  0  0  0  0  0  0  0  0
  150.2677  140.7460  155.7743 C   0  0  2  0  0  0  0  0  0  0  0  0
  151.4362  140.3584  155.0788 O   0  0  0  0  0  0  0  0  0  0  0  0
  150.2446  140.0881  157.1680 C   0  0  0  0  0  0  0  0  0  0  0  0
  151.2393  140.6480  158.0657 N   0  0  0  0  0  0  0  0  0  0  0  0
  152.1572  139.9701  158.7812 C   0  0  0  0  0  0  0  0  0  0  0  0
  152.9813  140.6813  159.5452 N   0  0  0  0  0  0  0  0  0  0  0  0
  152.5495  141.9727  159.2953 C   0  0  0  0  0  0  0  0  0  0  0  0
  153.0131  143.2089  159.7997 C   0  0  0  0  0  0  0  0  0  0  0  0
  152.4070  144.4173  159.3969 C   0  0  0  0  0  0  0  0  0  0  0  0
  151.3295  144.4086  158.4874 C   0  0  0  0  0  0  0  0  0  0  0  0
  150.8501  143.1895  157.9713 C   0  0  0  0  0  0  0  0  0  0  0  0
  151.4590  141.9862  158.3738 C   0  0  0  0  0  0  0  0  0  0  0  0
  146.0410  141.6083  156.6501 C   0  0  0  0  0  0  0  0  0  0  0  0
  145.0370  142.5641  156.4024 C   0  0  0  0  0  0  0  0  0  0  0  0
  142.2624  143.4752  156.2714 H   0  0  0  0  0  0  0  0  0  0  0  0
  142.0797  145.1452  155.7264 H   0  0  0  0  0  0  0  0  0  0  0  0
  143.3287  144.7409  156.9074 H   0  0  0  0  0  0  0  0  0  0  0  0
  145.6253  143.0740  153.0692 H   0  0  0  0  0  0  0  0  0  0  0  0
  147.3683  141.4121  153.5144 H   0  0  0  0  0  0  0  0  0  0  0  0
  149.2409  139.4131  154.4104 H   0  0  0  0  0  0  0  0  0  0  0  0
  148.8720  141.1239  154.1665 H   0  0  0  0  0  0  0  0  0  0  0  0
  150.2950  141.8311  155.8826 H   0  0  0  0  0  0  0  0  0  0  0  0
  151.8717  139.6839  155.5776 H   0  0  0  0  0  0  0  0  0  0  0  0
  149.2637  140.2136  157.6281 H   0  0  0  0  0  0  0  0  0  0  0  0
  150.4129  139.0134  157.0872 H   0  0  0  0  0  0  0  0  0  0  0  0
  152.2236  138.8925  158.7388 H   0  0  0  0  0  0  0  0  0  0  0  0
  153.8371  143.2277  160.4977 H   0  0  0  0  0  0  0  0  0  0  0  0
  152.7707  145.3560  159.7884 H   0  0  0  0  0  0  0  0  0  0  0  0
  150.8708  145.3391  158.1861 H   0  0  0  0  0  0  0  0  0  0  0  0
  150.0236  143.1789  157.2761 H   0  0  0  0  0  0  0  0  0  0  0  0
  146.1309  141.2183  157.6526 H   0  0  0  0  0  0  0  0  0  0  0  0
  144.4003  142.8707  157.2198 H   0  0  0  0  0  0  0  0  0  0  0  0
  1  2  1  0  0  0  0
  1 24  1  0  0  0  0
  1 25  1  0  0  0  0
  1 26  1  0  0  0  0
  2  3  2  0  0  0  0
  2  4  1  0  0  0  0
  4 23  1  0  0  0  0
  4  5  2  0  0  0  0
  5  6  1  0  0  0  0
  5 27  1  0  0  0  0
  6  7  2  0  0  0  0
  6 28  1  0  0  0  0
  7  8  1  0  0  0  0
  7 22  1  0  0  0  0
  8  9  1  0  0  0  0
  9 10  1  0  0  0  0
  9 29  1  0  0  0  0
  9 30  1  0  0  0  0
 10 11  1  0  0  0  0
 10 12  1  0  0  0  0
 10 31  1  0  0  0  0
 11 32  1  0  0  0  0
 12 13  1  0  0  0  0
 12 33  1  0  0  0  0
 12 34  1  0  0  0  0
 13 21  1  0  0  0  0
 13 14  1  0  0  0  0
 14 15  2  0  0  0  0
 14 35  1  0  0  0  0
 15 16  1  0  0  0  0
 16 21  2  0  0  0  0
 16 17  1  0  0  0  0
 17 18  2  0  0  0  0
 17 36  1  0  0  0  0
 18 19  1  0  0  0  0
 18 37  1  0  0  0  0
 19 20  2  0  0  0  0
 19 38  1  0  0  0  0
 20 21  1  0  0  0  0
 20 39  1  0  0  0  0
 22 23  2  0  0  0  0
 22 40  1  0  0  0  0
 23 41  1  0  0  0  0
M  END
> <s_m_source_file>
AV-unprocessed.smi

> <i_m_source_file_index>
2147

> <i_lp_mmshare_version>
43012

> <i_f3d_flags>
0

> <s_epik_input>
W0NIM11DKD1PKWMxW2NIXVtjSF1jKFtjSF1bY0hdMSlPW0NIMl1bQ0BIXShbT0hdKVtDSDJdbihbY0hdbjIpYyhjMjMpW2NIXVtjSF1bY0hdW2NIXTM=

> <s_epik_cmdline>
J2VwaWtfcHl0aG9uJywgJy1waCcsICc3LjAnLCAnLXRuJywgJzgnLCAnLW1hJywgJzIwMCcsICctbWV0YWxfYmluZGluZycsICctaW1hZScsICc8aW5maWxlLm1hZT4nLCAnLW9tYWUnLCAnPG91dGZpbGUubWFlPic=

> <r_lp_tautomer_probability>
0.99995

> <r_epik_Ionization_Penalty>
0.0583018

> <r_epik_Ionization_Penalty_Charging>
0

> <r_epik_Ionization_Penalty_Neutral>
0.0583018

> <r_epik_State_Penalty>
0.0504087

> <r_epik_Charging_Adjusted_Penalty>
0.0504087

> <i_epik_Tot_Q>
0

> <i_epik_Tot_abs_Q>
0

> <r_epik_Metal_State_Penalty>
5.26129e-05

> <b_epik_Metal_Only>
0

> <s_lp_Force_Field>
OPLS_2005

> <r_lp_Energy>
19.9149

> <b_lp_Chiralities_Consistent>
1

> <s_lp_Variant>
AV-unprocessed.smi:2147-1

> <Gold.Version>
5.8.1

> <Gold.Id.Protein>
6NUR|6NUR_protein|mol2

> <Gold.PLP.Fitness>
51.7748

> <Gold.PLP.PLP>
-50.9745

> <Gold.PLP.part.hbond>
-2.0000

> <Gold.PLP.part.metal>
0.0000

> <Gold.PLP.part.buried>
-9.5732

> <Gold.PLP.part.nonpolar>
-40.4031

> <Gold.PLP.part.repulsive>
0.1908

> <Gold.PLP.ligand.clash>
0.0000

> <Gold.PLP.ligand.torsion>
1.1243

> <Gold.PLP.Chemscore.Hbond>
1.0000

> <Gold.PLP.Chemscore.CHOScore>
0.0000

> <Gold.PLP.Chemscore.Metal>
0.0000

> <Gold.Chemscore.Hbonds>
donor molecule, donor type, donor heavy atom, donor atom, acceptor molecule, acceptor atom, score
      P1  H  7989  7998       L1    11  0.98

> <Gold.PLP.Chemscore.Internal.Correction>
0.0489

> <Gold.Rescore>
     Score         DG    S(hbond)    S(metal)    S(lipo)     H(rot)  DE(clash)    DE(int)     intcor
     14.52     -15.71       0.80        0.00     117.01       2.40       0.10       1.10       ----

> <Gold.Chemscore.Fitness>
14.5191

> <Gold.Chemscore.DG>
-15.7106

> <Gold.Chemscore.ZeroCoef>
-5.4800

> <Gold.Chemscore.Hbond>
0.8041

> <Gold.Chemscore.Metal>
0.0000

> <Gold.Chemscore.Lipo>
117.0098

> <Gold.Chemscore.Internal_Hbond>
0.0000

> <Gold.Chemscore.DEClash>
0.0961

> <Gold.Chemscore.DEInternal>
1.0954

> <Gold.Chemscore.Rot>
2.4005

> <Gold.Chemscore.Internal.Correction>
   9.000000E+99

> <Gold.Chemscore.Hbonds>
donor molecule, donor type, donor heavy atom, donor atom, acceptor molecule, acceptor atom, score
      P1  H  7989  7998       L1    11  0.90

> <Gold.Chemscore.Hbond.Weighted>
-2.6858

> <Gold.Chemscore.Metal.Weighted>
-0.0000

> <Gold.Chemscore.Lipo.Weighted>
-13.6901

> <Gold.Chemscore.Internal_Hbond.Weighted>
0.0000

> <Gold.Chemscore.DEClash.Weighted>
0.0961

> <Gold.Chemscore.DEInternal.Weighted>
1.0954

> <Gold.Chemscore.Rot.Weighted>
6.1453

> <Gold.Chemscore.Internal.Correction.Weighted>
   9.000000E+99

> <Gold.Protein.RotatedTorsions>
[ 6907 6896 6895 6894 ] final  -35.84 input  -60.11 | X-H torsion
[ 7974 7965 7964 7962 ] final -119.19 input  175.53 | X-H torsion
[ 8008 7997 7996 7995 ] final  -29.58 input   59.86 | X-H torsion
[ 10167 10162 10161 10158 ] final -130.07 input  -65.29 | X-H torsion
[ 10718 10713 10712 10709 ] final -108.82 input   66.30 | X-H torsion
[ 10763 10752 10751 10750 ] final -172.60 input  -60.55 | X-H torsion
[ 11005 11000 10999 10996 ] final  112.81 input  -57.11 | X-H torsion

> <Gold.Protein.ActiveResidues>
 VAL166  LYS551  ARG553  GLY616  TRP617  ASP618  TYR619  PRO620  LYS621  CYS622 
 ASP623  PHE694  ASN695  SER759  ASP760  ASP761  ALA762  ILE779  LEU786  VAL792 
 PHE793  MET794  SER795  GLU796  ALA797  LYS798  CYS799  TRP800  GLU811  SER814 

> <Gold.Protein.RotatedAtoms>
  151.0347  134.9564  159.8129 H   0  0  0  0  0  0  0  0  0  0  0  0  # atno 6907 bound_to 6896
  152.5352  134.2735  159.8990 H   0  0  0  0  0  0  0  0  0  0  0  0  # atno 6908 bound_to 6896
  151.2745  133.4197  159.2657 H   0  0  0  0  0  0  0  0  0  0  0  0  # atno 6909 bound_to 6896
  145.0654  140.8320  143.4127 H   0  0  0  0  0  0  0  0  0  0  0  0  # atno 7974 bound_to 7965
  154.4284  140.1814  156.1270 H   0  0  0  0  0  0  0  0  0  0  0  0  # atno 8008 bound_to 7997
  156.0098  140.3352  155.6904 H   0  0  0  0  0  0  0  0  0  0  0  0  # atno 8009 bound_to 7997
  155.6127  140.0651  157.2692 H   0  0  0  0  0  0  0  0  0  0  0  0  # atno 8010 bound_to 7997
  139.9331  143.6249  152.2524 H   0  0  0  0  0  0  0  0  0  0  0  0  # atno 10167 bound_to 10162
  156.0505  130.5732  150.8014 H   0  0  0  0  0  0  0  0  0  0  0  0  # atno 10718 bound_to 10713
  154.6174  135.2871  155.0365 H   0  0  0  0  0  0  0  0  0  0  0  0  # atno 10763 bound_to 10752
  154.1572  135.6494  153.4981 H   0  0  0  0  0  0  0  0  0  0  0  0  # atno 10764 bound_to 10752
  153.0221  135.5369  154.6950 H   0  0  0  0  0  0  0  0  0  0  0  0  # atno 10765 bound_to 10752
  139.8937  134.9537  156.6643 H   0  0  0  0  0  0  0  0  0  0  0  0  # atno 11005 bound_to 11000
  145.1358  139.2603  143.5516 LP  0  0  0  0  0  0  0  0  0  0  0  0  # atno 17320 bound_to 7965
  146.3526  140.1021  142.8607 LP  0  0  0  0  0  0  0  0  0  0  0  0  # atno 17321 bound_to 7965
  139.6765  144.7658  151.1686 LP  0  0  0  0  0  0  0  0  0  0  0  0  # atno 17342 bound_to 10162
  140.7632  143.5787  150.8918 LP  0  0  0  0  0  0  0  0  0  0  0  0  # atno 17343 bound_to 10162
  157.5426  131.0941  150.9807 LP  0  0  0  0  0  0  0  0  0  0  0  0  # atno 17370 bound_to 10713
  157.0086  130.5628  149.5318 LP  0  0  0  0  0  0  0  0  0  0  0  0  # atno 17371 bound_to 10713
  140.7423  133.8967  155.8287 LP  0  0  0  0  0  0  0  0  0  0  0  0  # atno 17394 bound_to 11000
  141.0068  134.1075  157.4262 LP  0  0  0  0  0  0  0  0  0  0  0  0  # atno 17395 bound_to 11000

$$$$
