AV-unprocessed.smi:281|AV-procd|sdf|2115|dock8
  -GOLD-   2262021413D 1   1.00000     0.00000
 Structure written by MMmdl.
 55 59  0  0  0  0  0  0  0  0  1 V2000
  152.4010  138.8184  154.8145 C   0  0  0  0  0  0  0  0  0  0  0  0
  150.9024  138.9346  155.1091 C   0  0  2  0  0  0  0  0  0  0  0  0
  150.1165  137.7143  154.6071 C   0  0  0  0  0  0  0  0  0  0  0  0
  148.6940  137.9204  154.8421 N   0  0  0  0  0  0  0  0  0  0  0  0
  147.9275  136.8034  154.7589 C   0  0  0  0  0  0  0  0  0  0  0  0
  148.2043  135.7286  155.5453 N   0  0  0  0  0  0  0  0  0  0  0  0
  147.4519  134.6268  155.4734 C   0  0  0  0  0  0  0  0  0  0  0  0
  146.3939  134.3885  154.6966 N   0  0  0  0  0  0  0  0  0  0  0  0
  146.1131  135.4598  153.9008 C   0  0  0  0  0  0  0  0  0  0  0  0
  146.8241  136.6928  153.8657 C   0  0  0  0  0  0  0  0  0  0  0  0
  146.2602  137.5351  152.9144 N   0  0  0  0  0  0  0  0  0  0  0  0
  145.2684  136.8438  152.4232 C   0  0  0  0  0  0  0  0  0  0  0  0
  145.1001  135.5899  152.9663 N   0  0  0  0  0  0  0  0  0  0  0  0
  144.0833  134.6109  152.6106 C   0  0  0  0  0  0  0  0  0  0  0  0
  144.3037  133.9604  151.2239 C   0  0  2  0  0  0  0  0  0  0  0  0
  143.8794  134.8597  150.2141 O   0  0  0  0  0  0  0  0  0  0  0  0
  143.5337  132.6560  151.0560 C   0  0  0  0  0  0  0  0  0  0  0  0
  144.4033  131.8735  150.0815 C   0  0  0  0  0  0  0  0  0  0  0  0
  145.7168  132.1795  150.5169 O   0  0  0  0  0  0  0  0  0  0  0  0
  145.7597  133.5432  150.9272 C   0  0  0  0  0  0  0  0  0  0  0  0
  148.1925  139.1476  154.2316 C   0  0  0  0  0  0  0  0  0  0  0  0
  149.0234  140.3768  154.6784 C   0  0  1  0  0  0  0  0  0  0  0  0
  148.6345  141.6017  153.8662 C   0  0  0  0  0  0  0  0  0  0  0  0
  147.3929  142.1095  154.5918 C   0  0  0  0  0  0  0  0  0  0  0  0
  147.5574  141.7283  155.9540 O   0  0  0  0  0  0  0  0  0  0  0  0
  148.6778  140.8577  156.1068 C   0  0  2  0  0  0  0  0  0  0  0  0
  149.7721  141.6970  156.7948 C   0  0  0  0  0  0  0  0  0  0  0  0
  150.4149  140.1149  154.4685 O   0  0  0  0  0  0  0  0  0  0  0  0
  152.8285  137.9380  155.2953 H   0  0  0  0  0  0  0  0  0  0  0  0
  152.9387  139.6921  155.1835 H   0  0  0  0  0  0  0  0  0  0  0  0
  152.5876  138.7399  153.7431 H   0  0  0  0  0  0  0  0  0  0  0  0
  150.7706  139.0150  156.1880 H   0  0  0  0  0  0  0  0  0  0  0  0
  150.2823  137.5720  153.5382 H   0  0  0  0  0  0  0  0  0  0  0  0
  150.4791  136.8162  155.1055 H   0  0  0  0  0  0  0  0  0  0  0  0
  147.7386  133.8210  156.1328 H   0  0  0  0  0  0  0  0  0  0  0  0
  144.6297  137.2345  151.6447 H   0  0  0  0  0  0  0  0  0  0  0  0
  144.0651  133.8446  153.3867 H   0  0  0  0  0  0  0  0  0  0  0  0
  143.1095  135.1016  152.6447 H   0  0  0  0  0  0  0  0  0  0  0  0
  143.0477  134.5630  149.8780 H   0  0  0  0  0  0  0  0  0  0  0  0
  143.4905  132.1175  152.0035 H   0  0  0  0  0  0  0  0  0  0  0  0
  142.5095  132.7913  150.7054 H   0  0  0  0  0  0  0  0  0  0  0  0
  144.2097  130.8009  150.1075 H   0  0  0  0  0  0  0  0  0  0  0  0
  144.2632  132.2265  149.0586 H   0  0  0  0  0  0  0  0  0  0  0  0
  146.2142  134.1551  150.1464 H   0  0  0  0  0  0  0  0  0  0  0  0
  146.3990  133.6091  151.8069 H   0  0  0  0  0  0  0  0  0  0  0  0
  148.2470  139.0400  153.1472 H   0  0  0  0  0  0  0  0  0  0  0  0
  147.1417  139.2899  154.4875 H   0  0  0  0  0  0  0  0  0  0  0  0
  149.4218  142.3547  153.9179 H   0  0  0  0  0  0  0  0  0  0  0  0
  148.4543  141.3898  152.8118 H   0  0  0  0  0  0  0  0  0  0  0  0
  147.2678  143.1881  154.4934 H   0  0  0  0  0  0  0  0  0  0  0  0
  146.4952  141.6291  154.2013 H   0  0  0  0  0  0  0  0  0  0  0  0
  148.4122  140.0212  156.7542 H   0  0  0  0  0  0  0  0  0  0  0  0
  150.6781  141.1216  156.9785 H   0  0  0  0  0  0  0  0  0  0  0  0
  149.4226  142.0615  157.7608 H   0  0  0  0  0  0  0  0  0  0  0  0
  150.0497  142.5670  156.1998 H   0  0  0  0  0  0  0  0  0  0  0  0
  1  2  1  0  0  0  0
  1 29  1  0  0  0  0
  1 30  1  0  0  0  0
  1 31  1  0  0  0  0
  2 28  1  0  0  0  0
  2  3  1  0  0  0  0
  2 32  1  0  0  0  0
  3  4  1  0  0  0  0
  3 33  1  0  0  0  0
  3 34  1  0  0  0  0
  4  5  1  0  0  0  0
  4 21  1  0  0  0  0
  5 10  1  0  0  0  0
  5  6  2  0  0  0  0
  6  7  1  0  0  0  0
  7  8  2  0  0  0  0
  7 35  1  0  0  0  0
  8  9  1  0  0  0  0
  9 13  1  0  0  0  0
  9 10  2  0  0  0  0
 10 11  1  0  0  0  0
 11 12  2  0  0  0  0
 12 13  1  0  0  0  0
 12 36  1  0  0  0  0
 13 14  1  0  0  0  0
 14 15  1  0  0  0  0
 14 37  1  0  0  0  0
 14 38  1  0  0  0  0
 15 20  1  0  0  0  0
 15 16  1  0  0  0  0
 15 17  1  0  0  0  0
 16 39  1  0  0  0  0
 17 18  1  0  0  0  0
 17 40  1  0  0  0  0
 17 41  1  0  0  0  0
 18 19  1  0  0  0  0
 18 42  1  0  0  0  0
 18 43  1  0  0  0  0
 19 20  1  0  0  0  0
 20 44  1  0  0  0  0
 20 45  1  0  0  0  0
 21 22  1  0  0  0  0
 21 46  1  0  0  0  0
 21 47  1  0  0  0  0
 22 26  1  0  0  0  0
 22 23  1  0  0  0  0
 22 28  1  0  0  0  0
 23 24  1  0  0  0  0
 23 48  1  0  0  0  0
 23 49  1  0  0  0  0
 24 25  1  0  0  0  0
 24 50  1  0  0  0  0
 24 51  1  0  0  0  0
 25 26  1  0  0  0  0
 26 27  1  0  0  0  0
 26 52  1  0  0  0  0
 27 53  1  0  0  0  0
 27 54  1  0  0  0  0
 27 55  1  0  0  0  0
M  END
> <s_m_source_file>
AV-unprocessed.smi

> <i_m_source_file_index>
281

> <i_lp_mmshare_version>
43012

> <i_f3d_flags>
0

> <s_epik_input>
W0NIM11bQ0BASF0xT1tDSDJdW0NIMl1bQ0BAXTEyW0NIMl1OKFtDSDJdW0NASF0oTzIpW0NIM10pYyhuW2NIXW4zKWMoYzM0KW5bY0hdbjRbQ0gyXVtDQEBdNShbT0hdKVtDSDJdW0NIMl1PW0NIMl01

> <s_epik_cmdline>
J2VwaWtfcHl0aG9uJywgJy1waCcsICc3LjAnLCAnLXRuJywgJzgnLCAnLW1hJywgJzIwMCcsICctbWV0YWxfYmluZGluZycsICctaW1hZScsICc8aW5maWxlLm1hZT4nLCAnLW9tYWUnLCAnPG91dGZpbGUubWFlPic=

> <r_lp_tautomer_probability>
1

> <r_epik_Ionization_Penalty>
0.00571331

> <r_epik_Ionization_Penalty_Charging>
0

> <r_epik_Ionization_Penalty_Neutral>
0.00571331

> <r_epik_State_Penalty>
0.00399586

> <r_epik_Charging_Adjusted_Penalty>
0.00399586

> <i_epik_Tot_Q>
0

> <i_epik_Tot_abs_Q>
0

> <r_epik_Metal_State_Penalty>
-0

> <b_epik_Metal_Only>
0

> <s_lp_Force_Field>
OPLS_2005

> <r_lp_Energy>
55.4075

> <b_lp_Chiralities_Consistent>
1

> <s_lp_Variant>
AV-unprocessed.smi:281-15

> <Gold.Version>
5.8.1

> <Gold.Id.Protein>
6NUR|6NUR_protein|mol2

> <Gold.PLP.Fitness>
43.3659

> <Gold.PLP.PLP>
-35.1546

> <Gold.PLP.part.hbond>
-2.0000

> <Gold.PLP.part.metal>
0.0000

> <Gold.PLP.part.buried>
-2.0233

> <Gold.PLP.part.nonpolar>
-32.9402

> <Gold.PLP.part.repulsive>
0.8344

> <Gold.PLP.ligand.clash>
0.0000

> <Gold.PLP.ligand.torsion>
0.5425

> <Gold.PLP.Chemscore.Hbond>
2.0000

> <Gold.PLP.Chemscore.CHOScore>
1.0000

> <Gold.PLP.Chemscore.Metal>
0.0000

> <Gold.Chemscore.Hbonds>
donor molecule, donor type, donor heavy atom, donor atom, acceptor molecule, acceptor atom, score
      L1  H    16    39       P1 10186  0.93
      P1  H  7989  7998       L1    28  1.00
      L1  C    12    36       P1 10171  1.00

> <Gold.PLP.Chemscore.Internal.Correction>
0.2963

> <Gold.Rescore>
     Score         DG    S(hbond)    S(metal)    S(lipo)     H(rot)  DE(clash)    DE(int)     intcor
     14.39     -16.96       1.86        0.00      90.83       2.09       0.59       1.98       ----

> <Gold.Chemscore.Fitness>
14.3883

> <Gold.Chemscore.DG>
-16.9559

> <Gold.Chemscore.ZeroCoef>
-5.4800

> <Gold.Chemscore.Hbond>
1.8580

> <Gold.Chemscore.Metal>
0.0000

> <Gold.Chemscore.Lipo>
90.8330

> <Gold.Chemscore.Internal_Hbond>
0.0000

> <Gold.Chemscore.DEClash>
0.5914

> <Gold.Chemscore.DEInternal>
1.9761

> <Gold.Chemscore.Rot>
2.0927

> <Gold.Chemscore.Internal.Correction>
   9.000000E+99

> <Gold.Chemscore.Hbonds>
donor molecule, donor type, donor heavy atom, donor atom, acceptor molecule, acceptor atom, score
      L1  H    16    39       P1 10186  0.78
      P1  H  7989  7998       L1    28  0.82

> <Gold.Chemscore.Hbond.Weighted>
-6.2057

> <Gold.Chemscore.Metal.Weighted>
-0.0000

> <Gold.Chemscore.Lipo.Weighted>
-10.6275

> <Gold.Chemscore.Internal_Hbond.Weighted>
0.0000

> <Gold.Chemscore.DEClash.Weighted>
0.5914

> <Gold.Chemscore.DEInternal.Weighted>
1.9761

> <Gold.Chemscore.Rot.Weighted>
5.3573

> <Gold.Chemscore.Internal.Correction.Weighted>
   9.000000E+99

> <Gold.Protein.RotatedTorsions>
[ 6907 6896 6895 6894 ] final   84.42 input  -60.11 | X-H torsion
[ 7974 7965 7964 7962 ] final  146.87 input  175.53 | X-H torsion
[ 8008 7997 7996 7995 ] final  -76.03 input   59.86 | X-H torsion
[ 10167 10162 10161 10158 ] final  137.71 input  -65.29 | X-H torsion
[ 10718 10713 10712 10709 ] final  129.04 input   66.30 | X-H torsion
[ 10763 10752 10751 10750 ] final  137.17 input  -60.55 | X-H torsion
[ 11005 11000 10999 10996 ] final  134.70 input  -57.11 | X-H torsion

> <Gold.Protein.ActiveResidues>
 VAL166  LYS551  ARG553  GLY616  TRP617  ASP618  TYR619  PRO620  LYS621  CYS622 
 ASP623  PHE694  ASN695  SER759  ASP760  ASP761  ALA762  ILE779  LEU786  VAL792 
 PHE793  MET794  SER795  GLU796  ALA797  LYS798  CYS799  TRP800  GLU811  SER814 

> <Gold.Protein.RotatedAtoms>
  152.5352  134.2744  159.8983 H   0  0  0  0  0  0  0  0  0  0  0  0  # atno 6907 bound_to 6896
  151.2699  133.4253  159.2628 H   0  0  0  0  0  0  0  0  0  0  0  0  # atno 6908 bound_to 6896
  151.0376  134.9599  159.8201 H   0  0  0  0  0  0  0  0  0  0  0  0  # atno 6909 bound_to 6896
  144.8636  139.5959  143.5919 H   0  0  0  0  0  0  0  0  0  0  0  0  # atno 7974 bound_to 7965
  154.5469  140.0734  156.8603 H   0  0  0  0  0  0  0  0  0  0  0  0  # atno 8008 bound_to 7997
  155.3070  140.3388  155.4227 H   0  0  0  0  0  0  0  0  0  0  0  0  # atno 8009 bound_to 7997
  156.1926  140.1691  156.8048 H   0  0  0  0  0  0  0  0  0  0  0  0  # atno 8010 bound_to 7997
  139.5135  144.6394  151.5609 H   0  0  0  0  0  0  0  0  0  0  0  0  # atno 10167 bound_to 10162
  157.5190  131.1098  150.9182 H   0  0  0  0  0  0  0  0  0  0  0  0  # atno 10718 bound_to 10713
  153.8687  135.3058  155.3441 H   0  0  0  0  0  0  0  0  0  0  0  0  # atno 10763 bound_to 10752
  154.7816  135.4832  153.9859 H   0  0  0  0  0  0  0  0  0  0  0  0  # atno 10764 bound_to 10752
  153.1419  135.6826  153.9110 H   0  0  0  0  0  0  0  0  0  0  0  0  # atno 10765 bound_to 10752
  139.9932  134.9507  156.9904 H   0  0  0  0  0  0  0  0  0  0  0  0  # atno 11005 bound_to 11000
  146.2879  139.7056  142.9182 LP  0  0  0  0  0  0  0  0  0  0  0  0  # atno 17320 bound_to 7965
  145.4264  141.0411  143.2935 LP  0  0  0  0  0  0  0  0  0  0  0  0  # atno 17321 bound_to 7965
  140.6156  143.9355  150.6486 LP  0  0  0  0  0  0  0  0  0  0  0  0  # atno 17342 bound_to 10162
  140.2612  143.3522  152.1321 LP  0  0  0  0  0  0  0  0  0  0  0  0  # atno 17343 bound_to 10162
  156.9798  130.5522  149.5295 LP  0  0  0  0  0  0  0  0  0  0  0  0  # atno 17370 bound_to 10713
  156.0340  130.5429  150.8607 LP  0  0  0  0  0  0  0  0  0  0  0  0  # atno 17371 bound_to 10713
  140.4868  134.1233  155.7226 LP  0  0  0  0  0  0  0  0  0  0  0  0  # atno 17394 bound_to 11000
  141.1583  133.8841  157.1918 LP  0  0  0  0  0  0  0  0  0  0  0  0  # atno 17395 bound_to 11000

$$$$
