AV-unprocessed.smi:187|AV-procd|sdf|1471|dock8
  -GOLD-   2262019293D 1   1.00000     0.00000
 Structure written by MMmdl.
 53 56  0  0  0  0  0  0  0  0  1 V2000
  154.3296  138.5273  158.7173 C   0  0  0  0  0  0  0  0  0  0  0  0
  153.4742  139.6145  159.4014 C   0  0  1  0  0  0  0  0  0  0  0  0
  154.3914  140.5346  160.2346 C   0  0  0  0  0  0  0  0  0  0  0  0
  153.6094  141.6836  160.8842 C   0  0  0  0  0  0  0  0  0  0  0  0
  152.8576  142.4806  159.8035 C   0  0  2  0  0  0  0  0  0  0  0  0
  152.0473  143.6262  160.4235 C   0  0  0  0  0  0  0  0  0  0  0  0
  152.3240  144.8633  160.0039 N   0  0  0  0  0  0  0  0  0  0  0  0
  151.1834  143.4012  161.2694 O   0  0  0  0  0  0  0  0  0  0  0  0
  151.9425  141.5303  159.0085 C   0  0  0  0  0  0  0  0  0  0  0  0
  152.6912  140.4086  158.4402 N   0  0  0  0  0  0  0  0  0  0  0  0
  151.9052  139.7290  157.5710 C   0  0  0  0  0  0  0  0  0  0  0  0
  151.8079  138.3749  157.6483 N   0  0  0  0  0  0  0  0  0  0  0  0
  151.0092  137.7132  156.8053 C   0  0  0  0  0  0  0  0  0  0  0  0
  150.2326  138.2002  155.8348 N   0  0  0  0  0  0  0  0  0  0  0  0
  150.3229  139.5595  155.7620 C   0  0  0  0  0  0  0  0  0  0  0  0
  151.1227  140.3946  156.5906 C   0  0  0  0  0  0  0  0  0  0  0  0
  150.9444  141.7268  156.2405 N   0  0  0  0  0  0  0  0  0  0  0  0
  150.0817  141.6823  155.2615 C   0  0  0  0  0  0  0  0  0  0  0  0
  149.6762  140.4189  154.8912 N   0  0  0  0  0  0  0  0  0  0  0  0
  148.7152  140.0810  153.8826 C   0  0  0  0  0  0  0  0  0  0  0  0
  147.2451  140.4756  154.0328 C   0  0  0  0  0  0  0  0  0  0  0  0
  146.8332  139.2063  153.2519 C   0  0  0  0  0  0  0  0  0  0  0  0
  145.6166  138.4351  153.7938 C   0  0  0  0  0  0  0  0  0  0  0  0
  145.5639  138.4511  155.2052 O   0  0  0  0  0  0  0  0  0  0  0  0
  146.7021  139.3534  151.7209 C   0  0  0  0  0  0  0  0  0  0  0  0
  146.4096  138.1250  151.0876 O   0  0  0  0  0  0  0  0  0  0  0  0
  148.1996  138.6491  153.7127 C   0  0  0  0  0  0  0  0  0  0  0  0
  154.9323  137.9897  159.4496 H   0  0  0  0  0  0  0  0  0  0  0  0
  155.0107  138.9635  157.9857 H   0  0  0  0  0  0  0  0  0  0  0  0
  153.7221  137.7837  158.2021 H   0  0  0  0  0  0  0  0  0  0  0  0
  152.7764  139.1281  160.0850 H   0  0  0  0  0  0  0  0  0  0  0  0
  154.8988  139.9560  161.0073 H   0  0  0  0  0  0  0  0  0  0  0  0
  155.1738  140.9497  159.5975 H   0  0  0  0  0  0  0  0  0  0  0  0
  152.9099  141.2781  161.6171 H   0  0  0  0  0  0  0  0  0  0  0  0
  154.2941  142.3336  161.4306 H   0  0  0  0  0  0  0  0  0  0  0  0
  153.5906  142.9062  159.1155 H   0  0  0  0  0  0  0  0  0  0  0  0
  151.8172  145.6496  160.3835 H   0  0  0  0  0  0  0  0  0  0  0  0
  153.0409  145.0071  159.3076 H   0  0  0  0  0  0  0  0  0  0  0  0
  151.1546  141.1370  159.6534 H   0  0  0  0  0  0  0  0  0  0  0  0
  151.4478  142.0882  158.2113 H   0  0  0  0  0  0  0  0  0  0  0  0
  150.9887  136.6403  156.9265 H   0  0  0  0  0  0  0  0  0  0  0  0
  149.7203  142.5778  154.7773 H   0  0  0  0  0  0  0  0  0  0  0  0
  149.1212  140.4600  152.9432 H   0  0  0  0  0  0  0  0  0  0  0  0
  146.9138  140.4598  155.0730 H   0  0  0  0  0  0  0  0  0  0  0  0
  146.9813  141.4199  153.5562 H   0  0  0  0  0  0  0  0  0  0  0  0
  144.6837  138.8402  153.4011 H   0  0  0  0  0  0  0  0  0  0  0  0
  145.6505  137.3906  153.4830 H   0  0  0  0  0  0  0  0  0  0  0  0
  145.6986  137.5711  155.5217 H   0  0  0  0  0  0  0  0  0  0  0  0
  145.9068  140.0513  151.4591 H   0  0  0  0  0  0  0  0  0  0  0  0
  147.6145  139.7619  151.2857 H   0  0  0  0  0  0  0  0  0  0  0  0
  145.5833  138.2072  150.6369 H   0  0  0  0  0  0  0  0  0  0  0  0
  148.7337  138.0628  152.9643 H   0  0  0  0  0  0  0  0  0  0  0  0
  148.1457  138.1113  154.6613 H   0  0  0  0  0  0  0  0  0  0  0  0
  1  2  1  0  0  0  0
  1 28  1  0  0  0  0
  1 29  1  0  0  0  0
  1 30  1  0  0  0  0
  2 10  1  0  0  0  0
  2  3  1  0  0  0  0
  2 31  1  0  0  0  0
  3  4  1  0  0  0  0
  3 32  1  0  0  0  0
  3 33  1  0  0  0  0
  4  5  1  0  0  0  0
  4 34  1  0  0  0  0
  4 35  1  0  0  0  0
  5  6  1  0  0  0  0
  5  9  1  0  0  0  0
  5 36  1  0  0  0  0
  6  7  1  0  0  0  0
  6  8  2  0  0  0  0
  7 37  1  0  0  0  0
  7 38  1  0  0  0  0
  9 10  1  0  0  0  0
  9 39  1  0  0  0  0
  9 40  1  0  0  0  0
 10 11  1  0  0  0  0
 11 16  1  0  0  0  0
 11 12  2  0  0  0  0
 12 13  1  0  0  0  0
 13 14  2  0  0  0  0
 13 41  1  0  0  0  0
 14 15  1  0  0  0  0
 15 19  1  0  0  0  0
 15 16  2  0  0  0  0
 16 17  1  0  0  0  0
 17 18  2  0  0  0  0
 18 19  1  0  0  0  0
 18 42  1  0  0  0  0
 19 20  1  0  0  0  0
 20 27  1  0  0  0  0
 20 21  1  0  0  0  0
 20 43  1  0  0  0  0
 21 22  1  0  0  0  0
 21 44  1  0  0  0  0
 21 45  1  0  0  0  0
 22 23  1  0  0  0  0
 22 25  1  0  0  0  0
 22 27  1  0  0  0  0
 23 24  1  0  0  0  0
 23 46  1  0  0  0  0
 23 47  1  0  0  0  0
 24 48  1  0  0  0  0
 25 26  1  0  0  0  0
 25 49  1  0  0  0  0
 25 50  1  0  0  0  0
 26 51  1  0  0  0  0
 27 52  1  0  0  0  0
 27 53  1  0  0  0  0
M  END
> <s_m_source_file>
AV-unprocessed.smi

> <i_m_source_file_index>
187

> <i_lp_mmshare_version>
43012

> <i_f3d_flags>
0

> <s_epik_input>
W0NIM11bQ0BASF0xW0NIMl1bQ0gyXVtDQEBIXShDKD1PKVtOSDJdKVtDSDJdTjFjKG5bY0hdbjIpYyhjMjMpbltjSF1uM1tDSF0oW0NIMl00KVtDSDJdQzQoW0NIMl1bT0hdKVtDSDJdW09IXQ==

> <s_epik_cmdline>
J2VwaWtfcHl0aG9uJywgJy1waCcsICc3LjAnLCAnLXRuJywgJzgnLCAnLW1hJywgJzIwMCcsICctbWV0YWxfYmluZGluZycsICctaW1hZScsICc8aW5maWxlLm1hZT4nLCAnLW9tYWUnLCAnPG91dGZpbGUubWFlPic=

> <r_lp_tautomer_probability>
1

> <r_epik_Ionization_Penalty>
0.0017711

> <r_epik_Ionization_Penalty_Charging>
0

> <r_epik_Ionization_Penalty_Neutral>
0.0017711

> <r_epik_State_Penalty>
0.00107211

> <r_epik_Charging_Adjusted_Penalty>
0.00107211

> <i_epik_Tot_Q>
0

> <i_epik_Tot_abs_Q>
0

> <r_epik_Metal_State_Penalty>
-0

> <b_epik_Metal_Only>
0

> <s_lp_Force_Field>
OPLS_2005

> <r_lp_Energy>
43.5948

> <b_lp_Chiralities_Consistent>
1

> <s_lp_Variant>
AV-unprocessed.smi:187-4

> <Gold.Version>
5.8.1

> <Gold.Id.Protein>
6NUR|6NUR_protein|mol2

> <Gold.PLP.Fitness>
49.2752

> <Gold.PLP.PLP>
-40.1725

> <Gold.PLP.part.hbond>
-4.3032

> <Gold.PLP.part.metal>
0.0000

> <Gold.PLP.part.buried>
1.7001

> <Gold.PLP.part.nonpolar>
-37.8236

> <Gold.PLP.part.repulsive>
0.3249

> <Gold.PLP.ligand.clash>
0.2479

> <Gold.PLP.ligand.torsion>
0.5390

> <Gold.PLP.Chemscore.Hbond>
2.2373

> <Gold.PLP.Chemscore.CHOScore>
1.0000

> <Gold.PLP.Chemscore.Metal>
0.0000

> <Gold.Chemscore.Hbonds>
donor molecule, donor type, donor heavy atom, donor atom, acceptor molecule, acceptor atom, score
      L1  H    26    51       P1 10171  1.00
      P1  H  6933  6945       L1     8  0.15
      P1  H  7954  7966       L1    26  0.73
      P1  H  7997  8010       L1    10  0.01
      L1  C    18    42       P1  8028  1.00

> <Gold.PLP.Chemscore.Internal.Correction>
0.7168

> <Gold.Rescore>
     Score         DG    S(hbond)    S(metal)    S(lipo)     H(rot)  DE(clash)    DE(int)     intcor
      5.46     -13.31       2.16        0.00      92.58       3.99       3.29       4.56       ----

> <Gold.Chemscore.Fitness>
5.4582

> <Gold.Chemscore.DG>
-13.3085

> <Gold.Chemscore.ZeroCoef>
-5.4800

> <Gold.Chemscore.Hbond>
2.1591

> <Gold.Chemscore.Metal>
0.0000

> <Gold.Chemscore.Lipo>
92.5803

> <Gold.Chemscore.Internal_Hbond>
0.0000

> <Gold.Chemscore.DEClash>
3.2920

> <Gold.Chemscore.DEInternal>
4.5583

> <Gold.Chemscore.Rot>
3.9902

> <Gold.Chemscore.Internal.Correction>
   9.000000E+99

> <Gold.Chemscore.Hbonds>
donor molecule, donor type, donor heavy atom, donor atom, acceptor molecule, acceptor atom, score
      L1  H    26    51       P1 10171  1.00
      P1  H  6933  6945       L1     8  0.16
      P1  H  7954  7966       L1    26  0.20

> <Gold.Chemscore.Hbond.Weighted>
-7.2115

> <Gold.Chemscore.Metal.Weighted>
-0.0000

> <Gold.Chemscore.Lipo.Weighted>
-10.8319

> <Gold.Chemscore.Internal_Hbond.Weighted>
0.0000

> <Gold.Chemscore.DEClash.Weighted>
3.2920

> <Gold.Chemscore.DEInternal.Weighted>
4.5583

> <Gold.Chemscore.Rot.Weighted>
10.2148

> <Gold.Chemscore.Internal.Correction.Weighted>
   9.000000E+99

> <Gold.Protein.RotatedTorsions>
[ 6907 6896 6895 6894 ] final -161.43 input  -60.11 | X-H torsion
[ 7974 7965 7964 7962 ] final  -95.28 input  175.53 | X-H torsion
[ 8008 7997 7996 7995 ] final   32.57 input   59.86 | X-H torsion
[ 10167 10162 10161 10158 ] final   23.33 input  -65.29 | X-H torsion
[ 10718 10713 10712 10709 ] final  -50.21 input   66.30 | X-H torsion
[ 10763 10752 10751 10750 ] final   99.25 input  -60.55 | X-H torsion
[ 11005 11000 10999 10996 ] final  148.97 input  -57.11 | X-H torsion

> <Gold.Protein.ActiveResidues>
 VAL166  LYS551  ARG553  GLY616  TRP617  ASP618  TYR619  PRO620  LYS621  CYS622 
 ASP623  PHE694  ASN695  SER759  ASP760  ASP761  ALA762  ILE779  LEU786  VAL792 
 PHE793  MET794  SER795  GLU796  ALA797  LYS798  CYS799  TRP800  GLU811  SER814 

> <Gold.Protein.RotatedAtoms>
  151.3645  133.3877  159.2692 H   0  0  0  0  0  0  0  0  0  0  0  0  # atno 6907 bound_to 6896
  150.9699  134.9075  159.7792 H   0  0  0  0  0  0  0  0  0  0  0  0  # atno 6908 bound_to 6896
  152.5181  134.3606  159.9336 H   0  0  0  0  0  0  0  0  0  0  0  0  # atno 6909 bound_to 6896
  145.3622  140.9493  143.2494 H   0  0  0  0  0  0  0  0  0  0  0  0  # atno 7974 bound_to 7965
  155.1246  140.3251  155.4489 H   0  0  0  0  0  0  0  0  0  0  0  0  # atno 8008 bound_to 7997
  156.2653  140.2021  156.6316 H   0  0  0  0  0  0  0  0  0  0  0  0  # atno 8009 bound_to 7997
  154.6658  140.0542  157.0099 H   0  0  0  0  0  0  0  0  0  0  0  0  # atno 8010 bound_to 7997
  140.5278  143.9894  150.6449 H   0  0  0  0  0  0  0  0  0  0  0  0  # atno 10167 bound_to 10162
  156.1821  130.4151  149.9491 H   0  0  0  0  0  0  0  0  0  0  0  0  # atno 10718 bound_to 10713
  153.2991  135.4120  155.1236 H   0  0  0  0  0  0  0  0  0  0  0  0  # atno 10763 bound_to 10752
  154.8544  135.3537  154.5877 H   0  0  0  0  0  0  0  0  0  0  0  0  # atno 10764 bound_to 10752
  153.6301  135.7061  153.5336 H   0  0  0  0  0  0  0  0  0  0  0  0  # atno 10765 bound_to 10752
  140.1005  134.8986  157.1788 H   0  0  0  0  0  0  0  0  0  0  0  0  # atno 11005 bound_to 11000
  144.8638  139.5138  143.6800 LP  0  0  0  0  0  0  0  0  0  0  0  0  # atno 17320 bound_to 7965
  146.2922  139.7173  142.9152 LP  0  0  0  0  0  0  0  0  0  0  0  0  # atno 17321 bound_to 7965
  140.3260  143.3107  152.0735 LP  0  0  0  0  0  0  0  0  0  0  0  0  # atno 17342 bound_to 10162
  139.4944  144.6541  151.6610 LP  0  0  0  0  0  0  0  0  0  0  0  0  # atno 17343 bound_to 10162
  156.7258  130.9024  151.3622 LP  0  0  0  0  0  0  0  0  0  0  0  0  # atno 17370 bound_to 10713
  157.6875  130.9200  150.0425 LP  0  0  0  0  0  0  0  0  0  0  0  0  # atno 17371 bound_to 10713
  140.3227  134.2898  155.7243 LP  0  0  0  0  0  0  0  0  0  0  0  0  # atno 17394 bound_to 11000
  141.2104  133.7720  156.9934 LP  0  0  0  0  0  0  0  0  0  0  0  0  # atno 17395 bound_to 11000

$$$$
