AV-unprocessed.smi:3289|AV-procd|sdf|12610|dock6
  -GOLD-   2272018543D 1   1.00000     0.00000
 Structure written by MMmdl.
 39 40  0  0  0  0  0  0  0  0  1 V2000
  150.9318  137.0929  155.3671 C   0  0  0  0  0  0  0  0  0  0  0  0
  151.4797  138.3956  154.7675 C   0  0  0  0  0  0  0  0  0  0  0  0
  153.0156  138.4180  154.7472 C   0  0  0  0  0  0  0  0  0  0  0  0
  150.9142  139.6033  155.4654 C   0  0  0  0  0  0  0  0  0  0  0  0
  150.3678  140.6282  154.8150 N   0  0  0  0  0  0  0  0  0  0  0  0
  150.0054  141.5341  155.8039 C   0  0  0  0  0  0  0  0  0  0  0  0
  150.3572  141.0292  157.0308 C   0  0  0  0  0  0  0  0  0  0  0  0
  150.9476  139.7916  156.8038 N   0  0  0  0  0  0  0  0  0  0  0  0
  151.4864  138.9227  157.8404 C   0  0  0  0  0  0  0  0  0  0  0  0
  152.8208  139.4519  158.3710 C   0  0  0  0  0  0  0  0  0  0  0  0
  153.8767  138.9420  157.9966 O   0  0  0  0  0  0  0  0  0  0  0  0
  152.7588  140.4683  159.2450 N   0  0  0  0  0  0  0  0  0  0  0  0
  153.9101  141.1102  159.8689 C   0  0  0  0  0  0  0  0  0  0  0  0
  153.6050  142.5682  160.2498 C   0  0  1  0  0  0  0  0  0  0  0  0
  152.5818  143.2398  159.3395 C   0  0  0  0  0  0  0  0  0  0  0  0
  152.1215  144.4023  160.1938 C   0  0  0  0  0  0  0  0  0  0  0  0
  152.2266  143.8508  161.6176 C   0  0  0  0  0  0  0  0  0  0  0  0
  152.9892  142.6501  161.5285 O   0  0  0  0  0  0  0  0  0  0  0  0
  149.8433  137.0636  155.3088 H   0  0  0  0  0  0  0  0  0  0  0  0
  151.2122  136.9886  156.4157 H   0  0  0  0  0  0  0  0  0  0  0  0
  151.3137  136.2233  154.8322 H   0  0  0  0  0  0  0  0  0  0  0  0
  151.1661  138.4141  153.7260 H   0  0  0  0  0  0  0  0  0  0  0  0
  153.3875  139.3236  154.2670 H   0  0  0  0  0  0  0  0  0  0  0  0
  153.4136  137.5655  154.1962 H   0  0  0  0  0  0  0  0  0  0  0  0
  153.4285  138.3822  155.7559 H   0  0  0  0  0  0  0  0  0  0  0  0
  149.5284  142.4713  155.5585 H   0  0  0  0  0  0  0  0  0  0  0  0
  150.2474  141.4418  158.0230 H   0  0  0  0  0  0  0  0  0  0  0  0
  150.7748  138.8757  158.6656 H   0  0  0  0  0  0  0  0  0  0  0  0
  151.5793  137.9066  157.4559 H   0  0  0  0  0  0  0  0  0  0  0  0
  151.8479  140.8259  159.4936 H   0  0  0  0  0  0  0  0  0  0  0  0
  154.1539  140.5430  160.7674 H   0  0  0  0  0  0  0  0  0  0  0  0
  154.7874  141.0535  159.2222 H   0  0  0  0  0  0  0  0  0  0  0  0
  154.5227  143.1592  160.2640 H   0  0  0  0  0  0  0  0  0  0  0  0
  153.0015  143.5531  158.3833 H   0  0  0  0  0  0  0  0  0  0  0  0
  151.7452  142.5673  159.1438 H   0  0  0  0  0  0  0  0  0  0  0  0
  152.8024  145.2458  160.0711 H   0  0  0  0  0  0  0  0  0  0  0  0
  151.1156  144.7398  159.9427 H   0  0  0  0  0  0  0  0  0  0  0  0
  152.7136  144.5643  162.2828 H   0  0  0  0  0  0  0  0  0  0  0  0
  151.2444  143.6190  162.0302 H   0  0  0  0  0  0  0  0  0  0  0  0
  1  2  1  0  0  0  0
  1 19  1  0  0  0  0
  1 20  1  0  0  0  0
  1 21  1  0  0  0  0
  2  3  1  0  0  0  0
  2  4  1  0  0  0  0
  2 22  1  0  0  0  0
  3 23  1  0  0  0  0
  3 24  1  0  0  0  0
  3 25  1  0  0  0  0
  4  8  1  0  0  0  0
  4  5  2  0  0  0  0
  5  6  1  0  0  0  0
  6  7  2  0  0  0  0
  6 26  1  0  0  0  0
  7  8  1  0  0  0  0
  7 27  1  0  0  0  0
  8  9  1  0  0  0  0
  9 10  1  0  0  0  0
  9 28  1  0  0  0  0
  9 29  1  0  0  0  0
 10 11  2  0  0  0  0
 10 12  1  0  0  0  0
 12 13  1  0  0  0  0
 12 30  1  0  0  0  0
 13 14  1  0  0  0  0
 13 31  1  0  0  0  0
 13 32  1  0  0  0  0
 14 18  1  0  0  0  0
 14 15  1  0  0  0  0
 14 33  1  0  0  0  0
 15 16  1  0  0  0  0
 15 34  1  0  0  0  0
 15 35  1  0  0  0  0
 16 17  1  0  0  0  0
 16 36  1  0  0  0  0
 16 37  1  0  0  0  0
 17 18  1  0  0  0  0
 17 38  1  0  0  0  0
 17 39  1  0  0  0  0
M  END
> <s_m_source_file>
AV-unprocessed.smi

> <i_m_source_file_index>
3289

> <i_lp_mmshare_version>
43012

> <i_f3d_flags>
0

> <s_epik_input>
W0NIM11bQ0hdKFtDSDNdKWMxbltjSF1bY0hdbjFbQ0gyXUMoPU8pW05IXVtDSDJdW0NAQEhdMltDSDJdW0NIMl1bQ0gyXU8y

> <s_epik_cmdline>
J2VwaWtfcHl0aG9uJywgJy1waCcsICc3LjAnLCAnLXRuJywgJzgnLCAnLW1hJywgJzIwMCcsICctbWV0YWxfYmluZGluZycsICctaW1hZScsICc8aW5maWxlLm1hZT4nLCAnLW9tYWUnLCAnPG91dGZpbGUubWFlPic=

> <r_lp_tautomer_probability>
1

> <r_epik_Ionization_Penalty>
0.587725

> <r_epik_Ionization_Penalty_Charging>
0.587725

> <r_epik_Ionization_Penalty_Neutral>
1.43432e-07

> <r_epik_State_Penalty>
0.601029

> <r_epik_Charging_Adjusted_Penalty>
1.18875

> <i_epik_Tot_Q>
0

> <i_epik_Tot_abs_Q>
0

> <r_epik_Metal_State_Penalty>
0.297663

> <b_epik_Metal_Only>
0

> <s_lp_Force_Field>
OPLS_2005

> <r_lp_Energy>
18.4157

> <b_lp_Chiralities_Consistent>
1

> <s_lp_Variant>
AV-unprocessed.smi:3289-4

> <Gold.Version>
5.8.1

> <Gold.Id.Protein>
6NUR|6NUR_protein|mol2

> <Gold.PLP.Fitness>
47.4637

> <Gold.PLP.PLP>
-41.1479

> <Gold.PLP.part.hbond>
-2.0000

> <Gold.PLP.part.metal>
0.0000

> <Gold.PLP.part.buried>
-4.5114

> <Gold.PLP.part.nonpolar>
-34.7508

> <Gold.PLP.part.repulsive>
0.2753

> <Gold.PLP.ligand.clash>
0.0000

> <Gold.PLP.ligand.torsion>
1.1987

> <Gold.PLP.Chemscore.Hbond>
1.8800

> <Gold.PLP.Chemscore.CHOScore>
1.0000

> <Gold.PLP.Chemscore.Metal>
0.0000

> <Gold.Chemscore.Hbonds>
donor molecule, donor type, donor heavy atom, donor atom, acceptor molecule, acceptor atom, score
      P1  H  7989  7998       L1     5  0.91
      P1  H  7997  8010       L1    11  1.00
      L1  C     6    26       P1  8028  1.00

> <Gold.PLP.Chemscore.Internal.Correction>
0.0732

> <Gold.Rescore>
     Score         DG    S(hbond)    S(metal)    S(lipo)     H(rot)  DE(clash)    DE(int)     intcor
     17.46     -18.57       1.84        0.00      96.94       1.72       0.10       1.01       ----

> <Gold.Chemscore.Fitness>
17.4629

> <Gold.Chemscore.DG>
-18.5736

> <Gold.Chemscore.ZeroCoef>
-5.4800

> <Gold.Chemscore.Hbond>
1.8409

> <Gold.Chemscore.Metal>
0.0000

> <Gold.Chemscore.Lipo>
96.9368

> <Gold.Chemscore.Internal_Hbond>
0.0000

> <Gold.Chemscore.DEClash>
0.1042

> <Gold.Chemscore.DEInternal>
1.0064

> <Gold.Chemscore.Rot>
1.7175

> <Gold.Chemscore.Internal.Correction>
   9.000000E+99

> <Gold.Chemscore.Hbonds>
donor molecule, donor type, donor heavy atom, donor atom, acceptor molecule, acceptor atom, score
      P1  H  7989  7998       L1     5  0.27
      P1  H  7997  8010       L1    11  0.78

> <Gold.Chemscore.Hbond.Weighted>
-6.1487

> <Gold.Chemscore.Metal.Weighted>
-0.0000

> <Gold.Chemscore.Lipo.Weighted>
-11.3416

> <Gold.Chemscore.Internal_Hbond.Weighted>
0.0000

> <Gold.Chemscore.DEClash.Weighted>
0.1042

> <Gold.Chemscore.DEInternal.Weighted>
1.0064

> <Gold.Chemscore.Rot.Weighted>
4.3967

> <Gold.Chemscore.Internal.Correction.Weighted>
   9.000000E+99

> <Gold.Protein.RotatedTorsions>
[ 6907 6896 6895 6894 ] final  -16.93 input  -60.11 | X-H torsion
[ 7974 7965 7964 7962 ] final -139.62 input  175.53 | X-H torsion
[ 8008 7997 7996 7995 ] final   22.42 input   59.86 | X-H torsion
[ 10167 10162 10161 10158 ] final   45.02 input  -65.29 | X-H torsion
[ 10718 10713 10712 10709 ] final   70.86 input   66.30 | X-H torsion
[ 10763 10752 10751 10750 ] final   11.10 input  -60.55 | X-H torsion
[ 11005 11000 10999 10996 ] final -155.65 input  -57.11 | X-H torsion

> <Gold.Protein.ActiveResidues>
 VAL166  LYS551  ARG553  GLY616  TRP617  ASP618  TYR619  PRO620  LYS621  CYS622 
 ASP623  PHE694  ASN695  SER759  ASP760  ASP761  ALA762  ILE779  LEU786  VAL792 
 PHE793  MET794  SER795  GLU796  ALA797  LYS798  CYS799  TRP800  GLU811  SER814 

> <Gold.Protein.RotatedAtoms>
  151.3011  135.0769  159.9238 H   0  0  0  0  0  0  0  0  0  0  0  0  # atno 6907 bound_to 6896
  152.5297  133.9833  159.7827 H   0  0  0  0  0  0  0  0  0  0  0  0  # atno 6908 bound_to 6896
  151.0120  133.5905  159.2712 H   0  0  0  0  0  0  0  0  0  0  0  0  # atno 6909 bound_to 6896
  144.8662  140.6297  143.5296 H   0  0  0  0  0  0  0  0  0  0  0  0  # atno 7974 bound_to 7965
  154.9654  140.3083  155.5012 H   0  0  0  0  0  0  0  0  0  0  0  0  # atno 8008 bound_to 7997
  156.2972  140.2293  156.4681 H   0  0  0  0  0  0  0  0  0  0  0  0  # atno 8009 bound_to 7997
  154.7926  140.0439  157.1201 H   0  0  0  0  0  0  0  0  0  0  0  0  # atno 8010 bound_to 7997
  140.3283  144.2620  150.6172 H   0  0  0  0  0  0  0  0  0  0  0  0  # atno 10167 bound_to 10162
  157.6422  130.9499  150.0709 H   0  0  0  0  0  0  0  0  0  0  0  0  # atno 10718 bound_to 10713
  153.1962  135.6849  153.8289 H   0  0  0  0  0  0  0  0  0  0  0  0  # atno 10763 bound_to 10752
  153.7571  135.3215  155.3332 H   0  0  0  0  0  0  0  0  0  0  0  0  # atno 10764 bound_to 10752
  154.8146  135.4694  154.0707 H   0  0  0  0  0  0  0  0  0  0  0  0  # atno 10765 bound_to 10752
  140.6842  134.4111  157.5224 H   0  0  0  0  0  0  0  0  0  0  0  0  # atno 11005 bound_to 11000
  145.4216  139.1563  143.4071 LP  0  0  0  0  0  0  0  0  0  0  0  0  # atno 17320 bound_to 7965
  146.2898  140.4327  142.8744 LP  0  0  0  0  0  0  0  0  0  0  0  0  # atno 17321 bound_to 7965
  140.5420  143.2222  151.8069 LP  0  0  0  0  0  0  0  0  0  0  0  0  # atno 17342 bound_to 10162
  139.4861  144.4588  151.9566 LP  0  0  0  0  0  0  0  0  0  0  0  0  # atno 17343 bound_to 10162
  156.1714  130.3646  149.9160 LP  0  0  0  0  0  0  0  0  0  0  0  0  # atno 17370 bound_to 10713
  156.7135  130.8979  151.3611 LP  0  0  0  0  0  0  0  0  0  0  0  0  # atno 17371 bound_to 10713
  139.8942  134.8711  156.2186 LP  0  0  0  0  0  0  0  0  0  0  0  0  # atno 17394 bound_to 11000
  141.0293  133.6997  156.1402 LP  0  0  0  0  0  0  0  0  0  0  0  0  # atno 17395 bound_to 11000

$$$$
