AV-unprocessed.smi:274|AV-procd|sdf|2060|dock10
  -GOLD-   2262021303D 1   1.00000     0.00000
 Structure written by MMmdl.
 50 53  0  0  0  0  0  0  0  0  1 V2000
  149.8418  141.8447  157.0052 C   0  0  0  0  0  0  0  0  0  0  0  0
  149.8622  140.3035  157.0485 C   0  0  0  0  0  0  0  0  0  0  0  0
  151.3275  139.8241  157.0927 C   0  0  0  0  0  0  0  0  0  0  0  0
  149.0636  139.6382  155.8831 C   0  0  2  0  0  0  0  0  0  0  0  0
  149.6044  140.0348  154.4856 C   0  0  0  0  0  0  0  0  0  0  0  0
  150.6358  139.5204  154.0584 O   0  0  0  0  0  0  0  0  0  0  0  0
  148.9127  140.9177  153.7425 N   0  0  0  0  0  0  0  0  0  0  0  0
  147.6351  141.5343  154.1003 C   0  0  0  0  0  0  0  0  0  0  0  0
  147.2361  141.3049  155.5690 C   0  0  0  0  0  0  0  0  0  0  0  0
  147.6332  139.9681  156.0047 N   0  0  0  0  0  0  0  0  0  0  0  0
  146.7103  139.0002  155.7654 C   0  0  0  0  0  0  0  0  0  0  0  0
  146.0749  138.3878  156.7999 N   0  0  0  0  0  0  0  0  0  0  0  0
  145.1836  137.4203  156.5661 C   0  0  0  0  0  0  0  0  0  0  0  0
  144.7878  136.9156  155.3961 N   0  0  0  0  0  0  0  0  0  0  0  0
  145.4214  137.5263  154.3540 C   0  0  0  0  0  0  0  0  0  0  0  0
  146.3825  138.5716  154.4492 C   0  0  0  0  0  0  0  0  0  0  0  0
  146.7916  138.9571  153.1784 N   0  0  0  0  0  0  0  0  0  0  0  0
  146.1154  138.1792  152.3780 C   0  0  0  0  0  0  0  0  0  0  0  0
  145.2814  137.2768  152.9994 N   0  0  0  0  0  0  0  0  0  0  0  0
  144.4213  136.2941  152.3565 C   0  0  0  0  0  0  0  0  0  0  0  0
  145.1540  135.3675  151.3519 C   0  0  2  0  0  0  0  0  0  0  0  0
  145.5968  136.1309  150.2448 O   0  0  0  0  0  0  0  0  0  0  0  0
  144.3071  134.1971  150.8457 C   0  0  0  0  0  0  0  0  0  0  0  0
  144.7730  133.0363  151.7123 C   0  0  0  0  0  0  0  0  0  0  0  0
  146.1662  133.2701  151.8055 O   0  0  0  0  0  0  0  0  0  0  0  0
  146.3602  134.6644  152.0080 C   0  0  0  0  0  0  0  0  0  0  0  0
  150.2052  142.2186  156.0476 H   0  0  0  0  0  0  0  0  0  0  0  0
  150.4748  142.2674  157.7859 H   0  0  0  0  0  0  0  0  0  0  0  0
  148.8423  142.2468  157.1674 H   0  0  0  0  0  0  0  0  0  0  0  0
  149.4034  140.0138  157.9944 H   0  0  0  0  0  0  0  0  0  0  0  0
  151.8421  140.0431  156.1567 H   0  0  0  0  0  0  0  0  0  0  0  0
  151.4024  138.7513  157.2712 H   0  0  0  0  0  0  0  0  0  0  0  0
  151.8782  140.3147  157.8958 H   0  0  0  0  0  0  0  0  0  0  0  0
  149.1986  138.5601  155.9877 H   0  0  0  0  0  0  0  0  0  0  0  0
  149.2879  141.1535  152.8352 H   0  0  0  0  0  0  0  0  0  0  0  0
  147.6637  142.5999  153.8733 H   0  0  0  0  0  0  0  0  0  0  0  0
  146.8767  141.0965  153.4503 H   0  0  0  0  0  0  0  0  0  0  0  0
  147.7356  142.0369  156.2033 H   0  0  0  0  0  0  0  0  0  0  0  0
  146.1688  141.4872  155.6978 H   0  0  0  0  0  0  0  0  0  0  0  0
  144.7238  136.9871  157.4420 H   0  0  0  0  0  0  0  0  0  0  0  0
  146.2115  138.2405  151.3036 H   0  0  0  0  0  0  0  0  0  0  0  0
  143.9497  135.6965  153.1382 H   0  0  0  0  0  0  0  0  0  0  0  0
  143.6134  136.8278  151.8544 H   0  0  0  0  0  0  0  0  0  0  0  0
  145.5877  135.5790  149.4778 H   0  0  0  0  0  0  0  0  0  0  0  0
  143.2318  134.3556  150.9046 H   0  0  0  0  0  0  0  0  0  0  0  0
  144.5434  133.9701  149.8046 H   0  0  0  0  0  0  0  0  0  0  0  0
  144.3210  133.0784  152.7047 H   0  0  0  0  0  0  0  0  0  0  0  0
  144.5549  132.0638  151.2705 H   0  0  0  0  0  0  0  0  0  0  0  0
  147.3200  134.9763  151.5942 H   0  0  0  0  0  0  0  0  0  0  0  0
  146.3926  134.8541  153.0816 H   0  0  0  0  0  0  0  0  0  0  0  0
  1  2  1  0  0  0  0
  1 27  1  0  0  0  0
  1 28  1  0  0  0  0
  1 29  1  0  0  0  0
  2  3  1  0  0  0  0
  2  4  1  0  0  0  0
  2 30  1  0  0  0  0
  3 31  1  0  0  0  0
  3 32  1  0  0  0  0
  3 33  1  0  0  0  0
  4 10  1  0  0  0  0
  4  5  1  0  0  0  0
  4 34  1  0  0  0  0
  5  6  2  0  0  0  0
  5  7  1  0  0  0  0
  7  8  1  0  0  0  0
  7 35  1  0  0  0  0
  8  9  1  0  0  0  0
  8 36  1  0  0  0  0
  8 37  1  0  0  0  0
  9 10  1  0  0  0  0
  9 38  1  0  0  0  0
  9 39  1  0  0  0  0
 10 11  1  0  0  0  0
 11 16  1  0  0  0  0
 11 12  2  0  0  0  0
 12 13  1  0  0  0  0
 13 14  2  0  0  0  0
 13 40  1  0  0  0  0
 14 15  1  0  0  0  0
 15 19  1  0  0  0  0
 15 16  2  0  0  0  0
 16 17  1  0  0  0  0
 17 18  2  0  0  0  0
 18 19  1  0  0  0  0
 18 41  1  0  0  0  0
 19 20  1  0  0  0  0
 20 21  1  0  0  0  0
 20 42  1  0  0  0  0
 20 43  1  0  0  0  0
 21 26  1  0  0  0  0
 21 22  1  0  0  0  0
 21 23  1  0  0  0  0
 22 44  1  0  0  0  0
 23 24  1  0  0  0  0
 23 45  1  0  0  0  0
 23 46  1  0  0  0  0
 24 25  1  0  0  0  0
 24 47  1  0  0  0  0
 24 48  1  0  0  0  0
 25 26  1  0  0  0  0
 26 49  1  0  0  0  0
 26 50  1  0  0  0  0
M  END
> <s_m_source_file>
AV-unprocessed.smi

> <i_m_source_file_index>
274

> <i_lp_mmshare_version>
43012

> <i_f3d_flags>
0

> <s_epik_input>
W0NIM11bQ0hdKFtDSDNdKVtDQEBIXTFDKD1PKVtOSF1bQ0gyXVtDSDJdTjFjKG5bY0hdbjIpYyhjMjMpbltjSF1uM1tDSDJdW0NAQF00KFtPSF0pW0NIMl1bQ0gyXU9bQ0gyXTQ=

> <s_epik_cmdline>
J2VwaWtfcHl0aG9uJywgJy1waCcsICc3LjAnLCAnLXRuJywgJzgnLCAnLW1hJywgJzIwMCcsICctbWV0YWxfYmluZGluZycsICctaW1hZScsICc8aW5maWxlLm1hZT4nLCAnLW9tYWUnLCAnPG91dGZpbGUubWFlPic=

> <r_lp_tautomer_probability>
1

> <r_epik_Ionization_Penalty>
0.000690079

> <r_epik_Ionization_Penalty_Charging>
0

> <r_epik_Ionization_Penalty_Neutral>
0.000690079

> <r_epik_State_Penalty>
0.000321372

> <r_epik_Charging_Adjusted_Penalty>
0.000321372

> <i_epik_Tot_Q>
0

> <i_epik_Tot_abs_Q>
0

> <r_epik_Metal_State_Penalty>
-0

> <b_epik_Metal_Only>
0

> <s_lp_Force_Field>
OPLS_2005

> <r_lp_Energy>
42.4

> <b_lp_Chiralities_Consistent>
1

> <s_lp_Variant>
AV-unprocessed.smi:274-3

> <Gold.Version>
5.8.1

> <Gold.Id.Protein>
6NUR|6NUR_protein|mol2

> <Gold.PLP.Fitness>
39.4274

> <Gold.PLP.PLP>
-30.7682

> <Gold.PLP.part.hbond>
-4.0000

> <Gold.PLP.part.metal>
0.0000

> <Gold.PLP.part.buried>
-4.5700

> <Gold.PLP.part.nonpolar>
-24.0669

> <Gold.PLP.part.repulsive>
0.8156

> <Gold.PLP.ligand.clash>
0.0000

> <Gold.PLP.ligand.torsion>
0.3960

> <Gold.PLP.Chemscore.Hbond>
2.6880

> <Gold.PLP.Chemscore.CHOScore>
0.2690

> <Gold.PLP.Chemscore.Metal>
0.0000

> <Gold.Chemscore.Hbonds>
donor molecule, donor type, donor heavy atom, donor atom, acceptor molecule, acceptor atom, score
      L1  H     7    35       P1  7957  0.66
      L1  H    22    44       P1  7921  0.93
      P1  H  7989  7998       L1     6  1.00
      L1  C    18    41       P1 10171  0.27

> <Gold.PLP.Chemscore.Internal.Correction>
0.5802

> <Gold.Rescore>
     Score         DG    S(hbond)    S(metal)    S(lipo)     H(rot)  DE(clash)    DE(int)     intcor
      8.54     -13.23       2.32        0.00      54.66       2.50       1.51       3.17       ----

> <Gold.Chemscore.Fitness>
8.5398

> <Gold.Chemscore.DG>
-13.2255

> <Gold.Chemscore.ZeroCoef>
-5.4800

> <Gold.Chemscore.Hbond>
2.3197

> <Gold.Chemscore.Metal>
0.0000

> <Gold.Chemscore.Lipo>
54.6558

> <Gold.Chemscore.Internal_Hbond>
0.0000

> <Gold.Chemscore.DEClash>
1.5127

> <Gold.Chemscore.DEInternal>
3.1730

> <Gold.Chemscore.Rot>
2.4988

> <Gold.Chemscore.Internal.Correction>
   9.000000E+99

> <Gold.Chemscore.Hbonds>
donor molecule, donor type, donor heavy atom, donor atom, acceptor molecule, acceptor atom, score
      L1  H     7    35       P1  7957  0.62
      L1  H    22    44       P1  7921  0.88
      P1  H  7989  7998       L1     6  0.55

> <Gold.Chemscore.Hbond.Weighted>
-7.7477

> <Gold.Chemscore.Metal.Weighted>
-0.0000

> <Gold.Chemscore.Lipo.Weighted>
-6.3947

> <Gold.Chemscore.Internal_Hbond.Weighted>
0.0000

> <Gold.Chemscore.DEClash.Weighted>
1.5127

> <Gold.Chemscore.DEInternal.Weighted>
3.1730

> <Gold.Chemscore.Rot.Weighted>
6.3970

> <Gold.Chemscore.Internal.Correction.Weighted>
   9.000000E+99

> <Gold.Protein.RotatedTorsions>
[ 6907 6896 6895 6894 ] final   63.12 input  -60.11 | X-H torsion
[ 7974 7965 7964 7962 ] final  148.54 input  175.53 | X-H torsion
[ 8008 7997 7996 7995 ] final  110.50 input   59.86 | X-H torsion
[ 10167 10162 10161 10158 ] final -171.67 input  -65.29 | X-H torsion
[ 10718 10713 10712 10709 ] final -155.76 input   66.30 | X-H torsion
[ 10763 10752 10751 10750 ] final  111.79 input  -60.55 | X-H torsion
[ 11005 11000 10999 10996 ] final  -29.91 input  -57.11 | X-H torsion

> <Gold.Protein.ActiveResidues>
 VAL166  LYS551  ARG553  GLY616  TRP617  ASP618  TYR619  PRO620  LYS621  CYS622 
 ASP623  PHE694  ASN695  SER759  ASP760  ASP761  ALA762  ILE779  LEU786  VAL792 
 PHE793  MET794  SER795  GLU796  ALA797  LYS798  CYS799  TRP800  GLU811  SER814 

> <Gold.Protein.RotatedAtoms>
  152.4227  134.5925  159.9977 H   0  0  0  0  0  0  0  0  0  0  0  0  # atno 6907 bound_to 6896
  151.6070  133.3345  159.3067 H   0  0  0  0  0  0  0  0  0  0  0  0  # atno 6908 bound_to 6896
  150.8116  134.7311  159.6758 H   0  0  0  0  0  0  0  0  0  0  0  0  # atno 6909 bound_to 6896
  144.8506  139.6167  143.5975 H   0  0  0  0  0  0  0  0  0  0  0  0  # atno 7974 bound_to 7965
  156.2057  140.3037  155.9623 H   0  0  0  0  0  0  0  0  0  0  0  0  # atno 8008 bound_to 7997
  155.2846  140.0439  157.3035 H   0  0  0  0  0  0  0  0  0  0  0  0  # atno 8009 bound_to 7997
  154.5631  140.2326  155.8314 H   0  0  0  0  0  0  0  0  0  0  0  0  # atno 8010 bound_to 7997
  139.5789  144.1469  152.1488 H   0  0  0  0  0  0  0  0  0  0  0  0  # atno 10167 bound_to 10162
  156.5172  130.8461  151.2668 H   0  0  0  0  0  0  0  0  0  0  0  0  # atno 10718 bound_to 10713
  153.4684  135.3706  155.2377 H   0  0  0  0  0  0  0  0  0  0  0  0  # atno 10763 bound_to 10752
  154.8757  135.3925  154.3841 H   0  0  0  0  0  0  0  0  0  0  0  0  # atno 10764 bound_to 10752
  153.4426  135.7084  153.6224 H   0  0  0  0  0  0  0  0  0  0  0  0  # atno 10765 bound_to 10752
  140.9338  133.7322  156.0974 H   0  0  0  0  0  0  0  0  0  0  0  0  # atno 11005 bound_to 11000
  146.2781  139.6806  142.9248 LP  0  0  0  0  0  0  0  0  0  0  0  0  # atno 17320 bound_to 7965
  145.4508  141.0428  143.2806 LP  0  0  0  0  0  0  0  0  0  0  0  0  # atno 17321 bound_to 7965
  140.1018  144.5533  150.6984 LP  0  0  0  0  0  0  0  0  0  0  0  0  # atno 17342 bound_to 10162
  140.7069  143.2475  151.4699 LP  0  0  0  0  0  0  0  0  0  0  0  0  # atno 17343 bound_to 10162
  157.7442  130.9929  150.2655 LP  0  0  0  0  0  0  0  0  0  0  0  0  # atno 17370 bound_to 10713
  156.3184  130.3782  149.7598 LP  0  0  0  0  0  0  0  0  0  0  0  0  # atno 17371 bound_to 10713
  140.7827  134.3707  157.5483 LP  0  0  0  0  0  0  0  0  0  0  0  0  # atno 17394 bound_to 11000
  139.8803  134.9092  156.2985 LP  0  0  0  0  0  0  0  0  0  0  0  0  # atno 17395 bound_to 11000

$$$$
