AV-unprocessed.smi:1540|AV-procd|sdf|6199|dock9
  -GOLD-   22720 6363D 1   1.00000     0.00000
 Structure written by MMmdl.
 33 33  0  0  0  0  0  0  0  0  1 V2000
  146.9462  141.9921  154.7211 C   0  0  0  0  0  0  0  0  0  0  0  0
  147.8595  141.2189  155.3273 C   0  0  0  0  0  0  0  0  0  0  0  0
  148.8456  140.3287  154.6039 C   0  0  0  0  0  0  0  0  0  0  0  0
  150.1375  140.4499  155.1870 O   0  0  0  0  0  0  0  0  0  0  0  0
  150.6314  139.2806  155.8364 C   0  0  1  0  0  0  0  0  0  0  0  0
  151.0405  138.2812  154.7440 C   0  0  0  0  0  0  0  0  0  0  0  0
  151.8173  139.6327  156.7501 C   0  0  0  0  0  0  0  0  0  0  0  0
  152.9491  139.2554  156.4474 O   0  0  0  0  0  0  0  0  0  0  0  0
  151.5117  140.3818  157.8280 N   0  0  0  0  0  0  0  0  0  0  0  0
  152.3505  140.8659  158.8456 C   0  0  0  0  0  0  0  0  0  0  0  0
  153.2876  140.1287  159.4972 C   0  0  0  0  0  0  0  0  0  0  0  0
  154.1134  140.6903  160.5534 C   0  0  0  0  0  0  0  0  0  0  0  0
  155.2138  139.8788  161.2194 C   0  0  0  0  0  0  0  0  0  0  0  0
  155.2201  138.6191  160.7811 F   0  0  0  0  0  0  0  0  0  0  0  0
  156.4011  140.4186  160.9483 F   0  0  0  0  0  0  0  0  0  0  0  0
  155.0595  139.8605  162.5434 F   0  0  0  0  0  0  0  0  0  0  0  0
  153.9075  141.9866  160.8510 C   0  0  0  0  0  0  0  0  0  0  0  0
  152.9310  142.7450  160.2013 N   0  0  0  0  0  0  0  0  0  0  0  0
  152.1336  142.2740  159.2164 C   0  0  0  0  0  0  0  0  0  0  0  0
  151.2958  143.0068  158.6914 O   0  0  0  0  0  0  0  0  0  0  0  0
  152.8258  143.7058  160.4938 H   0  0  0  0  0  0  0  0  0  0  0  0
  146.8612  142.0225  153.6446 H   0  0  0  0  0  0  0  0  0  0  0  0
  146.2692  142.6061  155.2967 H   0  0  0  0  0  0  0  0  0  0  0  0
  147.9148  141.2135  156.4061 H   0  0  0  0  0  0  0  0  0  0  0  0
  148.4941  139.2965  154.6373 H   0  0  0  0  0  0  0  0  0  0  0  0
  148.8764  140.6325  153.5567 H   0  0  0  0  0  0  0  0  0  0  0  0
  149.8307  138.8296  156.4259 H   0  0  0  0  0  0  0  0  0  0  0  0
  151.4553  137.3693  155.1753 H   0  0  0  0  0  0  0  0  0  0  0  0
  151.7870  138.7048  154.0709 H   0  0  0  0  0  0  0  0  0  0  0  0
  150.1789  137.9963  154.1399 H   0  0  0  0  0  0  0  0  0  0  0  0
  150.5494  140.6790  157.9028 H   0  0  0  0  0  0  0  0  0  0  0  0
  153.4346  139.0867  159.2653 H   0  0  0  0  0  0  0  0  0  0  0  0
  154.4673  142.5372  161.5928 H   0  0  0  0  0  0  0  0  0  0  0  0
  1  2  2  0  0  0  0
  1 22  1  0  0  0  0
  1 23  1  0  0  0  0
  2  3  1  0  0  0  0
  2 24  1  0  0  0  0
  3  4  1  0  0  0  0
  3 25  1  0  0  0  0
  3 26  1  0  0  0  0
  4  5  1  0  0  0  0
  5  6  1  0  0  0  0
  5  7  1  0  0  0  0
  5 27  1  0  0  0  0
  6 28  1  0  0  0  0
  6 29  1  0  0  0  0
  6 30  1  0  0  0  0
  7  8  2  0  0  0  0
  7  9  1  0  0  0  0
  9 10  1  0  0  0  0
  9 31  1  0  0  0  0
 10 19  1  0  0  0  0
 10 11  2  0  0  0  0
 11 12  1  0  0  0  0
 11 32  1  0  0  0  0
 12 13  1  0  0  0  0
 12 17  2  0  0  0  0
 13 14  1  0  0  0  0
 13 15  1  0  0  0  0
 13 16  1  0  0  0  0
 17 18  1  0  0  0  0
 17 33  1  0  0  0  0
 18 21  1  0  0  0  0
 18 19  1  0  0  0  0
 19 20  2  0  0  0  0
M  END
> <s_m_source_file>
AV-unprocessed.smi

> <i_m_source_file_index>
1540

> <i_lp_mmshare_version>
43012

> <i_f3d_flags>
0

> <s_epik_input>
W0NIMl09W0NIXVtDSDJdT1tDQEhdKFtDSDNdKUMoPU8pW05IXWMxW2NIXWMoQyhGKShGKUYpW2NIXVtuSF1jMT1P

> <s_epik_cmdline>
J2VwaWtfcHl0aG9uJywgJy1waCcsICc3LjAnLCAnLXRuJywgJzgnLCAnLW1hJywgJzIwMCcsICctbWV0YWxfYmluZGluZycsICctaW1hZScsICc8aW5maWxlLm1hZT4nLCAnLW9tYWUnLCAnPG91dGZpbGUubWFlPic=

> <r_lp_tautomer_probability>
0.999

> <r_epik_Ionization_Penalty>
0.0086731

> <r_epik_Ionization_Penalty_Charging>
0.00867296

> <r_epik_Ionization_Penalty_Neutral>
1.3954e-07

> <r_epik_State_Penalty>
0.00654787

> <r_epik_Charging_Adjusted_Penalty>
0.0152208

> <i_epik_Tot_Q>
0

> <i_epik_Tot_abs_Q>
0

> <r_epik_Metal_State_Penalty>
0.320056

> <b_epik_Metal_Only>
0

> <s_lp_Force_Field>
OPLS_2005

> <r_lp_Energy>
18.3286

> <b_lp_Chiralities_Consistent>
1

> <s_lp_Variant>
AV-unprocessed.smi:1540-2

> <Gold.Version>
5.8.1

> <Gold.Id.Protein>
6NUR|6NUR_protein|mol2

> <Gold.PLP.Fitness>
41.3953

> <Gold.PLP.PLP>
-38.0417

> <Gold.PLP.part.hbond>
-2.0000

> <Gold.PLP.part.metal>
0.0000

> <Gold.PLP.part.buried>
-5.1438

> <Gold.PLP.part.nonpolar>
-31.7918

> <Gold.PLP.part.repulsive>
0.3022

> <Gold.PLP.ligand.clash>
0.0000

> <Gold.PLP.ligand.torsion>
1.1474

> <Gold.PLP.Chemscore.Hbond>
1.8480

> <Gold.PLP.Chemscore.CHOScore>
0.0000

> <Gold.PLP.Chemscore.Metal>
0.0000

> <Gold.Chemscore.Hbonds>
donor molecule, donor type, donor heavy atom, donor atom, acceptor molecule, acceptor atom, score
      P1  H  7989  7998       L1     4  0.35
      P1  H  7997  8009       L1     8  1.00

> <Gold.PLP.Chemscore.Internal.Correction>
0.1043

> <Gold.Rescore>
     Score         DG    S(hbond)    S(metal)    S(lipo)     H(rot)  DE(clash)    DE(int)     intcor
     14.11     -15.57       1.82        0.00      73.84       1.81       0.15       1.32       ----

> <Gold.Chemscore.Fitness>
14.1120

> <Gold.Chemscore.DG>
-15.5746

> <Gold.Chemscore.ZeroCoef>
-5.4800

> <Gold.Chemscore.Hbond>
1.8217

> <Gold.Chemscore.Metal>
0.0000

> <Gold.Chemscore.Lipo>
73.8448

> <Gold.Chemscore.Internal_Hbond>
0.0000

> <Gold.Chemscore.DEClash>
0.1456

> <Gold.Chemscore.DEInternal>
1.3170

> <Gold.Chemscore.Rot>
1.8084

> <Gold.Chemscore.Internal.Correction>
   9.000000E+99

> <Gold.Chemscore.Hbonds>
donor molecule, donor type, donor heavy atom, donor atom, acceptor molecule, acceptor atom, score
      P1  H  7989  7998       L1     4  0.12
      P1  H  7997  8009       L1     8  1.00

> <Gold.Chemscore.Hbond.Weighted>
-6.0844

> <Gold.Chemscore.Metal.Weighted>
-0.0000

> <Gold.Chemscore.Lipo.Weighted>
-8.6398

> <Gold.Chemscore.Internal_Hbond.Weighted>
0.0000

> <Gold.Chemscore.DEClash.Weighted>
0.1456

> <Gold.Chemscore.DEInternal.Weighted>
1.3170

> <Gold.Chemscore.Rot.Weighted>
4.6296

> <Gold.Chemscore.Internal.Correction.Weighted>
   9.000000E+99

> <Gold.Protein.RotatedTorsions>
[ 6907 6896 6895 6894 ] final -148.13 input  -60.11 | X-H torsion
[ 7974 7965 7964 7962 ] final   -0.92 input  175.53 | X-H torsion
[ 8008 7997 7996 7995 ] final -163.58 input   59.86 | X-H torsion
[ 10167 10162 10161 10158 ] final  171.40 input  -65.29 | X-H torsion
[ 10718 10713 10712 10709 ] final -134.13 input   66.30 | X-H torsion
[ 10763 10752 10751 10750 ] final -104.99 input  -60.55 | X-H torsion
[ 11005 11000 10999 10996 ] final  -28.70 input  -57.11 | X-H torsion

> <Gold.Protein.ActiveResidues>
 VAL166  LYS551  ARG553  GLY616  TRP617  ASP618  TYR619  PRO620  LYS621  CYS622 
 ASP623  PHE694  ASN695  SER759  ASP760  ASP761  ALA762  ILE779  LEU786  VAL792 
 PHE793  MET794  SER795  GLU796  ALA797  LYS798  CYS799  TRP800  GLU811  SER814 

> <Gold.Protein.RotatedAtoms>
  151.1654  133.4818  159.2593 H   0  0  0  0  0  0  0  0  0  0  0  0  # atno 6907 bound_to 6896
  151.1411  135.0179  159.8636 H   0  0  0  0  0  0  0  0  0  0  0  0  # atno 6908 bound_to 6896
  152.5462  134.1548  159.8586 H   0  0  0  0  0  0  0  0  0  0  0  0  # atno 6909 bound_to 6896
  146.2422  140.1342  142.8337 H   0  0  0  0  0  0  0  0  0  0  0  0  # atno 7974 bound_to 7965
  155.8234  140.0923  157.1836 H   0  0  0  0  0  0  0  0  0  0  0  0  # atno 8008 bound_to 7997
  154.3979  140.1432  156.3587 H   0  0  0  0  0  0  0  0  0  0  0  0  # atno 8009 bound_to 7997
  155.8243  140.3445  155.5535 H   0  0  0  0  0  0  0  0  0  0  0  0  # atno 8010 bound_to 7997
  139.5046  144.3490  151.9942 H   0  0  0  0  0  0  0  0  0  0  0  0  # atno 10167 bound_to 10162
  156.2522  130.7160  151.1063 H   0  0  0  0  0  0  0  0  0  0  0  0  # atno 10718 bound_to 10713
  154.7916  135.4766  154.0065 H   0  0  0  0  0  0  0  0  0  0  0  0  # atno 10763 bound_to 10752
  153.1639  135.6813  153.8710 H   0  0  0  0  0  0  0  0  0  0  0  0  # atno 10764 bound_to 10752
  153.8314  135.3191  155.3397 H   0  0  0  0  0  0  0  0  0  0  0  0  # atno 10765 bound_to 10752
  140.9231  133.7386  156.0830 H   0  0  0  0  0  0  0  0  0  0  0  0  # atno 11005 bound_to 11000
  145.0301  140.8864  143.5115 LP  0  0  0  0  0  0  0  0  0  0  0  0  # atno 17320 bound_to 7965
  145.1404  139.2575  143.5493 LP  0  0  0  0  0  0  0  0  0  0  0  0  # atno 17321 bound_to 7965
  140.2927  144.3736  150.6084 LP  0  0  0  0  0  0  0  0  0  0  0  0  # atno 17342 bound_to 10162
  140.5934  143.2167  151.7209 LP  0  0  0  0  0  0  0  0  0  0  0  0  # atno 17343 bound_to 10162
  157.7219  131.0676  150.6100 LP  0  0  0  0  0  0  0  0  0  0  0  0  # atno 17370 bound_to 10713
  156.6181  130.4398  149.5833 LP  0  0  0  0  0  0  0  0  0  0  0  0  # atno 17371 bound_to 10713
  140.7961  134.3562  157.5452 LP  0  0  0  0  0  0  0  0  0  0  0  0  # atno 17394 bound_to 11000
  139.8780  134.9170  156.3167 LP  0  0  0  0  0  0  0  0  0  0  0  0  # atno 17395 bound_to 11000

$$$$
