AV-unprocessed.smi:96|AV-procd|sdf|860|dock4
  -GOLD-   2262017303D 1   1.00000     0.00000
 Structure written by MMmdl.
 43 46  0  0  0  0  0  0  0  0  1 V2000
  151.1396  137.0809  156.4890 O   0  0  0  0  0  0  0  0  0  0  0  0
  151.1595  137.0720  155.2572 C   0  0  0  0  0  0  0  0  0  0  0  0
  151.5092  138.3473  154.4734 C   0  0  0  0  0  0  0  0  0  0  0  0
  150.8459  139.5619  154.9966 N   0  0  0  0  0  0  0  0  0  0  0  0
  149.6488  140.0062  154.3825 C   0  0  0  0  0  0  0  0  0  0  0  0
  149.1526  139.3960  153.4345 O   0  0  0  0  0  0  0  0  0  0  0  0
  149.0661  141.2201  154.9436 C   0  0  0  0  0  0  0  0  0  0  0  0
  147.9223  141.7067  154.4326 F   0  0  0  0  0  0  0  0  0  0  0  0
  149.6571  141.8651  155.9705 C   0  0  0  0  0  0  0  0  0  0  0  0
  150.8363  141.4297  156.5488 N   0  0  0  0  0  0  0  0  0  0  0  0
  151.4939  142.1704  157.6944 C   0  0  1  0  0  0  0  0  0  0  0  0
  151.8297  143.6168  157.2828 C   0  0  0  0  0  0  0  0  0  0  0  0
  151.2198  144.4344  158.4038 C   0  0  0  0  0  0  0  0  0  0  0  0
  150.0574  143.5543  158.8383 C   0  0  0  0  0  0  0  0  0  0  0  0
  150.6138  142.2475  158.7798 O   0  0  0  0  0  0  0  0  0  0  0  0
  151.4546  140.2543  156.0703 C   0  0  0  0  0  0  0  0  0  0  0  0
  152.5047  139.8481  156.5735 O   0  0  0  0  0  0  0  0  0  0  0  0
  150.8758  135.9961  154.5010 N   0  0  0  0  0  0  0  0  0  0  0  0
  150.5120  134.6919  154.9302 C   0  0  0  0  0  0  0  0  0  0  0  0
  149.6498  133.8405  154.1808 C   0  0  0  0  0  0  0  0  0  0  0  0
  149.3044  132.5568  154.6608 C   0  0  0  0  0  0  0  0  0  0  0  0
  149.8298  132.1562  155.8993 C   0  0  0  0  0  0  0  0  0  0  0  0
  150.6510  132.9822  156.6372 C   0  0  0  0  0  0  0  0  0  0  0  0
  151.0077  134.2629  156.1847 C   0  0  0  0  0  0  0  0  0  0  0  0
  151.0090  132.3572  157.7877 O   0  0  0  0  0  0  0  0  0  0  0  0
  150.3864  131.0991  157.7509 C   0  0  0  0  0  0  0  0  0  0  0  0
  149.6460  130.9865  156.5630 O   0  0  0  0  0  0  0  0  0  0  0  0
  152.5945  138.4576  154.4699 H   0  0  0  0  0  0  0  0  0  0  0  0
  151.2566  138.1967  153.4223 H   0  0  0  0  0  0  0  0  0  0  0  0
  149.1729  142.7558  156.3399 H   0  0  0  0  0  0  0  0  0  0  0  0
  152.3624  141.5713  157.9743 H   0  0  0  0  0  0  0  0  0  0  0  0
  152.9065  143.7562  157.1849 H   0  0  0  0  0  0  0  0  0  0  0  0
  151.3525  143.8603  156.3319 H   0  0  0  0  0  0  0  0  0  0  0  0
  151.9332  144.5422  159.2218 H   0  0  0  0  0  0  0  0  0  0  0  0
  150.9074  145.4296  158.0865 H   0  0  0  0  0  0  0  0  0  0  0  0
  149.6970  143.7930  159.8390 H   0  0  0  0  0  0  0  0  0  0  0  0
  149.2231  143.6414  158.1407 H   0  0  0  0  0  0  0  0  0  0  0  0
  150.8354  136.1533  153.5045 H   0  0  0  0  0  0  0  0  0  0  0  0
  149.2318  134.1613  153.2388 H   0  0  0  0  0  0  0  0  0  0  0  0
  148.6533  131.9067  154.0954 H   0  0  0  0  0  0  0  0  0  0  0  0
  151.6512  134.8950  156.7793 H   0  0  0  0  0  0  0  0  0  0  0  0
  151.1438  130.3152  157.7850 H   0  0  0  0  0  0  0  0  0  0  0  0
  149.7205  130.9960  158.6082 H   0  0  0  0  0  0  0  0  0  0  0  0
  1  2  2  0  0  0  0
  2  3  1  0  0  0  0
  2 18  1  0  0  0  0
  3  4  1  0  0  0  0
  3 28  1  0  0  0  0
  3 29  1  0  0  0  0
  4 16  1  0  0  0  0
  4  5  1  0  0  0  0
  5  6  2  0  0  0  0
  5  7  1  0  0  0  0
  7  8  1  0  0  0  0
  7  9  2  0  0  0  0
  9 10  1  0  0  0  0
  9 30  1  0  0  0  0
 10 11  1  0  0  0  0
 10 16  1  0  0  0  0
 11 15  1  0  0  0  0
 11 12  1  0  0  0  0
 11 31  1  0  0  0  0
 12 13  1  0  0  0  0
 12 32  1  0  0  0  0
 12 33  1  0  0  0  0
 13 14  1  0  0  0  0
 13 34  1  0  0  0  0
 13 35  1  0  0  0  0
 14 15  1  0  0  0  0
 14 36  1  0  0  0  0
 14 37  1  0  0  0  0
 16 17  2  0  0  0  0
 18 19  1  0  0  0  0
 18 38  1  0  0  0  0
 19 24  1  0  0  0  0
 19 20  2  0  0  0  0
 20 21  1  0  0  0  0
 20 39  1  0  0  0  0
 21 22  2  0  0  0  0
 21 40  1  0  0  0  0
 22 27  1  0  0  0  0
 22 23  1  0  0  0  0
 23 24  2  0  0  0  0
 23 25  1  0  0  0  0
 24 41  1  0  0  0  0
 25 26  1  0  0  0  0
 26 27  1  0  0  0  0
 26 42  1  0  0  0  0
 26 43  1  0  0  0  0
M  END
> <s_m_source_file>
AV-unprocessed.smi

> <i_m_source_file_index>
96

> <i_lp_mmshare_version>
43012

> <i_f3d_flags>
0

> <s_epik_input>
TzFbQ0gyXU9jKGMxMilbY0hdYyhbY0hdW2NIXTIpW05IXUMoPU8pW0NIMl1uM2MoPU8pYyhGKVtjSF1uKGMzPU8pW0NAQEhdNFtDSDJdW0NIMl1bQ0gyXU80

> <s_epik_cmdline>
J2VwaWtfcHl0aG9uJywgJy1waCcsICc3LjAnLCAnLXRuJywgJzgnLCAnLW1hJywgJzIwMCcsICctbWV0YWxfYmluZGluZycsICctaW1hZScsICc8aW5maWxlLm1hZT4nLCAnLW9tYWUnLCAnPG91dGZpbGUubWFlPic=

> <r_lp_tautomer_probability>
1

> <r_epik_Ionization_Penalty>
1.04778e-05

> <r_epik_Ionization_Penalty_Charging>
3.88729e-08

> <r_epik_Ionization_Penalty_Neutral>
1.04389e-05

> <r_epik_State_Penalty>
-0

> <r_epik_Charging_Adjusted_Penalty>
3.88729e-08

> <i_epik_Tot_Q>
0

> <i_epik_Tot_abs_Q>
0

> <r_epik_Metal_State_Penalty>
-0

> <b_epik_Metal_Only>
0

> <s_epik_Chemistry_Notes>
This compound contains an acetal/aminal-like group ( X-CH(R)-Y where X, Y are N, S, or O) that may be acid/base labile, releasing an aldehyde.

> <s_lp_Force_Field>
OPLS_2005

> <r_lp_Energy>
46.4939

> <b_lp_Chiralities_Consistent>
1

> <s_lp_Variant>
AV-unprocessed.smi:96-2

> <Gold.Version>
5.8.1

> <Gold.Id.Protein>
6NUR|6NUR_protein|mol2

> <Gold.PLP.Fitness>
53.9192

> <Gold.PLP.PLP>
-44.5442

> <Gold.PLP.part.hbond>
-3.7533

> <Gold.PLP.part.metal>
0.0000

> <Gold.PLP.part.buried>
-3.9100

> <Gold.PLP.part.nonpolar>
-40.5634

> <Gold.PLP.part.repulsive>
4.7660

> <Gold.PLP.ligand.clash>
0.0000

> <Gold.PLP.ligand.torsion>
0.7314

> <Gold.PLP.Chemscore.Hbond>
2.6000

> <Gold.PLP.Chemscore.CHOScore>
1.0000

> <Gold.PLP.Chemscore.Metal>
0.0000

> <Gold.Chemscore.Hbonds>
donor molecule, donor type, donor heavy atom, donor atom, acceptor molecule, acceptor atom, score
      L1  H    18    38       P1  7949  0.68
      P1  H  6896  6909       L1    25  1.00
      P1  H  7997  8009       L1    17  1.00
      L1  C     9    30       P1  8028  1.00

> <Gold.PLP.Chemscore.Internal.Correction>
0.0379

> <Gold.Rescore>
     Score         DG    S(hbond)    S(metal)    S(lipo)     H(rot)  DE(clash)    DE(int)     intcor
     13.95     -16.59       1.94        0.00      80.20       1.85       0.47       2.18       ----

> <Gold.Chemscore.Fitness>
13.9453

> <Gold.Chemscore.DG>
-16.5943

> <Gold.Chemscore.ZeroCoef>
-5.4800

> <Gold.Chemscore.Hbond>
1.9359

> <Gold.Chemscore.Metal>
0.0000

> <Gold.Chemscore.Lipo>
80.2026

> <Gold.Chemscore.Internal_Hbond>
0.0000

> <Gold.Chemscore.DEClash>
0.4690

> <Gold.Chemscore.DEInternal>
2.1799

> <Gold.Chemscore.Rot>
1.8497

> <Gold.Chemscore.Internal.Correction>
   9.000000E+99

> <Gold.Chemscore.Hbonds>
donor molecule, donor type, donor heavy atom, donor atom, acceptor molecule, acceptor atom, score
      L1  H    18    38       P1  7949  0.07
      P1  H  6896  6909       L1    25  0.96
      P1  H  7997  8009       L1    17  1.00

> <Gold.Chemscore.Hbond.Weighted>
-6.4659

> <Gold.Chemscore.Metal.Weighted>
-0.0000

> <Gold.Chemscore.Lipo.Weighted>
-9.3837

> <Gold.Chemscore.Internal_Hbond.Weighted>
0.0000

> <Gold.Chemscore.DEClash.Weighted>
0.4690

> <Gold.Chemscore.DEInternal.Weighted>
2.1799

> <Gold.Chemscore.Rot.Weighted>
4.7354

> <Gold.Chemscore.Internal.Correction.Weighted>
   9.000000E+99

> <Gold.Protein.RotatedTorsions>
[ 6907 6896 6895 6894 ] final  -56.61 input  -60.11 | X-H torsion
[ 7974 7965 7964 7962 ] final    5.16 input  175.53 | X-H torsion
[ 8008 7997 7996 7995 ] final -174.62 input   59.86 | X-H torsion
[ 10167 10162 10161 10158 ] final -117.88 input  -65.29 | X-H torsion
[ 10718 10713 10712 10709 ] final   71.32 input   66.30 | X-H torsion
[ 10763 10752 10751 10750 ] final  130.14 input  -60.55 | X-H torsion
[ 11005 11000 10999 10996 ] final  161.54 input  -57.11 | X-H torsion

> <Gold.Protein.ActiveResidues>
 VAL166  LYS551  ARG553  GLY616  TRP617  ASP618  TYR619  PRO620  LYS621  CYS622 
 ASP623  PHE694  ASN695  SER759  ASP760  ASP761  ALA762  ILE779  LEU786  VAL792 
 PHE793  MET794  SER795  GLU796  ALA797  LYS798  CYS799  TRP800  GLU811  SER814 

> <Gold.Protein.RotatedAtoms>
  150.8153  134.7331  159.6724 H   0  0  0  0  0  0  0  0  0  0  0  0  # atno 6907 bound_to 6896
  152.4272  134.5843  159.9966 H   0  0  0  0  0  0  0  0  0  0  0  0  # atno 6908 bound_to 6896
  151.6041  133.3316  159.3089 H   0  0  0  0  0  0  0  0  0  0  0  0  # atno 6909 bound_to 6896
  146.2441  140.0425  142.8381 H   0  0  0  0  0  0  0  0  0  0  0  0  # atno 7974 bound_to 7965
  155.9723  140.1165  157.0801 H   0  0  0  0  0  0  0  0  0  0  0  0  # atno 8008 bound_to 7997
  154.4160  140.1161  156.5391 H   0  0  0  0  0  0  0  0  0  0  0  0  # atno 8009 bound_to 7997
  155.6580  140.3473  155.4774 H   0  0  0  0  0  0  0  0  0  0  0  0  # atno 8010 bound_to 7997
  140.0636  143.4944  152.2018 H   0  0  0  0  0  0  0  0  0  0  0  0  # atno 10167 bound_to 10162
  157.6446  130.9522  150.0773 H   0  0  0  0  0  0  0  0  0  0  0  0  # atno 10718 bound_to 10713
  153.7533  135.3207  155.3325 H   0  0  0  0  0  0  0  0  0  0  0  0  # atno 10763 bound_to 10752
  154.8256  135.4572  154.0911 H   0  0  0  0  0  0  0  0  0  0  0  0  # atno 10764 bound_to 10752
  153.2120  135.6937  153.8186 H   0  0  0  0  0  0  0  0  0  0  0  0  # atno 10765 bound_to 10752
  140.2168  134.8226  157.3178 H   0  0  0  0  0  0  0  0  0  0  0  0  # atno 11005 bound_to 11000
  145.1056  140.9373  143.4687 LP  0  0  0  0  0  0  0  0  0  0  0  0  # atno 17320 bound_to 7965
  145.0628  139.3092  143.5872 LP  0  0  0  0  0  0  0  0  0  0  0  0  # atno 17321 bound_to 7965
  139.5879  144.7538  151.3475 LP  0  0  0  0  0  0  0  0  0  0  0  0  # atno 17342 bound_to 10162
  140.7160  143.7265  150.7656 LP  0  0  0  0  0  0  0  0  0  0  0  0  # atno 17343 bound_to 10162
  156.1760  130.3648  149.9100 LP  0  0  0  0  0  0  0  0  0  0  0  0  # atno 17370 bound_to 10713
  156.7064  130.8953  151.3605 LP  0  0  0  0  0  0  0  0  0  0  0  0  # atno 17371 bound_to 10713
  140.1892  134.4393  155.7726 LP  0  0  0  0  0  0  0  0  0  0  0  0  # atno 17394 bound_to 11000
  141.2224  133.7019  156.7999 LP  0  0  0  0  0  0  0  0  0  0  0  0  # atno 17395 bound_to 11000

$$$$
