AV-unprocessed.smi:993|AV-procd|sdf|4336|dock5
  -GOLD-   22720 2233D 1   1.00000     0.00000
 Structure written by MMmdl.
 31 32  0  0  0  0  0  0  0  0  2 V2000
  149.3642  141.3140  154.7581 C   0  0  0  0  0  0  0  0  0  0  0  0
  150.3504  141.2069  155.9082 C   0  0  0  0  0  0  0  0  0  0  0  0
  150.4257  142.3331  156.7060 N   0  0  0  0  0  0  0  0  0  0  0  0
  151.2915  142.3388  157.7928 C   0  0  0  0  0  0  0  0  0  0  0  0
  151.2899  143.5137  158.5424 N   0  0  0  0  0  0  0  0  0  0  0  0
  150.1183  144.3149  158.8801 C   0  0  0  0  0  0  0  0  0  0  0  0
  150.5764  145.3234  159.9342 C   0  0  0  0  0  0  0  0  0  0  0  0
  152.0572  145.5007  159.6254 C   0  0  0  0  0  0  0  0  0  0  0  0
  152.4774  144.1145  159.1372 C   0  0  0  0  0  0  0  0  0  0  0  0
  152.0539  141.3293  158.0977 N   0  0  0  0  0  0  0  0  0  0  0  0
  152.0252  140.1578  157.3254 C   0  0  0  0  0  0  0  0  0  0  0  0
  152.7487  139.2062  157.6162 O   0  0  0  0  0  0  0  0  0  0  0  0
  151.1076  140.1140  156.1669 C   0  0  0  0  0  0  0  0  0  0  0  0
  151.0520  138.8455  155.3139 C   0  0  0  0  0  0  0  0  0  0  0  0
  152.3872  138.4440  154.6760 C   0  0  0  0  0  0  0  0  0  0  0  0
  152.4105  137.3465  154.0776 O   0  0  0  0  0  0  0  0  0  0  0  0
  153.3598  139.2230  154.7908 O   0  5  0  0  0  0  0  0  0  0  0  0
  149.8331  143.1162  156.4738 H   0  0  0  0  0  0  0  0  0  0  0  0
  148.6040  140.5365  154.8351 H   0  0  0  0  0  0  0  0  0  0  0  0
  149.8784  141.2011  153.8036 H   0  0  0  0  0  0  0  0  0  0  0  0
  148.8558  142.2788  154.7521 H   0  0  0  0  0  0  0  0  0  0  0  0
  149.2994  143.6995  159.2547 H   0  0  0  0  0  0  0  0  0  0  0  0
  149.7739  144.8294  157.9822 H   0  0  0  0  0  0  0  0  0  0  0  0
  150.0159  146.2580  159.9007 H   0  0  0  0  0  0  0  0  0  0  0  0
  150.4591  144.8941  160.9299 H   0  0  0  0  0  0  0  0  0  0  0  0
  152.1806  146.2278  158.8217 H   0  0  0  0  0  0  0  0  0  0  0  0
  152.6366  145.8426  160.4834 H   0  0  0  0  0  0  0  0  0  0  0  0
  153.2999  144.1773  158.4235 H   0  0  0  0  0  0  0  0  0  0  0  0
  152.8024  143.4947  159.9741 H   0  0  0  0  0  0  0  0  0  0  0  0
  150.3039  138.9363  154.5261 H   0  0  0  0  0  0  0  0  0  0  0  0
  150.7101  138.0187  155.9365 H   0  0  0  0  0  0  0  0  0  0  0  0
  1 19  1  0  0  0  0
  1 20  1  0  0  0  0
  1 21  1  0  0  0  0
  1  2  1  0  0  0  0
  2 13  2  0  0  0  0
  2  3  1  0  0  0  0
  3 18  1  0  0  0  0
  3  4  1  0  0  0  0
  4  5  1  0  0  0  0
  4 10  2  0  0  0  0
  5  9  1  0  0  0  0
  5  6  1  0  0  0  0
  6  7  1  0  0  0  0
  6 22  1  0  0  0  0
  6 23  1  0  0  0  0
  7  8  1  0  0  0  0
  7 24  1  0  0  0  0
  7 25  1  0  0  0  0
  8  9  1  0  0  0  0
  8 26  1  0  0  0  0
  8 27  1  0  0  0  0
  9 28  1  0  0  0  0
  9 29  1  0  0  0  0
 10 11  1  0  0  0  0
 11 12  2  0  0  0  0
 11 13  1  0  0  0  0
 13 14  1  0  0  0  0
 14 15  1  0  0  0  0
 14 30  1  0  0  0  0
 14 31  1  0  0  0  0
 15 16  2  0  0  0  0
 15 17  1  0  0  0  0
M  CHG  1  17  -1
M  END
> <s_m_source_file>
AV-unprocessed.smi

> <i_m_source_file_index>
993

> <i_lp_mmshare_version>
43012

> <i_f3d_flags>
0

> <s_epik_input>
W0NIMl0xW0NIMl1bQ0gyXVtDSDJdTjFjKG5jMltDSDNdKVtuSF1jKD1PKWMyW0NIMl1DKD1PKVtPSF0=

> <s_epik_cmdline>
J2VwaWtfcHl0aG9uJywgJy1waCcsICc3LjAnLCAnLXRuJywgJzgnLCAnLW1hJywgJzIwMCcsICctbWV0YWxfYmluZGluZycsICctaW1hZScsICc8aW5maWxlLm1hZT4nLCAnLW9tYWUnLCAnPG91dGZpbGUubWFlPic=

> <r_lp_tautomer_probability>
0.108306

> <r_epik_Ionization_Penalty>
0.978387

> <r_epik_Ionization_Penalty_Charging>
0.00633795

> <r_epik_Ionization_Penalty_Neutral>
0.972049

> <r_epik_State_Penalty>
1.38976

> <r_epik_Charging_Adjusted_Penalty>
1.3961

> <i_epik_Tot_Q>
-1

> <i_epik_Tot_abs_Q>
1

> <r_epik_Metal_State_Penalty>
0.631271

> <b_epik_Metal_Only>
0

> <s_lp_Force_Field>
OPLS_2005

> <r_lp_Energy>
28.5052

> <b_lp_Chiralities_Consistent>
1

> <s_lp_Variant>
AV-unprocessed.smi:993-2

> <Gold.Version>
5.8.1

> <Gold.Id.Protein>
6NUR|6NUR_protein|mol2

> <Gold.PLP.Fitness>
53.0976

> <Gold.PLP.PLP>
-39.1095

> <Gold.PLP.part.hbond>
-4.8690

> <Gold.PLP.part.metal>
0.0000

> <Gold.PLP.part.buried>
-2.6194

> <Gold.PLP.part.nonpolar>
-31.3322

> <Gold.PLP.part.repulsive>
0.2268

> <Gold.PLP.ligand.clash>
0.0000

> <Gold.PLP.ligand.torsion>
0.6264

> <Gold.PLP.Chemscore.Hbond>
5.0800

> <Gold.PLP.Chemscore.CHOScore>
0.0000

> <Gold.PLP.Chemscore.Metal>
0.0000

> <Gold.Chemscore.Hbonds>
donor molecule, donor type, donor heavy atom, donor atom, acceptor molecule, acceptor atom, score
      L1  H     3    18       P1  8028  0.99
      P1  H  7997  8008       L1    17  1.66
      P1  H  7997  8010       L1    12  0.33
      P1  H 10752 10763       L1    16  1.47

> <Gold.PLP.Chemscore.Internal.Correction>
0.0009

> <Gold.Rescore>
     Score         DG    S(hbond)    S(metal)    S(lipo)     H(rot)  DE(clash)    DE(int)     intcor
     19.27     -20.08       3.03        0.00      71.15       1.51       0.31       0.50       ----

> <Gold.Chemscore.Fitness>
19.2704

> <Gold.Chemscore.DG>
-20.0818

> <Gold.Chemscore.ZeroCoef>
-5.4800

> <Gold.Chemscore.Hbond>
3.0349

> <Gold.Chemscore.Metal>
0.0000

> <Gold.Chemscore.Lipo>
71.1478

> <Gold.Chemscore.Internal_Hbond>
0.0000

> <Gold.Chemscore.DEClash>
0.3073

> <Gold.Chemscore.DEInternal>
0.5040

> <Gold.Chemscore.Rot>
1.5075

> <Gold.Chemscore.Internal.Correction>
   9.000000E+99

> <Gold.Chemscore.Hbonds>
donor molecule, donor type, donor heavy atom, donor atom, acceptor molecule, acceptor atom, score
      L1  H     3    18       P1  8028  0.93
      P1  H  7997  8008       L1    17  0.81
      P1  H  7997  8010       L1    12  0.12
      P1  H 10752 10763       L1    16  0.74

> <Gold.Chemscore.Hbond.Weighted>
-10.1367

> <Gold.Chemscore.Metal.Weighted>
-0.0000

> <Gold.Chemscore.Lipo.Weighted>
-8.3243

> <Gold.Chemscore.Internal_Hbond.Weighted>
0.0000

> <Gold.Chemscore.DEClash.Weighted>
0.3073

> <Gold.Chemscore.DEInternal.Weighted>
0.5040

> <Gold.Chemscore.Rot.Weighted>
3.8592

> <Gold.Chemscore.Internal.Correction.Weighted>
   9.000000E+99

> <Gold.Protein.RotatedTorsions>
[ 6907 6896 6895 6894 ] final    0.40 input  -60.11 | X-H torsion
[ 7974 7965 7964 7962 ] final   41.53 input  175.53 | X-H torsion
[ 8008 7997 7996 7995 ] final   16.93 input   59.86 | X-H torsion
[ 10167 10162 10161 10158 ] final -149.70 input  -65.29 | X-H torsion
[ 10718 10713 10712 10709 ] final  112.51 input   66.30 | X-H torsion
[ 10763 10752 10751 10750 ] final   19.20 input  -60.55 | X-H torsion
[ 11005 11000 10999 10996 ] final -115.05 input  -57.11 | X-H torsion

> <Gold.Protein.ActiveResidues>
 VAL166  LYS551  ARG553  GLY616  TRP617  ASP618  TYR619  PRO620  LYS621  CYS622 
 ASP623  PHE694  ASN695  SER759  ASP760  ASP761  ALA762  ILE779  LEU786  VAL792 
 PHE793  MET794  SER795  GLU796  ALA797  LYS798  CYS799  TRP800  GLU811  SER814 

> <Gold.Protein.RotatedAtoms>
  151.5758  135.1060  160.0005 H   0  0  0  0  0  0  0  0  0  0  0  0  # atno 6907 bound_to 6896
  152.4378  133.7389  159.6640 H   0  0  0  0  0  0  0  0  0  0  0  0  # atno 6908 bound_to 6896
  150.8279  133.8071  159.3134 H   0  0  0  0  0  0  0  0  0  0  0  0  # atno 6909 bound_to 6896
  146.0816  139.5405  142.9533 H   0  0  0  0  0  0  0  0  0  0  0  0  # atno 7974 bound_to 7965
  154.8840  140.2977  155.5408 H   0  0  0  0  0  0  0  0  0  0  0  0  # atno 8008 bound_to 7997
  156.3021  140.2437  156.3781 H   0  0  0  0  0  0  0  0  0  0  0  0  # atno 8009 bound_to 7997
  154.8687  140.0402  157.1700 H   0  0  0  0  0  0  0  0  0  0  0  0  # atno 8010 bound_to 7997
  139.7419  143.8649  152.2564 H   0  0  0  0  0  0  0  0  0  0  0  0  # atno 10167 bound_to 10162
  157.6389  131.0969  150.6905 H   0  0  0  0  0  0  0  0  0  0  0  0  # atno 10718 bound_to 10713
  153.1182  135.6713  153.9381 H   0  0  0  0  0  0  0  0  0  0  0  0  # atno 10763 bound_to 10752
  153.8904  135.3047  155.3448 H   0  0  0  0  0  0  0  0  0  0  0  0  # atno 10764 bound_to 10752
  154.7597  135.4994  153.9519 H   0  0  0  0  0  0  0  0  0  0  0  0  # atno 10765 bound_to 10752
  141.0512  133.9684  157.2832 H   0  0  0  0  0  0  0  0  0  0  0  0  # atno 11005 bound_to 11000
  145.6208  141.0323  143.1916 LP  0  0  0  0  0  0  0  0  0  0  0  0  # atno 17320 bound_to 7965
  144.7297  139.7765  143.7352 LP  0  0  0  0  0  0  0  0  0  0  0  0  # atno 17321 bound_to 7965
  139.8602  144.7121  150.9108 LP  0  0  0  0  0  0  0  0  0  0  0  0  # atno 17342 bound_to 10162
  140.7787  143.3824  151.1453 LP  0  0  0  0  0  0  0  0  0  0  0  0  # atno 17343 bound_to 10162
  156.7232  130.4687  149.5517 LP  0  0  0  0  0  0  0  0  0  0  0  0  # atno 17370 bound_to 10713
  156.1651  130.6400  151.0768 LP  0  0  0  0  0  0  0  0  0  0  0  0  # atno 17371 bound_to 10713
  139.9352  135.0197  156.8533 LP  0  0  0  0  0  0  0  0  0  0  0  0  # atno 17394 bound_to 11000
  140.6051  134.0135  155.7553 LP  0  0  0  0  0  0  0  0  0  0  0  0  # atno 17395 bound_to 11000

$$$$
