AV-unprocessed.smi:589|AV-procd|sdf|3005|dock10
  -GOLD-   2262023513D 1   1.00000     0.00000
 Structure written by MMmdl.
 40 41  0  0  0  0  0  0  0  0  1 V2000
  151.8952  145.1427  158.6111 C   0  0  0  0  0  0  0  0  0  0  0  0
  152.2097  143.6665  158.7327 C   0  0  0  0  0  0  0  0  0  0  0  0
  153.0461  143.1850  159.7553 C   0  0  0  0  0  0  0  0  0  0  0  0
  153.3034  141.8009  159.8300 C   0  0  0  0  0  0  0  0  0  0  0  0
  154.1758  141.2914  160.9681 C   0  0  0  0  0  0  0  0  0  0  0  0
  152.7193  140.9405  158.8568 C   0  0  0  0  0  0  0  0  0  0  0  0
  152.9476  139.4494  158.8843 C   0  0  0  0  0  0  0  0  0  0  0  0
  151.8558  138.6921  159.0225 N   0  0  0  0  0  0  0  0  0  0  0  0
  154.0790  138.9721  158.8170 O   0  0  0  0  0  0  0  0  0  0  0  0
  151.8767  141.5318  157.8708 C   0  0  0  0  0  0  0  0  0  0  0  0
  151.2630  140.7492  156.8768 N   0  0  0  0  0  0  0  0  0  0  0  0
  152.2008  140.0031  156.0496 C   0  0  0  0  0  0  0  0  0  0  0  0
  151.4320  139.0457  155.1188 C   0  0  2  0  0  0  0  0  0  0  0  0
  152.3639  138.3125  154.1485 C   0  0  0  0  0  0  0  0  0  0  0  0
  150.4886  139.7937  154.3538 O   0  0  0  0  0  0  0  0  0  0  0  0
  149.5271  140.4636  155.1674 C   0  0  2  0  0  0  0  0  0  0  0  0
  148.5238  141.1679  154.2488 C   0  0  0  0  0  0  0  0  0  0  0  0
  150.2574  141.4538  156.0931 C   0  0  0  0  0  0  0  0  0  0  0  0
  151.6377  142.8639  157.8150 N   0  0  0  0  0  0  0  0  0  0  0  0
  152.3647  145.7153  159.4115 H   0  0  0  0  0  0  0  0  0  0  0  0
  150.8185  145.3063  158.6635 H   0  0  0  0  0  0  0  0  0  0  0  0
  152.2561  145.5301  157.6580 H   0  0  0  0  0  0  0  0  0  0  0  0
  153.4750  143.8654  160.4763 H   0  0  0  0  0  0  0  0  0  0  0  0
  153.7251  140.4231  161.4496 H   0  0  0  0  0  0  0  0  0  0  0  0
  154.3086  142.0565  161.7336 H   0  0  0  0  0  0  0  0  0  0  0  0
  155.1634  141.0154  160.5987 H   0  0  0  0  0  0  0  0  0  0  0  0
  151.9398  137.6864  159.0433 H   0  0  0  0  0  0  0  0  0  0  0  0
  150.9493  139.1301  159.1007 H   0  0  0  0  0  0  0  0  0  0  0  0
  152.8017  140.6979  155.4609 H   0  0  0  0  0  0  0  0  0  0  0  0
  152.8859  139.4407  156.6855 H   0  0  0  0  0  0  0  0  0  0  0  0
  150.8986  138.3040  155.7161 H   0  0  0  0  0  0  0  0  0  0  0  0
  153.1011  137.7169  154.6872 H   0  0  0  0  0  0  0  0  0  0  0  0
  152.9012  139.0151  153.5111 H   0  0  0  0  0  0  0  0  0  0  0  0
  151.8010  137.6393  153.5015 H   0  0  0  0  0  0  0  0  0  0  0  0
  148.9912  139.7264  155.7684 H   0  0  0  0  0  0  0  0  0  0  0  0
  147.7621  141.6902  154.8283 H   0  0  0  0  0  0  0  0  0  0  0  0
  148.0166  140.4510  153.6027 H   0  0  0  0  0  0  0  0  0  0  0  0
  149.0197  141.8998  153.6106 H   0  0  0  0  0  0  0  0  0  0  0  0
  149.5458  141.9396  156.7620 H   0  0  0  0  0  0  0  0  0  0  0  0
  150.7333  142.2366  155.5007 H   0  0  0  0  0  0  0  0  0  0  0  0
  1  2  1  0  0  0  0
  1 20  1  0  0  0  0
  1 21  1  0  0  0  0
  1 22  1  0  0  0  0
  2 19  1  0  0  0  0
  2  3  2  0  0  0  0
  3  4  1  0  0  0  0
  3 23  1  0  0  0  0
  4  5  1  0  0  0  0
  4  6  2  0  0  0  0
  5 24  1  0  0  0  0
  5 25  1  0  0  0  0
  5 26  1  0  0  0  0
  6  7  1  0  0  0  0
  6 10  1  0  0  0  0
  7  8  1  0  0  0  0
  7  9  2  0  0  0  0
  8 27  1  0  0  0  0
  8 28  1  0  0  0  0
 10 11  1  0  0  0  0
 10 19  2  0  0  0  0
 11 18  1  0  0  0  0
 11 12  1  0  0  0  0
 12 13  1  0  0  0  0
 12 29  1  0  0  0  0
 12 30  1  0  0  0  0
 13 14  1  0  0  0  0
 13 15  1  0  0  0  0
 13 31  1  0  0  0  0
 14 32  1  0  0  0  0
 14 33  1  0  0  0  0
 14 34  1  0  0  0  0
 15 16  1  0  0  0  0
 16 17  1  0  0  0  0
 16 18  1  0  0  0  0
 16 35  1  0  0  0  0
 17 36  1  0  0  0  0
 17 37  1  0  0  0  0
 17 38  1  0  0  0  0
 18 39  1  0  0  0  0
 18 40  1  0  0  0  0
M  END
> <s_m_source_file>
AV-unprocessed.smi

> <i_m_source_file_index>
589

> <i_lp_mmshare_version>
43012

> <i_f3d_flags>
0

> <s_epik_input>
W0NIM11jMVtjSF1jKFtDSDNdKWMoQyg9TylbTkgyXSljKG4xKU4yW0NIMl1bQ0BASF0oW0NIM10pT1tDQEBIXShbQ0gzXSlbQ0gyXTI=

> <s_epik_cmdline>
J2VwaWtfcHl0aG9uJywgJy1waCcsICc3LjAnLCAnLXRuJywgJzgnLCAnLW1hJywgJzIwMCcsICctbWV0YWxfYmluZGluZycsICctaW1hZScsICc8aW5maWxlLm1hZT4nLCAnLW9tYWUnLCAnPG91dGZpbGUubWFlPic=

> <r_lp_tautomer_probability>
1

> <r_epik_Ionization_Penalty>
0.000626871

> <r_epik_Ionization_Penalty_Charging>
0

> <r_epik_Ionization_Penalty_Neutral>
0.000626871

> <r_epik_State_Penalty>
0.000395665

> <r_epik_Charging_Adjusted_Penalty>
0.000395665

> <i_epik_Tot_Q>
0

> <i_epik_Tot_abs_Q>
0

> <r_epik_Metal_State_Penalty>
-0

> <b_epik_Metal_Only>
0

> <s_lp_Force_Field>
OPLS_2005

> <r_lp_Energy>
24.7039

> <b_lp_Chiralities_Consistent>
1

> <s_lp_Variant>
AV-unprocessed.smi:589-1

> <Gold.Version>
5.8.1

> <Gold.Id.Protein>
6NUR|6NUR_protein|mol2

> <Gold.PLP.Fitness>
44.8247

> <Gold.PLP.PLP>
-41.6072

> <Gold.PLP.part.hbond>
-1.9788

> <Gold.PLP.part.metal>
0.0000

> <Gold.PLP.part.buried>
-5.0292

> <Gold.PLP.part.nonpolar>
-33.9128

> <Gold.PLP.part.repulsive>
0.2995

> <Gold.PLP.ligand.clash>
0.5557

> <Gold.PLP.ligand.torsion>
1.2055

> <Gold.PLP.Chemscore.Hbond>
1.9500

> <Gold.PLP.Chemscore.CHOScore>
0.0000

> <Gold.PLP.Chemscore.Metal>
0.0000

> <Gold.Chemscore.Hbonds>
donor molecule, donor type, donor heavy atom, donor atom, acceptor molecule, acceptor atom, score
      P1  H  7989  7998       L1    15  0.95
      P1  H  7997  8008       L1     9  0.96

> <Gold.PLP.Chemscore.Internal.Correction>
0.3340

> <Gold.Rescore>
     Score         DG    S(hbond)    S(metal)    S(lipo)     H(rot)  DE(clash)    DE(int)     intcor
     17.06     -20.47       1.34        0.00     111.63       1.00       0.12       3.29       ----

> <Gold.Chemscore.Fitness>
17.0641

> <Gold.Chemscore.DG>
-20.4711

> <Gold.Chemscore.ZeroCoef>
-5.4800

> <Gold.Chemscore.Hbond>
1.3443

> <Gold.Chemscore.Metal>
0.0000

> <Gold.Chemscore.Lipo>
111.6343

> <Gold.Chemscore.Internal_Hbond>
0.0000

> <Gold.Chemscore.DEClash>
0.1195

> <Gold.Chemscore.DEInternal>
3.2875

> <Gold.Chemscore.Rot>
1.0000

> <Gold.Chemscore.Internal.Correction>
   9.000000E+99

> <Gold.Chemscore.Hbonds>
donor molecule, donor type, donor heavy atom, donor atom, acceptor molecule, acceptor atom, score
      P1  H  7989  7998       L1    15  0.20
      P1  H  7997  8008       L1     9  0.36

> <Gold.Chemscore.Hbond.Weighted>
-4.4899

> <Gold.Chemscore.Metal.Weighted>
-0.0000

> <Gold.Chemscore.Lipo.Weighted>
-13.0612

> <Gold.Chemscore.Internal_Hbond.Weighted>
0.0000

> <Gold.Chemscore.DEClash.Weighted>
0.1195

> <Gold.Chemscore.DEInternal.Weighted>
3.2875

> <Gold.Chemscore.Rot.Weighted>
2.5600

> <Gold.Chemscore.Internal.Correction.Weighted>
   9.000000E+99

> <Gold.Protein.RotatedTorsions>
[ 6907 6896 6895 6894 ] final -130.94 input  -60.11 | X-H torsion
[ 7974 7965 7964 7962 ] final   -2.58 input  175.53 | X-H torsion
[ 8008 7997 7996 7995 ] final -109.60 input   59.86 | X-H torsion
[ 10167 10162 10161 10158 ] final  142.81 input  -65.29 | X-H torsion
[ 10718 10713 10712 10709 ] final   77.83 input   66.30 | X-H torsion
[ 10763 10752 10751 10750 ] final   86.80 input  -60.55 | X-H torsion
[ 11005 11000 10999 10996 ] final  113.42 input  -57.11 | X-H torsion

> <Gold.Protein.ActiveResidues>
 VAL166  LYS551  ARG553  GLY616  TRP617  ASP618  TYR619  PRO620  LYS621  CYS622 
 ASP623  PHE694  ASN695  SER759  ASP760  ASP761  ALA762  ILE779  LEU786  VAL792 
 PHE793  MET794  SER795  GLU796  ALA797  LYS798  CYS799  TRP800  GLU811  SER814 

> <Gold.Protein.RotatedAtoms>
  150.9453  133.6610  159.2782 H   0  0  0  0  0  0  0  0  0  0  0  0  # atno 6907 bound_to 6896
  151.3984  135.0966  159.9558 H   0  0  0  0  0  0  0  0  0  0  0  0  # atno 6908 bound_to 6896
  152.5087  133.8953  159.7469 H   0  0  0  0  0  0  0  0  0  0  0  0  # atno 6909 bound_to 6896
  146.2402  140.1592  142.8333 H   0  0  0  0  0  0  0  0  0  0  0  0  # atno 7974 bound_to 7965
  154.9619  140.0399  157.2194 H   0  0  0  0  0  0  0  0  0  0  0  0  # atno 8008 bound_to 7997
  154.7881  140.2830  155.5990 H   0  0  0  0  0  0  0  0  0  0  0  0  # atno 8009 bound_to 7997
  156.2946  140.2578  156.2723 H   0  0  0  0  0  0  0  0  0  0  0  0  # atno 8010 bound_to 7997
  139.4985  144.6082  151.6330 H   0  0  0  0  0  0  0  0  0  0  0  0  # atno 10167 bound_to 10162
  157.6724  130.9840  150.1698 H   0  0  0  0  0  0  0  0  0  0  0  0  # atno 10718 bound_to 10713
  153.1606  135.4567  154.9766 H   0  0  0  0  0  0  0  0  0  0  0  0  # atno 10763 bound_to 10752
  154.7894  135.3215  154.7814 H   0  0  0  0  0  0  0  0  0  0  0  0  # atno 10764 bound_to 10752
  153.8304  135.6939  153.4870 H   0  0  0  0  0  0  0  0  0  0  0  0  # atno 10765 bound_to 10752
  139.8952  134.9549  156.6736 H   0  0  0  0  0  0  0  0  0  0  0  0  # atno 11005 bound_to 11000
  145.0104  140.8709  143.5228 LP  0  0  0  0  0  0  0  0  0  0  0  0  # atno 17320 bound_to 7965
  145.1624  139.2450  143.5384 LP  0  0  0  0  0  0  0  0  0  0  0  0  # atno 17321 bound_to 7965
  140.5750  144.0044  150.6237 LP  0  0  0  0  0  0  0  0  0  0  0  0  # atno 17342 bound_to 10162
  140.3174  143.3159  152.0818 LP  0  0  0  0  0  0  0  0  0  0  0  0  # atno 17343 bound_to 10162
  156.2455  130.3695  149.8290 LP  0  0  0  0  0  0  0  0  0  0  0  0  # atno 17370 bound_to 10713
  156.6078  130.8574  151.3447 LP  0  0  0  0  0  0  0  0  0  0  0  0  # atno 17371 bound_to 10713
  140.7354  133.9023  155.8240 LP  0  0  0  0  0  0  0  0  0  0  0  0  # atno 17394 bound_to 11000
  141.0120  134.1007  157.4211 LP  0  0  0  0  0  0  0  0  0  0  0  0  # atno 17395 bound_to 11000

$$$$
