AV-unprocessed.smi:2015|AV-procd|sdf|8165|dock2
  -GOLD-   2272010413D 1   1.00000     0.00000
 Structure written by MMmdl.
 47 48  0  0  0  0  0  0  0  0  1 V2000
  144.5390  134.8084  150.5120 C   0  0  0  0  0  0  0  0  0  0  0  0
  144.9200  135.5896  151.6306 O   0  0  0  0  0  0  0  0  0  0  0  0
  145.5962  136.7794  151.2587 C   0  0  0  0  0  0  0  0  0  0  0  0
  146.0446  137.5260  152.5215 C   0  0  0  0  0  0  0  0  0  0  0  0
  146.8676  138.7882  152.2034 C   0  0  0  0  0  0  0  0  0  0  0  0
  147.3191  139.5393  153.4596 C   0  0  0  0  0  0  0  0  0  0  0  0
  146.4784  139.9729  154.2464 O   0  0  0  0  0  0  0  0  0  0  0  0
  148.6495  139.6924  153.5948 N   0  0  0  0  0  0  0  0  0  0  0  0
  149.3839  140.3243  154.6360 C   0  0  0  0  0  0  0  0  0  0  0  0
  150.7146  140.0063  154.9956 C   0  0  0  0  0  0  0  0  0  0  0  0
  151.3300  140.7235  156.0395 C   0  0  0  0  0  0  0  0  0  0  0  0
  150.6092  141.7481  156.6969 C   0  0  0  0  0  0  0  0  0  0  0  0
  151.2088  142.4796  157.7450 N   0  0  0  0  0  0  0  0  0  0  0  0
  152.0920  141.7215  158.6256 C   0  0  0  0  0  0  0  0  0  0  0  0
  152.3739  142.5147  159.9145 C   0  0  1  0  0  0  0  0  0  0  0  0
  153.4024  141.8105  160.8060 C   0  0  0  0  0  0  0  0  0  0  0  0
  152.8883  143.8034  159.5814 O   0  0  0  0  0  0  0  0  0  0  0  0
  152.0363  144.5895  158.7451 C   0  0  2  0  0  0  0  0  0  0  0  0
  150.7896  145.0932  159.4939 C   0  0  0  0  0  0  0  0  0  0  0  0
  151.7060  143.8219  157.4498 C   0  0  0  0  0  0  0  0  0  0  0  0
  149.3353  142.0522  156.3473 N   0  0  0  0  0  0  0  0  0  0  0  0
  148.7496  141.3630  155.3463 C   0  0  0  0  0  0  0  0  0  0  0  0
  144.0382  133.9019  150.8520 H   0  0  0  0  0  0  0  0  0  0  0  0
  145.4074  134.5123  149.9219 H   0  0  0  0  0  0  0  0  0  0  0  0
  143.8475  135.3540  149.8689 H   0  0  0  0  0  0  0  0  0  0  0  0
  146.4669  136.5305  150.6500 H   0  0  0  0  0  0  0  0  0  0  0  0
  144.9468  137.4154  150.6548 H   0  0  0  0  0  0  0  0  0  0  0  0
  145.1663  137.7843  153.1148 H   0  0  0  0  0  0  0  0  0  0  0  0
  146.6425  136.8508  153.1352 H   0  0  0  0  0  0  0  0  0  0  0  0
  147.7409  138.5124  151.6104 H   0  0  0  0  0  0  0  0  0  0  0  0
  146.2799  139.4729  151.5912 H   0  0  0  0  0  0  0  0  0  0  0  0
  149.2084  139.3386  152.8318 H   0  0  0  0  0  0  0  0  0  0  0  0
  151.2821  139.2387  154.4942 H   0  0  0  0  0  0  0  0  0  0  0  0
  152.3396  140.4723  156.3286 H   0  0  0  0  0  0  0  0  0  0  0  0
  151.6677  140.7538  158.8891 H   0  0  0  0  0  0  0  0  0  0  0  0
  153.0244  141.5225  158.0957 H   0  0  0  0  0  0  0  0  0  0  0  0
  151.4519  142.6228  160.4862 H   0  0  0  0  0  0  0  0  0  0  0  0
  153.0517  140.8222  161.1040 H   0  0  0  0  0  0  0  0  0  0  0  0
  153.5885  142.3847  161.7138 H   0  0  0  0  0  0  0  0  0  0  0  0
  154.3546  141.6869  160.2892 H   0  0  0  0  0  0  0  0  0  0  0  0
  152.6135  145.4720  158.4679 H   0  0  0  0  0  0  0  0  0  0  0  0
  150.2309  145.7996  158.8799 H   0  0  0  0  0  0  0  0  0  0  0  0
  151.0698  145.6064  160.4140 H   0  0  0  0  0  0  0  0  0  0  0  0
  150.1080  144.2841  159.7550 H   0  0  0  0  0  0  0  0  0  0  0  0
  152.6045  143.7344  156.8373 H   0  0  0  0  0  0  0  0  0  0  0  0
  150.9739  144.3841  156.8686 H   0  0  0  0  0  0  0  0  0  0  0  0
  147.7365  141.6518  155.1069 H   0  0  0  0  0  0  0  0  0  0  0  0
  1  2  1  0  0  0  0
  1 23  1  0  0  0  0
  1 24  1  0  0  0  0
  1 25  1  0  0  0  0
  2  3  1  0  0  0  0
  3  4  1  0  0  0  0
  3 26  1  0  0  0  0
  3 27  1  0  0  0  0
  4  5  1  0  0  0  0
  4 28  1  0  0  0  0
  4 29  1  0  0  0  0
  5  6  1  0  0  0  0
  5 30  1  0  0  0  0
  5 31  1  0  0  0  0
  6  7  2  0  0  0  0
  6  8  1  0  0  0  0
  8  9  1  0  0  0  0
  8 32  1  0  0  0  0
  9 22  1  0  0  0  0
  9 10  2  0  0  0  0
 10 11  1  0  0  0  0
 10 33  1  0  0  0  0
 11 12  2  0  0  0  0
 11 34  1  0  0  0  0
 12 13  1  0  0  0  0
 12 21  1  0  0  0  0
 13 20  1  0  0  0  0
 13 14  1  0  0  0  0
 14 15  1  0  0  0  0
 14 35  1  0  0  0  0
 14 36  1  0  0  0  0
 15 16  1  0  0  0  0
 15 17  1  0  0  0  0
 15 37  1  0  0  0  0
 16 38  1  0  0  0  0
 16 39  1  0  0  0  0
 16 40  1  0  0  0  0
 17 18  1  0  0  0  0
 18 19  1  0  0  0  0
 18 20  1  0  0  0  0
 18 41  1  0  0  0  0
 19 42  1  0  0  0  0
 19 43  1  0  0  0  0
 19 44  1  0  0  0  0
 20 45  1  0  0  0  0
 20 46  1  0  0  0  0
 21 22  2  0  0  0  0
 22 47  1  0  0  0  0
M  END
> <s_m_source_file>
AV-unprocessed.smi

> <i_m_source_file_index>
2015

> <i_lp_mmshare_version>
43012

> <i_f3d_flags>
0

> <s_epik_input>
W0NIM11PW0NIMl1bQ0gyXVtDSDJdQyg9TylbTkhdYzFbY0hdW2NIXWMobltjSF0xKU4yW0NIMl1bQ0BASF0oW0NIM10pT1tDQEBIXShbQ0gzXSlbQ0gyXTI=

> <s_epik_cmdline>
J2VwaWtfcHl0aG9uJywgJy1waCcsICc3LjAnLCAnLXRuJywgJzgnLCAnLW1hJywgJzIwMCcsICctbWV0YWxfYmluZGluZycsICctaW1hZScsICc8aW5maWxlLm1hZT4nLCAnLW9tYWUnLCAnPG91dGZpbGUubWFlPic=

> <r_lp_tautomer_probability>
1

> <r_epik_Ionization_Penalty>
0.000816358

> <r_epik_Ionization_Penalty_Charging>
0

> <r_epik_Ionization_Penalty_Neutral>
0.000816358

> <r_epik_State_Penalty>
0.000521115

> <r_epik_Charging_Adjusted_Penalty>
0.000521115

> <i_epik_Tot_Q>
0

> <i_epik_Tot_abs_Q>
0

> <r_epik_Metal_State_Penalty>
-0

> <b_epik_Metal_Only>
0

> <s_lp_Force_Field>
OPLS_2005

> <r_lp_Energy>
24.6812

> <b_lp_Chiralities_Consistent>
1

> <s_lp_Variant>
AV-unprocessed.smi:2015-3

> <Gold.Version>
5.8.1

> <Gold.Id.Protein>
6NUR|6NUR_protein|mol2

> <Gold.PLP.Fitness>
47.3394

> <Gold.PLP.PLP>
-46.0376

> <Gold.PLP.part.hbond>
-1.0000

> <Gold.PLP.part.metal>
0.0000

> <Gold.PLP.part.buried>
-2.0548

> <Gold.PLP.part.nonpolar>
-45.5985

> <Gold.PLP.part.repulsive>
2.5346

> <Gold.PLP.ligand.clash>
0.0000

> <Gold.PLP.ligand.torsion>
0.7383

> <Gold.PLP.Chemscore.Hbond>
0.8000

> <Gold.PLP.Chemscore.CHOScore>
0.0000

> <Gold.PLP.Chemscore.Metal>
0.0000

> <Gold.Chemscore.Hbonds>
donor molecule, donor type, donor heavy atom, donor atom, acceptor molecule, acceptor atom, score
      L1  H     8    32       P1  7957  0.66

> <Gold.PLP.Chemscore.Internal.Correction>
0.3783

> <Gold.Rescore>
     Score         DG    S(hbond)    S(metal)    S(lipo)     H(rot)  DE(clash)    DE(int)     intcor
     14.48     -16.82       0.65        0.00     115.28       1.68       0.30       2.03       ----

> <Gold.Chemscore.Fitness>
14.4833

> <Gold.Chemscore.DG>
-16.8184

> <Gold.Chemscore.ZeroCoef>
-5.4800

> <Gold.Chemscore.Hbond>
0.6462

> <Gold.Chemscore.Metal>
0.0000

> <Gold.Chemscore.Lipo>
115.2802

> <Gold.Chemscore.Internal_Hbond>
0.0000

> <Gold.Chemscore.DEClash>
0.3040

> <Gold.Chemscore.DEInternal>
2.0311

> <Gold.Chemscore.Rot>
1.6827

> <Gold.Chemscore.Internal.Correction>
   9.000000E+99

> <Gold.Chemscore.Hbonds>
donor molecule, donor type, donor heavy atom, donor atom, acceptor molecule, acceptor atom, score
      L1  H     8    32       P1  7957  0.64

> <Gold.Chemscore.Hbond.Weighted>
-2.1585

> <Gold.Chemscore.Metal.Weighted>
-0.0000

> <Gold.Chemscore.Lipo.Weighted>
-13.4878

> <Gold.Chemscore.Internal_Hbond.Weighted>
0.0000

> <Gold.Chemscore.DEClash.Weighted>
0.3040

> <Gold.Chemscore.DEInternal.Weighted>
2.0311

> <Gold.Chemscore.Rot.Weighted>
4.3078

> <Gold.Chemscore.Internal.Correction.Weighted>
   9.000000E+99

> <Gold.Protein.RotatedTorsions>
[ 6907 6896 6895 6894 ] final -162.50 input  -60.11 | X-H torsion
[ 7974 7965 7964 7962 ] final -163.75 input  175.53 | X-H torsion
[ 8008 7997 7996 7995 ] final  131.83 input   59.86 | X-H torsion
[ 10167 10162 10161 10158 ] final -138.21 input  -65.29 | X-H torsion
[ 10718 10713 10712 10709 ] final -164.30 input   66.30 | X-H torsion
[ 10763 10752 10751 10750 ] final  101.69 input  -60.55 | X-H torsion
[ 11005 11000 10999 10996 ] final -161.29 input  -57.11 | X-H torsion

> <Gold.Protein.ActiveResidues>
 VAL166  LYS551  ARG553  GLY616  TRP617  ASP618  TYR619  PRO620  LYS621  CYS622 
 ASP623  PHE694  ASN695  SER759  ASP760  ASP761  ALA762  ILE779  LEU786  VAL792 
 PHE793  MET794  SER795  GLU796  ALA797  LYS798  CYS799  TRP800  GLU811  SER814 

> <Gold.Protein.RotatedAtoms>
  151.3813  133.3820  159.2710 H   0  0  0  0  0  0  0  0  0  0  0  0  # atno 6907 bound_to 6896
  150.9576  134.8969  159.7721 H   0  0  0  0  0  0  0  0  0  0  0  0  # atno 6908 bound_to 6896
  152.5136  134.3770  159.9390 H   0  0  0  0  0  0  0  0  0  0  0  0  # atno 6909 bound_to 6896
  144.7316  140.3061  143.6196 H   0  0  0  0  0  0  0  0  0  0  0  0  # atno 7974 bound_to 7965
  156.2975  140.2561  156.2990 H   0  0  0  0  0  0  0  0  0  0  0  0  # atno 8008 bound_to 7997
  154.9435  140.0395  157.2127 H   0  0  0  0  0  0  0  0  0  0  0  0  # atno 8009 bound_to 7997
  154.8103  140.2843  155.5862 H   0  0  0  0  0  0  0  0  0  0  0  0  # atno 8010 bound_to 7997
  139.8501  143.7210  152.2658 H   0  0  0  0  0  0  0  0  0  0  0  0  # atno 10167 bound_to 10162
  156.6371  130.8953  151.2989 H   0  0  0  0  0  0  0  0  0  0  0  0  # atno 10718 bound_to 10713
  153.3300  135.4036  155.1487 H   0  0  0  0  0  0  0  0  0  0  0  0  # atno 10763 bound_to 10752
  154.8621  135.3608  154.5483 H   0  0  0  0  0  0  0  0  0  0  0  0  # atno 10764 bound_to 10752
  153.5921  135.7073  153.5478 H   0  0  0  0  0  0  0  0  0  0  0  0  # atno 10765 bound_to 10752
  140.6220  134.4740  157.5224 H   0  0  0  0  0  0  0  0  0  0  0  0  # atno 11005 bound_to 11000
  145.7712  139.1858  143.2211 LP  0  0  0  0  0  0  0  0  0  0  0  0  # atno 17320 bound_to 7965
  146.0909  140.7656  142.9595 LP  0  0  0  0  0  0  0  0  0  0  0  0  # atno 17321 bound_to 7965
  139.7474  144.7543  151.0558 LP  0  0  0  0  0  0  0  0  0  0  0  0  # atno 17342 bound_to 10162
  140.7788  143.4900  150.9906 LP  0  0  0  0  0  0  0  0  0  0  0  0  # atno 17343 bound_to 10162
  157.7182  130.9524  150.1337 LP  0  0  0  0  0  0  0  0  0  0  0  0  # atno 17370 bound_to 10713
  156.2188  130.3672  149.8580 LP  0  0  0  0  0  0  0  0  0  0  0  0  # atno 17371 bound_to 10713
  139.9149  134.8266  156.1399 LP  0  0  0  0  0  0  0  0  0  0  0  0  # atno 17394 bound_to 11000
  141.0735  133.6786  156.2189 LP  0  0  0  0  0  0  0  0  0  0  0  0  # atno 17395 bound_to 11000

$$$$
