AV-unprocessed.smi:1752|AV-procd|sdf|7060|dock4
  -GOLD-   22720 8273D 1   1.00000     0.00000
 Structure written by MMmdl.
 43 44  0  0  0  0  0  0  0  0  2 V2000
  148.8724  142.0841  157.5919 C   0  0  0  0  0  0  0  0  0  0  0  0
  150.2711  141.5207  157.3082 C   0  0  2  0  0  0  0  0  0  0  0  0
  151.2534  142.6382  156.8970 C   0  0  0  0  0  0  0  0  0  0  0  0
  151.6389  143.4887  158.0092 N   0  0  0  0  0  0  0  0  0  0  0  0
  151.2713  144.7943  158.2587 C   0  0  0  0  0  0  0  0  0  0  0  0
  151.8849  145.1745  159.4176 C   0  0  0  0  0  0  0  0  0  0  0  0
  152.6118  144.0159  159.8109 C   0  0  0  0  0  0  0  0  0  0  0  0
  152.4595  143.0076  158.9677 N   0  0  0  0  0  0  0  0  0  0  0  0
  150.1654  140.5074  156.2596 N   0  0  0  0  0  0  0  0  0  0  0  0
  151.1814  139.7943  155.7423 C   0  0  0  0  0  0  0  0  0  0  0  0
  152.3497  139.9499  156.0994 O   0  0  0  0  0  0  0  0  0  0  0  0
  150.8175  138.8961  154.7922 N   0  0  0  0  0  0  0  0  0  0  0  0
  149.4979  138.8183  154.1435 C   0  0  0  0  0  0  0  0  0  0  0  0
  148.5571  137.9005  154.9431 C   0  0  0  0  0  0  0  0  0  0  0  0
  149.1006  136.4708  155.1494 C   0  0  0  0  0  0  0  0  0  0  0  0
  150.2459  136.4454  156.0988 N   0  3  1  0  0  0  0  0  0  0  0  0
  150.2104  135.2728  157.0009 C   0  0  0  0  0  0  0  0  0  0  0  0
  151.5848  136.6055  155.4644 C   0  0  0  0  0  0  0  0  0  0  0  0
  151.6930  137.7681  154.4503 C   0  0  0  0  0  0  0  0  0  0  0  0
  148.9024  142.8171  158.3986 H   0  0  0  0  0  0  0  0  0  0  0  0
  148.1837  141.2939  157.8927 H   0  0  0  0  0  0  0  0  0  0  0  0
  148.4549  142.5748  156.7118 H   0  0  0  0  0  0  0  0  0  0  0  0
  150.6238  141.0620  158.2339 H   0  0  0  0  0  0  0  0  0  0  0  0
  152.1540  142.2126  156.4518 H   0  0  0  0  0  0  0  0  0  0  0  0
  150.8009  143.2725  156.1334 H   0  0  0  0  0  0  0  0  0  0  0  0
  150.6148  145.3388  157.5963 H   0  0  0  0  0  0  0  0  0  0  0  0
  151.8235  146.1331  159.9106 H   0  0  0  0  0  0  0  0  0  0  0  0
  153.2398  143.8779  160.6786 H   0  0  0  0  0  0  0  0  0  0  0  0
  149.2388  140.3287  155.9006 H   0  0  0  0  0  0  0  0  0  0  0  0
  149.0427  139.8014  154.0182 H   0  0  0  0  0  0  0  0  0  0  0  0
  149.5957  138.4397  153.1255 H   0  0  0  0  0  0  0  0  0  0  0  0
  148.3335  138.3505  155.9113 H   0  0  0  0  0  0  0  0  0  0  0  0
  147.6047  137.8415  154.4154 H   0  0  0  0  0  0  0  0  0  0  0  0
  148.2837  135.8716  155.5543 H   0  0  0  0  0  0  0  0  0  0  0  0
  149.3714  136.0038  154.2014 H   0  0  0  0  0  0  0  0  0  0  0  0
  150.2943  134.3429  156.4368 H   0  0  0  0  0  0  0  0  0  0  0  0
  149.2793  135.2482  157.5682 H   0  0  0  0  0  0  0  0  0  0  0  0
  151.0303  135.3131  157.7189 H   0  0  0  0  0  0  0  0  0  0  0  0
  152.3073  136.7719  156.2646 H   0  0  0  0  0  0  0  0  0  0  0  0
  151.8780  135.6745  154.9768 H   0  0  0  0  0  0  0  0  0  0  0  0
  151.4484  137.3894  153.4575 H   0  0  0  0  0  0  0  0  0  0  0  0
  152.7307  138.0956  154.3667 H   0  0  0  0  0  0  0  0  0  0  0  0
  150.1196  137.2497  156.6970 H   0  0  0  0  0  0  0  0  0  0  0  0
  1  2  1  0  0  0  0
  1 20  1  0  0  0  0
  1 21  1  0  0  0  0
  1 22  1  0  0  0  0
  2  3  1  0  0  0  0
  2  9  1  0  0  0  0
  2 23  1  0  0  0  0
  3  4  1  0  0  0  0
  3 24  1  0  0  0  0
  3 25  1  0  0  0  0
  4  8  1  0  0  0  0
  4  5  1  0  0  0  0
  5  6  2  0  0  0  0
  5 26  1  0  0  0  0
  6  7  1  0  0  0  0
  6 27  1  0  0  0  0
  7  8  2  0  0  0  0
  7 28  1  0  0  0  0
  9 10  1  0  0  0  0
  9 29  1  0  0  0  0
 10 11  2  0  0  0  0
 10 12  1  0  0  0  0
 12 19  1  0  0  0  0
 12 13  1  0  0  0  0
 13 14  1  0  0  0  0
 13 30  1  0  0  0  0
 13 31  1  0  0  0  0
 14 15  1  0  0  0  0
 14 32  1  0  0  0  0
 14 33  1  0  0  0  0
 15 16  1  0  0  0  0
 15 34  1  0  0  0  0
 15 35  1  0  0  0  0
 16 17  1  0  0  0  0
 16 18  1  0  0  0  0
 16 43  1  0  0  0  0
 17 36  1  0  0  0  0
 17 37  1  0  0  0  0
 17 38  1  0  0  0  0
 18 19  1  0  0  0  0
 18 39  1  0  0  0  0
 18 40  1  0  0  0  0
 19 41  1  0  0  0  0
 19 42  1  0  0  0  0
M  CHG  1  16   1
M  END
> <s_m_source_file>
AV-unprocessed.smi

> <i_m_source_file_index>
1752

> <i_lp_mmshare_version>
43012

> <i_f3d_flags>
0

> <s_epik_input>
bjFbY0hdW2NIXVtjSF1uMVtDSDJdW0NAQEhdKFtDSDNdKVtOSF1DKD1PKU4yW0NIMl1bQ0gyXVtDSDJdTihbQ0gzXSlbQ0gyXVtDSDJdMg==

> <s_epik_cmdline>
J2VwaWtfcHl0aG9uJywgJy1waCcsICc3LjAnLCAnLXRuJywgJzgnLCAnLW1hJywgJzIwMCcsICctbWV0YWxfYmluZGluZycsICctaW1hZScsICc8aW5maWxlLm1hZT4nLCAnLW9tYWUnLCAnPG91dGZpbGUubWFlPic=

> <r_lp_tautomer_probability>
1

> <r_epik_Ionization_Penalty>
0.00208423

> <r_epik_Ionization_Penalty_Charging>
0.00203643

> <r_epik_Ionization_Penalty_Neutral>
4.77939e-05

> <r_epik_State_Penalty>
0.00139278

> <r_epik_Charging_Adjusted_Penalty>
0.00342922

> <i_epik_Tot_Q>
1

> <i_epik_Tot_abs_Q>
1

> <r_epik_Metal_State_Penalty>
-0

> <b_epik_Metal_Only>
0

> <s_lp_Force_Field>
OPLS_2005

> <r_lp_Energy>
39.6128

> <b_lp_Chiralities_Consistent>
1

> <s_lp_Variant>
AV-unprocessed.smi:1752-3

> <Gold.Version>
5.8.1

> <Gold.Id.Protein>
6NUR|6NUR_protein|mol2

> <Gold.PLP.Fitness>
37.7446

> <Gold.PLP.PLP>
-32.9287

> <Gold.PLP.part.hbond>
-1.0000

> <Gold.PLP.part.metal>
0.0000

> <Gold.PLP.part.buried>
-0.1629

> <Gold.PLP.part.nonpolar>
-32.5140

> <Gold.PLP.part.repulsive>
0.1208

> <Gold.PLP.ligand.clash>
0.0000

> <Gold.PLP.ligand.torsion>
0.3288

> <Gold.PLP.Chemscore.Hbond>
1.0000

> <Gold.PLP.Chemscore.CHOScore>
0.8161

> <Gold.PLP.Chemscore.Metal>
0.0000

> <Gold.Chemscore.Hbonds>
donor molecule, donor type, donor heavy atom, donor atom, acceptor molecule, acceptor atom, score
      P1  H  7997  8009       L1    11  0.93
      L1  C     5    26       P1  8028  0.51
      L1  C     5    26       P1  8029  0.11

> <Gold.PLP.Chemscore.Internal.Correction>
0.0253

> <Gold.Rescore>
     Score         DG    S(hbond)    S(metal)    S(lipo)     H(rot)  DE(clash)    DE(int)     intcor
     13.45     -15.08       0.90        0.00      87.32       1.41       0.40       1.23       ----

> <Gold.Chemscore.Fitness>
13.4511

> <Gold.Chemscore.DG>
-15.0780

> <Gold.Chemscore.ZeroCoef>
-5.4800

> <Gold.Chemscore.Hbond>
0.8975

> <Gold.Chemscore.Metal>
0.0000

> <Gold.Chemscore.Lipo>
87.3189

> <Gold.Chemscore.Internal_Hbond>
0.0000

> <Gold.Chemscore.DEClash>
0.3959

> <Gold.Chemscore.DEInternal>
1.2310

> <Gold.Chemscore.Rot>
1.4125

> <Gold.Chemscore.Internal.Correction>
   9.000000E+99

> <Gold.Chemscore.Hbonds>
donor molecule, donor type, donor heavy atom, donor atom, acceptor molecule, acceptor atom, score
      P1  H  7997  8009       L1    11  0.84

> <Gold.Chemscore.Hbond.Weighted>
-2.9977

> <Gold.Chemscore.Metal.Weighted>
-0.0000

> <Gold.Chemscore.Lipo.Weighted>
-10.2163

> <Gold.Chemscore.Internal_Hbond.Weighted>
0.0000

> <Gold.Chemscore.DEClash.Weighted>
0.3959

> <Gold.Chemscore.DEInternal.Weighted>
1.2310

> <Gold.Chemscore.Rot.Weighted>
3.6160

> <Gold.Chemscore.Internal.Correction.Weighted>
   9.000000E+99

> <Gold.Protein.RotatedTorsions>
[ 6907 6896 6895 6894 ] final -155.17 input  -60.11 | X-H torsion
[ 7974 7965 7964 7962 ] final  -22.38 input  175.53 | X-H torsion
[ 8008 7997 7996 7995 ] final -141.74 input   59.86 | X-H torsion
[ 10167 10162 10161 10158 ] final   81.82 input  -65.29 | X-H torsion
[ 10718 10713 10712 10709 ] final  141.86 input   66.30 | X-H torsion
[ 10763 10752 10751 10750 ] final  116.42 input  -60.55 | X-H torsion
[ 11005 11000 10999 10996 ] final -101.62 input  -57.11 | X-H torsion

> <Gold.Protein.ActiveResidues>
 VAL166  LYS551  ARG553  GLY616  TRP617  ASP618  TYR619  PRO620  LYS621  CYS622 
 ASP623  PHE694  ASN695  SER759  ASP760  ASP761  ALA762  ILE779  LEU786  VAL792 
 PHE793  MET794  SER795  GLU796  ALA797  LYS798  CYS799  TRP800  GLU811  SER814 

> <Gold.Protein.RotatedAtoms>
  151.2684  133.4267  159.2619 H   0  0  0  0  0  0  0  0  0  0  0  0  # atno 6907 bound_to 6896
  151.0467  134.9645  159.8200 H   0  0  0  0  0  0  0  0  0  0  0  0  # atno 6908 bound_to 6896
  152.5375  134.2640  159.8999 H   0  0  0  0  0  0  0  0  0  0  0  0  # atno 6909 bound_to 6896
  146.1679  140.4470  142.8544 H   0  0  0  0  0  0  0  0  0  0  0  0  # atno 7974 bound_to 7965
  155.4828  140.0561  157.2965 H   0  0  0  0  0  0  0  0  0  0  0  0  # atno 8008 bound_to 7997
  154.4654  140.2016  156.0085 H   0  0  0  0  0  0  0  0  0  0  0  0  # atno 8009 bound_to 7997
  156.0964  140.3225  155.7888 H   0  0  0  0  0  0  0  0  0  0  0  0  # atno 8010 bound_to 7997
  139.9352  144.6126  150.8305 H   0  0  0  0  0  0  0  0  0  0  0  0  # atno 10167 bound_to 10162
  157.3872  131.1000  151.0682 H   0  0  0  0  0  0  0  0  0  0  0  0  # atno 10718 bound_to 10713
  153.5370  135.3566  155.2701 H   0  0  0  0  0  0  0  0  0  0  0  0  # atno 10763 bound_to 10752
  154.8721  135.4082  154.3087 H   0  0  0  0  0  0  0  0  0  0  0  0  # atno 10764 bound_to 10752
  153.3787  135.7067  153.6650 H   0  0  0  0  0  0  0  0  0  0  0  0  # atno 10765 bound_to 10752
  141.1223  133.8493  157.1255 H   0  0  0  0  0  0  0  0  0  0  0  0  # atno 11005 bound_to 11000
  144.8119  140.6401  143.6409 LP  0  0  0  0  0  0  0  0  0  0  0  0  # atno 17320 bound_to 7965
  145.4418  139.1534  143.3966 LP  0  0  0  0  0  0  0  0  0  0  0  0  # atno 17321 bound_to 7965
  140.7626  143.3203  151.2638 LP  0  0  0  0  0  0  0  0  0  0  0  0  # atno 17342 bound_to 10162
  139.6749  143.9955  152.2775 LP  0  0  0  0  0  0  0  0  0  0  0  0  # atno 17343 bound_to 10162
  157.1729  130.6275  149.5646 LP  0  0  0  0  0  0  0  0  0  0  0  0  # atno 17370 bound_to 10713
  155.9789  130.4779  150.6686 LP  0  0  0  0  0  0  0  0  0  0  0  0  # atno 17371 bound_to 10713
  140.0191  134.9954  157.0554 LP  0  0  0  0  0  0  0  0  0  0  0  0  # atno 17394 bound_to 11000
  140.4470  134.1622  155.7178 LP  0  0  0  0  0  0  0  0  0  0  0  0  # atno 17395 bound_to 11000

$$$$
