AV-unprocessed.smi:1005|AV-procd|sdf|4377|dock4
  -GOLD-   22720 2293D 1   1.00000     0.00000
 Structure written by MMmdl.
 57 59  0  0  0  0  0  0  0  0  3 V2000
  151.7050  145.2405  160.7387 C   0  0  0  0  0  0  0  0  0  0  0  0
  151.6433  144.0458  159.8024 C   0  0  0  0  0  0  0  0  0  0  0  0
  150.8404  144.1383  158.6432 C   0  0  0  0  0  0  0  0  0  0  0  0
  150.8029  143.0288  157.8072 C   0  0  0  0  0  0  0  0  0  0  0  0
  150.1152  142.8091  156.6120 N   0  3  0  0  0  0  0  0  0  0  0  0
  150.3890  141.5566  156.1539 C   0  0  0  0  0  0  0  0  0  0  0  0
  151.2413  140.9721  157.0391 N   0  0  0  0  0  0  0  0  0  0  0  0
  151.8405  139.6303  157.0090 C   0  0  0  0  0  0  0  0  0  0  0  0
  151.4723  138.8392  155.7385 C   0  0  1  0  0  0  0  0  0  0  0  0
  152.1012  139.4755  154.6452 O   0  0  0  0  0  0  0  0  0  0  0  0
  151.9234  137.3618  155.7793 C   0  0  0  0  0  0  0  0  0  0  0  0
  150.9365  136.4124  156.2959 N   0  0  0  0  0  0  0  0  0  0  0  0
  150.6766  136.5894  157.7234 C   0  0  0  0  0  0  0  0  0  0  0  0
  149.6668  135.5583  158.2545 C   0  0  0  0  0  0  0  0  0  0  0  0
  150.1329  134.2432  157.9715 O   0  0  0  0  0  0  0  0  0  0  0  0
  150.3357  134.0123  156.5798 C   0  0  2  0  0  0  0  0  0  0  0  0
  150.8294  132.5656  156.3988 C   0  0  0  0  0  0  0  0  0  0  0  0
  151.0740  132.2149  154.9763 N   0  3  0  0  0  0  0  0  0  0  0  0
  151.4130  130.7879  154.7682 C   0  0  0  0  0  0  0  0  0  0  0  0
  149.9597  132.6398  154.1003 C   0  0  0  0  0  0  0  0  0  0  0  0
  151.3641  135.0374  156.0611 C   0  0  0  0  0  0  0  0  0  0  0  0
  151.5302  141.8552  158.0873 C   0  0  0  0  0  0  0  0  0  0  0  0
  152.3269  141.7485  159.2255 C   0  0  0  0  0  0  0  0  0  0  0  0
  152.3766  142.8656  160.0898 C   0  0  0  0  0  0  0  0  0  0  0  0
  153.2342  142.7755  161.3409 C   0  0  0  0  0  0  0  0  0  0  0  0
  151.0800  146.0597  160.3822 H   0  0  0  0  0  0  0  0  0  0  0  0
  152.7271  145.6120  160.8184 H   0  0  0  0  0  0  0  0  0  0  0  0
  151.3569  144.9657  161.7346 H   0  0  0  0  0  0  0  0  0  0  0  0
  150.2787  145.0333  158.4180 H   0  0  0  0  0  0  0  0  0  0  0  0
  149.9998  141.1076  155.2513 H   0  0  0  0  0  0  0  0  0  0  0  0
  152.9218  139.7676  157.0586 H   0  0  0  0  0  0  0  0  0  0  0  0
  151.5632  139.0858  157.9116 H   0  0  0  0  0  0  0  0  0  0  0  0
  150.3947  138.9119  155.5969 H   0  0  0  0  0  0  0  0  0  0  0  0
  152.9713  139.7358  154.9060 H   0  0  0  0  0  0  0  0  0  0  0  0
  152.2071  137.0708  154.7668 H   0  0  0  0  0  0  0  0  0  0  0  0
  152.8314  137.2733  156.3760 H   0  0  0  0  0  0  0  0  0  0  0  0
  151.6089  136.5023  158.2835 H   0  0  0  0  0  0  0  0  0  0  0  0
  150.2854  137.5864  157.9205 H   0  0  0  0  0  0  0  0  0  0  0  0
  149.5433  135.6692  159.3318 H   0  0  0  0  0  0  0  0  0  0  0  0
  148.6854  135.7095  157.8022 H   0  0  0  0  0  0  0  0  0  0  0  0
  149.3965  134.1616  156.0467 H   0  0  0  0  0  0  0  0  0  0  0  0
  151.7394  132.3958  156.9761 H   0  0  0  0  0  0  0  0  0  0  0  0
  150.0743  131.8948  156.8115 H   0  0  0  0  0  0  0  0  0  0  0  0
  150.6001  130.1402  155.0989 H   0  0  0  0  0  0  0  0  0  0  0  0
  152.3169  130.5061  155.3065 H   0  0  0  0  0  0  0  0  0  0  0  0
  151.5952  130.5890  153.7115 H   0  0  0  0  0  0  0  0  0  0  0  0
  149.0399  132.1115  154.3552 H   0  0  0  0  0  0  0  0  0  0  0  0
  150.1917  132.4376  153.0540 H   0  0  0  0  0  0  0  0  0  0  0  0
  149.7776  133.7110  154.1944 H   0  0  0  0  0  0  0  0  0  0  0  0
  151.5187  134.8796  154.9928 H   0  0  0  0  0  0  0  0  0  0  0  0
  152.3273  134.8637  156.5439 H   0  0  0  0  0  0  0  0  0  0  0  0
  152.8842  140.8513  159.4494 H   0  0  0  0  0  0  0  0  0  0  0  0
  153.7357  141.8100  161.4132 H   0  0  0  0  0  0  0  0  0  0  0  0
  152.6222  142.9001  162.2344 H   0  0  0  0  0  0  0  0  0  0  0  0
  154.0022  143.5493  161.3357 H   0  0  0  0  0  0  0  0  0  0  0  0
  151.8779  132.7535  154.6848 H   0  0  0  0  0  0  0  0  0  0  0  0
  149.5038  143.4639  156.1410 H   0  0  0  0  0  0  0  0  0  0  0  0
  1  2  1  0  0  0  0
  1 26  1  0  0  0  0
  1 27  1  0  0  0  0
  1 28  1  0  0  0  0
  2 24  1  0  0  0  0
  2  3  2  0  0  0  0
  3  4  1  0  0  0  0
  3 29  1  0  0  0  0
  4 22  2  0  0  0  0
  4  5  1  0  0  0  0
  5  6  2  0  0  0  0
  5 57  1  0  0  0  0
  6  7  1  0  0  0  0
  6 30  1  0  0  0  0
  7  8  1  0  0  0  0
  7 22  1  0  0  0  0
  8  9  1  0  0  0  0
  8 31  1  0  0  0  0
  8 32  1  0  0  0  0
  9 10  1  0  0  0  0
  9 11  1  0  0  0  0
  9 33  1  0  0  0  0
 10 34  1  0  0  0  0
 11 12  1  0  0  0  0
 11 35  1  0  0  0  0
 11 36  1  0  0  0  0
 12 21  1  0  0  0  0
 12 13  1  0  0  0  0
 13 14  1  0  0  0  0
 13 37  1  0  0  0  0
 13 38  1  0  0  0  0
 14 15  1  0  0  0  0
 14 39  1  0  0  0  0
 14 40  1  0  0  0  0
 15 16  1  0  0  0  0
 16 17  1  0  0  0  0
 16 21  1  0  0  0  0
 16 41  1  0  0  0  0
 17 18  1  0  0  0  0
 17 42  1  0  0  0  0
 17 43  1  0  0  0  0
 18 19  1  0  0  0  0
 18 20  1  0  0  0  0
 18 56  1  0  0  0  0
 19 44  1  0  0  0  0
 19 45  1  0  0  0  0
 19 46  1  0  0  0  0
 20 47  1  0  0  0  0
 20 48  1  0  0  0  0
 20 49  1  0  0  0  0
 21 50  1  0  0  0  0
 21 51  1  0  0  0  0
 22 23  1  0  0  0  0
 23 24  2  0  0  0  0
 23 52  1  0  0  0  0
 24 25  1  0  0  0  0
 25 53  1  0  0  0  0
 25 54  1  0  0  0  0
 25 55  1  0  0  0  0
M  CHG  1   5   1
M  CHG  1  18   1
M  END
> <s_m_source_file>
AV-unprocessed.smi

> <i_m_source_file_index>
1005

> <i_lp_mmshare_version>
43012

> <i_f3d_flags>
0

> <s_epik_input>
W0NIM11jKFtjSF0xKWMoW0NIM10pW2NIXWMoYzEyKW4oW2NIXW4yKVtDSDJdW0NASF0oW09IXSlbQ0gyXU4zW0NIMl1bQ0gyXU9bQ0BIXShbQ0gyXTMpW0NIMl1OKFtDSDNdKVtDSDNd

> <s_epik_cmdline>
J2VwaWtfcHl0aG9uJywgJy1waCcsICc3LjAnLCAnLXRuJywgJzgnLCAnLW1hJywgJzIwMCcsICctbWV0YWxfYmluZGluZycsICctaW1hZScsICc8aW5maWxlLm1hZT4nLCAnLW9tYWUnLCAnPG91dGZpbGUubWFlPic=

> <r_epik_Ionization_Penalty>
1.3281

> <r_epik_Ionization_Penalty_Charging>
1.21988

> <r_epik_Ionization_Penalty_Neutral>
0.10822

> <r_epik_State_Penalty>
1.32886

> <r_epik_Charging_Adjusted_Penalty>
2.54875

> <i_epik_Tot_Q>
2

> <i_epik_Tot_abs_Q>
2

> <r_epik_Metal_State_Penalty>
5.33912

> <b_epik_Metal_Only>
0

> <s_lp_Force_Field>
OPLS_2005

> <r_lp_Energy>
45.9182

> <b_lp_Chiralities_Consistent>
1

> <s_lp_Variant>
AV-unprocessed.smi:1005-16

> <Gold.Version>
5.8.1

> <Gold.Id.Protein>
6NUR|6NUR_protein|mol2

> <Gold.PLP.Fitness>
59.3669

> <Gold.PLP.PLP>
-49.0225

> <Gold.PLP.part.hbond>
-2.7871

> <Gold.PLP.part.metal>
0.0000

> <Gold.PLP.part.buried>
-7.1207

> <Gold.PLP.part.nonpolar>
-39.7651

> <Gold.PLP.part.repulsive>
0.1367

> <Gold.PLP.ligand.clash>
0.0000

> <Gold.PLP.ligand.torsion>
0.5550

> <Gold.PLP.Chemscore.Hbond>
3.7680

> <Gold.PLP.Chemscore.CHOScore>
0.0000

> <Gold.PLP.Chemscore.Metal>
0.0000

> <Gold.Chemscore.Hbonds>
donor molecule, donor type, donor heavy atom, donor atom, acceptor molecule, acceptor atom, score
      L1  H     5    57       P1  8028  1.76
      P1  H  6896  6907       L1    15  0.56
      P1  H  7989  7998       L1    10  0.85

> <Gold.PLP.Chemscore.Internal.Correction>
0.1503

> <Gold.Rescore>
     Score         DG    S(hbond)    S(metal)    S(lipo)     H(rot)  DE(clash)    DE(int)     intcor
     21.63     -22.56       2.39        0.00     132.15       2.49       0.32       0.62       ----

> <Gold.Chemscore.Fitness>
21.6294

> <Gold.Chemscore.DG>
-22.5645

> <Gold.Chemscore.ZeroCoef>
-5.4800

> <Gold.Chemscore.Hbond>
2.3943

> <Gold.Chemscore.Metal>
0.0000

> <Gold.Chemscore.Lipo>
132.1468

> <Gold.Chemscore.Internal_Hbond>
0.0000

> <Gold.Chemscore.DEClash>
0.3190

> <Gold.Chemscore.DEInternal>
0.6161

> <Gold.Chemscore.Rot>
2.4897

> <Gold.Chemscore.Internal.Correction>
   9.000000E+99

> <Gold.Chemscore.Hbonds>
donor molecule, donor type, donor heavy atom, donor atom, acceptor molecule, acceptor atom, score
      L1  H     5    57       P1  8028  0.85
      P1  H  6896  6907       L1    15  0.05
      P1  H  7989  7998       L1    10  0.22

> <Gold.Chemscore.Hbond.Weighted>
-7.9970

> <Gold.Chemscore.Metal.Weighted>
-0.0000

> <Gold.Chemscore.Lipo.Weighted>
-15.4612

> <Gold.Chemscore.Internal_Hbond.Weighted>
0.0000

> <Gold.Chemscore.DEClash.Weighted>
0.3190

> <Gold.Chemscore.DEInternal.Weighted>
0.6161

> <Gold.Chemscore.Rot.Weighted>
6.3737

> <Gold.Chemscore.Internal.Correction.Weighted>
   9.000000E+99

> <Gold.Protein.RotatedTorsions>
[ 6907 6896 6895 6894 ] final -103.60 input  -60.11 | X-H torsion
[ 7974 7965 7964 7962 ] final   24.00 input  175.53 | X-H torsion
[ 8008 7997 7996 7995 ] final  124.19 input   59.86 | X-H torsion
[ 10167 10162 10161 10158 ] final   40.50 input  -65.29 | X-H torsion
[ 10718 10713 10712 10709 ] final   51.30 input   66.30 | X-H torsion
[ 10763 10752 10751 10750 ] final  136.02 input  -60.55 | X-H torsion
[ 11005 11000 10999 10996 ] final  172.55 input  -57.11 | X-H torsion

> <Gold.Protein.ActiveResidues>
 VAL166  LYS551  ARG553  GLY616  TRP617  ASP618  TYR619  PRO620  LYS621  CYS622 
 ASP623  PHE694  ASN695  SER759  ASP760  ASP761  ALA762  ILE779  LEU786  VAL792 
 PHE793  MET794  SER795  GLU796  ALA797  LYS798  CYS799  TRP800  GLU811  SER814 

> <Gold.Protein.RotatedAtoms>
  150.7248  134.0404  159.3763 H   0  0  0  0  0  0  0  0  0  0  0  0  # atno 6907 bound_to 6896
  151.8377  135.0598  160.0454 H   0  0  0  0  0  0  0  0  0  0  0  0  # atno 6908 bound_to 6896
  152.2886  133.5503  159.5579 H   0  0  0  0  0  0  0  0  0  0  0  0  # atno 6909 bound_to 6896
  146.1958  139.7666  142.8798 H   0  0  0  0  0  0  0  0  0  0  0  0  # atno 7974 bound_to 7965
  156.2793  140.2745  156.1749 H   0  0  0  0  0  0  0  0  0  0  0  0  # atno 8008 bound_to 7997
  155.0616  140.0386  157.2596 H   0  0  0  0  0  0  0  0  0  0  0  0  # atno 8009 bound_to 7997
  154.7112  140.2669  155.6633 H   0  0  0  0  0  0  0  0  0  0  0  0  # atno 8010 bound_to 7997
  140.3736  144.2073  150.6132 H   0  0  0  0  0  0  0  0  0  0  0  0  # atno 10167 bound_to 10162
  157.4967  130.8411  149.8267 H   0  0  0  0  0  0  0  0  0  0  0  0  # atno 10718 bound_to 10713
  153.8497  135.3081  155.3431 H   0  0  0  0  0  0  0  0  0  0  0  0  # atno 10763 bound_to 10752
  154.7896  135.4790  154.0027 H   0  0  0  0  0  0  0  0  0  0  0  0  # atno 10764 bound_to 10752
  153.1526  135.6846  153.8953 H   0  0  0  0  0  0  0  0  0  0  0  0  # atno 10765 bound_to 10752
  140.3309  134.7358  157.4134 H   0  0  0  0  0  0  0  0  0  0  0  0  # atno 11005 bound_to 11000
  145.3648  141.0332  143.3264 LP  0  0  0  0  0  0  0  0  0  0  0  0  # atno 17320 bound_to 7965
  144.8578  139.5223  143.6826 LP  0  0  0  0  0  0  0  0  0  0  0  0  # atno 17321 bound_to 7965
  140.5009  143.2318  151.8680 LP  0  0  0  0  0  0  0  0  0  0  0  0  # atno 17342 bound_to 10162
  139.4801  144.5061  151.8996 LP  0  0  0  0  0  0  0  0  0  0  0  0  # atno 17343 bound_to 10162
  156.0205  130.3797  150.1978 LP  0  0  0  0  0  0  0  0  0  0  0  0  # atno 17370 bound_to 10713
  157.0167  130.9967  151.3351 LP  0  0  0  0  0  0  0  0  0  0  0  0  # atno 17371 bound_to 10713
  140.0861  134.5664  155.8491 LP  0  0  0  0  0  0  0  0  0  0  0  0  # atno 17394 bound_to 11000
  141.2063  133.6654  156.6236 LP  0  0  0  0  0  0  0  0  0  0  0  0  # atno 17395 bound_to 11000

$$$$
