AV-unprocessed.smi:2460|AV-procd|sdf|9715|dock5
  -GOLD-   2272013353D 1   1.00000     0.00000
 Structure written by MMmdl.
 46 48  0  0  0  0  0  0  0  0  1 V2000
  142.7755  134.1589  152.3393 C   0  0  0  0  0  0  0  0  0  0  0  0
  144.1874  133.9913  151.7526 C   0  0  0  0  0  0  0  0  0  0  0  0
  144.1290  133.4048  150.3338 C   0  0  0  0  0  0  0  0  0  0  0  0
  144.9912  135.2965  151.8096 C   0  0  0  0  0  0  0  0  0  0  0  0
  145.6894  135.2139  153.1526 C   0  0  2  0  0  0  0  0  0  0  0  0
  146.8975  136.0359  153.1839 N   0  0  0  0  0  0  0  0  0  0  0  0
  147.2121  136.9069  154.1521 C   0  0  0  0  0  0  0  0  0  0  0  0
  146.4874  137.1405  155.1188 O   0  0  0  0  0  0  0  0  0  0  0  0
  148.4177  137.4582  153.9350 N   0  0  0  0  0  0  0  0  0  0  0  0
  149.1150  138.3858  154.7534 C   0  0  0  0  0  0  0  0  0  0  0  0
  150.1522  139.1563  154.1873 C   0  0  0  0  0  0  0  0  0  0  0  0
  150.8487  140.0597  154.9096 N   0  0  0  0  0  0  0  0  0  0  0  0
  150.5103  140.1936  156.1951 C   0  0  0  0  0  0  0  0  0  0  0  0
  151.2647  141.2161  156.9865 C   0  0  0  0  0  0  0  0  0  0  0  0
  151.0589  141.3460  158.4819 C   0  0  0  0  0  0  0  0  0  0  0  0
  150.5567  142.4252  157.5639 C   0  0  0  0  0  0  0  0  0  0  0  0
  149.5309  139.5458  156.8320 N   0  0  0  0  0  0  0  0  0  0  0  0
  148.8304  138.6384  156.1180 C   0  0  0  0  0  0  0  0  0  0  0  0
  145.9610  133.7000  153.2941 C   0  0  0  0  0  0  0  0  0  0  0  0
  147.2641  133.2214  152.6192 C   0  0  0  0  0  0  0  0  0  0  0  0
  145.9027  133.2303  154.7562 C   0  0  0  0  0  0  0  0  0  0  0  0
  144.8880  133.0746  152.5919 O   0  0  0  0  0  0  0  0  0  0  0  0
  142.1828  134.8585  151.7494 H   0  0  0  0  0  0  0  0  0  0  0  0
  142.8090  134.5333  153.3627 H   0  0  0  0  0  0  0  0  0  0  0  0
  142.2433  133.2075  152.3577 H   0  0  0  0  0  0  0  0  0  0  0  0
  143.6236  134.0841  149.6471 H   0  0  0  0  0  0  0  0  0  0  0  0
  143.5905  132.4568  150.3216 H   0  0  0  0  0  0  0  0  0  0  0  0
  145.1293  133.2190  149.9417 H   0  0  0  0  0  0  0  0  0  0  0  0
  145.7295  135.3219  151.0066 H   0  0  0  0  0  0  0  0  0  0  0  0
  144.3707  136.1876  151.7095 H   0  0  0  0  0  0  0  0  0  0  0  0
  144.9851  135.5436  153.9193 H   0  0  0  0  0  0  0  0  0  0  0  0
  147.5543  135.9061  152.4285 H   0  0  0  0  0  0  0  0  0  0  0  0
  148.9280  137.1149  153.1345 H   0  0  0  0  0  0  0  0  0  0  0  0
  150.4314  139.0452  153.1498 H   0  0  0  0  0  0  0  0  0  0  0  0
  152.2719  141.3546  156.5980 H   0  0  0  0  0  0  0  0  0  0  0  0
  150.3165  140.7032  158.9511 H   0  0  0  0  0  0  0  0  0  0  0  0
  151.9330  141.5690  159.0900 H   0  0  0  0  0  0  0  0  0  0  0  0
  151.0938  143.3713  157.5578 H   0  0  0  0  0  0  0  0  0  0  0  0
  149.4802  142.5004  157.4227 H   0  0  0  0  0  0  0  0  0  0  0  0
  148.0350  138.1405  156.6501 H   0  0  0  0  0  0  0  0  0  0  0  0
  148.1468  133.6128  153.1257 H   0  0  0  0  0  0  0  0  0  0  0  0
  147.3144  133.5304  151.5751 H   0  0  0  0  0  0  0  0  0  0  0  0
  147.3359  132.1337  152.6391 H   0  0  0  0  0  0  0  0  0  0  0  0
  146.7049  133.6727  155.3470 H   0  0  0  0  0  0  0  0  0  0  0  0
  146.0005  132.1468  154.8260 H   0  0  0  0  0  0  0  0  0  0  0  0
  144.9560  133.5048  155.2221 H   0  0  0  0  0  0  0  0  0  0  0  0
  1  2  1  0  0  0  0
  1 23  1  0  0  0  0
  1 24  1  0  0  0  0
  1 25  1  0  0  0  0
  2 22  1  0  0  0  0
  2  3  1  0  0  0  0
  2  4  1  0  0  0  0
  3 26  1  0  0  0  0
  3 27  1  0  0  0  0
  3 28  1  0  0  0  0
  4  5  1  0  0  0  0
  4 29  1  0  0  0  0
  4 30  1  0  0  0  0
  5  6  1  0  0  0  0
  5 19  1  0  0  0  0
  5 31  1  0  0  0  0
  6  7  1  0  0  0  0
  6 32  1  0  0  0  0
  7  8  2  0  0  0  0
  7  9  1  0  0  0  0
  9 10  1  0  0  0  0
  9 33  1  0  0  0  0
 10 18  1  0  0  0  0
 10 11  2  0  0  0  0
 11 12  1  0  0  0  0
 11 34  1  0  0  0  0
 12 13  2  0  0  0  0
 13 14  1  0  0  0  0
 13 17  1  0  0  0  0
 14 16  1  0  0  0  0
 14 15  1  0  0  0  0
 14 35  1  0  0  0  0
 15 16  1  0  0  0  0
 15 36  1  0  0  0  0
 15 37  1  0  0  0  0
 16 38  1  0  0  0  0
 16 39  1  0  0  0  0
 17 18  2  0  0  0  0
 18 40  1  0  0  0  0
 19 20  1  0  0  0  0
 19 21  1  0  0  0  0
 19 22  1  0  0  0  0
 20 41  1  0  0  0  0
 20 42  1  0  0  0  0
 20 43  1  0  0  0  0
 21 44  1  0  0  0  0
 21 45  1  0  0  0  0
 21 46  1  0  0  0  0
M  END
> <s_m_source_file>
AV-unprocessed.smi

> <i_m_source_file_index>
2460

> <i_lp_mmshare_version>
43012

> <i_f3d_flags>
0

> <s_epik_input>
W0NIM11DMShbQ0gzXSlbQ0gyXVtDQEhdKEMoTzEpKFtDSDNdKVtDSDNdKVtOSF1DKD1PKVtOSF1jMltjSF1uYyhuW2NIXTIpW0NIXTNbQ0gyXVtDSDJdMw==

> <s_epik_cmdline>
J2VwaWtfcHl0aG9uJywgJy1waCcsICc3LjAnLCAnLXRuJywgJzgnLCAnLW1hJywgJzIwMCcsICctbWV0YWxfYmluZGluZycsICctaW1hZScsICc8aW5maWxlLm1hZT4nLCAnLW9tYWUnLCAnPG91dGZpbGUubWFlPic=

> <r_lp_tautomer_probability>
1

> <r_epik_Ionization_Penalty>
2.38399e-05

> <r_epik_Ionization_Penalty_Charging>
0

> <r_epik_Ionization_Penalty_Neutral>
2.38399e-05

> <r_epik_State_Penalty>
-0

> <r_epik_Charging_Adjusted_Penalty>
0

> <i_epik_Tot_Q>
0

> <i_epik_Tot_abs_Q>
0

> <r_epik_Metal_State_Penalty>
-0

> <b_epik_Metal_Only>
0

> <s_lp_Force_Field>
OPLS_2005

> <r_lp_Energy>
17.9428

> <b_lp_Chiralities_Consistent>
1

> <s_lp_Variant>
AV-unprocessed.smi:2460-2

> <Gold.Version>
5.8.1

> <Gold.Id.Protein>
6NUR|6NUR_protein|mol2

> <Gold.PLP.Fitness>
38.0598

> <Gold.PLP.PLP>
-26.8975

> <Gold.PLP.part.hbond>
-2.4841

> <Gold.PLP.part.metal>
0.0000

> <Gold.PLP.part.buried>
-3.1480

> <Gold.PLP.part.nonpolar>
-22.5294

> <Gold.PLP.part.repulsive>
0.2218

> <Gold.PLP.ligand.clash>
0.0000

> <Gold.PLP.ligand.torsion>
0.2225

> <Gold.PLP.Chemscore.Hbond>
2.8260

> <Gold.PLP.Chemscore.CHOScore>
1.0000

> <Gold.PLP.Chemscore.Metal>
0.0000

> <Gold.Chemscore.Hbonds>
donor molecule, donor type, donor heavy atom, donor atom, acceptor molecule, acceptor atom, score
      L1  H     6    32       P1  7948  0.95
      L1  H     9    33       P1  7948  1.00
      P1  H  7989  7998       L1    12  0.80
      L1  C    11    34       P1  7957  1.00

> <Gold.PLP.Chemscore.Internal.Correction>
0.1292

> <Gold.Rescore>
     Score         DG    S(hbond)    S(metal)    S(lipo)     H(rot)  DE(clash)    DE(int)     intcor
     15.77     -17.27       2.10        0.00      66.55       1.18       0.10       1.40       ----

> <Gold.Chemscore.Fitness>
15.7665

> <Gold.Chemscore.DG>
-17.2731

> <Gold.Chemscore.ZeroCoef>
-5.4800

> <Gold.Chemscore.Hbond>
2.1029

> <Gold.Chemscore.Metal>
0.0000

> <Gold.Chemscore.Lipo>
66.5507

> <Gold.Chemscore.Internal_Hbond>
0.0000

> <Gold.Chemscore.DEClash>
0.1030

> <Gold.Chemscore.DEInternal>
1.4035

> <Gold.Chemscore.Rot>
1.1785

> <Gold.Chemscore.Internal.Correction>
   9.000000E+99

> <Gold.Chemscore.Hbonds>
donor molecule, donor type, donor heavy atom, donor atom, acceptor molecule, acceptor atom, score
      L1  H     6    32       P1  7948  0.86
      L1  H     9    33       P1  7948  0.88
      P1  H  7989  7998       L1    12  0.12

> <Gold.Chemscore.Hbond.Weighted>
-7.0236

> <Gold.Chemscore.Metal.Weighted>
-0.0000

> <Gold.Chemscore.Lipo.Weighted>
-7.7864

> <Gold.Chemscore.Internal_Hbond.Weighted>
0.0000

> <Gold.Chemscore.DEClash.Weighted>
0.1030

> <Gold.Chemscore.DEInternal.Weighted>
1.4035

> <Gold.Chemscore.Rot.Weighted>
3.0169

> <Gold.Chemscore.Internal.Correction.Weighted>
   9.000000E+99

> <Gold.Protein.RotatedTorsions>
[ 6907 6896 6895 6894 ] final  128.37 input  -60.11 | X-H torsion
[ 7974 7965 7964 7962 ] final  146.61 input  175.53 | X-H torsion
[ 8008 7997 7996 7995 ] final   37.25 input   59.86 | X-H torsion
[ 10167 10162 10161 10158 ] final   94.15 input  -65.29 | X-H torsion
[ 10718 10713 10712 10709 ] final -135.84 input   66.30 | X-H torsion
[ 10763 10752 10751 10750 ] final  156.71 input  -60.55 | X-H torsion
[ 11005 11000 10999 10996 ] final  175.76 input  -57.11 | X-H torsion

> <Gold.Protein.ActiveResidues>
 VAL166  LYS551  ARG553  GLY616  TRP617  ASP618  TYR619  PRO620  LYS621  CYS622 
 ASP623  PHE694  ASN695  SER759  ASP760  ASP761  ALA762  ILE779  LEU786  VAL792 
 PHE793  MET794  SER795  GLU796  ALA797  LYS798  CYS799  TRP800  GLU811  SER814 

> <Gold.Protein.RotatedAtoms>
  152.3725  133.6438  159.6097 H   0  0  0  0  0  0  0  0  0  0  0  0  # atno 6907 bound_to 6896
  150.7679  133.9247  159.3417 H   0  0  0  0  0  0  0  0  0  0  0  0  # atno 6908 bound_to 6896
  151.7067  135.0921  160.0311 H   0  0  0  0  0  0  0  0  0  0  0  0  # atno 6909 bound_to 6896
  144.8657  139.5927  143.5910 H   0  0  0  0  0  0  0  0  0  0  0  0  # atno 7974 bound_to 7965
  155.2008  140.3315  155.4343 H   0  0  0  0  0  0  0  0  0  0  0  0  # atno 8008 bound_to 7997
  156.2407  140.1894  156.7045 H   0  0  0  0  0  0  0  0  0  0  0  0  # atno 8009 bound_to 7997
  154.6143  140.0604  156.9519 H   0  0  0  0  0  0  0  0  0  0  0  0  # atno 8010 bound_to 7997
  139.8112  144.6773  150.9638 H   0  0  0  0  0  0  0  0  0  0  0  0  # atno 10167 bound_to 10162
  156.2705  130.7263  151.1228 H   0  0  0  0  0  0  0  0  0  0  0  0  # atno 10718 bound_to 10713
  154.1886  135.2796  155.3029 H   0  0  0  0  0  0  0  0  0  0  0  0  # atno 10763 bound_to 10752
  154.5946  135.5549  153.7316 H   0  0  0  0  0  0  0  0  0  0  0  0  # atno 10764 bound_to 10752
  153.0118  135.6377  154.2025 H   0  0  0  0  0  0  0  0  0  0  0  0  # atno 10765 bound_to 10752
  140.3657  134.7074  157.4360 H   0  0  0  0  0  0  0  0  0  0  0  0  # atno 11005 bound_to 11000
  146.2894  139.7095  142.9172 LP  0  0  0  0  0  0  0  0  0  0  0  0  # atno 17320 bound_to 7965
  145.4227  141.0408  143.2955 LP  0  0  0  0  0  0  0  0  0  0  0  0  # atno 17321 bound_to 7965
  140.7817  143.4184  151.0881 LP  0  0  0  0  0  0  0  0  0  0  0  0  # atno 17342 bound_to 10162
  139.7850  143.8300  152.3143 LP  0  0  0  0  0  0  0  0  0  0  0  0  # atno 17343 bound_to 10162
  157.7282  131.0633  150.5830 LP  0  0  0  0  0  0  0  0  0  0  0  0  # atno 17370 bound_to 10713
  156.5926  130.4333  149.5930 LP  0  0  0  0  0  0  0  0  0  0  0  0  # atno 17371 bound_to 10713
  140.0591  134.6021  155.8770 LP  0  0  0  0  0  0  0  0  0  0  0  0  # atno 17394 bound_to 11000
  141.1970  133.6594  156.5721 LP  0  0  0  0  0  0  0  0  0  0  0  0  # atno 17395 bound_to 11000

$$$$
