AV-unprocessed.smi:2889|AV-procd|sdf|11113|dock6
  -GOLD-   2272015583D 1   1.00000     0.00000
 Structure written by MMmdl.
 35 36  0  0  0  0  0  0  0  0  2 V2000
  154.2577  141.3567  160.9667 C   0  0  0  0  0  0  0  0  0  0  0  0
  153.0094  141.0545  159.6835 S   0  0  0  0  0  0  0  0  0  0  0  0
  152.0388  142.6019  159.7214 C   0  0  1  0  0  0  0  0  0  0  0  0
  152.9509  143.8181  159.4033 C   0  0  0  0  0  0  0  0  0  0  0  0
  152.2066  145.1668  159.4916 C   0  0  0  0  0  0  0  0  0  0  0  0
  150.9565  145.1315  158.5893 C   0  0  0  0  0  0  0  0  0  0  0  0
  150.0351  143.9203  158.8886 C   0  0  0  0  0  0  0  0  0  0  0  0
  150.7537  142.5484  158.8390 C   0  0  1  0  0  0  0  0  0  0  0  0
  151.0817  142.2102  157.4593 N   0  5  0  0  0  0  0  0  0  0  0  0
  150.3638  140.9417  156.7490 S   0  0  0  0  0  0  0  0  0  0  0  0
  149.0528  140.6210  157.3383 O   0  0  0  0  0  0  0  0  0  0  0  0
  150.4390  141.0206  155.2811 O   0  0  0  0  0  0  0  0  0  0  0  0
  151.5073  139.5784  157.2440 C   0  0  0  0  0  0  0  0  0  0  0  0
  152.0277  138.8601  156.0283 C   0  0  0  0  0  0  0  0  0  0  0  0
  151.2893  138.1875  155.0150 C   0  0  0  0  0  0  0  0  0  0  0  0
  152.2542  137.7324  154.1643 C   0  0  0  0  0  0  0  0  0  0  0  0
  153.4865  138.0766  154.6160 O   0  0  0  0  0  0  0  0  0  0  0  0
  153.3323  138.7923  155.8087 N   0  0  0  0  0  0  0  0  0  0  0  0
  154.9670  140.5300  160.9962 H   0  0  0  0  0  0  0  0  0  0  0  0
  153.7945  141.4406  161.9496 H   0  0  0  0  0  0  0  0  0  0  0  0
  154.8063  142.2751  160.7585 H   0  0  0  0  0  0  0  0  0  0  0  0
  151.7161  142.7236  160.7561 H   0  0  0  0  0  0  0  0  0  0  0  0
  153.7909  143.8321  160.0985 H   0  0  0  0  0  0  0  0  0  0  0  0
  153.3928  143.7113  158.4102 H   0  0  0  0  0  0  0  0  0  0  0  0
  151.9095  145.3555  160.5239 H   0  0  0  0  0  0  0  0  0  0  0  0
  152.8648  145.9849  159.1982 H   0  0  0  0  0  0  0  0  0  0  0  0
  150.3918  146.0553  158.7180 H   0  0  0  0  0  0  0  0  0  0  0  0
  151.2661  145.1182  157.5423 H   0  0  0  0  0  0  0  0  0  0  0  0
  149.6116  144.0512  159.8851 H   0  0  0  0  0  0  0  0  0  0  0  0
  149.1850  143.9234  158.2050 H   0  0  0  0  0  0  0  0  0  0  0  0
  150.0804  141.8091  159.2741 H   0  0  0  0  0  0  0  0  0  0  0  0
  152.3256  140.0252  157.8088 H   0  0  0  0  0  0  0  0  0  0  0  0
  150.9773  138.9031  157.9151 H   0  0  0  0  0  0  0  0  0  0  0  0
  150.2194  138.0733  154.9213 H   0  0  0  0  0  0  0  0  0  0  0  0
  152.2256  137.1734  153.2407 H   0  0  0  0  0  0  0  0  0  0  0  0
  1  2  1  0  0  0  0
  1 19  1  0  0  0  0
  1 20  1  0  0  0  0
  1 21  1  0  0  0  0
  2  3  1  0  0  0  0
  3  8  1  0  0  0  0
  3  4  1  0  0  0  0
  3 22  1  0  0  0  0
  4  5  1  0  0  0  0
  4 23  1  0  0  0  0
  4 24  1  0  0  0  0
  5  6  1  0  0  0  0
  5 25  1  0  0  0  0
  5 26  1  0  0  0  0
  6  7  1  0  0  0  0
  6 27  1  0  0  0  0
  6 28  1  0  0  0  0
  7  8  1  0  0  0  0
  7 29  1  0  0  0  0
  7 30  1  0  0  0  0
  8  9  1  0  0  0  0
  8 31  1  0  0  0  0
  9 10  1  0  0  0  0
 10 11  2  0  0  0  0
 10 12  2  0  0  0  0
 10 13  1  0  0  0  0
 13 14  1  0  0  0  0
 13 32  1  0  0  0  0
 13 33  1  0  0  0  0
 14 18  2  0  0  0  0
 14 15  1  0  0  0  0
 15 16  2  0  0  0  0
 15 34  1  0  0  0  0
 16 17  1  0  0  0  0
 16 35  1  0  0  0  0
 17 18  1  0  0  0  0
M  CHG  1   9  -1
M  END
> <s_m_source_file>
AV-unprocessed.smi

> <i_m_source_file_index>
2889

> <i_lp_mmshare_version>
43012

> <i_f3d_flags>
0

> <s_epik_input>
W0NIM11TW0NAQEhdMVtDSDJdW0NIMl1bQ0gyXVtDSDJdW0NASF0xW05IXVMoPU8pKD1PKVtDSDJdYzJbY0hdW2NIXW9uMg==

> <s_epik_cmdline>
J2VwaWtfcHl0aG9uJywgJy1waCcsICc3LjAnLCAnLXRuJywgJzgnLCAnLW1hJywgJzIwMCcsICctbWV0YWxfYmluZGluZycsICctaW1hZScsICc8aW5maWxlLm1hZT4nLCAnLW9tYWUnLCAnPG91dGZpbGUubWFlPic=

> <r_lp_tautomer_probability>
1

> <r_epik_Ionization_Penalty>
4.65467

> <r_epik_Ionization_Penalty_Charging>
4.65467

> <r_epik_Ionization_Penalty_Neutral>
2.71476e-10

> <r_epik_State_Penalty>
4.65444

> <r_epik_Charging_Adjusted_Penalty>
9.30911

> <i_epik_Tot_Q>
-1

> <i_epik_Tot_abs_Q>
1

> <r_epik_Metal_State_Penalty>
0.901484

> <b_epik_Metal_Only>
1

> <s_lp_Force_Field>
OPLS_2005

> <r_lp_Energy>
11.2119

> <b_lp_Chiralities_Consistent>
1

> <s_lp_Variant>
AV-unprocessed.smi:2889-6

> <Gold.Version>
5.8.1

> <Gold.Id.Protein>
6NUR|6NUR_protein|mol2

> <Gold.PLP.Fitness>
44.3098

> <Gold.PLP.PLP>
-36.7628

> <Gold.PLP.part.hbond>
-3.0000

> <Gold.PLP.part.metal>
0.0000

> <Gold.PLP.part.buried>
-4.3611

> <Gold.PLP.part.nonpolar>
-29.7873

> <Gold.PLP.part.repulsive>
0.2182

> <Gold.PLP.ligand.clash>
0.0000

> <Gold.PLP.ligand.torsion>
0.5662

> <Gold.PLP.Chemscore.Hbond>
1.5478

> <Gold.PLP.Chemscore.CHOScore>
1.0000

> <Gold.PLP.Chemscore.Metal>
0.0000

> <Gold.Chemscore.Hbonds>
donor molecule, donor type, donor heavy atom, donor atom, acceptor molecule, acceptor atom, score
      P1  H  7989  7998       L1    12  0.53
      P1  H  7997  8008       L1    18  0.99
      L1  C    16    35       P1  7949  1.00

> <Gold.PLP.Chemscore.Internal.Correction>
1.0360

> <Gold.Rescore>
     Score         DG    S(hbond)    S(metal)    S(lipo)     H(rot)  DE(clash)    DE(int)     intcor
     18.61     -19.74       1.62        0.00     109.09       1.53       0.51       0.62       ----

> <Gold.Chemscore.Fitness>
18.6129

> <Gold.Chemscore.DG>
-19.7440

> <Gold.Chemscore.ZeroCoef>
-5.4800

> <Gold.Chemscore.Hbond>
1.6230

> <Gold.Chemscore.Metal>
0.0000

> <Gold.Chemscore.Lipo>
109.0899

> <Gold.Chemscore.Internal_Hbond>
0.0000

> <Gold.Chemscore.DEClash>
0.5092

> <Gold.Chemscore.DEInternal>
0.6219

> <Gold.Chemscore.Rot>
1.5314

> <Gold.Chemscore.Internal.Correction>
   9.000000E+99

> <Gold.Chemscore.Hbonds>
donor molecule, donor type, donor heavy atom, donor atom, acceptor molecule, acceptor atom, score
      P1  H  7989  7998       L1    12  0.52
      P1  H  7997  8008       L1    18  0.89

> <Gold.Chemscore.Hbond.Weighted>
-5.4209

> <Gold.Chemscore.Metal.Weighted>
-0.0000

> <Gold.Chemscore.Lipo.Weighted>
-12.7635

> <Gold.Chemscore.Internal_Hbond.Weighted>
0.0000

> <Gold.Chemscore.DEClash.Weighted>
0.5092

> <Gold.Chemscore.DEInternal.Weighted>
0.6219

> <Gold.Chemscore.Rot.Weighted>
3.9205

> <Gold.Chemscore.Internal.Correction.Weighted>
   9.000000E+99

> <Gold.Protein.RotatedTorsions>
[ 6907 6896 6895 6894 ] final  108.15 input  -60.11 | X-H torsion
[ 7974 7965 7964 7962 ] final    9.16 input  175.53 | X-H torsion
[ 8008 7997 7996 7995 ] final  -29.54 input   59.86 | X-H torsion
[ 10167 10162 10161 10158 ] final  -34.74 input  -65.29 | X-H torsion
[ 10718 10713 10712 10709 ] final -153.18 input   66.30 | X-H torsion
[ 10763 10752 10751 10750 ] final  146.49 input  -60.55 | X-H torsion
[ 11005 11000 10999 10996 ] final  144.78 input  -57.11 | X-H torsion

> <Gold.Protein.ActiveResidues>
 VAL166  LYS551  ARG553  GLY616  TRP617  ASP618  TYR619  PRO620  LYS621  CYS622 
 ASP623  PHE694  ASN695  SER759  ASP760  ASP761  ALA762  ILE779  LEU786  VAL792 
 PHE793  MET794  SER795  GLU796  ALA797  LYS798  CYS799  TRP800  GLU811  SER814 

> <Gold.Protein.RotatedAtoms>
  152.5124  133.9130  159.7496 H   0  0  0  0  0  0  0  0  0  0  0  0  # atno 6907 bound_to 6896
  150.9519  133.6531  159.2777 H   0  0  0  0  0  0  0  0  0  0  0  0  # atno 6908 bound_to 6896
  151.3807  135.0944  159.9548 H   0  0  0  0  0  0  0  0  0  0  0  0  # atno 6909 bound_to 6896
  146.2407  139.9825  142.8434 H   0  0  0  0  0  0  0  0  0  0  0  0  # atno 7974 bound_to 7965
  154.4286  140.1815  156.1264 H   0  0  0  0  0  0  0  0  0  0  0  0  # atno 8008 bound_to 7997
  156.0102  140.3351  155.6908 H   0  0  0  0  0  0  0  0  0  0  0  0  # atno 8009 bound_to 7997
  155.6121  140.0651  157.2694 H   0  0  0  0  0  0  0  0  0  0  0  0  # atno 8010 bound_to 7997
  140.7179  143.3526  151.2124 H   0  0  0  0  0  0  0  0  0  0  0  0  # atno 10167 bound_to 10162
  156.4824  130.8309  151.2535 H   0  0  0  0  0  0  0  0  0  0  0  0  # atno 10718 bound_to 10713
  154.0228  135.2904  155.3379 H   0  0  0  0  0  0  0  0  0  0  0  0  # atno 10763 bound_to 10752
  154.7036  135.5178  153.8565 H   0  0  0  0  0  0  0  0  0  0  0  0  # atno 10764 bound_to 10752
  153.0674  135.6635  154.0448 H   0  0  0  0  0  0  0  0  0  0  0  0  # atno 10765 bound_to 10752
  140.0660  134.9178  157.1264 H   0  0  0  0  0  0  0  0  0  0  0  0  # atno 11005 bound_to 11000
  145.1579  140.9657  143.4394 LP  0  0  0  0  0  0  0  0  0  0  0  0  # atno 17320 bound_to 7965
  145.0144  139.3481  143.6104 LP  0  0  0  0  0  0  0  0  0  0  0  0  # atno 17321 bound_to 7965
  139.7060  143.9454  152.2927 LP  0  0  0  0  0  0  0  0  0  0  0  0  # atno 17342 bound_to 10162
  139.9163  144.6826  150.8508 LP  0  0  0  0  0  0  0  0  0  0  0  0  # atno 17343 bound_to 10162
  157.7482  131.0041  150.3062 LP  0  0  0  0  0  0  0  0  0  0  0  0  # atno 17370 bound_to 10713
  156.3509  130.3831  149.7330 LP  0  0  0  0  0  0  0  0  0  0  0  0  # atno 17371 bound_to 10713
  140.3699  134.2402  155.7179 LP  0  0  0  0  0  0  0  0  0  0  0  0  # atno 17394 bound_to 11000
  141.1993  133.8015  157.0544 LP  0  0  0  0  0  0  0  0  0  0  0  0  # atno 17395 bound_to 11000

$$$$
