AV-unprocessed.smi:741|AV-procd|sdf|3554|dock1
  -GOLD-   22720 0553D 1   1.00000     0.00000
 Structure written by MMmdl.
 42 43  0  0  0  0  0  0  0  0  2 V2000
  147.2170  140.9626  153.3772 C   0  0  0  0  0  0  0  0  0  0  0  0
  146.9477  139.6950  152.5531 C   0  0  0  0  0  0  0  0  0  0  0  0
  146.4819  138.4925  153.3967 C   0  0  2  0  0  0  0  0  0  0  0  0
  147.2000  138.4609  154.7646 C   0  0  0  0  0  0  0  0  0  0  0  0
  148.5386  137.8254  154.7001 N   0  3  0  0  0  0  0  0  0  0  0  0
  149.6762  138.7660  154.8236 C   0  0  0  0  0  0  0  0  0  0  0  0
  150.7636  138.0470  155.6357 C   0  0  0  0  0  0  0  0  0  0  0  0
  150.2808  136.6034  155.7521 C   0  0  0  0  0  0  0  0  0  0  0  0
  148.7646  136.7380  155.6741 C   0  0  0  0  0  0  0  0  0  0  0  0
  146.7175  137.2500  152.6569 N   0  0  0  0  0  0  0  0  0  0  0  0
  145.7805  136.4813  152.0824 C   0  0  0  0  0  0  0  0  0  0  0  0
  144.5757  136.7214  152.1488 O   0  0  0  0  0  0  0  0  0  0  0  0
  146.3330  135.4225  151.4655 N   0  0  0  0  0  0  0  0  0  0  0  0
  145.6921  134.3691  150.7576 C   0  0  0  0  0  0  0  0  0  0  0  0
  146.4549  133.2202  150.4622 C   0  0  0  0  0  0  0  0  0  0  0  0
  145.8485  132.1661  149.7501 C   0  0  0  0  0  0  0  0  0  0  0  0
  144.5687  132.1993  149.3238 N   0  0  0  0  0  0  0  0  0  0  0  0
  143.8443  133.3056  149.5937 C   0  0  0  0  0  0  0  0  0  0  0  0
  144.3533  134.4145  150.2992 C   0  0  0  0  0  0  0  0  0  0  0  0
  147.5890  141.7653  152.7401 H   0  0  0  0  0  0  0  0  0  0  0  0
  147.9653  140.7783  154.1483 H   0  0  0  0  0  0  0  0  0  0  0  0
  146.3127  141.3250  153.8664 H   0  0  0  0  0  0  0  0  0  0  0  0
  146.2078  139.9168  151.7828 H   0  0  0  0  0  0  0  0  0  0  0  0
  147.8632  139.4282  152.0240 H   0  0  0  0  0  0  0  0  0  0  0  0
  145.4109  138.6172  153.5663 H   0  0  0  0  0  0  0  0  0  0  0  0
  147.3152  139.4866  155.1190 H   0  0  0  0  0  0  0  0  0  0  0  0
  146.5915  137.9470  155.5101 H   0  0  0  0  0  0  0  0  0  0  0  0
  150.0304  139.0327  153.8276 H   0  0  0  0  0  0  0  0  0  0  0  0
  149.3806  139.6867  155.3295 H   0  0  0  0  0  0  0  0  0  0  0  0
  151.7482  138.1175  155.1723 H   0  0  0  0  0  0  0  0  0  0  0  0
  150.8333  138.4921  156.6290 H   0  0  0  0  0  0  0  0  0  0  0  0
  150.6437  136.0205  154.9042 H   0  0  0  0  0  0  0  0  0  0  0  0
  150.6179  136.1149  156.6667 H   0  0  0  0  0  0  0  0  0  0  0  0
  148.3711  137.0248  156.6507 H   0  0  0  0  0  0  0  0  0  0  0  0
  148.2803  135.8085  155.3759 H   0  0  0  0  0  0  0  0  0  0  0  0
  147.6817  136.9681  152.5532 H   0  0  0  0  0  0  0  0  0  0  0  0
  147.3338  135.3281  151.5594 H   0  0  0  0  0  0  0  0  0  0  0  0
  147.4854  133.1401  150.7763 H   0  0  0  0  0  0  0  0  0  0  0  0
  146.4081  131.2727  149.5153 H   0  0  0  0  0  0  0  0  0  0  0  0
  142.8272  133.3110  149.2306 H   0  0  0  0  0  0  0  0  0  0  0  0
  143.7150  135.2697  150.4583 H   0  0  0  0  0  0  0  0  0  0  0  0
  148.6273  137.4070  153.7848 H   0  0  0  0  0  0  0  0  0  0  0  0
  1  2  1  0  0  0  0
  1 20  1  0  0  0  0
  1 21  1  0  0  0  0
  1 22  1  0  0  0  0
  2  3  1  0  0  0  0
  2 23  1  0  0  0  0
  2 24  1  0  0  0  0
  3  4  1  0  0  0  0
  3 10  1  0  0  0  0
  3 25  1  0  0  0  0
  4  5  1  0  0  0  0
  4 26  1  0  0  0  0
  4 27  1  0  0  0  0
  5  9  1  0  0  0  0
  5  6  1  0  0  0  0
  5 42  1  0  0  0  0
  6  7  1  0  0  0  0
  6 28  1  0  0  0  0
  6 29  1  0  0  0  0
  7  8  1  0  0  0  0
  7 30  1  0  0  0  0
  7 31  1  0  0  0  0
  8  9  1  0  0  0  0
  8 32  1  0  0  0  0
  8 33  1  0  0  0  0
  9 34  1  0  0  0  0
  9 35  1  0  0  0  0
 10 11  1  0  0  0  0
 10 36  1  0  0  0  0
 11 12  2  0  0  0  0
 11 13  1  0  0  0  0
 13 14  1  0  0  0  0
 13 37  1  0  0  0  0
 14 19  1  0  0  0  0
 14 15  2  0  0  0  0
 15 16  1  0  0  0  0
 15 38  1  0  0  0  0
 16 17  2  0  0  0  0
 16 39  1  0  0  0  0
 17 18  1  0  0  0  0
 18 19  2  0  0  0  0
 18 40  1  0  0  0  0
 19 41  1  0  0  0  0
M  CHG  1   5   1
M  END
> <s_m_source_file>
AV-unprocessed.smi

> <i_m_source_file_index>
741

> <i_lp_mmshare_version>
43012

> <i_f3d_flags>
0

> <s_epik_input>
W0NIMl0xW0NIMl1bQ0gyXVtDSDJdTjFbQ0gyXVtDQEBIXShbQ0gyXVtDSDNdKVtOSF1DKD1PKVtOSF1jMltjSF1bY0hdbltjSF1bY0hdMg==

> <s_epik_cmdline>
J2VwaWtfcHl0aG9uJywgJy1waCcsICc3LjAnLCAnLXRuJywgJzgnLCAnLW1hJywgJzIwMCcsICctbWV0YWxfYmluZGluZycsICctaW1hZScsICc8aW5maWxlLm1hZT4nLCAnLW9tYWUnLCAnPG91dGZpbGUubWFlPic=

> <r_epik_Ionization_Penalty>
0.101421

> <r_epik_Ionization_Penalty_Charging>
0.00180027

> <r_epik_Ionization_Penalty_Neutral>
0.0996204

> <r_epik_State_Penalty>
0.0910414

> <r_epik_Charging_Adjusted_Penalty>
0.0928416

> <i_epik_Tot_Q>
1

> <i_epik_Tot_abs_Q>
1

> <r_epik_Metal_State_Penalty>
0.076772

> <b_epik_Metal_Only>
0

> <s_lp_Force_Field>
OPLS_2005

> <r_lp_Energy>
40.6164

> <b_lp_Chiralities_Consistent>
1

> <s_lp_Variant>
AV-unprocessed.smi:741-1

> <Gold.Version>
5.8.1

> <Gold.Id.Protein>
6NUR|6NUR_protein|mol2

> <Gold.PLP.Fitness>
48.4284

> <Gold.PLP.PLP>
-33.3039

> <Gold.PLP.part.hbond>
-3.1564

> <Gold.PLP.part.metal>
0.0000

> <Gold.PLP.part.buried>
-2.8855

> <Gold.PLP.part.nonpolar>
-28.1107

> <Gold.PLP.part.repulsive>
0.4108

> <Gold.PLP.ligand.clash>
0.0000

> <Gold.PLP.ligand.torsion>
1.3134

> <Gold.PLP.Chemscore.Hbond>
3.9350

> <Gold.PLP.Chemscore.CHOScore>
1.8750

> <Gold.PLP.Chemscore.Metal>
0.0000

> <Gold.Chemscore.Hbonds>
donor molecule, donor type, donor heavy atom, donor atom, acceptor molecule, acceptor atom, score
      L1  H     5    42       P1  7948  0.81
      L1  H    10    36       P1  7948  1.00
      L1  H    13    37       P1  7948  0.93
      L1  C    16    39       P1 10747  0.54
      L1  C    18    40       P1 10186  1.00

> <Gold.PLP.Chemscore.Internal.Correction>
0.3214

> <Gold.Rescore>
     Score         DG    S(hbond)    S(metal)    S(lipo)     H(rot)  DE(clash)    DE(int)     intcor
     17.86     -21.52       2.83        0.00      91.10       1.59       0.75       2.91       ----

> <Gold.Chemscore.Fitness>
17.8619

> <Gold.Chemscore.DG>
-21.5227

> <Gold.Chemscore.ZeroCoef>
-5.4800

> <Gold.Chemscore.Hbond>
2.8273

> <Gold.Chemscore.Metal>
0.0000

> <Gold.Chemscore.Lipo>
91.1035

> <Gold.Chemscore.Internal_Hbond>
0.0000

> <Gold.Chemscore.DEClash>
0.7517

> <Gold.Chemscore.DEInternal>
2.9091

> <Gold.Chemscore.Rot>
1.5858

> <Gold.Chemscore.Internal.Correction>
   9.000000E+99

> <Gold.Chemscore.Hbonds>
donor molecule, donor type, donor heavy atom, donor atom, acceptor molecule, acceptor atom, score
      L1  H     5    42       P1  7948  0.41
      L1  H    10    36       P1  7948  0.98
      L1  H    13    37       P1  7948  0.84

> <Gold.Chemscore.Hbond.Weighted>
-9.4432

> <Gold.Chemscore.Metal.Weighted>
-0.0000

> <Gold.Chemscore.Lipo.Weighted>
-10.6591

> <Gold.Chemscore.Internal_Hbond.Weighted>
0.0000

> <Gold.Chemscore.DEClash.Weighted>
0.7517

> <Gold.Chemscore.DEInternal.Weighted>
2.9091

> <Gold.Chemscore.Rot.Weighted>
4.0596

> <Gold.Chemscore.Internal.Correction.Weighted>
   9.000000E+99

> <Gold.Protein.RotatedTorsions>
[ 6907 6896 6895 6894 ] final    7.07 input  -60.11 | X-H torsion
[ 7974 7965 7964 7962 ] final -126.19 input  175.53 | X-H torsion
[ 8008 7997 7996 7995 ] final    5.92 input   59.86 | X-H torsion
[ 10167 10162 10161 10158 ] final  -79.79 input  -65.29 | X-H torsion
[ 10718 10713 10712 10709 ] final   -6.65 input   66.30 | X-H torsion
[ 10763 10752 10751 10750 ] final    8.92 input  -60.55 | X-H torsion
[ 11005 11000 10999 10996 ] final -156.53 input  -57.11 | X-H torsion

> <Gold.Protein.ActiveResidues>
 VAL166  LYS551  ARG553  GLY616  TRP617  ASP618  TYR619  PRO620  LYS621  CYS622 
 ASP623  PHE694  ASN695  SER759  ASP760  ASP761  ALA762  ILE779  LEU786  VAL792 
 PHE793  MET794  SER795  GLU796  ALA797  LYS798  CYS799  TRP800  GLU811  SER814 

> <Gold.Protein.RotatedAtoms>
  151.6840  135.0957  160.0221 H   0  0  0  0  0  0  0  0  0  0  0  0  # atno 6907 bound_to 6896
  152.3818  133.6553  159.6176 H   0  0  0  0  0  0  0  0  0  0  0  0  # atno 6908 bound_to 6896
  150.7753  133.9017  159.3384 H   0  0  0  0  0  0  0  0  0  0  0  0  # atno 6909 bound_to 6896
  144.9898  140.7721  143.4561 H   0  0  0  0  0  0  0  0  0  0  0  0  # atno 7974 bound_to 7965
  154.7344  140.2737  155.6428 H   0  0  0  0  0  0  0  0  0  0  0  0  # atno 8008 bound_to 7997
  156.2858  140.2709  156.1979 H   0  0  0  0  0  0  0  0  0  0  0  0  # atno 8009 bound_to 7997
  155.0339  140.0371  157.2474 H   0  0  0  0  0  0  0  0  0  0  0  0  # atno 8010 bound_to 7997
  140.4561  143.2468  151.8418 H   0  0  0  0  0  0  0  0  0  0  0  0  # atno 10167 bound_to 10162
  156.7288  130.5173  149.5850 H   0  0  0  0  0  0  0  0  0  0  0  0  # atno 10718 bound_to 10713
  153.2197  135.6879  153.8015 H   0  0  0  0  0  0  0  0  0  0  0  0  # atno 10763 bound_to 10752
  153.7218  135.3266  155.3269 H   0  0  0  0  0  0  0  0  0  0  0  0  # atno 10764 bound_to 10752
  154.8263  135.4615  154.1039 H   0  0  0  0  0  0  0  0  0  0  0  0  # atno 10765 bound_to 10752
  140.6745  134.4211  157.5230 H   0  0  0  0  0  0  0  0  0  0  0  0  # atno 11005 bound_to 11000
  145.2301  139.2119  143.5047 LP  0  0  0  0  0  0  0  0  0  0  0  0  # atno 17320 bound_to 7965
  146.3429  140.2177  142.8591 LP  0  0  0  0  0  0  0  0  0  0  0  0  # atno 17321 bound_to 7965
  139.4801  144.5063  151.8993 LP  0  0  0  0  0  0  0  0  0  0  0  0  # atno 17342 bound_to 10162
  140.4149  144.2320  150.5888 LP  0  0  0  0  0  0  0  0  0  0  0  0  # atno 17343 bound_to 10162
  156.1543  130.6331  151.0637 LP  0  0  0  0  0  0  0  0  0  0  0  0  # atno 17370 bound_to 10713
  157.6867  131.0822  150.7222 LP  0  0  0  0  0  0  0  0  0  0  0  0  # atno 17371 bound_to 10713
  139.8971  134.8644  156.2059 LP  0  0  0  0  0  0  0  0  0  0  0  0  # atno 17394 bound_to 11000
  141.0366  133.6960  156.1523 LP  0  0  0  0  0  0  0  0  0  0  0  0  # atno 17395 bound_to 11000

$$$$
