AV-unprocessed.smi:1644|AV-procd|sdf|6586|dock1
  -GOLD-   22720 7273D 1   1.00000     0.00000
 Structure written by MMmdl.
 49 51  0  0  0  0  0  0  0  0  1 V2000
  151.6134  144.4647  159.0857 C   0  0  0  0  0  0  0  0  0  0  0  0
  150.3076  143.6636  159.1135 C   0  0  0  0  0  0  0  0  0  0  0  0
  150.4705  142.2545  158.5084 C   0  0  0  0  0  0  0  0  0  0  0  0
  151.1005  142.1971  157.0982 C   0  0  2  0  0  0  0  0  0  0  0  0
  150.1319  142.3374  156.0309 N   0  0  0  0  0  0  0  0  0  0  0  0
  150.1539  141.3043  155.1790 C   0  0  0  0  0  0  0  0  0  0  0  0
  149.4284  141.1896  154.1926 O   0  0  0  0  0  0  0  0  0  0  0  0
  151.0993  140.4350  155.5847 N   0  0  0  0  0  0  0  0  0  0  0  0
  151.4219  139.1775  154.8944 C   0  0  0  0  0  0  0  0  0  0  0  0
  150.5698  137.9630  155.3465 C   0  0  1  0  0  0  0  0  0  0  0  0
  149.2196  138.2542  155.0526 O   0  0  0  0  0  0  0  0  0  0  0  0
  150.9029  136.6046  154.6865 C   0  0  0  0  0  0  0  0  0  0  0  0
  150.6274  135.4483  155.5216 N   0  0  0  0  0  0  0  0  0  0  0  0
  151.0971  135.2251  156.7646 C   0  0  0  0  0  0  0  0  0  0  0  0
  150.7126  134.1055  157.3701 N   0  0  0  0  0  0  0  0  0  0  0  0
  149.9182  133.5226  156.3989 C   0  0  0  0  0  0  0  0  0  0  0  0
  149.1886  132.3143  156.4191 C   0  0  0  0  0  0  0  0  0  0  0  0
  148.4301  131.9071  155.2991 C   0  0  0  0  0  0  0  0  0  0  0  0
  147.6496  130.6064  155.3687 C   0  0  0  0  0  0  0  0  0  0  0  0
  148.4039  132.7086  154.1302 C   0  0  0  0  0  0  0  0  0  0  0  0
  147.5956  132.2929  152.9141 C   0  0  0  0  0  0  0  0  0  0  0  0
  149.1306  133.9164  154.0917 C   0  0  0  0  0  0  0  0  0  0  0  0
  149.8648  134.3231  155.2201 C   0  0  0  0  0  0  0  0  0  0  0  0
  151.6782  140.8455  156.7224 C   0  0  0  0  0  0  0  0  0  0  0  0
  152.5366  140.2577  157.3800 O   0  0  0  0  0  0  0  0  0  0  0  0
  151.4707  145.4555  159.5176 H   0  0  0  0  0  0  0  0  0  0  0  0
  151.9741  144.5952  158.0649 H   0  0  0  0  0  0  0  0  0  0  0  0
  152.3950  143.9626  159.6564 H   0  0  0  0  0  0  0  0  0  0  0  0
  149.9606  143.5933  160.1448 H   0  0  0  0  0  0  0  0  0  0  0  0
  149.5430  144.2169  158.5675 H   0  0  0  0  0  0  0  0  0  0  0  0
  151.0829  141.6538  159.1818 H   0  0  0  0  0  0  0  0  0  0  0  0
  149.4977  141.7616  158.4795 H   0  0  0  0  0  0  0  0  0  0  0  0
  151.8720  142.9606  156.9901 H   0  0  0  0  0  0  0  0  0  0  0  0
  149.5154  143.1330  155.9489 H   0  0  0  0  0  0  0  0  0  0  0  0
  151.2587  139.3566  153.8300 H   0  0  0  0  0  0  0  0  0  0  0  0
  152.4815  138.9333  154.9853 H   0  0  0  0  0  0  0  0  0  0  0  0
  150.6155  137.8600  156.4290 H   0  0  0  0  0  0  0  0  0  0  0  0
  149.0348  139.1370  155.3352 H   0  0  0  0  0  0  0  0  0  0  0  0
  150.3319  136.4894  153.7643 H   0  0  0  0  0  0  0  0  0  0  0  0
  151.9563  136.5804  154.4024 H   0  0  0  0  0  0  0  0  0  0  0  0
  151.7396  135.9362  157.2631 H   0  0  0  0  0  0  0  0  0  0  0  0
  149.2134  131.7018  157.3084 H   0  0  0  0  0  0  0  0  0  0  0  0
  147.9951  129.9123  154.6024 H   0  0  0  0  0  0  0  0  0  0  0  0
  146.5861  130.7909  155.2157 H   0  0  0  0  0  0  0  0  0  0  0  0
  147.7688  130.1210  156.3377 H   0  0  0  0  0  0  0  0  0  0  0  0
  147.7044  133.0103  152.1002 H   0  0  0  0  0  0  0  0  0  0  0  0
  146.5365  132.2292  153.1644 H   0  0  0  0  0  0  0  0  0  0  0  0
  147.9257  131.3204  152.5487 H   0  0  0  0  0  0  0  0  0  0  0  0
  149.1123  134.5350  153.2072 H   0  0  0  0  0  0  0  0  0  0  0  0
  1  2  1  0  0  0  0
  1 26  1  0  0  0  0
  1 27  1  0  0  0  0
  1 28  1  0  0  0  0
  2  3  1  0  0  0  0
  2 29  1  0  0  0  0
  2 30  1  0  0  0  0
  3  4  1  0  0  0  0
  3 31  1  0  0  0  0
  3 32  1  0  0  0  0
  4 24  1  0  0  0  0
  4  5  1  0  0  0  0
  4 33  1  0  0  0  0
  5  6  1  0  0  0  0
  5 34  1  0  0  0  0
  6  7  2  0  0  0  0
  6  8  1  0  0  0  0
  8  9  1  0  0  0  0
  8 24  1  0  0  0  0
  9 10  1  0  0  0  0
  9 35  1  0  0  0  0
  9 36  1  0  0  0  0
 10 11  1  0  0  0  0
 10 12  1  0  0  0  0
 10 37  1  0  0  0  0
 11 38  1  0  0  0  0
 12 13  1  0  0  0  0
 12 39  1  0  0  0  0
 12 40  1  0  0  0  0
 13 23  1  0  0  0  0
 13 14  1  0  0  0  0
 14 15  2  0  0  0  0
 14 41  1  0  0  0  0
 15 16  1  0  0  0  0
 16 23  2  0  0  0  0
 16 17  1  0  0  0  0
 17 18  2  0  0  0  0
 17 42  1  0  0  0  0
 18 19  1  0  0  0  0
 18 20  1  0  0  0  0
 19 43  1  0  0  0  0
 19 44  1  0  0  0  0
 19 45  1  0  0  0  0
 20 21  1  0  0  0  0
 20 22  2  0  0  0  0
 21 46  1  0  0  0  0
 21 47  1  0  0  0  0
 21 48  1  0  0  0  0
 22 23  1  0  0  0  0
 22 49  1  0  0  0  0
 24 25  2  0  0  0  0
M  END
> <s_m_source_file>
AV-unprocessed.smi

> <i_m_source_file_index>
1644

> <i_lp_mmshare_version>
43012

> <i_f3d_flags>
0

> <s_epik_input>
W0NIM11bQ0gyXVtDSDJdW0NAQEhdMVtOSF1DKD1PKU4oQzE9TylbQ0gyXVtDQEhdKFtPSF0pW0NIMl1uKFtjSF1uMiljKGMyMylbY0hdYyhbQ0gzXSljKFtjSF0zKVtDSDNd

> <s_epik_cmdline>
J2VwaWtfcHl0aG9uJywgJy1waCcsICc3LjAnLCAnLXRuJywgJzgnLCAnLW1hJywgJzIwMCcsICctbWV0YWxfYmluZGluZycsICctaW1hZScsICc8aW5maWxlLm1hZT4nLCAnLW9tYWUnLCAnPG91dGZpbGUubWFlPic=

> <r_lp_tautomer_probability>
1

> <r_epik_Ionization_Penalty>
0.10693

> <r_epik_Ionization_Penalty_Charging>
0

> <r_epik_Ionization_Penalty_Neutral>
0.10693

> <r_epik_State_Penalty>
0.096713

> <r_epik_Charging_Adjusted_Penalty>
0.096713

> <i_epik_Tot_Q>
0

> <i_epik_Tot_abs_Q>
0

> <r_epik_Metal_State_Penalty>
0.102757

> <b_epik_Metal_Only>
0

> <s_lp_Force_Field>
OPLS_2005

> <r_lp_Energy>
20.4665

> <b_lp_Chiralities_Consistent>
1

> <s_lp_Variant>
AV-unprocessed.smi:1644-3

> <Gold.Version>
5.8.1

> <Gold.Id.Protein>
6NUR|6NUR_protein|mol2

> <Gold.PLP.Fitness>
48.1513

> <Gold.PLP.PLP>
-40.7745

> <Gold.PLP.part.hbond>
-4.9265

> <Gold.PLP.part.metal>
0.0000

> <Gold.PLP.part.buried>
-0.2576

> <Gold.PLP.part.nonpolar>
-34.6483

> <Gold.PLP.part.repulsive>
0.2987

> <Gold.PLP.ligand.clash>
0.0000

> <Gold.PLP.ligand.torsion>
1.0306

> <Gold.PLP.Chemscore.Hbond>
3.0204

> <Gold.PLP.Chemscore.CHOScore>
0.0000

> <Gold.PLP.Chemscore.Metal>
0.0000

> <Gold.Chemscore.Hbonds>
donor molecule, donor type, donor heavy atom, donor atom, acceptor molecule, acceptor atom, score
      L1  H     5    34       P1  8028  1.00
      P1  H  6896  6908       L1    15  0.59
      P1  H  7997  8010       L1    25  0.99
      P1  H  8011  8017       L1     7  0.34

> <Gold.PLP.Chemscore.Internal.Correction>
0.3766

> <Gold.Rescore>
     Score         DG    S(hbond)    S(metal)    S(lipo)     H(rot)  DE(clash)    DE(int)     intcor
     16.81     -17.97       2.75        0.00      87.65       2.72       0.18       0.98       ----

> <Gold.Chemscore.Fitness>
16.8062

> <Gold.Chemscore.DG>
-17.9691

> <Gold.Chemscore.ZeroCoef>
-5.4800

> <Gold.Chemscore.Hbond>
2.7546

> <Gold.Chemscore.Metal>
0.0000

> <Gold.Chemscore.Lipo>
87.6491

> <Gold.Chemscore.Internal_Hbond>
0.0000

> <Gold.Chemscore.DEClash>
0.1790

> <Gold.Chemscore.DEInternal>
0.9838

> <Gold.Chemscore.Rot>
2.7212

> <Gold.Chemscore.Internal.Correction>
   9.000000E+99

> <Gold.Chemscore.Hbonds>
donor molecule, donor type, donor heavy atom, donor atom, acceptor molecule, acceptor atom, score
      L1  H     5    34       P1  8028  1.00
      P1  H  6896  6908       L1    15  0.60
      P1  H  7997  8010       L1    25  0.90
      P1  H  8011  8017       L1     7  0.32

> <Gold.Chemscore.Hbond.Weighted>
-9.2004

> <Gold.Chemscore.Metal.Weighted>
-0.0000

> <Gold.Chemscore.Lipo.Weighted>
-10.2549

> <Gold.Chemscore.Internal_Hbond.Weighted>
0.0000

> <Gold.Chemscore.DEClash.Weighted>
0.1790

> <Gold.Chemscore.DEInternal.Weighted>
0.9838

> <Gold.Chemscore.Rot.Weighted>
6.9663

> <Gold.Chemscore.Internal.Correction.Weighted>
   9.000000E+99

> <Gold.Protein.RotatedTorsions>
[ 6907 6896 6895 6894 ] final  117.13 input  -60.11 | X-H torsion
[ 7974 7965 7964 7962 ] final   29.44 input  175.53 | X-H torsion
[ 8008 7997 7996 7995 ] final   56.65 input   59.86 | X-H torsion
[ 10167 10162 10161 10158 ] final  -38.38 input  -65.29 | X-H torsion
[ 10718 10713 10712 10709 ] final  -88.23 input   66.30 | X-H torsion
[ 10763 10752 10751 10750 ] final   99.18 input  -60.55 | X-H torsion
[ 11005 11000 10999 10996 ] final   68.92 input  -57.11 | X-H torsion

> <Gold.Protein.ActiveResidues>
 VAL166  LYS551  ARG553  GLY616  TRP617  ASP618  TYR619  PRO620  LYS621  CYS622 
 ASP623  PHE694  ASN695  SER759  ASP760  ASP761  ALA762  ILE779  LEU786  VAL792 
 PHE793  MET794  SER795  GLU796  ALA797  LYS798  CYS799  TRP800  GLU811  SER814 

> <Gold.Protein.RotatedAtoms>
  152.4632  133.7867  159.6879 H   0  0  0  0  0  0  0  0  0  0  0  0  # atno 6907 bound_to 6896
  150.8585  133.7669  159.3007 H   0  0  0  0  0  0  0  0  0  0  0  0  # atno 6908 bound_to 6896
  151.5242  135.1070  159.9938 H   0  0  0  0  0  0  0  0  0  0  0  0  # atno 6909 bound_to 6896
  146.1671  139.6922  142.8993 H   0  0  0  0  0  0  0  0  0  0  0  0  # atno 7974 bound_to 7965
  155.5210  140.3479  155.4407 H   0  0  0  0  0  0  0  0  0  0  0  0  # atno 8008 bound_to 7997
  156.0784  140.1380  156.9769 H   0  0  0  0  0  0  0  0  0  0  0  0  # atno 8009 bound_to 7997
  154.4566  140.0951  156.6751 H   0  0  0  0  0  0  0  0  0  0  0  0  # atno 8010 bound_to 7997
  140.7093  143.3281  151.2634 H   0  0  0  0  0  0  0  0  0  0  0  0  # atno 10167 bound_to 10162
  155.9984  130.4828  150.4987 H   0  0  0  0  0  0  0  0  0  0  0  0  # atno 10718 bound_to 10713
  153.2982  135.4122  155.1228 H   0  0  0  0  0  0  0  0  0  0  0  0  # atno 10763 bound_to 10752
  154.8541  135.3535  154.5888 H   0  0  0  0  0  0  0  0  0  0  0  0  # atno 10764 bound_to 10752
  153.6313  135.7060  153.5333 H   0  0  0  0  0  0  0  0  0  0  0  0  # atno 10765 bound_to 10752
  139.9683  134.6942  156.0498 H   0  0  0  0  0  0  0  0  0  0  0  0  # atno 11005 bound_to 11000
  145.4438  141.0424  143.2843 LP  0  0  0  0  0  0  0  0  0  0  0  0  # atno 17320 bound_to 7965
  144.8109  139.5965  143.7030 LP  0  0  0  0  0  0  0  0  0  0  0  0  # atno 17321 bound_to 7965
  139.6754  143.9946  152.2778 LP  0  0  0  0  0  0  0  0  0  0  0  0  # atno 17342 bound_to 10162
  139.9558  144.6590  150.8127 LP  0  0  0  0  0  0  0  0  0  0  0  0  # atno 17343 bound_to 10162
  157.2974  131.0638  151.2092 LP  0  0  0  0  0  0  0  0  0  0  0  0  # atno 17370 bound_to 10713
  157.3083  130.6877  149.6201 LP  0  0  0  0  0  0  0  0  0  0  0  0  # atno 17371 bound_to 10713
  141.1363  133.6574  156.3604 LP  0  0  0  0  0  0  0  0  0  0  0  0  # atno 17394 bound_to 11000
  140.5347  134.6178  157.5361 LP  0  0  0  0  0  0  0  0  0  0  0  0  # atno 17395 bound_to 11000

$$$$
