AV-unprocessed.smi:2482|AV-procd|sdf|9779|dock1
  -GOLD-   2272013423D 1   1.00000     0.00000
 Structure written by MMmdl.
 34 35  0  0  0  0  0  0  0  0  1 V2000
  151.8082  145.8924  160.5996 C   0  0  0  0  0  0  0  0  0  0  0  0
  152.1408  144.4208  160.4380 C   0  0  0  0  0  0  0  0  0  0  0  0
  152.6130  143.8030  161.5427 N   0  0  0  0  0  0  0  0  0  0  0  0
  152.9157  142.4918  161.4562 C   0  0  0  0  0  0  0  0  0  0  0  0
  152.7706  141.7392  160.2754 C   0  0  0  0  0  0  0  0  0  0  0  0
  152.2925  142.3871  159.1113 C   0  0  0  0  0  0  0  0  0  0  0  0
  152.0878  141.7193  157.8723 N   0  0  0  0  0  0  0  0  0  0  0  0
  152.3065  140.4287  157.5581 C   0  0  0  0  0  0  0  0  0  0  0  0
  152.7317  139.5837  158.3463 O   0  0  0  0  0  0  0  0  0  0  0  0
  151.9873  140.0362  156.1080 C   0  0  2  0  0  0  0  0  0  0  0  0
  150.5527  140.4228  155.6810 C   0  0  0  0  0  0  0  0  0  0  0  0
  150.2529  139.9801  154.3251 N   0  0  0  0  0  0  0  0  0  0  0  0
  148.9010  140.3438  153.9292 C   0  0  0  0  0  0  0  0  0  0  0  0
  150.4773  138.5452  154.2165 C   0  0  0  0  0  0  0  0  0  0  0  0
  151.9048  138.1617  154.6396 C   0  0  0  0  0  0  0  0  0  0  0  0
  152.1489  138.6238  155.9644 O   0  0  0  0  0  0  0  0  0  0  0  0
  151.9575  143.7588  159.2012 C   0  0  0  0  0  0  0  0  0  0  0  0
  151.3415  144.6124  157.8254 Cl  0  0  0  0  0  0  0  0  0  0  0  0
  152.4049  146.4935  159.9132 H   0  0  0  0  0  0  0  0  0  0  0  0
  152.0102  146.2405  161.6137 H   0  0  0  0  0  0  0  0  0  0  0  0
  150.7536  146.0687  160.3865 H   0  0  0  0  0  0  0  0  0  0  0  0
  153.2783  142.0241  162.3597 H   0  0  0  0  0  0  0  0  0  0  0  0
  153.0139  140.6883  160.2913 H   0  0  0  0  0  0  0  0  0  0  0  0
  151.8184  142.3143  157.1017 H   0  0  0  0  0  0  0  0  0  0  0  0
  152.7095  140.5416  155.4642 H   0  0  0  0  0  0  0  0  0  0  0  0
  149.8338  139.9875  156.3774 H   0  0  0  0  0  0  0  0  0  0  0  0
  150.4306  141.5051  155.7429 H   0  0  0  0  0  0  0  0  0  0  0  0
  148.7032  140.0355  152.9021 H   0  0  0  0  0  0  0  0  0  0  0  0
  148.7597  141.4236  153.9843 H   0  0  0  0  0  0  0  0  0  0  0  0
  148.1602  139.8707  154.5750 H   0  0  0  0  0  0  0  0  0  0  0  0
  149.7604  138.0102  154.8411 H   0  0  0  0  0  0  0  0  0  0  0  0
  150.3023  138.2195  153.1906 H   0  0  0  0  0  0  0  0  0  0  0  0
  152.0320  137.0794  154.6102 H   0  0  0  0  0  0  0  0  0  0  0  0
  152.6396  138.5904  153.9566 H   0  0  0  0  0  0  0  0  0  0  0  0
  1  2  1  0  0  0  0
  1 19  1  0  0  0  0
  1 20  1  0  0  0  0
  1 21  1  0  0  0  0
  2 17  1  0  0  0  0
  2  3  2  0  0  0  0
  3  4  1  0  0  0  0
  4  5  2  0  0  0  0
  4 22  1  0  0  0  0
  5  6  1  0  0  0  0
  5 23  1  0  0  0  0
  6  7  1  0  0  0  0
  6 17  2  0  0  0  0
  7  8  1  0  0  0  0
  7 24  1  0  0  0  0
  8  9  2  0  0  0  0
  8 10  1  0  0  0  0
 10 16  1  0  0  0  0
 10 11  1  0  0  0  0
 10 25  1  0  0  0  0
 11 12  1  0  0  0  0
 11 26  1  0  0  0  0
 11 27  1  0  0  0  0
 12 13  1  0  0  0  0
 12 14  1  0  0  0  0
 13 28  1  0  0  0  0
 13 29  1  0  0  0  0
 13 30  1  0  0  0  0
 14 15  1  0  0  0  0
 14 31  1  0  0  0  0
 14 32  1  0  0  0  0
 15 16  1  0  0  0  0
 15 33  1  0  0  0  0
 15 34  1  0  0  0  0
 17 18  1  0  0  0  0
M  END
> <s_m_source_file>
AV-unprocessed.smi

> <i_m_source_file_index>
2482

> <i_lp_mmshare_version>
43012

> <i_f3d_flags>
0

> <s_epik_input>
W0NIM11jMW5bY0hdW2NIXWMoYzFDbClbTkhdQyg9TylbQ0BASF0yW0NIMl1OKFtDSDNdKVtDSDJdW0NIMl1PMg==

> <s_epik_cmdline>
J2VwaWtfcHl0aG9uJywgJy1waCcsICc3LjAnLCAnLXRuJywgJzgnLCAnLW1hJywgJzIwMCcsICctbWV0YWxfYmluZGluZycsICctaW1hZScsICc8aW5maWxlLm1hZT4nLCAnLW9tYWUnLCAnPG91dGZpbGUubWFlPic=

> <r_epik_Ionization_Penalty>
0.52656

> <r_epik_Ionization_Penalty_Charging>
0

> <r_epik_Ionization_Penalty_Neutral>
0.52656

> <r_epik_State_Penalty>
0.534659

> <r_epik_Charging_Adjusted_Penalty>
0.534659

> <i_epik_Tot_Q>
0

> <i_epik_Tot_abs_Q>
0

> <r_epik_Metal_State_Penalty>
0.54077

> <b_epik_Metal_Only>
0

> <s_lp_Force_Field>
OPLS_2005

> <r_lp_Energy>
25.1239

> <b_lp_Chiralities_Consistent>
1

> <s_lp_Variant>
AV-unprocessed.smi:2482-5

> <Gold.Version>
5.8.1

> <Gold.Id.Protein>
6NUR|6NUR_protein|mol2

> <Gold.PLP.Fitness>
41.7805

> <Gold.PLP.PLP>
-38.9153

> <Gold.PLP.part.hbond>
-1.0000

> <Gold.PLP.part.metal>
0.0000

> <Gold.PLP.part.buried>
-0.5687

> <Gold.PLP.part.nonpolar>
-37.7720

> <Gold.PLP.part.repulsive>
0.3312

> <Gold.PLP.ligand.clash>
0.0000

> <Gold.PLP.ligand.torsion>
0.0685

> <Gold.PLP.Chemscore.Hbond>
1.0000

> <Gold.PLP.Chemscore.CHOScore>
0.0000

> <Gold.PLP.Chemscore.Metal>
0.0000

> <Gold.Chemscore.Hbonds>
donor molecule, donor type, donor heavy atom, donor atom, acceptor molecule, acceptor atom, score
      P1  H  7989  7998       L1    12  0.85

> <Gold.PLP.Chemscore.Internal.Correction>
0.0022

> <Gold.Rescore>
     Score         DG    S(hbond)    S(metal)    S(lipo)     H(rot)  DE(clash)    DE(int)     intcor
     14.25     -16.34       0.02        0.00     114.07       1.00       0.82       1.28       ----

> <Gold.Chemscore.Fitness>
14.2492

> <Gold.Chemscore.DG>
-16.3439

> <Gold.Chemscore.ZeroCoef>
-5.4800

> <Gold.Chemscore.Hbond>
0.0234

> <Gold.Chemscore.Metal>
0.0000

> <Gold.Chemscore.Lipo>
114.0653

> <Gold.Chemscore.Internal_Hbond>
0.0000

> <Gold.Chemscore.DEClash>
0.8191

> <Gold.Chemscore.DEInternal>
1.2756

> <Gold.Chemscore.Rot>
1.0000

> <Gold.Chemscore.Internal.Correction>
   9.000000E+99

> <Gold.Chemscore.Hbonds>
donor molecule, donor type, donor heavy atom, donor atom, acceptor molecule, acceptor atom, score
      P1  H  7989  7998       L1    12  0.09

> <Gold.Chemscore.Hbond.Weighted>
-0.0782

> <Gold.Chemscore.Metal.Weighted>
-0.0000

> <Gold.Chemscore.Lipo.Weighted>
-13.3456

> <Gold.Chemscore.Internal_Hbond.Weighted>
0.0000

> <Gold.Chemscore.DEClash.Weighted>
0.8191

> <Gold.Chemscore.DEInternal.Weighted>
1.2756

> <Gold.Chemscore.Rot.Weighted>
2.5600

> <Gold.Chemscore.Internal.Correction.Weighted>
   9.000000E+99

> <Gold.Protein.RotatedTorsions>
[ 6907 6896 6895 6894 ] final -156.80 input  -60.11 | X-H torsion
[ 7974 7965 7964 7962 ] final -109.65 input  175.53 | X-H torsion
[ 8008 7997 7996 7995 ] final  -37.49 input   59.86 | X-H torsion
[ 10167 10162 10161 10158 ] final   98.05 input  -65.29 | X-H torsion
[ 10718 10713 10712 10709 ] final   48.12 input   66.30 | X-H torsion
[ 10763 10752 10751 10750 ] final -166.05 input  -60.55 | X-H torsion
[ 11005 11000 10999 10996 ] final   93.61 input  -57.11 | X-H torsion

> <Gold.Protein.ActiveResidues>
 VAL166  LYS551  ARG553  GLY616  TRP617  ASP618  TYR619  PRO620  LYS621  CYS622 
 ASP623  PHE694  ASN695  SER759  ASP760  ASP761  ALA762  ILE779  LEU786  VAL792 
 PHE793  MET794  SER795  GLU796  ALA797  LYS798  CYS799  TRP800  GLU811  SER814 

> <Gold.Protein.RotatedAtoms>
  151.2932  133.4156  159.2634 H   0  0  0  0  0  0  0  0  0  0  0  0  # atno 6907 bound_to 6896
  151.0259  134.9504  159.8095 H   0  0  0  0  0  0  0  0  0  0  0  0  # atno 6908 bound_to 6896
  152.5335  134.2894  159.9090 H   0  0  0  0  0  0  0  0  0  0  0  0  # atno 6909 bound_to 6896
  145.1779  140.8957  143.3497 H   0  0  0  0  0  0  0  0  0  0  0  0  # atno 7974 bound_to 7965
  154.4052  140.1603  156.2545 H   0  0  0  0  0  0  0  0  0  0  0  0  # atno 8008 bound_to 7997
  155.9090  140.3428  155.6061 H   0  0  0  0  0  0  0  0  0  0  0  0  # atno 8009 bound_to 7997
  155.7358  140.0786  157.2259 H   0  0  0  0  0  0  0  0  0  0  0  0  # atno 8010 bound_to 7997
  139.7744  144.6911  151.0110 H   0  0  0  0  0  0  0  0  0  0  0  0  # atno 10167 bound_to 10162
  157.4654  130.8222  149.7931 H   0  0  0  0  0  0  0  0  0  0  0  0  # atno 10718 bound_to 10713
  154.6871  135.2964  154.9532 H   0  0  0  0  0  0  0  0  0  0  0  0  # atno 10763 bound_to 10752
  154.0507  135.6645  153.4804 H   0  0  0  0  0  0  0  0  0  0  0  0  # atno 10764 bound_to 10752
  153.0586  135.5129  154.7944 H   0  0  0  0  0  0  0  0  0  0  0  0  # atno 10765 bound_to 10752
  139.8808  134.8800  156.3743 H   0  0  0  0  0  0  0  0  0  0  0  0  # atno 11005 bound_to 11000
  145.0166  139.3461  143.6093 LP  0  0  0  0  0  0  0  0  0  0  0  0  # atno 17320 bound_to 7965
  146.3458  139.9450  142.8736 LP  0  0  0  0  0  0  0  0  0  0  0  0  # atno 17321 bound_to 7965
  140.7815  143.4552  151.0356 LP  0  0  0  0  0  0  0  0  0  0  0  0  # atno 17342 bound_to 10162
  139.8235  143.7788  152.3178 LP  0  0  0  0  0  0  0  0  0  0  0  0  # atno 17343 bound_to 10162
  156.0048  130.3861  150.2471 LP  0  0  0  0  0  0  0  0  0  0  0  0  # atno 17370 bound_to 10713
  157.0651  131.0101  151.3209 LP  0  0  0  0  0  0  0  0  0  0  0  0  # atno 17371 bound_to 10713
  140.9442  133.7494  156.0186 LP  0  0  0  0  0  0  0  0  0  0  0  0  # atno 17394 bound_to 11000
  140.8183  134.3319  157.5390 LP  0  0  0  0  0  0  0  0  0  0  0  0  # atno 17395 bound_to 11000

$$$$
