AV-unprocessed.smi:2471|AV-procd|sdf|9738|dock4
  -GOLD-   2272013373D 1   1.00000     0.00000
 Structure written by MMmdl.
 40 41  0  0  0  0  0  0  0  0  1 V2000
  152.5512  142.7852  162.1743 C   0  0  0  0  0  0  0  0  0  0  0  0
  152.0675  143.6922  161.0624 C   0  0  0  0  0  0  0  0  0  0  0  0
  152.1269  145.0935  161.1931 C   0  0  0  0  0  0  0  0  0  0  0  0
  151.6651  145.8790  160.1218 C   0  0  0  0  0  0  0  0  0  0  0  0
  151.1674  145.2358  158.9719 C   0  0  0  0  0  0  0  0  0  0  0  0
  151.1449  143.8239  158.9200 C   0  0  0  0  0  0  0  0  0  0  0  0
  150.6313  143.2731  157.7153 N   0  0  0  0  0  0  0  0  0  0  0  0
  150.7902  142.0254  157.2389 C   0  0  0  0  0  0  0  0  0  0  0  0
  151.4011  141.1184  157.8053 O   0  0  0  0  0  0  0  0  0  0  0  0
  150.1916  141.8791  156.0479 N   0  0  0  0  0  0  0  0  0  0  0  0
  150.1842  140.6485  155.2621 C   0  0  0  0  0  0  0  0  0  0  0  0
  148.7769  140.2914  154.7318 C   0  0  1  0  0  0  0  0  0  0  0  0
  148.2970  141.2415  153.6110 C   0  0  0  0  0  0  0  0  0  0  0  0
  146.8787  140.8865  153.1367 C   0  0  0  0  0  0  0  0  0  0  0  0
  146.7893  139.4232  152.6796 C   0  0  0  0  0  0  0  0  0  0  0  0
  147.2636  138.4638  153.7845 C   0  0  0  0  0  0  0  0  0  0  0  0
  148.6783  138.8115  154.2877 C   0  0  1  0  0  0  0  0  0  0  0  0
  149.6195  138.5167  153.2722 O   0  0  0  0  0  0  0  0  0  0  0  0
  151.5917  143.0753  159.9592 N   0  0  0  0  0  0  0  0  0  0  0  0
  152.6869  143.3393  163.1035 H   0  0  0  0  0  0  0  0  0  0  0  0
  153.5055  142.3333  161.9028 H   0  0  0  0  0  0  0  0  0  0  0  0
  151.8322  141.9862  162.3585 H   0  0  0  0  0  0  0  0  0  0  0  0
  152.5164  145.5560  162.0881 H   0  0  0  0  0  0  0  0  0  0  0  0
  151.6931  146.9572  160.1795 H   0  0  0  0  0  0  0  0  0  0  0  0
  150.8106  145.8250  158.1396 H   0  0  0  0  0  0  0  0  0  0  0  0
  150.0959  143.9079  157.1421 H   0  0  0  0  0  0  0  0  0  0  0  0
  149.7087  142.6735  155.6543 H   0  0  0  0  0  0  0  0  0  0  0  0
  150.8773  140.7815  154.4312 H   0  0  0  0  0  0  0  0  0  0  0  0
  150.5822  139.8291  155.8632 H   0  0  0  0  0  0  0  0  0  0  0  0
  148.0824  140.4078  155.5657 H   0  0  0  0  0  0  0  0  0  0  0  0
  148.3047  142.2745  153.9595 H   0  0  0  0  0  0  0  0  0  0  0  0
  148.9867  141.1981  152.7670 H   0  0  0  0  0  0  0  0  0  0  0  0
  146.1692  141.0600  153.9468 H   0  0  0  0  0  0  0  0  0  0  0  0
  146.5839  141.5479  152.3214 H   0  0  0  0  0  0  0  0  0  0  0  0
  145.7636  139.1847  152.3971 H   0  0  0  0  0  0  0  0  0  0  0  0
  147.3948  139.2823  151.7835 H   0  0  0  0  0  0  0  0  0  0  0  0
  146.5659  138.5154  154.6214 H   0  0  0  0  0  0  0  0  0  0  0  0
  147.2308  137.4341  153.4264 H   0  0  0  0  0  0  0  0  0  0  0  0
  148.9131  138.1681  155.1365 H   0  0  0  0  0  0  0  0  0  0  0  0
  149.3275  137.7478  152.8072 H   0  0  0  0  0  0  0  0  0  0  0  0
  1  2  1  0  0  0  0
  1 20  1  0  0  0  0
  1 21  1  0  0  0  0
  1 22  1  0  0  0  0
  2 19  1  0  0  0  0
  2  3  2  0  0  0  0
  3  4  1  0  0  0  0
  3 23  1  0  0  0  0
  4  5  2  0  0  0  0
  4 24  1  0  0  0  0
  5  6  1  0  0  0  0
  5 25  1  0  0  0  0
  6  7  1  0  0  0  0
  6 19  2  0  0  0  0
  7  8  1  0  0  0  0
  7 26  1  0  0  0  0
  8  9  2  0  0  0  0
  8 10  1  0  0  0  0
 10 11  1  0  0  0  0
 10 27  1  0  0  0  0
 11 12  1  0  0  0  0
 11 28  1  0  0  0  0
 11 29  1  0  0  0  0
 12 17  1  0  0  0  0
 12 13  1  0  0  0  0
 12 30  1  0  0  0  0
 13 14  1  0  0  0  0
 13 31  1  0  0  0  0
 13 32  1  0  0  0  0
 14 15  1  0  0  0  0
 14 33  1  0  0  0  0
 14 34  1  0  0  0  0
 15 16  1  0  0  0  0
 15 35  1  0  0  0  0
 15 36  1  0  0  0  0
 16 17  1  0  0  0  0
 16 37  1  0  0  0  0
 16 38  1  0  0  0  0
 17 18  1  0  0  0  0
 17 39  1  0  0  0  0
 18 40  1  0  0  0  0
M  END
> <s_m_source_file>
AV-unprocessed.smi

> <i_m_source_file_index>
2471

> <i_lp_mmshare_version>
43012

> <i_f3d_flags>
0

> <s_epik_input>
W0NIM11jMVtjSF1bY0hdW2NIXWMobjEpW05IXUMoPU8pW05IXVtDSDJdW0NAQEhdMltDSDJdW0NIMl1bQ0gyXVtDSDJdW0NASF0yW09IXQ==

> <s_epik_cmdline>
J2VwaWtfcHl0aG9uJywgJy1waCcsICc3LjAnLCAnLXRuJywgJzgnLCAnLW1hJywgJzIwMCcsICctbWV0YWxfYmluZGluZycsICctaW1hZScsICc8aW5maWxlLm1hZT4nLCAnLW9tYWUnLCAnPG91dGZpbGUubWFlPic=

> <r_lp_tautomer_probability>
1

> <r_epik_Ionization_Penalty>
8.52237e-05

> <r_epik_Ionization_Penalty_Charging>
0

> <r_epik_Ionization_Penalty_Neutral>
8.52237e-05

> <r_epik_State_Penalty>
-0

> <r_epik_Charging_Adjusted_Penalty>
0

> <i_epik_Tot_Q>
0

> <i_epik_Tot_abs_Q>
0

> <r_epik_Metal_State_Penalty>
-0

> <b_epik_Metal_Only>
0

> <s_lp_Force_Field>
OPLS_2005

> <r_lp_Energy>
16.6086

> <b_lp_Chiralities_Consistent>
1

> <s_lp_Variant>
AV-unprocessed.smi:2471-2

> <Gold.Version>
5.8.1

> <Gold.Id.Protein>
6NUR|6NUR_protein|mol2

> <Gold.PLP.Fitness>
47.8981

> <Gold.PLP.PLP>
-40.6102

> <Gold.PLP.part.hbond>
-3.5607

> <Gold.PLP.part.metal>
0.0000

> <Gold.PLP.part.buried>
0.5590

> <Gold.PLP.part.nonpolar>
-36.4267

> <Gold.PLP.part.repulsive>
0.1418

> <Gold.PLP.ligand.clash>
0.0000

> <Gold.PLP.ligand.torsion>
0.2515

> <Gold.PLP.Chemscore.Hbond>
2.5925

> <Gold.PLP.Chemscore.CHOScore>
0.0000

> <Gold.PLP.Chemscore.Metal>
0.0000

> <Gold.Chemscore.Hbonds>
donor molecule, donor type, donor heavy atom, donor atom, acceptor molecule, acceptor atom, score
      L1  H     7    26       P1  8028  0.93
      L1  H    10    27       P1  8028  0.57
      L1  H    18    40       P1  7948  1.00

> <Gold.PLP.Chemscore.Internal.Correction>
0.0133

> <Gold.Rescore>
     Score         DG    S(hbond)    S(metal)    S(lipo)     H(rot)  DE(clash)    DE(int)     intcor
     18.89     -21.47       2.41        0.00     105.81       1.73       1.13       1.45       ----

> <Gold.Chemscore.Fitness>
18.8938

> <Gold.Chemscore.DG>
-21.4743

> <Gold.Chemscore.ZeroCoef>
-5.4800

> <Gold.Chemscore.Hbond>
2.4111

> <Gold.Chemscore.Metal>
0.0000

> <Gold.Chemscore.Lipo>
105.8106

> <Gold.Chemscore.Internal_Hbond>
0.0000

> <Gold.Chemscore.DEClash>
1.1281

> <Gold.Chemscore.DEInternal>
1.4525

> <Gold.Chemscore.Rot>
1.7339

> <Gold.Chemscore.Internal.Correction>
   9.000000E+99

> <Gold.Chemscore.Hbonds>
donor molecule, donor type, donor heavy atom, donor atom, acceptor molecule, acceptor atom, score
      L1  H     7    26       P1  8028  0.82
      L1  H    10    27       P1  8028  0.55
      L1  H    18    40       P1  7948  0.93

> <Gold.Chemscore.Hbond.Weighted>
-8.0532

> <Gold.Chemscore.Metal.Weighted>
-0.0000

> <Gold.Chemscore.Lipo.Weighted>
-12.3798

> <Gold.Chemscore.Internal_Hbond.Weighted>
0.0000

> <Gold.Chemscore.DEClash.Weighted>
1.1281

> <Gold.Chemscore.DEInternal.Weighted>
1.4525

> <Gold.Chemscore.Rot.Weighted>
4.4387

> <Gold.Chemscore.Internal.Correction.Weighted>
   9.000000E+99

> <Gold.Protein.RotatedTorsions>
[ 6907 6896 6895 6894 ] final   94.78 input  -60.11 | X-H torsion
[ 7974 7965 7964 7962 ] final  155.65 input  175.53 | X-H torsion
[ 8008 7997 7996 7995 ] final  110.22 input   59.86 | X-H torsion
[ 10167 10162 10161 10158 ] final   23.51 input  -65.29 | X-H torsion
[ 10718 10713 10712 10709 ] final  -23.31 input   66.30 | X-H torsion
[ 10763 10752 10751 10750 ] final  119.87 input  -60.55 | X-H torsion
[ 11005 11000 10999 10996 ] final  -61.22 input  -57.11 | X-H torsion

> <Gold.Protein.ActiveResidues>
 VAL166  LYS551  ARG553  GLY616  TRP617  ASP618  TYR619  PRO620  LYS621  CYS622 
 ASP623  PHE694  ASN695  SER759  ASP760  ASP761  ALA762  ILE779  LEU786  VAL792 
 PHE793  MET794  SER795  GLU796  ALA797  LYS798  CYS799  TRP800  GLU811  SER814 

> <Gold.Protein.RotatedAtoms>
  152.5447  134.1141  159.8370 H   0  0  0  0  0  0  0  0  0  0  0  0  # atno 6907 bound_to 6896
  151.1204  133.5101  159.2609 H   0  0  0  0  0  0  0  0  0  0  0  0  # atno 6908 bound_to 6896
  151.1785  135.0360  159.8837 H   0  0  0  0  0  0  0  0  0  0  0  0  # atno 6909 bound_to 6896
  144.8012  139.7096  143.6181 H   0  0  0  0  0  0  0  0  0  0  0  0  # atno 7974 bound_to 7965
  156.2037  140.3043  155.9580 H   0  0  0  0  0  0  0  0  0  0  0  0  # atno 8008 bound_to 7997
  155.2893  140.0441  157.3039 H   0  0  0  0  0  0  0  0  0  0  0  0  # atno 8009 bound_to 7997
  154.5604  140.2318  155.8353 H   0  0  0  0  0  0  0  0  0  0  0  0  # atno 8010 bound_to 7997
  140.5263  143.9917  150.6442 H   0  0  0  0  0  0  0  0  0  0  0  0  # atno 10167 bound_to 10162
  156.4928  130.4570  149.6746 H   0  0  0  0  0  0  0  0  0  0  0  0  # atno 10718 bound_to 10713
  153.5897  135.3468  155.2906 H   0  0  0  0  0  0  0  0  0  0  0  0  # atno 10763 bound_to 10752
  154.8654  135.4202  154.2530 H   0  0  0  0  0  0  0  0  0  0  0  0  # atno 10764 bound_to 10752
  153.3334  135.7045  153.6999 H   0  0  0  0  0  0  0  0  0  0  0  0  # atno 10765 bound_to 10752
  141.1316  133.6628  156.5343 H   0  0  0  0  0  0  0  0  0  0  0  0  # atno 11005 bound_to 11000
  146.2293  139.5783  142.9566 LP  0  0  0  0  0  0  0  0  0  0  0  0  # atno 17320 bound_to 7965
  145.5549  141.0410  143.2258 LP  0  0  0  0  0  0  0  0  0  0  0  0  # atno 17321 bound_to 7965
  140.3280  143.3095  152.0716 LP  0  0  0  0  0  0  0  0  0  0  0  0  # atno 17342 bound_to 10162
  139.4939  144.6529  151.6637 LP  0  0  0  0  0  0  0  0  0  0  0  0  # atno 17343 bound_to 10162
  156.3410  130.7382  151.2327 LP  0  0  0  0  0  0  0  0  0  0  0  0  # atno 17370 bound_to 10713
  157.7472  131.0404  150.4595 LP  0  0  0  0  0  0  0  0  0  0  0  0  # atno 17371 bound_to 10713
  140.4191  134.7204  157.4879 LP  0  0  0  0  0  0  0  0  0  0  0  0  # atno 17394 bound_to 11000
  140.0373  134.6319  155.9027 LP  0  0  0  0  0  0  0  0  0  0  0  0  # atno 17395 bound_to 11000

$$$$
