AV-unprocessed.smi:681|AV-procd|sdf|3325|dock9
  -GOLD-   22720 0293D 1   1.00000     0.00000
 Structure written by MMmdl.
 41 42  0  0  0  0  0  0  0  0  1 V2000
  145.2148  140.2938  157.4241 C   0  0  0  0  0  0  0  0  0  0  0  0
  145.8757  141.0004  156.2907 C   0  0  0  0  0  0  0  0  0  0  0  0
  145.3227  142.0802  155.6655 N   0  0  0  0  0  0  0  0  0  0  0  0
  146.2591  142.3316  154.7569 C   0  0  0  0  0  0  0  0  0  0  0  0
  146.1862  143.4386  153.7565 C   0  0  0  0  0  0  0  0  0  0  0  0
  147.2919  141.4785  154.8239 N   0  0  0  0  0  0  0  0  0  0  0  0
  148.5050  141.3816  154.0277 C   0  0  0  0  0  0  0  0  0  0  0  0
  149.7331  141.1789  154.9160 C   0  0  0  0  0  0  0  0  0  0  0  0
  150.4775  140.2173  154.7262 O   0  0  0  0  0  0  0  0  0  0  0  0
  149.9294  142.0889  155.8827 N   0  0  0  0  0  0  0  0  0  0  0  0
  151.0230  142.0651  156.8456 C   0  0  0  0  0  0  0  0  0  0  0  0
  151.4982  143.4878  157.1872 C   0  0  0  0  0  0  0  0  0  0  0  0
  151.8849  143.6437  158.6486 C   0  0  0  0  0  0  0  0  0  0  0  0
  151.9315  144.8492  159.2486 C   0  0  0  0  0  0  0  0  0  0  0  0
  152.2940  145.0630  160.7079 C   0  0  0  0  0  0  0  0  0  0  0  0
  152.2674  143.7548  161.5156 C   0  0  0  0  0  0  0  0  0  0  0  0
  152.9293  142.6104  160.7383 C   0  0  0  0  0  0  0  0  0  0  0  0
  152.2157  142.3575  159.3980 C   0  0  0  0  0  0  0  0  0  0  0  0
  147.0565  140.5989  155.8268 N   0  0  0  0  0  0  0  0  0  0  0  0
  144.2902  140.7977  157.7075 H   0  0  0  0  0  0  0  0  0  0  0  0
  145.8742  140.2706  158.2919 H   0  0  0  0  0  0  0  0  0  0  0  0
  144.9756  139.2688  157.1402 H   0  0  0  0  0  0  0  0  0  0  0  0
  145.3005  144.0508  153.9293 H   0  0  0  0  0  0  0  0  0  0  0  0
  146.1331  143.0294  152.7477 H   0  0  0  0  0  0  0  0  0  0  0  0
  147.0667  144.0765  153.8337 H   0  0  0  0  0  0  0  0  0  0  0  0
  148.4083  140.5508  153.3279 H   0  0  0  0  0  0  0  0  0  0  0  0
  148.6213  142.2871  153.4298 H   0  0  0  0  0  0  0  0  0  0  0  0
  149.2621  142.8424  155.9671 H   0  0  0  0  0  0  0  0  0  0  0  0
  150.7173  141.5358  157.7502 H   0  0  0  0  0  0  0  0  0  0  0  0
  151.8375  141.4876  156.4082 H   0  0  0  0  0  0  0  0  0  0  0  0
  152.3544  143.7566  156.5675 H   0  0  0  0  0  0  0  0  0  0  0  0
  150.7110  144.2042  156.9473 H   0  0  0  0  0  0  0  0  0  0  0  0
  151.7097  145.7411  158.6809 H   0  0  0  0  0  0  0  0  0  0  0  0
  153.2881  145.5093  160.7459 H   0  0  0  0  0  0  0  0  0  0  0  0
  151.6047  145.7844  161.1477 H   0  0  0  0  0  0  0  0  0  0  0  0
  152.7621  143.8996  162.4766 H   0  0  0  0  0  0  0  0  0  0  0  0
  151.2340  143.4849  161.7375 H   0  0  0  0  0  0  0  0  0  0  0  0
  153.9744  142.8617  160.5528 H   0  0  0  0  0  0  0  0  0  0  0  0
  152.9329  141.6980  161.3355 H   0  0  0  0  0  0  0  0  0  0  0  0
  151.2853  141.8174  159.5751 H   0  0  0  0  0  0  0  0  0  0  0  0
  152.8377  141.7184  158.7704 H   0  0  0  0  0  0  0  0  0  0  0  0
  1  2  1  0  0  0  0
  1 20  1  0  0  0  0
  1 21  1  0  0  0  0
  1 22  1  0  0  0  0
  2 19  2  0  0  0  0
  2  3  1  0  0  0  0
  3  4  2  0  0  0  0
  4  5  1  0  0  0  0
  4  6  1  0  0  0  0
  5 23  1  0  0  0  0
  5 24  1  0  0  0  0
  5 25  1  0  0  0  0
  6  7  1  0  0  0  0
  6 19  1  0  0  0  0
  7  8  1  0  0  0  0
  7 26  1  0  0  0  0
  7 27  1  0  0  0  0
  8  9  2  0  0  0  0
  8 10  1  0  0  0  0
 10 11  1  0  0  0  0
 10 28  1  0  0  0  0
 11 12  1  0  0  0  0
 11 29  1  0  0  0  0
 11 30  1  0  0  0  0
 12 13  1  0  0  0  0
 12 31  1  0  0  0  0
 12 32  1  0  0  0  0
 13 18  1  0  0  0  0
 13 14  2  0  0  0  0
 14 15  1  0  0  0  0
 14 33  1  0  0  0  0
 15 16  1  0  0  0  0
 15 34  1  0  0  0  0
 15 35  1  0  0  0  0
 16 17  1  0  0  0  0
 16 36  1  0  0  0  0
 16 37  1  0  0  0  0
 17 18  1  0  0  0  0
 17 38  1  0  0  0  0
 17 39  1  0  0  0  0
 18 40  1  0  0  0  0
 18 41  1  0  0  0  0
M  END
> <s_m_source_file>
AV-unprocessed.smi

> <i_m_source_file_index>
681

> <i_lp_mmshare_version>
43012

> <i_f3d_flags>
0

> <s_epik_input>
W0NIM11jMW5jKFtDSDNdKW4objEpW0NIMl1DKD1PKVtOSF1bQ0gyXVtDSDJdQzI9W0NIXVtDSDJdW0NIMl1bQ0gyXVtDSDJdMg==

> <s_epik_cmdline>
J2VwaWtfcHl0aG9uJywgJy1waCcsICc3LjAnLCAnLXRuJywgJzgnLCAnLW1hJywgJzIwMCcsICctbWV0YWxfYmluZGluZycsICctaW1hZScsICc8aW5maWxlLm1hZT4nLCAnLW9tYWUnLCAnPG91dGZpbGUubWFlPic=

> <r_lp_tautomer_probability>
1

> <r_epik_Ionization_Penalty>
0.000426663

> <r_epik_Ionization_Penalty_Charging>
0

> <r_epik_Ionization_Penalty_Neutral>
0.000426663

> <r_epik_State_Penalty>
0.000262586

> <r_epik_Charging_Adjusted_Penalty>
0.000262586

> <i_epik_Tot_Q>
0

> <i_epik_Tot_abs_Q>
0

> <r_epik_Metal_State_Penalty>
-0

> <b_epik_Metal_Only>
0

> <s_lp_Force_Field>
OPLS_2005

> <r_lp_Energy>
6.45034

> <b_lp_Chiralities_Consistent>
1

> <s_lp_Variant>
AV-unprocessed.smi:681-1

> <Gold.Version>
5.8.1

> <Gold.Id.Protein>
6NUR|6NUR_protein|mol2

> <Gold.PLP.Fitness>
48.0723

> <Gold.PLP.PLP>
-44.3041

> <Gold.PLP.part.hbond>
-2.0000

> <Gold.PLP.part.metal>
0.0000

> <Gold.PLP.part.buried>
-4.9974

> <Gold.PLP.part.nonpolar>
-37.6602

> <Gold.PLP.part.repulsive>
0.3316

> <Gold.PLP.ligand.clash>
0.0000

> <Gold.PLP.ligand.torsion>
0.9231

> <Gold.PLP.Chemscore.Hbond>
1.8640

> <Gold.PLP.Chemscore.CHOScore>
0.0000

> <Gold.PLP.Chemscore.Metal>
0.0000

> <Gold.Chemscore.Hbonds>
donor molecule, donor type, donor heavy atom, donor atom, acceptor molecule, acceptor atom, score
      L1  H    10    28       P1  8028  0.94
      P1  H  7989  7998       L1     9  1.00

> <Gold.PLP.Chemscore.Internal.Correction>
0.0224

> <Gold.Rescore>
     Score         DG    S(hbond)    S(metal)    S(lipo)     H(rot)  DE(clash)    DE(int)     intcor
     16.80     -17.78       1.55        0.00     101.96       1.87       0.12       0.86       ----

> <Gold.Chemscore.Fitness>
16.8029

> <Gold.Chemscore.DG>
-17.7847

> <Gold.Chemscore.ZeroCoef>
-5.4800

> <Gold.Chemscore.Hbond>
1.5494

> <Gold.Chemscore.Metal>
0.0000

> <Gold.Chemscore.Lipo>
101.9618

> <Gold.Chemscore.Internal_Hbond>
0.0000

> <Gold.Chemscore.DEClash>
0.1247

> <Gold.Chemscore.DEInternal>
0.8571

> <Gold.Chemscore.Rot>
1.8750

> <Gold.Chemscore.Internal.Correction>
   9.000000E+99

> <Gold.Chemscore.Hbonds>
donor molecule, donor type, donor heavy atom, donor atom, acceptor molecule, acceptor atom, score
      L1  H    10    28       P1  8028  0.90
      P1  H  7989  7998       L1     9  0.34

> <Gold.Chemscore.Hbond.Weighted>
-5.1751

> <Gold.Chemscore.Metal.Weighted>
-0.0000

> <Gold.Chemscore.Lipo.Weighted>
-11.9295

> <Gold.Chemscore.Internal_Hbond.Weighted>
0.0000

> <Gold.Chemscore.DEClash.Weighted>
0.1247

> <Gold.Chemscore.DEInternal.Weighted>
0.8571

> <Gold.Chemscore.Rot.Weighted>
4.7999

> <Gold.Chemscore.Internal.Correction.Weighted>
   9.000000E+99

> <Gold.Protein.RotatedTorsions>
[ 6907 6896 6895 6894 ] final  102.93 input  -60.11 | X-H torsion
[ 7974 7965 7964 7962 ] final -175.18 input  175.53 | X-H torsion
[ 8008 7997 7996 7995 ] final  107.98 input   59.86 | X-H torsion
[ 10167 10162 10161 10158 ] final  147.90 input  -65.29 | X-H torsion
[ 10718 10713 10712 10709 ] final   10.89 input   66.30 | X-H torsion
[ 10763 10752 10751 10750 ] final -131.75 input  -60.55 | X-H torsion
[ 11005 11000 10999 10996 ] final  106.86 input  -57.11 | X-H torsion

> <Gold.Protein.ActiveResidues>
 VAL166  LYS551  ARG553  GLY616  TRP617  ASP618  TYR619  PRO620  LYS621  CYS622 
 ASP623  PHE694  ASN695  SER759  ASP760  ASP761  ALA762  ILE779  LEU786  VAL792 
 PHE793  MET794  SER795  GLU796  ALA797  LYS798  CYS799  TRP800  GLU811  SER814 

> <Gold.Protein.RotatedAtoms>
  152.5310  133.9902  159.7846 H   0  0  0  0  0  0  0  0  0  0  0  0  # atno 6907 bound_to 6896
  151.0139  133.5931  159.2686 H   0  0  0  0  0  0  0  0  0  0  0  0  # atno 6908 bound_to 6896
  151.2995  135.0771  159.9287 H   0  0  0  0  0  0  0  0  0  0  0  0  # atno 6909 bound_to 6896
  144.7129  140.1359  143.6395 H   0  0  0  0  0  0  0  0  0  0  0  0  # atno 7974 bound_to 7965
  156.1867  140.3085  155.9253 H   0  0  0  0  0  0  0  0  0  0  0  0  # atno 8008 bound_to 7997
  155.3264  140.0458  157.3058 H   0  0  0  0  0  0  0  0  0  0  0  0  # atno 8009 bound_to 7997
  154.5404  140.2260  155.8660 H   0  0  0  0  0  0  0  0  0  0  0  0  # atno 8010 bound_to 7997
  139.4883  144.5720  151.7036 H   0  0  0  0  0  0  0  0  0  0  0  0  # atno 10167 bound_to 10162
  156.9875  130.6029  149.5682 H   0  0  0  0  0  0  0  0  0  0  0  0  # atno 10718 bound_to 10713
  154.8748  135.3820  154.4298 H   0  0  0  0  0  0  0  0  0  0  0  0  # atno 10763 bound_to 10752
  153.4993  135.7030  153.5846 H   0  0  0  0  0  0  0  0  0  0  0  0  # atno 10764 bound_to 10752
  153.4184  135.3907  155.2062 H   0  0  0  0  0  0  0  0  0  0  0  0  # atno 10765 bound_to 10752
  139.8820  134.9383  156.5731 H   0  0  0  0  0  0  0  0  0  0  0  0  # atno 11005 bound_to 11000
  145.9245  139.2566  143.1362 LP  0  0  0  0  0  0  0  0  0  0  0  0  # atno 17320 bound_to 7965
  145.9586  140.8853  143.0222 LP  0  0  0  0  0  0  0  0  0  0  0  0  # atno 17321 bound_to 7965
  140.5309  144.0731  150.6053 LP  0  0  0  0  0  0  0  0  0  0  0  0  # atno 17342 bound_to 10162
  140.3721  143.2849  152.0266 LP  0  0  0  0  0  0  0  0  0  0  0  0  # atno 17343 bound_to 10162
  156.0220  130.5314  150.8302 LP  0  0  0  0  0  0  0  0  0  0  0  0  # atno 17370 bound_to 10713
  157.5482  131.0943  150.9733 LP  0  0  0  0  0  0  0  0  0  0  0  0  # atno 17371 bound_to 10713
  140.8083  133.8449  155.8787 LP  0  0  0  0  0  0  0  0  0  0  0  0  # atno 17394 bound_to 11000
  140.9529  134.1755  157.4713 LP  0  0  0  0  0  0  0  0  0  0  0  0  # atno 17395 bound_to 11000

$$$$
