AV-unprocessed.smi:1463|AV-procd|sdf|5934|dock1
  -GOLD-   22720 6 13D 1   1.00000     0.00000
 Structure written by MMmdl.
 46 47  0  0  0  0  0  0  0  0  1 V2000
  155.6076  137.3452  154.3569 C   0  0  0  0  0  0  0  0  0  0  0  0
  154.3674  137.0735  154.9844 O   0  0  0  0  0  0  0  0  0  0  0  0
  153.5502  138.2269  155.0994 C   0  0  0  0  0  0  0  0  0  0  0  0
  152.1154  137.7840  155.3965 C   0  0  0  0  0  0  0  0  0  0  0  0
  151.2758  138.9273  155.2909 O   0  0  0  0  0  0  0  0  0  0  0  0
  151.3112  139.8795  156.2904 C   0  0  0  0  0  0  0  0  0  0  0  0
  152.3093  139.8110  157.2072 N   0  0  0  0  0  0  0  0  0  0  0  0
  152.3615  140.7521  158.1727 C   0  0  0  0  0  0  0  0  0  0  0  0
  151.4352  141.8069  158.2726 C   0  0  0  0  0  0  0  0  0  0  0  0
  150.3986  141.8783  157.3237 C   0  0  0  0  0  0  0  0  0  0  0  0
  150.3162  140.8895  156.3204 C   0  0  0  0  0  0  0  0  0  0  0  0
  149.2303  140.9664  155.2831 C   0  0  0  0  0  0  0  0  0  0  0  0
  149.5568  140.9959  154.0960 O   0  0  0  0  0  0  0  0  0  0  0  0
  147.9366  140.9820  155.6940 N   0  0  0  0  0  0  0  0  0  0  0  0
  147.4673  141.2943  157.0525 C   0  0  0  0  0  0  0  0  0  0  0  0
  146.7867  142.6750  157.0451 C   0  0  0  0  0  0  0  0  0  0  0  0
  145.6329  142.7388  156.0211 C   0  0  0  0  0  0  0  0  0  0  0  0
  145.0161  144.1552  155.9731 C   0  0  0  0  0  0  0  0  0  0  0  0
  143.9434  144.3365  154.8923 C   0  0  0  0  0  0  0  0  0  0  0  0
  142.9368  143.4594  154.8857 N   0  0  0  0  0  0  0  0  0  0  0  0
  144.0217  145.2481  154.0710 O   0  0  0  0  0  0  0  0  0  0  0  0
  146.1165  142.2433  154.6375 C   0  0  0  0  0  0  0  0  0  0  0  0
  146.8183  140.8788  154.7494 C   0  0  0  0  0  0  0  0  0  0  0  0
  156.1946  136.4289  154.2951 H   0  0  0  0  0  0  0  0  0  0  0  0
  156.1839  138.0781  154.9227 H   0  0  0  0  0  0  0  0  0  0  0  0
  155.4621  137.7199  153.3429 H   0  0  0  0  0  0  0  0  0  0  0  0
  153.9192  138.8520  155.9137 H   0  0  0  0  0  0  0  0  0  0  0  0
  153.5823  138.8222  154.1854 H   0  0  0  0  0  0  0  0  0  0  0  0
  151.8153  137.0001  154.6989 H   0  0  0  0  0  0  0  0  0  0  0  0
  152.0557  137.3799  156.4081 H   0  0  0  0  0  0  0  0  0  0  0  0
  153.1696  140.6647  158.8837 H   0  0  0  0  0  0  0  0  0  0  0  0
  151.5190  142.5442  159.0573 H   0  0  0  0  0  0  0  0  0  0  0  0
  149.6742  142.6785  157.3732 H   0  0  0  0  0  0  0  0  0  0  0  0
  146.7626  140.5264  157.3751 H   0  0  0  0  0  0  0  0  0  0  0  0
  148.2580  141.3051  157.8000 H   0  0  0  0  0  0  0  0  0  0  0  0
  146.4121  142.9034  158.0434 H   0  0  0  0  0  0  0  0  0  0  0  0
  147.5293  143.4399  156.8122 H   0  0  0  0  0  0  0  0  0  0  0  0
  144.8660  142.0444  156.3690 H   0  0  0  0  0  0  0  0  0  0  0  0
  144.5503  144.3830  156.9325 H   0  0  0  0  0  0  0  0  0  0  0  0
  145.8065  144.8946  155.8339 H   0  0  0  0  0  0  0  0  0  0  0  0
  142.2043  143.5356  154.1949 H   0  0  0  0  0  0  0  0  0  0  0  0
  142.9117  142.7215  155.5745 H   0  0  0  0  0  0  0  0  0  0  0  0
  145.2781  142.1594  153.9460 H   0  0  0  0  0  0  0  0  0  0  0  0
  146.8044  142.9700  154.2029 H   0  0  0  0  0  0  0  0  0  0  0  0
  147.1334  140.5393  153.7617 H   0  0  0  0  0  0  0  0  0  0  0  0
  146.1157  140.1252  155.1084 H   0  0  0  0  0  0  0  0  0  0  0  0
  1  2  1  0  0  0  0
  1 24  1  0  0  0  0
  1 25  1  0  0  0  0
  1 26  1  0  0  0  0
  2  3  1  0  0  0  0
  3  4  1  0  0  0  0
  3 27  1  0  0  0  0
  3 28  1  0  0  0  0
  4  5  1  0  0  0  0
  4 29  1  0  0  0  0
  4 30  1  0  0  0  0
  5  6  1  0  0  0  0
  6 11  1  0  0  0  0
  6  7  2  0  0  0  0
  7  8  1  0  0  0  0
  8  9  2  0  0  0  0
  8 31  1  0  0  0  0
  9 10  1  0  0  0  0
  9 32  1  0  0  0  0
 10 11  2  0  0  0  0
 10 33  1  0  0  0  0
 11 12  1  0  0  0  0
 12 13  2  0  0  0  0
 12 14  1  0  0  0  0
 14 23  1  0  0  0  0
 14 15  1  0  0  0  0
 15 16  1  0  0  0  0
 15 34  1  0  0  0  0
 15 35  1  0  0  0  0
 16 17  1  0  0  0  0
 16 36  1  0  0  0  0
 16 37  1  0  0  0  0
 17 18  1  0  0  0  0
 17 22  1  0  0  0  0
 17 38  1  0  0  0  0
 18 19  1  0  0  0  0
 18 39  1  0  0  0  0
 18 40  1  0  0  0  0
 19 20  1  0  0  0  0
 19 21  2  0  0  0  0
 20 41  1  0  0  0  0
 20 42  1  0  0  0  0
 22 23  1  0  0  0  0
 22 43  1  0  0  0  0
 22 44  1  0  0  0  0
 23 45  1  0  0  0  0
 23 46  1  0  0  0  0
M  END
> <s_m_source_file>
AV-unprocessed.smi

> <i_m_source_file_index>
1463

> <i_lp_mmshare_version>
43012

> <i_f3d_flags>
0

> <s_epik_input>
W0NIM11PW0NIMl1bQ0gyXU9jMW5bY0hdW2NIXVtjSF1jMUMoPU8pTjJbQ0gyXVtDSDJdW0NIXShbQ0gyXVtDSDJdMilbQ0gyXUMoPU8pW05IMl0=

> <s_epik_cmdline>
J2VwaWtfcHl0aG9uJywgJy1waCcsICc3LjAnLCAnLXRuJywgJzgnLCAnLW1hJywgJzIwMCcsICctbWV0YWxfYmluZGluZycsICctaW1hZScsICc8aW5maWxlLm1hZT4nLCAnLW9tYWUnLCAnPG91dGZpbGUubWFlPic=

> <r_lp_tautomer_probability>
1

> <r_epik_Ionization_Penalty>
2.54873e-06

> <r_epik_Ionization_Penalty_Charging>
0

> <r_epik_Ionization_Penalty_Neutral>
2.54873e-06

> <r_epik_State_Penalty>
-0

> <r_epik_Charging_Adjusted_Penalty>
0

> <i_epik_Tot_Q>
0

> <i_epik_Tot_abs_Q>
0

> <r_epik_Metal_State_Penalty>
-0

> <b_epik_Metal_Only>
0

> <s_lp_Force_Field>
OPLS_2005

> <r_lp_Energy>
26.7295

> <b_lp_Chiralities_Consistent>
1

> <s_lp_Variant>
AV-unprocessed.smi:1463-1

> <Gold.Version>
5.8.1

> <Gold.Id.Protein>
6NUR|6NUR_protein|mol2

> <Gold.PLP.Fitness>
47.3538

> <Gold.PLP.PLP>
-39.3803

> <Gold.PLP.part.hbond>
-5.7952

> <Gold.PLP.part.metal>
0.0000

> <Gold.PLP.part.buried>
-0.9046

> <Gold.PLP.part.nonpolar>
-33.4794

> <Gold.PLP.part.repulsive>
0.4753

> <Gold.PLP.ligand.clash>
0.0000

> <Gold.PLP.ligand.torsion>
1.4319

> <Gold.PLP.Chemscore.Hbond>
2.7699

> <Gold.PLP.Chemscore.CHOScore>
0.0000

> <Gold.PLP.Chemscore.Metal>
0.0000

> <Gold.Chemscore.Hbonds>
donor molecule, donor type, donor heavy atom, donor atom, acceptor molecule, acceptor atom, score
      L1  H    20    41       P1 10174  0.07
      P1  H  7989  7998       L1    13  0.34
      P1  H  7997  8010       L1     7  0.49
      P1  H  8011  8017       L1    13  0.33

> <Gold.PLP.Chemscore.Internal.Correction>
2.5278

> <Gold.Rescore>
     Score         DG    S(hbond)    S(metal)    S(lipo)     H(rot)  DE(clash)    DE(int)     intcor
      9.98     -15.86       2.69        0.00      67.84       2.55       1.61       4.28       ----

> <Gold.Chemscore.Fitness>
9.9811

> <Gold.Chemscore.DG>
-15.8642

> <Gold.Chemscore.ZeroCoef>
-5.4800

> <Gold.Chemscore.Hbond>
2.6897

> <Gold.Chemscore.Metal>
0.0000

> <Gold.Chemscore.Lipo>
67.8437

> <Gold.Chemscore.Internal_Hbond>
0.0000

> <Gold.Chemscore.DEClash>
1.6064

> <Gold.Chemscore.DEInternal>
4.2767

> <Gold.Chemscore.Rot>
2.5536

> <Gold.Chemscore.Internal.Correction>
   9.000000E+99

> <Gold.Chemscore.Hbonds>
donor molecule, donor type, donor heavy atom, donor atom, acceptor molecule, acceptor atom, score
      L1  H    20    41       P1 10174  0.07
      P1  H  7989  7998       L1    13  0.33
      P1  H  7997  8010       L1     7  0.06
      P1  H  8011  8017       L1    13  0.33

> <Gold.Chemscore.Hbond.Weighted>
-8.9838

> <Gold.Chemscore.Metal.Weighted>
-0.0000

> <Gold.Chemscore.Lipo.Weighted>
-7.9377

> <Gold.Chemscore.Internal_Hbond.Weighted>
0.0000

> <Gold.Chemscore.DEClash.Weighted>
1.6064

> <Gold.Chemscore.DEInternal.Weighted>
4.2767

> <Gold.Chemscore.Rot.Weighted>
6.5373

> <Gold.Chemscore.Internal.Correction.Weighted>
   9.000000E+99

> <Gold.Protein.RotatedTorsions>
[ 6907 6896 6895 6894 ] final  128.33 input  -60.11 | X-H torsion
[ 7974 7965 7964 7962 ] final -150.26 input  175.53 | X-H torsion
[ 8008 7997 7996 7995 ] final   67.02 input   59.86 | X-H torsion
[ 10167 10162 10161 10158 ] final -146.56 input  -65.29 | X-H torsion
[ 10718 10713 10712 10709 ] final  -55.98 input   66.30 | X-H torsion
[ 10763 10752 10751 10750 ] final   44.06 input  -60.55 | X-H torsion
[ 11005 11000 10999 10996 ] final  -24.75 input  -57.11 | X-H torsion

> <Gold.Protein.ActiveResidues>
 VAL166  LYS551  ARG553  GLY616  TRP617  ASP618  TYR619  PRO620  LYS621  CYS622 
 ASP623  PHE694  ASN695  SER759  ASP760  ASP761  ALA762  ILE779  LEU786  VAL792 
 PHE793  MET794  SER795  GLU796  ALA797  LYS798  CYS799  TRP800  GLU811  SER814 

> <Gold.Protein.RotatedAtoms>
  152.3729  133.6442  159.6100 H   0  0  0  0  0  0  0  0  0  0  0  0  # atno 6907 bound_to 6896
  150.7682  133.9241  159.3416 H   0  0  0  0  0  0  0  0  0  0  0  0  # atno 6908 bound_to 6896
  151.7060  135.0922  160.0310 H   0  0  0  0  0  0  0  0  0  0  0  0  # atno 6909 bound_to 6896
  144.7918  140.4956  143.5767 H   0  0  0  0  0  0  0  0  0  0  0  0  # atno 7974 bound_to 7965
  155.6865  140.3496  155.4876 H   0  0  0  0  0  0  0  0  0  0  0  0  # atno 8008 bound_to 7997
  155.9562  140.1128  157.0957 H   0  0  0  0  0  0  0  0  0  0  0  0  # atno 8009 bound_to 7997
  154.4132  140.1184  156.5104 H   0  0  0  0  0  0  0  0  0  0  0  0  # atno 8010 bound_to 7997
  139.7702  143.8249  152.2623 H   0  0  0  0  0  0  0  0  0  0  0  0  # atno 10167 bound_to 10162
  156.1325  130.4158  150.0243 H   0  0  0  0  0  0  0  0  0  0  0  0  # atno 10718 bound_to 10713
  152.9848  135.6082  154.3212 H   0  0  0  0  0  0  0  0  0  0  0  0  # atno 10763 bound_to 10752
  154.2922  135.2774  155.2651 H   0  0  0  0  0  0  0  0  0  0  0  0  # atno 10764 bound_to 10752
  154.4942  135.5884  153.6538 H   0  0  0  0  0  0  0  0  0  0  0  0  # atno 10765 bound_to 10752
  140.8874  133.7612  156.0378 H   0  0  0  0  0  0  0  0  0  0  0  0  # atno 11005 bound_to 11000
  145.5774  139.1487  143.3254 LP  0  0  0  0  0  0  0  0  0  0  0  0  # atno 17320 bound_to 7965
  146.2173  140.5905  142.9033 LP  0  0  0  0  0  0  0  0  0  0  0  0  # atno 17321 bound_to 7965
  139.8281  144.7266  150.9486 LP  0  0  0  0  0  0  0  0  0  0  0  0  # atno 17342 bound_to 10162
  140.7813  143.4096  151.1015 LP  0  0  0  0  0  0  0  0  0  0  0  0  # atno 17343 bound_to 10162
  156.8151  130.9339  151.3643 LP  0  0  0  0  0  0  0  0  0  0  0  0  # atno 17370 bound_to 10713
  157.6502  130.8878  149.9617 LP  0  0  0  0  0  0  0  0  0  0  0  0  # atno 17371 bound_to 10713
  140.8388  134.3091  157.5321 LP  0  0  0  0  0  0  0  0  0  0  0  0  # atno 17394 bound_to 11000
  139.8726  134.9405  156.3770 LP  0  0  0  0  0  0  0  0  0  0  0  0  # atno 17395 bound_to 11000

$$$$
