AV-unprocessed.smi:236|AV-procd|sdf|1814|dock6
  -GOLD-   2262020403D 1   1.00000     0.00000
 Structure written by MMmdl.
 58 62  0  0  0  0  0  0  0  0  1 V2000
  144.1759  133.2346  149.5483 C   0  0  0  0  0  0  0  0  0  0  0  0
  144.9683  133.1416  150.8623 C   0  0  1  0  0  0  0  0  0  0  0  0
  146.0171  132.1905  150.7486 O   0  0  0  0  0  0  0  0  0  0  0  0
  146.9170  132.4387  151.8132 C   0  0  0  0  0  0  0  0  0  0  0  0
  147.0420  133.9572  151.7991 C   0  0  0  0  0  0  0  0  0  0  0  0
  145.6526  134.4392  151.3699 C   0  0  1  0  0  0  0  0  0  0  0  0
  145.8177  135.3890  150.3296 O   0  0  0  0  0  0  0  0  0  0  0  0
  144.8874  135.1202  152.5318 C   0  0  0  0  0  0  0  0  0  0  0  0
  145.5758  136.2789  153.0818 N   0  0  0  0  0  0  0  0  0  0  0  0
  145.3150  137.6023  152.8044 C   0  0  0  0  0  0  0  0  0  0  0  0
  146.0685  138.4630  153.4327 N   0  0  0  0  0  0  0  0  0  0  0  0
  146.9199  137.6734  154.1958 C   0  0  0  0  0  0  0  0  0  0  0  0
  147.9781  137.9441  155.1087 C   0  0  0  0  0  0  0  0  0  0  0  0
  148.4083  139.1768  155.4485 N   0  0  0  0  0  0  0  0  0  0  0  0
  148.6687  140.0497  154.3116 C   0  0  0  0  0  0  0  0  0  0  0  0
  149.0076  141.4642  154.8093 C   0  0  0  0  0  0  0  0  0  0  0  0
  150.1004  141.3967  155.7211 O   0  0  0  0  0  0  0  0  0  0  0  0
  149.7998  140.6136  156.8752 C   0  0  2  0  0  0  0  0  0  0  0  0
  151.0044  140.6677  157.8235 C   0  0  0  0  0  0  0  0  0  0  0  0
  151.4533  142.0089  157.9207 O   0  0  0  0  0  0  0  0  0  0  0  0
  152.4905  142.1750  158.8751 C   0  0  0  0  0  0  0  0  0  0  0  0
  152.6216  143.6252  159.3044 C   0  0  0  0  0  0  0  0  0  0  0  0
  151.4248  144.5542  159.2983 C   0  0  0  0  0  0  0  0  0  0  0  0
  152.5270  144.7491  158.2925 C   0  0  0  0  0  0  0  0  0  0  0  0
  149.4949  139.1735  156.4193 C   0  0  0  0  0  0  0  0  0  0  0  0
  148.6109  136.8913  155.6812 N   0  0  0  0  0  0  0  0  0  0  0  0
  148.2350  135.6440  155.3823 C   0  0  0  0  0  0  0  0  0  0  0  0
  147.2698  135.2382  154.5542 N   0  0  0  0  0  0  0  0  0  0  0  0
  146.6297  136.2971  153.9793 C   0  0  0  0  0  0  0  0  0  0  0  0
  143.3777  133.9735  149.6213 H   0  0  0  0  0  0  0  0  0  0  0  0
  143.7169  132.2758  149.3074 H   0  0  0  0  0  0  0  0  0  0  0  0
  144.8176  133.5105  148.7111 H   0  0  0  0  0  0  0  0  0  0  0  0
  144.3046  132.7575  151.6373 H   0  0  0  0  0  0  0  0  0  0  0  0
  146.4849  132.0888  152.7523 H   0  0  0  0  0  0  0  0  0  0  0  0
  147.8718  131.9347  151.6620 H   0  0  0  0  0  0  0  0  0  0  0  0
  147.3629  134.3534  152.7631 H   0  0  0  0  0  0  0  0  0  0  0  0
  147.7991  134.2380  151.0647 H   0  0  0  0  0  0  0  0  0  0  0  0
  145.7324  134.9440  149.5005 H   0  0  0  0  0  0  0  0  0  0  0  0
  143.9009  135.4386  152.1919 H   0  0  0  0  0  0  0  0  0  0  0  0
  144.7134  134.4104  153.3418 H   0  0  0  0  0  0  0  0  0  0  0  0
  144.5376  137.9122  152.1213 H   0  0  0  0  0  0  0  0  0  0  0  0
  149.4996  139.6588  153.7236 H   0  0  0  0  0  0  0  0  0  0  0  0
  147.7958  140.0804  153.6580 H   0  0  0  0  0  0  0  0  0  0  0  0
  149.2829  142.1028  153.9700 H   0  0  0  0  0  0  0  0  0  0  0  0
  148.1446  141.9252  155.2921 H   0  0  0  0  0  0  0  0  0  0  0  0
  148.9263  141.0253  157.3844 H   0  0  0  0  0  0  0  0  0  0  0  0
  150.7101  140.3199  158.8149 H   0  0  0  0  0  0  0  0  0  0  0  0
  151.8012  140.0122  157.4683 H   0  0  0  0  0  0  0  0  0  0  0  0
  152.2913  141.5654  159.7576 H   0  0  0  0  0  0  0  0  0  0  0  0
  153.4426  141.8488  158.4543 H   0  0  0  0  0  0  0  0  0  0  0  0
  153.3320  143.7752  160.1152 H   0  0  0  0  0  0  0  0  0  0  0  0
  150.4757  144.1667  158.9333 H   0  0  0  0  0  0  0  0  0  0  0  0
  151.3499  145.2794  160.1059 H   0  0  0  0  0  0  0  0  0  0  0  0
  153.1875  145.6025  158.4298 H   0  0  0  0  0  0  0  0  0  0  0  0
  152.3115  144.4914  157.2574 H   0  0  0  0  0  0  0  0  0  0  0  0
  149.2186  138.5594  157.2775 H   0  0  0  0  0  0  0  0  0  0  0  0
  150.3863  138.7275  155.9760 H   0  0  0  0  0  0  0  0  0  0  0  0
  148.7861  134.8587  155.8778 H   0  0  0  0  0  0  0  0  0  0  0  0
  1  2  1  0  0  0  0
  1 30  1  0  0  0  0
  1 31  1  0  0  0  0
  1 32  1  0  0  0  0
  2  6  1  0  0  0  0
  2  3  1  0  0  0  0
  2 33  1  0  0  0  0
  3  4  1  0  0  0  0
  4  5  1  0  0  0  0
  4 34  1  0  0  0  0
  4 35  1  0  0  0  0
  5  6  1  0  0  0  0
  5 36  1  0  0  0  0
  5 37  1  0  0  0  0
  6  7  1  0  0  0  0
  6  8  1  0  0  0  0
  7 38  1  0  0  0  0
  8  9  1  0  0  0  0
  8 39  1  0  0  0  0
  8 40  1  0  0  0  0
  9 29  1  0  0  0  0
  9 10  1  0  0  0  0
 10 11  2  0  0  0  0
 10 41  1  0  0  0  0
 11 12  1  0  0  0  0
 12 29  2  0  0  0  0
 12 13  1  0  0  0  0
 13 14  1  0  0  0  0
 13 26  2  0  0  0  0
 14 25  1  0  0  0  0
 14 15  1  0  0  0  0
 15 16  1  0  0  0  0
 15 42  1  0  0  0  0
 15 43  1  0  0  0  0
 16 17  1  0  0  0  0
 16 44  1  0  0  0  0
 16 45  1  0  0  0  0
 17 18  1  0  0  0  0
 18 19  1  0  0  0  0
 18 25  1  0  0  0  0
 18 46  1  0  0  0  0
 19 20  1  0  0  0  0
 19 47  1  0  0  0  0
 19 48  1  0  0  0  0
 20 21  1  0  0  0  0
 21 22  1  0  0  0  0
 21 49  1  0  0  0  0
 21 50  1  0  0  0  0
 22 24  1  0  0  0  0
 22 23  1  0  0  0  0
 22 51  1  0  0  0  0
 23 24  1  0  0  0  0
 23 52  1  0  0  0  0
 23 53  1  0  0  0  0
 24 54  1  0  0  0  0
 24 55  1  0  0  0  0
 25 56  1  0  0  0  0
 25 57  1  0  0  0  0
 26 27  1  0  0  0  0
 27 28  2  0  0  0  0
 27 58  1  0  0  0  0
 28 29  1  0  0  0  0
M  END
> <s_m_source_file>
AV-unprocessed.smi

> <i_m_source_file_index>
236

> <i_lp_mmshare_version>
43012

> <i_f3d_flags>
0

> <s_epik_input>
W0NIMl0xW0NIMl1PW0NAQEhdKFtDSDNdKVtDQEBdMShbT0hdKVtDSDJdbihbY0hdbjIpYyhjMjMpbltjSF1uYzNONFtDSDJdW0NIMl1PW0NASF0oW0NIMl00KVtDSDJdT1tDSDJdW0NIXTVbQ0gyXVtDSDJdNQ==

> <s_epik_cmdline>
J2VwaWtfcHl0aG9uJywgJy1waCcsICc3LjAnLCAnLXRuJywgJzgnLCAnLW1hJywgJzIwMCcsICctbWV0YWxfYmluZGluZycsICctaW1hZScsICc8aW5maWxlLm1hZT4nLCAnLW9tYWUnLCAnPG91dGZpbGUubWFlPic=

> <r_lp_tautomer_probability>
1

> <r_epik_Ionization_Penalty>
7.21838e-05

> <r_epik_Ionization_Penalty_Charging>
0

> <r_epik_Ionization_Penalty_Neutral>
7.21838e-05

> <r_epik_State_Penalty>
-0

> <r_epik_Charging_Adjusted_Penalty>
0

> <i_epik_Tot_Q>
0

> <i_epik_Tot_abs_Q>
0

> <r_epik_Metal_State_Penalty>
-0

> <b_epik_Metal_Only>
0

> <s_lp_Force_Field>
OPLS_2005

> <r_lp_Energy>
47.3448

> <b_lp_Chiralities_Consistent>
1

> <s_lp_Variant>
AV-unprocessed.smi:236-6

> <Gold.Version>
5.8.1

> <Gold.Id.Protein>
6NUR|6NUR_protein|mol2

> <Gold.PLP.Fitness>
46.6968

> <Gold.PLP.PLP>
-40.8367

> <Gold.PLP.part.hbond>
-1.1002

> <Gold.PLP.part.metal>
0.0000

> <Gold.PLP.part.buried>
-3.8364

> <Gold.PLP.part.nonpolar>
-36.3317

> <Gold.PLP.part.repulsive>
0.6216

> <Gold.PLP.ligand.clash>
0.0000

> <Gold.PLP.ligand.torsion>
0.8710

> <Gold.PLP.Chemscore.Hbond>
0.8640

> <Gold.PLP.Chemscore.CHOScore>
1.3948

> <Gold.PLP.Chemscore.Metal>
0.0000

> <Gold.Chemscore.Hbonds>
donor molecule, donor type, donor heavy atom, donor atom, acceptor molecule, acceptor atom, score
      L1  H     7    38       P1  7921  0.99
      L1  C    10    41       P1 10171  1.00
      L1  C    10    41       P1 10175  0.42

> <Gold.PLP.Chemscore.Internal.Correction>
0.8255

> <Gold.Rescore>
     Score         DG    S(hbond)    S(metal)    S(lipo)     H(rot)  DE(clash)    DE(int)     intcor
     13.11     -14.50       0.90        0.00     113.98       2.87       0.32       1.07       ----

> <Gold.Chemscore.Fitness>
13.1052

> <Gold.Chemscore.DG>
-14.4959

> <Gold.Chemscore.ZeroCoef>
-5.4800

> <Gold.Chemscore.Hbond>
0.9032

> <Gold.Chemscore.Metal>
0.0000

> <Gold.Chemscore.Lipo>
113.9756

> <Gold.Chemscore.Internal_Hbond>
0.0000

> <Gold.Chemscore.DEClash>
0.3224

> <Gold.Chemscore.DEInternal>
1.0684

> <Gold.Chemscore.Rot>
2.8655

> <Gold.Chemscore.Internal.Correction>
   9.000000E+99

> <Gold.Chemscore.Hbonds>
donor molecule, donor type, donor heavy atom, donor atom, acceptor molecule, acceptor atom, score
      L1  H     7    38       P1  7921  0.90

> <Gold.Chemscore.Hbond.Weighted>
-3.0165

> <Gold.Chemscore.Metal.Weighted>
-0.0000

> <Gold.Chemscore.Lipo.Weighted>
-13.3351

> <Gold.Chemscore.Internal_Hbond.Weighted>
0.0000

> <Gold.Chemscore.DEClash.Weighted>
0.3224

> <Gold.Chemscore.DEInternal.Weighted>
1.0684

> <Gold.Chemscore.Rot.Weighted>
7.3358

> <Gold.Chemscore.Internal.Correction.Weighted>
   9.000000E+99

> <Gold.Protein.RotatedTorsions>
[ 6907 6896 6895 6894 ] final   93.73 input  -60.11 | X-H torsion
[ 7974 7965 7964 7962 ] final  154.50 input  175.53 | X-H torsion
[ 8008 7997 7996 7995 ] final -163.22 input   59.86 | X-H torsion
[ 10167 10162 10161 10158 ] final  -55.67 input  -65.29 | X-H torsion
[ 10718 10713 10712 10709 ] final  -64.41 input   66.30 | X-H torsion
[ 10763 10752 10751 10750 ] final   66.62 input  -60.55 | X-H torsion
[ 11005 11000 10999 10996 ] final   72.56 input  -57.11 | X-H torsion

> <Gold.Protein.ActiveResidues>
 VAL166  LYS551  ARG553  GLY616  TRP617  ASP618  TYR619  PRO620  LYS621  CYS622 
 ASP623  PHE694  ASN695  SER759  ASP760  ASP761  ALA762  ILE779  LEU786  VAL792 
 PHE793  MET794  SER795  GLU796  ALA797  LYS798  CYS799  TRP800  GLU811  SER814 

> <Gold.Protein.RotatedAtoms>
  152.5452  134.1303  159.8435 H   0  0  0  0  0  0  0  0  0  0  0  0  # atno 6907 bound_to 6896
  151.1349  133.5004  159.2605 H   0  0  0  0  0  0  0  0  0  0  0  0  # atno 6908 bound_to 6896
  151.1635  135.0294  159.8775 H   0  0  0  0  0  0  0  0  0  0  0  0  # atno 6909 bound_to 6896
  144.8084  139.6942  143.6152 H   0  0  0  0  0  0  0  0  0  0  0  0  # atno 7974 bound_to 7965
  155.8182  140.0915  157.1865 H   0  0  0  0  0  0  0  0  0  0  0  0  # atno 8008 bound_to 7997
  154.3979  140.1442  156.3528 H   0  0  0  0  0  0  0  0  0  0  0  0  # atno 8009 bound_to 7997
  155.8294  140.3443  155.5565 H   0  0  0  0  0  0  0  0  0  0  0  0  # atno 8010 bound_to 7997
  140.6361  143.2483  151.5114 H   0  0  0  0  0  0  0  0  0  0  0  0  # atno 10167 bound_to 10162
  156.0731  130.4233  150.1416 H   0  0  0  0  0  0  0  0  0  0  0  0  # atno 10718 bound_to 10713
  153.0148  135.5314  154.6852 H   0  0  0  0  0  0  0  0  0  0  0  0  # atno 10763 bound_to 10752
  154.6001  135.2867  155.0546 H   0  0  0  0  0  0  0  0  0  0  0  0  # atno 10764 bound_to 10752
  154.1606  135.6548  153.5037 H   0  0  0  0  0  0  0  0  0  0  0  0  # atno 10765 bound_to 10752
  139.9484  134.7271  156.0922 H   0  0  0  0  0  0  0  0  0  0  0  0  # atno 11005 bound_to 11000
  146.2380  139.5943  142.9511 LP  0  0  0  0  0  0  0  0  0  0  0  0  # atno 17320 bound_to 7965
  145.5381  141.0422  143.2345 LP  0  0  0  0  0  0  0  0  0  0  0  0  # atno 17321 bound_to 7965
  139.5571  144.2247  152.1631 LP  0  0  0  0  0  0  0  0  0  0  0  0  # atno 17342 bound_to 10162
  140.1504  144.5119  150.6690 LP  0  0  0  0  0  0  0  0  0  0  0  0  # atno 17343 bound_to 10162
  156.9462  130.9760  151.3507 LP  0  0  0  0  0  0  0  0  0  0  0  0  # atno 17370 bound_to 10713
  157.5812  130.8378  149.8526 LP  0  0  0  0  0  0  0  0  0  0  0  0  # atno 17371 bound_to 10713
  141.1141  133.6633  156.3051 LP  0  0  0  0  0  0  0  0  0  0  0  0  # atno 17394 bound_to 11000
  140.5778  134.5776  157.5472 LP  0  0  0  0  0  0  0  0  0  0  0  0  # atno 17395 bound_to 11000

$$$$
