AV-unprocessed.smi:36|AV-procd|sdf|284|dock5
  -GOLD-   2262016 63D 1   1.00000     0.00000
 Structure written by MMmdl.
 64 67  0  0  0  0  0  0  0  0  1 V2000
  154.8915  135.0807  158.9324 C   0  0  0  0  0  0  0  0  0  0  0  0
  156.1766  134.3939  158.4414 C   0  0  0  0  0  0  0  0  0  0  0  0
  156.3020  134.5485  156.9163 C   0  0  0  0  0  0  0  0  0  0  0  0
  157.4010  135.0224  159.1271 C   0  0  0  0  0  0  0  0  0  0  0  0
  156.1088  132.5344  158.8739 Si  0  0  0  0  0  0  0  0  0  0  0  0
  154.5638  131.7104  158.1373 C   0  0  0  0  0  0  0  0  0  0  0  0
  157.6696  131.6329  158.2714 C   0  0  0  0  0  0  0  0  0  0  0  0
  156.0265  132.4009  160.5576 O   0  0  0  0  0  0  0  0  0  0  0  0
  154.9053  132.7962  161.3184 C   0  0  0  0  0  0  0  0  0  0  0  0
  155.2898  132.8039  162.8030 C   0  0  1  0  0  0  0  0  0  0  0  0
  156.2994  133.7828  163.0679 O   0  0  0  0  0  0  0  0  0  0  0  0
  155.9643  134.5424  164.1937 C   0  0  1  0  0  0  0  0  0  0  0  0
  155.4337  135.8657  163.7275 N   0  0  0  0  0  0  0  0  0  0  0  0
  154.4090  136.1380  162.8441 C   0  0  0  0  0  0  0  0  0  0  0  0
  154.1767  137.4051  162.6283 N   0  0  0  0  0  0  0  0  0  0  0  0
  155.1330  138.0577  163.3947 C   0  0  0  0  0  0  0  0  0  0  0  0
  155.4530  139.4225  163.6163 C   0  0  0  0  0  0  0  0  0  0  0  0
  154.7280  140.3973  163.0193 N   0  0  0  0  0  0  0  0  0  0  0  0
  154.5017  140.6037  161.5998 C   0  0  0  0  0  0  0  0  0  0  0  0
  154.8913  139.8015  160.7505 O   0  0  0  0  0  0  0  0  0  0  0  0
  153.6822  141.8060  161.2321 C   0  0  0  0  0  0  0  0  0  0  0  0
  153.2898  142.7265  162.2297 C   0  0  0  0  0  0  0  0  0  0  0  0
  152.5036  143.8466  161.8964 C   0  0  0  0  0  0  0  0  0  0  0  0
  152.0966  144.0515  160.5647 C   0  0  0  0  0  0  0  0  0  0  0  0
  152.4737  143.1339  159.5665 C   0  0  0  0  0  0  0  0  0  0  0  0
  153.2604  142.0136  159.8981 C   0  0  0  0  0  0  0  0  0  0  0  0
  156.4913  139.6939  164.4505 N   0  0  0  0  0  0  0  0  0  0  0  0
  157.1738  138.6972  165.0219 C   0  0  0  0  0  0  0  0  0  0  0  0
  156.9836  137.3812  164.9042 N   0  0  0  0  0  0  0  0  0  0  0  0
  155.9362  137.1017  164.0756 C   0  0  0  0  0  0  0  0  0  0  0  0
  154.8682  133.7581  164.9164 C   0  0  0  0  0  0  0  0  0  0  0  0
  154.1314  133.1341  163.7505 C   0  0  2  0  0  0  0  0  0  0  0  0
  153.4206  131.9827  164.1570 O   0  0  0  0  0  0  0  0  0  0  0  0
  154.8998  136.1462  158.7008 H   0  0  0  0  0  0  0  0  0  0  0  0
  154.7748  134.9804  160.0118 H   0  0  0  0  0  0  0  0  0  0  0  0
  154.0063  134.6499  158.4641 H   0  0  0  0  0  0  0  0  0  0  0  0
  155.4406  134.1231  156.4010 H   0  0  0  0  0  0  0  0  0  0  0  0
  157.1929  134.0452  156.5387 H   0  0  0  0  0  0  0  0  0  0  0  0
  156.3699  135.5982  156.6286 H   0  0  0  0  0  0  0  0  0  0  0  0
  157.4895  136.0825  158.8872 H   0  0  0  0  0  0  0  0  0  0  0  0
  158.3246  134.5357  158.8116 H   0  0  0  0  0  0  0  0  0  0  0  0
  157.3378  134.9358  160.2120 H   0  0  0  0  0  0  0  0  0  0  0  0
  154.5576  131.7713  157.0493 H   0  0  0  0  0  0  0  0  0  0  0  0
  153.6485  132.1812  158.4951 H   0  0  0  0  0  0  0  0  0  0  0  0
  154.5097  130.6549  158.4028 H   0  0  0  0  0  0  0  0  0  0  0  0
  157.8035  131.7408  157.1953 H   0  0  0  0  0  0  0  0  0  0  0  0
  157.6229  130.5654  158.4854 H   0  0  0  0  0  0  0  0  0  0  0  0
  158.5672  132.0209  158.7525 H   0  0  0  0  0  0  0  0  0  0  0  0
  154.5957  133.7930  161.0029 H   0  0  0  0  0  0  0  0  0  0  0  0
  154.0725  132.1189  161.1324 H   0  0  0  0  0  0  0  0  0  0  0  0
  155.7242  131.8400  163.0735 H   0  0  0  0  0  0  0  0  0  0  0  0
  156.8305  134.7910  164.8081 H   0  0  0  0  0  0  0  0  0  0  0  0
  153.8305  135.3684  162.3562 H   0  0  0  0  0  0  0  0  0  0  0  0
  154.3077  141.0757  163.6377 H   0  0  0  0  0  0  0  0  0  0  0  0
  153.5929  142.5822  163.2569 H   0  0  0  0  0  0  0  0  0  0  0  0
  152.2113  144.5482  162.6637 H   0  0  0  0  0  0  0  0  0  0  0  0
  151.4922  144.9093  160.3096 H   0  0  0  0  0  0  0  0  0  0  0  0
  152.1566  143.2878  158.5455 H   0  0  0  0  0  0  0  0  0  0  0  0
  153.5298  141.3165  159.1181 H   0  0  0  0  0  0  0  0  0  0  0  0
  157.9862  138.9978  165.6669 H   0  0  0  0  0  0  0  0  0  0  0  0
  155.3444  132.9960  165.5352 H   0  0  0  0  0  0  0  0  0  0  0  0
  154.2438  134.3870  165.5509 H   0  0  0  0  0  0  0  0  0  0  0  0
  153.4499  133.8587  163.3020 H   0  0  0  0  0  0  0  0  0  0  0  0
  154.0456  131.3171  164.4029 H   0  0  0  0  0  0  0  0  0  0  0  0
  1  2  1  0  0  0  0
  1 34  1  0  0  0  0
  1 35  1  0  0  0  0
  1 36  1  0  0  0  0
  2  3  1  0  0  0  0
  2  4  1  0  0  0  0
  2  5  1  0  0  0  0
  3 37  1  0  0  0  0
  3 38  1  0  0  0  0
  3 39  1  0  0  0  0
  4 40  1  0  0  0  0
  4 41  1  0  0  0  0
  4 42  1  0  0  0  0
  5  6  1  0  0  0  0
  5  7  1  0  0  0  0
  5  8  1  0  0  0  0
  6 43  1  0  0  0  0
  6 44  1  0  0  0  0
  6 45  1  0  0  0  0
  7 46  1  0  0  0  0
  7 47  1  0  0  0  0
  7 48  1  0  0  0  0
  8  9  1  0  0  0  0
  9 10  1  0  0  0  0
  9 49  1  0  0  0  0
  9 50  1  0  0  0  0
 10 32  1  0  0  0  0
 10 11  1  0  0  0  0
 10 51  1  0  0  0  0
 11 12  1  0  0  0  0
 12 13  1  0  0  0  0
 12 31  1  0  0  0  0
 12 52  1  0  0  0  0
 13 30  1  0  0  0  0
 13 14  1  0  0  0  0
 14 15  2  0  0  0  0
 14 53  1  0  0  0  0
 15 16  1  0  0  0  0
 16 30  2  0  0  0  0
 16 17  1  0  0  0  0
 17 18  1  0  0  0  0
 17 27  2  0  0  0  0
 18 19  1  0  0  0  0
 18 54  1  0  0  0  0
 19 20  2  0  0  0  0
 19 21  1  0  0  0  0
 21 26  1  0  0  0  0
 21 22  2  0  0  0  0
 22 23  1  0  0  0  0
 22 55  1  0  0  0  0
 23 24  2  0  0  0  0
 23 56  1  0  0  0  0
 24 25  1  0  0  0  0
 24 57  1  0  0  0  0
 25 26  2  0  0  0  0
 25 58  1  0  0  0  0
 26 59  1  0  0  0  0
 27 28  1  0  0  0  0
 28 29  2  0  0  0  0
 28 60  1  0  0  0  0
 29 30  1  0  0  0  0
 31 32  1  0  0  0  0
 31 61  1  0  0  0  0
 31 62  1  0  0  0  0
 32 33  1  0  0  0  0
 32 63  1  0  0  0  0
 33 64  1  0  0  0  0
M  END
> <s_m_source_file>
AV-unprocessed.smi

> <i_m_source_file_index>
36

> <i_lp_mmshare_version>
43012

> <i_f3d_flags>
0

> <s_epik_input>
W0NIM11DKFtDSDNdKShbQ0gzXSlbU2ldKFtDSDNdKShbQ0gzXSlPW0NIMl1bQ0BASF0xT1tDQEhdKFtDSDJdW0NASF0xW09IXSluKFtjSF1uMiljKGMyMyluW2NIXW5jM1tOSF1DKD1PKWM0W2NIXVtjSF1bY0hdW2NIXVtjSF00

> <s_epik_cmdline>
J2VwaWtfcHl0aG9uJywgJy1waCcsICc3LjAnLCAnLXRuJywgJzgnLCAnLW1hJywgJzIwMCcsICctbWV0YWxfYmluZGluZycsICctaW1hZScsICc8aW5maWxlLm1hZT4nLCAnLW9tYWUnLCAnPG91dGZpbGUubWFlPic=

> <r_lp_tautomer_probability>
1

> <r_epik_Ionization_Penalty>
0.00150433

> <r_epik_Ionization_Penalty_Charging>
0

> <r_epik_Ionization_Penalty_Neutral>
0.00150433

> <r_epik_State_Penalty>
0.00724046

> <r_epik_Charging_Adjusted_Penalty>
0.00724046

> <i_epik_Tot_Q>
0

> <i_epik_Tot_abs_Q>
0

> <r_epik_Metal_State_Penalty>
0.323355

> <b_epik_Metal_Only>
0

> <s_epik_Chemistry_Notes>
This compound contains an acetal/aminal-like group ( X-CH(R)-Y where X, Y are N, S, or O) that may be acid/base labile, releasing an aldehyde.

> <s_lp_Force_Field>
OPLS_2005

> <r_lp_Energy>
33.6094

> <b_lp_Chiralities_Consistent>
1

> <s_lp_Variant>
AV-unprocessed.smi:36-6

> <Gold.Version>
5.8.1

> <Gold.Id.Protein>
6NUR|6NUR_protein|mol2

> <Gold.PLP.Fitness>
43.3092

> <Gold.PLP.PLP>
-44.1712

> <Gold.PLP.part.hbond>
0.0000

> <Gold.PLP.part.metal>
0.0000

> <Gold.PLP.part.buried>
-5.3501

> <Gold.PLP.part.nonpolar>
-37.4829

> <Gold.PLP.part.repulsive>
0.0451

> <Gold.PLP.ligand.clash>
0.0000

> <Gold.PLP.ligand.torsion>
0.6801

> <Gold.PLP.Chemscore.Hbond>
0.0000

> <Gold.PLP.Chemscore.CHOScore>
0.0000

> <Gold.PLP.Chemscore.Metal>
0.0000

> <Gold.PLP.Chemscore.Internal.Correction>
0.4981

> <Gold.Rescore>
     Score         DG    S(hbond)    S(metal)    S(lipo)     H(rot)  DE(clash)    DE(int)     intcor
     10.38     -11.02       0.00        0.00     106.56       2.70       0.00       0.64       ----

> <Gold.Chemscore.Fitness>
10.3766

> <Gold.Chemscore.DG>
-11.0245

> <Gold.Chemscore.ZeroCoef>
-5.4800

> <Gold.Chemscore.Hbond>
0.0000

> <Gold.Chemscore.Metal>
0.0000

> <Gold.Chemscore.Lipo>
106.5556

> <Gold.Chemscore.Internal_Hbond>
0.0000

> <Gold.Chemscore.DEClash>
0.0029

> <Gold.Chemscore.DEInternal>
0.6450

> <Gold.Chemscore.Rot>
2.7041

> <Gold.Chemscore.Internal.Correction>
   9.000000E+99

> <Gold.Chemscore.Hbond.Weighted>
-0.0000

> <Gold.Chemscore.Metal.Weighted>
-0.0000

> <Gold.Chemscore.Lipo.Weighted>
-12.4670

> <Gold.Chemscore.Internal_Hbond.Weighted>
0.0000

> <Gold.Chemscore.DEClash.Weighted>
0.0029

> <Gold.Chemscore.DEInternal.Weighted>
0.6450

> <Gold.Chemscore.Rot.Weighted>
6.9225

> <Gold.Chemscore.Internal.Correction.Weighted>
   9.000000E+99

> <Gold.Protein.RotatedTorsions>
[ 6907 6896 6895 6894 ] final -120.40 input  -60.11 | X-H torsion
[ 7974 7965 7964 7962 ] final  -87.37 input  175.53 | X-H torsion
[ 8008 7997 7996 7995 ] final -117.22 input   59.86 | X-H torsion
[ 10167 10162 10161 10158 ] final  -34.37 input  -65.29 | X-H torsion
[ 10718 10713 10712 10709 ] final  142.01 input   66.30 | X-H torsion
[ 10763 10752 10751 10750 ] final  -32.03 input  -60.55 | X-H torsion
[ 11005 11000 10999 10996 ] final   -3.88 input  -57.11 | X-H torsion

> <Gold.Protein.ActiveResidues>
 VAL166  LYS551  ARG553  GLY616  TRP617  ASP618  TYR619  PRO620  LYS621  CYS622 
 ASP623  PHE694  ASN695  SER759  ASP760  ASP761  ALA762  ILE779  LEU786  VAL792 
 PHE793  MET794  SER795  GLU796  ALA797  LYS798  CYS799  TRP800  GLU811  SER814 

> <Gold.Protein.RotatedAtoms>
  150.8390  133.7967  159.3068 H   0  0  0  0  0  0  0  0  0  0  0  0  # atno 6907 bound_to 6896
  151.5674  135.1062  159.9996 H   0  0  0  0  0  0  0  0  0  0  0  0  # atno 6908 bound_to 6896
  152.4457  133.7490  159.6739 H   0  0  0  0  0  0  0  0  0  0  0  0  # atno 6909 bound_to 6896
  145.4674  140.9560  143.1936 H   0  0  0  0  0  0  0  0  0  0  0  0  # atno 7974 bound_to 7965
  155.0803  140.0394  157.2637 H   0  0  0  0  0  0  0  0  0  0  0  0  # atno 8008 bound_to 7997
  154.6912  140.2654  155.6786 H   0  0  0  0  0  0  0  0  0  0  0  0  # atno 8009 bound_to 7997
  156.2729  140.2759  156.1491 H   0  0  0  0  0  0  0  0  0  0  0  0  # atno 8010 bound_to 7997
  140.7187  143.3553  151.2072 H   0  0  0  0  0  0  0  0  0  0  0  0  # atno 10167 bound_to 10162
  157.3854  131.0998  151.0698 H   0  0  0  0  0  0  0  0  0  0  0  0  # atno 10718 bound_to 10713
  153.8071  135.6885  153.4846 H   0  0  0  0  0  0  0  0  0  0  0  0  # atno 10763 bound_to 10752
  153.1652  135.4564  154.9825 H   0  0  0  0  0  0  0  0  0  0  0  0  # atno 10764 bound_to 10752
  154.7983  135.3327  154.7555 H   0  0  0  0  0  0  0  0  0  0  0  0  # atno 10765 bound_to 10752
  140.6742  133.9210  155.8513 H   0  0  0  0  0  0  0  0  0  0  0  0  # atno 11005 bound_to 11000
  144.7966  139.6222  143.7090 LP  0  0  0  0  0  0  0  0  0  0  0  0  # atno 17320 bound_to 7965
  146.2416  139.6014  142.9487 LP  0  0  0  0  0  0  0  0  0  0  0  0  # atno 17321 bound_to 7965
  139.7093  143.9403  152.2940 LP  0  0  0  0  0  0  0  0  0  0  0  0  # atno 17342 bound_to 10162
  139.9123  144.6849  150.8549 LP  0  0  0  0  0  0  0  0  0  0  0  0  # atno 17343 bound_to 10162
  157.1751  130.6285  149.5653 LP  0  0  0  0  0  0  0  0  0  0  0  0  # atno 17370 bound_to 10713
  155.9785  130.4772  150.6662 LP  0  0  0  0  0  0  0  0  0  0  0  0  # atno 17371 bound_to 10713
  141.0369  134.0677  157.3949 LP  0  0  0  0  0  0  0  0  0  0  0  0  # atno 17394 bound_to 11000
  139.8972  135.0149  156.7089 LP  0  0  0  0  0  0  0  0  0  0  0  0  # atno 17395 bound_to 11000

$$$$
