AV-unprocessed.smi:625|AV-procd|sdf|3103|dock4
  -GOLD-   22720 0 23D 1   1.00000     0.00000
 Structure written by MMmdl.
 49 51  0  0  0  0  0  0  0  0  1 V2000
  153.4311  139.6422  153.6301 C   0  0  0  0  0  0  0  0  0  0  0  0
  153.3583  140.6298  154.6958 N   0  0  0  0  0  0  0  0  0  0  0  0
  152.2762  140.8469  155.4638 C   0  0  0  0  0  0  0  0  0  0  0  0
  151.2346  140.2090  155.3062 O   0  0  0  0  0  0  0  0  0  0  0  0
  152.4608  141.8821  156.4850 C   0  0  0  0  0  0  0  0  0  0  0  0
  151.3597  142.2161  157.3674 C   0  0  0  0  0  0  0  0  0  0  0  0
  151.5105  143.1362  158.3405 C   0  0  0  0  0  0  0  0  0  0  0  0
  152.7817  143.8354  158.5515 C   0  0  0  0  0  0  0  0  0  0  0  0
  152.9308  144.6595  159.4536 O   0  0  0  0  0  0  0  0  0  0  0  0
  153.7881  143.5082  157.6859 N   0  0  0  0  0  0  0  0  0  0  0  0
  155.1322  144.0934  157.8097 C   0  0  0  0  0  0  0  0  0  0  0  0
  155.7829  144.2544  156.4315 C   0  0  0  0  0  0  0  0  0  0  0  0
  155.0936  144.5245  155.4480 O   0  0  0  0  0  0  0  0  0  0  0  0
  157.1165  144.1091  156.3886 N   0  0  0  0  0  0  0  0  0  0  0  0
  157.9694  144.3701  155.2311 C   0  0  2  0  0  0  0  0  0  0  0  0
  157.3454  143.6877  154.0032 C   0  0  0  0  0  0  0  0  0  0  0  0
  159.4109  143.8728  155.5138 C   0  0  1  0  0  0  0  0  0  0  0  0
  160.0303  144.4768  156.7977 C   0  0  0  0  0  0  0  0  0  0  0  0
  160.4816  143.2386  157.5926 C   0  0  2  0  0  0  0  0  0  0  0  0
  161.6761  142.5760  156.8826 C   0  0  0  0  0  0  0  0  0  0  0  0
  161.0197  141.9367  155.6457 C   0  0  0  0  0  0  0  0  0  0  0  0
  159.5434  142.3508  155.7924 C   0  0  1  0  0  0  0  0  0  0  0  0
  159.3523  142.2598  157.3016 C   0  0  0  0  0  0  0  0  0  0  0  0
  153.6223  142.5455  156.6700 C   0  0  0  0  0  0  0  0  0  0  0  0
  154.4136  139.6764  153.1599 H   0  0  0  0  0  0  0  0  0  0  0  0
  152.6790  139.8383  152.8651 H   0  0  0  0  0  0  0  0  0  0  0  0
  153.2768  138.6363  154.0225 H   0  0  0  0  0  0  0  0  0  0  0  0
  154.1863  141.1805  154.8703 H   0  0  0  0  0  0  0  0  0  0  0  0
  150.4018  141.7287  157.2551 H   0  0  0  0  0  0  0  0  0  0  0  0
  150.6741  143.3644  158.9846 H   0  0  0  0  0  0  0  0  0  0  0  0
  155.0611  145.0612  158.3095 H   0  0  0  0  0  0  0  0  0  0  0  0
  155.7907  143.4932  158.4392 H   0  0  0  0  0  0  0  0  0  0  0  0
  157.5886  143.8703  157.2486 H   0  0  0  0  0  0  0  0  0  0  0  0
  158.0035  145.4417  155.0290 H   0  0  0  0  0  0  0  0  0  0  0  0
  157.9189  143.8865  153.0982 H   0  0  0  0  0  0  0  0  0  0  0  0
  156.3314  144.0493  153.8288 H   0  0  0  0  0  0  0  0  0  0  0  0
  157.2944  142.6059  154.1320 H   0  0  0  0  0  0  0  0  0  0  0  0
  160.0284  144.1316  154.6521 H   0  0  0  0  0  0  0  0  0  0  0  0
  160.8564  145.1549  156.5802 H   0  0  0  0  0  0  0  0  0  0  0  0
  159.2912  145.0335  157.3753 H   0  0  0  0  0  0  0  0  0  0  0  0
  160.6563  143.4384  158.6499 H   0  0  0  0  0  0  0  0  0  0  0  0
  162.4508  143.2965  156.6180 H   0  0  0  0  0  0  0  0  0  0  0  0
  162.1303  141.8108  157.5136 H   0  0  0  0  0  0  0  0  0  0  0  0
  161.4609  142.2817  154.7102 H   0  0  0  0  0  0  0  0  0  0  0  0
  161.1203  140.8515  155.6794 H   0  0  0  0  0  0  0  0  0  0  0  0
  158.8768  141.7140  155.2132 H   0  0  0  0  0  0  0  0  0  0  0  0
  159.5321  141.2603  157.7014 H   0  0  0  0  0  0  0  0  0  0  0  0
  158.3750  142.6084  157.6387 H   0  0  0  0  0  0  0  0  0  0  0  0
  154.5145  142.3822  156.0823 H   0  0  0  0  0  0  0  0  0  0  0  0
  1  2  1  0  0  0  0
  1 25  1  0  0  0  0
  1 26  1  0  0  0  0
  1 27  1  0  0  0  0
  2  3  1  0  0  0  0
  2 28  1  0  0  0  0
  3  4  2  0  0  0  0
  3  5  1  0  0  0  0
  5 24  2  0  0  0  0
  5  6  1  0  0  0  0
  6  7  2  0  0  0  0
  6 29  1  0  0  0  0
  7  8  1  0  0  0  0
  7 30  1  0  0  0  0
  8  9  2  0  0  0  0
  8 10  1  0  0  0  0
 10 11  1  0  0  0  0
 10 24  1  0  0  0  0
 11 12  1  0  0  0  0
 11 31  1  0  0  0  0
 11 32  1  0  0  0  0
 12 13  2  0  0  0  0
 12 14  1  0  0  0  0
 14 15  1  0  0  0  0
 14 33  1  0  0  0  0
 15 16  1  0  0  0  0
 15 17  1  0  0  0  0
 15 34  1  0  0  0  0
 16 35  1  0  0  0  0
 16 36  1  0  0  0  0
 16 37  1  0  0  0  0
 17 22  1  0  0  0  0
 17 18  1  0  0  0  0
 17 38  1  0  0  0  0
 18 19  1  0  0  0  0
 18 39  1  0  0  0  0
 18 40  1  0  0  0  0
 19 23  1  0  0  0  0
 19 20  1  0  0  0  0
 19 41  1  0  0  0  0
 20 21  1  0  0  0  0
 20 42  1  0  0  0  0
 20 43  1  0  0  0  0
 21 22  1  0  0  0  0
 21 44  1  0  0  0  0
 21 45  1  0  0  0  0
 22 23  1  0  0  0  0
 22 46  1  0  0  0  0
 23 47  1  0  0  0  0
 23 48  1  0  0  0  0
 24 49  1  0  0  0  0
M  END
> <s_m_source_file>
AV-unprocessed.smi

> <i_m_source_file_index>
625

> <i_lp_mmshare_version>
43012

> <i_f3d_flags>
0

> <s_epik_input>
W0NIM11bTkhdQyg9TyljMVtjSF1bY0hdYyg9TyluKFtjSF0xKVtDSDJdQyg9TylbTkhdW0NASF0oW0NIM10pW0NASF0oW0NIMl1bQ0BIXTIzKVtDQEhdKFtDSDJdMylbQ0gyXVtDSDJdMg==

> <s_epik_cmdline>
J2VwaWtfcHl0aG9uJywgJy1waCcsICc3LjAnLCAnLXRuJywgJzgnLCAnLW1hJywgJzIwMCcsICctbWV0YWxfYmluZGluZycsICctaW1hZScsICc8aW5maWxlLm1hZT4nLCAnLW9tYWUnLCAnPG91dGZpbGUubWFlPic=

> <r_lp_tautomer_probability>
1

> <r_epik_Ionization_Penalty>
3.7129e-07

> <r_epik_Ionization_Penalty_Charging>
5.04114e-08

> <r_epik_Ionization_Penalty_Neutral>
3.20879e-07

> <r_epik_State_Penalty>
-0

> <r_epik_Charging_Adjusted_Penalty>
5.04114e-08

> <i_epik_Tot_Q>
0

> <i_epik_Tot_abs_Q>
0

> <r_epik_Metal_State_Penalty>
-0

> <b_epik_Metal_Only>
0

> <s_lp_Force_Field>
OPLS_2005

> <r_lp_Energy>
63.7952

> <b_lp_Chiralities_Consistent>
1

> <s_lp_Variant>
AV-unprocessed.smi:625-3

> <Gold.Version>
5.8.1

> <Gold.Id.Protein>
6NUR|6NUR_protein|mol2

> <Gold.PLP.Fitness>
46.2391

> <Gold.PLP.PLP>
-42.7424

> <Gold.PLP.part.hbond>
-2.0000

> <Gold.PLP.part.metal>
0.0000

> <Gold.PLP.part.buried>
-5.1078

> <Gold.PLP.part.nonpolar>
-35.6657

> <Gold.PLP.part.repulsive>
0.2332

> <Gold.PLP.ligand.clash>
0.0000

> <Gold.PLP.ligand.torsion>
0.8308

> <Gold.PLP.Chemscore.Hbond>
1.6960

> <Gold.PLP.Chemscore.CHOScore>
0.0000

> <Gold.PLP.Chemscore.Metal>
0.0000

> <Gold.PLP.Chemscore.Internal.Correction>
0.0704

> <Gold.Rescore>
     Score         DG    S(hbond)    S(metal)    S(lipo)     H(rot)  DE(clash)    DE(int)     intcor
     16.42     -20.17       1.88        0.00     108.44       1.67       0.30       3.45       ----

> <Gold.Chemscore.Fitness>
16.4232

> <Gold.Chemscore.DG>
-20.1741

> <Gold.Chemscore.ZeroCoef>
-5.4800

> <Gold.Chemscore.Hbond>
1.8815

> <Gold.Chemscore.Metal>
0.0000

> <Gold.Chemscore.Lipo>
108.4390

> <Gold.Chemscore.Internal_Hbond>
0.0000

> <Gold.Chemscore.DEClash>
0.2959

> <Gold.Chemscore.DEInternal>
3.4550

> <Gold.Chemscore.Rot>
1.6709

> <Gold.Chemscore.Internal.Correction>
   9.000000E+99

> <Gold.Chemscore.Hbond.Weighted>
-6.2841

> <Gold.Chemscore.Metal.Weighted>
-0.0000

> <Gold.Chemscore.Lipo.Weighted>
-12.6874

> <Gold.Chemscore.Internal_Hbond.Weighted>
0.0000

> <Gold.Chemscore.DEClash.Weighted>
0.2959

> <Gold.Chemscore.DEInternal.Weighted>
3.4550

> <Gold.Chemscore.Rot.Weighted>
4.2774

> <Gold.Chemscore.Internal.Correction.Weighted>
   9.000000E+99

> <Gold.Protein.RotatedTorsions>
[ 6907 6896 6895 6894 ] final   31.38 input  -60.11 | X-H torsion
[ 7974 7965 7964 7962 ] final -136.77 input  175.53 | X-H torsion
[ 8008 7997 7996 7995 ] final -127.52 input   59.86 | X-H torsion
[ 10167 10162 10161 10158 ] final  143.21 input  -65.29 | X-H torsion
[ 10718 10713 10712 10709 ] final  -89.65 input   66.30 | X-H torsion
[ 10763 10752 10751 10750 ] final   65.88 input  -60.55 | X-H torsion
[ 11005 11000 10999 10996 ] final  117.20 input  -57.11 | X-H torsion

> <Gold.Protein.ActiveResidues>
 VAL166  LYS551  ARG553  GLY616  TRP617  ASP618  TYR619  PRO620  LYS621  CYS622 
 ASP623  PHE694  ASN695  SER759  ASP760  ASP761  ALA762  ILE779  LEU786  VAL792 
 PHE793  MET794  SER795  GLU796  ALA797  LYS798  CYS799  TRP800  GLU811  SER814 

> <Gold.Protein.RotatedAtoms>
  152.0595  134.9603  160.0574 H   0  0  0  0  0  0  0  0  0  0  0  0  # atno 6907 bound_to 6896
  152.0972  133.4226  159.4579 H   0  0  0  0  0  0  0  0  0  0  0  0  # atno 6908 bound_to 6896
  150.6838  134.2722  159.4636 H   0  0  0  0  0  0  0  0  0  0  0  0  # atno 6909 bound_to 6896
  144.8899  140.6627  143.5152 H   0  0  0  0  0  0  0  0  0  0  0  0  # atno 7974 bound_to 7965
  155.2475  140.0431  157.2982 H   0  0  0  0  0  0  0  0  0  0  0  0  # atno 8008 bound_to 7997
  154.5790  140.2395  155.8051 H   0  0  0  0  0  0  0  0  0  0  0  0  # atno 8009 bound_to 7997
  156.2179  140.2979  155.9890 H   0  0  0  0  0  0  0  0  0  0  0  0  # atno 8010 bound_to 7997
  139.4975  144.6056  151.6386 H   0  0  0  0  0  0  0  0  0  0  0  0  # atno 10167 bound_to 10162
  155.9985  130.4880  150.5204 H   0  0  0  0  0  0  0  0  0  0  0  0  # atno 10718 bound_to 10713
  153.0115  135.5340  154.6737 H   0  0  0  0  0  0  0  0  0  0  0  0  # atno 10763 bound_to 10752
  154.5915  135.2859  155.0633 H   0  0  0  0  0  0  0  0  0  0  0  0  # atno 10764 bound_to 10752
  154.1724  135.6530  153.5065 H   0  0  0  0  0  0  0  0  0  0  0  0  # atno 10765 bound_to 10752
  139.9066  134.9607  156.7314 H   0  0  0  0  0  0  0  0  0  0  0  0  # atno 11005 bound_to 11000
  145.3802  139.1638  143.4284 LP  0  0  0  0  0  0  0  0  0  0  0  0  # atno 17320 bound_to 7965
  146.3047  140.3882  142.8691 LP  0  0  0  0  0  0  0  0  0  0  0  0  # atno 17321 bound_to 7965
  140.5716  144.0098  150.6220 LP  0  0  0  0  0  0  0  0  0  0  0  0  # atno 17342 bound_to 10162
  140.3218  143.3132  152.0776 LP  0  0  0  0  0  0  0  0  0  0  0  0  # atno 17343 bound_to 10162
  157.3166  131.0674  151.1962 LP  0  0  0  0  0  0  0  0  0  0  0  0  # atno 17370 bound_to 10713
  157.2890  130.6787  149.6104 LP  0  0  0  0  0  0  0  0  0  0  0  0  # atno 17371 bound_to 10713
  140.6922  133.9380  155.7973 LP  0  0  0  0  0  0  0  0  0  0  0  0  # atno 17394 bound_to 11000
  141.0433  134.0590  157.3875 LP  0  0  0  0  0  0  0  0  0  0  0  0  # atno 17395 bound_to 11000

$$$$
