AV-unprocessed.smi:557|AV-procd|sdf|2921|dock10
  -GOLD-   2262023413D 1   1.00000     0.00000
 Structure written by MMmdl.
 47 49  0  0  0  0  0  0  0  0  2 V2000
  151.9643  145.2144  159.5005 C   0  0  0  0  0  0  0  0  0  0  0  0
  151.9325  143.8031  159.1813 N   0  0  0  0  0  0  0  0  0  0  0  0
  151.3313  143.1769  158.1111 C   0  0  0  0  0  0  0  0  0  0  0  0
  151.5698  141.8369  158.2328 C   0  0  0  0  0  0  0  0  0  0  0  0
  151.1285  140.7201  157.3290 C   0  0  0  0  0  0  0  0  0  0  0  0
  150.4249  141.2570  156.0757 C   0  0  0  0  0  0  0  0  0  0  0  0
  149.4032  140.3191  155.6188 N   0  0  0  0  0  0  0  0  0  0  0  0
  148.5646  140.4760  154.5810 C   0  0  0  0  0  0  0  0  0  0  0  0
  148.5856  141.4808  153.8735 O   0  0  0  0  0  0  0  0  0  0  0  0
  147.7210  139.4477  154.3853 N   0  0  0  0  0  0  0  0  0  0  0  0
  146.6943  139.3815  153.3471 C   0  0  1  0  0  0  0  0  0  0  0  0
  147.2359  139.6866  151.9375 C   0  0  0  0  0  0  0  0  0  0  0  0
  146.5164  138.6879  151.0250 C   0  0  0  0  0  0  0  0  0  0  0  0
  146.3749  137.5074  151.8848 N   0  3  2  0  0  0  0  0  0  0  0  0
  145.5112  136.3982  151.4332 C   0  0  0  0  0  0  0  0  0  0  0  0
  145.6925  135.2150  152.4089 C   0  0  0  0  0  0  0  0  0  0  0  0
  145.4853  135.6316  153.8836 C   0  0  0  0  0  0  0  0  0  0  0  0
  146.3138  136.8820  154.2521 C   0  0  0  0  0  0  0  0  0  0  0  0
  146.0209  137.9941  153.2293 C   0  0  1  0  0  0  0  0  0  0  0  0
  152.3403  141.7456  159.4271 C   0  0  0  0  0  0  0  0  0  0  0  0
  152.5536  142.9228  159.9928 N   0  0  0  0  0  0  0  0  0  0  0  0
  151.3878  145.7772  158.7658 H   0  0  0  0  0  0  0  0  0  0  0  0
  152.9947  145.5714  159.4916 H   0  0  0  0  0  0  0  0  0  0  0  0
  151.5354  145.3800  160.4892 H   0  0  0  0  0  0  0  0  0  0  0  0
  150.7877  143.7298  157.3592 H   0  0  0  0  0  0  0  0  0  0  0  0
  151.9851  140.1139  157.0313 H   0  0  0  0  0  0  0  0  0  0  0  0
  150.4562  140.0433  157.8581 H   0  0  0  0  0  0  0  0  0  0  0  0
  149.9671  142.2240  156.2901 H   0  0  0  0  0  0  0  0  0  0  0  0
  151.1551  141.4095  155.2790 H   0  0  0  0  0  0  0  0  0  0  0  0
  149.3758  139.4286  156.0947 H   0  0  0  0  0  0  0  0  0  0  0  0
  147.7903  138.6584  155.0110 H   0  0  0  0  0  0  0  0  0  0  0  0
  145.9174  140.1174  153.5655 H   0  0  0  0  0  0  0  0  0  0  0  0
  147.0695  140.7217  151.6372 H   0  0  0  0  0  0  0  0  0  0  0  0
  148.3104  139.5002  151.8965 H   0  0  0  0  0  0  0  0  0  0  0  0
  145.5301  139.0621  150.7455 H   0  0  0  0  0  0  0  0  0  0  0  0
  147.0765  138.4679  150.1158 H   0  0  0  0  0  0  0  0  0  0  0  0
  144.4694  136.7211  151.3994 H   0  0  0  0  0  0  0  0  0  0  0  0
  145.7918  136.0995  150.4227 H   0  0  0  0  0  0  0  0  0  0  0  0
  145.0077  134.4073  152.1488 H   0  0  0  0  0  0  0  0  0  0  0  0
  146.6988  134.8102  152.2937 H   0  0  0  0  0  0  0  0  0  0  0  0
  144.4276  135.8399  154.0505 H   0  0  0  0  0  0  0  0  0  0  0  0
  145.7418  134.8040  154.5454 H   0  0  0  0  0  0  0  0  0  0  0  0
  146.0579  137.2108  155.2598 H   0  0  0  0  0  0  0  0  0  0  0  0
  147.3774  136.6388  154.2561 H   0  0  0  0  0  0  0  0  0  0  0  0
  144.9440  138.1778  153.2387 H   0  0  0  0  0  0  0  0  0  0  0  0
  152.7473  140.8626  159.8975 H   0  0  0  0  0  0  0  0  0  0  0  0
  147.3066  137.1263  151.9654 H   0  0  0  0  0  0  0  0  0  0  0  0
  1  2  1  0  0  0  0
  1 22  1  0  0  0  0
  1 23  1  0  0  0  0
  1 24  1  0  0  0  0
  2 21  1  0  0  0  0
  2  3  1  0  0  0  0
  3  4  2  0  0  0  0
  3 25  1  0  0  0  0
  4  5  1  0  0  0  0
  4 20  1  0  0  0  0
  5  6  1  0  0  0  0
  5 26  1  0  0  0  0
  5 27  1  0  0  0  0
  6  7  1  0  0  0  0
  6 28  1  0  0  0  0
  6 29  1  0  0  0  0
  7  8  1  0  0  0  0
  7 30  1  0  0  0  0
  8  9  2  0  0  0  0
  8 10  1  0  0  0  0
 10 11  1  0  0  0  0
 10 31  1  0  0  0  0
 11 19  1  0  0  0  0
 11 12  1  0  0  0  0
 11 32  1  0  0  0  0
 12 13  1  0  0  0  0
 12 33  1  0  0  0  0
 12 34  1  0  0  0  0
 13 14  1  0  0  0  0
 13 35  1  0  0  0  0
 13 36  1  0  0  0  0
 14 19  1  0  0  0  0
 14 15  1  0  0  0  0
 14 47  1  0  0  0  0
 15 16  1  0  0  0  0
 15 37  1  0  0  0  0
 15 38  1  0  0  0  0
 16 17  1  0  0  0  0
 16 39  1  0  0  0  0
 16 40  1  0  0  0  0
 17 18  1  0  0  0  0
 17 41  1  0  0  0  0
 17 42  1  0  0  0  0
 18 19  1  0  0  0  0
 18 43  1  0  0  0  0
 18 44  1  0  0  0  0
 19 45  1  0  0  0  0
 20 21  2  0  0  0  0
 20 46  1  0  0  0  0
M  CHG  1  14   1
M  END
> <s_m_source_file>
AV-unprocessed.smi

> <i_m_source_file_index>
557

> <i_lp_mmshare_version>
43012

> <i_f3d_flags>
0

> <s_epik_input>
W0NIM11uMVtjSF1jKFtjSF1uMSlbQ0gyXVtDSDJdW05IXUMoPU8pW05IXVtDQEhdKFtDSDJdW0NIMl0yKVtDQEhdKE4yMylbQ0gyXVtDSDJdW0NIMl1bQ0gyXTM=

> <s_epik_cmdline>
J2VwaWtfcHl0aG9uJywgJy1waCcsICc3LjAnLCAnLXRuJywgJzgnLCAnLW1hJywgJzIwMCcsICctbWV0YWxfYmluZGluZycsICctaW1hZScsICc8aW5maWxlLm1hZT4nLCAnLW9tYWUnLCAnPG91dGZpbGUubWFlPic=

> <r_lp_tautomer_probability>
1

> <r_epik_Ionization_Penalty>
0.000956547

> <r_epik_Ionization_Penalty_Charging>
0.000435796

> <r_epik_Ionization_Penalty_Neutral>
0.000520752

> <r_epik_State_Penalty>
-0

> <r_epik_Charging_Adjusted_Penalty>
0.000435796

> <i_epik_Tot_Q>
1

> <i_epik_Tot_abs_Q>
1

> <r_epik_Metal_State_Penalty>
-0

> <b_epik_Metal_Only>
0

> <s_lp_Force_Field>
OPLS_2005

> <r_lp_Energy>
46.7552

> <b_lp_Chiralities_Consistent>
1

> <s_lp_Variant>
AV-unprocessed.smi:557-8

> <Gold.Version>
5.8.1

> <Gold.Id.Protein>
6NUR|6NUR_protein|mol2

> <Gold.PLP.Fitness>
47.7977

> <Gold.PLP.PLP>
-37.6045

> <Gold.PLP.part.hbond>
-2.0000

> <Gold.PLP.part.metal>
0.0000

> <Gold.PLP.part.buried>
2.1428

> <Gold.PLP.part.nonpolar>
-38.3827

> <Gold.PLP.part.repulsive>
0.3351

> <Gold.PLP.ligand.clash>
0.0000

> <Gold.PLP.ligand.torsion>
0.3059

> <Gold.PLP.Chemscore.Hbond>
2.5970

> <Gold.PLP.Chemscore.CHOScore>
1.0000

> <Gold.PLP.Chemscore.Metal>
0.0000

> <Gold.Chemscore.Hbonds>
donor molecule, donor type, donor heavy atom, donor atom, acceptor molecule, acceptor atom, score
      L1  H    14    47       P1  7948  2.00
      P1  H  8011  8017       L1     9  0.46
      L1  C     3    25       P1  8028  0.54

> <Gold.PLP.Chemscore.Internal.Correction>
0.0141

> <Gold.Rescore>
     Score         DG    S(hbond)    S(metal)    S(lipo)     H(rot)  DE(clash)    DE(int)     intcor
     15.75     -18.55       1.69        0.00      98.52       1.60       2.57       0.23       ----

> <Gold.Chemscore.Fitness>
15.7456

> <Gold.Chemscore.DG>
-18.5482

> <Gold.Chemscore.ZeroCoef>
-5.4800

> <Gold.Chemscore.Hbond>
1.6891

> <Gold.Chemscore.Metal>
0.0000

> <Gold.Chemscore.Lipo>
98.5237

> <Gold.Chemscore.Internal_Hbond>
0.0000

> <Gold.Chemscore.DEClash>
2.5713

> <Gold.Chemscore.DEInternal>
0.2313

> <Gold.Chemscore.Rot>
1.6018

> <Gold.Chemscore.Internal.Correction>
   9.000000E+99

> <Gold.Chemscore.Hbonds>
donor molecule, donor type, donor heavy atom, donor atom, acceptor molecule, acceptor atom, score
      L1  H    14    47       P1  7948  1.00
      P1  H  8011  8017       L1     9  0.45

> <Gold.Chemscore.Hbond.Weighted>
-5.6415

> <Gold.Chemscore.Metal.Weighted>
-0.0000

> <Gold.Chemscore.Lipo.Weighted>
-11.5273

> <Gold.Chemscore.Internal_Hbond.Weighted>
0.0000

> <Gold.Chemscore.DEClash.Weighted>
2.5713

> <Gold.Chemscore.DEInternal.Weighted>
0.2313

> <Gold.Chemscore.Rot.Weighted>
4.1006

> <Gold.Chemscore.Internal.Correction.Weighted>
   9.000000E+99

> <Gold.Protein.RotatedTorsions>
[ 6907 6896 6895 6894 ] final  174.04 input  -60.11 | X-H torsion
[ 7974 7965 7964 7962 ] final  134.53 input  175.53 | X-H torsion
[ 8008 7997 7996 7995 ] final  134.18 input   59.86 | X-H torsion
[ 10167 10162 10161 10158 ] final   95.07 input  -65.29 | X-H torsion
[ 10718 10713 10712 10709 ] final  -26.76 input   66.30 | X-H torsion
[ 10763 10752 10751 10750 ] final  -10.41 input  -60.55 | X-H torsion
[ 11005 11000 10999 10996 ] final  138.55 input  -57.11 | X-H torsion

> <Gold.Protein.ActiveResidues>
 VAL166  LYS551  ARG553  GLY616  TRP617  ASP618  TYR619  PRO620  LYS621  CYS622 
 ASP623  PHE694  ASN695  SER759  ASP760  ASP761  ALA762  ILE779  LEU786  VAL792 
 PHE793  MET794  SER795  GLU796  ALA797  LYS798  CYS799  TRP800  GLU811  SER814 

> <Gold.Protein.RotatedAtoms>
  151.7587  133.3332  159.3411 H   0  0  0  0  0  0  0  0  0  0  0  0  # atno 6907 bound_to 6896
  150.7506  134.6125  159.6103 H   0  0  0  0  0  0  0  0  0  0  0  0  # atno 6908 bound_to 6896
  152.3420  134.7124  160.0312 H   0  0  0  0  0  0  0  0  0  0  0  0  # atno 6909 bound_to 6896
  144.9754  139.4561  143.5412 H   0  0  0  0  0  0  0  0  0  0  0  0  # atno 7974 bound_to 7965
  156.2997  140.2502  156.3375 H   0  0  0  0  0  0  0  0  0  0  0  0  # atno 8008 bound_to 7997
  154.9086  140.0404  157.1953 H   0  0  0  0  0  0  0  0  0  0  0  0  # atno 8009 bound_to 7997
  154.8428  140.2893  155.5652 H   0  0  0  0  0  0  0  0  0  0  0  0  # atno 8010 bound_to 7997
  139.8023  144.6808  150.9748 H   0  0  0  0  0  0  0  0  0  0  0  0  # atno 10167 bound_to 10162
  156.4470  130.4476  149.7015 H   0  0  0  0  0  0  0  0  0  0  0  0  # atno 10718 bound_to 10713
  153.4687  135.7016  153.6006 H   0  0  0  0  0  0  0  0  0  0  0  0  # atno 10763 bound_to 10752
  153.4269  135.3812  155.2147 H   0  0  0  0  0  0  0  0  0  0  0  0  # atno 10764 bound_to 10752
  154.8726  135.3941  154.4122 H   0  0  0  0  0  0  0  0  0  0  0  0  # atno 10765 bound_to 10752
  140.0191  134.9405  157.0438 H   0  0  0  0  0  0  0  0  0  0  0  0  # atno 11005 bound_to 11000
  146.3394  139.8993  142.8797 LP  0  0  0  0  0  0  0  0  0  0  0  0  # atno 17320 bound_to 7965
  145.2498  141.0040  143.3887 LP  0  0  0  0  0  0  0  0  0  0  0  0  # atno 17321 bound_to 7965
  140.7820  143.4268  151.0755 LP  0  0  0  0  0  0  0  0  0  0  0  0  # atno 17342 bound_to 10162
  139.7940  143.8178  152.3155 LP  0  0  0  0  0  0  0  0  0  0  0  0  # atno 17343 bound_to 10162
  156.3857  130.7601  151.2598 LP  0  0  0  0  0  0  0  0  0  0  0  0  # atno 17370 bound_to 10713
  157.7504  131.0283  150.4041 LP  0  0  0  0  0  0  0  0  0  0  0  0  # atno 17371 bound_to 10713
  140.4418  134.1673  155.7174 LP  0  0  0  0  0  0  0  0  0  0  0  0  # atno 17394 bound_to 11000
  141.1762  133.8508  157.1412 LP  0  0  0  0  0  0  0  0  0  0  0  0  # atno 17395 bound_to 11000

$$$$
