AV-unprocessed.smi:3090|AV-procd|sdf|11775|dock4
  -GOLD-   2272017153D 1   1.00000     0.00000
 Structure written by MMmdl.
 22 22  0  0  0  0  0  0  0  0  2 V2000
  151.6671  138.1729  154.9580 C   0  0  0  0  0  0  0  0  0  0  0  0
  150.4970  138.9492  154.6080 N   0  0  0  0  0  0  0  0  0  0  0  0
  149.2377  138.5030  154.2705 C   0  0  0  0  0  0  0  0  0  0  0  0
  148.4640  139.6030  154.0199 C   0  0  0  0  0  0  0  0  0  0  0  0
  147.0140  139.6799  153.6205 C   0  0  1  0  0  0  0  0  0  0  0  0
  146.5753  141.0209  153.5264 O   0  0  0  0  0  0  0  0  0  0  0  0
  146.7892  138.9973  152.2599 C   0  0  0  0  0  0  0  0  0  0  0  0
  145.3741  138.6444  152.0510 N   0  3  0  0  0  0  0  0  0  0  0  0
  149.3602  140.6888  154.2376 C   0  0  0  0  0  0  0  0  0  0  0  0
  150.5731  140.2952  154.5888 N   0  0  0  0  0  0  0  0  0  0  0  0
  151.4332  137.1083  154.9276 H   0  0  0  0  0  0  0  0  0  0  0  0
  151.9968  138.4343  155.9640 H   0  0  0  0  0  0  0  0  0  0  0  0
  152.4717  138.3788  154.2516 H   0  0  0  0  0  0  0  0  0  0  0  0
  148.9973  137.4503  154.2374 H   0  0  0  0  0  0  0  0  0  0  0  0
  146.3948  139.1886  154.3722 H   0  0  0  0  0  0  0  0  0  0  0  0
  145.7818  141.0421  153.0124 H   0  0  0  0  0  0  0  0  0  0  0  0
  147.1223  139.6397  151.4435 H   0  0  0  0  0  0  0  0  0  0  0  0
  147.3747  138.0789  152.2013 H   0  0  0  0  0  0  0  0  0  0  0  0
  144.7850  139.3913  152.3905 H   0  0  0  0  0  0  0  0  0  0  0  0
  145.1669  137.7943  152.5559 H   0  0  0  0  0  0  0  0  0  0  0  0
  149.1640  141.7476  154.1522 H   0  0  0  0  0  0  0  0  0  0  0  0
  145.2041  138.4999  151.0660 H   0  0  0  0  0  0  0  0  0  0  0  0
  1  2  1  0  0  0  0
  1 11  1  0  0  0  0
  1 12  1  0  0  0  0
  1 13  1  0  0  0  0
  2 10  1  0  0  0  0
  2  3  1  0  0  0  0
  3  4  2  0  0  0  0
  3 14  1  0  0  0  0
  4  5  1  0  0  0  0
  4  9  1  0  0  0  0
  5  6  1  0  0  0  0
  5  7  1  0  0  0  0
  5 15  1  0  0  0  0
  6 16  1  0  0  0  0
  7  8  1  0  0  0  0
  7 17  1  0  0  0  0
  7 18  1  0  0  0  0
  8 19  1  0  0  0  0
  8 20  1  0  0  0  0
  8 22  1  0  0  0  0
  9 10  2  0  0  0  0
  9 21  1  0  0  0  0
M  CHG  1   8   1
M  END
> <s_m_source_file>
AV-unprocessed.smi

> <i_m_source_file_index>
3090

> <i_lp_mmshare_version>
43012

> <i_f3d_flags>
0

> <s_epik_input>
W0NIM11uMVtjSF1jKFtjSF1uMSlbQ0BIXShbT0hdKVtDSDJdW05IMl0=

> <s_epik_cmdline>
J2VwaWtfcHl0aG9uJywgJy1waCcsICc3LjAnLCAnLXRuJywgJzgnLCAnLW1hJywgJzIwMCcsICctbWV0YWxfYmluZGluZycsICctaW1hZScsICc8aW5maWxlLm1hZT4nLCAnLW9tYWUnLCAnPG91dGZpbGUubWFlPic=

> <r_lp_tautomer_probability>
1

> <r_epik_Ionization_Penalty>
0.014056

> <r_epik_Ionization_Penalty_Charging>
0.0140431

> <r_epik_Ionization_Penalty_Neutral>
1.29738e-05

> <r_epik_State_Penalty>
0.0109628

> <r_epik_Charging_Adjusted_Penalty>
0.0250059

> <i_epik_Tot_Q>
1

> <i_epik_Tot_abs_Q>
1

> <r_epik_Metal_State_Penalty>
0.0109636

> <b_epik_Metal_Only>
0

> <s_lp_Force_Field>
OPLS_2005

> <r_lp_Energy>
1.35566

> <b_lp_Chiralities_Consistent>
1

> <s_lp_Variant>
AV-unprocessed.smi:3090-2

> <Gold.Version>
5.8.1

> <Gold.Id.Protein>
6NUR|6NUR_protein|mol2

> <Gold.PLP.Fitness>
39.7073

> <Gold.PLP.PLP>
-22.7139

> <Gold.PLP.part.hbond>
-4.0000

> <Gold.PLP.part.metal>
0.0000

> <Gold.PLP.part.buried>
-1.2207

> <Gold.PLP.part.nonpolar>
-17.9440

> <Gold.PLP.part.repulsive>
0.1284

> <Gold.PLP.ligand.clash>
0.0000

> <Gold.PLP.ligand.torsion>
0.1723

> <Gold.PLP.Chemscore.Hbond>
4.8140

> <Gold.PLP.Chemscore.CHOScore>
0.9645

> <Gold.PLP.Chemscore.Metal>
0.0000

> <Gold.Chemscore.Hbonds>
donor molecule, donor type, donor heavy atom, donor atom, acceptor molecule, acceptor atom, score
      L1  H     6    16       P1 10175  0.50
      L1  H     8    19       P1 10175  2.00
      L1  H     8    22       P1 10171  0.83
      P1  H  7989  7998       L1    10  1.00
      L1  C     3    14       P1  7948  0.52

> <Gold.PLP.Chemscore.Internal.Correction>
0.0024

> <Gold.Rescore>
     Score         DG    S(hbond)    S(metal)    S(lipo)     H(rot)  DE(clash)    DE(int)     intcor
     16.63     -16.96       3.46        0.00      42.07       1.96       0.15       0.18       ----

> <Gold.Chemscore.Fitness>
16.6282

> <Gold.Chemscore.DG>
-16.9552

> <Gold.Chemscore.ZeroCoef>
-5.4800

> <Gold.Chemscore.Hbond>
3.4606

> <Gold.Chemscore.Metal>
0.0000

> <Gold.Chemscore.Lipo>
42.0669

> <Gold.Chemscore.Internal_Hbond>
0.0000

> <Gold.Chemscore.DEClash>
0.1483

> <Gold.Chemscore.DEInternal>
0.1787

> <Gold.Chemscore.Rot>
1.9551

> <Gold.Chemscore.Internal.Correction>
   9.000000E+99

> <Gold.Chemscore.Hbonds>
donor molecule, donor type, donor heavy atom, donor atom, acceptor molecule, acceptor atom, score
      L1  H     6    16       P1 10175  0.15
      L1  H     8    19       P1 10175  0.93
      L1  H     8    22       P1 10171  0.83
      P1  H  7989  7998       L1    10  0.57

> <Gold.Chemscore.Hbond.Weighted>
-11.5585

> <Gold.Chemscore.Metal.Weighted>
-0.0000

> <Gold.Chemscore.Lipo.Weighted>
-4.9218

> <Gold.Chemscore.Internal_Hbond.Weighted>
0.0000

> <Gold.Chemscore.DEClash.Weighted>
0.1483

> <Gold.Chemscore.DEInternal.Weighted>
0.1787

> <Gold.Chemscore.Rot.Weighted>
5.0051

> <Gold.Chemscore.Internal.Correction.Weighted>
   9.000000E+99

> <Gold.Protein.RotatedTorsions>
[ 6907 6896 6895 6894 ] final -117.71 input  -60.11 | X-H torsion
[ 7974 7965 7964 7962 ] final   17.01 input  175.53 | X-H torsion
[ 8008 7997 7996 7995 ] final  134.62 input   59.86 | X-H torsion
[ 10167 10162 10161 10158 ] final  -40.95 input  -65.29 | X-H torsion
[ 10718 10713 10712 10709 ] final -148.48 input   66.30 | X-H torsion
[ 10763 10752 10751 10750 ] final -147.76 input  -60.55 | X-H torsion
[ 11005 11000 10999 10996 ] final   52.22 input  -57.11 | X-H torsion

> <Gold.Protein.ActiveResidues>
 VAL166  LYS551  ARG553  GLY616  TRP617  ASP618  TYR619  PRO620  LYS621  CYS622 
 ASP623  PHE694  ASN695  SER759  ASP760  ASP761  ALA762  ILE779  LEU786  VAL792 
 PHE793  MET794  SER795  GLU796  ALA797  LYS798  CYS799  TRP800  GLU811  SER814 

> <Gold.Protein.RotatedAtoms>
  150.8159  133.8338  159.3160 H   0  0  0  0  0  0  0  0  0  0  0  0  # atno 6907 bound_to 6896
  151.6110  135.1038  160.0091 H   0  0  0  0  0  0  0  0  0  0  0  0  # atno 6908 bound_to 6896
  152.4250  133.7140  159.6551 H   0  0  0  0  0  0  0  0  0  0  0  0  # atno 6909 bound_to 6896
  146.2232  139.8664  142.8595 H   0  0  0  0  0  0  0  0  0  0  0  0  # atno 7974 bound_to 7965
  156.3000  140.2491  156.3447 H   0  0  0  0  0  0  0  0  0  0  0  0  # atno 8008 bound_to 7997
  154.9022  140.0406  157.1919 H   0  0  0  0  0  0  0  0  0  0  0  0  # atno 8009 bound_to 7997
  154.8489  140.2902  155.5615 H   0  0  0  0  0  0  0  0  0  0  0  0  # atno 8010 bound_to 7997
  140.7018  143.3123  151.2997 H   0  0  0  0  0  0  0  0  0  0  0  0  # atno 10167 bound_to 10162
  156.4207  130.8027  151.2250 H   0  0  0  0  0  0  0  0  0  0  0  0  # atno 10718 bound_to 10713
  154.8269  135.3352  154.6868 H   0  0  0  0  0  0  0  0  0  0  0  0  # atno 10763 bound_to 10752
  153.7492  135.6940  153.4954 H   0  0  0  0  0  0  0  0  0  0  0  0  # atno 10764 bound_to 10752
  153.2188  135.4456  155.0416 H   0  0  0  0  0  0  0  0  0  0  0  0  # atno 10765 bound_to 10752
  140.0867  134.5264  155.8892 H   0  0  0  0  0  0  0  0  0  0  0  0  # atno 11005 bound_to 11000
  145.2653  141.0090  143.3803 LP  0  0  0  0  0  0  0  0  0  0  0  0  # atno 17320 bound_to 7965
  144.9266  139.4348  143.6515 LP  0  0  0  0  0  0  0  0  0  0  0  0  # atno 17321 bound_to 7965
  139.6550  144.0293  152.2653 LP  0  0  0  0  0  0  0  0  0  0  0  0  # atno 17342 bound_to 10162
  139.9841  144.6407  150.7873 LP  0  0  0  0  0  0  0  0  0  0  0  0  # atno 17343 bound_to 10162
  157.7508  131.0229  150.3810 LP  0  0  0  0  0  0  0  0  0  0  0  0  # atno 17370 bound_to 10713
  156.4127  130.3937  149.6880 LP  0  0  0  0  0  0  0  0  0  0  0  0  # atno 17371 bound_to 10713
  141.2065  133.6656  156.6245 LP  0  0  0  0  0  0  0  0  0  0  0  0  # atno 17394 bound_to 11000
  140.3409  134.7849  157.4397 LP  0  0  0  0  0  0  0  0  0  0  0  0  # atno 17395 bound_to 11000

$$$$
