AV-unprocessed.smi:1459|AV-procd|sdf|5926|dock4
  -GOLD-   22720 6 13D 1   1.00000     0.00000
 Structure written by MMmdl.
 34 35  0  0  0  0  0  0  0  0  1 V2000
  151.3929  132.0267  157.3647 C   0  0  0  0  0  0  0  0  0  0  0  0
  150.4857  132.9980  156.6906 C   0  0  0  0  0  0  0  0  0  0  0  0
  150.0058  133.0921  155.4145 C   0  0  0  0  0  0  0  0  0  0  0  0
  149.1935  134.2562  155.4632 C   0  0  0  0  0  0  0  0  0  0  0  0
  148.4947  134.7043  154.3133 N   0  0  0  0  0  0  0  0  0  0  0  0
  147.2402  134.3946  153.9443 C   0  0  0  0  0  0  0  0  0  0  0  0
  146.4727  133.6724  154.5812 O   0  0  0  0  0  0  0  0  0  0  0  0
  146.9179  134.9816  152.7819 N   0  0  0  0  0  0  0  0  0  0  0  0
  145.6269  134.8782  152.1051 C   0  0  2  0  0  0  0  0  0  0  0  0
  144.5221  135.2858  153.0920 C   0  0  0  0  0  0  0  0  0  0  0  0
  145.4335  133.4449  151.5699 C   0  0  1  0  0  0  0  0  0  0  0  0
  144.0984  133.1978  150.8666 C   0  0  0  0  0  0  0  0  0  0  0  0
  144.3924  132.0252  149.9445 C   0  0  0  0  0  0  0  0  0  0  0  0
  145.9213  131.9809  149.8735 C   0  0  0  0  0  0  0  0  0  0  0  0
  146.3596  133.1605  150.5323 O   0  0  0  0  0  0  0  0  0  0  0  0
  149.1798  134.8223  156.6603 N   0  0  0  0  0  0  0  0  0  0  0  0
  150.0080  134.0189  157.4530 O   0  0  0  0  0  0  0  0  0  0  0  0
  151.7038  131.2410  156.6761 H   0  0  0  0  0  0  0  0  0  0  0  0
  150.8940  131.5559  158.2119 H   0  0  0  0  0  0  0  0  0  0  0  0
  152.2884  132.5267  157.7337 H   0  0  0  0  0  0  0  0  0  0  0  0
  150.2050  132.4323  154.5831 H   0  0  0  0  0  0  0  0  0  0  0  0
  149.0073  135.3225  153.7025 H   0  0  0  0  0  0  0  0  0  0  0  0
  147.6146  135.5594  152.3353 H   0  0  0  0  0  0  0  0  0  0  0  0
  145.5917  135.5749  151.2656 H   0  0  0  0  0  0  0  0  0  0  0  0
  143.5421  135.2824  152.6150 H   0  0  0  0  0  0  0  0  0  0  0  0
  144.6916  136.2926  153.4754 H   0  0  0  0  0  0  0  0  0  0  0  0
  144.4798  134.6069  153.9444 H   0  0  0  0  0  0  0  0  0  0  0  0
  145.5702  132.7168  152.3722 H   0  0  0  0  0  0  0  0  0  0  0  0
  143.2849  132.9931  151.5632 H   0  0  0  0  0  0  0  0  0  0  0  0
  143.8206  134.0682  150.2705 H   0  0  0  0  0  0  0  0  0  0  0  0
  144.0020  131.0919  150.3518 H   0  0  0  0  0  0  0  0  0  0  0  0
  143.9439  132.1772  148.9622 H   0  0  0  0  0  0  0  0  0  0  0  0
  146.3051  131.1093  150.4055 H   0  0  0  0  0  0  0  0  0  0  0  0
  146.2921  131.9457  148.8490 H   0  0  0  0  0  0  0  0  0  0  0  0
  1  2  1  0  0  0  0
  1 18  1  0  0  0  0
  1 19  1  0  0  0  0
  1 20  1  0  0  0  0
  2 17  1  0  0  0  0
  2  3  2  0  0  0  0
  3  4  1  0  0  0  0
  3 21  1  0  0  0  0
  4  5  1  0  0  0  0
  4 16  2  0  0  0  0
  5  6  1  0  0  0  0
  5 22  1  0  0  0  0
  6  7  2  0  0  0  0
  6  8  1  0  0  0  0
  8  9  1  0  0  0  0
  8 23  1  0  0  0  0
  9 10  1  0  0  0  0
  9 11  1  0  0  0  0
  9 24  1  0  0  0  0
 10 25  1  0  0  0  0
 10 26  1  0  0  0  0
 10 27  1  0  0  0  0
 11 15  1  0  0  0  0
 11 12  1  0  0  0  0
 11 28  1  0  0  0  0
 12 13  1  0  0  0  0
 12 29  1  0  0  0  0
 12 30  1  0  0  0  0
 13 14  1  0  0  0  0
 13 31  1  0  0  0  0
 13 32  1  0  0  0  0
 14 15  1  0  0  0  0
 14 33  1  0  0  0  0
 14 34  1  0  0  0  0
 16 17  1  0  0  0  0
M  END
> <s_m_source_file>
AV-unprocessed.smi

> <i_m_source_file_index>
1459

> <i_lp_mmshare_version>
43012

> <i_f3d_flags>
0

> <s_epik_input>
W0NIM11jMVtjSF1jKG5vMSlbTkhdQyg9TylbTkhdW0NASF0oW0NIM10pW0NAQEhdMltDSDJdW0NIMl1bQ0gyXU8y

> <s_epik_cmdline>
J2VwaWtfcHl0aG9uJywgJy1waCcsICc3LjAnLCAnLXRuJywgJzgnLCAnLW1hJywgJzIwMCcsICctbWV0YWxfYmluZGluZycsICctaW1hZScsICc8aW5maWxlLm1hZT4nLCAnLW9tYWUnLCAnPG91dGZpbGUubWFlPic=

> <r_lp_tautomer_probability>
1

> <r_epik_Ionization_Penalty>
2.20869e-05

> <r_epik_Ionization_Penalty_Charging>
0

> <r_epik_Ionization_Penalty_Neutral>
2.20869e-05

> <r_epik_State_Penalty>
-0

> <r_epik_Charging_Adjusted_Penalty>
0

> <i_epik_Tot_Q>
0

> <i_epik_Tot_abs_Q>
0

> <r_epik_Metal_State_Penalty>
-0

> <b_epik_Metal_Only>
0

> <s_lp_Force_Field>
OPLS_2005

> <r_lp_Energy>
16.1691

> <b_lp_Chiralities_Consistent>
1

> <s_lp_Variant>
AV-unprocessed.smi:1459-3

> <Gold.Version>
5.8.1

> <Gold.Id.Protein>
6NUR|6NUR_protein|mol2

> <Gold.PLP.Fitness>
32.6432

> <Gold.PLP.PLP>
-25.9879

> <Gold.PLP.part.hbond>
-2.9875

> <Gold.PLP.part.metal>
0.0000

> <Gold.PLP.part.buried>
-4.5534

> <Gold.PLP.part.nonpolar>
-19.5994

> <Gold.PLP.part.repulsive>
0.2788

> <Gold.PLP.ligand.clash>
0.0000

> <Gold.PLP.ligand.torsion>
0.8379

> <Gold.PLP.Chemscore.Hbond>
2.7697

> <Gold.PLP.Chemscore.CHOScore>
0.0000

> <Gold.PLP.Chemscore.Metal>
0.0000

> <Gold.Chemscore.Hbonds>
donor molecule, donor type, donor heavy atom, donor atom, acceptor molecule, acceptor atom, score
      L1  H     5    22       P1  7948  0.88
      L1  H     8    23       P1  7948  1.00
      P1  H  6896  6907       L1    17  0.91

> <Gold.PLP.Chemscore.Internal.Correction>
0.0220

> <Gold.Rescore>
     Score         DG    S(hbond)    S(metal)    S(lipo)     H(rot)  DE(clash)    DE(int)     intcor
     15.33     -17.09       2.41        0.00      58.28       1.28       0.00       1.76       ----

> <Gold.Chemscore.Fitness>
15.3297

> <Gold.Chemscore.DG>
-17.0921

> <Gold.Chemscore.ZeroCoef>
-5.4800

> <Gold.Chemscore.Hbond>
2.4144

> <Gold.Chemscore.Metal>
0.0000

> <Gold.Chemscore.Lipo>
58.2800

> <Gold.Chemscore.Internal_Hbond>
0.0000

> <Gold.Chemscore.DEClash>
0.0029

> <Gold.Chemscore.DEInternal>
1.7596

> <Gold.Chemscore.Rot>
1.2776

> <Gold.Chemscore.Internal.Correction>
   9.000000E+99

> <Gold.Chemscore.Hbonds>
donor molecule, donor type, donor heavy atom, donor atom, acceptor molecule, acceptor atom, score
      L1  H     5    22       P1  7948  0.53
      L1  H     8    23       P1  7948  0.95
      P1  H  6896  6907       L1    17  0.39

> <Gold.Chemscore.Hbond.Weighted>
-8.0641

> <Gold.Chemscore.Metal.Weighted>
-0.0000

> <Gold.Chemscore.Lipo.Weighted>
-6.8188

> <Gold.Chemscore.Internal_Hbond.Weighted>
0.0000

> <Gold.Chemscore.DEClash.Weighted>
0.0029

> <Gold.Chemscore.DEInternal.Weighted>
1.7596

> <Gold.Chemscore.Rot.Weighted>
3.2707

> <Gold.Chemscore.Internal.Correction.Weighted>
   9.000000E+99

> <Gold.Protein.RotatedTorsions>
[ 6907 6896 6895 6894 ] final -125.10 input  -60.11 | X-H torsion
[ 7974 7965 7964 7962 ] final   36.40 input  175.53 | X-H torsion
[ 8008 7997 7996 7995 ] final -114.99 input   59.86 | X-H torsion
[ 10167 10162 10161 10158 ] final   61.35 input  -65.29 | X-H torsion
[ 10718 10713 10712 10709 ] final -179.36 input   66.30 | X-H torsion
[ 10763 10752 10751 10750 ] final  137.01 input  -60.55 | X-H torsion
[ 11005 11000 10999 10996 ] final  -14.61 input  -57.11 | X-H torsion

> <Gold.Protein.ActiveResidues>
 VAL166  LYS551  ARG553  GLY616  TRP617  ASP618  TYR619  PRO620  LYS621  CYS622 
 ASP623  PHE694  ASN695  SER759  ASP760  ASP761  ALA762  ILE779  LEU786  VAL792 
 PHE793  MET794  SER795  GLU796  ALA797  LYS798  CYS799  TRP800  GLU811  SER814 

> <Gold.Protein.RotatedAtoms>
  150.8834  133.7341  159.2925 H   0  0  0  0  0  0  0  0  0  0  0  0  # atno 6907 bound_to 6896
  151.4915  135.1056  159.9814 H   0  0  0  0  0  0  0  0  0  0  0  0  # atno 6908 bound_to 6896
  152.4774  133.8125  159.7067 H   0  0  0  0  0  0  0  0  0  0  0  0  # atno 6909 bound_to 6896
  146.1214  139.6022  142.9287 H   0  0  0  0  0  0  0  0  0  0  0  0  # atno 7974 bound_to 7965
  155.0449  140.0392  157.2523 H   0  0  0  0  0  0  0  0  0  0  0  0  # atno 8008 bound_to 7997
  154.7185  140.2707  155.6539 H   0  0  0  0  0  0  0  0  0  0  0  0  # atno 8009 bound_to 7997
  156.2810  140.2707  156.1849 H   0  0  0  0  0  0  0  0  0  0  0  0  # atno 8010 bound_to 7997
  140.1558  144.4419  150.6735 H   0  0  0  0  0  0  0  0  0  0  0  0  # atno 10167 bound_to 10162
  156.8580  130.9742  151.3086 H   0  0  0  0  0  0  0  0  0  0  0  0  # atno 10718 bound_to 10713
  153.8660  135.3061  155.3440 H   0  0  0  0  0  0  0  0  0  0  0  0  # atno 10763 bound_to 10752
  154.7827  135.4826  153.9882 H   0  0  0  0  0  0  0  0  0  0  0  0  # atno 10764 bound_to 10752
  153.1434  135.6828  153.9088 H   0  0  0  0  0  0  0  0  0  0  0  0  # atno 10765 bound_to 10752
  140.7882  133.8309  155.9355 H   0  0  0  0  0  0  0  0  0  0  0  0  # atno 11005 bound_to 11000
  145.5458  141.0417  143.2305 LP  0  0  0  0  0  0  0  0  0  0  0  0  # atno 17320 bound_to 7965
  144.7600  139.6979  143.7238 LP  0  0  0  0  0  0  0  0  0  0  0  0  # atno 17321 bound_to 7965
  140.6674  143.2273  151.5709 LP  0  0  0  0  0  0  0  0  0  0  0  0  # atno 17342 bound_to 10162
  139.5404  144.2663  152.1339 LP  0  0  0  0  0  0  0  0  0  0  0  0  # atno 17343 bound_to 10162
  157.6266  130.8696  149.9200 LP  0  0  0  0  0  0  0  0  0  0  0  0  # atno 17370 bound_to 10713
  156.0792  130.3675  150.0615 LP  0  0  0  0  0  0  0  0  0  0  0  0  # atno 17371 bound_to 10713
  140.9416  134.1894  157.4794 LP  0  0  0  0  0  0  0  0  0  0  0  0  # atno 17394 bound_to 11000
  139.8734  134.9874  156.5365 LP  0  0  0  0  0  0  0  0  0  0  0  0  # atno 17395 bound_to 11000

$$$$
