AV-unprocessed.smi:561|AV-procd|sdf|2943|dock9
  -GOLD-   2262023443D 1   1.00000     0.00000
 Structure written by MMmdl.
 35 36  0  0  0  0  0  0  0  0  2 V2000
  150.8744  138.3611  154.7050 C   0  0  0  0  0  0  0  0  0  0  0  0
  150.0000  139.6197  154.7980 C   0  0  1  0  0  0  0  0  0  0  0  0
  148.4960  139.2580  154.8693 C   0  0  0  0  0  0  0  0  0  0  0  0
  147.6030  140.4120  154.8419 N   0  0  0  0  0  0  0  0  0  0  0  0
  147.4386  141.3230  153.8032 C   0  0  0  0  0  0  0  0  0  0  0  0
  146.5116  142.2469  154.2290 C   0  0  0  0  0  0  0  0  0  0  0  0
  146.1002  141.9369  155.5229 N   0  0  0  0  0  0  0  0  0  0  0  0
  146.7886  140.8414  155.8188 C   0  0  0  0  0  0  0  0  0  0  0  0
  150.3802  140.3749  155.9967 N   0  5  0  0  0  0  0  0  0  0  0  0
  151.6425  140.4704  156.5078 C   0  0  0  0  0  0  0  0  0  0  0  0
  152.6696  139.9789  156.0207 O   0  0  0  0  0  0  0  0  0  0  0  0
  151.8202  141.2440  157.7716 C   0  0  0  0  0  0  0  0  0  0  0  0
  152.8729  141.0259  158.4957 N   0  0  0  0  0  0  0  0  0  0  0  0
  153.1024  141.6857  159.6856 N   0  0  0  0  0  0  0  0  0  0  0  0
  154.1808  141.0990  160.4810 C   0  0  0  0  0  0  0  0  0  0  0  0
  152.4255  142.7894  160.0941 C   0  0  0  0  0  0  0  0  0  0  0  0
  152.6210  143.3635  161.1656 O   0  0  0  0  0  0  0  0  0  0  0  0
  151.3817  143.3468  159.1227 C   0  0  0  0  0  0  0  0  0  0  0  0
  150.7770  142.2526  158.2224 C   0  0  0  0  0  0  0  0  0  0  0  0
  150.6220  137.7744  153.8216 H   0  0  0  0  0  0  0  0  0  0  0  0
  150.7460  137.7194  155.5775 H   0  0  0  0  0  0  0  0  0  0  0  0
  151.9311  138.6210  154.6334 H   0  0  0  0  0  0  0  0  0  0  0  0
  150.1562  140.1927  153.8824 H   0  0  0  0  0  0  0  0  0  0  0  0
  148.2327  138.6157  154.0280 H   0  0  0  0  0  0  0  0  0  0  0  0
  148.2849  138.6801  155.7704 H   0  0  0  0  0  0  0  0  0  0  0  0
  147.9768  141.2322  152.8713 H   0  0  0  0  0  0  0  0  0  0  0  0
  146.1155  143.1064  153.7087 H   0  0  0  0  0  0  0  0  0  0  0  0
  146.6993  140.3372  156.7697 H   0  0  0  0  0  0  0  0  0  0  0  0
  154.4023  141.6469  161.3977 H   0  0  0  0  0  0  0  0  0  0  0  0
  155.1004  141.0611  159.8957 H   0  0  0  0  0  0  0  0  0  0  0  0
  153.9223  140.0782  160.7647 H   0  0  0  0  0  0  0  0  0  0  0  0
  150.5942  143.8641  159.6717 H   0  0  0  0  0  0  0  0  0  0  0  0
  151.8777  144.0958  158.5041 H   0  0  0  0  0  0  0  0  0  0  0  0
  150.3142  142.7438  157.3657 H   0  0  0  0  0  0  0  0  0  0  0  0
  149.9766  141.7321  158.7494 H   0  0  0  0  0  0  0  0  0  0  0  0
  1  2  1  0  0  0  0
  1 20  1  0  0  0  0
  1 21  1  0  0  0  0
  1 22  1  0  0  0  0
  2  3  1  0  0  0  0
  2  9  1  0  0  0  0
  2 23  1  0  0  0  0
  3  4  1  0  0  0  0
  3 24  1  0  0  0  0
  3 25  1  0  0  0  0
  4  8  1  0  0  0  0
  4  5  1  0  0  0  0
  5  6  2  0  0  0  0
  5 26  1  0  0  0  0
  6  7  1  0  0  0  0
  6 27  1  0  0  0  0
  7  8  2  0  0  0  0
  8 28  1  0  0  0  0
  9 10  1  0  0  0  0
 10 11  2  0  0  0  0
 10 12  1  0  0  0  0
 12 19  1  0  0  0  0
 12 13  2  0  0  0  0
 13 14  1  0  0  0  0
 14 15  1  0  0  0  0
 14 16  1  0  0  0  0
 15 29  1  0  0  0  0
 15 30  1  0  0  0  0
 15 31  1  0  0  0  0
 16 17  2  0  0  0  0
 16 18  1  0  0  0  0
 18 19  1  0  0  0  0
 18 32  1  0  0  0  0
 18 33  1  0  0  0  0
 19 34  1  0  0  0  0
 19 35  1  0  0  0  0
M  CHG  1   9  -1
M  END
> <s_m_source_file>
AV-unprocessed.smi

> <i_m_source_file_index>
561

> <i_lp_mmshare_version>
43012

> <i_f3d_flags>
0

> <s_epik_input>
W2NIXTFuW2NIXVtjSF1uMVtDSDJdW0NAQEhdKFtDSDNdKVtOSF1DKD1PKUMyPU5OKFtDSDNdKUMoPU8pW0NIMl1bQ0gyXTI=

> <s_epik_cmdline>
J2VwaWtfcHl0aG9uJywgJy1waCcsICc3LjAnLCAnLXRuJywgJzgnLCAnLW1hJywgJzIwMCcsICctbWV0YWxfYmluZGluZycsICctaW1hZScsICc8aW5maWxlLm1hZT4nLCAnLW9tYWUnLCAnPG91dGZpbGUubWFlPic=

> <r_lp_tautomer_probability>
1

> <r_epik_Ionization_Penalty>
6.06239

> <r_epik_Ionization_Penalty_Charging>
6.06239

> <r_epik_Ionization_Penalty_Neutral>
3.91387e-09

> <r_epik_State_Penalty>
5.76729

> <r_epik_Charging_Adjusted_Penalty>
11.8297

> <i_epik_Tot_Q>
-1

> <i_epik_Tot_abs_Q>
1

> <r_epik_Metal_State_Penalty>
2.02369

> <b_epik_Metal_Only>
1

> <s_epik_Chemistry_Notes>
This compound has an imine and may undergo hydrolysis.

> <s_lp_Force_Field>
OPLS_2005

> <r_lp_Energy>
27.3289

> <b_lp_Chiralities_Consistent>
1

> <s_lp_Variant>
AV-unprocessed.smi:561-8

> <Gold.Version>
5.8.1

> <Gold.Id.Protein>
6NUR|6NUR_protein|mol2

> <Gold.PLP.Fitness>
40.5966

> <Gold.PLP.PLP>
-35.6852

> <Gold.PLP.part.hbond>
-1.1557

> <Gold.PLP.part.metal>
0.0000

> <Gold.PLP.part.buried>
-5.0951

> <Gold.PLP.part.nonpolar>
-29.1005

> <Gold.PLP.part.repulsive>
0.2697

> <Gold.PLP.ligand.clash>
0.0000

> <Gold.PLP.ligand.torsion>
0.5660

> <Gold.PLP.Chemscore.Hbond>
1.0000

> <Gold.PLP.Chemscore.CHOScore>
1.0000

> <Gold.PLP.Chemscore.Metal>
0.0000

> <Gold.Chemscore.Hbonds>
donor molecule, donor type, donor heavy atom, donor atom, acceptor molecule, acceptor atom, score
      P1  H  7997  8008       L1    11  1.00
      L1  C     5    26       P1  7957  0.75

> <Gold.PLP.Chemscore.Internal.Correction>
0.0434

> <Gold.Rescore>
     Score         DG    S(hbond)    S(metal)    S(lipo)     H(rot)  DE(clash)    DE(int)     intcor
     10.36     -12.58       1.00        0.00      68.93       1.68       0.04       2.18       ----

> <Gold.Chemscore.Fitness>
10.3573

> <Gold.Chemscore.DG>
-12.5822

> <Gold.Chemscore.ZeroCoef>
-5.4800

> <Gold.Chemscore.Hbond>
0.9991

> <Gold.Chemscore.Metal>
0.0000

> <Gold.Chemscore.Lipo>
68.9315

> <Gold.Chemscore.Internal_Hbond>
0.0000

> <Gold.Chemscore.DEClash>
0.0428

> <Gold.Chemscore.DEInternal>
2.1821

> <Gold.Chemscore.Rot>
1.6796

> <Gold.Chemscore.Internal.Correction>
   9.000000E+99

> <Gold.Chemscore.Hbonds>
donor molecule, donor type, donor heavy atom, donor atom, acceptor molecule, acceptor atom, score
      P1  H  7997  8008       L1    11  1.00

> <Gold.Chemscore.Hbond.Weighted>
-3.3369

> <Gold.Chemscore.Metal.Weighted>
-0.0000

> <Gold.Chemscore.Lipo.Weighted>
-8.0650

> <Gold.Chemscore.Internal_Hbond.Weighted>
0.0000

> <Gold.Chemscore.DEClash.Weighted>
0.0428

> <Gold.Chemscore.DEInternal.Weighted>
2.1821

> <Gold.Chemscore.Rot.Weighted>
4.2997

> <Gold.Chemscore.Internal.Correction.Weighted>
   9.000000E+99

> <Gold.Protein.RotatedTorsions>
[ 6907 6896 6895 6894 ] final   13.06 input  -60.11 | X-H torsion
[ 7974 7965 7964 7962 ] final  116.09 input  175.53 | X-H torsion
[ 8008 7997 7996 7995 ] final  -33.13 input   59.86 | X-H torsion
[ 10167 10162 10161 10158 ] final  -87.69 input  -65.29 | X-H torsion
[ 10718 10713 10712 10709 ] final   40.43 input   66.30 | X-H torsion
[ 10763 10752 10751 10750 ] final  -12.38 input  -60.55 | X-H torsion
[ 11005 11000 10999 10996 ] final  173.53 input  -57.11 | X-H torsion

> <Gold.Protein.ActiveResidues>
 VAL166  LYS551  ARG553  GLY616  TRP617  ASP618  TYR619  PRO620  LYS621  CYS622 
 ASP623  PHE694  ASN695  SER759  ASP760  ASP761  ALA762  ILE779  LEU786  VAL792 
 PHE793  MET794  SER795  GLU796  ALA797  LYS798  CYS799  TRP800  GLU811  SER814 

> <Gold.Protein.RotatedAtoms>
  151.7803  135.0763  160.0372 H   0  0  0  0  0  0  0  0  0  0  0  0  # atno 6907 bound_to 6896
  152.3227  133.5867  159.5764 H   0  0  0  0  0  0  0  0  0  0  0  0  # atno 6908 bound_to 6896
  150.7378  133.9902  159.3646 H   0  0  0  0  0  0  0  0  0  0  0  0  # atno 6909 bound_to 6896
  145.1839  139.3035  143.4403 H   0  0  0  0  0  0  0  0  0  0  0  0  # atno 7974 bound_to 7965
  154.4158  140.1719  156.1838 H   0  0  0  0  0  0  0  0  0  0  0  0  # atno 8008 bound_to 7997
  155.9660  140.3389  155.6509 H   0  0  0  0  0  0  0  0  0  0  0  0  # atno 8009 bound_to 7997
  155.6687  140.0709  157.2518 H   0  0  0  0  0  0  0  0  0  0  0  0  # atno 8010 bound_to 7997
  140.3820  143.2744  151.9372 H   0  0  0  0  0  0  0  0  0  0  0  0  # atno 10167 bound_to 10162
  157.3821  130.7759  149.7201 H   0  0  0  0  0  0  0  0  0  0  0  0  # atno 10718 bound_to 10713
  153.4977  135.7017  153.5849 H   0  0  0  0  0  0  0  0  0  0  0  0  # atno 10763 bound_to 10752
  153.3994  135.3876  155.1977 H   0  0  0  0  0  0  0  0  0  0  0  0  # atno 10764 bound_to 10752
  154.8713  135.3878  154.4444 H   0  0  0  0  0  0  0  0  0  0  0  0  # atno 10765 bound_to 10752
  140.3415  134.7272  157.4205 H   0  0  0  0  0  0  0  0  0  0  0  0  # atno 11005 bound_to 11000
  146.3448  140.2028  142.8589 LP  0  0  0  0  0  0  0  0  0  0  0  0  # atno 17320 bound_to 7965
  145.0109  140.8713  143.5225 LP  0  0  0  0  0  0  0  0  0  0  0  0  # atno 17321 bound_to 7965
  139.4795  144.5810  151.7933 LP  0  0  0  0  0  0  0  0  0  0  0  0  # atno 17342 bound_to 10162
  140.4928  144.1285  150.5954 LP  0  0  0  0  0  0  0  0  0  0  0  0  # atno 17343 bound_to 10162
  155.9778  130.4059  150.3689 LP  0  0  0  0  0  0  0  0  0  0  0  0  # atno 17370 bound_to 10713
  157.1794  131.0388  151.2756 LP  0  0  0  0  0  0  0  0  0  0  0  0  # atno 17371 bound_to 10713
  140.0777  134.5774  155.8573 LP  0  0  0  0  0  0  0  0  0  0  0  0  # atno 17394 bound_to 11000
  141.2037  133.6634  156.6078 LP  0  0  0  0  0  0  0  0  0  0  0  0  # atno 17395 bound_to 11000

$$$$
