AV-unprocessed.smi:177|AV-procd|sdf|1441|dock3
  -GOLD-   2262019223D 1   1.00000     0.00000
 Structure written by MMmdl.
 61 65  0  0  0  0  0  0  0  0  1 V2000
  147.9124  140.9646  154.4223 C   0  0  0  0  0  0  0  0  0  0  0  0
  149.0137  140.1131  154.1456 O   0  0  0  0  0  0  0  0  0  0  0  0
  149.7305  139.6920  155.2988 C   0  0  2  0  0  0  0  0  0  0  0  0
  150.2634  140.9063  156.0858 C   0  0  0  0  0  0  0  0  0  0  0  0
  151.1542  140.4703  157.2597 C   0  0  0  0  0  0  0  0  0  0  0  0
  152.3260  139.5972  156.7684 C   0  0  1  0  0  0  0  0  0  0  0  0
  153.2167  139.2187  157.8197 O   0  0  0  0  0  0  0  0  0  0  0  0
  152.7288  138.1919  158.6765 C   0  0  0  0  0  0  0  0  0  0  0  0
  152.4123  136.9339  157.8500 C   0  0  0  0  0  0  0  0  0  0  0  0
  151.4664  137.2400  156.7830 N   0  0  0  0  0  0  0  0  0  0  0  0
  150.1606  136.9925  157.0448 C   0  0  0  0  0  0  0  0  0  0  0  0
  149.2591  136.9636  156.0294 N   0  0  0  0  0  0  0  0  0  0  0  0
  147.9754  136.6919  156.2785 C   0  0  0  0  0  0  0  0  0  0  0  0
  147.3897  136.4379  157.4497 N   0  0  0  0  0  0  0  0  0  0  0  0
  148.2841  136.5012  158.4771 C   0  0  0  0  0  0  0  0  0  0  0  0
  149.6767  136.7705  158.3627 C   0  0  0  0  0  0  0  0  0  0  0  0
  150.2690  136.7513  159.6187 N   0  0  0  0  0  0  0  0  0  0  0  0
  149.2868  136.4636  160.4277 C   0  0  0  0  0  0  0  0  0  0  0  0
  148.0540  136.3190  159.8302 N   0  0  0  0  0  0  0  0  0  0  0  0
  146.7998  135.9974  160.4956 C   0  0  0  0  0  0  0  0  0  0  0  0
  146.8701  135.8396  162.0493 C   0  0  0  0  0  0  0  0  0  0  0  0
  147.4302  137.1261  162.7200 C   0  0  0  0  0  0  0  0  0  0  0  0
  146.5970  138.2580  162.5626 O   0  0  0  0  0  0  0  0  0  0  0  0
  145.5040  135.4688  162.6824 C   0  0  0  0  0  0  0  0  0  0  0  0
  145.0443  134.0444  162.3212 C   0  0  0  0  0  0  0  0  0  0  0  0
  146.0324  133.1004  162.7120 O   0  0  0  0  0  0  0  0  0  0  0  0
  147.2715  133.2919  162.0427 C   0  0  0  0  0  0  0  0  0  0  0  0
  147.8427  134.6801  162.3859 C   0  0  0  0  0  0  0  0  0  0  0  0
  151.8753  138.3706  155.9342 C   0  0  1  0  0  0  0  0  0  0  0  0
  150.8921  138.7973  154.8138 C   0  0  0  0  0  0  0  0  0  0  0  0
  147.4172  141.2312  153.4887 H   0  0  0  0  0  0  0  0  0  0  0  0
  148.2245  141.8891  154.9079 H   0  0  0  0  0  0  0  0  0  0  0  0
  147.1790  140.4656  155.0571 H   0  0  0  0  0  0  0  0  0  0  0  0
  149.0655  139.1098  155.9350 H   0  0  0  0  0  0  0  0  0  0  0  0
  150.8337  141.5529  155.4177 H   0  0  0  0  0  0  0  0  0  0  0  0
  149.4389  141.5083  156.4669 H   0  0  0  0  0  0  0  0  0  0  0  0
  151.5441  141.3521  157.7684 H   0  0  0  0  0  0  0  0  0  0  0  0
  150.5491  139.9421  157.9933 H   0  0  0  0  0  0  0  0  0  0  0  0
  152.9200  140.2304  156.1081 H   0  0  0  0  0  0  0  0  0  0  0  0
  153.4958  137.9636  159.4164 H   0  0  0  0  0  0  0  0  0  0  0  0
  151.8587  138.5376  159.2335 H   0  0  0  0  0  0  0  0  0  0  0  0
  153.3266  136.5461  157.4002 H   0  0  0  0  0  0  0  0  0  0  0  0
  152.0241  136.1433  158.4939 H   0  0  0  0  0  0  0  0  0  0  0  0
  147.3257  136.6733  155.4161 H   0  0  0  0  0  0  0  0  0  0  0  0
  149.4330  136.3632  161.4935 H   0  0  0  0  0  0  0  0  0  0  0  0
  146.0784  136.7614  160.2093 H   0  0  0  0  0  0  0  0  0  0  0  0
  146.4272  135.0723  160.0539 H   0  0  0  0  0  0  0  0  0  0  0  0
  147.5481  136.9788  163.7940 H   0  0  0  0  0  0  0  0  0  0  0  0
  148.4217  137.3600  162.3310 H   0  0  0  0  0  0  0  0  0  0  0  0
  146.7339  138.8367  163.2973 H   0  0  0  0  0  0  0  0  0  0  0  0
  145.5850  135.5296  163.7687 H   0  0  0  0  0  0  0  0  0  0  0  0
  144.7334  136.1875  162.4058 H   0  0  0  0  0  0  0  0  0  0  0  0
  144.1167  133.8125  162.8441 H   0  0  0  0  0  0  0  0  0  0  0  0
  144.8333  133.9456  161.2564 H   0  0  0  0  0  0  0  0  0  0  0  0
  147.9639  132.5167  162.3717 H   0  0  0  0  0  0  0  0  0  0  0  0
  147.1466  133.1586  160.9679 H   0  0  0  0  0  0  0  0  0  0  0  0
  148.7980  134.8239  161.8796 H   0  0  0  0  0  0  0  0  0  0  0  0
  148.0677  134.6859  163.4533 H   0  0  0  0  0  0  0  0  0  0  0  0
  152.7642  137.9974  155.4240 H   0  0  0  0  0  0  0  0  0  0  0  0
  150.5159  137.9335  154.2689 H   0  0  0  0  0  0  0  0  0  0  0  0
  151.4607  139.3674  154.0779 H   0  0  0  0  0  0  0  0  0  0  0  0
  1  2  1  0  0  0  0
  1 31  1  0  0  0  0
  1 32  1  0  0  0  0
  1 33  1  0  0  0  0
  2  3  1  0  0  0  0
  3 30  1  0  0  0  0
  3  4  1  0  0  0  0
  3 34  1  0  0  0  0
  4  5  1  0  0  0  0
  4 35  1  0  0  0  0
  4 36  1  0  0  0  0
  5  6  1  0  0  0  0
  5 37  1  0  0  0  0
  5 38  1  0  0  0  0
  6 29  1  0  0  0  0
  6  7  1  0  0  0  0
  6 39  1  0  0  0  0
  7  8  1  0  0  0  0
  8  9  1  0  0  0  0
  8 40  1  0  0  0  0
  8 41  1  0  0  0  0
  9 10  1  0  0  0  0
  9 42  1  0  0  0  0
  9 43  1  0  0  0  0
 10 11  1  0  0  0  0
 10 29  1  0  0  0  0
 11 16  1  0  0  0  0
 11 12  2  0  0  0  0
 12 13  1  0  0  0  0
 13 14  2  0  0  0  0
 13 44  1  0  0  0  0
 14 15  1  0  0  0  0
 15 19  1  0  0  0  0
 15 16  2  0  0  0  0
 16 17  1  0  0  0  0
 17 18  2  0  0  0  0
 18 19  1  0  0  0  0
 18 45  1  0  0  0  0
 19 20  1  0  0  0  0
 20 21  1  0  0  0  0
 20 46  1  0  0  0  0
 20 47  1  0  0  0  0
 21 28  1  0  0  0  0
 21 22  1  0  0  0  0
 21 24  1  0  0  0  0
 22 23  1  0  0  0  0
 22 48  1  0  0  0  0
 22 49  1  0  0  0  0
 23 50  1  0  0  0  0
 24 25  1  0  0  0  0
 24 51  1  0  0  0  0
 24 52  1  0  0  0  0
 25 26  1  0  0  0  0
 25 53  1  0  0  0  0
 25 54  1  0  0  0  0
 26 27  1  0  0  0  0
 27 28  1  0  0  0  0
 27 55  1  0  0  0  0
 27 56  1  0  0  0  0
 28 57  1  0  0  0  0
 28 58  1  0  0  0  0
 29 30  1  0  0  0  0
 29 59  1  0  0  0  0
 30 60  1  0  0  0  0
 30 61  1  0  0  0  0
M  END
> <s_m_source_file>
AV-unprocessed.smi

> <i_m_source_file_index>
177

> <i_lp_mmshare_version>
43012

> <i_f3d_flags>
0

> <s_epik_input>
W0NIM11PW0NASF0oW0NIMl1bQ0gyXTEpW0NIMl1bQ0BIXShbQ0BASF0xMilOKFtDSDJdW0NIMl1PMiljKG5bY0hdbjMpYyhjMzQpbltjSF1uNFtDSDJdQzUoW0NIMl1bT0hdKVtDSDJdW0NIMl1PW0NIMl1bQ0gyXTU=

> <s_epik_cmdline>
J2VwaWtfcHl0aG9uJywgJy1waCcsICc3LjAnLCAnLXRuJywgJzgnLCAnLW1hJywgJzIwMCcsICctbWV0YWxfYmluZGluZycsICctaW1hZScsICc8aW5maWxlLm1hZT4nLCAnLW9tYWUnLCAnPG91dGZpbGUubWFlPic=

> <r_lp_tautomer_probability>
1

> <r_epik_Ionization_Penalty>
0.0065899

> <r_epik_Ionization_Penalty_Charging>
0

> <r_epik_Ionization_Penalty_Neutral>
0.0065899

> <r_epik_State_Penalty>
0.00470042

> <r_epik_Charging_Adjusted_Penalty>
0.00470042

> <i_epik_Tot_Q>
0

> <i_epik_Tot_abs_Q>
0

> <r_epik_Metal_State_Penalty>
-0

> <b_epik_Metal_Only>
0

> <s_lp_Force_Field>
OPLS_2005

> <r_lp_Energy>
52.4416

> <b_lp_Chiralities_Consistent>
1

> <s_lp_Variant>
AV-unprocessed.smi:177-5

> <Gold.Version>
5.8.1

> <Gold.Id.Protein>
6NUR|6NUR_protein|mol2

> <Gold.PLP.Fitness>
46.6384

> <Gold.PLP.PLP>
-40.5630

> <Gold.PLP.part.hbond>
-3.5260

> <Gold.PLP.part.metal>
0.0000

> <Gold.PLP.part.buried>
-7.2727

> <Gold.PLP.part.nonpolar>
-31.4089

> <Gold.PLP.part.repulsive>
0.2501

> <Gold.PLP.ligand.clash>
0.3678

> <Gold.PLP.ligand.torsion>
0.4919

> <Gold.PLP.Chemscore.Hbond>
2.1340

> <Gold.PLP.Chemscore.CHOScore>
0.0000

> <Gold.PLP.Chemscore.Metal>
0.0000

> <Gold.Chemscore.Hbonds>
donor molecule, donor type, donor heavy atom, donor atom, acceptor molecule, acceptor atom, score
      P1  H  6896  6907       L1    17  0.65
      P1  H  6934  6947       L1    23  0.26
      P1  H  7997  8010       L1     7  0.60

> <Gold.PLP.Chemscore.Internal.Correction>
1.0250

> <Gold.Rescore>
     Score         DG    S(hbond)    S(metal)    S(lipo)     H(rot)  DE(clash)    DE(int)     intcor
      7.56     -14.62       0.94        0.00     101.97       2.32       0.01       7.06       ----

> <Gold.Chemscore.Fitness>
7.5637

> <Gold.Chemscore.DG>
-14.6239

> <Gold.Chemscore.ZeroCoef>
-5.4800

> <Gold.Chemscore.Hbond>
0.9415

> <Gold.Chemscore.Metal>
0.0000

> <Gold.Chemscore.Lipo>
101.9711

> <Gold.Chemscore.Internal_Hbond>
0.0000

> <Gold.Chemscore.DEClash>
0.0050

> <Gold.Chemscore.DEInternal>
7.0552

> <Gold.Chemscore.Rot>
2.3169

> <Gold.Chemscore.Internal.Correction>
   9.000000E+99

> <Gold.Chemscore.Hbonds>
donor molecule, donor type, donor heavy atom, donor atom, acceptor molecule, acceptor atom, score
      P1  H  6896  6907       L1    17  0.04
      P1  H  6934  6947       L1    23  0.10
      P1  H  7997  8010       L1     7  0.04

> <Gold.Chemscore.Hbond.Weighted>
-3.1446

> <Gold.Chemscore.Metal.Weighted>
-0.0000

> <Gold.Chemscore.Lipo.Weighted>
-11.9306

> <Gold.Chemscore.Internal_Hbond.Weighted>
0.0000

> <Gold.Chemscore.DEClash.Weighted>
0.0050

> <Gold.Chemscore.DEInternal.Weighted>
7.0552

> <Gold.Chemscore.Rot.Weighted>
5.9313

> <Gold.Chemscore.Internal.Correction.Weighted>
   9.000000E+99

> <Gold.Protein.RotatedTorsions>
[ 6907 6896 6895 6894 ] final  -28.64 input  -60.11 | X-H torsion
[ 7974 7965 7964 7962 ] final  111.30 input  175.53 | X-H torsion
[ 8008 7997 7996 7995 ] final   34.26 input   59.86 | X-H torsion
[ 10167 10162 10161 10158 ] final  179.90 input  -65.29 | X-H torsion
[ 10718 10713 10712 10709 ] final -134.54 input   66.30 | X-H torsion
[ 10763 10752 10751 10750 ] final  126.10 input  -60.55 | X-H torsion
[ 11005 11000 10999 10996 ] final -147.09 input  -57.11 | X-H torsion

> <Gold.Protein.ActiveResidues>
 VAL166  LYS551  ARG553  GLY616  TRP617  ASP618  TYR619  PRO620  LYS621  CYS622 
 ASP623  PHE694  ASN695  SER759  ASP760  ASP761  ALA762  ILE779  LEU786  VAL792 
 PHE793  MET794  SER795  GLU796  ALA797  LYS798  CYS799  TRP800  GLU811  SER814 

> <Gold.Protein.RotatedAtoms>
  151.1302  135.0126  159.8578 H   0  0  0  0  0  0  0  0  0  0  0  0  # atno 6907 bound_to 6896
  152.5450  134.1619  159.8571 H   0  0  0  0  0  0  0  0  0  0  0  0  # atno 6908 bound_to 6896
  151.1685  133.4754  159.2627 H   0  0  0  0  0  0  0  0  0  0  0  0  # atno 6909 bound_to 6896
  145.2439  139.2767  143.4103 H   0  0  0  0  0  0  0  0  0  0  0  0  # atno 7974 bound_to 7965
  155.1520  140.3275  155.4429 H   0  0  0  0  0  0  0  0  0  0  0  0  # atno 8008 bound_to 7997
  156.2571  140.1975  156.6581 H   0  0  0  0  0  0  0  0  0  0  0  0  # atno 8009 bound_to 7997
  154.6466  140.0563  156.9894 H   0  0  0  0  0  0  0  0  0  0  0  0  # atno 8010 bound_to 7997
  139.5356  144.2506  152.0788 H   0  0  0  0  0  0  0  0  0  0  0  0  # atno 10167 bound_to 10162
  156.2565  130.7184  151.1103 H   0  0  0  0  0  0  0  0  0  0  0  0  # atno 10718 bound_to 10713
  153.6879  135.3304  155.3194 H   0  0  0  0  0  0  0  0  0  0  0  0  # atno 10763 bound_to 10752
  154.8448  135.4424  154.1539 H   0  0  0  0  0  0  0  0  0  0  0  0  # atno 10764 bound_to 10752
  153.2573  135.6987  153.7693 H   0  0  0  0  0  0  0  0  0  0  0  0  # atno 10765 bound_to 10752
  140.7752  134.3142  157.5062 H   0  0  0  0  0  0  0  0  0  0  0  0  # atno 11005 bound_to 11000
  146.3321  140.2811  142.8610 LP  0  0  0  0  0  0  0  0  0  0  0  0  # atno 17320 bound_to 7965
  144.9563  140.8230  143.5541 LP  0  0  0  0  0  0  0  0  0  0  0  0  # atno 17321 bound_to 7965
  140.1976  144.4690  150.6447 LP  0  0  0  0  0  0  0  0  0  0  0  0  # atno 17342 bound_to 10162
  140.6561  143.2238  151.5965 LP  0  0  0  0  0  0  0  0  0  0  0  0  # atno 17343 bound_to 10162
  157.7235  131.0666  150.6036 LP  0  0  0  0  0  0  0  0  0  0  0  0  # atno 17370 bound_to 10713
  156.6120  130.4382  149.5855 LP  0  0  0  0  0  0  0  0  0  0  0  0  # atno 17371 bound_to 10713
  139.8750  134.9285  156.3453 LP  0  0  0  0  0  0  0  0  0  0  0  0  # atno 17394 bound_to 11000
  140.9535  133.7435  156.0304 LP  0  0  0  0  0  0  0  0  0  0  0  0  # atno 17395 bound_to 11000

$$$$
