AV-unprocessed.smi:340|AV-procd|sdf|2381|dock6
  -GOLD-   2262022303D 1   1.00000     0.00000
 Structure written by MMmdl.
 34 35  0  0  0  0  0  0  0  0  2 V2000
  149.9443  134.4342  154.7579 C   0  0  0  0  0  0  0  0  0  0  0  0
  150.1785  135.5066  156.2311 S   0  0  0  0  0  0  0  0  0  0  0  0
  149.0046  136.3936  156.2718 O   0  0  0  0  0  0  0  0  0  0  0  0
  150.3692  134.5909  157.3676 O   0  0  0  0  0  0  0  0  0  0  0  0
  151.5383  136.2856  155.8190 N   0  5  0  0  0  0  0  0  0  0  0  0
  151.4435  137.5346  155.0852 C   0  0  0  0  0  0  0  0  0  0  0  0
  151.4975  138.7360  156.0178 C   0  0  0  0  0  0  0  0  0  0  0  0
  151.7453  138.5762  157.3995 C   0  0  0  0  0  0  0  0  0  0  0  0
  151.7861  139.7196  158.2217 C   0  0  0  0  0  0  0  0  0  0  0  0
  151.5806  140.9855  157.6358 C   0  0  0  0  0  0  0  0  0  0  0  0
  151.6258  142.1263  158.4492 N   0  0  0  0  0  0  0  0  0  0  0  0
  151.2551  143.3507  157.7504 C   0  0  0  0  0  0  0  0  0  0  0  0
  151.2132  144.5284  158.7394 C   0  0  0  0  0  0  0  0  0  0  0  0
  152.4681  144.6397  159.4054 O   0  0  0  0  0  0  0  0  0  0  0  0
  152.7870  143.4649  160.1461 C   0  0  0  0  0  0  0  0  0  0  0  0
  152.8736  142.2632  159.1904 C   0  0  0  0  0  0  0  0  0  0  0  0
  151.3413  141.1472  156.3127 N   0  0  0  0  0  0  0  0  0  0  0  0
  151.3029  140.0480  155.5283 C   0  0  0  0  0  0  0  0  0  0  0  0
  149.0434  133.8356  154.8877 H   0  0  0  0  0  0  0  0  0  0  0  0
  150.8054  133.7758  154.6470 H   0  0  0  0  0  0  0  0  0  0  0  0
  149.8430  135.0556  153.8686 H   0  0  0  0  0  0  0  0  0  0  0  0
  152.2482  137.6382  154.3566 H   0  0  0  0  0  0  0  0  0  0  0  0
  150.5192  137.5950  154.5096 H   0  0  0  0  0  0  0  0  0  0  0  0
  151.9055  137.6011  157.8392 H   0  0  0  0  0  0  0  0  0  0  0  0
  151.9756  139.6237  159.2809 H   0  0  0  0  0  0  0  0  0  0  0  0
  151.9771  143.5580  156.9592 H   0  0  0  0  0  0  0  0  0  0  0  0
  150.2814  143.2252  157.2751 H   0  0  0  0  0  0  0  0  0  0  0  0
  151.0086  145.4582  158.2086 H   0  0  0  0  0  0  0  0  0  0  0  0
  150.4131  144.3952  159.4693 H   0  0  0  0  0  0  0  0  0  0  0  0
  153.7403  143.6115  160.6538 H   0  0  0  0  0  0  0  0  0  0  0  0
  152.0361  143.2938  160.9191 H   0  0  0  0  0  0  0  0  0  0  0  0
  153.0717  141.3494  159.7521 H   0  0  0  0  0  0  0  0  0  0  0  0
  153.7040  142.4028  158.4968 H   0  0  0  0  0  0  0  0  0  0  0  0
  151.1120  140.2397  154.4813 H   0  0  0  0  0  0  0  0  0  0  0  0
  1  2  1  0  0  0  0
  1 19  1  0  0  0  0
  1 20  1  0  0  0  0
  1 21  1  0  0  0  0
  2  3  2  0  0  0  0
  2  4  2  0  0  0  0
  2  5  1  0  0  0  0
  5  6  1  0  0  0  0
  6  7  1  0  0  0  0
  6 22  1  0  0  0  0
  6 23  1  0  0  0  0
  7 18  1  0  0  0  0
  7  8  2  0  0  0  0
  8  9  1  0  0  0  0
  8 24  1  0  0  0  0
  9 10  2  0  0  0  0
  9 25  1  0  0  0  0
 10 11  1  0  0  0  0
 10 17  1  0  0  0  0
 11 16  1  0  0  0  0
 11 12  1  0  0  0  0
 12 13  1  0  0  0  0
 12 26  1  0  0  0  0
 12 27  1  0  0  0  0
 13 14  1  0  0  0  0
 13 28  1  0  0  0  0
 13 29  1  0  0  0  0
 14 15  1  0  0  0  0
 15 16  1  0  0  0  0
 15 30  1  0  0  0  0
 15 31  1  0  0  0  0
 16 32  1  0  0  0  0
 16 33  1  0  0  0  0
 17 18  2  0  0  0  0
 18 34  1  0  0  0  0
M  CHG  1   5  -1
M  END
> <s_m_source_file>
AV-unprocessed.smi

> <i_m_source_file_index>
340

> <i_lp_mmshare_version>
43012

> <i_f3d_flags>
0

> <s_epik_input>
W0NIM11TKD1PKSg9TylbTkhdW0NIMl1jMVtjSF1bY0hdYyhuW2NIXTEpTjJbQ0gyXVtDSDJdT1tDSDJdW0NIMl0y

> <s_epik_cmdline>
J2VwaWtfcHl0aG9uJywgJy1waCcsICc3LjAnLCAnLXRuJywgJzgnLCAnLW1hJywgJzIwMCcsICctbWV0YWxfYmluZGluZycsICctaW1hZScsICc8aW5maWxlLm1hZT4nLCAnLW9tYWUnLCAnPG91dGZpbGUubWFlPic=

> <r_lp_tautomer_probability>
1

> <r_epik_Ionization_Penalty>
5.97683

> <r_epik_Ionization_Penalty_Charging>
5.90424

> <r_epik_Ionization_Penalty_Neutral>
0.0725937

> <r_epik_State_Penalty>
5.9092

> <r_epik_Charging_Adjusted_Penalty>
11.8134

> <i_epik_Tot_Q>
-1

> <i_epik_Tot_abs_Q>
1

> <r_epik_Metal_State_Penalty>
1.87112

> <b_epik_Metal_Only>
1

> <s_lp_Force_Field>
OPLS_2005

> <r_lp_Energy>
14.5027

> <b_lp_Chiralities_Consistent>
1

> <s_lp_Variant>
AV-unprocessed.smi:340-2

> <Gold.Version>
5.8.1

> <Gold.Id.Protein>
6NUR|6NUR_protein|mol2

> <Gold.PLP.Fitness>
38.8271

> <Gold.PLP.PLP>
-31.4672

> <Gold.PLP.part.hbond>
-2.0000

> <Gold.PLP.part.metal>
0.0000

> <Gold.PLP.part.buried>
-4.0394

> <Gold.PLP.part.nonpolar>
-25.7800

> <Gold.PLP.part.repulsive>
0.1340

> <Gold.PLP.ligand.clash>
0.0000

> <Gold.PLP.ligand.torsion>
0.7420

> <Gold.PLP.Chemscore.Hbond>
2.5920

> <Gold.PLP.Chemscore.CHOScore>
0.0000

> <Gold.PLP.Chemscore.Metal>
0.0000

> <Gold.Chemscore.Hbonds>
donor molecule, donor type, donor heavy atom, donor atom, acceptor molecule, acceptor atom, score
      P1  H  6896  6908       L1     4  0.59
      P1  H 10752 10764       L1     5  2.00

> <Gold.PLP.Chemscore.Internal.Correction>
1.0680

> <Gold.Rescore>
     Score         DG    S(hbond)    S(metal)    S(lipo)     H(rot)  DE(clash)    DE(int)     intcor
     14.13     -14.87       1.34        0.00      75.73       1.54       0.01       0.73       ----

> <Gold.Chemscore.Fitness>
14.1312

> <Gold.Chemscore.DG>
-14.8712

> <Gold.Chemscore.ZeroCoef>
-5.4800

> <Gold.Chemscore.Hbond>
1.3431

> <Gold.Chemscore.Metal>
0.0000

> <Gold.Chemscore.Lipo>
75.7258

> <Gold.Chemscore.Internal_Hbond>
0.0000

> <Gold.Chemscore.DEClash>
0.0139

> <Gold.Chemscore.DEInternal>
0.7260

> <Gold.Chemscore.Rot>
1.5448

> <Gold.Chemscore.Internal.Correction>
   9.000000E+99

> <Gold.Chemscore.Hbonds>
donor molecule, donor type, donor heavy atom, donor atom, acceptor molecule, acceptor atom, score
      P1  H  6896  6908       L1     4  0.58
      P1  H 10752 10764       L1     5  0.25

> <Gold.Chemscore.Hbond.Weighted>
-4.4858

> <Gold.Chemscore.Metal.Weighted>
-0.0000

> <Gold.Chemscore.Lipo.Weighted>
-8.8599

> <Gold.Chemscore.Internal_Hbond.Weighted>
0.0000

> <Gold.Chemscore.DEClash.Weighted>
0.0139

> <Gold.Chemscore.DEInternal.Weighted>
0.7260

> <Gold.Chemscore.Rot.Weighted>
3.9546

> <Gold.Chemscore.Internal.Correction.Weighted>
   9.000000E+99

> <Gold.Protein.RotatedTorsions>
[ 6907 6896 6895 6894 ] final  127.48 input  -60.11 | X-H torsion
[ 7974 7965 7964 7962 ] final -176.94 input  175.53 | X-H torsion
[ 8008 7997 7996 7995 ] final -112.58 input   59.86 | X-H torsion
[ 10167 10162 10161 10158 ] final -173.82 input  -65.29 | X-H torsion
[ 10718 10713 10712 10709 ] final  100.13 input   66.30 | X-H torsion
[ 10763 10752 10751 10750 ] final  -38.01 input  -60.55 | X-H torsion
[ 11005 11000 10999 10996 ] final  -14.44 input  -57.11 | X-H torsion

> <Gold.Protein.ActiveResidues>
 VAL166  LYS551  ARG553  GLY616  TRP617  ASP618  TYR619  PRO620  LYS621  CYS622 
 ASP623  PHE694  ASN695  SER759  ASP760  ASP761  ALA762  ILE779  LEU786  VAL792 
 PHE793  MET794  SER795  GLU796  ALA797  LYS798  CYS799  TRP800  GLU811  SER814 

> <Gold.Protein.RotatedAtoms>
  152.3808  133.6544  159.6159 H   0  0  0  0  0  0  0  0  0  0  0  0  # atno 6907 bound_to 6896
  150.7740  133.9116  159.3380 H   0  0  0  0  0  0  0  0  0  0  0  0  # atno 6908 bound_to 6896
  151.6922  135.0946  160.0287 H   0  0  0  0  0  0  0  0  0  0  0  0  # atno 6909 bound_to 6896
  144.7127  140.1095  143.6412 H   0  0  0  0  0  0  0  0  0  0  0  0  # atno 7974 bound_to 7965
  155.0074  140.0394  157.2385 H   0  0  0  0  0  0  0  0  0  0  0  0  # atno 8008 bound_to 7997
  154.7490  140.2763  155.6285 H   0  0  0  0  0  0  0  0  0  0  0  0  # atno 8009 bound_to 7997
  156.2881  140.2650  156.2238 H   0  0  0  0  0  0  0  0  0  0  0  0  # atno 8010 bound_to 7997
  139.5667  144.1738  152.1323 H   0  0  0  0  0  0  0  0  0  0  0  0  # atno 10167 bound_to 10162
  157.6861  131.0689  150.5053 H   0  0  0  0  0  0  0  0  0  0  0  0  # atno 10718 bound_to 10713
  153.9058  135.6797  153.4753 H   0  0  0  0  0  0  0  0  0  0  0  0  # atno 10763 bound_to 10752
  153.1104  135.4785  154.9023 H   0  0  0  0  0  0  0  0  0  0  0  0  # atno 10764 bound_to 10752
  154.7552  135.3195  154.8438 H   0  0  0  0  0  0  0  0  0  0  0  0  # atno 10765 bound_to 10752
  140.7864  133.8322  155.9339 H   0  0  0  0  0  0  0  0  0  0  0  0  # atno 11005 bound_to 11000
  145.9467  139.2705  143.1236 LP  0  0  0  0  0  0  0  0  0  0  0  0  # atno 17320 bound_to 7965
  145.9366  140.9010  143.0329 LP  0  0  0  0  0  0  0  0  0  0  0  0  # atno 17321 bound_to 7965
  140.1263  144.5328  150.6831 LP  0  0  0  0  0  0  0  0  0  0  0  0  # atno 17342 bound_to 10162
  140.6951  143.2399  151.5024 LP  0  0  0  0  0  0  0  0  0  0  0  0  # atno 17343 bound_to 10162
  156.5373  130.4199  149.6171 LP  0  0  0  0  0  0  0  0  0  0  0  0  # atno 17370 bound_to 10713
  156.3016  130.7180  151.2053 LP  0  0  0  0  0  0  0  0  0  0  0  0  # atno 17371 bound_to 10713
  140.9432  134.1874  157.4782 LP  0  0  0  0  0  0  0  0  0  0  0  0  # atno 17394 bound_to 11000
  139.8736  134.9880  156.5393 LP  0  0  0  0  0  0  0  0  0  0  0  0  # atno 17395 bound_to 11000

$$$$
