AV-unprocessed.smi:3068|AV-procd|sdf|11698|dock8
  -GOLD-   2272017103D 1   1.00000     0.00000
 Structure written by MMmdl.
 40 42  0  0  0  0  0  0  0  0  2 V2000
  151.3159  136.3156  154.7371 N   0  0  0  0  0  0  0  0  0  0  0  0
  151.0512  137.4116  154.9983 C   0  0  0  0  0  0  0  0  0  0  0  0
  150.7166  138.7916  155.3259 C   0  0  0  0  0  0  0  0  0  0  0  0
  151.3137  139.3185  156.4200 N   0  0  0  0  0  0  0  0  0  0  0  0
  151.0149  140.5972  156.7325 C   0  0  0  0  0  0  0  0  0  0  0  0
  150.1203  141.3567  155.9538 C   0  0  0  0  0  0  0  0  0  0  0  0
  149.5210  140.8399  154.8601 N   0  0  0  0  0  0  0  0  0  0  0  0
  149.8115  139.5550  154.5352 C   0  0  0  0  0  0  0  0  0  0  0  0
  149.1922  139.0001  153.3996 N   0  0  0  0  0  0  0  0  0  0  0  0
  147.9107  138.3090  153.4773 C   0  0  0  0  0  0  0  0  0  0  0  0
  146.7789  139.2243  153.9741 C   0  0  2  0  0  0  0  0  0  0  0  0
  147.0413  140.6974  153.6125 C   0  0  0  0  0  0  0  0  0  0  0  0
  145.9764  141.5666  154.1635 N   0  3  2  0  0  0  0  0  0  0  0  0
  146.1669  142.9938  153.8012 C   0  0  0  0  0  0  0  0  0  0  0  0
  144.9972  143.8532  154.3063 C   0  0  0  0  0  0  0  0  0  0  0  0
  144.8128  143.6874  155.8203 C   0  0  0  0  0  0  0  0  0  0  0  0
  144.6456  142.2025  156.1702 C   0  0  0  0  0  0  0  0  0  0  0  0
  145.8212  141.3645  155.6298 C   0  0  1  0  0  0  0  0  0  0  0  0
  145.6287  139.8661  155.9357 C   0  0  0  0  0  0  0  0  0  0  0  0
  146.7092  139.1188  155.3922 O   0  0  0  0  0  0  0  0  0  0  0  0
  151.4918  141.0162  157.6062 H   0  0  0  0  0  0  0  0  0  0  0  0
  149.8856  142.3796  156.2084 H   0  0  0  0  0  0  0  0  0  0  0  0
  149.5913  139.1683  152.4867 H   0  0  0  0  0  0  0  0  0  0  0  0
  147.6670  137.9232  152.4872 H   0  0  0  0  0  0  0  0  0  0  0  0
  148.0077  137.4373  154.1256 H   0  0  0  0  0  0  0  0  0  0  0  0
  145.8306  138.9100  153.5343 H   0  0  0  0  0  0  0  0  0  0  0  0
  148.0101  141.0145  154.0020 H   0  0  0  0  0  0  0  0  0  0  0  0
  147.0783  140.8116  152.5283 H   0  0  0  0  0  0  0  0  0  0  0  0
  147.1069  143.3560  154.2208 H   0  0  0  0  0  0  0  0  0  0  0  0
  146.2459  143.0875  152.7173 H   0  0  0  0  0  0  0  0  0  0  0  0
  145.1725  144.9019  154.0641 H   0  0  0  0  0  0  0  0  0  0  0  0
  144.0805  143.5648  153.7902 H   0  0  0  0  0  0  0  0  0  0  0  0
  145.6775  144.0959  156.3451 H   0  0  0  0  0  0  0  0  0  0  0  0
  143.9450  144.2545  156.1585 H   0  0  0  0  0  0  0  0  0  0  0  0
  144.5683  142.0865  157.2520 H   0  0  0  0  0  0  0  0  0  0  0  0
  143.7066  141.8353  155.7530 H   0  0  0  0  0  0  0  0  0  0  0  0
  146.7400  141.6979  156.1160 H   0  0  0  0  0  0  0  0  0  0  0  0
  145.6006  139.7023  157.0133 H   0  0  0  0  0  0  0  0  0  0  0  0
  144.6823  139.4991  155.5347 H   0  0  0  0  0  0  0  0  0  0  0  0
  145.1101  141.2711  153.7365 H   0  0  0  0  0  0  0  0  0  0  0  0
  1  2  3  0  0  0  0
  2  3  1  0  0  0  0
  3  8  1  0  0  0  0
  3  4  2  0  0  0  0
  4  5  1  0  0  0  0
  5  6  2  0  0  0  0
  5 21  1  0  0  0  0
  6  7  1  0  0  0  0
  6 22  1  0  0  0  0
  7  8  2  0  0  0  0
  8  9  1  0  0  0  0
  9 10  1  0  0  0  0
  9 23  1  0  0  0  0
 10 11  1  0  0  0  0
 10 24  1  0  0  0  0
 10 25  1  0  0  0  0
 11 20  1  0  0  0  0
 11 12  1  0  0  0  0
 11 26  1  0  0  0  0
 12 13  1  0  0  0  0
 12 27  1  0  0  0  0
 12 28  1  0  0  0  0
 13 18  1  0  0  0  0
 13 14  1  0  0  0  0
 13 40  1  0  0  0  0
 14 15  1  0  0  0  0
 14 29  1  0  0  0  0
 14 30  1  0  0  0  0
 15 16  1  0  0  0  0
 15 31  1  0  0  0  0
 15 32  1  0  0  0  0
 16 17  1  0  0  0  0
 16 33  1  0  0  0  0
 16 34  1  0  0  0  0
 17 18  1  0  0  0  0
 17 35  1  0  0  0  0
 17 36  1  0  0  0  0
 18 19  1  0  0  0  0
 18 37  1  0  0  0  0
 19 20  1  0  0  0  0
 19 38  1  0  0  0  0
 19 39  1  0  0  0  0
M  CHG  1  13   1
M  END
> <s_m_source_file>
AV-unprocessed.smi

> <i_m_source_file_index>
3068

> <i_lp_mmshare_version>
43012

> <i_f3d_flags>
0

> <s_epik_input>
TiNDYzFuW2NIXVtjSF1uYzFbTkhdW0NIMl1bQ0BIXShbQ0gyXTIpT1tDSDJdW0NAQEhdKE4yMylbQ0gyXVtDSDJdW0NIMl1bQ0gyXTM=

> <s_epik_cmdline>
J2VwaWtfcHl0aG9uJywgJy1waCcsICc3LjAnLCAnLXRuJywgJzgnLCAnLW1hJywgJzIwMCcsICctbWV0YWxfYmluZGluZycsICctaW1hZScsICc8aW5maWxlLm1hZT4nLCAnLW9tYWUnLCAnPG91dGZpbGUubWFlPic=

> <r_epik_Ionization_Penalty>
0.0804321

> <r_epik_Ionization_Penalty_Charging>
0.0803403

> <r_epik_Ionization_Penalty_Neutral>
9.17277e-05

> <r_epik_State_Penalty>
0.0711481

> <r_epik_Charging_Adjusted_Penalty>
0.151488

> <i_epik_Tot_Q>
1

> <i_epik_Tot_abs_Q>
1

> <r_epik_Metal_State_Penalty>
0.0711481

> <b_epik_Metal_Only>
0

> <s_lp_Force_Field>
OPLS_2005

> <r_lp_Energy>
36.4506

> <b_lp_Chiralities_Consistent>
1

> <s_lp_Variant>
AV-unprocessed.smi:3068-1

> <Gold.Version>
5.8.1

> <Gold.Id.Protein>
6NUR|6NUR_protein|mol2

> <Gold.PLP.Fitness>
42.8893

> <Gold.PLP.PLP>
-30.6765

> <Gold.PLP.part.hbond>
-3.8845

> <Gold.PLP.part.metal>
0.0000

> <Gold.PLP.part.buried>
-4.5645

> <Gold.PLP.part.nonpolar>
-24.4482

> <Gold.PLP.part.repulsive>
0.4547

> <Gold.PLP.ligand.clash>
0.0658

> <Gold.PLP.ligand.torsion>
1.1489

> <Gold.PLP.Chemscore.Hbond>
3.8580

> <Gold.PLP.Chemscore.CHOScore>
1.0000

> <Gold.PLP.Chemscore.Metal>
0.0000

> <Gold.Chemscore.Hbonds>
donor molecule, donor type, donor heavy atom, donor atom, acceptor molecule, acceptor atom, score
      L1  H     9    23       P1  7957  0.99
      L1  H    13    40       P1 10175  1.92
      P1  H 10752 10764       L1     1  1.00
      L1  C     6    22       P1  8028  0.82

> <Gold.PLP.Chemscore.Internal.Correction>
0.0025

> <Gold.Rescore>
     Score         DG    S(hbond)    S(metal)    S(lipo)     H(rot)  DE(clash)    DE(int)     intcor
     14.70     -17.36       2.82        0.00      49.97       1.32       0.38       2.28       ----

> <Gold.Chemscore.Fitness>
14.6987

> <Gold.Chemscore.DG>
-17.3614

> <Gold.Chemscore.ZeroCoef>
-5.4800

> <Gold.Chemscore.Hbond>
2.8182

> <Gold.Chemscore.Metal>
0.0000

> <Gold.Chemscore.Lipo>
49.9656

> <Gold.Chemscore.Internal_Hbond>
0.0000

> <Gold.Chemscore.DEClash>
0.3811

> <Gold.Chemscore.DEInternal>
2.2815

> <Gold.Chemscore.Rot>
1.3193

> <Gold.Chemscore.Internal.Correction>
   9.000000E+99

> <Gold.Chemscore.Hbonds>
donor molecule, donor type, donor heavy atom, donor atom, acceptor molecule, acceptor atom, score
      L1  H     9    23       P1  7957  0.87
      L1  H    13    40       P1 10175  0.41
      P1  H 10752 10764       L1     1  1.00

> <Gold.Chemscore.Hbond.Weighted>
-9.4128

> <Gold.Chemscore.Metal.Weighted>
-0.0000

> <Gold.Chemscore.Lipo.Weighted>
-5.8460

> <Gold.Chemscore.Internal_Hbond.Weighted>
0.0000

> <Gold.Chemscore.DEClash.Weighted>
0.3811

> <Gold.Chemscore.DEInternal.Weighted>
2.2815

> <Gold.Chemscore.Rot.Weighted>
3.3774

> <Gold.Chemscore.Internal.Correction.Weighted>
   9.000000E+99

> <Gold.Protein.RotatedTorsions>
[ 6907 6896 6895 6894 ] final  128.47 input  -60.11 | X-H torsion
[ 7974 7965 7964 7962 ] final    7.47 input  175.53 | X-H torsion
[ 8008 7997 7996 7995 ] final   87.74 input   59.86 | X-H torsion
[ 10167 10162 10161 10158 ] final   -5.37 input  -65.29 | X-H torsion
[ 10718 10713 10712 10709 ] final -176.60 input   66.30 | X-H torsion
[ 10763 10752 10751 10750 ] final  -64.83 input  -60.55 | X-H torsion
[ 11005 11000 10999 10996 ] final  -47.74 input  -57.11 | X-H torsion

> <Gold.Protein.ActiveResidues>
 VAL166  LYS551  ARG553  GLY616  TRP617  ASP618  TYR619  PRO620  LYS621  CYS622 
 ASP623  PHE694  ASN695  SER759  ASP760  ASP761  ALA762  ILE779  LEU786  VAL792 
 PHE793  MET794  SER795  GLU796  ALA797  LYS798  CYS799  TRP800  GLU811  SER814 

> <Gold.Protein.RotatedAtoms>
  152.3716  133.6426  159.6091 H   0  0  0  0  0  0  0  0  0  0  0  0  # atno 6907 bound_to 6896
  150.7673  133.9261  159.3421 H   0  0  0  0  0  0  0  0  0  0  0  0  # atno 6908 bound_to 6896
  151.7082  135.0919  160.0314 H   0  0  0  0  0  0  0  0  0  0  0  0  # atno 6909 bound_to 6896
  146.2426  140.0078  142.8409 H   0  0  0  0  0  0  0  0  0  0  0  0  # atno 7974 bound_to 7965
  155.9792  140.3379  155.6647 H   0  0  0  0  0  0  0  0  0  0  0  0  # atno 8008 bound_to 7997
  155.6572  140.0712  157.2585 H   0  0  0  0  0  0  0  0  0  0  0  0  # atno 8009 bound_to 7997
  154.4187  140.1715  156.1725 H   0  0  0  0  0  0  0  0  0  0  0  0  # atno 8010 bound_to 7997
  140.6960  143.6316  150.8517 H   0  0  0  0  0  0  0  0  0  0  0  0  # atno 10167 bound_to 10162
  156.8170  130.9606  151.3113 H   0  0  0  0  0  0  0  0  0  0  0  0  # atno 10718 bound_to 10713
  154.3359  135.6167  153.5573 H   0  0  0  0  0  0  0  0  0  0  0  0  # atno 10763 bound_to 10752
  152.9808  135.5758  154.4908 H   0  0  0  0  0  0  0  0  0  0  0  0  # atno 10764 bound_to 10752
  154.4603  135.2855  155.1694 H   0  0  0  0  0  0  0  0  0  0  0  0  # atno 10765 bound_to 10752
  141.0659  133.6694  156.3340 H   0  0  0  0  0  0  0  0  0  0  0  0  # atno 11005 bound_to 11000
  145.1356  140.9542  143.4519 LP  0  0  0  0  0  0  0  0  0  0  0  0  # atno 17320 bound_to 7965
  145.0346  139.3312  143.6007 LP  0  0  0  0  0  0  0  0  0  0  0  0  # atno 17321 bound_to 7965
  140.0034  143.5719  152.2867 LP  0  0  0  0  0  0  0  0  0  0  0  0  # atno 17342 bound_to 10162
  139.6417  144.7655  151.2326 LP  0  0  0  0  0  0  0  0  0  0  0  0  # atno 17343 bound_to 10162
  157.6476  130.8857  149.9569 LP  0  0  0  0  0  0  0  0  0  0  0  0  # atno 17370 bound_to 10713
  156.1011  130.3656  150.0217 LP  0  0  0  0  0  0  0  0  0  0  0  0  # atno 17371 bound_to 10713
  140.5775  134.5779  157.5472 LP  0  0  0  0  0  0  0  0  0  0  0  0  # atno 17394 bound_to 11000
  139.9476  134.7675  156.0525 LP  0  0  0  0  0  0  0  0  0  0  0  0  # atno 17395 bound_to 11000

$$$$
