AV-unprocessed.smi:203|AV-procd|sdf|1585|dock10
  -GOLD-   2262019483D 1   1.00000     0.00000
 Structure written by MMmdl.
 57 61  0  0  0  0  0  0  0  0  1 V2000
  146.9312  129.0061  161.8315 O   0  0  0  0  0  0  0  0  0  0  0  0
  147.3460  129.9314  161.1376 C   0  0  0  0  0  0  0  0  0  0  0  0
  148.1883  131.0734  161.6791 C   0  0  0  0  0  0  0  0  0  0  0  0
  148.2523  132.0676  160.5017 C   0  0  2  0  0  0  0  0  0  0  0  0
  147.4752  133.4029  160.7358 C   0  0  1  0  0  0  0  0  0  0  0  0
  147.4943  133.8590  162.2185 C   0  0  0  0  0  0  0  0  0  0  0  0
  146.7146  135.1653  162.4197 C   0  0  0  0  0  0  0  0  0  0  0  0
  147.2668  136.2512  161.4899 C   0  0  0  0  0  0  0  0  0  0  0  0
  147.2348  135.7744  160.0318 C   0  0  0  0  0  0  0  0  0  0  0  0
  147.9407  134.5036  159.8723 N   0  0  0  0  0  0  0  0  0  0  0  0
  148.0987  134.2140  158.5618 C   0  0  0  0  0  0  0  0  0  0  0  0
  149.3407  134.3634  158.0399 N   0  0  0  0  0  0  0  0  0  0  0  0
  149.5665  134.0570  156.7588 C   0  0  0  0  0  0  0  0  0  0  0  0
  148.7093  133.5896  155.8483 N   0  0  0  0  0  0  0  0  0  0  0  0
  147.4576  133.4480  156.3712 C   0  0  0  0  0  0  0  0  0  0  0  0
  147.0629  133.7483  157.7043 C   0  0  0  0  0  0  0  0  0  0  0  0
  145.7066  133.4931  157.8681 N   0  0  0  0  0  0  0  0  0  0  0  0
  145.3255  133.0464  156.7031 C   0  0  0  0  0  0  0  0  0  0  0  0
  146.3197  132.9588  155.7545 N   0  0  0  0  0  0  0  0  0  0  0  0
  146.1841  132.4648  154.3959 C   0  0  0  0  0  0  0  0  0  0  0  0
  145.6226  133.5186  153.4116 C   0  0  2  0  0  0  0  0  0  0  0  0
  144.3486  133.9249  153.8672 O   0  0  0  0  0  0  0  0  0  0  0  0
  145.5120  133.1080  151.9228 C   0  0  2  0  0  0  0  0  0  0  0  0
  144.8046  134.0910  150.9872 C   0  0  0  0  0  0  0  0  0  0  0  0
  144.4173  133.1831  149.8410 C   0  0  0  0  0  0  0  0  0  0  0  0
  144.0478  131.8909  150.5660 C   0  0  0  0  0  0  0  0  0  0  0  0
  144.8331  131.8654  151.7554 O   0  0  0  0  0  0  0  0  0  0  0  0
  147.7460  131.2724  159.2793 C   0  0  0  0  0  0  0  0  0  0  0  0
  147.1338  130.0801  159.8317 N   0  0  0  0  0  0  0  0  0  0  0  0
  147.7504  131.4987  162.5823 H   0  0  0  0  0  0  0  0  0  0  0  0
  149.1814  130.6990  161.9301 H   0  0  0  0  0  0  0  0  0  0  0  0
  149.2998  132.2950  160.3035 H   0  0  0  0  0  0  0  0  0  0  0  0
  146.4319  133.2186  160.4781 H   0  0  0  0  0  0  0  0  0  0  0  0
  147.0709  133.0933  162.8674 H   0  0  0  0  0  0  0  0  0  0  0  0
  148.5200  134.0099  162.5554 H   0  0  0  0  0  0  0  0  0  0  0  0
  145.6567  135.0014  162.2108 H   0  0  0  0  0  0  0  0  0  0  0  0
  146.7835  135.4886  163.4587 H   0  0  0  0  0  0  0  0  0  0  0  0
  146.6871  137.1683  161.5969 H   0  0  0  0  0  0  0  0  0  0  0  0
  148.2914  136.4941  161.7742 H   0  0  0  0  0  0  0  0  0  0  0  0
  146.2004  135.6564  159.7056 H   0  0  0  0  0  0  0  0  0  0  0  0
  147.6848  136.5346  159.3913 H   0  0  0  0  0  0  0  0  0  0  0  0
  150.5811  134.1979  156.4165 H   0  0  0  0  0  0  0  0  0  0  0  0
  144.3056  132.7467  156.5105 H   0  0  0  0  0  0  0  0  0  0  0  0
  147.1603  132.1128  154.0597 H   0  0  0  0  0  0  0  0  0  0  0  0
  145.5341  131.5892  154.4175 H   0  0  0  0  0  0  0  0  0  0  0  0
  146.2565  134.4045  153.4602 H   0  0  0  0  0  0  0  0  0  0  0  0
  143.9028  133.1721  154.2241 H   0  0  0  0  0  0  0  0  0  0  0  0
  146.5183  132.9390  151.5348 H   0  0  0  0  0  0  0  0  0  0  0  0
  143.9066  134.5072  151.4418 H   0  0  0  0  0  0  0  0  0  0  0  0
  145.4445  134.9182  150.6785 H   0  0  0  0  0  0  0  0  0  0  0  0
  143.6017  133.5799  149.2357 H   0  0  0  0  0  0  0  0  0  0  0  0
  145.2765  133.0157  149.1902 H   0  0  0  0  0  0  0  0  0  0  0  0
  142.9944  131.9004  150.8466 H   0  0  0  0  0  0  0  0  0  0  0  0
  144.2243  131.0062  149.9535 H   0  0  0  0  0  0  0  0  0  0  0  0
  147.0426  131.8311  158.6618 H   0  0  0  0  0  0  0  0  0  0  0  0
  148.5772  130.9733  158.6394 H   0  0  0  0  0  0  0  0  0  0  0  0
  146.5988  129.4336  159.2699 H   0  0  0  0  0  0  0  0  0  0  0  0
  1  2  2  0  0  0  0
  2 29  1  0  0  0  0
  2  3  1  0  0  0  0
  3  4  1  0  0  0  0
  3 30  1  0  0  0  0
  3 31  1  0  0  0  0
  4  5  1  0  0  0  0
  4 28  1  0  0  0  0
  4 32  1  0  0  0  0
  5 10  1  0  0  0  0
  5  6  1  0  0  0  0
  5 33  1  0  0  0  0
  6  7  1  0  0  0  0
  6 34  1  0  0  0  0
  6 35  1  0  0  0  0
  7  8  1  0  0  0  0
  7 36  1  0  0  0  0
  7 37  1  0  0  0  0
  8  9  1  0  0  0  0
  8 38  1  0  0  0  0
  8 39  1  0  0  0  0
  9 10  1  0  0  0  0
  9 40  1  0  0  0  0
  9 41  1  0  0  0  0
 10 11  1  0  0  0  0
 11 16  1  0  0  0  0
 11 12  2  0  0  0  0
 12 13  1  0  0  0  0
 13 14  2  0  0  0  0
 13 42  1  0  0  0  0
 14 15  1  0  0  0  0
 15 19  1  0  0  0  0
 15 16  2  0  0  0  0
 16 17  1  0  0  0  0
 17 18  2  0  0  0  0
 18 19  1  0  0  0  0
 18 43  1  0  0  0  0
 19 20  1  0  0  0  0
 20 21  1  0  0  0  0
 20 44  1  0  0  0  0
 20 45  1  0  0  0  0
 21 22  1  0  0  0  0
 21 23  1  0  0  0  0
 21 46  1  0  0  0  0
 22 47  1  0  0  0  0
 23 27  1  0  0  0  0
 23 24  1  0  0  0  0
 23 48  1  0  0  0  0
 24 25  1  0  0  0  0
 24 49  1  0  0  0  0
 24 50  1  0  0  0  0
 25 26  1  0  0  0  0
 25 51  1  0  0  0  0
 25 52  1  0  0  0  0
 26 27  1  0  0  0  0
 26 53  1  0  0  0  0
 26 54  1  0  0  0  0
 28 29  1  0  0  0  0
 28 55  1  0  0  0  0
 28 56  1  0  0  0  0
 29 57  1  0  0  0  0
M  END
> <s_m_source_file>
AV-unprocessed.smi

> <i_m_source_file_index>
203

> <i_lp_mmshare_version>
43012

> <i_f3d_flags>
0

> <s_epik_input>
Tz1DMVtDSDJdW0NASF0oW0NIMl1bTkhdMSlbQ0BASF0yW0NIMl1bQ0gyXVtDSDJdW0NIMl1OMmMobltjSF1uMyljKGMzNCluW2NIXW40W0NIMl1bQ0BIXShbT0hdKVtDQEBIXTVbQ0gyXVtDSDJdW0NIMl1PNQ==

> <s_epik_cmdline>
J2VwaWtfcHl0aG9uJywgJy1waCcsICc3LjAnLCAnLXRuJywgJzgnLCAnLW1hJywgJzIwMCcsICctbWV0YWxfYmluZGluZycsICctaW1hZScsICc8aW5maWxlLm1hZT4nLCAnLW9tYWUnLCAnPG91dGZpbGUubWFlPic=

> <r_lp_tautomer_probability>
1

> <r_epik_Ionization_Penalty>
0.00175146

> <r_epik_Ionization_Penalty_Charging>
0

> <r_epik_Ionization_Penalty_Neutral>
0.00175146

> <r_epik_State_Penalty>
0.00109045

> <r_epik_Charging_Adjusted_Penalty>
0.00109045

> <i_epik_Tot_Q>
0

> <i_epik_Tot_abs_Q>
0

> <r_epik_Metal_State_Penalty>
-0

> <b_epik_Metal_Only>
0

> <s_lp_Force_Field>
OPLS_2005

> <r_lp_Energy>
55.4262

> <b_lp_Chiralities_Consistent>
1

> <s_lp_Variant>
AV-unprocessed.smi:203-4

> <Gold.Version>
5.8.1

> <Gold.Id.Protein>
6NUR|6NUR_protein|mol2

> <Gold.PLP.Fitness>
41.8691

> <Gold.PLP.PLP>
-34.8326

> <Gold.PLP.part.hbond>
-2.0000

> <Gold.PLP.part.metal>
0.0000

> <Gold.PLP.part.buried>
-5.9219

> <Gold.PLP.part.nonpolar>
-27.0675

> <Gold.PLP.part.repulsive>
0.1758

> <Gold.PLP.ligand.clash>
0.0000

> <Gold.PLP.ligand.torsion>
1.1089

> <Gold.PLP.Chemscore.Hbond>
2.0000

> <Gold.PLP.Chemscore.CHOScore>
1.0000

> <Gold.PLP.Chemscore.Metal>
0.0000

> <Gold.Chemscore.Hbonds>
donor molecule, donor type, donor heavy atom, donor atom, acceptor molecule, acceptor atom, score
      L1  H    22    47       P1 10957  1.00
      P1  H  6896  6909       L1    12  1.00
      L1  C    18    43       P1 10957  0.98

> <Gold.PLP.Chemscore.Internal.Correction>
0.2544

> <Gold.Rescore>
     Score         DG    S(hbond)    S(metal)    S(lipo)     H(rot)  DE(clash)    DE(int)     intcor
     13.54     -14.79       1.90        0.00      84.69       2.72       0.00       1.25       ----

> <Gold.Chemscore.Fitness>
13.5350

> <Gold.Chemscore.DG>
-14.7855

> <Gold.Chemscore.ZeroCoef>
-5.4800

> <Gold.Chemscore.Hbond>
1.9020

> <Gold.Chemscore.Metal>
0.0000

> <Gold.Chemscore.Lipo>
84.6884

> <Gold.Chemscore.Internal_Hbond>
0.0000

> <Gold.Chemscore.DEClash>
0.0048

> <Gold.Chemscore.DEInternal>
1.2457

> <Gold.Chemscore.Rot>
2.7171

> <Gold.Chemscore.Internal.Correction>
   9.000000E+99

> <Gold.Chemscore.Hbonds>
donor molecule, donor type, donor heavy atom, donor atom, acceptor molecule, acceptor atom, score
      L1  H    22    47       P1 10957  0.99
      P1  H  6896  6909       L1    12  0.77

> <Gold.Chemscore.Hbond.Weighted>
-6.3527

> <Gold.Chemscore.Metal.Weighted>
-0.0000

> <Gold.Chemscore.Lipo.Weighted>
-9.9085

> <Gold.Chemscore.Internal_Hbond.Weighted>
0.0000

> <Gold.Chemscore.DEClash.Weighted>
0.0048

> <Gold.Chemscore.DEInternal.Weighted>
1.2457

> <Gold.Chemscore.Rot.Weighted>
6.9557

> <Gold.Chemscore.Internal.Correction.Weighted>
   9.000000E+99

> <Gold.Protein.RotatedTorsions>
[ 6907 6896 6895 6894 ] final   18.78 input  -60.11 | X-H torsion
[ 7974 7965 7964 7962 ] final  141.05 input  175.53 | X-H torsion
[ 8008 7997 7996 7995 ] final -151.27 input   59.86 | X-H torsion
[ 10167 10162 10161 10158 ] final   66.34 input  -65.29 | X-H torsion
[ 10718 10713 10712 10709 ] final   73.00 input   66.30 | X-H torsion
[ 10763 10752 10751 10750 ] final   38.35 input  -60.55 | X-H torsion
[ 11005 11000 10999 10996 ] final  -72.80 input  -57.11 | X-H torsion

> <Gold.Protein.ActiveResidues>
 VAL166  LYS551  ARG553  GLY616  TRP617  ASP618  TYR619  PRO620  LYS621  CYS622 
 ASP623  PHE694  ASN695  SER759  ASP760  ASP761  ALA762  ILE779  LEU786  VAL792 
 PHE793  MET794  SER795  GLU796  ALA797  LYS798  CYS799  TRP800  GLU811  SER814 

> <Gold.Protein.RotatedAtoms>
  151.8707  135.0490  160.0478 H   0  0  0  0  0  0  0  0  0  0  0  0  # atno 6907 bound_to 6896
  152.2590  133.5277  159.5379 H   0  0  0  0  0  0  0  0  0  0  0  0  # atno 6908 bound_to 6896
  150.7110  134.0771  159.3927 H   0  0  0  0  0  0  0  0  0  0  0  0  # atno 6909 bound_to 6896
  144.9131  139.5266  143.5699 H   0  0  0  0  0  0  0  0  0  0  0  0  # atno 7974 bound_to 7965
  155.6367  140.0697  157.2631 H   0  0  0  0  0  0  0  0  0  0  0  0  # atno 8008 bound_to 7997
  154.4193  140.1758  156.1579 H   0  0  0  0  0  0  0  0  0  0  0  0  # atno 8009 bound_to 7997
  155.9889  140.3347  155.6737 H   0  0  0  0  0  0  0  0  0  0  0  0  # atno 8010 bound_to 7997
  140.1015  144.4899  150.7034 H   0  0  0  0  0  0  0  0  0  0  0  0  # atno 10167 bound_to 10162
  157.6527  130.9607  150.1008 H   0  0  0  0  0  0  0  0  0  0  0  0  # atno 10718 bound_to 10713
  153.0004  135.6252  154.2290 H   0  0  0  0  0  0  0  0  0  0  0  0  # atno 10763 bound_to 10752
  154.2032  135.2803  155.2985 H   0  0  0  0  0  0  0  0  0  0  0  0  # atno 10764 bound_to 10752
  154.5667  135.5689  153.7115 H   0  0  0  0  0  0  0  0  0  0  0  0  # atno 10765 bound_to 10752
  141.1614  133.6858  156.7114 H   0  0  0  0  0  0  0  0  0  0  0  0  # atno 11005 bound_to 11000
  146.3168  139.7953  142.8977 LP  0  0  0  0  0  0  0  0  0  0  0  0  # atno 17320 bound_to 7965
  145.3421  141.0290  143.3387 LP  0  0  0  0  0  0  0  0  0  0  0  0  # atno 17321 bound_to 7965
  140.6975  143.2413  151.4959 LP  0  0  0  0  0  0  0  0  0  0  0  0  # atno 17342 bound_to 10162
  139.5669  144.2022  152.1778 LP  0  0  0  0  0  0  0  0  0  0  0  0  # atno 17343 bound_to 10162
  156.1931  130.3656  149.8884 LP  0  0  0  0  0  0  0  0  0  0  0  0  # atno 17370 bound_to 10713
  156.6807  130.8857  151.3575 LP  0  0  0  0  0  0  0  0  0  0  0  0  # atno 17371 bound_to 10713
  140.2884  134.8260  157.3995 LP  0  0  0  0  0  0  0  0  0  0  0  0  # atno 17394 bound_to 11000
  140.1369  134.5022  155.8062 LP  0  0  0  0  0  0  0  0  0  0  0  0  # atno 17395 bound_to 11000

$$$$
