AV-unprocessed.smi:1702|AV-procd|sdf|6845|dock2
  -GOLD-   22720 8 23D 1   1.00000     0.00000
 Structure written by MMmdl.
 44 46  0  0  0  0  0  0  0  0  2 V2000
  144.6281  136.4085  152.7803 C   0  0  0  0  0  0  0  0  0  0  0  0
  145.5996  137.5231  153.1933 C   0  0  2  0  0  0  0  0  0  0  0  0
  146.2778  138.1698  151.9738 C   0  0  0  0  0  0  0  0  0  0  0  0
  147.2710  139.2637  152.4010 C   0  0  0  0  0  0  0  0  0  0  0  0
  148.2935  138.7264  153.3381 N   0  3  1  0  0  0  0  0  0  0  0  0
  149.3480  139.7135  153.6867 C   0  0  0  0  0  0  0  0  0  0  0  0
  148.9190  140.6617  154.8238 C   0  0  2  0  0  0  0  0  0  0  0  0
  147.8453  141.4602  154.3637 O   0  0  0  0  0  0  0  0  0  0  0  0
  150.0771  141.5734  155.2731 C   0  0  0  0  0  0  0  0  0  0  0  0
  150.7589  141.0657  156.4507 N   0  0  0  0  0  0  0  0  0  0  0  0
  151.0532  139.7797  156.7222 C   0  0  0  0  0  0  0  0  0  0  0  0
  151.6832  139.5271  157.8655 N   0  0  0  0  0  0  0  0  0  0  0  0
  151.8192  140.7978  158.3972 C   0  0  0  0  0  0  0  0  0  0  0  0
  152.4078  141.2266  159.6082 C   0  0  0  0  0  0  0  0  0  0  0  0
  152.4296  142.5955  159.9472 C   0  0  0  0  0  0  0  0  0  0  0  0
  152.9977  142.9889  161.1119 F   0  0  0  0  0  0  0  0  0  0  0  0
  151.8629  143.5547  159.0818 C   0  0  0  0  0  0  0  0  0  0  0  0
  151.8876  144.8668  159.4148 F   0  0  0  0  0  0  0  0  0  0  0  0
  151.2697  143.1512  157.8700 C   0  0  0  0  0  0  0  0  0  0  0  0
  151.2514  141.7844  157.5355 C   0  0  0  0  0  0  0  0  0  0  0  0
  147.6661  138.1236  154.5422 C   0  0  0  0  0  0  0  0  0  0  0  0
  146.6805  137.0073  154.1575 C   0  0  0  0  0  0  0  0  0  0  0  0
  145.1445  135.6052  152.2538 H   0  0  0  0  0  0  0  0  0  0  0  0
  143.8490  136.7916  152.1206 H   0  0  0  0  0  0  0  0  0  0  0  0
  144.1368  135.9730  153.6510 H   0  0  0  0  0  0  0  0  0  0  0  0
  145.0220  138.2919  153.7091 H   0  0  0  0  0  0  0  0  0  0  0  0
  146.8017  137.4088  151.3934 H   0  0  0  0  0  0  0  0  0  0  0  0
  145.5246  138.5980  151.3115 H   0  0  0  0  0  0  0  0  0  0  0  0
  147.7479  139.6729  151.5112 H   0  0  0  0  0  0  0  0  0  0  0  0
  146.7366  140.0876  152.8767 H   0  0  0  0  0  0  0  0  0  0  0  0
  150.2630  139.1821  153.9533 H   0  0  0  0  0  0  0  0  0  0  0  0
  149.5948  140.3180  152.8122 H   0  0  0  0  0  0  0  0  0  0  0  0
  148.5736  140.0919  155.6860 H   0  0  0  0  0  0  0  0  0  0  0  0
  148.0265  142.3627  154.5806 H   0  0  0  0  0  0  0  0  0  0  0  0
  150.8117  141.6695  154.4724 H   0  0  0  0  0  0  0  0  0  0  0  0
  149.7148  142.5804  155.4838 H   0  0  0  0  0  0  0  0  0  0  0  0
  150.7860  138.9827  156.0435 H   0  0  0  0  0  0  0  0  0  0  0  0
  152.8442  140.5016  160.2789 H   0  0  0  0  0  0  0  0  0  0  0  0
  150.8345  143.8850  157.2084 H   0  0  0  0  0  0  0  0  0  0  0  0
  148.4386  137.7063  155.1894 H   0  0  0  0  0  0  0  0  0  0  0  0
  147.1550  138.8987  155.1156 H   0  0  0  0  0  0  0  0  0  0  0  0
  146.2162  136.6023  155.0574 H   0  0  0  0  0  0  0  0  0  0  0  0
  147.2264  136.1832  153.6953 H   0  0  0  0  0  0  0  0  0  0  0  0
  148.7650  137.9703  152.8618 H   0  0  0  0  0  0  0  0  0  0  0  0
  1  2  1  0  0  0  0
  1 23  1  0  0  0  0
  1 24  1  0  0  0  0
  1 25  1  0  0  0  0
  2 22  1  0  0  0  0
  2  3  1  0  0  0  0
  2 26  1  0  0  0  0
  3  4  1  0  0  0  0
  3 27  1  0  0  0  0
  3 28  1  0  0  0  0
  4  5  1  0  0  0  0
  4 29  1  0  0  0  0
  4 30  1  0  0  0  0
  5  6  1  0  0  0  0
  5 21  1  0  0  0  0
  5 44  1  0  0  0  0
  6  7  1  0  0  0  0
  6 31  1  0  0  0  0
  6 32  1  0  0  0  0
  7  8  1  0  0  0  0
  7  9  1  0  0  0  0
  7 33  1  0  0  0  0
  8 34  1  0  0  0  0
  9 10  1  0  0  0  0
  9 35  1  0  0  0  0
  9 36  1  0  0  0  0
 10 20  1  0  0  0  0
 10 11  1  0  0  0  0
 11 12  2  0  0  0  0
 11 37  1  0  0  0  0
 12 13  1  0  0  0  0
 13 20  2  0  0  0  0
 13 14  1  0  0  0  0
 14 15  2  0  0  0  0
 14 38  1  0  0  0  0
 15 16  1  0  0  0  0
 15 17  1  0  0  0  0
 17 18  1  0  0  0  0
 17 19  2  0  0  0  0
 19 20  1  0  0  0  0
 19 39  1  0  0  0  0
 21 22  1  0  0  0  0
 21 40  1  0  0  0  0
 21 41  1  0  0  0  0
 22 42  1  0  0  0  0
 22 43  1  0  0  0  0
M  CHG  1   5   1
M  END
> <s_m_source_file>
AV-unprocessed.smi

> <i_m_source_file_index>
1702

> <i_lp_mmshare_version>
43012

> <i_f3d_flags>
0

> <s_epik_input>
W0NIM11bQ0hdMVtDSDJdW0NIMl1OKFtDSDJdW0NIMl0xKVtDSDJdW0NASF0oW09IXSlbQ0gyXW4oW2NIXW4yKWMoYzIzKVtjSF1jKEYpYyhGKVtjSF0z

> <s_epik_cmdline>
J2VwaWtfcHl0aG9uJywgJy1waCcsICc3LjAnLCAnLXRuJywgJzgnLCAnLW1hJywgJzIwMCcsICctbWV0YWxfYmluZGluZycsICctaW1hZScsICc8aW5maWxlLm1hZT4nLCAnLW9tYWUnLCAnPG91dGZpbGUubWFlPic=

> <r_epik_Ionization_Penalty>
0.0135195

> <r_epik_Ionization_Penalty_Charging>
0.00181365

> <r_epik_Ionization_Penalty_Neutral>
0.0117059

> <r_epik_State_Penalty>
0.00902283

> <r_epik_Charging_Adjusted_Penalty>
0.0108365

> <i_epik_Tot_Q>
1

> <i_epik_Tot_abs_Q>
1

> <r_epik_Metal_State_Penalty>
9.09181e-06

> <b_epik_Metal_Only>
0

> <s_lp_Force_Field>
OPLS_2005

> <r_lp_Energy>
21.6828

> <b_lp_Chiralities_Consistent>
1

> <s_lp_Variant>
AV-unprocessed.smi:1702-1

> <Gold.Version>
5.8.1

> <Gold.Id.Protein>
6NUR|6NUR_protein|mol2

> <Gold.PLP.Fitness>
46.5506

> <Gold.PLP.PLP>
-42.4976

> <Gold.PLP.part.hbond>
-2.0000

> <Gold.PLP.part.metal>
0.0000

> <Gold.PLP.part.buried>
1.8372

> <Gold.PLP.part.nonpolar>
-42.4042

> <Gold.PLP.part.repulsive>
0.0447

> <Gold.PLP.ligand.clash>
0.0000

> <Gold.PLP.ligand.torsion>
1.0116

> <Gold.PLP.Chemscore.Hbond>
2.0000

> <Gold.PLP.Chemscore.CHOScore>
0.0000

> <Gold.PLP.Chemscore.Metal>
0.0000

> <Gold.Chemscore.Hbonds>
donor molecule, donor type, donor heavy atom, donor atom, acceptor molecule, acceptor atom, score
      L1  H     5    44       P1  7948  2.00

> <Gold.PLP.Chemscore.Internal.Correction>
0.0761

> <Gold.Rescore>
     Score         DG    S(hbond)    S(metal)    S(lipo)     H(rot)  DE(clash)    DE(int)     intcor
     11.29     -15.27       1.00        0.00     104.79       2.26       1.97       2.01       ----

> <Gold.Chemscore.Fitness>
11.2900

> <Gold.Chemscore.DG>
-15.2736

> <Gold.Chemscore.ZeroCoef>
-5.4800

> <Gold.Chemscore.Hbond>
0.9952

> <Gold.Chemscore.Metal>
0.0000

> <Gold.Chemscore.Lipo>
104.7876

> <Gold.Chemscore.Internal_Hbond>
0.0000

> <Gold.Chemscore.DEClash>
1.9736

> <Gold.Chemscore.DEInternal>
2.0100

> <Gold.Chemscore.Rot>
2.2619

> <Gold.Chemscore.Internal.Correction>
   9.000000E+99

> <Gold.Chemscore.Hbonds>
donor molecule, donor type, donor heavy atom, donor atom, acceptor molecule, acceptor atom, score
      L1  H     5    44       P1  7948  0.96

> <Gold.Chemscore.Hbond.Weighted>
-3.3239

> <Gold.Chemscore.Metal.Weighted>
-0.0000

> <Gold.Chemscore.Lipo.Weighted>
-12.2601

> <Gold.Chemscore.Internal_Hbond.Weighted>
0.0000

> <Gold.Chemscore.DEClash.Weighted>
1.9736

> <Gold.Chemscore.DEInternal.Weighted>
2.0100

> <Gold.Chemscore.Rot.Weighted>
5.7904

> <Gold.Chemscore.Internal.Correction.Weighted>
   9.000000E+99

> <Gold.Protein.RotatedTorsions>
[ 6907 6896 6895 6894 ] final   30.23 input  -60.11 | X-H torsion
[ 7974 7965 7964 7962 ] final  174.64 input  175.53 | X-H torsion
[ 8008 7997 7996 7995 ] final  -31.47 input   59.86 | X-H torsion
[ 10167 10162 10161 10158 ] final  105.34 input  -65.29 | X-H torsion
[ 10718 10713 10712 10709 ] final -158.97 input   66.30 | X-H torsion
[ 10763 10752 10751 10750 ] final  -52.33 input  -60.55 | X-H torsion
[ 11005 11000 10999 10996 ] final   75.12 input  -57.11 | X-H torsion

> <Gold.Protein.ActiveResidues>
 VAL166  LYS551  ARG553  GLY616  TRP617  ASP618  TYR619  PRO620  LYS621  CYS622 
 ASP623  PHE694  ASN695  SER759  ASP760  ASP761  ALA762  ILE779  LEU786  VAL792 
 PHE793  MET794  SER795  GLU796  ALA797  LYS798  CYS799  TRP800  GLU811  SER814 

> <Gold.Protein.RotatedAtoms>
  152.0430  134.9700  160.0573 H   0  0  0  0  0  0  0  0  0  0  0  0  # atno 6907 bound_to 6896
  152.1131  133.4306  159.4648 H   0  0  0  0  0  0  0  0  0  0  0  0  # atno 6908 bound_to 6896
  150.6844  134.2544  159.4567 H   0  0  0  0  0  0  0  0  0  0  0  0  # atno 6909 bound_to 6896
  144.7217  139.9827  143.6439 H   0  0  0  0  0  0  0  0  0  0  0  0  # atno 7974 bound_to 7965
  154.4213  140.1763  156.1572 H   0  0  0  0  0  0  0  0  0  0  0  0  # atno 8008 bound_to 7997
  155.9867  140.3372  155.6690 H   0  0  0  0  0  0  0  0  0  0  0  0  # atno 8009 bound_to 7997
  155.6427  140.0682  157.2604 H   0  0  0  0  0  0  0  0  0  0  0  0  # atno 8010 bound_to 7997
  139.7101  144.7079  151.1041 H   0  0  0  0  0  0  0  0  0  0  0  0  # atno 10167 bound_to 10162
  156.5616  130.8649  151.2811 H   0  0  0  0  0  0  0  0  0  0  0  0  # atno 10718 bound_to 10713
  154.1410  135.6505  153.4942 H   0  0  0  0  0  0  0  0  0  0  0  0  # atno 10763 bound_to 10752
  153.0166  135.5315  154.6905 H   0  0  0  0  0  0  0  0  0  0  0  0  # atno 10764 bound_to 10752
  154.6166  135.2960  155.0344 H   0  0  0  0  0  0  0  0  0  0  0  0  # atno 10765 bound_to 10752
  139.9359  134.7490  156.1231 H   0  0  0  0  0  0  0  0  0  0  0  0  # atno 11005 bound_to 11000
  146.0474  139.3479  143.0660 LP  0  0  0  0  0  0  0  0  0  0  0  0  # atno 17320 bound_to 7965
  145.8258  140.9656  143.0875 LP  0  0  0  0  0  0  0  0  0  0  0  0  # atno 17321 bound_to 7965
  140.7731  143.5305  150.9429 LP  0  0  0  0  0  0  0  0  0  0  0  0  # atno 17342 bound_to 10162
  139.8989  143.6860  152.3134 LP  0  0  0  0  0  0  0  0  0  0  0  0  # atno 17343 bound_to 10162
  157.7367  130.9783  150.2152 LP  0  0  0  0  0  0  0  0  0  0  0  0  # atno 17370 bound_to 10713
  156.2794  130.3731  149.7951 LP  0  0  0  0  0  0  0  0  0  0  0  0  # atno 17371 bound_to 10713
  141.0972  133.6691  156.2671 LP  0  0  0  0  0  0  0  0  0  0  0  0  # atno 17394 bound_to 11000
  140.6078  134.5489  157.5528 LP  0  0  0  0  0  0  0  0  0  0  0  0  # atno 17395 bound_to 11000

$$$$
