AV-unprocessed.smi:944|AV-procd|sdf|4232|dock10
  -GOLD-   22720 2143D 1   1.00000     0.00000
 Structure written by MMmdl.
 28 28  0  0  0  0  0  0  0  0  1 V2000
  155.0808  140.1545  161.5748 C   0  0  0  0  0  0  0  0  0  0  0  0
  154.1125  141.0941  161.0310 N   0  0  0  0  0  0  0  0  0  0  0  0
  153.5476  140.9796  159.8207 C   0  0  0  0  0  0  0  0  0  0  0  0
  153.8058  140.0599  159.0423 O   0  0  0  0  0  0  0  0  0  0  0  0
  152.5533  142.0851  159.4278 C   0  0  1  0  0  0  0  0  0  0  0  0
  153.3078  143.4250  159.4284 C   0  0  0  0  0  0  0  0  0  0  0  0
  152.0364  141.8595  158.0786 N   0  0  0  0  0  0  0  0  0  0  0  0
  151.3010  140.8037  157.6957 C   0  0  0  0  0  0  0  0  0  0  0  0
  150.9584  139.9069  158.4676 O   0  0  0  0  0  0  0  0  0  0  0  0
  150.8967  140.7702  156.2174 C   0  0  0  0  0  0  0  0  0  0  0  0
  151.2204  139.5047  155.5803 N   0  0  0  0  0  0  0  0  0  0  0  0
  151.8810  138.4420  156.0448 C   0  0  0  0  0  0  0  0  0  0  0  0
  151.9902  137.4537  155.1678 N   0  0  0  0  0  0  0  0  0  0  0  0
  151.3296  138.0133  154.1106 C   0  0  0  0  0  0  0  0  0  0  0  0
  150.8522  139.2429  154.3038 N   0  0  0  0  0  0  0  0  0  0  0  0
  155.3788  140.4654  162.5760 H   0  0  0  0  0  0  0  0  0  0  0  0
  155.9744  140.1126  160.9506 H   0  0  0  0  0  0  0  0  0  0  0  0
  154.6544  139.1524  161.6415 H   0  0  0  0  0  0  0  0  0  0  0  0
  153.8518  141.8783  161.6115 H   0  0  0  0  0  0  0  0  0  0  0  0
  151.7300  142.1268  160.1440 H   0  0  0  0  0  0  0  0  0  0  0  0
  153.7223  143.6471  160.4128 H   0  0  0  0  0  0  0  0  0  0  0  0
  152.6397  144.2460  159.1669 H   0  0  0  0  0  0  0  0  0  0  0  0
  154.1310  143.4291  158.7119 H   0  0  0  0  0  0  0  0  0  0  0  0
  152.2772  142.5476  157.3803 H   0  0  0  0  0  0  0  0  0  0  0  0
  149.8250  140.9563  156.1328 H   0  0  0  0  0  0  0  0  0  0  0  0
  151.4072  141.5662  155.6732 H   0  0  0  0  0  0  0  0  0  0  0  0
  152.2877  138.3901  157.0443 H   0  0  0  0  0  0  0  0  0  0  0  0
  151.1996  137.5002  153.1690 H   0  0  0  0  0  0  0  0  0  0  0  0
  1  2  1  0  0  0  0
  1 16  1  0  0  0  0
  1 17  1  0  0  0  0
  1 18  1  0  0  0  0
  2  3  1  0  0  0  0
  2 19  1  0  0  0  0
  3  4  2  0  0  0  0
  3  5  1  0  0  0  0
  5  6  1  0  0  0  0
  5  7  1  0  0  0  0
  5 20  1  0  0  0  0
  6 21  1  0  0  0  0
  6 22  1  0  0  0  0
  6 23  1  0  0  0  0
  7  8  1  0  0  0  0
  7 24  1  0  0  0  0
  8  9  2  0  0  0  0
  8 10  1  0  0  0  0
 10 11  1  0  0  0  0
 10 25  1  0  0  0  0
 10 26  1  0  0  0  0
 11 15  1  0  0  0  0
 11 12  1  0  0  0  0
 12 13  2  0  0  0  0
 12 27  1  0  0  0  0
 13 14  1  0  0  0  0
 14 15  2  0  0  0  0
 14 28  1  0  0  0  0
M  END
> <s_m_source_file>
AV-unprocessed.smi

> <i_m_source_file_index>
944

> <i_lp_mmshare_version>
43012

> <i_f3d_flags>
0

> <s_epik_input>
W0NIM11bTkhdQyg9TylbQ0BIXShbQ0gzXSlbTkhdQyg9TylbQ0gyXW4xW2NIXW5bY0hdbjE=

> <s_epik_cmdline>
J2VwaWtfcHl0aG9uJywgJy1waCcsICc3LjAnLCAnLXRuJywgJzgnLCAnLW1hJywgJzIwMCcsICctbWV0YWxfYmluZGluZycsICctaW1hZScsICc8aW5maWxlLm1hZT4nLCAnLW9tYWUnLCAnPG91dGZpbGUubWFlPic=

> <r_lp_tautomer_probability>
1

> <r_epik_Ionization_Penalty>
7.54354e-06

> <r_epik_Ionization_Penalty_Charging>
0

> <r_epik_Ionization_Penalty_Neutral>
7.54354e-06

> <r_epik_State_Penalty>
-0

> <r_epik_Charging_Adjusted_Penalty>
0

> <i_epik_Tot_Q>
0

> <i_epik_Tot_abs_Q>
0

> <r_epik_Metal_State_Penalty>
-0

> <b_epik_Metal_Only>
0

> <s_lp_Force_Field>
OPLS_2005

> <r_lp_Energy>
4.79019

> <b_lp_Chiralities_Consistent>
1

> <s_lp_Variant>
AV-unprocessed.smi:944-2

> <Gold.Version>
5.8.1

> <Gold.Id.Protein>
6NUR|6NUR_protein|mol2

> <Gold.PLP.Fitness>
37.7270

> <Gold.PLP.PLP>
-27.3708

> <Gold.PLP.part.hbond>
-3.0000

> <Gold.PLP.part.metal>
0.0000

> <Gold.PLP.part.buried>
-2.8675

> <Gold.PLP.part.nonpolar>
-20.8695

> <Gold.PLP.part.repulsive>
0.2986

> <Gold.PLP.ligand.clash>
0.0000

> <Gold.PLP.ligand.torsion>
0.1086

> <Gold.PLP.Chemscore.Hbond>
2.5200

> <Gold.PLP.Chemscore.CHOScore>
1.0000

> <Gold.PLP.Chemscore.Metal>
0.0000

> <Gold.Chemscore.Hbonds>
donor molecule, donor type, donor heavy atom, donor atom, acceptor molecule, acceptor atom, score
      P1  H  7989  7998       L1    15  0.85
      P1  H  7997  8008       L1     4  0.86
      P1  H 10752 10765       L1    13  0.48
      L1  C    14    28       P1  7949  1.00

> <Gold.PLP.Chemscore.Internal.Correction>
0.0134

> <Gold.Rescore>
     Score         DG    S(hbond)    S(metal)    S(lipo)     H(rot)  DE(clash)    DE(int)     intcor
      8.40      -9.61       2.18        0.00      33.14       2.74       0.01       1.19       ----

> <Gold.Chemscore.Fitness>
8.4017

> <Gold.Chemscore.DG>
-9.6079

> <Gold.Chemscore.ZeroCoef>
-5.4800

> <Gold.Chemscore.Hbond>
2.1770

> <Gold.Chemscore.Metal>
0.0000

> <Gold.Chemscore.Lipo>
33.1428

> <Gold.Chemscore.Internal_Hbond>
0.0000

> <Gold.Chemscore.DEClash>
0.0147

> <Gold.Chemscore.DEInternal>
1.1915

> <Gold.Chemscore.Rot>
2.7426

> <Gold.Chemscore.Internal.Correction>
   9.000000E+99

> <Gold.Chemscore.Hbonds>
donor molecule, donor type, donor heavy atom, donor atom, acceptor molecule, acceptor atom, score
      P1  H  7989  7998       L1    15  0.14
      P1  H  7997  8008       L1     4  0.80
      P1  H 10752 10765       L1    13  0.24

> <Gold.Chemscore.Hbond.Weighted>
-7.2712

> <Gold.Chemscore.Metal.Weighted>
-0.0000

> <Gold.Chemscore.Lipo.Weighted>
-3.8777

> <Gold.Chemscore.Internal_Hbond.Weighted>
0.0000

> <Gold.Chemscore.DEClash.Weighted>
0.0147

> <Gold.Chemscore.DEInternal.Weighted>
1.1915

> <Gold.Chemscore.Rot.Weighted>
7.0210

> <Gold.Chemscore.Internal.Correction.Weighted>
   9.000000E+99

> <Gold.Protein.RotatedTorsions>
[ 6907 6896 6895 6894 ] final   47.36 input  -60.11 | X-H torsion
[ 7974 7965 7964 7962 ] final  135.20 input  175.53 | X-H torsion
[ 8008 7997 7996 7995 ] final -106.16 input   59.86 | X-H torsion
[ 10167 10162 10161 10158 ] final   86.71 input  -65.29 | X-H torsion
[ 10718 10713 10712 10709 ] final  144.79 input   66.30 | X-H torsion
[ 10763 10752 10751 10750 ] final  164.87 input  -60.55 | X-H torsion
[ 11005 11000 10999 10996 ] final   91.54 input  -57.11 | X-H torsion

> <Gold.Protein.ActiveResidues>
 VAL166  LYS551  ARG553  GLY616  TRP617  ASP618  TYR619  PRO620  LYS621  CYS622 
 ASP623  PHE694  ASN695  SER759  ASP760  ASP761  ALA762  ILE779  LEU786  VAL792 
 PHE793  MET794  SER795  GLU796  ALA797  LYS798  CYS799  TRP800  GLU811  SER814 

> <Gold.Protein.RotatedAtoms>
  152.2672  134.7972  160.0420 H   0  0  0  0  0  0  0  0  0  0  0  0  # atno 6907 bound_to 6896
  151.8597  133.3450  159.3708 H   0  0  0  0  0  0  0  0  0  0  0  0  # atno 6908 bound_to 6896
  150.7138  134.5146  159.5668 H   0  0  0  0  0  0  0  0  0  0  0  0  # atno 6909 bound_to 6896
  144.9687  139.4630  143.5444 H   0  0  0  0  0  0  0  0  0  0  0  0  # atno 7974 bound_to 7965
  154.9104  140.0410  157.1943 H   0  0  0  0  0  0  0  0  0  0  0  0  # atno 8008 bound_to 7997
  154.8354  140.2906  155.5673 H   0  0  0  0  0  0  0  0  0  0  0  0  # atno 8009 bound_to 7997
  156.2989  140.2493  156.3286 H   0  0  0  0  0  0  0  0  0  0  0  0  # atno 8010 bound_to 7997
  139.8848  144.6419  150.8803 H   0  0  0  0  0  0  0  0  0  0  0  0  # atno 10167 bound_to 10162
  157.3530  131.0953  151.0983 H   0  0  0  0  0  0  0  0  0  0  0  0  # atno 10718 bound_to 10713
  154.3155  135.2756  155.2545 H   0  0  0  0  0  0  0  0  0  0  0  0  # atno 10763 bound_to 10752
  154.4921  135.5830  153.6471 H   0  0  0  0  0  0  0  0  0  0  0  0  # atno 10764 bound_to 10752
  152.9883  135.6137  154.3335 H   0  0  0  0  0  0  0  0  0  0  0  0  # atno 10765 bound_to 10752
  139.8837  134.8680  156.3443 H   0  0  0  0  0  0  0  0  0  0  0  0  # atno 11005 bound_to 11000
  146.3375  139.8884  142.8813 LP  0  0  0  0  0  0  0  0  0  0  0  0  # atno 17320 bound_to 7965
  145.2592  141.0071  143.3836 LP  0  0  0  0  0  0  0  0  0  0  0  0  # atno 17321 bound_to 7965
  140.7738  143.3557  151.1927 LP  0  0  0  0  0  0  0  0  0  0  0  0  # atno 17342 bound_to 10162
  139.7163  143.9295  152.2968 LP  0  0  0  0  0  0  0  0  0  0  0  0  # atno 17343 bound_to 10162
  157.2152  130.6456  149.5789 LP  0  0  0  0  0  0  0  0  0  0  0  0  # atno 17370 bound_to 10713
  155.9724  130.4647  150.6227 LP  0  0  0  0  0  0  0  0  0  0  0  0  # atno 17371 bound_to 10713
  140.9638  133.7371  156.0438 LP  0  0  0  0  0  0  0  0  0  0  0  0  # atno 17394 bound_to 11000
  140.7957  134.3567  157.5453 LP  0  0  0  0  0  0  0  0  0  0  0  0  # atno 17395 bound_to 11000

$$$$
