AV-unprocessed.smi:2228|AV-procd|sdf|9023|dock3
  -GOLD-   2272012223D 1   1.00000     0.00000
 Structure written by MMmdl.
 40 41  0  0  0  0  0  0  0  0  1 V2000
  150.6771  137.8755  154.3446 C   0  0  0  0  0  0  0  0  0  0  0  0
  150.3374  139.1099  153.7333 O   0  0  0  0  0  0  0  0  0  0  0  0
  149.2538  139.7815  154.3614 C   0  0  2  0  0  0  0  0  0  0  0  0
  147.9405  139.1104  153.9463 C   0  0  0  0  0  0  0  0  0  0  0  0
  146.9053  140.2281  154.0001 C   0  0  0  0  0  0  0  0  0  0  0  0
  147.6615  141.4463  153.4736 C   0  0  0  0  0  0  0  0  0  0  0  0
  149.1204  141.2618  153.9288 C   0  0  1  0  0  0  0  0  0  0  0  0
  149.4104  142.1560  155.0489 N   0  0  0  0  0  0  0  0  0  0  0  0
  150.3481  141.9609  155.9872 C   0  0  0  0  0  0  0  0  0  0  0  0
  151.0962  140.9833  156.0115 O   0  0  0  0  0  0  0  0  0  0  0  0
  150.3528  142.9653  156.8814 N   0  0  0  0  0  0  0  0  0  0  0  0
  151.1790  143.1178  158.0267 C   0  0  0  0  0  0  0  0  0  0  0  0
  151.2262  144.4247  158.5622 C   0  0  0  0  0  0  0  0  0  0  0  0
  152.0141  144.6805  159.7026 C   0  0  0  0  0  0  0  0  0  0  0  0
  152.0747  146.0725  160.2957 C   0  0  0  0  0  0  0  0  0  0  0  0
  152.7365  143.6176  160.2777 C   0  0  0  0  0  0  0  0  0  0  0  0
  152.6358  142.3457  159.6809 C   0  0  0  0  0  0  0  0  0  0  0  0
  153.3826  141.1572  160.2490 C   0  0  0  0  0  0  0  0  0  0  0  0
  151.8802  142.1020  158.5889 N   0  0  0  0  0  0  0  0  0  0  0  0
  151.4817  137.4011  153.7832 H   0  0  0  0  0  0  0  0  0  0  0  0
  149.8281  137.1910  154.3555 H   0  0  0  0  0  0  0  0  0  0  0  0
  151.0256  138.0158  155.3675 H   0  0  0  0  0  0  0  0  0  0  0  0
  149.3418  139.7005  155.4470 H   0  0  0  0  0  0  0  0  0  0  0  0
  148.0169  138.7439  152.9213 H   0  0  0  0  0  0  0  0  0  0  0  0
  147.6823  138.2631  154.5820 H   0  0  0  0  0  0  0  0  0  0  0  0
  146.0117  140.0033  153.4172 H   0  0  0  0  0  0  0  0  0  0  0  0
  146.5992  140.3995  155.0328 H   0  0  0  0  0  0  0  0  0  0  0  0
  147.6238  141.4455  152.3834 H   0  0  0  0  0  0  0  0  0  0  0  0
  147.2168  142.3850  153.8072 H   0  0  0  0  0  0  0  0  0  0  0  0
  149.7735  141.4683  153.0791 H   0  0  0  0  0  0  0  0  0  0  0  0
  148.8460  142.9904  155.1132 H   0  0  0  0  0  0  0  0  0  0  0  0
  149.6815  143.7035  156.7301 H   0  0  0  0  0  0  0  0  0  0  0  0
  150.6624  145.2257  158.1056 H   0  0  0  0  0  0  0  0  0  0  0  0
  152.7859  146.1221  161.1208 H   0  0  0  0  0  0  0  0  0  0  0  0
  151.0941  146.3643  160.6721 H   0  0  0  0  0  0  0  0  0  0  0  0
  152.3818  146.7941  159.5381 H   0  0  0  0  0  0  0  0  0  0  0  0
  153.3504  143.7722  161.1533 H   0  0  0  0  0  0  0  0  0  0  0  0
  154.0510  141.4585  161.0559 H   0  0  0  0  0  0  0  0  0  0  0  0
  153.9811  140.6776  159.4740 H   0  0  0  0  0  0  0  0  0  0  0  0
  152.6794  140.4238  160.6444 H   0  0  0  0  0  0  0  0  0  0  0  0
  1  2  1  0  0  0  0
  1 20  1  0  0  0  0
  1 21  1  0  0  0  0
  1 22  1  0  0  0  0
  2  3  1  0  0  0  0
  3  7  1  0  0  0  0
  3  4  1  0  0  0  0
  3 23  1  0  0  0  0
  4  5  1  0  0  0  0
  4 24  1  0  0  0  0
  4 25  1  0  0  0  0
  5  6  1  0  0  0  0
  5 26  1  0  0  0  0
  5 27  1  0  0  0  0
  6  7  1  0  0  0  0
  6 28  1  0  0  0  0
  6 29  1  0  0  0  0
  7  8  1  0  0  0  0
  7 30  1  0  0  0  0
  8  9  1  0  0  0  0
  8 31  1  0  0  0  0
  9 10  2  0  0  0  0
  9 11  1  0  0  0  0
 11 12  1  0  0  0  0
 11 32  1  0  0  0  0
 12 19  1  0  0  0  0
 12 13  2  0  0  0  0
 13 14  1  0  0  0  0
 13 33  1  0  0  0  0
 14 15  1  0  0  0  0
 14 16  2  0  0  0  0
 15 34  1  0  0  0  0
 15 35  1  0  0  0  0
 15 36  1  0  0  0  0
 16 17  1  0  0  0  0
 16 37  1  0  0  0  0
 17 18  1  0  0  0  0
 17 19  2  0  0  0  0
 18 38  1  0  0  0  0
 18 39  1  0  0  0  0
 18 40  1  0  0  0  0
M  END
> <s_m_source_file>
AV-unprocessed.smi

> <i_m_source_file_index>
2228

> <i_lp_mmshare_version>
43012

> <i_f3d_flags>
0

> <s_epik_input>
W0NIM11PW0NAQEhdMVtDSDJdW0NIMl1bQ0gyXVtDQEhdMVtOSF1DKD1PKVtOSF1jMltjSF1jKFtDSDNdKVtjSF1jKG4yKVtDSDNd

> <s_epik_cmdline>
J2VwaWtfcHl0aG9uJywgJy1waCcsICc3LjAnLCAnLXRuJywgJzgnLCAnLW1hJywgJzIwMCcsICctbWV0YWxfYmluZGluZycsICctaW1hZScsICc8aW5maWxlLm1hZT4nLCAnLW9tYWUnLCAnPG91dGZpbGUubWFlPic=

> <r_lp_tautomer_probability>
1

> <r_epik_Ionization_Penalty>
0.000275391

> <r_epik_Ionization_Penalty_Charging>
0

> <r_epik_Ionization_Penalty_Neutral>
0.000275391

> <r_epik_State_Penalty>
-0

> <r_epik_Charging_Adjusted_Penalty>
0

> <i_epik_Tot_Q>
0

> <i_epik_Tot_abs_Q>
0

> <r_epik_Metal_State_Penalty>
-0

> <b_epik_Metal_Only>
0

> <s_lp_Force_Field>
OPLS_2005

> <r_lp_Energy>
20.5825

> <b_lp_Chiralities_Consistent>
1

> <s_lp_Variant>
AV-unprocessed.smi:2228-1

> <Gold.Version>
5.8.1

> <Gold.Id.Protein>
6NUR|6NUR_protein|mol2

> <Gold.PLP.Fitness>
47.5048

> <Gold.PLP.PLP>
-41.5233

> <Gold.PLP.part.hbond>
-2.9685

> <Gold.PLP.part.metal>
0.0000

> <Gold.PLP.part.buried>
-1.1097

> <Gold.PLP.part.nonpolar>
-38.0471

> <Gold.PLP.part.repulsive>
1.2903

> <Gold.PLP.ligand.clash>
0.0067

> <Gold.PLP.ligand.torsion>
0.5248

> <Gold.PLP.Chemscore.Hbond>
2.3430

> <Gold.PLP.Chemscore.CHOScore>
0.0000

> <Gold.PLP.Chemscore.Metal>
0.0000

> <Gold.Chemscore.Hbonds>
donor molecule, donor type, donor heavy atom, donor atom, acceptor molecule, acceptor atom, score
      L1  H     8    31       P1  8028  0.88
      L1  H    11    32       P1  8028  0.99
      P1  H  7989  7998       L1     2  0.52

> <Gold.PLP.Chemscore.Internal.Correction>
0.0088

> <Gold.Rescore>
     Score         DG    S(hbond)    S(metal)    S(lipo)     H(rot)  DE(clash)    DE(int)     intcor
     17.01     -19.84       1.42        0.00     108.73       1.21       0.30       2.52       ----

> <Gold.Chemscore.Fitness>
17.0105

> <Gold.Chemscore.DG>
-19.8359

> <Gold.Chemscore.ZeroCoef>
-5.4800

> <Gold.Chemscore.Hbond>
1.4185

> <Gold.Chemscore.Metal>
0.0000

> <Gold.Chemscore.Lipo>
108.7253

> <Gold.Chemscore.Internal_Hbond>
0.0000

> <Gold.Chemscore.DEClash>
0.3044

> <Gold.Chemscore.DEInternal>
2.5211

> <Gold.Chemscore.Rot>
1.2119

> <Gold.Chemscore.Internal.Correction>
   9.000000E+99

> <Gold.Chemscore.Hbonds>
donor molecule, donor type, donor heavy atom, donor atom, acceptor molecule, acceptor atom, score
      L1  H     8    31       P1  8028  0.87
      L1  H    11    32       P1  8028  0.94
      P1  H  7989  7998       L1     2  0.08

> <Gold.Chemscore.Hbond.Weighted>
-4.7377

> <Gold.Chemscore.Metal.Weighted>
-0.0000

> <Gold.Chemscore.Lipo.Weighted>
-12.7209

> <Gold.Chemscore.Internal_Hbond.Weighted>
0.0000

> <Gold.Chemscore.DEClash.Weighted>
0.3044

> <Gold.Chemscore.DEInternal.Weighted>
2.5211

> <Gold.Chemscore.Rot.Weighted>
3.1026

> <Gold.Chemscore.Internal.Correction.Weighted>
   9.000000E+99

> <Gold.Protein.RotatedTorsions>
[ 6907 6896 6895 6894 ] final  149.06 input  -60.11 | X-H torsion
[ 7974 7965 7964 7962 ] final  -80.45 input  175.53 | X-H torsion
[ 8008 7997 7996 7995 ] final -122.07 input   59.86 | X-H torsion
[ 10167 10162 10161 10158 ] final -114.05 input  -65.29 | X-H torsion
[ 10718 10713 10712 10709 ] final  145.65 input   66.30 | X-H torsion
[ 10763 10752 10751 10750 ] final   31.36 input  -60.55 | X-H torsion
[ 11005 11000 10999 10996 ] final  167.98 input  -57.11 | X-H torsion

> <Gold.Protein.ActiveResidues>
 VAL166  LYS551  ARG553  GLY616  TRP617  ASP618  TYR619  PRO620  LYS621  CYS622 
 ASP623  PHE694  ASN695  SER759  ASP760  ASP761  ALA762  ILE779  LEU786  VAL792 
 PHE793  MET794  SER795  GLU796  ALA797  LYS798  CYS799  TRP800  GLU811  SER814 

> <Gold.Protein.RotatedAtoms>
  152.1331  133.4419  159.4730 H   0  0  0  0  0  0  0  0  0  0  0  0  # atno 6907 bound_to 6896
  150.6880  134.2397  159.4476 H   0  0  0  0  0  0  0  0  0  0  0  0  # atno 6908 bound_to 6896
  152.0282  134.9783  160.0622 H   0  0  0  0  0  0  0  0  0  0  0  0  # atno 6909 bound_to 6896
  145.5598  140.9484  143.1454 H   0  0  0  0  0  0  0  0  0  0  0  0  # atno 7974 bound_to 7965
  155.1583  140.0405  157.2837 H   0  0  0  0  0  0  0  0  0  0  0  0  # atno 8008 bound_to 7997
  154.6354  140.2534  155.7357 H   0  0  0  0  0  0  0  0  0  0  0  0  # atno 8009 bound_to 7997
  156.2506  140.2866  156.0725 H   0  0  0  0  0  0  0  0  0  0  0  0  # atno 8010 bound_to 7997
  140.1051  143.4577  152.1788 H   0  0  0  0  0  0  0  0  0  0  0  0  # atno 10167 bound_to 10162
  157.3427  131.0938  151.1069 H   0  0  0  0  0  0  0  0  0  0  0  0  # atno 10718 bound_to 10713
  153.0320  135.6441  154.1187 H   0  0  0  0  0  0  0  0  0  0  0  0  # atno 10763 bound_to 10752
  154.0907  135.2866  155.3273 H   0  0  0  0  0  0  0  0  0  0  0  0  # atno 10764 bound_to 10752
  154.6466  135.5441  153.7916 H   0  0  0  0  0  0  0  0  0  0  0  0  # atno 10765 bound_to 10752
  140.2825  134.7739  157.3770 H   0  0  0  0  0  0  0  0  0  0  0  0  # atno 11005 bound_to 11000
  144.7489  139.7247  143.7281 LP  0  0  0  0  0  0  0  0  0  0  0  0  # atno 17320 bound_to 7965
  146.1859  139.5074  142.9836 LP  0  0  0  0  0  0  0  0  0  0  0  0  # atno 17321 bound_to 7965
  139.5650  144.7429  151.4049 LP  0  0  0  0  0  0  0  0  0  0  0  0  # atno 17342 bound_to 10162
  140.6956  143.7756  150.7322 LP  0  0  0  0  0  0  0  0  0  0  0  0  # atno 17343 bound_to 10162
  157.2275  130.6509  149.5836 LP  0  0  0  0  0  0  0  0  0  0  0  0  # atno 17370 bound_to 10713
  155.9710  130.4609  150.6091 LP  0  0  0  0  0  0  0  0  0  0  0  0  # atno 17371 bound_to 10713
  140.1270  134.5145  155.8136 LP  0  0  0  0  0  0  0  0  0  0  0  0  # atno 17394 bound_to 11000
  141.2160  133.6776  156.6970 LP  0  0  0  0  0  0  0  0  0  0  0  0  # atno 17395 bound_to 11000

$$$$
