AV-unprocessed.smi:1749|AV-procd|sdf|7044|dock1
  -GOLD-   22720 8263D 1   1.00000     0.00000
 Structure written by MMmdl.
 32 33  0  0  0  0  0  0  0  0  1 V2000
  145.3561  143.8295  153.4510 C   0  0  0  0  0  0  0  0  0  0  0  0
  146.3866  142.9600  154.1847 C   0  0  2  0  0  0  0  0  0  0  0  0
  146.7171  141.6839  153.3868 C   0  0  0  0  0  0  0  0  0  0  0  0
  147.7456  140.8080  154.1195 C   0  0  0  0  0  0  0  0  0  0  0  0
  147.2715  140.4568  155.5406 C   0  0  0  0  0  0  0  0  0  0  0  0
  146.9224  141.7123  156.3626 C   0  0  1  0  0  0  0  0  0  0  0  0
  148.1378  142.4593  156.6768 N   0  0  0  0  0  0  0  0  0  0  0  0
  149.0576  142.1239  157.5959 C   0  0  0  0  0  0  0  0  0  0  0  0
  148.9983  141.0849  158.2508 O   0  0  0  0  0  0  0  0  0  0  0  0
  150.0733  142.9972  157.7628 N   0  0  0  0  0  0  0  0  0  0  0  0
  151.2034  142.9677  158.6311 C   0  0  0  0  0  0  0  0  0  0  0  0
  151.4926  141.9551  159.4656 N   0  0  0  0  0  0  0  0  0  0  0  0
  152.6642  142.1800  160.1750 N   0  0  0  0  0  0  0  0  0  0  0  0
  153.2229  143.3460  159.8397 C   0  0  0  0  0  0  0  0  0  0  0  0
  152.3704  144.2828  158.6247 S   0  0  0  0  0  0  0  0  0  0  0  0
  145.9082  142.5978  155.6067 C   0  0  0  0  0  0  0  0  0  0  0  0
  144.4097  143.3028  153.3258 H   0  0  0  0  0  0  0  0  0  0  0  0
  145.7143  144.1112  152.4606 H   0  0  0  0  0  0  0  0  0  0  0  0
  145.1558  144.7488  154.0018 H   0  0  0  0  0  0  0  0  0  0  0  0
  147.3016  143.5479  154.2719 H   0  0  0  0  0  0  0  0  0  0  0  0
  145.8059  141.1084  153.2179 H   0  0  0  0  0  0  0  0  0  0  0  0
  147.1010  141.9494  152.4011 H   0  0  0  0  0  0  0  0  0  0  0  0
  147.9225  139.8936  153.5529 H   0  0  0  0  0  0  0  0  0  0  0  0
  148.7026  141.3290  154.1663 H   0  0  0  0  0  0  0  0  0  0  0  0
  146.3898  139.8184  155.4728 H   0  0  0  0  0  0  0  0  0  0  0  0
  148.0329  139.8681  156.0540 H   0  0  0  0  0  0  0  0  0  0  0  0
  146.4710  141.3838  157.3004 H   0  0  0  0  0  0  0  0  0  0  0  0
  148.2706  143.3289  156.1803 H   0  0  0  0  0  0  0  0  0  0  0  0
  150.0686  143.7717  157.1152 H   0  0  0  0  0  0  0  0  0  0  0  0
  154.1453  143.6553  160.3084 H   0  0  0  0  0  0  0  0  0  0  0  0
  145.7059  143.5058  156.1766 H   0  0  0  0  0  0  0  0  0  0  0  0
  144.9569  142.0680  155.5413 H   0  0  0  0  0  0  0  0  0  0  0  0
  1  2  1  0  0  0  0
  1 17  1  0  0  0  0
  1 18  1  0  0  0  0
  1 19  1  0  0  0  0
  2 16  1  0  0  0  0
  2  3  1  0  0  0  0
  2 20  1  0  0  0  0
  3  4  1  0  0  0  0
  3 21  1  0  0  0  0
  3 22  1  0  0  0  0
  4  5  1  0  0  0  0
  4 23  1  0  0  0  0
  4 24  1  0  0  0  0
  5  6  1  0  0  0  0
  5 25  1  0  0  0  0
  5 26  1  0  0  0  0
  6  7  1  0  0  0  0
  6 16  1  0  0  0  0
  6 27  1  0  0  0  0
  7  8  1  0  0  0  0
  7 28  1  0  0  0  0
  8  9  2  0  0  0  0
  8 10  1  0  0  0  0
 10 11  1  0  0  0  0
 10 29  1  0  0  0  0
 11 15  1  0  0  0  0
 11 12  2  0  0  0  0
 12 13  1  0  0  0  0
 13 14  2  0  0  0  0
 14 15  1  0  0  0  0
 14 30  1  0  0  0  0
 16 31  1  0  0  0  0
 16 32  1  0  0  0  0
M  END
> <s_m_source_file>
AV-unprocessed.smi

> <i_m_source_file_index>
1749

> <i_lp_mmshare_version>
43012

> <i_f3d_flags>
0

> <s_epik_input>
W0NIM11bQ0BASF0xW0NIMl1bQ0gyXVtDSDJdW0NASF0oW0NIMl0xKVtOSF1DKD1PKVtOSF1jMm5uW2NIXXMy

> <s_epik_cmdline>
J2VwaWtfcHl0aG9uJywgJy1waCcsICc3LjAnLCAnLXRuJywgJzgnLCAnLW1hJywgJzIwMCcsICctbWV0YWxfYmluZGluZycsICctaW1hZScsICc8aW5maWxlLm1hZT4nLCAnLW9tYWUnLCAnPG91dGZpbGUubWFlPic=

> <r_lp_tautomer_probability>
1

> <r_epik_Ionization_Penalty>
0.000318591

> <r_epik_Ionization_Penalty_Charging>
0

> <r_epik_Ionization_Penalty_Neutral>
0.000318591

> <r_epik_State_Penalty>
-0

> <r_epik_Charging_Adjusted_Penalty>
0

> <i_epik_Tot_Q>
0

> <i_epik_Tot_abs_Q>
0

> <r_epik_Metal_State_Penalty>
0.169791

> <b_epik_Metal_Only>
0

> <s_lp_Force_Field>
OPLS_2005

> <r_lp_Energy>
10.2552

> <b_lp_Chiralities_Consistent>
1

> <s_lp_Variant>
AV-unprocessed.smi:1749-1

> <Gold.Version>
5.8.1

> <Gold.Id.Protein>
6NUR|6NUR_protein|mol2

> <Gold.PLP.Fitness>
33.6980

> <Gold.PLP.PLP>
-28.7372

> <Gold.PLP.part.hbond>
-2.9399

> <Gold.PLP.part.metal>
0.0000

> <Gold.PLP.part.buried>
-3.9712

> <Gold.PLP.part.nonpolar>
-21.5590

> <Gold.PLP.part.repulsive>
0.0790

> <Gold.PLP.ligand.clash>
0.0000

> <Gold.PLP.ligand.torsion>
0.2189

> <Gold.PLP.Chemscore.Hbond>
1.7977

> <Gold.PLP.Chemscore.CHOScore>
0.0000

> <Gold.PLP.Chemscore.Metal>
0.0000

> <Gold.Chemscore.Hbonds>
donor molecule, donor type, donor heavy atom, donor atom, acceptor molecule, acceptor atom, score
      L1  H     7    28       P1  8028  1.00
      L1  H    10    29       P1  8028  0.74

> <Gold.PLP.Chemscore.Internal.Correction>
0.0056

> <Gold.Rescore>
     Score         DG    S(hbond)    S(metal)    S(lipo)     H(rot)  DE(clash)    DE(int)     intcor
     13.85     -15.37       1.50        0.00      63.51       1.00       0.12       1.40       ----

> <Gold.Chemscore.Fitness>
13.8533

> <Gold.Chemscore.DG>
-15.3727

> <Gold.Chemscore.ZeroCoef>
-5.4800

> <Gold.Chemscore.Hbond>
1.5036

> <Gold.Chemscore.Metal>
0.0000

> <Gold.Chemscore.Lipo>
63.5099

> <Gold.Chemscore.Internal_Hbond>
0.0000

> <Gold.Chemscore.DEClash>
0.1233

> <Gold.Chemscore.DEInternal>
1.3962

> <Gold.Chemscore.Rot>
1.0000

> <Gold.Chemscore.Internal.Correction>
   9.000000E+99

> <Gold.Chemscore.Hbonds>
donor molecule, donor type, donor heavy atom, donor atom, acceptor molecule, acceptor atom, score
      L1  H     7    28       P1  8028  0.59
      L1  H    10    29       P1  8028  0.68

> <Gold.Chemscore.Hbond.Weighted>
-5.0221

> <Gold.Chemscore.Metal.Weighted>
-0.0000

> <Gold.Chemscore.Lipo.Weighted>
-7.4307

> <Gold.Chemscore.Internal_Hbond.Weighted>
0.0000

> <Gold.Chemscore.DEClash.Weighted>
0.1233

> <Gold.Chemscore.DEInternal.Weighted>
1.3962

> <Gold.Chemscore.Rot.Weighted>
2.5600

> <Gold.Chemscore.Internal.Correction.Weighted>
   9.000000E+99

> <Gold.Protein.RotatedTorsions>
[ 6907 6896 6895 6894 ] final   67.64 input  -60.11 | X-H torsion
[ 7974 7965 7964 7962 ] final -142.60 input  175.53 | X-H torsion
[ 8008 7997 7996 7995 ] final  -95.15 input   59.86 | X-H torsion
[ 10167 10162 10161 10158 ] final -159.98 input  -65.29 | X-H torsion
[ 10718 10713 10712 10709 ] final  -87.87 input   66.30 | X-H torsion
[ 10763 10752 10751 10750 ] final  -97.48 input  -60.55 | X-H torsion
[ 11005 11000 10999 10996 ] final   63.24 input  -57.11 | X-H torsion

> <Gold.Protein.ActiveResidues>
 VAL166  LYS551  ARG553  GLY616  TRP617  ASP618  TYR619  PRO620  LYS621  CYS622 
 ASP623  PHE694  ASN695  SER759  ASP760  ASP761  ALA762  ILE779  LEU786  VAL792 
 PHE793  MET794  SER795  GLU796  ALA797  LYS798  CYS799  TRP800  GLU811  SER814 

> <Gold.Protein.RotatedAtoms>
  152.4566  134.5278  159.9801 H   0  0  0  0  0  0  0  0  0  0  0  0  # atno 6907 bound_to 6896
  151.5337  133.3439  159.2930 H   0  0  0  0  0  0  0  0  0  0  0  0  # atno 6908 bound_to 6896
  150.8513  134.7868  159.7073 H   0  0  0  0  0  0  0  0  0  0  0  0  # atno 6909 bound_to 6896
  144.8431  140.5938  143.5439 H   0  0  0  0  0  0  0  0  0  0  0  0  # atno 7974 bound_to 7965
  154.7576  140.0482  157.0947 H   0  0  0  0  0  0  0  0  0  0  0  0  # atno 8008 bound_to 7997
  154.9978  140.3121  155.4860 H   0  0  0  0  0  0  0  0  0  0  0  0  # atno 8009 bound_to 7997
  156.2898  140.2207  156.5086 H   0  0  0  0  0  0  0  0  0  0  0  0  # atno 8010 bound_to 7997
  139.6574  143.9975  152.2202 H   0  0  0  0  0  0  0  0  0  0  0  0  # atno 10167 bound_to 10162
  155.9984  130.4815  150.4933 H   0  0  0  0  0  0  0  0  0  0  0  0  # atno 10718 bound_to 10713
  154.7332  135.5045  153.8998 H   0  0  0  0  0  0  0  0  0  0  0  0  # atno 10763 bound_to 10752
  153.0970  135.6675  153.9753 H   0  0  0  0  0  0  0  0  0  0  0  0  # atno 10764 bound_to 10752
  153.9550  135.3054  155.3416 H   0  0  0  0  0  0  0  0  0  0  0  0  # atno 10765 bound_to 10752
  140.0037  134.6402  155.9889 H   0  0  0  0  0  0  0  0  0  0  0  0  # atno 11005 bound_to 11000
  145.4652  139.1509  143.3844 LP  0  0  0  0  0  0  0  0  0  0  0  0  # atno 17320 bound_to 7965
  146.2720  140.4783  142.8810 LP  0  0  0  0  0  0  0  0  0  0  0  0  # atno 17321 bound_to 7965
  139.9705  144.6497  150.7994 LP  0  0  0  0  0  0  0  0  0  0  0  0  # atno 17342 bound_to 10162
  140.7565  143.3067  151.2945 LP  0  0  0  0  0  0  0  0  0  0  0  0  # atno 17343 bound_to 10162
  157.2925  131.0629  151.2124 LP  0  0  0  0  0  0  0  0  0  0  0  0  # atno 17370 bound_to 10713
  157.3131  130.6900  149.6227 LP  0  0  0  0  0  0  0  0  0  0  0  0  # atno 17371 bound_to 10713
  141.1661  133.6537  156.4486 LP  0  0  0  0  0  0  0  0  0  0  0  0  # atno 17394 bound_to 11000
  140.4680  134.6780  157.5116 LP  0  0  0  0  0  0  0  0  0  0  0  0  # atno 17395 bound_to 11000

$$$$
