AV-unprocessed.smi:1459|AV-procd|sdf|5925|dock3
  -GOLD-   22720 6 03D 1   1.00000     0.00000
 Structure written by MMmdl.
 34 35  0  0  0  0  0  0  0  0  1 V2000
  152.9320  139.7251  155.3462 C   0  0  0  0  0  0  0  0  0  0  0  0
  152.4283  138.3616  155.0189 C   0  0  0  0  0  0  0  0  0  0  0  0
  151.2938  137.9117  154.4041 C   0  0  0  0  0  0  0  0  0  0  0  0
  151.4576  136.5013  154.4240 C   0  0  0  0  0  0  0  0  0  0  0  0
  150.4700  135.6469  153.8713 N   0  0  0  0  0  0  0  0  0  0  0  0
  150.2060  134.3735  154.2097 C   0  0  0  0  0  0  0  0  0  0  0  0
  150.8059  133.7312  155.0722 O   0  0  0  0  0  0  0  0  0  0  0  0
  149.1972  133.8772  153.4781 N   0  0  0  0  0  0  0  0  0  0  0  0
  148.6719  132.5165  153.5659 C   0  0  1  0  0  0  0  0  0  0  0  0
  148.0662  132.3152  154.9635 C   0  0  0  0  0  0  0  0  0  0  0  0
  147.6446  132.2794  152.4393 C   0  0  2  0  0  0  0  0  0  0  0  0
  146.4627  133.2511  152.4428 C   0  0  0  0  0  0  0  0  0  0  0  0
  145.3990  132.4481  151.7314 C   0  0  0  0  0  0  0  0  0  0  0  0
  145.6522  131.0493  152.2821 C   0  0  0  0  0  0  0  0  0  0  0  0
  147.0480  130.9882  152.5613 O   0  0  0  0  0  0  0  0  0  0  0  0
  152.5892  136.1240  154.9992 N   0  0  0  0  0  0  0  0  0  0  0  0
  153.2172  137.3146  155.3833 O   0  0  0  0  0  0  0  0  0  0  0  0
  152.2208  140.4889  155.0315 H   0  0  0  0  0  0  0  0  0  0  0  0
  153.8804  139.9175  154.8442 H   0  0  0  0  0  0  0  0  0  0  0  0
  153.0892  139.8311  156.4197 H   0  0  0  0  0  0  0  0  0  0  0  0
  150.4804  138.4995  154.0051 H   0  0  0  0  0  0  0  0  0  0  0  0
  149.9053  136.0471  153.1372 H   0  0  0  0  0  0  0  0  0  0  0  0
  148.7691  134.4813  152.7923 H   0  0  0  0  0  0  0  0  0  0  0  0
  149.4858  131.7979  153.4534 H   0  0  0  0  0  0  0  0  0  0  0  0
  147.7138  131.2930  155.1012 H   0  0  0  0  0  0  0  0  0  0  0  0
  147.2219  132.9845  155.1315 H   0  0  0  0  0  0  0  0  0  0  0  0
  148.8052  132.5092  155.7417 H   0  0  0  0  0  0  0  0  0  0  0  0
  148.1360  132.3217  151.4657 H   0  0  0  0  0  0  0  0  0  0  0  0
  146.1441  133.4674  153.4637 H   0  0  0  0  0  0  0  0  0  0  0  0
  146.6857  134.1957  151.9461 H   0  0  0  0  0  0  0  0  0  0  0  0
  144.3872  132.8063  151.9230 H   0  0  0  0  0  0  0  0  0  0  0  0
  145.5731  132.4669  150.6548 H   0  0  0  0  0  0  0  0  0  0  0  0
  145.1073  130.9023  153.2155 H   0  0  0  0  0  0  0  0  0  0  0  0
  145.3497  130.2669  151.5858 H   0  0  0  0  0  0  0  0  0  0  0  0
  1  2  1  0  0  0  0
  1 18  1  0  0  0  0
  1 19  1  0  0  0  0
  1 20  1  0  0  0  0
  2 17  1  0  0  0  0
  2  3  2  0  0  0  0
  3  4  1  0  0  0  0
  3 21  1  0  0  0  0
  4  5  1  0  0  0  0
  4 16  2  0  0  0  0
  5  6  1  0  0  0  0
  5 22  1  0  0  0  0
  6  7  2  0  0  0  0
  6  8  1  0  0  0  0
  8  9  1  0  0  0  0
  8 23  1  0  0  0  0
  9 10  1  0  0  0  0
  9 11  1  0  0  0  0
  9 24  1  0  0  0  0
 10 25  1  0  0  0  0
 10 26  1  0  0  0  0
 10 27  1  0  0  0  0
 11 15  1  0  0  0  0
 11 12  1  0  0  0  0
 11 28  1  0  0  0  0
 12 13  1  0  0  0  0
 12 29  1  0  0  0  0
 12 30  1  0  0  0  0
 13 14  1  0  0  0  0
 13 31  1  0  0  0  0
 13 32  1  0  0  0  0
 14 15  1  0  0  0  0
 14 33  1  0  0  0  0
 14 34  1  0  0  0  0
 16 17  1  0  0  0  0
M  END
> <s_m_source_file>
AV-unprocessed.smi

> <i_m_source_file_index>
1459

> <i_lp_mmshare_version>
43012

> <i_f3d_flags>
0

> <s_epik_input>
W0NIM11jMVtjSF1jKG5vMSlbTkhdQyg9TylbTkhdW0NASF0oW0NIM10pW0NAQEhdMltDSDJdW0NIMl1bQ0gyXU8y

> <s_epik_cmdline>
J2VwaWtfcHl0aG9uJywgJy1waCcsICc3LjAnLCAnLXRuJywgJzgnLCAnLW1hJywgJzIwMCcsICctbWV0YWxfYmluZGluZycsICctaW1hZScsICc8aW5maWxlLm1hZT4nLCAnLW9tYWUnLCAnPG91dGZpbGUubWFlPic=

> <r_lp_tautomer_probability>
1

> <r_epik_Ionization_Penalty>
2.20869e-05

> <r_epik_Ionization_Penalty_Charging>
0

> <r_epik_Ionization_Penalty_Neutral>
2.20869e-05

> <r_epik_State_Penalty>
-0

> <r_epik_Charging_Adjusted_Penalty>
0

> <i_epik_Tot_Q>
0

> <i_epik_Tot_abs_Q>
0

> <r_epik_Metal_State_Penalty>
-0

> <b_epik_Metal_Only>
0

> <s_lp_Force_Field>
OPLS_2005

> <r_lp_Energy>
15.9423

> <b_lp_Chiralities_Consistent>
1

> <s_lp_Variant>
AV-unprocessed.smi:1459-2

> <Gold.Version>
5.8.1

> <Gold.Id.Protein>
6NUR|6NUR_protein|mol2

> <Gold.PLP.Fitness>
33.9377

> <Gold.PLP.PLP>
-25.4869

> <Gold.PLP.part.hbond>
-3.9516

> <Gold.PLP.part.metal>
0.0000

> <Gold.PLP.part.buried>
-0.7796

> <Gold.PLP.part.nonpolar>
-20.3778

> <Gold.PLP.part.repulsive>
0.4726

> <Gold.PLP.ligand.clash>
0.0000

> <Gold.PLP.ligand.torsion>
0.1964

> <Gold.PLP.Chemscore.Hbond>
2.9440

> <Gold.PLP.Chemscore.CHOScore>
0.0000

> <Gold.PLP.Chemscore.Metal>
0.0000

> <Gold.Chemscore.Hbonds>
donor molecule, donor type, donor heavy atom, donor atom, acceptor molecule, acceptor atom, score
      L1  H     5    22       P1  7948  0.35
      L1  H     8    23       P1  7948  0.52

> <Gold.PLP.Chemscore.Internal.Correction>
0.0115

> <Gold.Rescore>
     Score         DG    S(hbond)    S(metal)    S(lipo)     H(rot)  DE(clash)    DE(int)     intcor
     14.83     -15.92       2.44        0.00      47.53       1.28       0.09       1.00       ----

> <Gold.Chemscore.Fitness>
14.8323

> <Gold.Chemscore.DG>
-15.9200

> <Gold.Chemscore.ZeroCoef>
-5.4800

> <Gold.Chemscore.Hbond>
2.4401

> <Gold.Chemscore.Metal>
0.0000

> <Gold.Chemscore.Lipo>
47.5291

> <Gold.Chemscore.Internal_Hbond>
0.0000

> <Gold.Chemscore.DEClash>
0.0913

> <Gold.Chemscore.DEInternal>
0.9964

> <Gold.Chemscore.Rot>
1.2776

> <Gold.Chemscore.Internal.Correction>
   9.000000E+99

> <Gold.Chemscore.Hbonds>
donor molecule, donor type, donor heavy atom, donor atom, acceptor molecule, acceptor atom, score
      L1  H     5    22       P1  7948  0.01
      L1  H     8    23       P1  7948  0.04

> <Gold.Chemscore.Hbond.Weighted>
-8.1498

> <Gold.Chemscore.Metal.Weighted>
-0.0000

> <Gold.Chemscore.Lipo.Weighted>
-5.5609

> <Gold.Chemscore.Internal_Hbond.Weighted>
0.0000

> <Gold.Chemscore.DEClash.Weighted>
0.0913

> <Gold.Chemscore.DEInternal.Weighted>
0.9964

> <Gold.Chemscore.Rot.Weighted>
3.2707

> <Gold.Chemscore.Internal.Correction.Weighted>
   9.000000E+99

> <Gold.Protein.RotatedTorsions>
[ 6907 6896 6895 6894 ] final  139.60 input  -60.11 | X-H torsion
[ 7974 7965 7964 7962 ] final  152.49 input  175.53 | X-H torsion
[ 8008 7997 7996 7995 ] final   35.63 input   59.86 | X-H torsion
[ 10167 10162 10161 10158 ] final  -91.63 input  -65.29 | X-H torsion
[ 10718 10713 10712 10709 ] final  136.02 input   66.30 | X-H torsion
[ 10763 10752 10751 10750 ] final -153.41 input  -60.55 | X-H torsion
[ 11005 11000 10999 10996 ] final  -51.63 input  -57.11 | X-H torsion

> <Gold.Protein.ActiveResidues>
 VAL166  LYS551  ARG553  GLY616  TRP617  ASP618  TYR619  PRO620  LYS621  CYS622 
 ASP623  PHE694  ASN695  SER759  ASP760  ASP761  ALA762  ILE779  LEU786  VAL792 
 PHE793  MET794  SER795  GLU796  ALA797  LYS798  CYS799  TRP800  GLU811  SER814 

> <Gold.Protein.RotatedAtoms>
  152.2530  133.5231  159.5336 H   0  0  0  0  0  0  0  0  0  0  0  0  # atno 6907 bound_to 6896
  150.7100  134.0934  159.3949 H   0  0  0  0  0  0  0  0  0  0  0  0  # atno 6908 bound_to 6896
  151.8853  135.0437  160.0543 H   0  0  0  0  0  0  0  0  0  0  0  0  # atno 6909 bound_to 6896
  144.8219  139.6675  143.6097 H   0  0  0  0  0  0  0  0  0  0  0  0  # atno 7974 bound_to 7965
  155.1743  140.3294  155.4387 H   0  0  0  0  0  0  0  0  0  0  0  0  # atno 8008 bound_to 7997
  156.2499  140.1938  156.6795 H   0  0  0  0  0  0  0  0  0  0  0  0  # atno 8009 bound_to 7997
  154.6316  140.0582  156.9724 H   0  0  0  0  0  0  0  0  0  0  0  0  # atno 8010 bound_to 7997
  140.3429  143.2932  151.9814 H   0  0  0  0  0  0  0  0  0  0  0  0  # atno 10167 bound_to 10162
  157.4510  131.1066  151.0033 H   0  0  0  0  0  0  0  0  0  0  0  0  # atno 10718 bound_to 10713
  154.7930  135.3213  154.7734 H   0  0  0  0  0  0  0  0  0  0  0  0  # atno 10763 bound_to 10752
  153.8418  135.6870  153.4806 H   0  0  0  0  0  0  0  0  0  0  0  0  # atno 10764 bound_to 10752
  153.1608  135.4661  154.9710 H   0  0  0  0  0  0  0  0  0  0  0  0  # atno 10765 bound_to 10752
  141.0881  133.6638  156.3905 H   0  0  0  0  0  0  0  0  0  0  0  0  # atno 11005 bound_to 11000
  146.2524  139.6229  142.9418 LP  0  0  0  0  0  0  0  0  0  0  0  0  # atno 17320 bound_to 7965
  145.5086  141.0436  143.2500 LP  0  0  0  0  0  0  0  0  0  0  0  0  # atno 17321 bound_to 7965
  139.4837  144.6141  151.7379 LP  0  0  0  0  0  0  0  0  0  0  0  0  # atno 17342 bound_to 10162
  140.5292  144.0758  150.6048 LP  0  0  0  0  0  0  0  0  0  0  0  0  # atno 17343 bound_to 10162
  157.0863  130.5923  149.5430 LP  0  0  0  0  0  0  0  0  0  0  0  0  # atno 17370 bound_to 10713
  155.9987  130.5062  150.7581 LP  0  0  0  0  0  0  0  0  0  0  0  0  # atno 17371 bound_to 10713
  140.5315  134.6207  157.5351 LP  0  0  0  0  0  0  0  0  0  0  0  0  # atno 17394 bound_to 11000
  139.9702  134.7305  156.0056 LP  0  0  0  0  0  0  0  0  0  0  0  0  # atno 17395 bound_to 11000

$$$$
