AV-unprocessed.smi:1032|AV-procd|sdf|4488|dock2
  -GOLD-   22720 2473D 1   1.00000     0.00000
 Structure written by MMmdl.
 47 48  0  0  0  0  0  0  0  0  3 V2000
  149.8025  140.3998  155.8193 C   0  0  0  0  0  0  0  0  0  0  0  0
  149.6684  139.4614  154.6072 C   0  0  2  0  0  0  0  0  0  0  0  0
  148.6099  138.3637  154.8182 C   0  0  0  0  0  0  0  0  0  0  0  0
  149.0918  137.2644  155.7820 C   0  0  0  0  0  0  0  0  0  0  0  0
  150.3767  136.6727  155.3283 N   0  3  2  0  0  0  0  0  0  0  0  0
  150.7930  135.5194  156.1676 C   0  0  0  0  0  0  0  0  0  0  0  0
  149.7142  134.4194  156.2397 C   0  0  2  0  0  0  0  0  0  0  0  0
  150.0374  133.5694  157.3233 O   0  0  0  0  0  0  0  0  0  0  0  0
  149.6834  133.5683  154.9532 C   0  0  0  0  0  0  0  0  0  0  0  0
  148.8613  134.1778  153.9118 N   0  0  0  0  0  0  0  0  0  0  0  0
  147.7616  133.6249  153.3799 C   0  0  0  0  0  0  0  0  0  0  0  0
  147.3346  132.5184  153.7100 O   0  0  0  0  0  0  0  0  0  0  0  0
  147.2186  134.4187  152.4407 N   0  0  0  0  0  0  0  0  0  0  0  0
  146.0450  134.1987  151.6693 C   0  0  0  0  0  0  0  0  0  0  0  0
  145.4539  135.3178  151.0417 C   0  0  0  0  0  0  0  0  0  0  0  0
  144.2796  135.1488  150.2799 C   0  0  0  0  0  0  0  0  0  0  0  0
  143.7232  133.9239  150.1644 N   0  3  0  0  0  0  0  0  0  0  0  0
  144.2424  132.8278  150.7581 C   0  0  0  0  0  0  0  0  0  0  0  0
  145.4161  132.9347  151.5318 C   0  0  0  0  0  0  0  0  0  0  0  0
  151.4352  137.7080  155.1869 C   0  0  0  0  0  0  0  0  0  0  0  0
  151.0051  138.8123  154.2049 C   0  0  0  0  0  0  0  0  0  0  0  0
  150.1325  139.8737  156.7145 H   0  0  0  0  0  0  0  0  0  0  0  0
  148.8494  140.8760  156.0505 H   0  0  0  0  0  0  0  0  0  0  0  0
  150.5230  141.1937  155.6195 H   0  0  0  0  0  0  0  0  0  0  0  0
  149.3388  140.0819  153.7727 H   0  0  0  0  0  0  0  0  0  0  0  0
  147.6804  138.8011  155.1843 H   0  0  0  0  0  0  0  0  0  0  0  0
  148.3706  137.9090  153.8559 H   0  0  0  0  0  0  0  0  0  0  0  0
  149.2071  137.6615  156.7913 H   0  0  0  0  0  0  0  0  0  0  0  0
  148.3298  136.4857  155.8363 H   0  0  0  0  0  0  0  0  0  0  0  0
  151.7276  135.1162  155.7741 H   0  0  0  0  0  0  0  0  0  0  0  0
  151.0148  135.8544  157.1824 H   0  0  0  0  0  0  0  0  0  0  0  0
  148.7351  134.8635  156.4156 H   0  0  0  0  0  0  0  0  0  0  0  0
  150.4295  132.7792  156.9834 H   0  0  0  0  0  0  0  0  0  0  0  0
  150.6947  133.4474  154.5605 H   0  0  0  0  0  0  0  0  0  0  0  0
  149.3208  132.5601  155.1583 H   0  0  0  0  0  0  0  0  0  0  0  0
  149.1504  135.0862  153.5787 H   0  0  0  0  0  0  0  0  0  0  0  0
  147.7356  135.2559  152.2149 H   0  0  0  0  0  0  0  0  0  0  0  0
  145.8966  136.2990  151.1355 H   0  0  0  0  0  0  0  0  0  0  0  0
  143.7713  135.9515  149.7655 H   0  0  0  0  0  0  0  0  0  0  0  0
  143.7039  131.9043  150.6030 H   0  0  0  0  0  0  0  0  0  0  0  0
  145.8019  132.0495  152.0136 H   0  0  0  0  0  0  0  0  0  0  0  0
  151.6640  138.1353  156.1640 H   0  0  0  0  0  0  0  0  0  0  0  0
  152.3590  137.2595  154.8236 H   0  0  0  0  0  0  0  0  0  0  0  0
  150.9058  138.3791  153.2085 H   0  0  0  0  0  0  0  0  0  0  0  0
  151.7854  139.5703  154.1275 H   0  0  0  0  0  0  0  0  0  0  0  0
  150.2031  136.3000  154.4053 H   0  0  0  0  0  0  0  0  0  0  0  0
  142.8725  133.8232  149.6099 H   0  0  0  0  0  0  0  0  0  0  0  0
  1  2  1  0  0  0  0
  1 22  1  0  0  0  0
  1 23  1  0  0  0  0
  1 24  1  0  0  0  0
  2 21  1  0  0  0  0
  2  3  1  0  0  0  0
  2 25  1  0  0  0  0
  3  4  1  0  0  0  0
  3 26  1  0  0  0  0
  3 27  1  0  0  0  0
  4  5  1  0  0  0  0
  4 28  1  0  0  0  0
  4 29  1  0  0  0  0
  5  6  1  0  0  0  0
  5 20  1  0  0  0  0
  5 46  1  0  0  0  0
  6  7  1  0  0  0  0
  6 30  1  0  0  0  0
  6 31  1  0  0  0  0
  7  8  1  0  0  0  0
  7  9  1  0  0  0  0
  7 32  1  0  0  0  0
  8 33  1  0  0  0  0
  9 10  1  0  0  0  0
  9 34  1  0  0  0  0
  9 35  1  0  0  0  0
 10 11  1  0  0  0  0
 10 36  1  0  0  0  0
 11 12  2  0  0  0  0
 11 13  1  0  0  0  0
 13 14  1  0  0  0  0
 13 37  1  0  0  0  0
 14 19  1  0  0  0  0
 14 15  2  0  0  0  0
 15 16  1  0  0  0  0
 15 38  1  0  0  0  0
 16 17  2  0  0  0  0
 16 39  1  0  0  0  0
 17 18  1  0  0  0  0
 17 47  1  0  0  0  0
 18 19  2  0  0  0  0
 18 40  1  0  0  0  0
 19 41  1  0  0  0  0
 20 21  1  0  0  0  0
 20 42  1  0  0  0  0
 20 43  1  0  0  0  0
 21 44  1  0  0  0  0
 21 45  1  0  0  0  0
M  CHG  1   5   1
M  CHG  1  17   1
M  END
> <s_m_source_file>
AV-unprocessed.smi

> <i_m_source_file_index>
1032

> <i_lp_mmshare_version>
43012

> <i_f3d_flags>
0

> <s_epik_input>
W0NIM11bQ0hdMVtDSDJdW0NIMl1OKFtDSDJdW0NIMl0xKVtDSDJdW0NASF0oW09IXSlbQ0gyXVtOSF1DKD1PKVtOSF1jMltjSF1bY0hdbltjSF1bY0hdMg==

> <s_epik_cmdline>
J2VwaWtfcHl0aG9uJywgJy1waCcsICc3LjAnLCAnLXRuJywgJzgnLCAnLW1hJywgJzIwMCcsICctbWV0YWxfYmluZGluZycsICctaW1hZScsICc8aW5maWxlLm1hZT4nLCAnLW9tYWUnLCAnPG91dGZpbGUubWFlPic=

> <r_epik_Ionization_Penalty>
1.02509

> <r_epik_Ionization_Penalty_Charging>
1.02507

> <r_epik_Ionization_Penalty_Neutral>
1.85474e-05

> <r_epik_State_Penalty>
1.07411

> <r_epik_Charging_Adjusted_Penalty>
2.09917

> <i_epik_Tot_Q>
2

> <i_epik_Tot_abs_Q>
2

> <r_epik_Metal_State_Penalty>
1.1725

> <b_epik_Metal_Only>
0

> <s_lp_Force_Field>
OPLS_2005

> <r_lp_Energy>
33.8521

> <b_lp_Chiralities_Consistent>
1

> <s_lp_Variant>
AV-unprocessed.smi:1032-7

> <Gold.Version>
5.8.1

> <Gold.Id.Protein>
6NUR|6NUR_protein|mol2

> <Gold.PLP.Fitness>
47.1354

> <Gold.PLP.PLP>
-33.8868

> <Gold.PLP.part.hbond>
-4.0000

> <Gold.PLP.part.metal>
0.0000

> <Gold.PLP.part.buried>
-5.2418

> <Gold.PLP.part.nonpolar>
-25.3547

> <Gold.PLP.part.repulsive>
0.1727

> <Gold.PLP.ligand.clash>
0.0000

> <Gold.PLP.ligand.torsion>
0.4711

> <Gold.PLP.Chemscore.Hbond>
4.7174

> <Gold.PLP.Chemscore.CHOScore>
0.0000

> <Gold.PLP.Chemscore.Metal>
0.0000

> <Gold.Chemscore.Hbonds>
donor molecule, donor type, donor heavy atom, donor atom, acceptor molecule, acceptor atom, score
      L1  H    10    36       P1  7948  0.75
      L1  H    13    37       P1  7948  1.00
      L1  H    17    47       P1 10186  1.66
      P1  H  6896  6907       L1     8  0.88

> <Gold.PLP.Chemscore.Internal.Correction>
0.0386

> <Gold.Rescore>
     Score         DG    S(hbond)    S(metal)    S(lipo)     H(rot)  DE(clash)    DE(int)     intcor
     16.18     -18.01       2.88        0.00      76.08       2.34       0.01       1.82       ----

> <Gold.Chemscore.Fitness>
16.1830

> <Gold.Chemscore.DG>
-18.0099

> <Gold.Chemscore.ZeroCoef>
-5.4800

> <Gold.Chemscore.Hbond>
2.8794

> <Gold.Chemscore.Metal>
0.0000

> <Gold.Chemscore.Lipo>
76.0804

> <Gold.Chemscore.Internal_Hbond>
0.0000

> <Gold.Chemscore.DEClash>
0.0064

> <Gold.Chemscore.DEInternal>
1.8204

> <Gold.Chemscore.Rot>
2.3393

> <Gold.Chemscore.Internal.Correction>
   9.000000E+99

> <Gold.Chemscore.Hbonds>
donor molecule, donor type, donor heavy atom, donor atom, acceptor molecule, acceptor atom, score
      L1  H    10    36       P1  7948  0.21
      L1  H    13    37       P1  7948  0.95
      L1  H    17    47       P1 10186  0.80
      P1  H  6896  6907       L1     8  0.33

> <Gold.Chemscore.Hbond.Weighted>
-9.6171

> <Gold.Chemscore.Metal.Weighted>
-0.0000

> <Gold.Chemscore.Lipo.Weighted>
-8.9014

> <Gold.Chemscore.Internal_Hbond.Weighted>
0.0000

> <Gold.Chemscore.DEClash.Weighted>
0.0064

> <Gold.Chemscore.DEInternal.Weighted>
1.8204

> <Gold.Chemscore.Rot.Weighted>
5.9886

> <Gold.Chemscore.Internal.Correction.Weighted>
   9.000000E+99

> <Gold.Protein.RotatedTorsions>
[ 6907 6896 6895 6894 ] final -124.75 input  -60.11 | X-H torsion
[ 7974 7965 7964 7962 ] final  169.61 input  175.53 | X-H torsion
[ 8008 7997 7996 7995 ] final   79.84 input   59.86 | X-H torsion
[ 10167 10162 10161 10158 ] final   72.74 input  -65.29 | X-H torsion
[ 10718 10713 10712 10709 ] final    8.19 input   66.30 | X-H torsion
[ 10763 10752 10751 10750 ] final  154.35 input  -60.55 | X-H torsion
[ 11005 11000 10999 10996 ] final  -71.44 input  -57.11 | X-H torsion

> <Gold.Protein.ActiveResidues>
 VAL166  LYS551  ARG553  GLY616  TRP617  ASP618  TYR619  PRO620  LYS621  CYS622 
 ASP623  PHE694  ASN695  SER759  ASP760  ASP761  ALA762  ILE779  LEU786  VAL792 
 PHE793  MET794  SER795  GLU796  ALA797  LYS798  CYS799  TRP800  GLU811  SER814 

> <Gold.Protein.RotatedAtoms>
  150.8799  133.7386  159.2935 H   0  0  0  0  0  0  0  0  0  0  0  0  # atno 6907 bound_to 6896
  151.4971  135.1059  159.9828 H   0  0  0  0  0  0  0  0  0  0  0  0  # atno 6908 bound_to 6896
  152.4753  133.8077  159.7042 H   0  0  0  0  0  0  0  0  0  0  0  0  # atno 6909 bound_to 6896
  144.7349  139.9080  143.6413 H   0  0  0  0  0  0  0  0  0  0  0  0  # atno 7974 bound_to 7965
  155.8752  140.3447  155.5849 H   0  0  0  0  0  0  0  0  0  0  0  0  # atno 8008 bound_to 7997
  155.7782  140.0855  157.2092 H   0  0  0  0  0  0  0  0  0  0  0  0  # atno 8009 bound_to 7997
  154.4020  140.1505  156.3009 H   0  0  0  0  0  0  0  0  0  0  0  0  # atno 8010 bound_to 7997
  140.0320  144.5458  150.7499 H   0  0  0  0  0  0  0  0  0  0  0  0  # atno 10167 bound_to 10162
  156.9480  130.5886  149.5655 H   0  0  0  0  0  0  0  0  0  0  0  0  # atno 10718 bound_to 10713
  154.1510  135.2815  155.3135 H   0  0  0  0  0  0  0  0  0  0  0  0  # atno 10763 bound_to 10752
  154.6217  135.5465  153.7586 H   0  0  0  0  0  0  0  0  0  0  0  0  # atno 10764 bound_to 10752
  153.0221  135.6441  154.1654 H   0  0  0  0  0  0  0  0  0  0  0  0  # atno 10765 bound_to 10752
  141.1592  133.6817  156.6906 H   0  0  0  0  0  0  0  0  0  0  0  0  # atno 11005 bound_to 11000
  146.1022  139.4018  143.0340 LP  0  0  0  0  0  0  0  0  0  0  0  0  # atno 17320 bound_to 7965
  145.7562  140.9953  143.1224 LP  0  0  0  0  0  0  0  0  0  0  0  0  # atno 17321 bound_to 7965
  140.7298  143.2676  151.3993 LP  0  0  0  0  0  0  0  0  0  0  0  0  # atno 17342 bound_to 10162
  139.6070  144.1177  152.2259 LP  0  0  0  0  0  0  0  0  0  0  0  0  # atno 17343 bound_to 10162
  156.0375  130.5461  150.8689 LP  0  0  0  0  0  0  0  0  0  0  0  0  # atno 17370 bound_to 10713
  157.5741  131.0946  150.9373 LP  0  0  0  0  0  0  0  0  0  0  0  0  # atno 17371 bound_to 10713
  140.3033  134.8146  157.4116 LP  0  0  0  0  0  0  0  0  0  0  0  0  # atno 17394 bound_to 11000
  140.1242  134.5179  155.8158 LP  0  0  0  0  0  0  0  0  0  0  0  0  # atno 17395 bound_to 11000

$$$$
