AV-unprocessed.smi:256|AV-procd|sdf|1958|dock1
  -GOLD-   2262021103D 1   1.00000     0.00000
 Structure written by MMmdl.
 62 65  0  0  0  0  0  0  0  0  2 V2000
  152.1022  139.2927  155.6110 C   0  0  0  0  0  0  0  0  0  0  0  0
  151.5535  140.3215  156.6105 C   0  0  0  0  0  0  0  0  0  0  0  0
  150.6222  141.3932  155.9812 C   0  0  1  0  0  0  0  0  0  0  0  0
  149.3566  140.8061  155.3085 C   0  0  0  0  0  0  0  0  0  0  0  0
  148.3659  140.3693  156.2907 N   0  0  0  0  0  0  0  0  0  0  0  0
  148.4401  139.0768  156.7090 C   0  0  0  0  0  0  0  0  0  0  0  0
  149.4193  138.2673  156.2230 N   0  0  0  0  0  0  0  0  0  0  0  0
  149.4829  136.9841  156.5875 C   0  0  0  0  0  0  0  0  0  0  0  0
  148.6818  136.3132  157.4156 N   0  0  0  0  0  0  0  0  0  0  0  0
  147.7086  137.1204  157.9247 C   0  0  0  0  0  0  0  0  0  0  0  0
  147.5226  138.5022  157.6356 C   0  0  0  0  0  0  0  0  0  0  0  0
  146.4412  138.9910  158.3596 N   0  0  0  0  0  0  0  0  0  0  0  0
  146.0030  137.9557  159.0217 C   0  0  0  0  0  0  0  0  0  0  0  0
  146.6963  136.7864  158.8074 N   0  0  0  0  0  0  0  0  0  0  0  0
  146.4194  135.4872  159.4019 C   0  0  0  0  0  0  0  0  0  0  0  0
  147.5839  134.9270  160.2643 C   0  0  0  0  0  0  0  0  0  0  0  0
  148.6712  134.6679  159.3953 O   0  0  0  0  0  0  0  0  0  0  0  0
  148.0847  135.8977  161.3562 C   0  0  0  0  0  0  0  0  0  0  0  0
  147.0847  135.9941  162.5213 C   0  0  0  0  0  0  0  0  0  0  0  0
  146.8496  134.6999  163.0650 O   0  0  0  0  0  0  0  0  0  0  0  0
  146.2607  133.8018  162.1305 C   0  0  0  0  0  0  0  0  0  0  0  0
  147.2069  133.5907  160.9344 C   0  0  0  0  0  0  0  0  0  0  0  0
  147.9775  141.4107  157.2391 C   0  0  0  0  0  0  0  0  0  0  0  0
  149.2079  142.0209  157.9346 C   0  0  0  0  0  0  0  0  0  0  0  0
  150.2218  142.4695  156.9436 N   0  3  1  0  0  0  0  0  0  0  0  0
  151.3276  143.2356  157.5810 C   0  0  0  0  0  0  0  0  0  0  0  0
  152.0686  142.4487  158.6801 C   0  0  0  0  0  0  0  0  0  0  0  0
  152.8635  143.2946  159.5010 O   0  0  0  0  0  0  0  0  0  0  0  0
  152.1899  144.4490  159.9779 C   0  0  0  0  0  0  0  0  0  0  0  0
  152.8256  138.6366  156.0954 H   0  0  0  0  0  0  0  0  0  0  0  0
  152.6060  139.7810  154.7766 H   0  0  0  0  0  0  0  0  0  0  0  0
  151.3160  138.6565  155.2065 H   0  0  0  0  0  0  0  0  0  0  0  0
  151.0500  139.7954  157.4200 H   0  0  0  0  0  0  0  0  0  0  0  0
  152.4158  140.8070  157.0653 H   0  0  0  0  0  0  0  0  0  0  0  0
  151.1847  141.8681  155.1779 H   0  0  0  0  0  0  0  0  0  0  0  0
  148.8872  141.5826  154.7030 H   0  0  0  0  0  0  0  0  0  0  0  0
  149.6227  140.0220  154.6038 H   0  0  0  0  0  0  0  0  0  0  0  0
  150.2875  136.4116  156.1493 H   0  0  0  0  0  0  0  0  0  0  0  0
  145.1510  138.0144  159.6835 H   0  0  0  0  0  0  0  0  0  0  0  0
  145.5092  135.5770  159.9942 H   0  0  0  0  0  0  0  0  0  0  0  0
  146.1804  134.7923  158.5956 H   0  0  0  0  0  0  0  0  0  0  0  0
  148.3373  134.5754  158.5160 H   0  0  0  0  0  0  0  0  0  0  0  0
  149.0340  135.5372  161.7558 H   0  0  0  0  0  0  0  0  0  0  0  0
  148.2916  136.8874  160.9490 H   0  0  0  0  0  0  0  0  0  0  0  0
  147.4878  136.6354  163.3054 H   0  0  0  0  0  0  0  0  0  0  0  0
  146.1426  136.4410  162.2033 H   0  0  0  0  0  0  0  0  0  0  0  0
  146.0768  132.8508  162.6302 H   0  0  0  0  0  0  0  0  0  0  0  0
  145.2886  134.1779  161.8099 H   0  0  0  0  0  0  0  0  0  0  0  0
  146.7561  132.9102  160.2110 H   0  0  0  0  0  0  0  0  0  0  0  0
  148.1084  133.0955  161.2990 H   0  0  0  0  0  0  0  0  0  0  0  0
  147.4515  142.1887  156.6844 H   0  0  0  0  0  0  0  0  0  0  0  0
  147.2643  141.0331  157.9729 H   0  0  0  0  0  0  0  0  0  0  0  0
  148.8865  142.8675  158.5424 H   0  0  0  0  0  0  0  0  0  0  0  0
  149.6571  141.3015  158.6198 H   0  0  0  0  0  0  0  0  0  0  0  0
  152.0433  143.5188  156.8091 H   0  0  0  0  0  0  0  0  0  0  0  0
  150.9534  144.1776  157.9813 H   0  0  0  0  0  0  0  0  0  0  0  0
  151.3583  141.8889  159.2906 H   0  0  0  0  0  0  0  0  0  0  0  0
  152.7201  141.6996  158.2308 H   0  0  0  0  0  0  0  0  0  0  0  0
  152.8505  145.0024  160.6450 H   0  0  0  0  0  0  0  0  0  0  0  0
  151.2950  144.1815  160.5412 H   0  0  0  0  0  0  0  0  0  0  0  0
  151.9070  145.1186  159.1658 H   0  0  0  0  0  0  0  0  0  0  0  0
  149.7365  143.1482  156.3742 H   0  0  0  0  0  0  0  0  0  0  0  0
  1  2  1  0  0  0  0
  1 30  1  0  0  0  0
  1 31  1  0  0  0  0
  1 32  1  0  0  0  0
  2  3  1  0  0  0  0
  2 33  1  0  0  0  0
  2 34  1  0  0  0  0
  3 25  1  0  0  0  0
  3  4  1  0  0  0  0
  3 35  1  0  0  0  0
  4  5  1  0  0  0  0
  4 36  1  0  0  0  0
  4 37  1  0  0  0  0
  5  6  1  0  0  0  0
  5 23  1  0  0  0  0
  6 11  1  0  0  0  0
  6  7  2  0  0  0  0
  7  8  1  0  0  0  0
  8  9  2  0  0  0  0
  8 38  1  0  0  0  0
  9 10  1  0  0  0  0
 10 14  1  0  0  0  0
 10 11  2  0  0  0  0
 11 12  1  0  0  0  0
 12 13  2  0  0  0  0
 13 14  1  0  0  0  0
 13 39  1  0  0  0  0
 14 15  1  0  0  0  0
 15 16  1  0  0  0  0
 15 40  1  0  0  0  0
 15 41  1  0  0  0  0
 16 22  1  0  0  0  0
 16 17  1  0  0  0  0
 16 18  1  0  0  0  0
 17 42  1  0  0  0  0
 18 19  1  0  0  0  0
 18 43  1  0  0  0  0
 18 44  1  0  0  0  0
 19 20  1  0  0  0  0
 19 45  1  0  0  0  0
 19 46  1  0  0  0  0
 20 21  1  0  0  0  0
 21 22  1  0  0  0  0
 21 47  1  0  0  0  0
 21 48  1  0  0  0  0
 22 49  1  0  0  0  0
 22 50  1  0  0  0  0
 23 24  1  0  0  0  0
 23 51  1  0  0  0  0
 23 52  1  0  0  0  0
 24 25  1  0  0  0  0
 24 53  1  0  0  0  0
 24 54  1  0  0  0  0
 25 26  1  0  0  0  0
 25 62  1  0  0  0  0
 26 27  1  0  0  0  0
 26 55  1  0  0  0  0
 26 56  1  0  0  0  0
 27 28  1  0  0  0  0
 27 57  1  0  0  0  0
 27 58  1  0  0  0  0
 28 29  1  0  0  0  0
 29 59  1  0  0  0  0
 29 60  1  0  0  0  0
 29 61  1  0  0  0  0
M  CHG  1  25   1
M  END
> <s_m_source_file>
AV-unprocessed.smi

> <i_m_source_file_index>
256

> <i_lp_mmshare_version>
43012

> <i_f3d_flags>
0

> <s_epik_input>
W0NIM11PW0NIMl1bQ0gyXU4xW0NIMl1bQ0gyXU4oW0NIMl1bQ0BIXTFbQ0gyXVtDSDNdKWMobltjSF1uMiljKGMyMyluW2NIXW4zW0NIMl1DNChbT0hdKVtDSDJdW0NIMl1PW0NIMl1bQ0gyXTQ=

> <s_epik_cmdline>
J2VwaWtfcHl0aG9uJywgJy1waCcsICc3LjAnLCAnLXRuJywgJzgnLCAnLW1hJywgJzIwMCcsICctbWV0YWxfYmluZGluZycsICctaW1hZScsICc8aW5maWxlLm1hZT4nLCAnLW9tYWUnLCAnPG91dGZpbGUubWFlPic=

> <r_lp_tautomer_probability>
1

> <r_epik_Ionization_Penalty>
0.233023

> <r_epik_Ionization_Penalty_Charging>
0.23295

> <r_epik_Ionization_Penalty_Neutral>
7.2493e-05

> <r_epik_State_Penalty>
0.223667

> <r_epik_Charging_Adjusted_Penalty>
0.456618

> <i_epik_Tot_Q>
1

> <i_epik_Tot_abs_Q>
1

> <r_epik_Metal_State_Penalty>
0.226879

> <b_epik_Metal_Only>
0

> <s_lp_Force_Field>
OPLS_2005

> <r_lp_Energy>
45.4801

> <b_lp_Chiralities_Consistent>
1

> <s_lp_Variant>
AV-unprocessed.smi:256-2

> <Gold.Version>
5.8.1

> <Gold.Id.Protein>
6NUR|6NUR_protein|mol2

> <Gold.PLP.Fitness>
51.3898

> <Gold.PLP.PLP>
-42.5071

> <Gold.PLP.part.hbond>
-3.4914

> <Gold.PLP.part.metal>
0.0000

> <Gold.PLP.part.buried>
-7.5801

> <Gold.PLP.part.nonpolar>
-32.3069

> <Gold.PLP.part.repulsive>
0.0393

> <Gold.PLP.ligand.clash>
0.0000

> <Gold.PLP.ligand.torsion>
0.4591

> <Gold.PLP.Chemscore.Hbond>
3.0000

> <Gold.PLP.Chemscore.CHOScore>
0.0000

> <Gold.PLP.Chemscore.Metal>
0.0000

> <Gold.Chemscore.Hbonds>
donor molecule, donor type, donor heavy atom, donor atom, acceptor molecule, acceptor atom, score
      L1  H    25    62       P1  8028  2.00
      P1  H  6896  6908       L1    17  1.00

> <Gold.PLP.Chemscore.Internal.Correction>
0.8008

> <Gold.Rescore>
     Score         DG    S(hbond)    S(metal)    S(lipo)     H(rot)  DE(clash)    DE(int)     intcor
     14.50     -17.68       1.95        0.00     106.60       2.65       0.01       3.17       ----

> <Gold.Chemscore.Fitness>
14.5043

> <Gold.Chemscore.DG>
-17.6846

> <Gold.Chemscore.ZeroCoef>
-5.4800

> <Gold.Chemscore.Hbond>
1.9482

> <Gold.Chemscore.Metal>
0.0000

> <Gold.Chemscore.Lipo>
106.5974

> <Gold.Chemscore.Internal_Hbond>
0.0000

> <Gold.Chemscore.DEClash>
0.0057

> <Gold.Chemscore.DEInternal>
3.1746

> <Gold.Chemscore.Rot>
2.6462

> <Gold.Chemscore.Internal.Correction>
   9.000000E+99

> <Gold.Chemscore.Hbonds>
donor molecule, donor type, donor heavy atom, donor atom, acceptor molecule, acceptor atom, score
      L1  H    25    62       P1  8028  1.00
      P1  H  6896  6908       L1    17  0.73

> <Gold.Chemscore.Hbond.Weighted>
-6.5068

> <Gold.Chemscore.Metal.Weighted>
-0.0000

> <Gold.Chemscore.Lipo.Weighted>
-12.4719

> <Gold.Chemscore.Internal_Hbond.Weighted>
0.0000

> <Gold.Chemscore.DEClash.Weighted>
0.0057

> <Gold.Chemscore.DEInternal.Weighted>
3.1746

> <Gold.Chemscore.Rot.Weighted>
6.7742

> <Gold.Chemscore.Internal.Correction.Weighted>
   9.000000E+99

> <Gold.Protein.RotatedTorsions>
[ 6907 6896 6895 6894 ] final  150.34 input  -60.11 | X-H torsion
[ 7974 7965 7964 7962 ] final  -40.89 input  175.53 | X-H torsion
[ 8008 7997 7996 7995 ] final -139.52 input   59.86 | X-H torsion
[ 10167 10162 10161 10158 ] final  164.43 input  -65.29 | X-H torsion
[ 10718 10713 10712 10709 ] final   12.22 input   66.30 | X-H torsion
[ 10763 10752 10751 10750 ] final    5.66 input  -60.55 | X-H torsion
[ 11005 11000 10999 10996 ] final   -7.09 input  -57.11 | X-H torsion

> <Gold.Protein.ActiveResidues>
 VAL166  LYS551  ARG553  GLY616  TRP617  ASP618  TYR619  PRO620  LYS621  CYS622 
 ASP623  PHE694  ASN695  SER759  ASP760  ASP761  ALA762  ILE779  LEU786  VAL792 
 PHE793  MET794  SER795  GLU796  ALA797  LYS798  CYS799  TRP800  GLU811  SER814 

> <Gold.Protein.RotatedAtoms>
  152.1157  133.4325  159.4651 H   0  0  0  0  0  0  0  0  0  0  0  0  # atno 6907 bound_to 6896
  150.6869  134.2595  159.4552 H   0  0  0  0  0  0  0  0  0  0  0  0  # atno 6908 bound_to 6896
  152.0467  134.9678  160.0625 H   0  0  0  0  0  0  0  0  0  0  0  0  # atno 6909 bound_to 6896
  146.0262  140.6789  142.9154 H   0  0  0  0  0  0  0  0  0  0  0  0  # atno 7974 bound_to 7965
  155.4463  140.0535  157.3005 H   0  0  0  0  0  0  0  0  0  0  0  0  # atno 8008 bound_to 7997
  154.4796  140.2076  155.9751 H   0  0  0  0  0  0  0  0  0  0  0  0  # atno 8009 bound_to 7997
  156.1186  140.3192  155.8179 H   0  0  0  0  0  0  0  0  0  0  0  0  # atno 8010 bound_to 7997
  139.4889  144.4235  151.9157 H   0  0  0  0  0  0  0  0  0  0  0  0  # atno 10167 bound_to 10162
  157.0070  130.6102  149.5703 H   0  0  0  0  0  0  0  0  0  0  0  0  # atno 10718 bound_to 10713
  153.2568  135.6919  153.7620 H   0  0  0  0  0  0  0  0  0  0  0  0  # atno 10763 bound_to 10752
  153.6694  135.3347  155.3150 H   0  0  0  0  0  0  0  0  0  0  0  0  # atno 10764 bound_to 10752
  154.8415  135.4496  154.1544 H   0  0  0  0  0  0  0  0  0  0  0  0  # atno 10765 bound_to 10752
  140.7091  133.8924  155.8737 H   0  0  0  0  0  0  0  0  0  0  0  0  # atno 11005 bound_to 11000
  144.7010  140.3654  143.7156 LP  0  0  0  0  0  0  0  0  0  0  0  0  # atno 17320 bound_to 7965
  145.7114  139.1686  143.2536 LP  0  0  0  0  0  0  0  0  0  0  0  0  # atno 17321 bound_to 7965
  140.3680  144.2890  150.5924 LP  0  0  0  0  0  0  0  0  0  0  0  0  # atno 17342 bound_to 10162
  140.5344  143.2236  151.8187 LP  0  0  0  0  0  0  0  0  0  0  0  0  # atno 17343 bound_to 10162
  156.0150  130.5244  150.8106 LP  0  0  0  0  0  0  0  0  0  0  0  0  # atno 17370 bound_to 10713
  157.5348  131.0938  150.9906 LP  0  0  0  0  0  0  0  0  0  0  0  0  # atno 17371 bound_to 10713
  141.0100  134.1034  157.4231 LP  0  0  0  0  0  0  0  0  0  0  0  0  # atno 17394 bound_to 11000
  139.8876  135.0091  156.6572 LP  0  0  0  0  0  0  0  0  0  0  0  0  # atno 17395 bound_to 11000

$$$$
