AV-unprocessed.smi:54|AV-procd|sdf|560|dock4
  -GOLD-   2262016463D 1   1.00000     0.00000
 Structure written by MMmdl.
 43 45  0  0  0  0  0  0  0  0  2 V2000
  153.0583  142.4520  161.3212 C   0  0  0  0  0  0  0  0  0  0  0  0
  153.2016  140.9471  161.0410 C   0  0  0  0  0  0  0  0  0  0  0  0
  154.6484  140.4738  161.2581 C   0  0  0  0  0  0  0  0  0  0  0  0
  152.7264  140.6111  159.6203 C   0  0  0  0  0  0  0  0  0  0  0  0
  152.3992  141.5281  158.8640 O   0  0  0  0  0  0  0  0  0  0  0  0
  152.6949  139.2940  159.3203 N   0  0  0  0  0  0  0  0  0  0  0  0
  152.2918  138.6679  158.1357 C   0  0  0  0  0  0  0  0  0  0  0  0
  151.6779  139.4799  157.3106 N   0  0  0  0  0  0  0  0  0  0  0  0
  151.2713  138.8551  156.1475 C   0  0  0  0  0  0  0  0  0  0  0  0
  151.4313  137.5390  155.8087 C   0  0  0  0  0  0  0  0  0  0  0  0
  150.8924  137.2664  154.5574 N   0  0  0  0  0  0  0  0  0  0  0  0
  150.4227  138.4576  154.1913 C   0  0  0  0  0  0  0  0  0  0  0  0
  150.6099  139.4548  155.0783 N   0  0  0  0  0  0  0  0  0  0  0  0
  150.1821  140.8790  154.9097 C   0  0  1  0  0  0  0  0  0  0  0  0
  149.2883  140.9394  153.8391 O   0  0  0  0  0  0  0  0  0  0  0  0
  148.1444  141.7056  154.1972 C   0  0  1  0  0  0  0  0  0  0  0  0
  146.9444  141.2422  153.3557 C   0  0  0  0  0  0  0  0  0  0  0  0
  145.7333  141.7102  153.9109 O   0  0  0  0  0  0  0  0  0  0  0  0
  148.0063  141.4659  155.7027 C   0  0  2  0  0  0  0  0  0  0  0  0
  147.2658  142.4806  156.3551 O   0  0  0  0  0  0  0  0  0  0  0  0
  149.4578  141.3816  156.1694 C   0  0  2  0  0  0  0  0  0  0  0  0
  149.9710  142.6389  156.5719 O   0  0  0  0  0  0  0  0  0  0  0  0
  152.1206  136.6713  156.7929 C   0  0  0  0  0  0  0  0  0  0  0  0
  152.2837  135.4812  156.5308 O   0  0  0  0  0  0  0  0  0  0  0  0
  152.5249  137.2922  157.9412 N   0  5  0  0  0  0  0  0  0  0  0  0
  151.1017  141.4205  154.6828 H   0  0  0  0  0  0  0  0  0  0  0  0
  148.3761  142.7539  153.9983 H   0  0  0  0  0  0  0  0  0  0  0  0
  147.5138  140.5104  155.8826 H   0  0  0  0  0  0  0  0  0  0  0  0
  149.5756  140.6803  156.9970 H   0  0  0  0  0  0  0  0  0  0  0  0
  152.0341  142.7896  161.1571 H   0  0  0  0  0  0  0  0  0  0  0  0
  153.7113  143.0441  160.6789 H   0  0  0  0  0  0  0  0  0  0  0  0
  153.3160  142.6815  162.3553 H   0  0  0  0  0  0  0  0  0  0  0  0
  152.5671  140.4144  161.7515 H   0  0  0  0  0  0  0  0  0  0  0  0
  154.7516  139.4078  161.0515 H   0  0  0  0  0  0  0  0  0  0  0  0
  154.9616  140.6384  162.2892 H   0  0  0  0  0  0  0  0  0  0  0  0
  155.3467  141.0074  160.6121 H   0  0  0  0  0  0  0  0  0  0  0  0
  152.9335  138.6815  160.0858 H   0  0  0  0  0  0  0  0  0  0  0  0
  149.9277  138.6111  153.2436 H   0  0  0  0  0  0  0  0  0  0  0  0
  147.0274  141.6347  152.3421 H   0  0  0  0  0  0  0  0  0  0  0  0
  146.9157  140.1549  153.2775 H   0  0  0  0  0  0  0  0  0  0  0  0
  145.0203  141.2212  153.5295 H   0  0  0  0  0  0  0  0  0  0  0  0
  147.6984  143.3070  156.2025 H   0  0  0  0  0  0  0  0  0  0  0  0
  149.4116  143.3151  156.2214 H   0  0  0  0  0  0  0  0  0  0  0  0
  1  2  1  0  0  0  0
  1 30  1  0  0  0  0
  1 31  1  0  0  0  0
  1 32  1  0  0  0  0
  2  3  1  0  0  0  0
  2  4  1  0  0  0  0
  2 33  1  0  0  0  0
  3 34  1  0  0  0  0
  3 35  1  0  0  0  0
  3 36  1  0  0  0  0
  4  5  2  0  0  0  0
  4  6  1  0  0  0  0
  6 37  1  0  0  0  0
  6  7  1  0  0  0  0
  7 25  1  0  0  0  0
  7  8  2  0  0  0  0
  8  9  1  0  0  0  0
  9 13  1  0  0  0  0
  9 10  2  0  0  0  0
 10 11  1  0  0  0  0
 10 23  1  0  0  0  0
 11 12  2  0  0  0  0
 12 13  1  0  0  0  0
 12 38  1  0  0  0  0
 13 14  1  0  0  0  0
 14 26  1  0  0  0  0
 14 21  1  0  0  0  0
 14 15  1  0  0  0  0
 15 16  1  0  0  0  0
 16 27  1  0  0  0  0
 16 17  1  0  0  0  0
 16 19  1  0  0  0  0
 17 18  1  0  0  0  0
 17 39  1  0  0  0  0
 17 40  1  0  0  0  0
 18 41  1  0  0  0  0
 19 28  1  0  0  0  0
 19 20  1  0  0  0  0
 19 21  1  0  0  0  0
 20 42  1  0  0  0  0
 21 29  1  0  0  0  0
 21 22  1  0  0  0  0
 22 43  1  0  0  0  0
 23 24  2  0  0  0  0
 23 25  1  0  0  0  0
M  CHG  1  25  -1
M  END
> <s_m_source_file>
AV-unprocessed.smi

> <i_m_source_file_index>
54

> <i_lp_mmshare_version>
43012

> <i_f3d_flags>
0

> <s_epik_input>
W0NIM11bQ0hdKFtDSDNdKUMoPU8pW05IXWMobjEpW25IXWMoPU8pYyhjMTIpbltjSF1uMltDQEBIXTNPW0NASF0oW0NIMl1bT0hdKVtDQEBIXShbT0hdKVtDQEhdM1tPSF0=

> <s_epik_cmdline>
J2VwaWtfcHl0aG9uJywgJy1waCcsICc3LjAnLCAnLXRuJywgJzgnLCAnLW1hJywgJzIwMCcsICctbWV0YWxfYmluZGluZycsICctaW1hZScsICc8aW5maWxlLm1hZT4nLCAnLW9tYWUnLCAnPG91dGZpbGUubWFlPic=

> <r_lp_tautomer_probability>
0.85571

> <r_epik_Ionization_Penalty>
1.75936

> <r_epik_Ionization_Penalty_Charging>
4.55893e-11

> <r_epik_Ionization_Penalty_Neutral>
1.75936

> <r_epik_State_Penalty>
1.72072

> <r_epik_Charging_Adjusted_Penalty>
1.72072

> <i_epik_Tot_Q>
-1

> <i_epik_Tot_abs_Q>
1

> <r_epik_Metal_State_Penalty>
0.400338

> <b_epik_Metal_Only>
1

> <s_epik_Chemistry_Notes>
This compound contains an acetal/aminal-like group ( X-CH(R)-Y where X, Y are N, S, or O) that may be acid/base labile, releasing an aldehyde.

> <s_lp_Force_Field>
OPLS_2005

> <r_lp_Energy>
61.5682

> <b_lp_Chiralities_Consistent>
1

> <s_lp_Variant>
AV-unprocessed.smi:54-32

> <Gold.Version>
5.8.1

> <Gold.Id.Protein>
6NUR|6NUR_protein|mol2

> <Gold.PLP.Fitness>
49.7001

> <Gold.PLP.PLP>
-35.0310

> <Gold.PLP.part.hbond>
-5.6194

> <Gold.PLP.part.metal>
0.0000

> <Gold.PLP.part.buried>
-3.8186

> <Gold.PLP.part.nonpolar>
-28.7772

> <Gold.PLP.part.repulsive>
1.9285

> <Gold.PLP.ligand.clash>
0.0000

> <Gold.PLP.ligand.torsion>
0.4498

> <Gold.PLP.Chemscore.Hbond>
4.0049

> <Gold.PLP.Chemscore.CHOScore>
1.1732

> <Gold.PLP.Chemscore.Metal>
0.0000

> <Gold.Chemscore.Hbonds>
donor molecule, donor type, donor heavy atom, donor atom, acceptor molecule, acceptor atom, score
      L1  H    18    41       P1 10175  1.00
      L1  H    20    42       P1  8028  0.65
      L1  H    22    43       P1  8028  1.00
      P1  H  8011  8017       L1    15  0.32
      P1  H 10752 10764       L1    24  1.00
      L1  C    12    38       P1  7948  0.11
      L1  C    12    38       P1  7957  1.00

> <Gold.PLP.Chemscore.Internal.Correction>
0.0343

> <Gold.Rescore>
     Score         DG    S(hbond)    S(metal)    S(lipo)     H(rot)  DE(clash)    DE(int)     intcor
      8.31     -10.98       2.72        0.00      57.30       4.02       0.44       2.23       ----

> <Gold.Chemscore.Fitness>
8.3068

> <Gold.Chemscore.DG>
-10.9806

> <Gold.Chemscore.ZeroCoef>
-5.4800

> <Gold.Chemscore.Hbond>
2.7205

> <Gold.Chemscore.Metal>
0.0000

> <Gold.Chemscore.Lipo>
57.2953

> <Gold.Chemscore.Internal_Hbond>
0.0000

> <Gold.Chemscore.DEClash>
0.4428

> <Gold.Chemscore.DEInternal>
2.2310

> <Gold.Chemscore.Rot>
4.0192

> <Gold.Chemscore.Internal.Correction>
   9.000000E+99

> <Gold.Chemscore.Hbonds>
donor molecule, donor type, donor heavy atom, donor atom, acceptor molecule, acceptor atom, score
      L1  H    18    41       P1 10175  0.35
      L1  H    20    42       P1  8028  0.06
      L1  H    22    43       P1  8028  0.98
      P1  H  8011  8017       L1    15  0.01
      P1  H 10752 10764       L1    24  0.65

> <Gold.Chemscore.Hbond.Weighted>
-9.0863

> <Gold.Chemscore.Metal.Weighted>
-0.0000

> <Gold.Chemscore.Lipo.Weighted>
-6.7035

> <Gold.Chemscore.Internal_Hbond.Weighted>
0.0000

> <Gold.Chemscore.DEClash.Weighted>
0.4428

> <Gold.Chemscore.DEInternal.Weighted>
2.2310

> <Gold.Chemscore.Rot.Weighted>
10.2893

> <Gold.Chemscore.Internal.Correction.Weighted>
   9.000000E+99

> <Gold.Protein.RotatedTorsions>
[ 6907 6896 6895 6894 ] final  -14.05 input  -60.11 | X-H torsion
[ 7974 7965 7964 7962 ] final   99.22 input  175.53 | X-H torsion
[ 8008 7997 7996 7995 ] final  -27.70 input   59.86 | X-H torsion
[ 10167 10162 10161 10158 ] final -107.10 input  -65.29 | X-H torsion
[ 10718 10713 10712 10709 ] final  -23.40 input   66.30 | X-H torsion
[ 10763 10752 10751 10750 ] final  -10.18 input  -60.55 | X-H torsion
[ 11005 11000 10999 10996 ] final -174.74 input  -57.11 | X-H torsion

> <Gold.Protein.ActiveResidues>
 VAL166  LYS551  ARG553  GLY616  TRP617  ASP618  TYR619  PRO620  LYS621  CYS622 
 ASP623  PHE694  ASN695  SER759  ASP760  ASP761  ALA762  ILE779  LEU786  VAL792 
 PHE793  MET794  SER795  GLU796  ALA797  LYS798  CYS799  TRP800  GLU811  SER814 

> <Gold.Protein.RotatedAtoms>
  151.3454  135.0873  159.9384 H   0  0  0  0  0  0  0  0  0  0  0  0  # atno 6907 bound_to 6896
  152.5201  133.9405  159.7634 H   0  0  0  0  0  0  0  0  0  0  0  0  # atno 6908 bound_to 6896
  150.9770  133.6231  159.2758 H   0  0  0  0  0  0  0  0  0  0  0  0  # atno 6909 bound_to 6896
  145.4018  139.2346  143.3296 H   0  0  0  0  0  0  0  0  0  0  0  0  # atno 7974 bound_to 7965
  154.4365  140.1865  156.0973 H   0  0  0  0  0  0  0  0  0  0  0  0  # atno 8008 bound_to 7997
  156.0319  140.3329  155.7123 H   0  0  0  0  0  0  0  0  0  0  0  0  # atno 8009 bound_to 7997
  155.5826  140.0623  157.2770 H   0  0  0  0  0  0  0  0  0  0  0  0  # atno 8010 bound_to 7997
  140.1806  143.3969  152.1284 H   0  0  0  0  0  0  0  0  0  0  0  0  # atno 10167 bound_to 10162
  156.4916  130.4568  149.6752 H   0  0  0  0  0  0  0  0  0  0  0  0  # atno 10718 bound_to 10713
  153.4655  135.7016  153.6024 H   0  0  0  0  0  0  0  0  0  0  0  0  # atno 10763 bound_to 10752
  153.4300  135.3805  155.2165 H   0  0  0  0  0  0  0  0  0  0  0  0  # atno 10764 bound_to 10752
  154.8726  135.3948  154.4087 H   0  0  0  0  0  0  0  0  0  0  0  0  # atno 10765 bound_to 10752
  140.4711  134.6165  157.4882 H   0  0  0  0  0  0  0  0  0  0  0  0  # atno 11005 bound_to 11000
  146.2748  140.4717  142.8800 LP  0  0  0  0  0  0  0  0  0  0  0  0  # atno 17320 bound_to 7965
  144.8369  140.6796  143.6255 LP  0  0  0  0  0  0  0  0  0  0  0  0  # atno 17321 bound_to 7965
  139.5298  144.7145  151.5098 LP  0  0  0  0  0  0  0  0  0  0  0  0  # atno 17342 bound_to 10162
  140.6522  143.8673  150.6797 LP  0  0  0  0  0  0  0  0  0  0  0  0  # atno 17343 bound_to 10162
  156.3421  130.7387  151.2334 LP  0  0  0  0  0  0  0  0  0  0  0  0  # atno 17370 bound_to 10713
  157.7473  131.0401  150.4581 LP  0  0  0  0  0  0  0  0  0  0  0  0  # atno 17371 bound_to 10713
  139.9885  134.7023  155.9732 LP  0  0  0  0  0  0  0  0  0  0  0  0  # atno 17394 bound_to 11000
  141.1576  133.6541  156.4214 LP  0  0  0  0  0  0  0  0  0  0  0  0  # atno 17395 bound_to 11000

$$$$
