AV-unprocessed.smi:170|AV-procd|sdf|1411|dock1
  -GOLD-   2262019173D 1   1.00000     0.00000
 Structure written by MMmdl.
 57 61  0  0  0  0  0  0  0  0  1 V2000
  150.8583  141.3713  159.3150 O   0  0  0  0  0  0  0  0  0  0  0  0
  152.2081  141.3893  159.7403 C   0  0  1  0  0  0  0  0  0  0  0  0
  153.0176  140.3859  158.8956 C   0  0  0  0  0  0  0  0  0  0  0  0
  152.4104  139.0674  158.8665 N   0  0  0  0  0  0  0  0  0  0  0  0
  152.8026  137.9599  159.5846 C   0  0  0  0  0  0  0  0  0  0  0  0
  152.0856  136.8866  159.3885 N   0  0  0  0  0  0  0  0  0  0  0  0
  151.1296  137.2878  158.4643 C   0  0  0  0  0  0  0  0  0  0  0  0
  150.0417  136.6379  157.8270 C   0  0  0  0  0  0  0  0  0  0  0  0
  149.7340  135.3468  158.0859 N   0  0  0  0  0  0  0  0  0  0  0  0
  149.8379  134.5183  156.8893 C   0  0  0  0  0  0  0  0  0  0  0  0
  149.6484  133.0397  157.2510 C   0  0  0  0  0  0  0  0  0  0  0  0
  148.3889  132.8835  157.8901 O   0  0  0  0  0  0  0  0  0  0  0  0
  148.3139  133.6203  159.1056 C   0  0  0  0  0  0  0  0  0  0  0  0
  148.4923  135.1350  158.8409 C   0  0  1  0  0  0  0  0  0  0  0  0
  148.4572  135.9517  160.1607 C   0  0  0  0  0  0  0  0  0  0  0  0
  147.3186  135.5752  161.1066 C   0  0  0  0  0  0  0  0  0  0  0  0
  147.1795  136.2871  162.4608 C   0  0  0  0  0  0  0  0  0  0  0  0
  146.6856  134.9648  163.0533 C   0  0  0  0  0  0  0  0  0  0  0  0
  147.3908  134.2576  161.8928 C   0  0  0  0  0  0  0  0  0  0  0  0
  149.2860  137.3606  156.9581 N   0  0  0  0  0  0  0  0  0  0  0  0
  149.5820  138.6437  156.7273 C   0  0  0  0  0  0  0  0  0  0  0  0
  150.5632  139.3826  157.2514 N   0  0  0  0  0  0  0  0  0  0  0  0
  151.3185  138.6555  158.1244 C   0  0  0  0  0  0  0  0  0  0  0  0
  152.7510  142.8252  159.6183 C   0  0  1  0  0  0  0  0  0  0  0  0
  152.4796  143.4920  158.2700 C   0  0  0  0  0  0  0  0  0  0  0  0
  152.6085  144.9562  158.6233 C   0  0  0  0  0  0  0  0  0  0  0  0
  152.0062  145.0067  160.0260 C   0  0  0  0  0  0  0  0  0  0  0  0
  152.1059  143.6853  160.5530 O   0  0  0  0  0  0  0  0  0  0  0  0
  150.5117  140.5030  159.4521 H   0  0  0  0  0  0  0  0  0  0  0  0
  152.2350  141.0831  160.7870 H   0  0  0  0  0  0  0  0  0  0  0  0
  153.1237  140.7450  157.8713 H   0  0  0  0  0  0  0  0  0  0  0  0
  154.0272  140.2819  159.2944 H   0  0  0  0  0  0  0  0  0  0  0  0
  153.6431  137.9732  160.2632 H   0  0  0  0  0  0  0  0  0  0  0  0
  149.0816  134.8180  156.1618 H   0  0  0  0  0  0  0  0  0  0  0  0
  150.8128  134.6630  156.4212 H   0  0  0  0  0  0  0  0  0  0  0  0
  149.6703  132.4248  156.3513 H   0  0  0  0  0  0  0  0  0  0  0  0
  150.4511  132.6880  157.9013 H   0  0  0  0  0  0  0  0  0  0  0  0
  147.3407  133.4166  159.5511 H   0  0  0  0  0  0  0  0  0  0  0  0
  149.0672  133.2557  159.8061 H   0  0  0  0  0  0  0  0  0  0  0  0
  147.6644  135.4639  158.2107 H   0  0  0  0  0  0  0  0  0  0  0  0
  149.4111  135.8402  160.6776 H   0  0  0  0  0  0  0  0  0  0  0  0
  148.3711  137.0150  159.9349 H   0  0  0  0  0  0  0  0  0  0  0  0
  146.3559  135.6086  160.5930 H   0  0  0  0  0  0  0  0  0  0  0  0
  148.1392  136.6013  162.8751 H   0  0  0  0  0  0  0  0  0  0  0  0
  146.4504  137.0978  162.4764 H   0  0  0  0  0  0  0  0  0  0  0  0
  147.0829  134.7295  164.0410 H   0  0  0  0  0  0  0  0  0  0  0  0
  145.5999  134.8620  163.0156 H   0  0  0  0  0  0  0  0  0  0  0  0
  146.8307  133.4320  161.4527 H   0  0  0  0  0  0  0  0  0  0  0  0
  148.4124  133.9634  162.1397 H   0  0  0  0  0  0  0  0  0  0  0  0
  148.9391  139.1521  156.0239 H   0  0  0  0  0  0  0  0  0  0  0  0
  153.8228  142.8471  159.8239 H   0  0  0  0  0  0  0  0  0  0  0  0
  153.1749  143.1788  157.4907 H   0  0  0  0  0  0  0  0  0  0  0  0
  151.4651  143.2776  157.9309 H   0  0  0  0  0  0  0  0  0  0  0  0
  153.6618  145.2385  158.6573 H   0  0  0  0  0  0  0  0  0  0  0  0
  152.1020  145.6145  157.9170 H   0  0  0  0  0  0  0  0  0  0  0  0
  152.5222  145.7242  160.6645 H   0  0  0  0  0  0  0  0  0  0  0  0
  150.9527  145.2858  159.9860 H   0  0  0  0  0  0  0  0  0  0  0  0
  1  2  1  0  0  0  0
  1 29  1  0  0  0  0
  2  3  1  0  0  0  0
  2 24  1  0  0  0  0
  2 30  1  0  0  0  0
  3  4  1  0  0  0  0
  3 31  1  0  0  0  0
  3 32  1  0  0  0  0
  4 23  1  0  0  0  0
  4  5  1  0  0  0  0
  5  6  2  0  0  0  0
  5 33  1  0  0  0  0
  6  7  1  0  0  0  0
  7 23  2  0  0  0  0
  7  8  1  0  0  0  0
  8  9  1  0  0  0  0
  8 20  2  0  0  0  0
  9 14  1  0  0  0  0
  9 10  1  0  0  0  0
 10 11  1  0  0  0  0
 10 34  1  0  0  0  0
 10 35  1  0  0  0  0
 11 12  1  0  0  0  0
 11 36  1  0  0  0  0
 11 37  1  0  0  0  0
 12 13  1  0  0  0  0
 13 14  1  0  0  0  0
 13 38  1  0  0  0  0
 13 39  1  0  0  0  0
 14 15  1  0  0  0  0
 14 40  1  0  0  0  0
 15 16  1  0  0  0  0
 15 41  1  0  0  0  0
 15 42  1  0  0  0  0
 16 19  1  0  0  0  0
 16 17  1  0  0  0  0
 16 43  1  0  0  0  0
 17 18  1  0  0  0  0
 17 44  1  0  0  0  0
 17 45  1  0  0  0  0
 18 19  1  0  0  0  0
 18 46  1  0  0  0  0
 18 47  1  0  0  0  0
 19 48  1  0  0  0  0
 19 49  1  0  0  0  0
 20 21  1  0  0  0  0
 21 22  2  0  0  0  0
 21 50  1  0  0  0  0
 22 23  1  0  0  0  0
 24 28  1  0  0  0  0
 24 25  1  0  0  0  0
 24 51  1  0  0  0  0
 25 26  1  0  0  0  0
 25 52  1  0  0  0  0
 25 53  1  0  0  0  0
 26 27  1  0  0  0  0
 26 54  1  0  0  0  0
 26 55  1  0  0  0  0
 27 28  1  0  0  0  0
 27 56  1  0  0  0  0
 27 57  1  0  0  0  0
M  END
> <s_m_source_file>
AV-unprocessed.smi

> <i_m_source_file_index>
170

> <i_lp_mmshare_version>
43012

> <i_f3d_flags>
0

> <s_epik_input>
TzFbQ0gyXVtDSDJdW0NIMl1bQ0BIXTFbQ0BIXShbT0hdKVtDSDJdbihbY0hdbjIpYyhjMjMpbltjSF1uYzNONFtDSDJdW0NIMl1PW0NIMl1bQ0BIXTRbQ0gyXVtDSF01W0NIMl1bQ0gyXVtDSDJdNQ==

> <s_epik_cmdline>
J2VwaWtfcHl0aG9uJywgJy1waCcsICc3LjAnLCAnLXRuJywgJzgnLCAnLW1hJywgJzIwMCcsICctbWV0YWxfYmluZGluZycsICctaW1hZScsICc8aW5maWxlLm1hZT4nLCAnLW9tYWUnLCAnPG91dGZpbGUubWFlPic=

> <r_lp_tautomer_probability>
1

> <r_epik_Ionization_Penalty>
4.98275e-05

> <r_epik_Ionization_Penalty_Charging>
0

> <r_epik_Ionization_Penalty_Neutral>
4.98275e-05

> <r_epik_State_Penalty>
-0

> <r_epik_Charging_Adjusted_Penalty>
0

> <i_epik_Tot_Q>
0

> <i_epik_Tot_abs_Q>
0

> <r_epik_Metal_State_Penalty>
-0

> <b_epik_Metal_Only>
0

> <s_lp_Force_Field>
OPLS_2005

> <r_lp_Energy>
51.0174

> <b_lp_Chiralities_Consistent>
1

> <s_lp_Variant>
AV-unprocessed.smi:170-6

> <Gold.Version>
5.8.1

> <Gold.Id.Protein>
6NUR|6NUR_protein|mol2

> <Gold.PLP.Fitness>
50.5407

> <Gold.PLP.PLP>
-47.2528

> <Gold.PLP.part.hbond>
-3.0000

> <Gold.PLP.part.metal>
0.0000

> <Gold.PLP.part.buried>
-5.8658

> <Gold.PLP.part.nonpolar>
-40.1316

> <Gold.PLP.part.repulsive>
0.0825

> <Gold.PLP.ligand.clash>
0.0000

> <Gold.PLP.ligand.torsion>
0.5782

> <Gold.PLP.Chemscore.Hbond>
1.3592

> <Gold.PLP.Chemscore.CHOScore>
0.0000

> <Gold.PLP.Chemscore.Metal>
0.0000

> <Gold.Chemscore.Hbonds>
donor molecule, donor type, donor heavy atom, donor atom, acceptor molecule, acceptor atom, score
      P1  H  6896  6908       L1     9  0.34
      P1  H  6896  6909       L1     6  1.00

> <Gold.PLP.Chemscore.Internal.Correction>
0.3668

> <Gold.Rescore>
     Score         DG    S(hbond)    S(metal)    S(lipo)     H(rot)  DE(clash)    DE(int)     intcor
     15.54     -16.37       0.82        0.00     126.72       2.61       0.13       0.70       ----

> <Gold.Chemscore.Fitness>
15.5371

> <Gold.Chemscore.DG>
-16.3675

> <Gold.Chemscore.ZeroCoef>
-5.4800

> <Gold.Chemscore.Hbond>
0.8248

> <Gold.Chemscore.Metal>
0.0000

> <Gold.Chemscore.Lipo>
126.7150

> <Gold.Chemscore.Internal_Hbond>
0.0000

> <Gold.Chemscore.DEClash>
0.1254

> <Gold.Chemscore.DEInternal>
0.7050

> <Gold.Chemscore.Rot>
2.6144

> <Gold.Chemscore.Internal.Correction>
   9.000000E+99

> <Gold.Chemscore.Hbonds>
donor molecule, donor type, donor heavy atom, donor atom, acceptor molecule, acceptor atom, score
      P1  H  6896  6909       L1     6  0.87

> <Gold.Chemscore.Hbond.Weighted>
-2.7548

> <Gold.Chemscore.Metal.Weighted>
-0.0000

> <Gold.Chemscore.Lipo.Weighted>
-14.8257

> <Gold.Chemscore.Internal_Hbond.Weighted>
0.0000

> <Gold.Chemscore.DEClash.Weighted>
0.1254

> <Gold.Chemscore.DEInternal.Weighted>
0.7050

> <Gold.Chemscore.Rot.Weighted>
6.6929

> <Gold.Chemscore.Internal.Correction.Weighted>
   9.000000E+99

> <Gold.Protein.RotatedTorsions>
[ 6907 6896 6895 6894 ] final  141.42 input  -60.11 | X-H torsion
[ 7974 7965 7964 7962 ] final -174.66 input  175.53 | X-H torsion
[ 8008 7997 7996 7995 ] final   45.92 input   59.86 | X-H torsion
[ 10167 10162 10161 10158 ] final  174.96 input  -65.29 | X-H torsion
[ 10718 10713 10712 10709 ] final -137.08 input   66.30 | X-H torsion
[ 10763 10752 10751 10750 ] final   27.41 input  -60.55 | X-H torsion
[ 11005 11000 10999 10996 ] final  143.15 input  -57.11 | X-H torsion

> <Gold.Protein.ActiveResidues>
 VAL166  LYS551  ARG553  GLY616  TRP617  ASP618  TYR619  PRO620  LYS621  CYS622 
 ASP623  PHE694  ASN695  SER759  ASP760  ASP761  ALA762  ILE779  LEU786  VAL792 
 PHE793  MET794  SER795  GLU796  ALA797  LYS798  CYS799  TRP800  GLU811  SER814 

> <Gold.Protein.RotatedAtoms>
  152.2312  133.5059  159.5216 H   0  0  0  0  0  0  0  0  0  0  0  0  # atno 6907 bound_to 6896
  150.7038  134.1214  159.4045 H   0  0  0  0  0  0  0  0  0  0  0  0  # atno 6908 bound_to 6896
  151.9135  135.0328  160.0567 H   0  0  0  0  0  0  0  0  0  0  0  0  # atno 6909 bound_to 6896
  144.7131  140.1439  143.6389 H   0  0  0  0  0  0  0  0  0  0  0  0  # atno 7974 bound_to 7965
  155.3439  140.3409  155.4239 H   0  0  0  0  0  0  0  0  0  0  0  0  # atno 8008 bound_to 7997
  156.1799  140.1660  156.8330 H   0  0  0  0  0  0  0  0  0  0  0  0  # atno 8009 bound_to 7997
  154.5322  140.0743  156.8348 H   0  0  0  0  0  0  0  0  0  0  0  0  # atno 8010 bound_to 7997
  139.5160  144.3086  152.0312 H   0  0  0  0  0  0  0  0  0  0  0  0  # atno 10167 bound_to 10162
  156.2842  130.7338  151.1344 H   0  0  0  0  0  0  0  0  0  0  0  0  # atno 10718 bound_to 10713
  153.0558  135.6537  154.0582 H   0  0  0  0  0  0  0  0  0  0  0  0  # atno 10763 bound_to 10752
  154.0261  135.2915  155.3376 H   0  0  0  0  0  0  0  0  0  0  0  0  # atno 10764 bound_to 10752
  154.6871  135.5297  153.8409 H   0  0  0  0  0  0  0  0  0  0  0  0  # atno 10765 bound_to 10752
  140.0531  134.9245  157.1053 H   0  0  0  0  0  0  0  0  0  0  0  0  # atno 11005 bound_to 11000
  145.9177  139.2526  143.1400 LP  0  0  0  0  0  0  0  0  0  0  0  0  # atno 17320 bound_to 7965
  145.9652  140.8804  143.0191 LP  0  0  0  0  0  0  0  0  0  0  0  0  # atno 17321 bound_to 7965
  140.2531  144.4147  150.6214 LP  0  0  0  0  0  0  0  0  0  0  0  0  # atno 17342 bound_to 10162
  140.6210  143.2176  151.6694 LP  0  0  0  0  0  0  0  0  0  0  0  0  # atno 17343 bound_to 10162
  157.7323  131.0600  150.5632 LP  0  0  0  0  0  0  0  0  0  0  0  0  # atno 17370 bound_to 10713
  156.5742  130.4287  149.6006 LP  0  0  0  0  0  0  0  0  0  0  0  0  # atno 17371 bound_to 10713
  140.3886  134.2209  155.7167 LP  0  0  0  0  0  0  0  0  0  0  0  0  # atno 17394 bound_to 11000
  141.1940  133.8139  157.0777 LP  0  0  0  0  0  0  0  0  0  0  0  0  # atno 17395 bound_to 11000

$$$$
