AV-unprocessed.smi:2226|AV-procd|sdf|9013|dock4
  -GOLD-   2272012213D 1   1.00000     0.00000
 Structure written by MMmdl.
 40 42  0  0  0  0  0  0  0  0  2 V2000
  146.7966  138.7982  152.1222 C   0  0  0  0  0  0  0  0  0  0  0  0
  147.5324  138.2193  153.2715 N   0  3  2  0  0  0  0  0  0  0  0  0
  146.7179  137.3594  154.1627 C   0  0  2  0  0  0  0  0  0  0  0  0
  145.6957  138.1934  154.9755 C   0  0  0  0  0  0  0  0  0  0  0  0
  146.3077  139.3962  155.7166 C   0  0  0  0  0  0  0  0  0  0  0  0
  147.3682  140.1337  154.8798 C   0  0  0  0  0  0  0  0  0  0  0  0
  148.3039  139.1977  154.0749 C   0  0  1  0  0  0  0  0  0  0  0  0
  149.3598  138.4416  154.9150 C   0  0  0  0  0  0  0  0  0  0  0  0
  148.8419  137.2001  155.6929 C   0  0  1  0  0  0  0  0  0  0  0  0
  148.5473  137.4862  157.0949 N   0  0  0  0  0  0  0  0  0  0  0  0
  148.3620  136.5838  158.0705 C   0  0  0  0  0  0  0  0  0  0  0  0
  148.4255  135.3700  157.8511 O   0  0  0  0  0  0  0  0  0  0  0  0
  148.1326  137.2312  159.2759 N   0  0  0  0  0  0  0  0  0  0  0  0
  147.8826  136.5396  160.3455 C   0  0  0  0  0  0  0  0  0  0  0  0
  147.7966  135.1721  160.5936 N   0  0  0  0  0  0  0  0  0  0  0  0
  147.5080  134.9963  161.9180 C   0  0  0  0  0  0  0  0  0  0  0  0
  147.4170  136.1966  162.4825 C   0  0  0  0  0  0  0  0  0  0  0  0
  147.6424  137.1602  161.5455 O   0  0  0  0  0  0  0  0  0  0  0  0
  147.6621  136.4682  155.0034 C   0  0  0  0  0  0  0  0  0  0  0  0
  146.0133  139.4869  152.4370 H   0  0  0  0  0  0  0  0  0  0  0  0
  146.3329  138.0078  151.5313 H   0  0  0  0  0  0  0  0  0  0  0  0
  147.4793  139.3404  151.4673 H   0  0  0  0  0  0  0  0  0  0  0  0
  146.1416  136.6802  153.5323 H   0  0  0  0  0  0  0  0  0  0  0  0
  144.9298  138.5660  154.2947 H   0  0  0  0  0  0  0  0  0  0  0  0
  145.1657  137.5544  155.6825 H   0  0  0  0  0  0  0  0  0  0  0  0
  145.5155  140.0928  155.9923 H   0  0  0  0  0  0  0  0  0  0  0  0
  146.7283  139.0823  156.6657 H   0  0  0  0  0  0  0  0  0  0  0  0
  146.8542  140.7975  154.1840 H   0  0  0  0  0  0  0  0  0  0  0  0
  147.9554  140.7894  155.5238 H   0  0  0  0  0  0  0  0  0  0  0  0
  148.8624  139.8286  153.3816 H   0  0  0  0  0  0  0  0  0  0  0  0
  150.1213  138.0856  154.2195 H   0  0  0  0  0  0  0  0  0  0  0  0
  149.8858  139.1335  155.5739 H   0  0  0  0  0  0  0  0  0  0  0  0
  149.6622  136.4800  155.7223 H   0  0  0  0  0  0  0  0  0  0  0  0
  148.4822  138.4609  157.3513 H   0  0  0  0  0  0  0  0  0  0  0  0
  147.9150  134.4093  159.9423 H   0  0  0  0  0  0  0  0  0  0  0  0
  147.3954  134.0027  162.3261 H   0  0  0  0  0  0  0  0  0  0  0  0
  147.2083  136.5184  163.4921 H   0  0  0  0  0  0  0  0  0  0  0  0
  147.0926  135.8804  155.7248 H   0  0  0  0  0  0  0  0  0  0  0  0
  148.0947  135.7346  154.3213 H   0  0  0  0  0  0  0  0  0  0  0  0
  148.2187  137.6074  152.8535 H   0  0  0  0  0  0  0  0  0  0  0  0
  1  2  1  0  0  0  0
  1 20  1  0  0  0  0
  1 21  1  0  0  0  0
  1 22  1  0  0  0  0
  2  7  1  0  0  0  0
  2  3  1  0  0  0  0
  2 40  1  0  0  0  0
  3 19  1  0  0  0  0
  3  4  1  0  0  0  0
  3 23  1  0  0  0  0
  4  5  1  0  0  0  0
  4 24  1  0  0  0  0
  4 25  1  0  0  0  0
  5  6  1  0  0  0  0
  5 26  1  0  0  0  0
  5 27  1  0  0  0  0
  6  7  1  0  0  0  0
  6 28  1  0  0  0  0
  6 29  1  0  0  0  0
  7  8  1  0  0  0  0
  7 30  1  0  0  0  0
  8  9  1  0  0  0  0
  8 31  1  0  0  0  0
  8 32  1  0  0  0  0
  9 10  1  0  0  0  0
  9 19  1  0  0  0  0
  9 33  1  0  0  0  0
 10 34  1  0  0  0  0
 10 11  1  0  0  0  0
 11 13  1  0  0  0  0
 11 12  2  0  0  0  0
 13 14  2  0  0  0  0
 14 18  1  0  0  0  0
 14 15  1  0  0  0  0
 15 35  1  0  0  0  0
 15 16  1  0  0  0  0
 16 36  1  0  0  0  0
 16 17  2  0  0  0  0
 17 37  1  0  0  0  0
 17 18  1  0  0  0  0
 19 38  1  0  0  0  0
 19 39  1  0  0  0  0
M  CHG  1   2   1
M  END
> <s_m_source_file>
AV-unprocessed.smi

> <i_m_source_file_index>
2226

> <i_lp_mmshare_version>
43012

> <i_f3d_flags>
0

> <s_epik_input>
W0NIMl0xW0NIMl1bQ0gyXVtDQEhdKE4oW0NIM10pW0NIXTEyKVtDSDJdW0NASF0oW0NIMl0yKVtOSF1DKD1PKVtOSF1jM25bY0hdW2NIXW8z

> <s_epik_cmdline>
J2VwaWtfcHl0aG9uJywgJy1waCcsICc3LjAnLCAnLXRuJywgJzgnLCAnLW1hJywgJzIwMCcsICctbWV0YWxfYmluZGluZycsICctaW1hZScsICc8aW5maWxlLm1hZT4nLCAnLW9tYWUnLCAnPG91dGZpbGUubWFlPic=

> <r_lp_tautomer_probability>
0.107061

> <r_epik_Ionization_Penalty>
1.08307

> <r_epik_Ionization_Penalty_Charging>
1.08272

> <r_epik_Ionization_Penalty_Neutral>
0.000345913

> <r_epik_State_Penalty>
2.5744

> <r_epik_Charging_Adjusted_Penalty>
3.65713

> <i_epik_Tot_Q>
1

> <i_epik_Tot_abs_Q>
1

> <r_epik_Metal_State_Penalty>
3.72133

> <b_epik_Metal_Only>
0

> <s_lp_Force_Field>
OPLS_2005

> <r_lp_Energy>
59.8025

> <b_lp_Chiralities_Consistent>
1

> <s_lp_Variant>
AV-unprocessed.smi:2226-13

> <Gold.Version>
5.8.1

> <Gold.Id.Protein>
6NUR|6NUR_protein|mol2

> <Gold.PLP.Fitness>
34.6354

> <Gold.PLP.PLP>
-23.4958

> <Gold.PLP.part.hbond>
-3.1476

> <Gold.PLP.part.metal>
0.0000

> <Gold.PLP.part.buried>
-3.2572

> <Gold.PLP.part.nonpolar>
-16.5491

> <Gold.PLP.part.repulsive>
0.1349

> <Gold.PLP.ligand.clash>
0.0000

> <Gold.PLP.ligand.torsion>
0.1079

> <Gold.PLP.Chemscore.Hbond>
3.7680

> <Gold.PLP.Chemscore.CHOScore>
0.0000

> <Gold.PLP.Chemscore.Metal>
0.0000

> <Gold.Chemscore.Hbonds>
donor molecule, donor type, donor heavy atom, donor atom, acceptor molecule, acceptor atom, score
      L1  H     2    40       P1  7948  2.00
      P1  H  6931  6943       L1    18  1.00
      P1  H  6934  6947       L1    18  0.78

> <Gold.PLP.Chemscore.Internal.Correction>
0.0513

> <Gold.Rescore>
     Score         DG    S(hbond)    S(metal)    S(lipo)     H(rot)  DE(clash)    DE(int)     intcor
     16.46     -17.03       2.42        0.00      51.45       1.00       0.45       0.11       ----

> <Gold.Chemscore.Fitness>
16.4632

> <Gold.Chemscore.DG>
-17.0303

> <Gold.Chemscore.ZeroCoef>
-5.4800

> <Gold.Chemscore.Hbond>
2.4222

> <Gold.Chemscore.Metal>
0.0000

> <Gold.Chemscore.Lipo>
51.4535

> <Gold.Chemscore.Internal_Hbond>
0.0000

> <Gold.Chemscore.DEClash>
0.4536

> <Gold.Chemscore.DEInternal>
0.1134

> <Gold.Chemscore.Rot>
1.0000

> <Gold.Chemscore.Internal.Correction>
   9.000000E+99

> <Gold.Chemscore.Hbonds>
donor molecule, donor type, donor heavy atom, donor atom, acceptor molecule, acceptor atom, score
      L1  H     2    40       P1  7948  1.00
      P1  H  6931  6943       L1    18  0.60
      P1  H  6934  6947       L1    18  0.26

> <Gold.Chemscore.Hbond.Weighted>
-8.0902

> <Gold.Chemscore.Metal.Weighted>
-0.0000

> <Gold.Chemscore.Lipo.Weighted>
-6.0201

> <Gold.Chemscore.Internal_Hbond.Weighted>
0.0000

> <Gold.Chemscore.DEClash.Weighted>
0.4536

> <Gold.Chemscore.DEInternal.Weighted>
0.1134

> <Gold.Chemscore.Rot.Weighted>
2.5600

> <Gold.Chemscore.Internal.Correction.Weighted>
   9.000000E+99

> <Gold.Protein.RotatedTorsions>
[ 6907 6896 6895 6894 ] final  -65.89 input  -60.11 | X-H torsion
[ 7974 7965 7964 7962 ] final   17.01 input  175.53 | X-H torsion
[ 8008 7997 7996 7995 ] final   51.30 input   59.86 | X-H torsion
[ 10167 10162 10161 10158 ] final   36.08 input  -65.29 | X-H torsion
[ 10718 10713 10712 10709 ] final   29.54 input   66.30 | X-H torsion
[ 10763 10752 10751 10750 ] final  122.15 input  -60.55 | X-H torsion
[ 11005 11000 10999 10996 ] final -130.79 input  -57.11 | X-H torsion

> <Gold.Protein.ActiveResidues>
 VAL166  LYS551  ARG553  GLY616  TRP617  ASP618  TYR619  PRO620  LYS621  CYS622 
 ASP623  PHE694  ASN695  SER759  ASP760  ASP761  ALA762  ILE779  LEU786  VAL792 
 PHE793  MET794  SER795  GLU796  ALA797  LYS798  CYS799  TRP800  GLU811  SER814 

> <Gold.Protein.RotatedAtoms>
  150.7497  134.6097  159.6079 H   0  0  0  0  0  0  0  0  0  0  0  0  # atno 6907 bound_to 6896
  152.3435  134.7100  160.0266 H   0  0  0  0  0  0  0  0  0  0  0  0  # atno 6908 bound_to 6896
  151.7545  133.3293  159.3437 H   0  0  0  0  0  0  0  0  0  0  0  0  # atno 6909 bound_to 6896
  146.2232  139.8664  142.8595 H   0  0  0  0  0  0  0  0  0  0  0  0  # atno 7974 bound_to 7965
  155.4330  140.3451  155.4282 H   0  0  0  0  0  0  0  0  0  0  0  0  # atno 8008 bound_to 7997
  156.1325  140.1518  156.9075 H   0  0  0  0  0  0  0  0  0  0  0  0  # atno 8009 bound_to 7997
  154.4905  140.0842  156.7564 H   0  0  0  0  0  0  0  0  0  0  0  0  # atno 8010 bound_to 7997
  140.4161  144.1525  150.6143 H   0  0  0  0  0  0  0  0  0  0  0  0  # atno 10167 bound_to 10162
  157.2480  130.7101  149.6391 H   0  0  0  0  0  0  0  0  0  0  0  0  # atno 10718 bound_to 10713
  153.6252  135.3406  155.3024 H   0  0  0  0  0  0  0  0  0  0  0  0  # atno 10763 bound_to 10752
  154.8592  135.4282  154.2164 H   0  0  0  0  0  0  0  0  0  0  0  0  # atno 10764 bound_to 10752
  153.3047  135.7027  153.7244 H   0  0  0  0  0  0  0  0  0  0  0  0  # atno 10765 bound_to 10752
  140.9315  134.1313  157.4230 H   0  0  0  0  0  0  0  0  0  0  0  0  # atno 11005 bound_to 11000
  145.2652  141.0090  143.3803 LP  0  0  0  0  0  0  0  0  0  0  0  0  # atno 17320 bound_to 7965
  144.9267  139.4347  143.6515 LP  0  0  0  0  0  0  0  0  0  0  0  0  # atno 17321 bound_to 7965
  140.4585  143.2458  151.9252 LP  0  0  0  0  0  0  0  0  0  0  0  0  # atno 17342 bound_to 10162
  139.4782  144.5492  151.8412 LP  0  0  0  0  0  0  0  0  0  0  0  0  # atno 17343 bound_to 10162
  155.9667  130.4437  150.5431 LP  0  0  0  0  0  0  0  0  0  0  0  0  # atno 17370 bound_to 10713
  157.3309  131.0699  151.1862 LP  0  0  0  0  0  0  0  0  0  0  0  0  # atno 17371 bound_to 10713
  139.8797  135.0006  156.6022 LP  0  0  0  0  0  0  0  0  0  0  0  0  # atno 17394 bound_to 11000
  140.7856  133.8624  155.8603 LP  0  0  0  0  0  0  0  0  0  0  0  0  # atno 17395 bound_to 11000

$$$$
