AV-unprocessed.smi:1769|AV-procd|sdf|7153|dock5
  -GOLD-   22720 8393D 1   1.00000     0.00000
 Structure written by MMmdl.
 42 43  0  0  0  0  0  0  0  0  2 V2000
  150.7453  140.7185  156.4893 C   0  0  0  0  0  0  0  0  0  0  0  0
  150.2825  139.8147  155.3442 C   0  0  0  0  0  0  0  0  0  0  0  0
  150.6246  138.6322  155.3665 O   0  0  0  0  0  0  0  0  0  0  0  0
  149.5157  140.3367  154.3567 N   0  0  0  0  0  0  0  0  0  0  0  0
  149.0092  141.7145  154.3134 C   0  0  0  0  0  0  0  0  0  0  0  0
  147.4930  141.6893  154.5753 C   0  0  0  0  0  0  0  0  0  0  0  0
  146.7755  140.7732  153.5657 C   0  0  0  0  0  0  0  0  0  0  0  0
  147.4353  139.3755  153.4866 C   0  0  1  0  0  0  0  0  0  0  0  0
  146.8026  138.5253  152.3772 C   0  0  0  0  0  0  0  0  0  0  0  0
  146.8836  138.8788  151.2003 O   0  0  0  0  0  0  0  0  0  0  0  0
  146.1724  137.4054  152.7645 N   0  0  0  0  0  0  0  0  0  0  0  0
  145.5080  136.4697  151.8653 C   0  0  0  0  0  0  0  0  0  0  0  0
  146.2696  135.1371  151.7758 C   0  0  0  0  0  0  0  0  0  0  0  0
  145.4401  134.0478  151.1249 C   0  0  0  0  0  0  0  0  0  0  0  0
  145.9170  132.7194  151.0723 C   0  0  0  0  0  0  0  0  0  0  0  0
  145.1241  131.7234  150.4651 C   0  0  0  0  0  0  0  0  0  0  0  0
  143.8713  132.0784  149.9244 C   0  0  0  0  0  0  0  0  0  0  0  0
  143.4479  133.3601  149.9935 N   0  3  0  0  0  0  0  0  0  0  0  0
  144.1775  134.3427  150.5663 C   0  0  0  0  0  0  0  0  0  0  0  0
  148.9588  139.5208  153.2703 C   0  0  0  0  0  0  0  0  0  0  0  0
  149.8913  141.1540  157.0088 H   0  0  0  0  0  0  0  0  0  0  0  0
  151.3810  141.5212  156.1151 H   0  0  0  0  0  0  0  0  0  0  0  0
  151.3224  140.1492  157.2188 H   0  0  0  0  0  0  0  0  0  0  0  0
  149.4977  142.3833  155.0204 H   0  0  0  0  0  0  0  0  0  0  0  0
  149.2096  142.1383  153.3283 H   0  0  0  0  0  0  0  0  0  0  0  0
  147.3043  141.3355  155.5898 H   0  0  0  0  0  0  0  0  0  0  0  0
  147.0848  142.6987  154.5180 H   0  0  0  0  0  0  0  0  0  0  0  0
  145.7230  140.6802  153.8363 H   0  0  0  0  0  0  0  0  0  0  0  0
  146.7991  141.2517  152.5851 H   0  0  0  0  0  0  0  0  0  0  0  0
  147.2753  138.8705  154.4414 H   0  0  0  0  0  0  0  0  0  0  0  0
  146.1562  137.1857  153.7502 H   0  0  0  0  0  0  0  0  0  0  0  0
  144.4809  136.3026  152.1952 H   0  0  0  0  0  0  0  0  0  0  0  0
  145.4456  136.9309  150.8794 H   0  0  0  0  0  0  0  0  0  0  0  0
  147.1922  135.2714  151.2093 H   0  0  0  0  0  0  0  0  0  0  0  0
  146.5671  134.8025  152.7707 H   0  0  0  0  0  0  0  0  0  0  0  0
  146.8788  132.4647  151.4941 H   0  0  0  0  0  0  0  0  0  0  0  0
  145.4724  130.7021  150.4162 H   0  0  0  0  0  0  0  0  0  0  0  0
  143.2001  131.3819  149.4432 H   0  0  0  0  0  0  0  0  0  0  0  0
  143.7310  135.3266  150.5617 H   0  0  0  0  0  0  0  0  0  0  0  0
  149.1678  140.0079  152.3161 H   0  0  0  0  0  0  0  0  0  0  0  0
  149.4269  138.5370  153.2060 H   0  0  0  0  0  0  0  0  0  0  0  0
  142.5379  133.5954  149.5964 H   0  0  0  0  0  0  0  0  0  0  0  0
  1  2  1  0  0  0  0
  1 21  1  0  0  0  0
  1 22  1  0  0  0  0
  1 23  1  0  0  0  0
  2  3  2  0  0  0  0
  2  4  1  0  0  0  0
  4 20  1  0  0  0  0
  4  5  1  0  0  0  0
  5  6  1  0  0  0  0
  5 24  1  0  0  0  0
  5 25  1  0  0  0  0
  6  7  1  0  0  0  0
  6 26  1  0  0  0  0
  6 27  1  0  0  0  0
  7  8  1  0  0  0  0
  7 28  1  0  0  0  0
  7 29  1  0  0  0  0
  8  9  1  0  0  0  0
  8 20  1  0  0  0  0
  8 30  1  0  0  0  0
  9 10  2  0  0  0  0
  9 11  1  0  0  0  0
 11 12  1  0  0  0  0
 11 31  1  0  0  0  0
 12 13  1  0  0  0  0
 12 32  1  0  0  0  0
 12 33  1  0  0  0  0
 13 14  1  0  0  0  0
 13 34  1  0  0  0  0
 13 35  1  0  0  0  0
 14 19  1  0  0  0  0
 14 15  2  0  0  0  0
 15 16  1  0  0  0  0
 15 36  1  0  0  0  0
 16 17  2  0  0  0  0
 16 37  1  0  0  0  0
 17 18  1  0  0  0  0
 17 38  1  0  0  0  0
 18 19  2  0  0  0  0
 18 42  1  0  0  0  0
 19 39  1  0  0  0  0
 20 40  1  0  0  0  0
 20 41  1  0  0  0  0
M  CHG  1  18   1
M  END
> <s_m_source_file>
AV-unprocessed.smi

> <i_m_source_file_index>
1769

> <i_lp_mmshare_version>
43012

> <i_f3d_flags>
0

> <s_epik_input>
W0NIM11DKD1PKU4xW0NIMl1bQ0gyXVtDSDJdW0NASF0oW0NIMl0xKUMoPU8pW05IXVtDSDJdW0NIMl1jMltjSF1bY0hdW2NIXW5bY0hdMg==

> <s_epik_cmdline>
J2VwaWtfcHl0aG9uJywgJy1waCcsICc3LjAnLCAnLXRuJywgJzgnLCAnLW1hJywgJzIwMCcsICctbWV0YWxfYmluZGluZycsICctaW1hZScsICc8aW5maWxlLm1hZT4nLCAnLW9tYWUnLCAnPG91dGZpbGUubWFlPic=

> <r_epik_Ionization_Penalty>
2.25127

> <r_epik_Ionization_Penalty_Charging>
2.25127

> <r_epik_Ionization_Penalty_Neutral>
1.02261e-06

> <r_epik_State_Penalty>
2.39841

> <r_epik_Charging_Adjusted_Penalty>
4.64968

> <i_epik_Tot_Q>
1

> <i_epik_Tot_abs_Q>
1

> <r_epik_Metal_State_Penalty>
2.41159

> <b_epik_Metal_Only>
0

> <s_lp_Force_Field>
OPLS_2005

> <r_lp_Energy>
29.7946

> <b_lp_Chiralities_Consistent>
1

> <s_lp_Variant>
AV-unprocessed.smi:1769-3

> <Gold.Version>
5.8.1

> <Gold.Id.Protein>
6NUR|6NUR_protein|mol2

> <Gold.PLP.Fitness>
42.6874

> <Gold.PLP.PLP>
-34.1829

> <Gold.PLP.part.hbond>
-2.5486

> <Gold.PLP.part.metal>
0.0000

> <Gold.PLP.part.buried>
5.3917

> <Gold.PLP.part.nonpolar>
-39.0370

> <Gold.PLP.part.repulsive>
2.0843

> <Gold.PLP.ligand.clash>
0.0000

> <Gold.PLP.ligand.torsion>
0.1446

> <Gold.PLP.Chemscore.Hbond>
2.9199

> <Gold.PLP.Chemscore.CHOScore>
0.0000

> <Gold.PLP.Chemscore.Metal>
0.0000

> <Gold.Chemscore.Hbonds>
donor molecule, donor type, donor heavy atom, donor atom, acceptor molecule, acceptor atom, score
      L1  H    18    42       P1 10186  2.00
      P1  H  7954  7966       L1    10  0.80

> <Gold.PLP.Chemscore.Internal.Correction>
0.0341

> <Gold.Rescore>
     Score         DG    S(hbond)    S(metal)    S(lipo)     H(rot)  DE(clash)    DE(int)     intcor
     15.15     -18.27       1.86        0.00      91.50       1.61       2.94       0.19       ----

> <Gold.Chemscore.Fitness>
15.1451

> <Gold.Chemscore.DG>
-18.2711

> <Gold.Chemscore.ZeroCoef>
-5.4800

> <Gold.Chemscore.Hbond>
1.8586

> <Gold.Chemscore.Metal>
0.0000

> <Gold.Chemscore.Lipo>
91.4957

> <Gold.Chemscore.Internal_Hbond>
0.0000

> <Gold.Chemscore.DEClash>
2.9393

> <Gold.Chemscore.DEInternal>
0.1867

> <Gold.Chemscore.Rot>
1.6100

> <Gold.Chemscore.Internal.Correction>
   9.000000E+99

> <Gold.Chemscore.Hbonds>
donor molecule, donor type, donor heavy atom, donor atom, acceptor molecule, acceptor atom, score
      L1  H    18    42       P1 10186  0.98
      P1  H  7954  7966       L1    10  0.75

> <Gold.Chemscore.Hbond.Weighted>
-6.2077

> <Gold.Chemscore.Metal.Weighted>
-0.0000

> <Gold.Chemscore.Lipo.Weighted>
-10.7050

> <Gold.Chemscore.Internal_Hbond.Weighted>
0.0000

> <Gold.Chemscore.DEClash.Weighted>
2.9393

> <Gold.Chemscore.DEInternal.Weighted>
0.1867

> <Gold.Chemscore.Rot.Weighted>
4.1216

> <Gold.Chemscore.Internal.Correction.Weighted>
   9.000000E+99

> <Gold.Protein.RotatedTorsions>
[ 6907 6896 6895 6894 ] final  137.22 input  -60.11 | X-H torsion
[ 7974 7965 7964 7962 ] final  -86.12 input  175.53 | X-H torsion
[ 8008 7997 7996 7995 ] final    0.68 input   59.86 | X-H torsion
[ 10167 10162 10161 10158 ] final -111.86 input  -65.29 | X-H torsion
[ 10718 10713 10712 10709 ] final  116.02 input   66.30 | X-H torsion
[ 10763 10752 10751 10750 ] final   45.08 input  -60.55 | X-H torsion
[ 11005 11000 10999 10996 ] final  159.12 input  -57.11 | X-H torsion

> <Gold.Protein.ActiveResidues>
 VAL166  LYS551  ARG553  GLY616  TRP617  ASP618  TYR619  PRO620  LYS621  CYS622 
 ASP623  PHE694  ASN695  SER759  ASP760  ASP761  ALA762  ILE779  LEU786  VAL792 
 PHE793  MET794  SER795  GLU796  ALA797  LYS798  CYS799  TRP800  GLU811  SER814 

> <Gold.Protein.RotatedAtoms>
  152.2806  133.5466  159.5494 H   0  0  0  0  0  0  0  0  0  0  0  0  # atno 6907 bound_to 6896
  150.7194  134.0570  159.3827 H   0  0  0  0  0  0  0  0  0  0  0  0  # atno 6908 bound_to 6896
  151.8481  135.0567  160.0506 H   0  0  0  0  0  0  0  0  0  0  0  0  # atno 6909 bound_to 6896
  145.4841  140.9556  143.1848 H   0  0  0  0  0  0  0  0  0  0  0  0  # atno 7974 bound_to 7965
  154.6709  140.2612  155.7008 H   0  0  0  0  0  0  0  0  0  0  0  0  # atno 8008 bound_to 7997
  156.2658  140.2829  156.1140 H   0  0  0  0  0  0  0  0  0  0  0  0  # atno 8009 bound_to 7997
  155.1169  140.0376  157.2729 H   0  0  0  0  0  0  0  0  0  0  0  0  # atno 8010 bound_to 7997
  140.1290  143.4377  152.1640 H   0  0  0  0  0  0  0  0  0  0  0  0  # atno 10167 bound_to 10162
  157.6187  131.1020  150.7412 H   0  0  0  0  0  0  0  0  0  0  0  0  # atno 10718 bound_to 10713
  152.9830  135.6050  154.3379 H   0  0  0  0  0  0  0  0  0  0  0  0  # atno 10763 bound_to 10752
  154.3078  135.2771  155.2582 H   0  0  0  0  0  0  0  0  0  0  0  0  # atno 10764 bound_to 10752
  154.4805  135.5918  153.6442 H   0  0  0  0  0  0  0  0  0  0  0  0  # atno 10765 bound_to 10752
  140.1931  134.8393  157.2934 H   0  0  0  0  0  0  0  0  0  0  0  0  # atno 11005 bound_to 11000
  144.7872  139.6403  143.7129 LP  0  0  0  0  0  0  0  0  0  0  0  0  # atno 17320 bound_to 7965
  146.2323  139.5838  142.9547 LP  0  0  0  0  0  0  0  0  0  0  0  0  # atno 17321 bound_to 7965
  139.5529  144.7351  151.4380 LP  0  0  0  0  0  0  0  0  0  0  0  0  # atno 17342 bound_to 10162
  140.6828  143.8043  150.7144 LP  0  0  0  0  0  0  0  0  0  0  0  0  # atno 17343 bound_to 10162
  156.7774  130.4848  149.5407 LP  0  0  0  0  0  0  0  0  0  0  0  0  # atno 17370 bound_to 10713
  156.1321  130.6185  151.0348 LP  0  0  0  0  0  0  0  0  0  0  0  0  # atno 17371 bound_to 10713
  140.2138  134.4107  155.7599 LP  0  0  0  0  0  0  0  0  0  0  0  0  # atno 17394 bound_to 11000
  141.2226  133.7131  156.8380 LP  0  0  0  0  0  0  0  0  0  0  0  0  # atno 17395 bound_to 11000

$$$$
