AV-unprocessed.smi:2666|AV-procd|sdf|10333|dock3
  -GOLD-   2272014353D 1   1.00000     0.00000
 Structure written by MMmdl.
 43 44  0  0  0  0  0  0  0  0  1 V2000
  144.4281  136.6325  152.4993 O   0  0  0  0  0  0  0  0  0  0  0  0
  145.6317  136.4885  152.2876 C   0  0  0  0  0  0  0  0  0  0  0  0
  146.1910  135.4221  151.6907 N   0  0  0  0  0  0  0  0  0  0  0  0
  145.5463  134.2753  151.1535 C   0  0  0  0  0  0  0  0  0  0  0  0
  146.3444  133.3006  150.5198 C   0  0  0  0  0  0  0  0  0  0  0  0
  145.7276  132.1632  149.9649 C   0  0  0  0  0  0  0  0  0  0  0  0
  144.3269  132.0494  150.0568 C   0  0  0  0  0  0  0  0  0  0  0  0
  143.5461  132.9804  150.6442 N   0  0  0  0  0  0  0  0  0  0  0  0
  144.1446  134.0678  151.1767 C   0  0  0  0  0  0  0  0  0  0  0  0
  146.5647  137.3809  152.6527 N   0  0  0  0  0  0  0  0  0  0  0  0
  146.3221  138.6502  153.3448 C   0  0  1  0  0  0  0  0  0  0  0  0
  145.7024  138.3551  154.7348 C   0  0  0  0  0  0  0  0  0  0  0  0
  144.1677  138.2228  154.7522 C   0  0  0  0  0  0  0  0  0  0  0  0
  143.5598  139.4699  154.4899 O   0  0  0  0  0  0  0  0  0  0  0  0
  147.6388  139.4783  153.4124 C   0  0  0  0  0  0  0  0  0  0  0  0
  148.7378  138.7789  154.2505 C   0  0  0  0  0  0  0  0  0  0  0  0
  150.0305  139.6070  154.3342 C   0  0  0  0  0  0  0  0  0  0  0  0
  149.7619  141.0100  154.8910 C   0  0  0  0  0  0  0  0  0  0  0  0
  148.6994  141.7282  154.0511 C   0  0  0  0  0  0  0  0  0  0  0  0
  147.4033  140.9064  153.9700 C   0  0  0  0  0  0  0  0  0  0  0  0
  147.1999  135.4032  151.6682 H   0  0  0  0  0  0  0  0  0  0  0  0
  147.4169  133.4171  150.4631 H   0  0  0  0  0  0  0  0  0  0  0  0
  146.3135  131.3966  149.4798 H   0  0  0  0  0  0  0  0  0  0  0  0
  143.8198  131.1910  149.6416 H   0  0  0  0  0  0  0  0  0  0  0  0
  143.4676  134.7883  151.6084 H   0  0  0  0  0  0  0  0  0  0  0  0
  147.5270  137.1679  152.4349 H   0  0  0  0  0  0  0  0  0  0  0  0
  145.5992  139.2426  152.7810 H   0  0  0  0  0  0  0  0  0  0  0  0
  146.1363  137.4350  155.1282 H   0  0  0  0  0  0  0  0  0  0  0  0
  145.9680  139.1382  155.4434 H   0  0  0  0  0  0  0  0  0  0  0  0
  143.8163  137.4857  154.0302 H   0  0  0  0  0  0  0  0  0  0  0  0
  143.8377  137.8821  155.7339 H   0  0  0  0  0  0  0  0  0  0  0  0
  143.6813  139.6787  153.5762 H   0  0  0  0  0  0  0  0  0  0  0  0
  148.0173  139.5834  152.3944 H   0  0  0  0  0  0  0  0  0  0  0  0
  148.3649  138.5845  155.2570 H   0  0  0  0  0  0  0  0  0  0  0  0
  148.9941  137.8108  153.8238 H   0  0  0  0  0  0  0  0  0  0  0  0
  150.7602  139.0933  154.9606 H   0  0  0  0  0  0  0  0  0  0  0  0
  150.4769  139.6872  153.3423 H   0  0  0  0  0  0  0  0  0  0  0  0
  149.4268  140.9381  155.9267 H   0  0  0  0  0  0  0  0  0  0  0  0
  150.6848  141.5905  154.9020 H   0  0  0  0  0  0  0  0  0  0  0  0
  148.4905  142.7098  154.4775 H   0  0  0  0  0  0  0  0  0  0  0  0
  149.0843  141.9037  153.0457 H   0  0  0  0  0  0  0  0  0  0  0  0
  146.6960  141.4543  153.3478 H   0  0  0  0  0  0  0  0  0  0  0  0
  146.9520  140.8416  154.9610 H   0  0  0  0  0  0  0  0  0  0  0  0
  1  2  2  0  0  0  0
  2  3  1  0  0  0  0
  2 10  1  0  0  0  0
  3  4  1  0  0  0  0
  3 21  1  0  0  0  0
  4  9  1  0  0  0  0
  4  5  2  0  0  0  0
  5  6  1  0  0  0  0
  5 22  1  0  0  0  0
  6  7  2  0  0  0  0
  6 23  1  0  0  0  0
  7  8  1  0  0  0  0
  7 24  1  0  0  0  0
  8  9  2  0  0  0  0
  9 25  1  0  0  0  0
 10 11  1  0  0  0  0
 10 26  1  0  0  0  0
 11 12  1  0  0  0  0
 11 15  1  0  0  0  0
 11 27  1  0  0  0  0
 12 13  1  0  0  0  0
 12 28  1  0  0  0  0
 12 29  1  0  0  0  0
 13 14  1  0  0  0  0
 13 30  1  0  0  0  0
 13 31  1  0  0  0  0
 14 32  1  0  0  0  0
 15 20  1  0  0  0  0
 15 16  1  0  0  0  0
 15 33  1  0  0  0  0
 16 17  1  0  0  0  0
 16 34  1  0  0  0  0
 16 35  1  0  0  0  0
 17 18  1  0  0  0  0
 17 36  1  0  0  0  0
 17 37  1  0  0  0  0
 18 19  1  0  0  0  0
 18 38  1  0  0  0  0
 18 39  1  0  0  0  0
 19 20  1  0  0  0  0
 19 40  1  0  0  0  0
 19 41  1  0  0  0  0
 20 42  1  0  0  0  0
 20 43  1  0  0  0  0
M  END
> <s_m_source_file>
AV-unprocessed.smi

> <i_m_source_file_index>
2666

> <i_lp_mmshare_version>
43012

> <i_f3d_flags>
0

> <s_epik_input>
W2NIXTFuW2NIXVtjSF1bY0hdYzFbTkhdQyg9TylbTkhdW0NASF0oW0NIMl1bQ0gyXVtPSF0pW0NIXTJbQ0gyXVtDSDJdW0NIMl1bQ0gyXVtDSDJdMg==

> <s_epik_cmdline>
J2VwaWtfcHl0aG9uJywgJy1waCcsICc3LjAnLCAnLXRuJywgJzgnLCAnLW1hJywgJzIwMCcsICctbWV0YWxfYmluZGluZycsICctaW1hZScsICc8aW5maWxlLm1hZT4nLCAnLW9tYWUnLCAnPG91dGZpbGUubWFlPic=

> <r_epik_Ionization_Penalty>
0.00500145

> <r_epik_Ionization_Penalty_Charging>
0

> <r_epik_Ionization_Penalty_Neutral>
0.00500145

> <r_epik_State_Penalty>
0.00360517

> <r_epik_Charging_Adjusted_Penalty>
0.00360517

> <i_epik_Tot_Q>
0

> <i_epik_Tot_abs_Q>
0

> <r_epik_Metal_State_Penalty>
-0

> <b_epik_Metal_Only>
0

> <s_lp_Force_Field>
OPLS_2005

> <r_lp_Energy>
18.9025

> <b_lp_Chiralities_Consistent>
1

> <s_lp_Variant>
AV-unprocessed.smi:2666-2

> <Gold.Version>
5.8.1

> <Gold.Id.Protein>
6NUR|6NUR_protein|mol2

> <Gold.PLP.Fitness>
42.5902

> <Gold.PLP.PLP>
-34.3950

> <Gold.PLP.part.hbond>
-2.8503

> <Gold.PLP.part.metal>
0.0000

> <Gold.PLP.part.buried>
-2.2664

> <Gold.PLP.part.nonpolar>
-28.7230

> <Gold.PLP.part.repulsive>
0.4624

> <Gold.PLP.ligand.clash>
0.0000

> <Gold.PLP.ligand.torsion>
0.4248

> <Gold.PLP.Chemscore.Hbond>
3.0000

> <Gold.PLP.Chemscore.CHOScore>
0.0000

> <Gold.PLP.Chemscore.Metal>
0.0000

> <Gold.Chemscore.Hbonds>
donor molecule, donor type, donor heavy atom, donor atom, acceptor molecule, acceptor atom, score
      L1  H     3    21       P1  7948  1.00
      L1  H    10    26       P1  7948  1.00
      L1  H    14    32       P1 10175  0.50

> <Gold.PLP.Chemscore.Internal.Correction>
0.0447

> <Gold.Rescore>
     Score         DG    S(hbond)    S(metal)    S(lipo)     H(rot)  DE(clash)    DE(int)     intcor
     16.91     -20.05       2.93        0.00      89.65       2.23       0.03       3.11       ----

> <Gold.Chemscore.Fitness>
16.9098

> <Gold.Chemscore.DG>
-20.0461

> <Gold.Chemscore.ZeroCoef>
-5.4800

> <Gold.Chemscore.Hbond>
2.9261

> <Gold.Chemscore.Metal>
0.0000

> <Gold.Chemscore.Lipo>
89.6503

> <Gold.Chemscore.Internal_Hbond>
0.0000

> <Gold.Chemscore.DEClash>
0.0297

> <Gold.Chemscore.DEInternal>
3.1066

> <Gold.Chemscore.Rot>
2.2251

> <Gold.Chemscore.Internal.Correction>
   9.000000E+99

> <Gold.Chemscore.Hbonds>
donor molecule, donor type, donor heavy atom, donor atom, acceptor molecule, acceptor atom, score
      L1  H     3    21       P1  7948  0.96
      L1  H    10    26       P1  7948  0.99
      L1  H    14    32       P1 10175  0.49

> <Gold.Chemscore.Hbond.Weighted>
-9.7732

> <Gold.Chemscore.Metal.Weighted>
-0.0000

> <Gold.Chemscore.Lipo.Weighted>
-10.4891

> <Gold.Chemscore.Internal_Hbond.Weighted>
0.0000

> <Gold.Chemscore.DEClash.Weighted>
0.0297

> <Gold.Chemscore.DEInternal.Weighted>
3.1066

> <Gold.Chemscore.Rot.Weighted>
5.6962

> <Gold.Chemscore.Internal.Correction.Weighted>
   9.000000E+99

> <Gold.Protein.RotatedTorsions>
[ 6907 6896 6895 6894 ] final  -13.46 input  -60.11 | X-H torsion
[ 7974 7965 7964 7962 ] final  -36.07 input  175.53 | X-H torsion
[ 8008 7997 7996 7995 ] final -126.84 input   59.86 | X-H torsion
[ 10167 10162 10161 10158 ] final   31.72 input  -65.29 | X-H torsion
[ 10718 10713 10712 10709 ] final  171.67 input   66.30 | X-H torsion
[ 10763 10752 10751 10750 ] final  -55.68 input  -60.55 | X-H torsion
[ 11005 11000 10999 10996 ] final   71.52 input  -57.11 | X-H torsion

> <Gold.Protein.ActiveResidues>
 VAL166  LYS551  ARG553  GLY616  TRP617  ASP618  TYR619  PRO620  LYS621  CYS622 
 ASP623  PHE694  ASN695  SER759  ASP760  ASP761  ALA762  ILE779  LEU786  VAL792 
 PHE793  MET794  SER795  GLU796  ALA797  LYS798  CYS799  TRP800  GLU811  SER814 

> <Gold.Protein.RotatedAtoms>
  151.3545  135.0891  159.9413 H   0  0  0  0  0  0  0  0  0  0  0  0  # atno 6907 bound_to 6896
  152.5178  133.9319  159.7595 H   0  0  0  0  0  0  0  0  0  0  0  0  # atno 6908 bound_to 6896
  150.9701  133.6299  159.2769 H   0  0  0  0  0  0  0  0  0  0  0  0  # atno 6909 bound_to 6896
  146.0693  140.6235  142.8960 H   0  0  0  0  0  0  0  0  0  0  0  0  # atno 7974 bound_to 7965
  155.2364  140.0427  157.2969 H   0  0  0  0  0  0  0  0  0  0  0  0  # atno 8008 bound_to 7997
  154.5856  140.2412  155.7962 H   0  0  0  0  0  0  0  0  0  0  0  0  # atno 8009 bound_to 7997
  156.2224  140.2965  155.9992 H   0  0  0  0  0  0  0  0  0  0  0  0  # atno 8010 bound_to 7997
  140.4563  144.0974  150.6202 H   0  0  0  0  0  0  0  0  0  0  0  0  # atno 10167 bound_to 10162
  156.9902  131.0145  151.2859 H   0  0  0  0  0  0  0  0  0  0  0  0  # atno 10718 bound_to 10713
  154.1947  135.6421  153.5070 H   0  0  0  0  0  0  0  0  0  0  0  0  # atno 10763 bound_to 10752
  153.0026  135.5437  154.6378 H   0  0  0  0  0  0  0  0  0  0  0  0  # atno 10764 bound_to 10752
  154.5776  135.2922  155.0738 H   0  0  0  0  0  0  0  0  0  0  0  0  # atno 10765 bound_to 10752
  139.9539  134.7178  156.0798 H   0  0  0  0  0  0  0  0  0  0  0  0  # atno 11005 bound_to 11000
  144.7221  140.4409  143.7000 LP  0  0  0  0  0  0  0  0  0  0  0  0  # atno 17320 bound_to 7965
  145.6421  139.1551  143.2910 LP  0  0  0  0  0  0  0  0  0  0  0  0  # atno 17321 bound_to 7965
  140.4147  143.2640  151.9789 LP  0  0  0  0  0  0  0  0  0  0  0  0  # atno 17342 bound_to 10162
  139.4801  144.5884  151.7814 LP  0  0  0  0  0  0  0  0  0  0  0  0  # atno 17343 bound_to 10162
  157.5464  130.8153  149.8091 LP  0  0  0  0  0  0  0  0  0  0  0  0  # atno 17370 bound_to 10713
  156.0210  130.3795  150.1962 LP  0  0  0  0  0  0  0  0  0  0  0  0  # atno 17371 bound_to 10713
  141.1207  133.6614  156.3207 LP  0  0  0  0  0  0  0  0  0  0  0  0  # atno 17394 bound_to 11000
  140.5655  134.5892  157.5444 LP  0  0  0  0  0  0  0  0  0  0  0  0  # atno 17395 bound_to 11000

$$$$
