AV-unprocessed.smi:364|AV-procd|sdf|2426|dock8
  -GOLD-   2262022363D 1   1.00000     0.00000
 Structure written by MMmdl.
 37 38  0  0  0  0  0  0  0  0  1 V2000
  152.5755  142.9756  162.9627 C   0  0  0  0  0  0  0  0  0  0  0  0
  152.8375  143.4614  161.5301 C   0  0  2  0  0  0  0  0  0  0  0  0
  151.6815  144.3433  161.0187 C   0  0  0  0  0  0  0  0  0  0  0  0
  151.9153  144.8093  159.5695 C   0  0  0  0  0  0  0  0  0  0  0  0
  152.1616  143.6268  158.6138 C   0  0  2  0  0  0  0  0  0  0  0  0
  150.9465  142.8285  158.4962 N   0  0  0  0  0  0  0  0  0  0  0  0
  150.8396  141.5634  158.0604 C   0  0  0  0  0  0  0  0  0  0  0  0
  151.8015  140.8995  157.6773 O   0  0  0  0  0  0  0  0  0  0  0  0
  149.4368  140.9298  158.0622 C   0  0  0  0  0  0  0  0  0  0  0  0
  148.9436  140.5390  156.7278 N   0  0  0  0  0  0  0  0  0  0  0  0
  149.0508  141.4902  155.6993 C   0  0  0  0  0  0  0  0  0  0  0  0
  148.6630  141.2001  154.4494 C   0  0  0  0  0  0  0  0  0  0  0  0
  148.1291  139.8500  154.2290 C   0  0  0  0  0  0  0  0  0  0  0  0
  148.0299  138.9802  155.1639 N   0  0  0  0  0  0  0  0  0  0  0  0
  148.4394  139.2868  156.4754 C   0  0  0  0  0  0  0  0  0  0  0  0
  148.3606  138.4509  157.3757 O   0  0  0  0  0  0  0  0  0  0  0  0
  153.3212  142.7516  159.1272 C   0  0  0  0  0  0  0  0  0  0  0  0
  153.0890  142.2781  160.5745 C   0  0  0  0  0  0  0  0  0  0  0  0
  151.6808  142.3538  163.0121 H   0  0  0  0  0  0  0  0  0  0  0  0
  152.4346  143.8158  163.6431 H   0  0  0  0  0  0  0  0  0  0  0  0
  153.4123  142.3852  163.3370 H   0  0  0  0  0  0  0  0  0  0  0  0
  153.7409  144.0729  161.5491 H   0  0  0  0  0  0  0  0  0  0  0  0
  150.7410  143.7938  161.0814 H   0  0  0  0  0  0  0  0  0  0  0  0
  151.5667  145.2148  161.6642 H   0  0  0  0  0  0  0  0  0  0  0  0
  151.0640  145.3987  159.2267 H   0  0  0  0  0  0  0  0  0  0  0  0
  152.7768  145.4776  159.5429 H   0  0  0  0  0  0  0  0  0  0  0  0
  152.4319  144.0290  157.6362 H   0  0  0  0  0  0  0  0  0  0  0  0
  150.0927  143.2817  158.7881 H   0  0  0  0  0  0  0  0  0  0  0  0
  149.4460  140.0700  158.7343 H   0  0  0  0  0  0  0  0  0  0  0  0
  148.7447  141.6384  158.5194 H   0  0  0  0  0  0  0  0  0  0  0  0
  149.4685  142.4439  155.9884 H   0  0  0  0  0  0  0  0  0  0  0  0
  148.7227  141.8819  153.6140 H   0  0  0  0  0  0  0  0  0  0  0  0
  147.8187  139.6320  153.2040 H   0  0  0  0  0  0  0  0  0  0  0  0
  153.4623  141.8913  158.4716 H   0  0  0  0  0  0  0  0  0  0  0  0
  154.2491  143.3232  159.0824 H   0  0  0  0  0  0  0  0  0  0  0  0
  153.9541  141.7063  160.9117 H   0  0  0  0  0  0  0  0  0  0  0  0
  152.2411  141.5923  160.6051 H   0  0  0  0  0  0  0  0  0  0  0  0
  1  2  1  0  0  0  0
  1 19  1  0  0  0  0
  1 20  1  0  0  0  0
  1 21  1  0  0  0  0
  2 18  1  0  0  0  0
  2  3  1  0  0  0  0
  2 22  1  0  0  0  0
  3  4  1  0  0  0  0
  3 23  1  0  0  0  0
  3 24  1  0  0  0  0
  4  5  1  0  0  0  0
  4 25  1  0  0  0  0
  4 26  1  0  0  0  0
  5  6  1  0  0  0  0
  5 17  1  0  0  0  0
  5 27  1  0  0  0  0
  6  7  1  0  0  0  0
  6 28  1  0  0  0  0
  7  8  2  0  0  0  0
  7  9  1  0  0  0  0
  9 10  1  0  0  0  0
  9 29  1  0  0  0  0
  9 30  1  0  0  0  0
 10 15  1  0  0  0  0
 10 11  1  0  0  0  0
 11 12  2  0  0  0  0
 11 31  1  0  0  0  0
 12 13  1  0  0  0  0
 12 32  1  0  0  0  0
 13 14  2  0  0  0  0
 13 33  1  0  0  0  0
 14 15  1  0  0  0  0
 15 16  2  0  0  0  0
 17 18  1  0  0  0  0
 17 34  1  0  0  0  0
 17 35  1  0  0  0  0
 18 36  1  0  0  0  0
 18 37  1  0  0  0  0
M  END
> <s_m_source_file>
AV-unprocessed.smi

> <i_m_source_file_index>
364

> <i_lp_mmshare_version>
43012

> <i_f3d_flags>
0

> <s_epik_input>
W0NIM11bQ0BASF0xW0NIMl1bQ0gyXVtDQEhdKFtDSDJdW0NIMl0xKVtOSF1DKD1PKVtDSDJdbjJbY0hdW2NIXVtjSF1uYzI9Tw==

> <s_epik_cmdline>
J2VwaWtfcHl0aG9uJywgJy1waCcsICc3LjAnLCAnLXRuJywgJzgnLCAnLW1hJywgJzIwMCcsICctbWV0YWxfYmluZGluZycsICctaW1hZScsICc8aW5maWxlLm1hZT4nLCAnLW9tYWUnLCAnPG91dGZpbGUubWFlPic=

> <r_lp_tautomer_probability>
1

> <r_epik_Ionization_Penalty>
7.65306e-06

> <r_epik_Ionization_Penalty_Charging>
1.81354e-08

> <r_epik_Ionization_Penalty_Neutral>
7.63492e-06

> <r_epik_State_Penalty>
-0

> <r_epik_Charging_Adjusted_Penalty>
1.81354e-08

> <i_epik_Tot_Q>
0

> <i_epik_Tot_abs_Q>
0

> <r_epik_Metal_State_Penalty>
-0

> <b_epik_Metal_Only>
0

> <s_lp_Force_Field>
OPLS_2005

> <r_lp_Energy>
9.99244

> <b_lp_Chiralities_Consistent>
1

> <s_lp_Variant>
AV-unprocessed.smi:364-2

> <Gold.Version>
5.8.1

> <Gold.Id.Protein>
6NUR|6NUR_protein|mol2

> <Gold.PLP.Fitness>
39.8912

> <Gold.PLP.PLP>
-34.9086

> <Gold.PLP.part.hbond>
0.0000

> <Gold.PLP.part.metal>
0.0000

> <Gold.PLP.part.buried>
-1.5411

> <Gold.PLP.part.nonpolar>
-34.0730

> <Gold.PLP.part.repulsive>
0.1333

> <Gold.PLP.ligand.clash>
0.0000

> <Gold.PLP.ligand.torsion>
0.3843

> <Gold.PLP.Chemscore.Hbond>
0.0000

> <Gold.PLP.Chemscore.CHOScore>
1.9155

> <Gold.PLP.Chemscore.Metal>
0.0000

> <Gold.Chemscore.Hbonds>
donor molecule, donor type, donor heavy atom, donor atom, acceptor molecule, acceptor atom, score
      L1  C    11    31       P1  8028  1.00
      L1  C    13    33       P1  7957  0.38

> <Gold.PLP.Chemscore.Internal.Correction>
0.0047

> <Gold.Rescore>
     Score         DG    S(hbond)    S(metal)    S(lipo)     H(rot)  DE(clash)    DE(int)     intcor
     12.22     -14.17       0.00        0.00     107.01       1.50       0.24       1.70       ----

> <Gold.Chemscore.Fitness>
12.2248

> <Gold.Chemscore.DG>
-14.1657

> <Gold.Chemscore.ZeroCoef>
-5.4800

> <Gold.Chemscore.Hbond>
0.0000

> <Gold.Chemscore.Metal>
0.0000

> <Gold.Chemscore.Lipo>
107.0069

> <Gold.Chemscore.Internal_Hbond>
0.0000

> <Gold.Chemscore.DEClash>
0.2430

> <Gold.Chemscore.DEInternal>
1.6980

> <Gold.Chemscore.Rot>
1.4977

> <Gold.Chemscore.Internal.Correction>
   9.000000E+99

> <Gold.Chemscore.Hbond.Weighted>
-0.0000

> <Gold.Chemscore.Metal.Weighted>
-0.0000

> <Gold.Chemscore.Lipo.Weighted>
-12.5198

> <Gold.Chemscore.Internal_Hbond.Weighted>
0.0000

> <Gold.Chemscore.DEClash.Weighted>
0.2430

> <Gold.Chemscore.DEInternal.Weighted>
1.6980

> <Gold.Chemscore.Rot.Weighted>
3.8341

> <Gold.Chemscore.Internal.Correction.Weighted>
   9.000000E+99

> <Gold.Protein.RotatedTorsions>
[ 6907 6896 6895 6894 ] final -152.80 input  -60.11 | X-H torsion
[ 7974 7965 7964 7962 ] final  -41.06 input  175.53 | X-H torsion
[ 8008 7997 7996 7995 ] final  -94.57 input   59.86 | X-H torsion
[ 10167 10162 10161 10158 ] final  -37.54 input  -65.29 | X-H torsion
[ 10718 10713 10712 10709 ] final -140.68 input   66.30 | X-H torsion
[ 10763 10752 10751 10750 ] final  -82.40 input  -60.55 | X-H torsion
[ 11005 11000 10999 10996 ] final    1.86 input  -57.11 | X-H torsion

> <Gold.Protein.ActiveResidues>
 VAL166  LYS551  ARG553  GLY616  TRP617  ASP618  TYR619  PRO620  LYS621  CYS622 
 ASP623  PHE694  ASN695  SER759  ASP760  ASP761  ALA762  ILE779  LEU786  VAL792 
 PHE793  MET794  SER795  GLU796  ALA797  LYS798  CYS799  TRP800  GLU811  SER814 

> <Gold.Protein.RotatedAtoms>
  151.2332  133.4439  159.2604 H   0  0  0  0  0  0  0  0  0  0  0  0  # atno 6907 bound_to 6896
  151.0775  134.9837  159.8350 H   0  0  0  0  0  0  0  0  0  0  0  0  # atno 6908 bound_to 6896
  152.5420  134.2273  159.8864 H   0  0  0  0  0  0  0  0  0  0  0  0  # atno 6909 bound_to 6896
  146.0246  140.6807  142.9162 H   0  0  0  0  0  0  0  0  0  0  0  0  # atno 7974 bound_to 7965
  154.7501  140.0488  157.0886 H   0  0  0  0  0  0  0  0  0  0  0  0  # atno 8008 bound_to 7997
  155.0068  140.3131  155.4826 H   0  0  0  0  0  0  0  0  0  0  0  0  # atno 8009 bound_to 7997
  156.2883  140.2191  156.5180 H   0  0  0  0  0  0  0  0  0  0  0  0  # atno 8010 bound_to 7997
  140.7115  143.3335  151.2515 H   0  0  0  0  0  0  0  0  0  0  0  0  # atno 10167 bound_to 10162
  156.3251  130.7556  151.1662 H   0  0  0  0  0  0  0  0  0  0  0  0  # atno 10718 bound_to 10713
  154.5752  135.5593  153.7133 H   0  0  0  0  0  0  0  0  0  0  0  0  # atno 10763 bound_to 10752
  153.0062  135.6307  154.2059 H   0  0  0  0  0  0  0  0  0  0  0  0  # atno 10764 bound_to 10752
  154.1999  135.2878  155.2974 H   0  0  0  0  0  0  0  0  0  0  0  0  # atno 10765 bound_to 10752
  140.6107  133.9751  155.8176 H   0  0  0  0  0  0  0  0  0  0  0  0  # atno 11005 bound_to 11000
  144.7004  140.3627  143.7160 LP  0  0  0  0  0  0  0  0  0  0  0  0  # atno 17320 bound_to 7965
  145.7138  139.1691  143.2523 LP  0  0  0  0  0  0  0  0  0  0  0  0  # atno 17321 bound_to 7965
  139.6824  143.9832  152.2815 LP  0  0  0  0  0  0  0  0  0  0  0  0  # atno 17342 bound_to 10162
  139.9466  144.6647  150.8213 LP  0  0  0  0  0  0  0  0  0  0  0  0  # atno 17343 bound_to 10162
  157.7420  131.0496  150.5059 LP  0  0  0  0  0  0  0  0  0  0  0  0  # atno 17370 bound_to 10713
  156.5217  130.4163  149.6247 LP  0  0  0  0  0  0  0  0  0  0  0  0  # atno 17371 bound_to 10713
  141.0810  134.0063  157.3386 LP  0  0  0  0  0  0  0  0  0  0  0  0  # atno 17394 bound_to 11000
  139.9193  135.0199  156.8004 LP  0  0  0  0  0  0  0  0  0  0  0  0  # atno 17395 bound_to 11000

$$$$
