AV-unprocessed.smi:1766|AV-procd|sdf|7138|dock7
  -GOLD-   22720 8373D 1   1.00000     0.00000
 Structure written by MMmdl.
 40 42  0  0  0  0  0  0  0  0  2 V2000
  151.0182  137.3812  157.0148 N   0  0  0  0  0  0  0  0  0  0  0  0
  151.3304  137.0238  155.7666 C   0  0  0  0  0  0  0  0  0  0  0  0
  151.3674  135.8458  155.4151 O   0  0  0  0  0  0  0  0  0  0  0  0
  151.6501  138.1540  154.7823 C   0  0  0  0  0  0  0  0  0  0  0  0
  150.4475  139.0068  154.5148 C   0  0  0  0  0  0  0  0  0  0  0  0
  149.4074  138.6815  153.6953 N   0  3  0  0  0  0  0  0  0  0  0  0
  148.4691  139.7137  153.6884 C   0  0  0  0  0  0  0  0  0  0  0  0
  147.2584  139.8368  153.0138 C   0  0  0  0  0  0  0  0  0  0  0  0
  146.5326  141.0266  153.2283 C   0  0  0  0  0  0  0  0  0  0  0  0
  147.0171  142.0374  154.0830 C   0  0  0  0  0  0  0  0  0  0  0  0
  148.2477  141.9024  154.7578 C   0  0  0  0  0  0  0  0  0  0  0  0
  148.9590  140.7211  154.5446 C   0  0  0  0  0  0  0  0  0  0  0  0
  150.1782  140.2386  155.0386 N   0  0  0  0  0  0  0  0  0  0  0  0
  150.9564  141.0544  155.9862 C   0  0  0  0  0  0  0  0  0  0  0  0
  150.2718  141.1832  157.3624 C   0  0  1  0  0  0  0  0  0  0  0  0
  150.5307  140.0033  158.0943 O   0  0  0  0  0  0  0  0  0  0  0  0
  150.7012  142.4357  158.1139 C   0  0  0  0  0  0  0  0  0  0  0  0
  152.0690  142.7187  158.3243 C   0  0  0  0  0  0  0  0  0  0  0  0
  152.4551  143.8970  158.9925 C   0  0  0  0  0  0  0  0  0  0  0  0
  151.4767  144.7983  159.4543 C   0  0  0  0  0  0  0  0  0  0  0  0
  151.8480  145.9335  160.0919 F   0  0  0  0  0  0  0  0  0  0  0  0
  150.1118  144.5199  159.2500 C   0  0  0  0  0  0  0  0  0  0  0  0
  149.7252  143.3418  158.5825 C   0  0  0  0  0  0  0  0  0  0  0  0
  150.8059  136.6701  157.7001 H   0  0  0  0  0  0  0  0  0  0  0  0
  151.0003  138.3570  157.2746 H   0  0  0  0  0  0  0  0  0  0  0  0
  152.4504  138.7820  155.1760 H   0  0  0  0  0  0  0  0  0  0  0  0
  152.0139  137.7228  153.8498 H   0  0  0  0  0  0  0  0  0  0  0  0
  146.8853  139.0635  152.3585 H   0  0  0  0  0  0  0  0  0  0  0  0
  145.5856  141.1664  152.7274 H   0  0  0  0  0  0  0  0  0  0  0  0
  146.4333  142.9355  154.2243 H   0  0  0  0  0  0  0  0  0  0  0  0
  148.6042  142.6846  155.4110 H   0  0  0  0  0  0  0  0  0  0  0  0
  151.9255  140.5666  156.0991 H   0  0  0  0  0  0  0  0  0  0  0  0
  151.1630  142.0309  155.5483 H   0  0  0  0  0  0  0  0  0  0  0  0
  149.1915  141.2222  157.2197 H   0  0  0  0  0  0  0  0  0  0  0  0
  149.7160  139.5397  158.2150 H   0  0  0  0  0  0  0  0  0  0  0  0
  152.8274  142.0390  157.9639 H   0  0  0  0  0  0  0  0  0  0  0  0
  153.5022  144.1110  159.1473 H   0  0  0  0  0  0  0  0  0  0  0  0
  149.3608  145.2114  159.6028 H   0  0  0  0  0  0  0  0  0  0  0  0
  148.6761  143.1410  158.4223 H   0  0  0  0  0  0  0  0  0  0  0  0
  149.3480  137.8156  153.1754 H   0  0  0  0  0  0  0  0  0  0  0  0
  1  2  1  0  0  0  0
  1 24  1  0  0  0  0
  1 25  1  0  0  0  0
  2  3  2  0  0  0  0
  2  4  1  0  0  0  0
  4  5  1  0  0  0  0
  4 26  1  0  0  0  0
  4 27  1  0  0  0  0
  5 13  1  0  0  0  0
  5  6  2  0  0  0  0
  6  7  1  0  0  0  0
  6 40  1  0  0  0  0
  7 12  2  0  0  0  0
  7  8  1  0  0  0  0
  8  9  2  0  0  0  0
  8 28  1  0  0  0  0
  9 10  1  0  0  0  0
  9 29  1  0  0  0  0
 10 11  2  0  0  0  0
 10 30  1  0  0  0  0
 11 12  1  0  0  0  0
 11 31  1  0  0  0  0
 12 13  1  0  0  0  0
 13 14  1  0  0  0  0
 14 15  1  0  0  0  0
 14 32  1  0  0  0  0
 14 33  1  0  0  0  0
 15 16  1  0  0  0  0
 15 17  1  0  0  0  0
 15 34  1  0  0  0  0
 16 35  1  0  0  0  0
 17 23  1  0  0  0  0
 17 18  2  0  0  0  0
 18 19  1  0  0  0  0
 18 36  1  0  0  0  0
 19 20  2  0  0  0  0
 19 37  1  0  0  0  0
 20 21  1  0  0  0  0
 20 22  1  0  0  0  0
 22 23  2  0  0  0  0
 22 38  1  0  0  0  0
 23 39  1  0  0  0  0
M  CHG  1   6   1
M  END
> <s_m_source_file>
AV-unprocessed.smi

> <i_m_source_file_index>
1766

> <i_lp_mmshare_version>
43012

> <i_f3d_flags>
0

> <s_epik_input>
W2NIXTFbY0hdW2NIXVtjSF1jKGMxMiluKGMobjIpW0NIMl1DKD1PKVtOSDJdKVtDSDJdW0NASF0oW09IXSljM1tjSF1bY0hdYyhGKVtjSF1bY0hdMw==

> <s_epik_cmdline>
J2VwaWtfcHl0aG9uJywgJy1waCcsICc3LjAnLCAnLXRuJywgJzgnLCAnLW1hJywgJzIwMCcsICctbWV0YWxfYmluZGluZycsICctaW1hZScsICc8aW5maWxlLm1hZT4nLCAnLW9tYWUnLCAnPG91dGZpbGUubWFlPic=

> <r_epik_Ionization_Penalty>
1.66646

> <r_epik_Ionization_Penalty_Charging>
1.66645

> <r_epik_Ionization_Penalty_Neutral>
2.12833e-06

> <r_epik_State_Penalty>
1.76975

> <r_epik_Charging_Adjusted_Penalty>
3.43621

> <i_epik_Tot_Q>
1

> <i_epik_Tot_abs_Q>
1

> <r_epik_Metal_State_Penalty>
1.80493

> <b_epik_Metal_Only>
0

> <s_lp_Force_Field>
OPLS_2005

> <r_lp_Energy>
15.5136

> <b_lp_Chiralities_Consistent>
1

> <s_lp_Variant>
AV-unprocessed.smi:1766-4

> <Gold.Version>
5.8.1

> <Gold.Id.Protein>
6NUR|6NUR_protein|mol2

> <Gold.PLP.Fitness>
56.1033

> <Gold.PLP.PLP>
-48.4059

> <Gold.PLP.part.hbond>
-3.0000

> <Gold.PLP.part.metal>
0.0000

> <Gold.PLP.part.buried>
1.8303

> <Gold.PLP.part.nonpolar>
-47.3239

> <Gold.PLP.part.repulsive>
0.2364

> <Gold.PLP.ligand.clash>
0.0000

> <Gold.PLP.ligand.torsion>
0.6791

> <Gold.PLP.Chemscore.Hbond>
3.0000

> <Gold.PLP.Chemscore.CHOScore>
0.0000

> <Gold.PLP.Chemscore.Metal>
0.0000

> <Gold.Chemscore.Hbonds>
donor molecule, donor type, donor heavy atom, donor atom, acceptor molecule, acceptor atom, score
      L1  H     6    40       P1  7948  1.82
      P1  H 10752 10763       L1     3  1.00

> <Gold.PLP.Chemscore.Internal.Correction>
0.0556

> <Gold.Rescore>
     Score         DG    S(hbond)    S(metal)    S(lipo)     H(rot)  DE(clash)    DE(int)     intcor
     13.52     -18.06       1.91        0.00     119.68       3.05       2.72       1.82       ----

> <Gold.Chemscore.Fitness>
13.5234

> <Gold.Chemscore.DG>
-18.0642

> <Gold.Chemscore.ZeroCoef>
-5.4800

> <Gold.Chemscore.Hbond>
1.9106

> <Gold.Chemscore.Metal>
0.0000

> <Gold.Chemscore.Lipo>
119.6845

> <Gold.Chemscore.Internal_Hbond>
0.0000

> <Gold.Chemscore.DEClash>
2.7173

> <Gold.Chemscore.DEInternal>
1.8234

> <Gold.Chemscore.Rot>
3.0470

> <Gold.Chemscore.Internal.Correction>
   9.000000E+99

> <Gold.Chemscore.Hbonds>
donor molecule, donor type, donor heavy atom, donor atom, acceptor molecule, acceptor atom, score
      L1  H     6    40       P1  7948  0.86
      P1  H 10752 10763       L1     3  0.59

> <Gold.Chemscore.Hbond.Weighted>
-6.3815

> <Gold.Chemscore.Metal.Weighted>
-0.0000

> <Gold.Chemscore.Lipo.Weighted>
-14.0031

> <Gold.Chemscore.Internal_Hbond.Weighted>
0.0000

> <Gold.Chemscore.DEClash.Weighted>
2.7173

> <Gold.Chemscore.DEInternal.Weighted>
1.8234

> <Gold.Chemscore.Rot.Weighted>
7.8004

> <Gold.Chemscore.Internal.Correction.Weighted>
   9.000000E+99

> <Gold.Protein.RotatedTorsions>
[ 6907 6896 6895 6894 ] final -154.26 input  -60.11 | X-H torsion
[ 7974 7965 7964 7962 ] final   44.25 input  175.53 | X-H torsion
[ 8008 7997 7996 7995 ] final    1.77 input   59.86 | X-H torsion
[ 10167 10162 10161 10158 ] final  -71.21 input  -65.29 | X-H torsion
[ 10718 10713 10712 10709 ] final  147.86 input   66.30 | X-H torsion
[ 10763 10752 10751 10750 ] final   85.77 input  -60.55 | X-H torsion
[ 11005 11000 10999 10996 ] final -103.98 input  -57.11 | X-H torsion

> <Gold.Protein.ActiveResidues>
 VAL166  LYS551  ARG553  GLY616  TRP617  ASP618  TYR619  PRO620  LYS621  CYS622 
 ASP623  PHE694  ASN695  SER759  ASP760  ASP761  ALA762  ILE779  LEU786  VAL792 
 PHE793  MET794  SER795  GLU796  ALA797  LYS798  CYS799  TRP800  GLU811  SER814 

> <Gold.Protein.RotatedAtoms>
  151.2549  133.4331  159.2612 H   0  0  0  0  0  0  0  0  0  0  0  0  # atno 6907 bound_to 6896
  151.0583  134.9720  159.8258 H   0  0  0  0  0  0  0  0  0  0  0  0  # atno 6908 bound_to 6896
  152.5394  134.2500  159.8948 H   0  0  0  0  0  0  0  0  0  0  0  0  # atno 6909 bound_to 6896
  146.0585  139.5096  142.9673 H   0  0  0  0  0  0  0  0  0  0  0  0  # atno 7974 bound_to 7965
  154.6837  140.2638  155.6882 H   0  0  0  0  0  0  0  0  0  0  0  0  # atno 8008 bound_to 7997
  156.2706  140.2805  156.1313 H   0  0  0  0  0  0  0  0  0  0  0  0  # atno 8009 bound_to 7997
  155.0995  140.0374  157.2683 H   0  0  0  0  0  0  0  0  0  0  0  0  # atno 8010 bound_to 7997
  140.5291  143.2323  151.7294 H   0  0  0  0  0  0  0  0  0  0  0  0  # atno 10167 bound_to 10162
  157.3158  131.0896  151.1280 H   0  0  0  0  0  0  0  0  0  0  0  0  # atno 10718 bound_to 10713
  153.1506  135.4605  154.9631 H   0  0  0  0  0  0  0  0  0  0  0  0  # atno 10763 bound_to 10752
  154.7822  135.3192  154.7968 H   0  0  0  0  0  0  0  0  0  0  0  0  # atno 10764 bound_to 10752
  153.8474  135.6924  153.4850 H   0  0  0  0  0  0  0  0  0  0  0  0  # atno 10765 bound_to 10752
  141.1121  133.8685  157.1553 H   0  0  0  0  0  0  0  0  0  0  0  0  # atno 11005 bound_to 11000
  145.6601  141.0242  143.1713 LP  0  0  0  0  0  0  0  0  0  0  0  0  # atno 17320 bound_to 7965
  144.7161  139.8191  143.7398 LP  0  0  0  0  0  0  0  0  0  0  0  0  # atno 17321 bound_to 7965
  139.4948  144.4141  152.0049 LP  0  0  0  0  0  0  0  0  0  0  0  0  # atno 17342 bound_to 10162
  140.3242  144.3392  150.6002 LP  0  0  0  0  0  0  0  0  0  0  0  0  # atno 17343 bound_to 10162
  157.2584  130.6647  149.5963 LP  0  0  0  0  0  0  0  0  0  0  0  0  # atno 17370 bound_to 10713
  155.9681  130.4516  150.5742 LP  0  0  0  0  0  0  0  0  0  0  0  0  # atno 17371 bound_to 10713
  140.0021  135.0023  157.0213 LP  0  0  0  0  0  0  0  0  0  0  0  0  # atno 17394 bound_to 11000
  140.4746  134.1352  155.7208 LP  0  0  0  0  0  0  0  0  0  0  0  0  # atno 17395 bound_to 11000

$$$$
