AV-unprocessed.smi:1674|AV-procd|sdf|6714|dock2
  -GOLD-   22720 7453D 1   1.00000     0.00000
 Structure written by MMmdl.
 47 48  0  0  0  0  0  0  0  0  1 V2000
  147.3801  136.8380  163.0660 C   0  0  0  0  0  0  0  0  0  0  0  0
  147.6229  136.2773  161.6911 C   0  0  0  0  0  0  0  0  0  0  0  0
  147.9142  137.1261  160.7614 N   0  0  0  0  0  0  0  0  0  0  0  0
  148.1719  136.7160  159.4677 N   0  0  0  0  0  0  0  0  0  0  0  0
  148.5500  137.8039  158.5544 C   0  0  0  0  0  0  0  0  0  0  0  0
  150.0728  137.8622  158.2890 C   0  0  1  0  0  0  0  0  0  0  0  0
  150.3440  137.1749  157.0847 O   0  0  0  0  0  0  0  0  0  0  0  0
  150.6165  139.2855  158.2755 C   0  0  0  0  0  0  0  0  0  0  0  0
  151.6547  139.6526  159.1580 C   0  0  0  0  0  0  0  0  0  0  0  0
  152.1382  140.9746  159.1755 C   0  0  0  0  0  0  0  0  0  0  0  0
  151.5899  141.9417  158.3077 C   0  0  0  0  0  0  0  0  0  0  0  0
  152.1101  143.3690  158.3234 C   0  0  0  0  0  0  0  0  0  0  0  0
  151.7763  144.1312  159.6224 C   0  0  0  0  0  0  0  0  0  0  0  0
  152.0446  145.6411  159.5025 C   0  0  0  0  0  0  0  0  0  0  0  0
  152.5371  143.5349  160.8159 C   0  0  0  0  0  0  0  0  0  0  0  0
  150.5522  141.5775  157.4252 C   0  0  0  0  0  0  0  0  0  0  0  0
  150.0671  140.2559  157.4096 C   0  0  0  0  0  0  0  0  0  0  0  0
  148.1244  135.4229  159.0390 C   0  0  0  0  0  0  0  0  0  0  0  0
  148.3579  135.1032  157.8726 O   0  0  0  0  0  0  0  0  0  0  0  0
  147.7860  134.4668  160.0957 C   0  0  0  0  0  0  0  0  0  0  0  0
  147.7328  133.0989  159.6912 C   0  0  0  0  0  0  0  0  0  0  0  0
  147.7074  131.9860  159.3733 N   0  0  0  0  0  0  0  0  0  0  0  0
  147.5457  134.8553  161.3730 C   0  0  0  0  0  0  0  0  0  0  0  0
  147.1972  133.9029  162.5085 C   0  0  0  0  0  0  0  0  0  0  0  0
  146.3734  136.5992  163.4090 H   0  0  0  0  0  0  0  0  0  0  0  0
  147.4862  137.9239  163.0874 H   0  0  0  0  0  0  0  0  0  0  0  0
  148.0901  136.4246  163.7824 H   0  0  0  0  0  0  0  0  0  0  0  0
  148.0059  137.7101  157.6128 H   0  0  0  0  0  0  0  0  0  0  0  0
  148.2241  138.7559  158.9791 H   0  0  0  0  0  0  0  0  0  0  0  0
  150.5871  137.3115  159.0774 H   0  0  0  0  0  0  0  0  0  0  0  0
  149.9948  136.2995  157.1557 H   0  0  0  0  0  0  0  0  0  0  0  0
  152.0773  138.9231  159.8334 H   0  0  0  0  0  0  0  0  0  0  0  0
  152.9325  141.2429  159.8567 H   0  0  0  0  0  0  0  0  0  0  0  0
  153.1916  143.3318  158.1857 H   0  0  0  0  0  0  0  0  0  0  0  0
  151.7161  143.9093  157.4613 H   0  0  0  0  0  0  0  0  0  0  0  0
  150.7126  144.0001  159.8253 H   0  0  0  0  0  0  0  0  0  0  0  0
  153.0909  145.8394  159.2673 H   0  0  0  0  0  0  0  0  0  0  0  0
  151.8099  146.1562  160.4344 H   0  0  0  0  0  0  0  0  0  0  0  0
  151.4352  146.0960  158.7214 H   0  0  0  0  0  0  0  0  0  0  0  0
  153.6157  143.6247  160.6831 H   0  0  0  0  0  0  0  0  0  0  0  0
  152.3042  142.4772  160.9426 H   0  0  0  0  0  0  0  0  0  0  0  0
  152.2728  144.0414  161.7446 H   0  0  0  0  0  0  0  0  0  0  0  0
  150.1241  142.3122  156.7588 H   0  0  0  0  0  0  0  0  0  0  0  0
  149.2651  139.9912  156.7361 H   0  0  0  0  0  0  0  0  0  0  0  0
  147.1545  132.8652  162.1795 H   0  0  0  0  0  0  0  0  0  0  0  0
  146.2238  134.1521  162.9320 H   0  0  0  0  0  0  0  0  0  0  0  0
  147.9436  133.9643  163.3013 H   0  0  0  0  0  0  0  0  0  0  0  0
  1  2  1  0  0  0  0
  1 25  1  0  0  0  0
  1 26  1  0  0  0  0
  1 27  1  0  0  0  0
  2 23  1  0  0  0  0
  2  3  2  0  0  0  0
  3  4  1  0  0  0  0
  4  5  1  0  0  0  0
  4 18  1  0  0  0  0
  5  6  1  0  0  0  0
  5 28  1  0  0  0  0
  5 29  1  0  0  0  0
  6  7  1  0  0  0  0
  6  8  1  0  0  0  0
  6 30  1  0  0  0  0
  7 31  1  0  0  0  0
  8 17  1  0  0  0  0
  8  9  2  0  0  0  0
  9 10  1  0  0  0  0
  9 32  1  0  0  0  0
 10 11  2  0  0  0  0
 10 33  1  0  0  0  0
 11 12  1  0  0  0  0
 11 16  1  0  0  0  0
 12 13  1  0  0  0  0
 12 34  1  0  0  0  0
 12 35  1  0  0  0  0
 13 14  1  0  0  0  0
 13 15  1  0  0  0  0
 13 36  1  0  0  0  0
 14 37  1  0  0  0  0
 14 38  1  0  0  0  0
 14 39  1  0  0  0  0
 15 40  1  0  0  0  0
 15 41  1  0  0  0  0
 15 42  1  0  0  0  0
 16 17  2  0  0  0  0
 16 43  1  0  0  0  0
 17 44  1  0  0  0  0
 18 19  2  0  0  0  0
 18 20  1  0  0  0  0
 20 21  1  0  0  0  0
 20 23  2  0  0  0  0
 21 22  3  0  0  0  0
 23 24  1  0  0  0  0
 24 45  1  0  0  0  0
 24 46  1  0  0  0  0
 24 47  1  0  0  0  0
M  END
> <s_m_source_file>
AV-unprocessed.smi

> <i_m_source_file_index>
1674

> <i_lp_mmshare_version>
43012

> <i_f3d_flags>
0

> <s_epik_input>
TiNDYyhjMVtDSDNdKWMoPU8pbihuYzFbQ0gzXSlbQ0gyXVtDQEhdKFtPSF0pYzJbY0hdW2NIXWMoW2NIXVtjSF0yKVtDSDJdW0NIXShbQ0gzXSlbQ0gzXQ==

> <s_epik_cmdline>
J2VwaWtfcHl0aG9uJywgJy1waCcsICc3LjAnLCAnLXRuJywgJzgnLCAnLW1hJywgJzIwMCcsICctbWV0YWxfYmluZGluZycsICctaW1hZScsICc8aW5maWxlLm1hZT4nLCAnLW9tYWUnLCAnPG91dGZpbGUubWFlPic=

> <r_lp_tautomer_probability>
1

> <r_epik_Ionization_Penalty>
4.60566e-08

> <r_epik_Ionization_Penalty_Charging>
1.40848e-10

> <r_epik_Ionization_Penalty_Neutral>
4.59158e-08

> <r_epik_State_Penalty>
-0

> <r_epik_Charging_Adjusted_Penalty>
1.40848e-10

> <i_epik_Tot_Q>
0

> <i_epik_Tot_abs_Q>
0

> <r_epik_Metal_State_Penalty>
-0

> <b_epik_Metal_Only>
0

> <s_lp_Force_Field>
OPLS_2005

> <r_lp_Energy>
26.1271

> <b_lp_Chiralities_Consistent>
1

> <s_lp_Variant>
AV-unprocessed.smi:1674-2

> <Gold.Version>
5.8.1

> <Gold.Id.Protein>
6NUR|6NUR_protein|mol2

> <Gold.PLP.Fitness>
49.7958

> <Gold.PLP.PLP>
-47.0150

> <Gold.PLP.part.hbond>
-2.0000

> <Gold.PLP.part.metal>
0.0000

> <Gold.PLP.part.buried>
-5.7228

> <Gold.PLP.part.nonpolar>
-40.0172

> <Gold.PLP.part.repulsive>
0.0000

> <Gold.PLP.ligand.clash>
0.0000

> <Gold.PLP.ligand.torsion>
0.9426

> <Gold.PLP.Chemscore.Hbond>
1.5129

> <Gold.PLP.Chemscore.CHOScore>
0.0000

> <Gold.PLP.Chemscore.Metal>
0.0000

> <Gold.Chemscore.Hbonds>
donor molecule, donor type, donor heavy atom, donor atom, acceptor molecule, acceptor atom, score
      P1  H  6931  6943       L1     3  0.66
      P1  H  6934  6947       L1     3  0.81

> <Gold.PLP.Chemscore.Internal.Correction>
0.1274

> <Gold.Rescore>
     Score         DG    S(hbond)    S(metal)    S(lipo)     H(rot)  DE(clash)    DE(int)     intcor
     15.99     -18.21       0.91        0.00     129.38       2.13       0.06       2.15       ----

> <Gold.Chemscore.Fitness>
15.9943

> <Gold.Chemscore.DG>
-18.2060

> <Gold.Chemscore.ZeroCoef>
-5.4800

> <Gold.Chemscore.Hbond>
0.9104

> <Gold.Chemscore.Metal>
0.0000

> <Gold.Chemscore.Lipo>
129.3832

> <Gold.Chemscore.Internal_Hbond>
0.0000

> <Gold.Chemscore.DEClash>
0.0580

> <Gold.Chemscore.DEInternal>
2.1537

> <Gold.Chemscore.Rot>
2.1299

> <Gold.Chemscore.Internal.Correction>
   9.000000E+99

> <Gold.Chemscore.Hbonds>
donor molecule, donor type, donor heavy atom, donor atom, acceptor molecule, acceptor atom, score
      P1  H  6931  6943       L1     3  0.08
      P1  H  6934  6947       L1     3  0.65

> <Gold.Chemscore.Hbond.Weighted>
-3.0408

> <Gold.Chemscore.Metal.Weighted>
-0.0000

> <Gold.Chemscore.Lipo.Weighted>
-15.1378

> <Gold.Chemscore.Internal_Hbond.Weighted>
0.0000

> <Gold.Chemscore.DEClash.Weighted>
0.0580

> <Gold.Chemscore.DEInternal.Weighted>
2.1537

> <Gold.Chemscore.Rot.Weighted>
5.4526

> <Gold.Chemscore.Internal.Correction.Weighted>
   9.000000E+99

> <Gold.Protein.RotatedTorsions>
[ 6907 6896 6895 6894 ] final -172.00 input  -60.11 | X-H torsion
[ 7974 7965 7964 7962 ] final  -46.42 input  175.53 | X-H torsion
[ 8008 7997 7996 7995 ] final   64.89 input   59.86 | X-H torsion
[ 10167 10162 10161 10158 ] final  -80.85 input  -65.29 | X-H torsion
[ 10718 10713 10712 10709 ] final -101.45 input   66.30 | X-H torsion
[ 10763 10752 10751 10750 ] final -152.13 input  -60.55 | X-H torsion
[ 11005 11000 10999 10996 ] final  -91.40 input  -57.11 | X-H torsion

> <Gold.Protein.ActiveResidues>
 VAL166  LYS551  ARG553  GLY616  TRP617  ASP618  TYR619  PRO620  LYS621  CYS622 
 ASP623  PHE694  ASN695  SER759  ASP760  ASP761  ALA762  ILE779  LEU786  VAL792 
 PHE793  MET794  SER795  GLU796  ALA797  LYS798  CYS799  TRP800  GLU811  SER814 

> <Gold.Protein.RotatedAtoms>
  151.5329  133.3446  159.2921 H   0  0  0  0  0  0  0  0  0  0  0  0  # atno 6907 bound_to 6896
  150.8583  134.7930  159.7074 H   0  0  0  0  0  0  0  0  0  0  0  0  # atno 6908 bound_to 6896
  152.4610  134.5193  159.9829 H   0  0  0  0  0  0  0  0  0  0  0  0  # atno 6909 bound_to 6896
  145.9721  140.7372  142.9405 H   0  0  0  0  0  0  0  0  0  0  0  0  # atno 7974 bound_to 7965
  155.6532  140.3497  155.4755 H   0  0  0  0  0  0  0  0  0  0  0  0  # atno 8008 bound_to 7997
  155.9831  140.1178  157.0731 H   0  0  0  0  0  0  0  0  0  0  0  0  # atno 8009 bound_to 7997
  154.4197  140.1134  156.5448 H   0  0  0  0  0  0  0  0  0  0  0  0  # atno 8010 bound_to 7997
  140.4466  143.2497  151.8550 H   0  0  0  0  0  0  0  0  0  0  0  0  # atno 10167 bound_to 10162
  156.0195  130.5374  150.6965 H   0  0  0  0  0  0  0  0  0  0  0  0  # atno 10718 bound_to 10713
  154.8014  135.3243  154.7541 H   0  0  0  0  0  0  0  0  0  0  0  0  # atno 10763 bound_to 10752
  153.8209  135.6887  153.4832 H   0  0  0  0  0  0  0  0  0  0  0  0  # atno 10764 bound_to 10752
  153.1732  135.4615  154.9874 H   0  0  0  0  0  0  0  0  0  0  0  0  # atno 10765 bound_to 10752
  141.1545  133.7753  156.9874 H   0  0  0  0  0  0  0  0  0  0  0  0  # atno 11005 bound_to 11000
  144.6839  140.2766  143.7298 LP  0  0  0  0  0  0  0  0  0  0  0  0  # atno 17320 bound_to 7965
  145.7891  139.1920  143.2113 LP  0  0  0  0  0  0  0  0  0  0  0  0  # atno 17321 bound_to 7965
  139.4793  144.5169  151.8856 LP  0  0  0  0  0  0  0  0  0  0  0  0  # atno 17342 bound_to 10162
  140.4257  144.2184  150.5887 LP  0  0  0  0  0  0  0  0  0  0  0  0  # atno 17343 bound_to 10162
  157.4635  131.0885  151.0720 LP  0  0  0  0  0  0  0  0  0  0  0  0  # atno 17370 bound_to 10713
  157.1201  130.6058  149.5503 LP  0  0  0  0  0  0  0  0  0  0  0  0  # atno 17371 bound_to 10713
  140.1025  134.9526  157.1945 LP  0  0  0  0  0  0  0  0  0  0  0  0  # atno 17394 bound_to 11000
  140.3299  134.2822  155.7230 LP  0  0  0  0  0  0  0  0  0  0  0  0  # atno 17395 bound_to 11000

$$$$
