AV-unprocessed.smi:2973|AV-procd|sdf|11351|dock8
  -GOLD-   2272016263D 1   1.00000     0.00000
 Structure written by MMmdl.
 49 51  0  0  0  0  0  0  0  0  3 V2000
  146.2007  134.5891  159.4482 C   0  0  0  0  0  0  0  0  0  0  0  0
  147.0025  134.9990  160.7030 C   0  0  2  0  0  0  0  0  0  0  0  0
  146.0839  135.0626  161.9424 C   0  0  0  0  0  0  0  0  0  0  0  0
  146.8744  135.3611  163.2248 C   0  0  0  0  0  0  0  0  0  0  0  0
  147.6717  136.6647  163.0918 C   0  0  0  0  0  0  0  0  0  0  0  0
  148.6027  136.6246  161.8682 C   0  0  0  0  0  0  0  0  0  0  0  0
  147.8502  136.3044  160.5504 C   0  0  2  0  0  0  0  0  0  0  0  0
  147.0337  137.4397  160.1529 N   0  5  0  0  0  0  0  0  0  0  0  0
  147.4913  137.9226  158.9744 C   0  0  0  0  0  0  0  0  0  0  0  0
  147.0467  138.8868  158.3526 O   0  0  0  0  0  0  0  0  0  0  0  0
  148.5412  137.2037  158.5336 N   0  0  0  0  0  0  0  0  0  0  0  0
  149.3007  137.4712  157.3052 C   0  0  0  0  0  0  0  0  0  0  0  0
  149.9833  138.8441  157.3333 C   0  0  0  0  0  0  0  0  0  0  0  0
  149.7571  139.6741  156.4518 O   0  0  0  0  0  0  0  0  0  0  0  0
  150.8226  139.0711  158.3560 N   0  0  0  0  0  0  0  0  0  0  0  0
  151.5402  140.3208  158.5983 C   0  0  0  0  0  0  0  0  0  0  0  0
  150.7078  141.5649  158.2258 C   0  0  0  0  0  0  0  0  0  0  0  0
  151.2303  142.8614  158.8219 C   0  0  0  0  0  0  0  0  0  0  0  0
  152.1781  142.8795  159.8682 C   0  0  0  0  0  0  0  0  0  0  0  0
  152.5993  144.1178  160.3954 C   0  0  0  0  0  0  0  0  0  0  0  0
  152.0657  145.3107  159.8667 C   0  0  0  0  0  0  0  0  0  0  0  0
  151.1248  145.2351  158.8201 C   0  0  0  0  0  0  0  0  0  0  0  0
  150.7491  144.0298  158.3387 N   0  3  0  0  0  0  0  0  0  0  0  0
  148.8383  136.2255  159.3960 C   0  0  0  0  0  0  0  0  0  0  0  0
  149.7460  135.3970  159.3058 O   0  0  0  0  0  0  0  0  0  0  0  0
  145.4515  135.3374  159.1885 H   0  0  0  0  0  0  0  0  0  0  0  0
  145.6767  133.6477  159.6137 H   0  0  0  0  0  0  0  0  0  0  0  0
  146.8447  134.4472  158.5807 H   0  0  0  0  0  0  0  0  0  0  0  0
  147.7061  134.1852  160.8873 H   0  0  0  0  0  0  0  0  0  0  0  0
  145.3189  135.8267  161.7986 H   0  0  0  0  0  0  0  0  0  0  0  0
  145.5525  134.1178  162.0602 H   0  0  0  0  0  0  0  0  0  0  0  0
  146.1933  135.4283  164.0734 H   0  0  0  0  0  0  0  0  0  0  0  0
  147.5543  134.5351  163.4369 H   0  0  0  0  0  0  0  0  0  0  0  0
  146.9844  137.5074  163.0061 H   0  0  0  0  0  0  0  0  0  0  0  0
  148.2562  136.8363  163.9959 H   0  0  0  0  0  0  0  0  0  0  0  0
  149.1351  137.5738  161.7862 H   0  0  0  0  0  0  0  0  0  0  0  0
  149.3663  135.8659  162.0451 H   0  0  0  0  0  0  0  0  0  0  0  0
  150.0462  136.6872  157.1584 H   0  0  0  0  0  0  0  0  0  0  0  0
  148.6482  137.4255  156.4322 H   0  0  0  0  0  0  0  0  0  0  0  0
  150.9584  138.3290  159.0275 H   0  0  0  0  0  0  0  0  0  0  0  0
  151.8037  140.3621  159.6554 H   0  0  0  0  0  0  0  0  0  0  0  0
  152.4858  140.3271  158.0535 H   0  0  0  0  0  0  0  0  0  0  0  0
  150.6759  141.6668  157.1403 H   0  0  0  0  0  0  0  0  0  0  0  0
  149.6747  141.4234  158.5449 H   0  0  0  0  0  0  0  0  0  0  0  0
  152.5675  141.9581  160.2759 H   0  0  0  0  0  0  0  0  0  0  0  0
  153.3145  144.1507  161.2042 H   0  0  0  0  0  0  0  0  0  0  0  0
  152.3675  146.2684  160.2649 H   0  0  0  0  0  0  0  0  0  0  0  0
  150.6597  146.0953  158.3615 H   0  0  0  0  0  0  0  0  0  0  0  0
  150.0578  143.9996  157.5891 H   0  0  0  0  0  0  0  0  0  0  0  0
  1  2  1  0  0  0  0
  1 26  1  0  0  0  0
  1 27  1  0  0  0  0
  1 28  1  0  0  0  0
  2  7  1  0  0  0  0
  2  3  1  0  0  0  0
  2 29  1  0  0  0  0
  3  4  1  0  0  0  0
  3 30  1  0  0  0  0
  3 31  1  0  0  0  0
  4  5  1  0  0  0  0
  4 32  1  0  0  0  0
  4 33  1  0  0  0  0
  5  6  1  0  0  0  0
  5 34  1  0  0  0  0
  5 35  1  0  0  0  0
  6  7  1  0  0  0  0
  6 36  1  0  0  0  0
  6 37  1  0  0  0  0
  7 24  1  0  0  0  0
  7  8  1  0  0  0  0
  8  9  1  0  0  0  0
  9 10  2  0  0  0  0
  9 11  1  0  0  0  0
 11 12  1  0  0  0  0
 11 24  1  0  0  0  0
 12 13  1  0  0  0  0
 12 38  1  0  0  0  0
 12 39  1  0  0  0  0
 13 14  2  0  0  0  0
 13 15  1  0  0  0  0
 15 16  1  0  0  0  0
 15 40  1  0  0  0  0
 16 17  1  0  0  0  0
 16 41  1  0  0  0  0
 16 42  1  0  0  0  0
 17 18  1  0  0  0  0
 17 43  1  0  0  0  0
 17 44  1  0  0  0  0
 18 23  1  0  0  0  0
 18 19  2  0  0  0  0
 19 20  1  0  0  0  0
 19 45  1  0  0  0  0
 20 21  2  0  0  0  0
 20 46  1  0  0  0  0
 21 22  1  0  0  0  0
 21 47  1  0  0  0  0
 22 23  2  0  0  0  0
 22 48  1  0  0  0  0
 23 49  1  0  0  0  0
 24 25  2  0  0  0  0
M  CHG  1   8  -1
M  CHG  1  23   1
M  END
> <s_m_source_file>
AV-unprocessed.smi

> <i_m_source_file_index>
2973

> <i_lp_mmshare_version>
43012

> <i_f3d_flags>
0

> <s_epik_input>
W0NIMl0xW0NIMl1bQ0gyXVtDSDJdW0NAQEhdKFtDSDNdKVtDQF0xMltOSF1DKD1PKU4oQzI9TylbQ0gyXUMoPU8pW05IXVtDSDJdW0NIMl1jM1tjSF1bY0hdW2NIXVtjSF1uMw==

> <s_epik_cmdline>
J2VwaWtfcHl0aG9uJywgJy1waCcsICc3LjAnLCAnLXRuJywgJzgnLCAnLW1hJywgJzIwMCcsICctbWV0YWxfYmluZGluZycsICctaW1hZScsICc8aW5maWxlLm1hZT4nLCAnLW9tYWUnLCAnPG91dGZpbGUubWFlPic=

> <r_lp_tautomer_probability>
1

> <r_epik_Ionization_Penalty>
7.89073

> <r_epik_Ionization_Penalty_Charging>
7.89073

> <r_epik_Ionization_Penalty_Neutral>
1.56557e-07

> <r_epik_State_Penalty>
8.01193

> <r_epik_Charging_Adjusted_Penalty>
15.9027

> <i_epik_Tot_Q>
0

> <i_epik_Tot_abs_Q>
2

> <r_epik_Metal_State_Penalty>
3.98737

> <b_epik_Metal_Only>
1

> <s_lp_Force_Field>
OPLS_2005

> <r_lp_Energy>
16.8567

> <b_lp_Chiralities_Consistent>
1

> <s_lp_Variant>
AV-unprocessed.smi:2973-15

> <Gold.Version>
5.8.1

> <Gold.Id.Protein>
6NUR|6NUR_protein|mol2

> <Gold.PLP.Fitness>
51.8071

> <Gold.PLP.PLP>
-38.1999

> <Gold.PLP.part.hbond>
-3.5286

> <Gold.PLP.part.metal>
0.0000

> <Gold.PLP.part.buried>
-1.2084

> <Gold.PLP.part.nonpolar>
-31.8405

> <Gold.PLP.part.repulsive>
0.1161

> <Gold.PLP.ligand.clash>
0.0000

> <Gold.PLP.ligand.torsion>
0.4272

> <Gold.PLP.Chemscore.Hbond>
4.8000

> <Gold.PLP.Chemscore.CHOScore>
0.0000

> <Gold.PLP.Chemscore.Metal>
0.0000

> <Gold.Chemscore.Hbonds>
donor molecule, donor type, donor heavy atom, donor atom, acceptor molecule, acceptor atom, score
      L1  H    23    49       P1  8028  0.42
      P1  H  6896  6909       L1    25  0.49
      P1  H  6934  6947       L1     8  1.10

> <Gold.PLP.Chemscore.Internal.Correction>
0.0616

> <Gold.Rescore>
     Score         DG    S(hbond)    S(metal)    S(lipo)     H(rot)  DE(clash)    DE(int)     intcor
     17.39     -20.82       2.05        0.00     114.41       1.92       1.50       1.92       ----

> <Gold.Chemscore.Fitness>
17.3927

> <Gold.Chemscore.DG>
-20.8210

> <Gold.Chemscore.ZeroCoef>
-5.4800

> <Gold.Chemscore.Hbond>
2.0549

> <Gold.Chemscore.Metal>
0.0000

> <Gold.Chemscore.Lipo>
114.4147

> <Gold.Chemscore.Internal_Hbond>
0.0000

> <Gold.Chemscore.DEClash>
1.5047

> <Gold.Chemscore.DEInternal>
1.9236

> <Gold.Chemscore.Rot>
1.9175

> <Gold.Chemscore.Internal.Correction>
   9.000000E+99

> <Gold.Chemscore.Hbonds>
donor molecule, donor type, donor heavy atom, donor atom, acceptor molecule, acceptor atom, score
      L1  H    23    49       P1  8028  0.14
      P1  H  6896  6909       L1    25  0.49
      P1  H  6934  6947       L1     8  0.03

> <Gold.Chemscore.Hbond.Weighted>
-6.8633

> <Gold.Chemscore.Metal.Weighted>
-0.0000

> <Gold.Chemscore.Lipo.Weighted>
-13.3865

> <Gold.Chemscore.Internal_Hbond.Weighted>
0.0000

> <Gold.Chemscore.DEClash.Weighted>
1.5047

> <Gold.Chemscore.DEInternal.Weighted>
1.9236

> <Gold.Chemscore.Rot.Weighted>
4.9087

> <Gold.Chemscore.Internal.Correction.Weighted>
   9.000000E+99

> <Gold.Protein.RotatedTorsions>
[ 6907 6896 6895 6894 ] final   34.54 input  -60.11 | X-H torsion
[ 7974 7965 7964 7962 ] final   46.86 input  175.53 | X-H torsion
[ 8008 7997 7996 7995 ] final   66.14 input   59.86 | X-H torsion
[ 10167 10162 10161 10158 ] final  116.14 input  -65.29 | X-H torsion
[ 10718 10713 10712 10709 ] final   71.35 input   66.30 | X-H torsion
[ 10763 10752 10751 10750 ] final  155.33 input  -60.55 | X-H torsion
[ 11005 11000 10999 10996 ] final  -78.84 input  -57.11 | X-H torsion

> <Gold.Protein.ActiveResidues>
 VAL166  LYS551  ARG553  GLY616  TRP617  ASP618  TYR619  PRO620  LYS621  CYS622 
 ASP623  PHE694  ASN695  SER759  ASP760  ASP761  ALA762  ILE779  LEU786  VAL792 
 PHE793  MET794  SER795  GLU796  ALA797  LYS798  CYS799  TRP800  GLU811  SER814 

> <Gold.Protein.RotatedAtoms>
  152.1038  134.9323  160.0568 H   0  0  0  0  0  0  0  0  0  0  0  0  # atno 6907 bound_to 6896
  152.0527  133.4021  159.4392 H   0  0  0  0  0  0  0  0  0  0  0  0  # atno 6908 bound_to 6896
  150.6840  134.3211  159.4830 H   0  0  0  0  0  0  0  0  0  0  0  0  # atno 6909 bound_to 6896
  146.0351  139.4811  142.9813 H   0  0  0  0  0  0  0  0  0  0  0  0  # atno 7974 bound_to 7965
  155.6727  140.3497  155.4824 H   0  0  0  0  0  0  0  0  0  0  0  0  # atno 8008 bound_to 7997
  155.9674  140.1149  157.0865 H   0  0  0  0  0  0  0  0  0  0  0  0  # atno 8009 bound_to 7997
  154.4158  140.1163  156.5247 H   0  0  0  0  0  0  0  0  0  0  0  0  # atno 8010 bound_to 7997
  139.6268  144.7109  151.2517 H   0  0  0  0  0  0  0  0  0  0  0  0  # atno 10167 bound_to 10162
  157.6447  130.9524  150.0777 H   0  0  0  0  0  0  0  0  0  0  0  0  # atno 10718 bound_to 10713
  154.1666  135.2807  155.3093 H   0  0  0  0  0  0  0  0  0  0  0  0  # atno 10763 bound_to 10752
  154.6107  135.5499  153.7473 H   0  0  0  0  0  0  0  0  0  0  0  0  # atno 10764 bound_to 10752
  153.0177  135.6414  154.1806 H   0  0  0  0  0  0  0  0  0  0  0  0  # atno 10765 bound_to 10752
  141.1666  133.7080  156.8032 H   0  0  0  0  0  0  0  0  0  0  0  0  # atno 11005 bound_to 11000
  145.6977  141.0145  143.1521 LP  0  0  0  0  0  0  0  0  0  0  0  0  # atno 17320 bound_to 7965
  144.7048  139.8607  143.7433 LP  0  0  0  0  0  0  0  0  0  0  0  0  # atno 17321 bound_to 7965
  140.7415  143.6554  150.8211 LP  0  0  0  0  0  0  0  0  0  0  0  0  # atno 17342 bound_to 10162
  140.0173  143.5580  152.2815 LP  0  0  0  0  0  0  0  0  0  0  0  0  # atno 17343 bound_to 10162
  156.1762  130.3648  149.9097 LP  0  0  0  0  0  0  0  0  0  0  0  0  # atno 17370 bound_to 10713
  156.7060  130.8951  151.3604 LP  0  0  0  0  0  0  0  0  0  0  0  0  # atno 17371 bound_to 10713
  140.2241  134.8735  157.3408 LP  0  0  0  0  0  0  0  0  0  0  0  0  # atno 17394 bound_to 11000
  140.1958  134.4316  155.7690 LP  0  0  0  0  0  0  0  0  0  0  0  0  # atno 17395 bound_to 11000

$$$$
