AV-unprocessed.smi:1290|AV-procd|sdf|5390|dock4
  -GOLD-   22720 4543D 1   1.00000     0.00000
 Structure written by MMmdl.
 38 40  0  0  0  0  0  0  0  0  1 V2000
  154.0084  139.3493  160.9508 C   0  0  0  0  0  0  0  0  0  0  0  0
  153.3268  140.5952  160.5518 N   0  0  0  0  0  0  0  0  0  0  0  0
  152.8517  140.6938  159.2704 C   0  0  0  0  0  0  0  0  0  0  0  0
  152.9488  139.8125  158.4155 O   0  0  0  0  0  0  0  0  0  0  0  0
  152.1970  141.9739  158.9758 C   0  0  0  0  0  0  0  0  0  0  0  0
  152.0751  142.9681  159.8898 C   0  0  0  0  0  0  0  0  0  0  0  0
  151.4230  144.0717  159.3504 N   0  0  0  0  0  0  0  0  0  0  0  0
  151.1804  143.6711  158.1023 C   0  0  0  0  0  0  0  0  0  0  0  0
  151.6105  142.4308  157.7952 N   0  0  0  0  0  0  0  0  0  0  0  0
  151.4699  141.7725  156.5045 C   0  0  0  0  0  0  0  0  0  0  0  0
  150.0021  141.4516  156.1547 C   0  0  1  0  0  0  0  0  0  0  0  0
  149.5257  142.3367  155.1596 O   0  0  0  0  0  0  0  0  0  0  0  0
  149.8378  139.9962  155.7464 C   0  0  0  0  0  0  0  0  0  0  0  0
  149.0355  139.1240  156.5147 C   0  0  0  0  0  0  0  0  0  0  0  0
  148.8822  137.7775  156.1315 C   0  0  0  0  0  0  0  0  0  0  0  0
  149.5290  137.2951  154.9771 C   0  0  0  0  0  0  0  0  0  0  0  0
  149.3421  135.6453  154.5074 Cl  0  0  0  0  0  0  0  0  0  0  0  0
  150.3277  138.1616  154.2056 C   0  0  0  0  0  0  0  0  0  0  0  0
  150.4807  139.5085  154.5884 C   0  0  0  0  0  0  0  0  0  0  0  0
  152.6021  142.7589  161.1906 N   0  0  0  0  0  0  0  0  0  0  0  0
  152.4780  143.8233  162.1904 C   0  0  0  0  0  0  0  0  0  0  0  0
  153.2294  141.5828  161.5169 C   0  0  0  0  0  0  0  0  0  0  0  0
  153.6948  141.4179  162.6484 O   0  0  0  0  0  0  0  0  0  0  0  0
  154.0176  138.5672  160.1909 H   0  0  0  0  0  0  0  0  0  0  0  0
  153.5302  138.9143  161.8300 H   0  0  0  0  0  0  0  0  0  0  0  0
  155.0502  139.5539  161.2022 H   0  0  0  0  0  0  0  0  0  0  0  0
  150.6744  144.3017  157.3859 H   0  0  0  0  0  0  0  0  0  0  0  0
  151.9347  142.3843  155.7327 H   0  0  0  0  0  0  0  0  0  0  0  0
  152.0475  140.8475  156.5358 H   0  0  0  0  0  0  0  0  0  0  0  0
  149.3902  141.6291  157.0402 H   0  0  0  0  0  0  0  0  0  0  0  0
  149.4891  143.2072  155.5256 H   0  0  0  0  0  0  0  0  0  0  0  0
  148.5338  139.4867  157.4001 H   0  0  0  0  0  0  0  0  0  0  0  0
  148.2675  137.1162  156.7245 H   0  0  0  0  0  0  0  0  0  0  0  0
  150.8237  137.7943  153.3191 H   0  0  0  0  0  0  0  0  0  0  0  0
  151.0940  140.1645  153.9883 H   0  0  0  0  0  0  0  0  0  0  0  0
  151.9577  143.4589  163.0774 H   0  0  0  0  0  0  0  0  0  0  0  0
  151.9212  144.6855  161.8236 H   0  0  0  0  0  0  0  0  0  0  0  0
  153.4640  144.1767  162.4945 H   0  0  0  0  0  0  0  0  0  0  0  0
  1  2  1  0  0  0  0
  1 24  1  0  0  0  0
  1 25  1  0  0  0  0
  1 26  1  0  0  0  0
  2 22  1  0  0  0  0
  2  3  1  0  0  0  0
  3  4  2  0  0  0  0
  3  5  1  0  0  0  0
  5  9  1  0  0  0  0
  5  6  2  0  0  0  0
  6  7  1  0  0  0  0
  6 20  1  0  0  0  0
  7  8  2  0  0  0  0
  8  9  1  0  0  0  0
  8 27  1  0  0  0  0
  9 10  1  0  0  0  0
 10 11  1  0  0  0  0
 10 28  1  0  0  0  0
 10 29  1  0  0  0  0
 11 12  1  0  0  0  0
 11 13  1  0  0  0  0
 11 30  1  0  0  0  0
 12 31  1  0  0  0  0
 13 19  1  0  0  0  0
 13 14  2  0  0  0  0
 14 15  1  0  0  0  0
 14 32  1  0  0  0  0
 15 16  2  0  0  0  0
 15 33  1  0  0  0  0
 16 17  1  0  0  0  0
 16 18  1  0  0  0  0
 18 19  2  0  0  0  0
 18 34  1  0  0  0  0
 19 35  1  0  0  0  0
 20 21  1  0  0  0  0
 20 22  1  0  0  0  0
 21 36  1  0  0  0  0
 21 37  1  0  0  0  0
 21 38  1  0  0  0  0
 22 23  2  0  0  0  0
M  END
> <s_m_source_file>
AV-unprocessed.smi

> <i_m_source_file_index>
1290

> <i_lp_mmshare_version>
43012

> <i_f3d_flags>
0

> <s_epik_input>
Tz1jMW4oW0NIM10pYyg9TyluKFtDSDNdKWMoYzEyKW5bY0hdbjJbQ0gyXVtDQEhdKFtPSF0pYzNbY0hdW2NIXWMoQ2wpW2NIXVtjSF0z

> <s_epik_cmdline>
J2VwaWtfcHl0aG9uJywgJy1waCcsICc3LjAnLCAnLXRuJywgJzgnLCAnLW1hJywgJzIwMCcsICctbWV0YWxfYmluZGluZycsICctaW1hZScsICc8aW5maWxlLm1hZT4nLCAnLW9tYWUnLCAnPG91dGZpbGUubWFlPic=

> <r_lp_tautomer_probability>
1

> <r_epik_Ionization_Penalty>
1.48293e-06

> <r_epik_Ionization_Penalty_Charging>
3.74189e-09

> <r_epik_Ionization_Penalty_Neutral>
1.47919e-06

> <r_epik_State_Penalty>
-0

> <r_epik_Charging_Adjusted_Penalty>
3.74189e-09

> <i_epik_Tot_Q>
0

> <i_epik_Tot_abs_Q>
0

> <r_epik_Metal_State_Penalty>
-0

> <b_epik_Metal_Only>
0

> <s_lp_Force_Field>
OPLS_2005

> <r_lp_Energy>
35.8921

> <b_lp_Chiralities_Consistent>
1

> <s_lp_Variant>
AV-unprocessed.smi:1290-2

> <Gold.Version>
5.8.1

> <Gold.Id.Protein>
6NUR|6NUR_protein|mol2

> <Gold.PLP.Fitness>
52.5550

> <Gold.PLP.PLP>
-45.0128

> <Gold.PLP.part.hbond>
-3.0000

> <Gold.PLP.part.metal>
0.0000

> <Gold.PLP.part.buried>
-6.0769

> <Gold.PLP.part.nonpolar>
-35.9491

> <Gold.PLP.part.repulsive>
0.0692

> <Gold.PLP.ligand.clash>
0.0000

> <Gold.PLP.ligand.torsion>
0.7444

> <Gold.PLP.Chemscore.Hbond>
2.0000

> <Gold.PLP.Chemscore.CHOScore>
1.0000

> <Gold.PLP.Chemscore.Metal>
0.0000

> <Gold.Chemscore.Hbonds>
donor molecule, donor type, donor heavy atom, donor atom, acceptor molecule, acceptor atom, score
      L1  H    12    31       P1  8028  1.00
      P1  H  7997  8008       L1     4  0.68
      L1  C     8    27       P1  8028  1.00

> <Gold.PLP.Chemscore.Internal.Correction>
0.0310

> <Gold.Rescore>
     Score         DG    S(hbond)    S(metal)    S(lipo)     H(rot)  DE(clash)    DE(int)     intcor
     13.39     -14.38       1.96        0.00      66.96       2.15       0.16       0.82       ----

> <Gold.Chemscore.Fitness>
13.3912

> <Gold.Chemscore.DG>
-14.3758

> <Gold.Chemscore.ZeroCoef>
-5.4800

> <Gold.Chemscore.Hbond>
1.9639

> <Gold.Chemscore.Metal>
0.0000

> <Gold.Chemscore.Lipo>
66.9558

> <Gold.Chemscore.Internal_Hbond>
0.0000

> <Gold.Chemscore.DEClash>
0.1615

> <Gold.Chemscore.DEInternal>
0.8231

> <Gold.Chemscore.Rot>
2.1474

> <Gold.Chemscore.Internal.Correction>
   9.000000E+99

> <Gold.Chemscore.Hbonds>
donor molecule, donor type, donor heavy atom, donor atom, acceptor molecule, acceptor atom, score
      L1  H    12    31       P1  8028  0.97
      P1  H  7997  8008       L1     4  0.60

> <Gold.Chemscore.Hbond.Weighted>
-6.5593

> <Gold.Chemscore.Metal.Weighted>
-0.0000

> <Gold.Chemscore.Lipo.Weighted>
-7.8338

> <Gold.Chemscore.Internal_Hbond.Weighted>
0.0000

> <Gold.Chemscore.DEClash.Weighted>
0.1615

> <Gold.Chemscore.DEInternal.Weighted>
0.8231

> <Gold.Chemscore.Rot.Weighted>
5.4974

> <Gold.Chemscore.Internal.Correction.Weighted>
   9.000000E+99

> <Gold.Protein.RotatedTorsions>
[ 6907 6896 6895 6894 ] final -177.19 input  -60.11 | X-H torsion
[ 7974 7965 7964 7962 ] final  -70.30 input  175.53 | X-H torsion
[ 8008 7997 7996 7995 ] final  -85.98 input   59.86 | X-H torsion
[ 10167 10162 10161 10158 ] final -130.71 input  -65.29 | X-H torsion
[ 10718 10713 10712 10709 ] final -141.82 input   66.30 | X-H torsion
[ 10763 10752 10751 10750 ] final  110.23 input  -60.55 | X-H torsion
[ 11005 11000 10999 10996 ] final -136.28 input  -57.11 | X-H torsion

> <Gold.Protein.ActiveResidues>
 VAL166  LYS551  ARG553  GLY616  TRP617  ASP618  TYR619  PRO620  LYS621  CYS622 
 ASP623  PHE694  ASN695  SER759  ASP760  ASP761  ALA762  ILE779  LEU786  VAL792 
 PHE793  MET794  SER795  GLU796  ALA797  LYS798  CYS799  TRP800  GLU811  SER814 

> <Gold.Protein.RotatedAtoms>
  151.6170  133.3342  159.3079 H   0  0  0  0  0  0  0  0  0  0  0  0  # atno 6907 bound_to 6896
  150.8126  134.7293  159.6713 H   0  0  0  0  0  0  0  0  0  0  0  0  # atno 6908 bound_to 6896
  152.4222  134.5939  160.0033 H   0  0  0  0  0  0  0  0  0  0  0  0  # atno 6909 bound_to 6896
  145.6927  140.9147  143.0773 H   0  0  0  0  0  0  0  0  0  0  0  0  # atno 7974 bound_to 7965
  154.6467  140.0584  156.9909 H   0  0  0  0  0  0  0  0  0  0  0  0  # atno 8008 bound_to 7997
  155.1433  140.3267  155.4428 H   0  0  0  0  0  0  0  0  0  0  0  0  # atno 8009 bound_to 7997
  156.2557  140.1960  156.6548 H   0  0  0  0  0  0  0  0  0  0  0  0  # atno 8010 bound_to 7997
  139.9265  143.6322  152.2541 H   0  0  0  0  0  0  0  0  0  0  0  0  # atno 10167 bound_to 10162
  156.3386  130.7625  151.1757 H   0  0  0  0  0  0  0  0  0  0  0  0  # atno 10718 bound_to 10713
  153.4460  135.3755  155.2256 H   0  0  0  0  0  0  0  0  0  0  0  0  # atno 10763 bound_to 10752
  154.8755  135.3874  154.4095 H   0  0  0  0  0  0  0  0  0  0  0  0  # atno 10764 bound_to 10752
  153.4647  135.7087  153.6092 H   0  0  0  0  0  0  0  0  0  0  0  0  # atno 10765 bound_to 10752
  140.8820  134.1920  157.4585 H   0  0  0  0  0  0  0  0  0  0  0  0  # atno 11005 bound_to 11000
  144.6992  139.8843  143.7449 LP  0  0  0  0  0  0  0  0  0  0  0  0  # atno 17320 bound_to 7965
  146.0868  139.3856  143.0431 LP  0  0  0  0  0  0  0  0  0  0  0  0  # atno 17321 bound_to 7965
  139.6818  144.7655  151.1595 LP  0  0  0  0  0  0  0  0  0  0  0  0  # atno 17342 bound_to 10162
  140.7649  143.5714  150.8992 LP  0  0  0  0  0  0  0  0  0  0  0  0  # atno 17343 bound_to 10162
  157.7443  131.0461  150.4876 LP  0  0  0  0  0  0  0  0  0  0  0  0  # atno 17370 bound_to 10713
  156.5053  130.4126  149.6331 LP  0  0  0  0  0  0  0  0  0  0  0  0  # atno 17371 bound_to 10713
  139.8720  134.9821  156.5144 LP  0  0  0  0  0  0  0  0  0  0  0  0  # atno 17394 bound_to 11000
  140.8450  133.8176  155.9112 LP  0  0  0  0  0  0  0  0  0  0  0  0  # atno 17395 bound_to 11000

$$$$
