AV-unprocessed.smi:2126|AV-procd|sdf|8676|dock9
  -GOLD-   2272011433D 1   1.00000     0.00000
 Structure written by MMmdl.
 40 42  0  0  0  0  0  0  0  0  1 V2000
  143.0587  146.0117  154.8404 C   0  0  0  0  0  0  0  0  0  0  0  0
  143.5140  144.9850  155.7097 O   0  0  0  0  0  0  0  0  0  0  0  0
  144.4502  144.0955  155.2277 C   0  0  0  0  0  0  0  0  0  0  0  0
  144.9524  144.1058  153.9033 C   0  0  0  0  0  0  0  0  0  0  0  0
  145.9095  143.1561  153.4969 C   0  0  0  0  0  0  0  0  0  0  0  0
  146.3883  142.1799  154.3927 C   0  0  0  0  0  0  0  0  0  0  0  0
  147.3237  141.2902  153.9096 O   0  0  0  0  0  0  0  0  0  0  0  0
  147.8881  140.3494  154.8139 C   0  0  0  0  0  0  0  0  0  0  0  0
  149.4129  140.5293  154.8303 C   0  0  1  0  0  0  0  0  0  0  0  0
  149.8525  140.7754  153.5089 O   0  0  0  0  0  0  0  0  0  0  0  0
  149.8590  141.6815  155.7516 C   0  0  0  0  0  0  0  0  0  0  0  0
  150.9313  141.2908  156.6488 N   0  0  0  0  0  0  0  0  0  0  0  0
  151.6692  140.1650  156.5952 C   0  0  0  0  0  0  0  0  0  0  0  0
  152.6060  140.0063  157.5260 N   0  0  0  0  0  0  0  0  0  0  0  0
  152.4642  141.1674  158.2663 C   0  0  0  0  0  0  0  0  0  0  0  0
  153.1665  141.6214  159.4057 C   0  0  0  0  0  0  0  0  0  0  0  0
  152.8422  142.8596  159.9984 C   0  0  0  0  0  0  0  0  0  0  0  0
  151.8128  143.6612  159.4633 C   0  0  0  0  0  0  0  0  0  0  0  0
  151.0981  143.2296  158.3294 C   0  0  0  0  0  0  0  0  0  0  0  0
  151.4251  141.9939  157.7414 C   0  0  0  0  0  0  0  0  0  0  0  0
  145.8872  142.1705  155.7175 C   0  0  0  0  0  0  0  0  0  0  0  0
  144.9291  143.1192  156.1234 C   0  0  0  0  0  0  0  0  0  0  0  0
  142.3312  146.6305  155.3654 H   0  0  0  0  0  0  0  0  0  0  0  0
  142.5657  145.5984  153.9594 H   0  0  0  0  0  0  0  0  0  0  0  0
  143.8772  146.6605  154.5253 H   0  0  0  0  0  0  0  0  0  0  0  0
  144.6197  144.8328  153.1783 H   0  0  0  0  0  0  0  0  0  0  0  0
  146.2815  143.1782  152.4830 H   0  0  0  0  0  0  0  0  0  0  0  0
  147.4866  140.5258  155.8135 H   0  0  0  0  0  0  0  0  0  0  0  0
  147.6352  139.3284  154.5227 H   0  0  0  0  0  0  0  0  0  0  0  0
  149.8746  139.5971  155.1581 H   0  0  0  0  0  0  0  0  0  0  0  0
  149.4567  140.1346  152.9380 H   0  0  0  0  0  0  0  0  0  0  0  0
  150.1907  142.5365  155.1604 H   0  0  0  0  0  0  0  0  0  0  0  0
  149.0216  142.0284  156.3579 H   0  0  0  0  0  0  0  0  0  0  0  0
  151.5061  139.4179  155.8320 H   0  0  0  0  0  0  0  0  0  0  0  0
  153.9567  141.0158  159.8242 H   0  0  0  0  0  0  0  0  0  0  0  0
  153.3866  143.1964  160.8684 H   0  0  0  0  0  0  0  0  0  0  0  0
  151.5717  144.6079  159.9242 H   0  0  0  0  0  0  0  0  0  0  0  0
  150.3084  143.8400  157.9168 H   0  0  0  0  0  0  0  0  0  0  0  0
  146.2211  141.4453  156.4437 H   0  0  0  0  0  0  0  0  0  0  0  0
  144.5575  143.0964  157.1373 H   0  0  0  0  0  0  0  0  0  0  0  0
  1  2  1  0  0  0  0
  1 23  1  0  0  0  0
  1 24  1  0  0  0  0
  1 25  1  0  0  0  0
  2  3  1  0  0  0  0
  3 22  1  0  0  0  0
  3  4  2  0  0  0  0
  4  5  1  0  0  0  0
  4 26  1  0  0  0  0
  5  6  2  0  0  0  0
  5 27  1  0  0  0  0
  6  7  1  0  0  0  0
  6 21  1  0  0  0  0
  7  8  1  0  0  0  0
  8  9  1  0  0  0  0
  8 28  1  0  0  0  0
  8 29  1  0  0  0  0
  9 10  1  0  0  0  0
  9 11  1  0  0  0  0
  9 30  1  0  0  0  0
 10 31  1  0  0  0  0
 11 12  1  0  0  0  0
 11 32  1  0  0  0  0
 11 33  1  0  0  0  0
 12 20  1  0  0  0  0
 12 13  1  0  0  0  0
 13 14  2  0  0  0  0
 13 34  1  0  0  0  0
 14 15  1  0  0  0  0
 15 20  2  0  0  0  0
 15 16  1  0  0  0  0
 16 17  2  0  0  0  0
 16 35  1  0  0  0  0
 17 18  1  0  0  0  0
 17 36  1  0  0  0  0
 18 19  2  0  0  0  0
 18 37  1  0  0  0  0
 19 20  1  0  0  0  0
 19 38  1  0  0  0  0
 21 22  2  0  0  0  0
 21 39  1  0  0  0  0
 22 40  1  0  0  0  0
M  END
> <s_m_source_file>
AV-unprocessed.smi

> <i_m_source_file_index>
2126

> <i_lp_mmshare_version>
43012

> <i_f3d_flags>
0

> <s_epik_input>
W0NIM11PYzFbY0hdW2NIXWMoW2NIXVtjSF0xKU9bQ0gyXVtDQEhdKFtPSF0pW0NIMl1uKFtjSF1uMiljKGMyMylbY0hdW2NIXVtjSF1bY0hdMw==

> <s_epik_cmdline>
J2VwaWtfcHl0aG9uJywgJy1waCcsICc3LjAnLCAnLXRuJywgJzgnLCAnLW1hJywgJzIwMCcsICctbWV0YWxfYmluZGluZycsICctaW1hZScsICc8aW5maWxlLm1hZT4nLCAnLW9tYWUnLCAnPG91dGZpbGUubWFlPic=

> <r_lp_tautomer_probability>
1

> <r_epik_Ionization_Penalty>
0.0608933

> <r_epik_Ionization_Penalty_Charging>
0

> <r_epik_Ionization_Penalty_Neutral>
0.0608933

> <r_epik_State_Penalty>
0.0528196

> <r_epik_Charging_Adjusted_Penalty>
0.0528196

> <i_epik_Tot_Q>
0

> <i_epik_Tot_abs_Q>
0

> <r_epik_Metal_State_Penalty>
5.52429e-05

> <b_epik_Metal_Only>
0

> <s_lp_Force_Field>
OPLS_2005

> <r_lp_Energy>
17.4847

> <b_lp_Chiralities_Consistent>
1

> <s_lp_Variant>
AV-unprocessed.smi:2126-2

> <Gold.Version>
5.8.1

> <Gold.Id.Protein>
6NUR|6NUR_protein|mol2

> <Gold.PLP.Fitness>
52.9513

> <Gold.PLP.PLP>
-47.0331

> <Gold.PLP.part.hbond>
-3.4385

> <Gold.PLP.part.metal>
0.0000

> <Gold.PLP.part.buried>
-6.2052

> <Gold.PLP.part.nonpolar>
-36.7454

> <Gold.PLP.part.repulsive>
0.2049

> <Gold.PLP.ligand.clash>
0.0000

> <Gold.PLP.ligand.torsion>
1.4029

> <Gold.PLP.Chemscore.Hbond>
2.8640

> <Gold.PLP.Chemscore.CHOScore>
0.0000

> <Gold.PLP.Chemscore.Metal>
0.0000

> <Gold.Chemscore.Hbonds>
donor molecule, donor type, donor heavy atom, donor atom, acceptor molecule, acceptor atom, score
      L1  H    10    31       P1  7957  0.53
      P1  H  7989  7998       L1    10  0.37
      P1  H  7997  8008       L1    14  1.00
      P1  H  8011  8017       L1    10  1.00

> <Gold.PLP.Chemscore.Internal.Correction>
0.1320

> <Gold.Rescore>
     Score         DG    S(hbond)    S(metal)    S(lipo)     H(rot)  DE(clash)    DE(int)     intcor
     17.93     -19.90       2.02        0.00     120.35       2.51       0.47       1.50       ----

> <Gold.Chemscore.Fitness>
17.9319

> <Gold.Chemscore.DG>
-19.8988

> <Gold.Chemscore.ZeroCoef>
-5.4800

> <Gold.Chemscore.Hbond>
2.0235

> <Gold.Chemscore.Metal>
0.0000

> <Gold.Chemscore.Lipo>
120.3537

> <Gold.Chemscore.Internal_Hbond>
0.0000

> <Gold.Chemscore.DEClash>
0.4710

> <Gold.Chemscore.DEInternal>
1.4959

> <Gold.Chemscore.Rot>
2.5083

> <Gold.Chemscore.Internal.Correction>
   9.000000E+99

> <Gold.Chemscore.Hbonds>
donor molecule, donor type, donor heavy atom, donor atom, acceptor molecule, acceptor atom, score
      L1  H    10    31       P1  7957  0.54
      P1  H  7989  7998       L1    10  0.26
      P1  H  7997  8008       L1    14  0.41
      P1  H  8011  8017       L1    10  0.28

> <Gold.Chemscore.Hbond.Weighted>
-6.7586

> <Gold.Chemscore.Metal.Weighted>
-0.0000

> <Gold.Chemscore.Lipo.Weighted>
-14.0814

> <Gold.Chemscore.Internal_Hbond.Weighted>
0.0000

> <Gold.Chemscore.DEClash.Weighted>
0.4710

> <Gold.Chemscore.DEInternal.Weighted>
1.4959

> <Gold.Chemscore.Rot.Weighted>
6.4212

> <Gold.Chemscore.Internal.Correction.Weighted>
   9.000000E+99

> <Gold.Protein.RotatedTorsions>
[ 6907 6896 6895 6894 ] final -134.94 input  -60.11 | X-H torsion
[ 7974 7965 7964 7962 ] final  161.43 input  175.53 | X-H torsion
[ 8008 7997 7996 7995 ] final  -61.33 input   59.86 | X-H torsion
[ 10167 10162 10161 10158 ] final    8.52 input  -65.29 | X-H torsion
[ 10718 10713 10712 10709 ] final   94.16 input   66.30 | X-H torsion
[ 10763 10752 10751 10750 ] final -161.24 input  -60.55 | X-H torsion
[ 11005 11000 10999 10996 ] final    4.19 input  -57.11 | X-H torsion

> <Gold.Protein.ActiveResidues>
 VAL166  LYS551  ARG553  GLY616  TRP617  ASP618  TYR619  PRO620  LYS621  CYS622 
 ASP623  PHE694  ASN695  SER759  ASP760  ASP761  ALA762  ILE779  LEU786  VAL792 
 PHE793  MET794  SER795  GLU796  ALA797  LYS798  CYS799  TRP800  GLU811  SER814 

> <Gold.Protein.RotatedAtoms>
  150.9919  133.6141  159.2706 H   0  0  0  0  0  0  0  0  0  0  0  0  # atno 6907 bound_to 6896
  151.3359  135.0851  159.9364 H   0  0  0  0  0  0  0  0  0  0  0  0  # atno 6908 bound_to 6896
  152.5248  133.9539  159.7739 H   0  0  0  0  0  0  0  0  0  0  0  0  # atno 6909 bound_to 6896
  144.7686  139.7896  143.6305 H   0  0  0  0  0  0  0  0  0  0  0  0  # atno 7974 bound_to 7965
  154.4443  140.1020  156.6414 H   0  0  0  0  0  0  0  0  0  0  0  0  # atno 8008 bound_to 7997
  155.5497  140.3485  155.4447 H   0  0  0  0  0  0  0  0  0  0  0  0  # atno 8009 bound_to 7997
  156.0538  140.1310  157.0009 H   0  0  0  0  0  0  0  0  0  0  0  0  # atno 8010 bound_to 7997
  140.6309  143.7996  150.7294 H   0  0  0  0  0  0  0  0  0  0  0  0  # atno 10167 bound_to 10162
  157.6950  131.0503  150.4144 H   0  0  0  0  0  0  0  0  0  0  0  0  # atno 10718 bound_to 10713
  154.7321  135.3049  154.8874 H   0  0  0  0  0  0  0  0  0  0  0  0  # atno 10763 bound_to 10752
  153.9713  135.6741  153.4751 H   0  0  0  0  0  0  0  0  0  0  0  0  # atno 10764 bound_to 10752
  153.0928  135.4951  154.8643 H   0  0  0  0  0  0  0  0  0  0  0  0  # atno 10765 bound_to 10752
  140.5847  133.9980  155.8062 H   0  0  0  0  0  0  0  0  0  0  0  0  # atno 11005 bound_to 11000
  146.1815  139.5009  142.9863 LP  0  0  0  0  0  0  0  0  0  0  0  0  # atno 17320 bound_to 7965
  145.6392  141.0288  143.1821 LP  0  0  0  0  0  0  0  0  0  0  0  0  # atno 17321 bound_to 7965
  140.1607  143.4278  152.2069 LP  0  0  0  0  0  0  0  0  0  0  0  0  # atno 17342 bound_to 10162
  139.5523  144.7347  151.4397 LP  0  0  0  0  0  0  0  0  0  0  0  0  # atno 17343 bound_to 10162
  156.4525  130.4014  149.6627 LP  0  0  0  0  0  0  0  0  0  0  0  0  # atno 17370 bound_to 10713
  156.3771  130.7560  151.2549 LP  0  0  0  0  0  0  0  0  0  0  0  0  # atno 17371 bound_to 10713
  141.0974  133.9822  157.3137 LP  0  0  0  0  0  0  0  0  0  0  0  0  # atno 17394 bound_to 11000
  139.9301  135.0200  156.8371 LP  0  0  0  0  0  0  0  0  0  0  0  0  # atno 17395 bound_to 11000

$$$$
