AV-unprocessed.smi:2600|AV-procd|sdf|10182|dock4
  -GOLD-   2272014193D 1   1.00000     0.00000
 Structure written by MMmdl.
 44 45  0  0  0  0  0  0  0  0  1 V2000
  146.9874  140.9758  153.9007 C   0  0  0  0  0  0  0  0  0  0  0  0
  148.3687  141.4486  154.3829 C   0  0  0  0  0  0  0  0  0  0  0  0
  149.2643  140.3559  155.0139 C   0  0  2  0  0  0  0  0  0  0  0  0
  148.6246  139.9210  156.3520 C   0  0  0  0  0  0  0  0  0  0  0  0
  150.7216  140.8521  155.2118 C   0  0  0  0  0  0  0  0  0  0  0  0
  151.5759  139.7302  155.6273 N   0  0  0  0  0  0  0  0  0  0  0  0
  152.1941  139.5695  156.8236 C   0  0  0  0  0  0  0  0  0  0  0  0
  153.1201  138.7770  157.0000 O   0  0  0  0  0  0  0  0  0  0  0  0
  151.7257  140.3568  157.8081 N   0  0  0  0  0  0  0  0  0  0  0  0
  152.2141  140.3881  159.1848 C   0  0  0  0  0  0  0  0  0  0  0  0
  153.2752  141.4832  159.4060 C   0  0  0  0  0  0  0  0  0  0  0  0
  152.8109  142.6640  160.2040 C   0  0  0  0  0  0  0  0  0  0  0  0
  152.6802  142.8045  161.5571 C   0  0  0  0  0  0  0  0  0  0  0  0
  152.2227  144.1398  161.7259 C   0  0  0  0  0  0  0  0  0  0  0  0
  152.0693  144.7717  160.5759 N   0  0  0  0  0  0  0  0  0  0  0  0
  152.4227  143.8669  159.6383 N   0  0  0  0  0  0  0  0  0  0  0  0
  152.3632  144.2519  158.2411 C   0  0  0  0  0  0  0  0  0  0  0  0
  151.5854  138.7002  154.5864 C   0  0  0  0  0  0  0  0  0  0  0  0
  150.1523  138.1735  154.4098 C   0  0  0  0  0  0  0  0  0  0  0  0
  149.2619  139.2490  154.1021 O   0  0  0  0  0  0  0  0  0  0  0  0
  146.3900  141.8244  153.5666 H   0  0  0  0  0  0  0  0  0  0  0  0
  146.4333  140.4789  154.6972 H   0  0  0  0  0  0  0  0  0  0  0  0
  147.0626  140.2879  153.0593 H   0  0  0  0  0  0  0  0  0  0  0  0
  148.8930  141.9124  153.5463 H   0  0  0  0  0  0  0  0  0  0  0  0
  148.2143  142.2435  155.1137 H   0  0  0  0  0  0  0  0  0  0  0  0
  148.5551  140.7620  157.0426 H   0  0  0  0  0  0  0  0  0  0  0  0
  149.1940  139.1423  156.8566 H   0  0  0  0  0  0  0  0  0  0  0  0
  147.6162  139.5355  156.2001 H   0  0  0  0  0  0  0  0  0  0  0  0
  151.1306  141.2399  154.2792 H   0  0  0  0  0  0  0  0  0  0  0  0
  150.7320  141.6966  155.9007 H   0  0  0  0  0  0  0  0  0  0  0  0
  150.9675  140.9845  157.5829 H   0  0  0  0  0  0  0  0  0  0  0  0
  151.3871  140.5181  159.8840 H   0  0  0  0  0  0  0  0  0  0  0  0
  152.6460  139.4139  159.4136 H   0  0  0  0  0  0  0  0  0  0  0  0
  154.1514  141.0445  159.8837 H   0  0  0  0  0  0  0  0  0  0  0  0
  153.6214  141.8336  158.4328 H   0  0  0  0  0  0  0  0  0  0  0  0
  152.8910  142.0654  162.3155 H   0  0  0  0  0  0  0  0  0  0  0  0
  151.9982  144.6639  162.6433 H   0  0  0  0  0  0  0  0  0  0  0  0
  152.1739  143.3804  157.6149 H   0  0  0  0  0  0  0  0  0  0  0  0
  153.3098  144.7047  157.9461 H   0  0  0  0  0  0  0  0  0  0  0  0
  151.5603  144.9729  158.0826 H   0  0  0  0  0  0  0  0  0  0  0  0
  151.9445  139.1311  153.6508 H   0  0  0  0  0  0  0  0  0  0  0  0
  152.2583  137.8721  154.8129 H   0  0  0  0  0  0  0  0  0  0  0  0
  150.1185  137.4534  153.5921 H   0  0  0  0  0  0  0  0  0  0  0  0
  149.8213  137.6407  155.3013 H   0  0  0  0  0  0  0  0  0  0  0  0
  1  2  1  0  0  0  0
  1 21  1  0  0  0  0
  1 22  1  0  0  0  0
  1 23  1  0  0  0  0
  2  3  1  0  0  0  0
  2 24  1  0  0  0  0
  2 25  1  0  0  0  0
  3 20  1  0  0  0  0
  3  4  1  0  0  0  0
  3  5  1  0  0  0  0
  4 26  1  0  0  0  0
  4 27  1  0  0  0  0
  4 28  1  0  0  0  0
  5  6  1  0  0  0  0
  5 29  1  0  0  0  0
  5 30  1  0  0  0  0
  6  7  1  0  0  0  0
  6 18  1  0  0  0  0
  7  8  2  0  0  0  0
  7  9  1  0  0  0  0
  9 10  1  0  0  0  0
  9 31  1  0  0  0  0
 10 11  1  0  0  0  0
 10 32  1  0  0  0  0
 10 33  1  0  0  0  0
 11 12  1  0  0  0  0
 11 34  1  0  0  0  0
 11 35  1  0  0  0  0
 12 16  1  0  0  0  0
 12 13  2  0  0  0  0
 13 14  1  0  0  0  0
 13 36  1  0  0  0  0
 14 15  2  0  0  0  0
 14 37  1  0  0  0  0
 15 16  1  0  0  0  0
 16 17  1  0  0  0  0
 17 38  1  0  0  0  0
 17 39  1  0  0  0  0
 17 40  1  0  0  0  0
 18 19  1  0  0  0  0
 18 41  1  0  0  0  0
 18 42  1  0  0  0  0
 19 20  1  0  0  0  0
 19 43  1  0  0  0  0
 19 44  1  0  0  0  0
M  END
> <s_m_source_file>
AV-unprocessed.smi

> <i_m_source_file_index>
2600

> <i_lp_mmshare_version>
43012

> <i_f3d_flags>
0

> <s_epik_input>
W0NIM11bQ0gyXVtDQEBdMShbQ0gzXSlbQ0gyXU4oW0NIMl1bQ0gyXU8xKUMoPU8pW05IXVtDSDJdW0NIMl1jMltjSF1bY0hdbm4yW0NIM10=

> <s_epik_cmdline>
J2VwaWtfcHl0aG9uJywgJy1waCcsICc3LjAnLCAnLXRuJywgJzgnLCAnLW1hJywgJzIwMCcsICctbWV0YWxfYmluZGluZycsICctaW1hZScsICc8aW5maWxlLm1hZT4nLCAnLW9tYWUnLCAnPG91dGZpbGUubWFlPic=

> <r_lp_tautomer_probability>
1

> <r_epik_Ionization_Penalty>
0.00252014

> <r_epik_Ionization_Penalty_Charging>
0

> <r_epik_Ionization_Penalty_Neutral>
0.00252014

> <r_epik_State_Penalty>
0.00172506

> <r_epik_Charging_Adjusted_Penalty>
0.00172506

> <i_epik_Tot_Q>
0

> <i_epik_Tot_abs_Q>
0

> <r_epik_Metal_State_Penalty>
-0

> <b_epik_Metal_Only>
0

> <s_lp_Force_Field>
OPLS_2005

> <r_lp_Energy>
29.2507

> <b_lp_Chiralities_Consistent>
1

> <s_lp_Variant>
AV-unprocessed.smi:2600-2

> <Gold.Version>
5.8.1

> <Gold.Id.Protein>
6NUR|6NUR_protein|mol2

> <Gold.PLP.Fitness>
46.5649

> <Gold.PLP.PLP>
-45.7614

> <Gold.PLP.part.hbond>
-1.0000

> <Gold.PLP.part.metal>
0.0000

> <Gold.PLP.part.buried>
-3.1515

> <Gold.PLP.part.nonpolar>
-41.9104

> <Gold.PLP.part.repulsive>
0.7691

> <Gold.PLP.ligand.clash>
0.0000

> <Gold.PLP.ligand.torsion>
1.0387

> <Gold.PLP.Chemscore.Hbond>
0.9500

> <Gold.PLP.Chemscore.CHOScore>
0.0000

> <Gold.PLP.Chemscore.Metal>
0.0000

> <Gold.Chemscore.Hbonds>
donor molecule, donor type, donor heavy atom, donor atom, acceptor molecule, acceptor atom, score
      P1  H  7997  8008       L1     8  0.89

> <Gold.PLP.Chemscore.Internal.Correction>
0.0308

> <Gold.Rescore>
     Score         DG    S(hbond)    S(metal)    S(lipo)     H(rot)  DE(clash)    DE(int)     intcor
     15.11     -17.50       0.76        0.00     113.34       1.47       1.36       1.03       ----

> <Gold.Chemscore.Fitness>
15.1064

> <Gold.Chemscore.DG>
-17.4971

> <Gold.Chemscore.ZeroCoef>
-5.4800

> <Gold.Chemscore.Hbond>
0.7571

> <Gold.Chemscore.Metal>
0.0000

> <Gold.Chemscore.Lipo>
113.3357

> <Gold.Chemscore.Internal_Hbond>
0.0000

> <Gold.Chemscore.DEClash>
1.3576

> <Gold.Chemscore.DEInternal>
1.0331

> <Gold.Chemscore.Rot>
1.4735

> <Gold.Chemscore.Internal.Correction>
   9.000000E+99

> <Gold.Chemscore.Hbonds>
donor molecule, donor type, donor heavy atom, donor atom, acceptor molecule, acceptor atom, score
      P1  H  7997  8008       L1     8  0.17

> <Gold.Chemscore.Hbond.Weighted>
-2.5289

> <Gold.Chemscore.Metal.Weighted>
-0.0000

> <Gold.Chemscore.Lipo.Weighted>
-13.2603

> <Gold.Chemscore.Internal_Hbond.Weighted>
0.0000

> <Gold.Chemscore.DEClash.Weighted>
1.3576

> <Gold.Chemscore.DEInternal.Weighted>
1.0331

> <Gold.Chemscore.Rot.Weighted>
3.7721

> <Gold.Chemscore.Internal.Correction.Weighted>
   9.000000E+99

> <Gold.Protein.RotatedTorsions>
[ 6907 6896 6895 6894 ] final  103.28 input  -60.11 | X-H torsion
[ 7974 7965 7964 7962 ] final  -67.91 input  175.53 | X-H torsion
[ 8008 7997 7996 7995 ] final  -81.49 input   59.86 | X-H torsion
[ 10167 10162 10161 10158 ] final -170.33 input  -65.29 | X-H torsion
[ 10718 10713 10712 10709 ] final  111.32 input   66.30 | X-H torsion
[ 10763 10752 10751 10750 ] final  -83.30 input  -60.55 | X-H torsion
[ 11005 11000 10999 10996 ] final -176.58 input  -57.11 | X-H torsion

> <Gold.Protein.ActiveResidues>
 VAL166  LYS551  ARG553  GLY616  TRP617  ASP618  TYR619  PRO620  LYS621  CYS622 
 ASP623  PHE694  ASN695  SER759  ASP760  ASP761  ALA762  ILE779  LEU786  VAL792 
 PHE793  MET794  SER795  GLU796  ALA797  LYS798  CYS799  TRP800  GLU811  SER814 

> <Gold.Protein.RotatedAtoms>
  152.5300  133.9850  159.7823 H   0  0  0  0  0  0  0  0  0  0  0  0  # atno 6907 bound_to 6896
  151.0096  133.5970  159.2691 H   0  0  0  0  0  0  0  0  0  0  0  0  # atno 6908 bound_to 6896
  151.3049  135.0785  159.9305 H   0  0  0  0  0  0  0  0  0  0  0  0  # atno 6909 bound_to 6896
  145.7232  140.9029  143.0619 H   0  0  0  0  0  0  0  0  0  0  0  0  # atno 7974 bound_to 7965
  154.5989  140.0647  156.9341 H   0  0  0  0  0  0  0  0  0  0  0  0  # atno 8008 bound_to 7997
  155.2167  140.3327  155.4303 H   0  0  0  0  0  0  0  0  0  0  0  0  # atno 8009 bound_to 7997
  156.2305  140.1839  156.7238 H   0  0  0  0  0  0  0  0  0  0  0  0  # atno 8010 bound_to 7997
  139.5868  144.1300  152.1585 H   0  0  0  0  0  0  0  0  0  0  0  0  # atno 10167 bound_to 10162
  157.6450  131.0948  150.6732 H   0  0  0  0  0  0  0  0  0  0  0  0  # atno 10718 bound_to 10713
  154.5861  135.5561  153.7232 H   0  0  0  0  0  0  0  0  0  0  0  0  # atno 10763 bound_to 10752
  153.0099  135.6332  154.1915 H   0  0  0  0  0  0  0  0  0  0  0  0  # atno 10764 bound_to 10752
  154.1855  135.2885  155.3018 H   0  0  0  0  0  0  0  0  0  0  0  0  # atno 10765 bound_to 10752
  140.4505  134.6347  157.4799 H   0  0  0  0  0  0  0  0  0  0  0  0  # atno 11005 bound_to 11000
  144.6911  139.9230  143.7468 LP  0  0  0  0  0  0  0  0  0  0  0  0  # atno 17320 bound_to 7965
  146.0607  139.3600  143.0583 LP  0  0  0  0  0  0  0  0  0  0  0  0  # atno 17321 bound_to 7965
  140.0866  144.5656  150.7084 LP  0  0  0  0  0  0  0  0  0  0  0  0  # atno 17342 bound_to 10162
  140.7138  143.2527  151.4497 LP  0  0  0  0  0  0  0  0  0  0  0  0  # atno 17343 bound_to 10162
  156.7050  130.4635  149.5562 LP  0  0  0  0  0  0  0  0  0  0  0  0  # atno 17370 bound_to 10713
  156.1769  130.6473  151.0905 LP  0  0  0  0  0  0  0  0  0  0  0  0  # atno 17371 bound_to 10713
  140.0010  134.6837  155.9531 LP  0  0  0  0  0  0  0  0  0  0  0  0  # atno 17394 bound_to 11000
  141.1666  133.6537  156.4501 LP  0  0  0  0  0  0  0  0  0  0  0  0  # atno 17395 bound_to 11000

$$$$
