AV-unprocessed.smi:625|AV-procd|sdf|3106|dock10
  -GOLD-   22720 0 33D 1   1.00000     0.00000
 Structure written by MMmdl.
 49 51  0  0  0  0  0  0  0  0  1 V2000
  146.8468  133.5303  151.5231 C   0  0  0  0  0  0  0  0  0  0  0  0
  147.7780  133.4542  152.6387 N   0  0  0  0  0  0  0  0  0  0  0  0
  148.1011  132.3211  153.2861 C   0  0  0  0  0  0  0  0  0  0  0  0
  147.6151  131.2352  152.9668 O   0  0  0  0  0  0  0  0  0  0  0  0
  149.0597  132.5037  154.3800 C   0  0  0  0  0  0  0  0  0  0  0  0
  149.9572  131.4170  154.7224 C   0  0  0  0  0  0  0  0  0  0  0  0
  150.8390  131.5425  155.7334 C   0  0  0  0  0  0  0  0  0  0  0  0
  150.9320  132.7716  156.5254 C   0  0  0  0  0  0  0  0  0  0  0  0
  151.7202  132.8854  157.4643 O   0  0  0  0  0  0  0  0  0  0  0  0
  150.0804  133.7787  156.1620 N   0  0  0  0  0  0  0  0  0  0  0  0
  150.0685  135.0586  156.8952 C   0  0  0  0  0  0  0  0  0  0  0  0
  150.9259  136.1679  156.2612 C   0  0  0  0  0  0  0  0  0  0  0  0
  152.1210  135.9594  156.0568 O   0  0  0  0  0  0  0  0  0  0  0  0
  150.3264  137.3329  155.9632 N   0  0  0  0  0  0  0  0  0  0  0  0
  150.9761  138.5270  155.4330 C   0  0  1  0  0  0  0  0  0  0  0  0
  150.3902  138.8502  154.0471 C   0  0  0  0  0  0  0  0  0  0  0  0
  150.7966  139.6941  156.4342 C   0  0  2  0  0  0  0  0  0  0  0  0
  149.3586  139.8169  156.9938 C   0  0  0  0  0  0  0  0  0  0  0  0
  148.9884  141.2819  156.7014 C   0  0  1  0  0  0  0  0  0  0  0  0
  149.8219  142.2153  157.5984 C   0  0  0  0  0  0  0  0  0  0  0  0
  151.2274  142.1146  156.9772 C   0  0  0  0  0  0  0  0  0  0  0  0
  151.0199  141.1064  155.8309 C   0  0  2  0  0  0  0  0  0  0  0  0
  149.6299  141.4925  155.3365 C   0  0  0  0  0  0  0  0  0  0  0  0
  149.1567  133.6388  155.1069 C   0  0  0  0  0  0  0  0  0  0  0  0
  146.7478  134.5638  151.1913 H   0  0  0  0  0  0  0  0  0  0  0  0
  145.8595  133.1702  151.8157 H   0  0  0  0  0  0  0  0  0  0  0  0
  147.2005  132.9339  150.6810 H   0  0  0  0  0  0  0  0  0  0  0  0
  148.2057  134.3171  152.9425 H   0  0  0  0  0  0  0  0  0  0  0  0
  149.9290  130.4893  154.1688 H   0  0  0  0  0  0  0  0  0  0  0  0
  151.4946  130.7167  155.9677 H   0  0  0  0  0  0  0  0  0  0  0  0
  149.0463  135.4274  156.9983 H   0  0  0  0  0  0  0  0  0  0  0  0
  150.4152  134.9093  157.9186 H   0  0  0  0  0  0  0  0  0  0  0  0
  149.3389  137.4118  156.1591 H   0  0  0  0  0  0  0  0  0  0  0  0
  152.0431  138.3275  155.3204 H   0  0  0  0  0  0  0  0  0  0  0  0
  150.8727  139.7193  153.6004 H   0  0  0  0  0  0  0  0  0  0  0  0
  149.3215  139.0593  154.1075 H   0  0  0  0  0  0  0  0  0  0  0  0
  150.5270  138.0166  153.3576 H   0  0  0  0  0  0  0  0  0  0  0  0
  151.4985  139.5416  157.2561 H   0  0  0  0  0  0  0  0  0  0  0  0
  148.6681  139.1528  156.4722 H   0  0  0  0  0  0  0  0  0  0  0  0
  149.3054  139.5783  158.0565 H   0  0  0  0  0  0  0  0  0  0  0  0
  147.9164  141.4777  156.7419 H   0  0  0  0  0  0  0  0  0  0  0  0
  149.4523  143.2402  157.5457 H   0  0  0  0  0  0  0  0  0  0  0  0
  149.8055  141.9056  158.6440 H   0  0  0  0  0  0  0  0  0  0  0  0
  151.5430  143.0827  156.5861 H   0  0  0  0  0  0  0  0  0  0  0  0
  151.9802  141.7851  157.6943 H   0  0  0  0  0  0  0  0  0  0  0  0
  151.8028  141.1654  155.0747 H   0  0  0  0  0  0  0  0  0  0  0  0
  149.2397  140.8267  154.5652 H   0  0  0  0  0  0  0  0  0  0  0  0
  149.5666  142.5232  154.9828 H   0  0  0  0  0  0  0  0  0  0  0  0
  148.5394  134.5122  154.9528 H   0  0  0  0  0  0  0  0  0  0  0  0
  1  2  1  0  0  0  0
  1 25  1  0  0  0  0
  1 26  1  0  0  0  0
  1 27  1  0  0  0  0
  2  3  1  0  0  0  0
  2 28  1  0  0  0  0
  3  4  2  0  0  0  0
  3  5  1  0  0  0  0
  5 24  2  0  0  0  0
  5  6  1  0  0  0  0
  6  7  2  0  0  0  0
  6 29  1  0  0  0  0
  7  8  1  0  0  0  0
  7 30  1  0  0  0  0
  8  9  2  0  0  0  0
  8 10  1  0  0  0  0
 10 11  1  0  0  0  0
 10 24  1  0  0  0  0
 11 12  1  0  0  0  0
 11 31  1  0  0  0  0
 11 32  1  0  0  0  0
 12 13  2  0  0  0  0
 12 14  1  0  0  0  0
 14 15  1  0  0  0  0
 14 33  1  0  0  0  0
 15 16  1  0  0  0  0
 15 17  1  0  0  0  0
 15 34  1  0  0  0  0
 16 35  1  0  0  0  0
 16 36  1  0  0  0  0
 16 37  1  0  0  0  0
 17 22  1  0  0  0  0
 17 18  1  0  0  0  0
 17 38  1  0  0  0  0
 18 19  1  0  0  0  0
 18 39  1  0  0  0  0
 18 40  1  0  0  0  0
 19 23  1  0  0  0  0
 19 20  1  0  0  0  0
 19 41  1  0  0  0  0
 20 21  1  0  0  0  0
 20 42  1  0  0  0  0
 20 43  1  0  0  0  0
 21 22  1  0  0  0  0
 21 44  1  0  0  0  0
 21 45  1  0  0  0  0
 22 23  1  0  0  0  0
 22 46  1  0  0  0  0
 23 47  1  0  0  0  0
 23 48  1  0  0  0  0
 24 49  1  0  0  0  0
M  END
> <s_m_source_file>
AV-unprocessed.smi

> <i_m_source_file_index>
625

> <i_lp_mmshare_version>
43012

> <i_f3d_flags>
0

> <s_epik_input>
W0NIM11bTkhdQyg9TyljMVtjSF1bY0hdYyg9TyluKFtjSF0xKVtDSDJdQyg9TylbTkhdW0NASF0oW0NIM10pW0NASF0oW0NIMl1bQ0BIXTIzKVtDQEhdKFtDSDJdMylbQ0gyXVtDSDJdMg==

> <s_epik_cmdline>
J2VwaWtfcHl0aG9uJywgJy1waCcsICc3LjAnLCAnLXRuJywgJzgnLCAnLW1hJywgJzIwMCcsICctbWV0YWxfYmluZGluZycsICctaW1hZScsICc8aW5maWxlLm1hZT4nLCAnLW9tYWUnLCAnPG91dGZpbGUubWFlPic=

> <r_lp_tautomer_probability>
1

> <r_epik_Ionization_Penalty>
3.7129e-07

> <r_epik_Ionization_Penalty_Charging>
5.04114e-08

> <r_epik_Ionization_Penalty_Neutral>
3.20879e-07

> <r_epik_State_Penalty>
-0

> <r_epik_Charging_Adjusted_Penalty>
5.04114e-08

> <i_epik_Tot_Q>
0

> <i_epik_Tot_abs_Q>
0

> <r_epik_Metal_State_Penalty>
-0

> <b_epik_Metal_Only>
0

> <s_lp_Force_Field>
OPLS_2005

> <r_lp_Energy>
63.073

> <b_lp_Chiralities_Consistent>
1

> <s_lp_Variant>
AV-unprocessed.smi:625-6

> <Gold.Version>
5.8.1

> <Gold.Id.Protein>
6NUR|6NUR_protein|mol2

> <Gold.PLP.Fitness>
43.1613

> <Gold.PLP.PLP>
-37.8855

> <Gold.PLP.part.hbond>
-3.0000

> <Gold.PLP.part.metal>
0.0000

> <Gold.PLP.part.buried>
-3.9662

> <Gold.PLP.part.nonpolar>
-30.6630

> <Gold.PLP.part.repulsive>
1.3453

> <Gold.PLP.ligand.clash>
0.0000

> <Gold.PLP.ligand.torsion>
1.0314

> <Gold.PLP.Chemscore.Hbond>
2.4360

> <Gold.PLP.Chemscore.CHOScore>
0.0000

> <Gold.PLP.Chemscore.Metal>
0.0000

> <Gold.Chemscore.Hbonds>
donor molecule, donor type, donor heavy atom, donor atom, acceptor molecule, acceptor atom, score
      L1  H     2    28       P1  7948  0.25
      P1  H  6896  6907       L1     9  0.90
      P1  H 10752 10765       L1    13  1.00

> <Gold.PLP.Chemscore.Internal.Correction>
0.0305

> <Gold.Rescore>
     Score         DG    S(hbond)    S(metal)    S(lipo)     H(rot)  DE(clash)    DE(int)     intcor
     16.11     -18.15       2.21        0.00      81.63       1.67       0.12       1.92       ----

> <Gold.Chemscore.Fitness>
16.1113

> <Gold.Chemscore.DG>
-18.1492

> <Gold.Chemscore.ZeroCoef>
-5.4800

> <Gold.Chemscore.Hbond>
2.2143

> <Gold.Chemscore.Metal>
0.0000

> <Gold.Chemscore.Lipo>
81.6320

> <Gold.Chemscore.Internal_Hbond>
0.0000

> <Gold.Chemscore.DEClash>
0.1203

> <Gold.Chemscore.DEInternal>
1.9176

> <Gold.Chemscore.Rot>
1.6709

> <Gold.Chemscore.Internal.Correction>
   9.000000E+99

> <Gold.Chemscore.Hbonds>
donor molecule, donor type, donor heavy atom, donor atom, acceptor molecule, acceptor atom, score
      L1  H     2    28       P1  7948  0.09
      P1  H  6896  6907       L1     9  0.87
      P1  H 10752 10765       L1    13  0.95

> <Gold.Chemscore.Hbond.Weighted>
-7.3956

> <Gold.Chemscore.Metal.Weighted>
-0.0000

> <Gold.Chemscore.Lipo.Weighted>
-9.5509

> <Gold.Chemscore.Internal_Hbond.Weighted>
0.0000

> <Gold.Chemscore.DEClash.Weighted>
0.1203

> <Gold.Chemscore.DEInternal.Weighted>
1.9176

> <Gold.Chemscore.Rot.Weighted>
4.2774

> <Gold.Chemscore.Internal.Correction.Weighted>
   9.000000E+99

> <Gold.Protein.RotatedTorsions>
[ 6907 6896 6895 6894 ] final -177.53 input  -60.11 | X-H torsion
[ 7974 7965 7964 7962 ] final   -9.08 input  175.53 | X-H torsion
[ 8008 7997 7996 7995 ] final   53.45 input   59.86 | X-H torsion
[ 10167 10162 10161 10158 ] final   55.45 input  -65.29 | X-H torsion
[ 10718 10713 10712 10709 ] final -166.49 input   66.30 | X-H torsion
[ 10763 10752 10751 10750 ] final -137.21 input  -60.55 | X-H torsion
[ 11005 11000 10999 10996 ] final   29.38 input  -57.11 | X-H torsion

> <Gold.Protein.ActiveResidues>
 VAL166  LYS551  ARG553  GLY616  TRP617  ASP618  TYR619  PRO620  LYS621  CYS622 
 ASP623  PHE694  ASN695  SER759  ASP760  ASP761  ALA762  ILE779  LEU786  VAL792 
 PHE793  MET794  SER795  GLU796  ALA797  LYS798  CYS799  TRP800  GLU811  SER814 

> <Gold.Protein.RotatedAtoms>
  151.6226  133.3338  159.3090 H   0  0  0  0  0  0  0  0  0  0  0  0  # atno 6907 bound_to 6896
  150.8098  134.7250  159.6689 H   0  0  0  0  0  0  0  0  0  0  0  0  # atno 6908 bound_to 6896
  152.4194  134.5987  160.0045 H   0  0  0  0  0  0  0  0  0  0  0  0  # atno 6909 bound_to 6896
  146.2262  140.2564  142.8349 H   0  0  0  0  0  0  0  0  0  0  0  0  # atno 7974 bound_to 7965
  155.4685  140.3464  155.4322 H   0  0  0  0  0  0  0  0  0  0  0  0  # atno 8008 bound_to 7997
  156.1115  140.1462  156.9360 H   0  0  0  0  0  0  0  0  0  0  0  0  # atno 8009 bound_to 7997
  154.4760  140.0885  156.7241 H   0  0  0  0  0  0  0  0  0  0  0  0  # atno 8010 bound_to 7997
  140.2193  144.3806  150.6457 H   0  0  0  0  0  0  0  0  0  0  0  0  # atno 10167 bound_to 10162
  156.6686  130.9075  151.3040 H   0  0  0  0  0  0  0  0  0  0  0  0  # atno 10718 bound_to 10713
  154.8667  135.3649  154.5186 H   0  0  0  0  0  0  0  0  0  0  0  0  # atno 10763 bound_to 10752
  153.5817  135.7018  153.5465 H   0  0  0  0  0  0  0  0  0  0  0  0  # atno 10764 bound_to 10752
  153.3451  135.4087  155.1565 H   0  0  0  0  0  0  0  0  0  0  0  0  # atno 10765 bound_to 10752
  140.3055  134.2708  155.7745 H   0  0  0  0  0  0  0  0  0  0  0  0  # atno 11005 bound_to 11000
  144.9373  140.8040  143.5652 LP  0  0  0  0  0  0  0  0  0  0  0  0  # atno 17320 bound_to 7965
  145.2512  139.2031  143.4941 LP  0  0  0  0  0  0  0  0  0  0  0  0  # atno 17321 bound_to 7965
  140.6267  143.2182  151.6582 LP  0  0  0  0  0  0  0  0  0  0  0  0  # atno 17342 bound_to 10162
  139.5150  144.3392  152.0756 LP  0  0  0  0  0  0  0  0  0  0  0  0  # atno 17343 bound_to 10162
  157.7085  130.9413  150.1010 LP  0  0  0  0  0  0  0  0  0  0  0  0  # atno 17370 bound_to 10713
  156.1956  130.3657  149.8853 LP  0  0  0  0  0  0  0  0  0  0  0  0  # atno 17371 bound_to 10713
  141.2119  133.7674  156.9831 LP  0  0  0  0  0  0  0  0  0  0  0  0  # atno 17394 bound_to 11000
  140.1071  134.9500  157.2010 LP  0  0  0  0  0  0  0  0  0  0  0  0  # atno 17395 bound_to 11000

$$$$
