AV-unprocessed.smi:543|AV-procd|sdf|2876|dock3
  -GOLD-   2262023373D 1   1.00000     0.00000
 Structure written by MMmdl.
 45 47  0  0  0  0  0  0  0  0  2 V2000
  147.3783  142.1254  154.0338 C   0  0  0  0  0  0  0  0  0  0  0  0
  148.7906  142.2270  154.0491 O   0  0  0  0  0  0  0  0  0  0  0  0
  149.3989  141.2543  154.8844 C   0  0  0  0  0  0  0  0  0  0  0  0
  149.3396  141.7223  156.3454 C   0  0  0  0  0  0  0  0  0  0  0  0
  150.0257  140.7904  157.2405 N   0  0  0  0  0  0  0  0  0  0  0  0
  151.0990  141.0155  158.0512 C   0  0  0  0  0  0  0  0  0  0  0  0
  151.7586  142.2500  158.1047 N   0  0  0  0  0  0  0  0  0  0  0  0
  151.4046  143.4317  157.3279 C   0  0  0  0  0  0  0  0  0  0  0  0
  153.0194  142.4778  158.8106 C   0  0  0  0  0  0  0  0  0  0  0  0
  152.8866  143.1007  160.1906 C   0  0  0  0  0  0  0  0  0  0  0  0
  152.3501  144.3983  160.3304 C   0  0  0  0  0  0  0  0  0  0  0  0
  152.2125  144.9742  161.6083 C   0  0  0  0  0  0  0  0  0  0  0  0
  152.6143  144.2570  162.7514 C   0  0  0  0  0  0  0  0  0  0  0  0
  153.1534  142.9630  162.6164 C   0  0  0  0  0  0  0  0  0  0  0  0
  153.2893  142.3857  161.3388 C   0  0  0  0  0  0  0  0  0  0  0  0
  151.4358  139.9740  158.8155 N   0  0  0  0  0  0  0  0  0  0  0  0
  150.5231  138.9998  158.4498 C   0  0  0  0  0  0  0  0  0  0  0  0
  149.6597  139.4662  157.5096 C   0  0  0  0  0  0  0  0  0  0  0  0
  148.5454  138.6666  156.9515 C   0  0  0  0  0  0  0  0  0  0  0  0
  147.7785  139.1403  156.1156 O   0  0  0  0  0  0  0  0  0  0  0  0
  148.4994  137.4026  157.4798 N   0  5  0  0  0  0  0  0  0  0  0  0
  149.3561  136.8900  158.4302 C   0  0  0  0  0  0  0  0  0  0  0  0
  149.2399  135.7409  158.8581 O   0  0  0  0  0  0  0  0  0  0  0  0
  150.3693  137.6689  158.9240 N   0  0  0  0  0  0  0  0  0  0  0  0
  151.2913  137.1554  159.9413 C   0  0  0  0  0  0  0  0  0  0  0  0
  146.9642  142.8904  153.3771 H   0  0  0  0  0  0  0  0  0  0  0  0
  146.9622  142.2762  155.0308 H   0  0  0  0  0  0  0  0  0  0  0  0
  147.0562  141.1516  153.6625 H   0  0  0  0  0  0  0  0  0  0  0  0
  148.8870  140.2967  154.7776 H   0  0  0  0  0  0  0  0  0  0  0  0
  150.4369  141.1034  154.5849 H   0  0  0  0  0  0  0  0  0  0  0  0
  149.7800  142.7125  156.4503 H   0  0  0  0  0  0  0  0  0  0  0  0
  148.3041  141.8503  156.6424 H   0  0  0  0  0  0  0  0  0  0  0  0
  150.6585  143.1868  156.5715 H   0  0  0  0  0  0  0  0  0  0  0  0
  152.2707  143.8398  156.8061 H   0  0  0  0  0  0  0  0  0  0  0  0
  150.9994  144.2085  157.9772 H   0  0  0  0  0  0  0  0  0  0  0  0
  153.5929  141.5545  158.9061 H   0  0  0  0  0  0  0  0  0  0  0  0
  153.6266  143.1338  158.1858 H   0  0  0  0  0  0  0  0  0  0  0  0
  152.0345  144.9527  159.4589 H   0  0  0  0  0  0  0  0  0  0  0  0
  151.7970  145.9658  161.7116 H   0  0  0  0  0  0  0  0  0  0  0  0
  152.5082  144.6987  163.7312 H   0  0  0  0  0  0  0  0  0  0  0  0
  153.4612  142.4123  163.4931 H   0  0  0  0  0  0  0  0  0  0  0  0
  153.6995  141.3914  161.2442 H   0  0  0  0  0  0  0  0  0  0  0  0
  150.7533  136.9371  160.8647 H   0  0  0  0  0  0  0  0  0  0  0  0
  152.0856  137.8610  160.1844 H   0  0  0  0  0  0  0  0  0  0  0  0
  151.7698  136.2366  159.5992 H   0  0  0  0  0  0  0  0  0  0  0  0
  1  2  1  0  0  0  0
  1 26  1  0  0  0  0
  1 27  1  0  0  0  0
  1 28  1  0  0  0  0
  2  3  1  0  0  0  0
  3  4  1  0  0  0  0
  3 29  1  0  0  0  0
  3 30  1  0  0  0  0
  4  5  1  0  0  0  0
  4 31  1  0  0  0  0
  4 32  1  0  0  0  0
  5 18  1  0  0  0  0
  5  6  1  0  0  0  0
  6  7  1  0  0  0  0
  6 16  2  0  0  0  0
  7  8  1  0  0  0  0
  7  9  1  0  0  0  0
  8 33  1  0  0  0  0
  8 34  1  0  0  0  0
  8 35  1  0  0  0  0
  9 10  1  0  0  0  0
  9 36  1  0  0  0  0
  9 37  1  0  0  0  0
 10 15  1  0  0  0  0
 10 11  2  0  0  0  0
 11 12  1  0  0  0  0
 11 38  1  0  0  0  0
 12 13  2  0  0  0  0
 12 39  1  0  0  0  0
 13 14  1  0  0  0  0
 13 40  1  0  0  0  0
 14 15  2  0  0  0  0
 14 41  1  0  0  0  0
 15 42  1  0  0  0  0
 16 17  1  0  0  0  0
 17 24  1  0  0  0  0
 17 18  2  0  0  0  0
 18 19  1  0  0  0  0
 19 20  2  0  0  0  0
 19 21  1  0  0  0  0
 21 22  1  0  0  0  0
 22 23  2  0  0  0  0
 22 24  1  0  0  0  0
 24 25  1  0  0  0  0
 25 43  1  0  0  0  0
 25 44  1  0  0  0  0
 25 45  1  0  0  0  0
M  CHG  1  21  -1
M  END
> <s_m_source_file>
AV-unprocessed.smi

> <i_m_source_file_index>
543

> <i_lp_mmshare_version>
43012

> <i_f3d_flags>
0

> <s_epik_input>
W0NIM11uMWMoPU8pW25IXWMoPU8pYyhjMTIpbihbQ0gyXVtDSDJdT1tDSDNdKWMobjIpTihbQ0gzXSlbQ0gyXWMzW2NIXVtjSF1bY0hdW2NIXVtjSF0z

> <s_epik_cmdline>
J2VwaWtfcHl0aG9uJywgJy1waCcsICc3LjAnLCAnLXRuJywgJzgnLCAnLW1hJywgJzIwMCcsICctbWV0YWxfYmluZGluZycsICctaW1hZScsICc8aW5maWxlLm1hZT4nLCAnLW9tYWUnLCAnPG91dGZpbGUubWFlPic=

> <r_lp_tautomer_probability>
1

> <r_epik_Ionization_Penalty>
6.27073

> <r_epik_Ionization_Penalty_Charging>
0.0750099

> <r_epik_Ionization_Penalty_Neutral>
6.19572

> <r_epik_State_Penalty>
6.19553

> <r_epik_Charging_Adjusted_Penalty>
6.27054

> <i_epik_Tot_Q>
-1

> <i_epik_Tot_abs_Q>
1

> <r_epik_Metal_State_Penalty>
2.13591

> <b_epik_Metal_Only>
1

> <s_lp_Force_Field>
OPLS_2005

> <r_lp_Energy>
36.8514

> <b_lp_Chiralities_Consistent>
1

> <s_lp_Variant>
AV-unprocessed.smi:543-2

> <Gold.Version>
5.8.1

> <Gold.Id.Protein>
6NUR|6NUR_protein|mol2

> <Gold.PLP.Fitness>
43.7633

> <Gold.PLP.PLP>
-40.8666

> <Gold.PLP.part.hbond>
-2.0000

> <Gold.PLP.part.metal>
0.0000

> <Gold.PLP.part.buried>
0.8959

> <Gold.PLP.part.nonpolar>
-40.6900

> <Gold.PLP.part.repulsive>
1.3333

> <Gold.PLP.ligand.clash>
4.7127

> <Gold.PLP.ligand.torsion>
0.4924

> <Gold.PLP.Chemscore.Hbond>
1.2569

> <Gold.PLP.Chemscore.CHOScore>
0.0000

> <Gold.PLP.Chemscore.Metal>
0.0000

> <Gold.Chemscore.Hbonds>
donor molecule, donor type, donor heavy atom, donor atom, acceptor molecule, acceptor atom, score
      P1  H  6896  6909       L1    23  1.00
      P1  H  8011  8017       L1     2  0.29

> <Gold.PLP.Chemscore.Internal.Correction>
4.8235

> <Gold.Rescore>
     Score         DG    S(hbond)    S(metal)    S(lipo)     H(rot)  DE(clash)    DE(int)     intcor
     12.45     -18.34       1.04        0.00     120.11       1.82       4.05       1.84       ----

> <Gold.Chemscore.Fitness>
12.4517

> <Gold.Chemscore.DG>
-18.3427

> <Gold.Chemscore.ZeroCoef>
-5.4800

> <Gold.Chemscore.Hbond>
1.0392

> <Gold.Chemscore.Metal>
0.0000

> <Gold.Chemscore.Lipo>
120.1103

> <Gold.Chemscore.Internal_Hbond>
0.0000

> <Gold.Chemscore.DEClash>
4.0468

> <Gold.Chemscore.DEInternal>
1.8442

> <Gold.Chemscore.Rot>
1.8207

> <Gold.Chemscore.Internal.Correction>
   9.000000E+99

> <Gold.Chemscore.Hbonds>
donor molecule, donor type, donor heavy atom, donor atom, acceptor molecule, acceptor atom, score
      P1  H  6896  6909       L1    23  0.96
      P1  H  8011  8017       L1     2  0.22

> <Gold.Chemscore.Hbond.Weighted>
-3.4709

> <Gold.Chemscore.Metal.Weighted>
-0.0000

> <Gold.Chemscore.Lipo.Weighted>
-14.0529

> <Gold.Chemscore.Internal_Hbond.Weighted>
0.0000

> <Gold.Chemscore.DEClash.Weighted>
4.0468

> <Gold.Chemscore.DEInternal.Weighted>
1.8442

> <Gold.Chemscore.Rot.Weighted>
4.6610

> <Gold.Chemscore.Internal.Correction.Weighted>
   9.000000E+99

> <Gold.Protein.RotatedTorsions>
[ 6907 6896 6895 6894 ] final   42.07 input  -60.11 | X-H torsion
[ 7974 7965 7964 7962 ] final  120.19 input  175.53 | X-H torsion
[ 8008 7997 7996 7995 ] final  133.59 input   59.86 | X-H torsion
[ 10167 10162 10161 10158 ] final   47.39 input  -65.29 | X-H torsion
[ 10718 10713 10712 10709 ] final  -22.41 input   66.30 | X-H torsion
[ 10763 10752 10751 10750 ] final   65.81 input  -60.55 | X-H torsion
[ 11005 11000 10999 10996 ] final   20.67 input  -57.11 | X-H torsion

> <Gold.Protein.ActiveResidues>
 VAL166  LYS551  ARG553  GLY616  TRP617  ASP618  TYR619  PRO620  LYS621  CYS622 
 ASP623  PHE694  ASN695  SER759  ASP760  ASP761  ALA762  ILE779  LEU786  VAL792 
 PHE793  MET794  SER795  GLU796  ALA797  LYS798  CYS799  TRP800  GLU811  SER814 

> <Gold.Protein.RotatedAtoms>
  152.2032  134.8569  160.0505 H   0  0  0  0  0  0  0  0  0  0  0  0  # atno 6907 bound_to 6896
  151.9415  133.3634  159.3975 H   0  0  0  0  0  0  0  0  0  0  0  0  # atno 6908 bound_to 6896
  150.6959  134.4359  159.5314 H   0  0  0  0  0  0  0  0  0  0  0  0  # atno 6909 bound_to 6896
  145.1341  139.3309  143.4650 H   0  0  0  0  0  0  0  0  0  0  0  0  # atno 7974 bound_to 7965
  156.2993  140.2517  156.3278 H   0  0  0  0  0  0  0  0  0  0  0  0  # atno 8008 bound_to 7997
  154.9174  140.0401  157.1998 H   0  0  0  0  0  0  0  0  0  0  0  0  # atno 8009 bound_to 7997
  154.8345  140.2881  155.5704 H   0  0  0  0  0  0  0  0  0  0  0  0  # atno 8010 bound_to 7997
  140.3041  144.2899  150.6213 H   0  0  0  0  0  0  0  0  0  0  0  0  # atno 10167 bound_to 10162
  156.5050  130.4596  149.6680 H   0  0  0  0  0  0  0  0  0  0  0  0  # atno 10718 bound_to 10713
  153.0112  135.5343  154.6725 H   0  0  0  0  0  0  0  0  0  0  0  0  # atno 10763 bound_to 10752
  154.5906  135.2858  155.0641 H   0  0  0  0  0  0  0  0  0  0  0  0  # atno 10764 bound_to 10752
  154.1736  135.6528  153.5068 H   0  0  0  0  0  0  0  0  0  0  0  0  # atno 10765 bound_to 10752
  140.4001  134.1728  155.7664 H   0  0  0  0  0  0  0  0  0  0  0  0  # atno 11005 bound_to 11000
  146.3511  140.1352  142.8596 LP  0  0  0  0  0  0  0  0  0  0  0  0  # atno 17320 bound_to 7965
  145.0603  140.9083  143.4942 LP  0  0  0  0  0  0  0  0  0  0  0  0  # atno 17321 bound_to 7965
  140.5625  143.2190  151.7740 LP  0  0  0  0  0  0  0  0  0  0  0  0  # atno 17342 bound_to 10162
  139.4908  144.4329  151.9852 LP  0  0  0  0  0  0  0  0  0  0  0  0  # atno 17343 bound_to 10162
  156.3296  130.7324  151.2251 LP  0  0  0  0  0  0  0  0  0  0  0  0  # atno 17370 bound_to 10713
  157.7458  131.0433  150.4739 LP  0  0  0  0  0  0  0  0  0  0  0  0  # atno 17371 bound_to 10713
  141.1860  133.8312  157.1085 LP  0  0  0  0  0  0  0  0  0  0  0  0  # atno 17394 bound_to 11000
  140.0343  134.9886  157.0840 LP  0  0  0  0  0  0  0  0  0  0  0  0  # atno 17395 bound_to 11000

$$$$
