AV-unprocessed.smi:398|AV-procd|sdf|2489|dock6
  -GOLD-   2262022433D 1   1.00000     0.00000
 Structure written by MMmdl.
 34 36  0  0  0  0  0  0  0  0  1 V2000
  153.2725  137.7429  153.9472 N   0  0  0  0  0  0  0  0  0  0  0  0
  152.4270  138.3858  154.4069 C   0  0  0  0  0  0  0  0  0  0  0  0
  151.4041  139.2007  154.9740 C   0  0  0  0  0  0  0  0  0  0  0  0
  150.2870  139.5201  154.2885 C   0  0  0  0  0  0  0  0  0  0  0  0
  149.2850  140.2987  154.8256 N   0  0  0  0  0  0  0  0  0  0  0  0
  148.1827  140.7581  154.0286 C   0  0  0  0  0  0  0  0  0  0  0  0
  146.7609  140.5889  154.5281 C   0  0  0  0  0  0  0  0  0  0  0  0
  147.2640  139.7419  153.3852 C   0  0  0  0  0  0  0  0  0  0  0  0
  149.4368  140.8638  156.1106 C   0  0  0  0  0  0  0  0  0  0  0  0
  148.5965  141.6424  156.5683 O   0  0  0  0  0  0  0  0  0  0  0  0
  150.5917  140.5190  156.8539 N   0  0  0  0  0  0  0  0  0  0  0  0
  150.7612  141.0879  158.2092 C   0  0  0  0  0  0  0  0  0  0  0  0
  151.3672  142.5002  158.2118 C   0  0  0  0  0  0  0  0  0  0  0  0
  151.3112  143.2167  157.2109 O   0  0  0  0  0  0  0  0  0  0  0  0
  151.9421  142.8841  159.3607 N   0  0  0  0  0  0  0  0  0  0  0  0
  152.5681  144.1454  159.5936 C   0  0  0  0  0  0  0  0  0  0  0  0
  151.8878  145.1004  160.5505 C   0  0  0  0  0  0  0  0  0  0  0  0
  151.8704  145.3839  159.0739 C   0  0  0  0  0  0  0  0  0  0  0  0
  151.6163  139.6865  156.3355 C   0  0  0  0  0  0  0  0  0  0  0  0
  152.6151  139.4174  157.0053 O   0  0  0  0  0  0  0  0  0  0  0  0
  150.1683  139.1477  153.2809 H   0  0  0  0  0  0  0  0  0  0  0  0
  148.3753  141.6567  153.4451 H   0  0  0  0  0  0  0  0  0  0  0  0
  146.6061  140.0909  155.4834 H   0  0  0  0  0  0  0  0  0  0  0  0
  146.0506  141.3796  154.2951 H   0  0  0  0  0  0  0  0  0  0  0  0
  146.8865  139.9670  152.3899 H   0  0  0  0  0  0  0  0  0  0  0  0
  147.4417  138.6875  153.5882 H   0  0  0  0  0  0  0  0  0  0  0  0
  149.8103  141.1228  158.7433 H   0  0  0  0  0  0  0  0  0  0  0  0
  151.3852  140.4375  158.8248 H   0  0  0  0  0  0  0  0  0  0  0  0
  151.9387  142.2309  160.1306 H   0  0  0  0  0  0  0  0  0  0  0  0
  153.6570  144.1725  159.5857 H   0  0  0  0  0  0  0  0  0  0  0  0
  150.9540  144.7826  161.0108 H   0  0  0  0  0  0  0  0  0  0  0  0
  152.5249  145.7242  161.1744 H   0  0  0  0  0  0  0  0  0  0  0  0
  152.4963  146.1970  158.7118 H   0  0  0  0  0  0  0  0  0  0  0  0
  150.9253  145.2551  158.5494 H   0  0  0  0  0  0  0  0  0  0  0  0
  1  2  3  0  0  0  0
  2  3  1  0  0  0  0
  3 19  1  0  0  0  0
  3  4  2  0  0  0  0
  4  5  1  0  0  0  0
  4 21  1  0  0  0  0
  5  6  1  0  0  0  0
  5  9  1  0  0  0  0
  6  8  1  0  0  0  0
  6  7  1  0  0  0  0
  6 22  1  0  0  0  0
  7  8  1  0  0  0  0
  7 23  1  0  0  0  0
  7 24  1  0  0  0  0
  8 25  1  0  0  0  0
  8 26  1  0  0  0  0
  9 10  2  0  0  0  0
  9 11  1  0  0  0  0
 11 12  1  0  0  0  0
 11 19  1  0  0  0  0
 12 13  1  0  0  0  0
 12 27  1  0  0  0  0
 12 28  1  0  0  0  0
 13 14  2  0  0  0  0
 13 15  1  0  0  0  0
 15 16  1  0  0  0  0
 15 29  1  0  0  0  0
 16 18  1  0  0  0  0
 16 17  1  0  0  0  0
 16 30  1  0  0  0  0
 17 18  1  0  0  0  0
 17 31  1  0  0  0  0
 17 32  1  0  0  0  0
 18 33  1  0  0  0  0
 18 34  1  0  0  0  0
 19 20  2  0  0  0  0
M  END
> <s_m_source_file>
AV-unprocessed.smi

> <i_m_source_file_index>
398

> <i_lp_mmshare_version>
43012

> <i_f3d_flags>
0

> <s_epik_input>
TiNDYzFbY0hdbihbQ0hdMltDSDJdW0NIMl0yKWMoPU8pbihjMT1PKVtDSDJdQyg9TylbTkhdW0NIXTNbQ0gyXVtDSDJdMw==

> <s_epik_cmdline>
J2VwaWtfcHl0aG9uJywgJy1waCcsICc3LjAnLCAnLXRuJywgJzgnLCAnLW1hJywgJzIwMCcsICctbWV0YWxfYmluZGluZycsICctaW1hZScsICc8aW5maWxlLm1hZT4nLCAnLW9tYWUnLCAnPG91dGZpbGUubWFlPic=

> <r_lp_tautomer_probability>
1

> <r_epik_Ionization_Penalty>
2.07526e-08

> <r_epik_Ionization_Penalty_Charging>
8.22213e-11

> <r_epik_Ionization_Penalty_Neutral>
2.06703e-08

> <r_epik_State_Penalty>
-0

> <r_epik_Charging_Adjusted_Penalty>
8.22213e-11

> <i_epik_Tot_Q>
0

> <i_epik_Tot_abs_Q>
0

> <r_epik_Metal_State_Penalty>
-0

> <b_epik_Metal_Only>
0

> <s_lp_Force_Field>
OPLS_2005

> <r_lp_Energy>
41.1586

> <b_lp_Chiralities_Consistent>
1

> <s_lp_Variant>
AV-unprocessed.smi:398-1

> <Gold.Version>
5.8.1

> <Gold.Id.Protein>
6NUR|6NUR_protein|mol2

> <Gold.PLP.Fitness>
44.9112

> <Gold.PLP.PLP>
-39.4379

> <Gold.PLP.part.hbond>
-1.7931

> <Gold.PLP.part.metal>
0.0000

> <Gold.PLP.part.buried>
-3.5033

> <Gold.PLP.part.nonpolar>
-34.8436

> <Gold.PLP.part.repulsive>
0.3918

> <Gold.PLP.ligand.clash>
0.0000

> <Gold.PLP.ligand.torsion>
0.8978

> <Gold.PLP.Chemscore.Hbond>
1.3360

> <Gold.PLP.Chemscore.CHOScore>
1.0000

> <Gold.PLP.Chemscore.Metal>
0.0000

> <Gold.Chemscore.Hbonds>
donor molecule, donor type, donor heavy atom, donor atom, acceptor molecule, acceptor atom, score
      P1  H  7997  8008       L1    20  1.00
      P1  H 10752 10764       L1     1  0.34
      L1  C     4    21       P1  7957  1.00

> <Gold.PLP.Chemscore.Internal.Correction>
0.2607

> <Gold.Rescore>
     Score         DG    S(hbond)    S(metal)    S(lipo)     H(rot)  DE(clash)    DE(int)     intcor
     12.01     -13.94       1.26        0.00      77.29       1.87       0.08       1.85       ----

> <Gold.Chemscore.Fitness>
12.0129

> <Gold.Chemscore.DG>
-13.9414

> <Gold.Chemscore.ZeroCoef>
-5.4800

> <Gold.Chemscore.Hbond>
1.2556

> <Gold.Chemscore.Metal>
0.0000

> <Gold.Chemscore.Lipo>
77.2913

> <Gold.Chemscore.Internal_Hbond>
0.0000

> <Gold.Chemscore.DEClash>
0.0791

> <Gold.Chemscore.DEInternal>
1.8494

> <Gold.Chemscore.Rot>
1.8654

> <Gold.Chemscore.Internal.Correction>
   9.000000E+99

> <Gold.Chemscore.Hbonds>
donor molecule, donor type, donor heavy atom, donor atom, acceptor molecule, acceptor atom, score
      P1  H  7997  8008       L1    20  0.99
      P1  H 10752 10764       L1     1  0.32

> <Gold.Chemscore.Hbond.Weighted>
-4.1938

> <Gold.Chemscore.Metal.Weighted>
-0.0000

> <Gold.Chemscore.Lipo.Weighted>
-9.0431

> <Gold.Chemscore.Internal_Hbond.Weighted>
0.0000

> <Gold.Chemscore.DEClash.Weighted>
0.0791

> <Gold.Chemscore.DEInternal.Weighted>
1.8494

> <Gold.Chemscore.Rot.Weighted>
4.7755

> <Gold.Chemscore.Internal.Correction.Weighted>
   9.000000E+99

> <Gold.Protein.RotatedTorsions>
[ 6907 6896 6895 6894 ] final   62.27 input  -60.11 | X-H torsion
[ 7974 7965 7964 7962 ] final -147.84 input  175.53 | X-H torsion
[ 8008 7997 7996 7995 ] final  -59.92 input   59.86 | X-H torsion
[ 10167 10162 10161 10158 ] final -112.11 input  -65.29 | X-H torsion
[ 10718 10713 10712 10709 ] final  105.39 input   66.30 | X-H torsion
[ 10763 10752 10751 10750 ] final -101.32 input  -60.55 | X-H torsion
[ 11005 11000 10999 10996 ] final  -10.92 input  -57.11 | X-H torsion

> <Gold.Protein.ActiveResidues>
 VAL166  LYS551  ARG553  GLY616  TRP617  ASP618  TYR619  PRO620  LYS621  CYS622 
 ASP623  PHE694  ASN695  SER759  ASP760  ASP761  ALA762  ILE779  LEU786  VAL792 
 PHE793  MET794  SER795  GLU796  ALA797  LYS798  CYS799  TRP800  GLU811  SER814 

> <Gold.Protein.RotatedAtoms>
  152.4158  134.6044  160.0008 H   0  0  0  0  0  0  0  0  0  0  0  0  # atno 6907 bound_to 6896
  151.6208  133.3333  159.3095 H   0  0  0  0  0  0  0  0  0  0  0  0  # atno 6908 bound_to 6896
  150.8047  134.7203  159.6699 H   0  0  0  0  0  0  0  0  0  0  0  0  # atno 6909 bound_to 6896
  144.8067  140.5274  143.5670 H   0  0  0  0  0  0  0  0  0  0  0  0  # atno 7974 bound_to 7965
  154.4374  140.1051  156.6192 H   0  0  0  0  0  0  0  0  0  0  0  0  # atno 8008 bound_to 7997
  155.5726  140.3489  155.4500 H   0  0  0  0  0  0  0  0  0  0  0  0  # atno 8009 bound_to 7997
  156.0378  140.1275  157.0178 H   0  0  0  0  0  0  0  0  0  0  0  0  # atno 8010 bound_to 7997
  140.1263  143.4399  152.1657 H   0  0  0  0  0  0  0  0  0  0  0  0  # atno 10167 bound_to 10162
  157.6707  131.0826  150.5850 H   0  0  0  0  0  0  0  0  0  0  0  0  # atno 10718 bound_to 10713
  154.7649  135.4902  153.9534 H   0  0  0  0  0  0  0  0  0  0  0  0  # atno 10763 bound_to 10752
  153.1295  135.6750  153.9209 H   0  0  0  0  0  0  0  0  0  0  0  0  # atno 10764 bound_to 10752
  153.8917  135.3120  155.3426 H   0  0  0  0  0  0  0  0  0  0  0  0  # atno 10765 bound_to 10752
  140.7498  133.8601  155.9035 H   0  0  0  0  0  0  0  0  0  0  0  0  # atno 11005 bound_to 11000
  145.5421  139.1475  143.3441 LP  0  0  0  0  0  0  0  0  0  0  0  0  # atno 17320 bound_to 7965
  146.2359  140.5561  142.8955 LP  0  0  0  0  0  0  0  0  0  0  0  0  # atno 17321 bound_to 7965
  139.5542  144.7361  151.4343 LP  0  0  0  0  0  0  0  0  0  0  0  0  # atno 17342 bound_to 10162
  140.6843  143.8010  150.7164 LP  0  0  0  0  0  0  0  0  0  0  0  0  # atno 17343 bound_to 10162
  156.6150  130.4390  149.5844 LP  0  0  0  0  0  0  0  0  0  0  0  0  # atno 17370 bound_to 10713
  156.2400  130.6846  151.1547 LP  0  0  0  0  0  0  0  0  0  0  0  0  # atno 17371 bound_to 10713
  140.9761  134.1467  157.4535 LP  0  0  0  0  0  0  0  0  0  0  0  0  # atno 17394 bound_to 11000
  139.8790  134.9995  156.5958 LP  0  0  0  0  0  0  0  0  0  0  0  0  # atno 17395 bound_to 11000

$$$$
