AV-unprocessed.smi:1757|AV-procd|sdf|7076|dock4
  -GOLD-   22720 8293D 1   1.00000     0.00000
 Structure written by MMmdl.
 40 41  0  0  0  0  0  0  0  0  2 V2000
  147.5182  136.6529  154.8670 C   0  0  0  0  0  0  0  0  0  0  0  0
  148.9104  136.9428  154.4614 N   0  3  2  0  0  0  0  0  0  0  0  0
  149.8949  136.0807  155.1613 C   0  0  0  0  0  0  0  0  0  0  0  0
  151.3172  136.3121  154.6193 C   0  0  0  0  0  0  0  0  0  0  0  0
  151.7294  137.7940  154.6858 C   0  0  2  0  0  0  0  0  0  0  0  0
  151.9598  138.2049  156.0716 N   0  0  0  0  0  0  0  0  0  0  0  0
  152.1463  139.4614  156.5023 C   0  0  0  0  0  0  0  0  0  0  0  0
  152.1357  140.4421  155.7593 O   0  0  0  0  0  0  0  0  0  0  0  0
  152.3638  139.4827  157.8302 N   0  0  0  0  0  0  0  0  0  0  0  0
  152.5946  140.5811  158.6755 C   0  0  0  0  0  0  0  0  0  0  0  0
  151.9045  141.7510  158.6351 C   0  0  0  0  0  0  0  0  0  0  0  0
  152.1929  142.8466  159.5470 C   0  0  0  0  0  0  0  0  0  0  0  0
  151.4414  144.1675  159.4991 C   0  0  0  0  0  0  0  0  0  0  0  0
  151.7678  144.8421  158.3969 F   0  0  0  0  0  0  0  0  0  0  0  0
  150.1268  143.9490  159.4728 F   0  0  0  0  0  0  0  0  0  0  0  0
  151.7180  144.9321  160.5555 F   0  0  0  0  0  0  0  0  0  0  0  0
  153.1736  142.6394  160.4439 C   0  0  0  0  0  0  0  0  0  0  0  0
  153.8786  141.4353  160.5001 N   0  0  0  0  0  0  0  0  0  0  0  0
  153.6554  140.3858  159.6778 C   0  0  0  0  0  0  0  0  0  0  0  0
  154.3171  139.3545  159.7924 O   0  0  0  0  0  0  0  0  0  0  0  0
  150.6517  138.6743  154.0275 C   0  0  0  0  0  0  0  0  0  0  0  0
  149.2463  138.3832  154.5844 C   0  0  0  0  0  0  0  0  0  0  0  0
  154.5977  141.3565  161.2047 H   0  0  0  0  0  0  0  0  0  0  0  0
  147.3608  136.8835  155.9216 H   0  0  0  0  0  0  0  0  0  0  0  0
  147.2810  135.6005  154.7075 H   0  0  0  0  0  0  0  0  0  0  0  0
  146.8152  137.2435  154.2786 H   0  0  0  0  0  0  0  0  0  0  0  0
  149.8595  136.2794  156.2338 H   0  0  0  0  0  0  0  0  0  0  0  0
  149.6231  135.0332  155.0261 H   0  0  0  0  0  0  0  0  0  0  0  0
  152.0323  135.6950  155.1647 H   0  0  0  0  0  0  0  0  0  0  0  0
  151.3595  135.9768  153.5822 H   0  0  0  0  0  0  0  0  0  0  0  0
  152.6505  137.9098  154.1123 H   0  0  0  0  0  0  0  0  0  0  0  0
  151.9900  137.4685  156.7613 H   0  0  0  0  0  0  0  0  0  0  0  0
  152.4142  138.5859  158.2912 H   0  0  0  0  0  0  0  0  0  0  0  0
  151.1037  141.8937  157.9286 H   0  0  0  0  0  0  0  0  0  0  0  0
  153.4889  143.3698  161.1748 H   0  0  0  0  0  0  0  0  0  0  0  0
  150.8955  139.7299  154.1542 H   0  0  0  0  0  0  0  0  0  0  0  0
  150.6511  138.4916  152.9521 H   0  0  0  0  0  0  0  0  0  0  0  0
  148.5116  138.9767  154.0391 H   0  0  0  0  0  0  0  0  0  0  0  0
  149.1823  138.6863  155.6307 H   0  0  0  0  0  0  0  0  0  0  0  0
  148.9750  136.7144  153.4794 H   0  0  0  0  0  0  0  0  0  0  0  0
  1  2  1  0  0  0  0
  1 24  1  0  0  0  0
  1 25  1  0  0  0  0
  1 26  1  0  0  0  0
  2 22  1  0  0  0  0
  2  3  1  0  0  0  0
  2 40  1  0  0  0  0
  3  4  1  0  0  0  0
  3 27  1  0  0  0  0
  3 28  1  0  0  0  0
  4  5  1  0  0  0  0
  4 29  1  0  0  0  0
  4 30  1  0  0  0  0
  5  6  1  0  0  0  0
  5 21  1  0  0  0  0
  5 31  1  0  0  0  0
  6  7  1  0  0  0  0
  6 32  1  0  0  0  0
  7  8  2  0  0  0  0
  7  9  1  0  0  0  0
  9 10  1  0  0  0  0
  9 33  1  0  0  0  0
 10 19  1  0  0  0  0
 10 11  2  0  0  0  0
 11 12  1  0  0  0  0
 11 34  1  0  0  0  0
 12 13  1  0  0  0  0
 12 17  2  0  0  0  0
 13 14  1  0  0  0  0
 13 15  1  0  0  0  0
 13 16  1  0  0  0  0
 17 18  1  0  0  0  0
 17 35  1  0  0  0  0
 18 23  1  0  0  0  0
 18 19  1  0  0  0  0
 19 20  2  0  0  0  0
 21 22  1  0  0  0  0
 21 36  1  0  0  0  0
 21 37  1  0  0  0  0
 22 38  1  0  0  0  0
 22 39  1  0  0  0  0
M  CHG  1   2   1
M  END
> <s_m_source_file>
AV-unprocessed.smi

> <i_m_source_file_index>
1757

> <i_lp_mmshare_version>
43012

> <i_f3d_flags>
0

> <s_epik_input>
W0NIM11OMVtDSDJdW0NIMl1bQ0hdKFtDSDJdW0NIMl0xKVtOSF1DKD1PKVtOSF1jMltjSF1jKEMoRikoRilGKVtjSF1bbkhdYzI9Tw==

> <s_epik_cmdline>
J2VwaWtfcHl0aG9uJywgJy1waCcsICc3LjAnLCAnLXRuJywgJzgnLCAnLW1hJywgJzIwMCcsICctbWV0YWxfYmluZGluZycsICctaW1hZScsICc8aW5maWxlLm1hZT4nLCAnLW9tYWUnLCAnPG91dGZpbGUubWFlPic=

> <r_lp_tautomer_probability>
1

> <r_epik_Ionization_Penalty>
0.00859077

> <r_epik_Ionization_Penalty_Charging>
0.00857233

> <r_epik_Ionization_Penalty_Neutral>
1.84472e-05

> <r_epik_State_Penalty>
-0

> <r_epik_Charging_Adjusted_Penalty>
0.00857233

> <i_epik_Tot_Q>
1

> <i_epik_Tot_abs_Q>
1

> <r_epik_Metal_State_Penalty>
0.377538

> <b_epik_Metal_Only>
0

> <s_lp_Force_Field>
OPLS_2005

> <r_lp_Energy>
26.4268

> <b_lp_Chiralities_Consistent>
1

> <s_lp_Variant>
AV-unprocessed.smi:1757-2

> <Gold.Version>
5.8.1

> <Gold.Id.Protein>
6NUR|6NUR_protein|mol2

> <Gold.PLP.Fitness>
48.9795

> <Gold.PLP.PLP>
-42.6941

> <Gold.PLP.part.hbond>
-2.0333

> <Gold.PLP.part.metal>
0.0000

> <Gold.PLP.part.buried>
-5.0212

> <Gold.PLP.part.nonpolar>
-35.3531

> <Gold.PLP.part.repulsive>
0.2061

> <Gold.PLP.ligand.clash>
1.1563

> <Gold.PLP.ligand.torsion>
0.7701

> <Gold.PLP.Chemscore.Hbond>
2.9913

> <Gold.PLP.Chemscore.CHOScore>
0.0000

> <Gold.PLP.Chemscore.Metal>
0.0000

> <Gold.Chemscore.Hbonds>
donor molecule, donor type, donor heavy atom, donor atom, acceptor molecule, acceptor atom, score
      L1  H     2    40       P1  7948  2.00
      P1  H  7989  7998       L1     8  0.15

> <Gold.PLP.Chemscore.Internal.Correction>
0.0082

> <Gold.Rescore>
     Score         DG    S(hbond)    S(metal)    S(lipo)     H(rot)  DE(clash)    DE(int)     intcor
     16.19     -18.22       1.81        0.00      79.03       1.00       0.31       1.72       ----

> <Gold.Chemscore.Fitness>
16.1929

> <Gold.Chemscore.DG>
-18.2241

> <Gold.Chemscore.ZeroCoef>
-5.4800

> <Gold.Chemscore.Hbond>
1.8136

> <Gold.Chemscore.Metal>
0.0000

> <Gold.Chemscore.Lipo>
79.0324

> <Gold.Chemscore.Internal_Hbond>
0.0000

> <Gold.Chemscore.DEClash>
0.3096

> <Gold.Chemscore.DEInternal>
1.7216

> <Gold.Chemscore.Rot>
1.0000

> <Gold.Chemscore.Internal.Correction>
   9.000000E+99

> <Gold.Chemscore.Hbonds>
donor molecule, donor type, donor heavy atom, donor atom, acceptor molecule, acceptor atom, score
      L1  H     2    40       P1  7948  1.00
      P1  H  7989  7998       L1     8  0.15

> <Gold.Chemscore.Hbond.Weighted>
-6.0573

> <Gold.Chemscore.Metal.Weighted>
-0.0000

> <Gold.Chemscore.Lipo.Weighted>
-9.2468

> <Gold.Chemscore.Internal_Hbond.Weighted>
0.0000

> <Gold.Chemscore.DEClash.Weighted>
0.3096

> <Gold.Chemscore.DEInternal.Weighted>
1.7216

> <Gold.Chemscore.Rot.Weighted>
2.5600

> <Gold.Chemscore.Internal.Correction.Weighted>
   9.000000E+99

> <Gold.Protein.RotatedTorsions>
[ 6907 6896 6895 6894 ] final  102.90 input  -60.11 | X-H torsion
[ 7974 7965 7964 7962 ] final   44.49 input  175.53 | X-H torsion
[ 8008 7997 7996 7995 ] final   91.28 input   59.86 | X-H torsion
[ 10167 10162 10161 10158 ] final  152.03 input  -65.29 | X-H torsion
[ 10718 10713 10712 10709 ] final  -58.13 input   66.30 | X-H torsion
[ 10763 10752 10751 10750 ] final  131.68 input  -60.55 | X-H torsion
[ 11005 11000 10999 10996 ] final -113.78 input  -57.11 | X-H torsion

> <Gold.Protein.ActiveResidues>
 VAL166  LYS551  ARG553  GLY616  TRP617  ASP618  TYR619  PRO620  LYS621  CYS622 
 ASP623  PHE694  ASN695  SER759  ASP760  ASP761  ALA762  ILE779  LEU786  VAL792 
 PHE793  MET794  SER795  GLU796  ALA797  LYS798  CYS799  TRP800  GLU811  SER814 

> <Gold.Protein.RotatedAtoms>
  152.5311  133.9906  159.7848 H   0  0  0  0  0  0  0  0  0  0  0  0  # atno 6907 bound_to 6896
  151.0143  133.5928  159.2686 H   0  0  0  0  0  0  0  0  0  0  0  0  # atno 6908 bound_to 6896
  151.2991  135.0770  159.9285 H   0  0  0  0  0  0  0  0  0  0  0  0  # atno 6909 bound_to 6896
  146.0564  139.5069  142.9686 H   0  0  0  0  0  0  0  0  0  0  0  0  # atno 7974 bound_to 7965
  156.0219  140.3339  155.7048 H   0  0  0  0  0  0  0  0  0  0  0  0  # atno 8008 bound_to 7997
  155.6010  140.0655  157.2750 H   0  0  0  0  0  0  0  0  0  0  0  0  # atno 8009 bound_to 7997
  154.4319  140.1810  156.1161 H   0  0  0  0  0  0  0  0  0  0  0  0  # atno 8010 bound_to 7997
  139.4836  144.5392  151.7594 H   0  0  0  0  0  0  0  0  0  0  0  0  # atno 10167 bound_to 10162
  156.1158  130.4170  150.0535 H   0  0  0  0  0  0  0  0  0  0  0  0  # atno 10718 bound_to 10713
  153.7783  135.3172  155.3362 H   0  0  0  0  0  0  0  0  0  0  0  0  # atno 10763 bound_to 10752
  154.8171  135.4629  154.0676 H   0  0  0  0  0  0  0  0  0  0  0  0  # atno 10764 bound_to 10752
  153.1957  135.6915  153.8381 H   0  0  0  0  0  0  0  0  0  0  0  0  # atno 10765 bound_to 10752
  141.0593  133.9561  157.2696 H   0  0  0  0  0  0  0  0  0  0  0  0  # atno 11005 bound_to 11000
  145.6636  141.0234  143.1695 LP  0  0  0  0  0  0  0  0  0  0  0  0  # atno 17320 bound_to 7965
  144.7150  139.8229  143.7402 LP  0  0  0  0  0  0  0  0  0  0  0  0  # atno 17321 bound_to 7965
  140.4929  144.1284  150.5954 LP  0  0  0  0  0  0  0  0  0  0  0  0  # atno 17342 bound_to 10162
  140.4151  143.2638  151.9785 LP  0  0  0  0  0  0  0  0  0  0  0  0  # atno 17343 bound_to 10162
  156.8486  130.9451  151.3627 LP  0  0  0  0  0  0  0  0  0  0  0  0  # atno 17370 bound_to 10713
  157.6341  130.8753  149.9327 LP  0  0  0  0  0  0  0  0  0  0  0  0  # atno 17371 bound_to 10713
  139.9418  135.0190  156.8732 LP  0  0  0  0  0  0  0  0  0  0  0  0  # atno 17394 bound_to 11000
  140.5900  134.0270  155.7496 LP  0  0  0  0  0  0  0  0  0  0  0  0  # atno 17395 bound_to 11000

$$$$
