AV-unprocessed.smi:261|AV-procd|sdf|1998|dock6
  -GOLD-   2262021193D 1   1.00000     0.00000
 Structure written by MMmdl.
 51 54  0  0  0  0  0  0  0  0  1 V2000
  145.0522  132.8739  162.2638 C   0  0  0  0  0  0  0  0  0  0  0  0
  145.5668  134.1115  162.7286 O   0  0  0  0  0  0  0  0  0  0  0  0
  146.9870  134.1592  162.7913 C   0  0  2  0  0  0  0  0  0  0  0  0
  147.5074  135.5875  163.0036 C   0  0  0  0  0  0  0  0  0  0  0  0
  147.5458  136.2105  161.5991 C   0  0  2  0  0  0  0  0  0  0  0  0
  146.2285  136.9426  161.2633 C   0  0  0  0  0  0  0  0  0  0  0  0
  145.1828  136.8023  162.0851 N   0  0  0  0  0  0  0  0  0  0  0  0
  146.1575  137.6296  160.2467 O   0  0  0  0  0  0  0  0  0  0  0  0
  147.8332  135.0584  160.7435 N   0  0  0  0  0  0  0  0  0  0  0  0
  148.3344  135.1192  159.4781 C   0  0  0  0  0  0  0  0  0  0  0  0
  148.1561  134.0373  158.6742 N   0  0  0  0  0  0  0  0  0  0  0  0
  148.6166  134.0316  157.4212 C   0  0  0  0  0  0  0  0  0  0  0  0
  149.2754  134.9911  156.7723 N   0  0  0  0  0  0  0  0  0  0  0  0
  149.4607  136.0846  157.5650 C   0  0  0  0  0  0  0  0  0  0  0  0
  149.0331  136.2324  158.9173 C   0  0  0  0  0  0  0  0  0  0  0  0
  149.4192  137.4843  159.3841 N   0  0  0  0  0  0  0  0  0  0  0  0
  150.0306  138.0391  158.3754 C   0  0  0  0  0  0  0  0  0  0  0  0
  150.0903  137.2731  157.2348 N   0  0  0  0  0  0  0  0  0  0  0  0
  150.7012  137.6350  155.9629 C   0  0  0  0  0  0  0  0  0  0  0  0
  150.6136  139.1443  155.6292 C   0  0  1  0  0  0  0  0  0  0  0  0
  151.4013  139.3922  154.4809 O   0  0  0  0  0  0  0  0  0  0  0  0
  149.1862  139.6533  155.3400 C   0  0  1  0  0  0  0  0  0  0  0  0
  149.1106  141.1174  154.8993 C   0  0  0  0  0  0  0  0  0  0  0  0
  147.8086  141.1895  154.1198 C   0  0  0  0  0  0  0  0  0  0  0  0
  147.5209  139.7318  153.7559 C   0  0  0  0  0  0  0  0  0  0  0  0
  148.6696  139.0125  154.1823 O   0  0  0  0  0  0  0  0  0  0  0  0
  147.5379  133.7927  161.4087 C   0  0  0  0  0  0  0  0  0  0  0  0
  147.3553  133.4667  163.5502 H   0  0  0  0  0  0  0  0  0  0  0  0
  148.3631  136.9306  161.5681 H   0  0  0  0  0  0  0  0  0  0  0  0
  143.9637  132.9217  162.2368 H   0  0  0  0  0  0  0  0  0  0  0  0
  145.3317  132.0455  162.9144 H   0  0  0  0  0  0  0  0  0  0  0  0
  145.4017  132.6576  161.2536 H   0  0  0  0  0  0  0  0  0  0  0  0
  146.9260  136.1643  163.7232 H   0  0  0  0  0  0  0  0  0  0  0  0
  148.5248  135.5378  163.3938 H   0  0  0  0  0  0  0  0  0  0  0  0
  144.3125  137.2685  161.8740 H   0  0  0  0  0  0  0  0  0  0  0  0
  145.2650  136.2244  162.9087 H   0  0  0  0  0  0  0  0  0  0  0  0
  148.4274  133.1301  156.8577 H   0  0  0  0  0  0  0  0  0  0  0  0
  150.4548  139.0290  158.4434 H   0  0  0  0  0  0  0  0  0  0  0  0
  151.7406  137.3060  155.9734 H   0  0  0  0  0  0  0  0  0  0  0  0
  150.2143  137.0565  155.1769 H   0  0  0  0  0  0  0  0  0  0  0  0
  151.0350  139.7099  156.4609 H   0  0  0  0  0  0  0  0  0  0  0  0
  151.5287  138.5762  154.0215 H   0  0  0  0  0  0  0  0  0  0  0  0
  148.5200  139.4777  156.1872 H   0  0  0  0  0  0  0  0  0  0  0  0
  149.1391  141.8226  155.7285 H   0  0  0  0  0  0  0  0  0  0  0  0
  149.9445  141.3503  154.2354 H   0  0  0  0  0  0  0  0  0  0  0  0
  147.0031  141.5938  154.7340 H   0  0  0  0  0  0  0  0  0  0  0  0
  147.9097  141.8211  153.2367 H   0  0  0  0  0  0  0  0  0  0  0  0
  146.6447  139.3662  154.2931 H   0  0  0  0  0  0  0  0  0  0  0  0
  147.3501  139.5924  152.6882 H   0  0  0  0  0  0  0  0  0  0  0  0
  148.4646  133.2263  161.5131 H   0  0  0  0  0  0  0  0  0  0  0  0
  146.8323  133.1852  160.8396 H   0  0  0  0  0  0  0  0  0  0  0  0
  1  2  1  0  0  0  0
  1 30  1  0  0  0  0
  1 31  1  0  0  0  0
  1 32  1  0  0  0  0
  2  3  1  0  0  0  0
  3 28  1  0  0  0  0
  3 27  1  0  0  0  0
  3  4  1  0  0  0  0
  4  5  1  0  0  0  0
  4 33  1  0  0  0  0
  4 34  1  0  0  0  0
  5 29  1  0  0  0  0
  5  6  1  0  0  0  0
  5  9  1  0  0  0  0
  6  7  1  0  0  0  0
  6  8  2  0  0  0  0
  7 35  1  0  0  0  0
  7 36  1  0  0  0  0
  9 10  1  0  0  0  0
  9 27  1  0  0  0  0
 10 15  1  0  0  0  0
 10 11  2  0  0  0  0
 11 12  1  0  0  0  0
 12 13  2  0  0  0  0
 12 37  1  0  0  0  0
 13 14  1  0  0  0  0
 14 18  1  0  0  0  0
 14 15  2  0  0  0  0
 15 16  1  0  0  0  0
 16 17  2  0  0  0  0
 17 18  1  0  0  0  0
 17 38  1  0  0  0  0
 18 19  1  0  0  0  0
 19 20  1  0  0  0  0
 19 39  1  0  0  0  0
 19 40  1  0  0  0  0
 20 21  1  0  0  0  0
 20 22  1  0  0  0  0
 20 41  1  0  0  0  0
 21 42  1  0  0  0  0
 22 26  1  0  0  0  0
 22 23  1  0  0  0  0
 22 43  1  0  0  0  0
 23 24  1  0  0  0  0
 23 44  1  0  0  0  0
 23 45  1  0  0  0  0
 24 25  1  0  0  0  0
 24 46  1  0  0  0  0
 24 47  1  0  0  0  0
 25 26  1  0  0  0  0
 25 48  1  0  0  0  0
 25 49  1  0  0  0  0
 27 50  1  0  0  0  0
 27 51  1  0  0  0  0
M  END
> <s_m_source_file>
AV-unprocessed.smi

> <i_m_source_file_index>
261

> <i_lp_mmshare_version>
43012

> <i_f3d_flags>
0

> <s_epik_input>
W0NIM11PW0NASF0xW0NIMl1bQ0BASF0oQyg9TylbTkgyXSlOKFtDSDJdMSljKG5bY0hdbjIpYyhjMjMpbltjSF1uM1tDSDJdW0NASF0oW09IXSlbQ0BASF00W0NIMl1bQ0gyXVtDSDJdTzQ=

> <s_epik_cmdline>
J2VwaWtfcHl0aG9uJywgJy1waCcsICc3LjAnLCAnLXRuJywgJzgnLCAnLW1hJywgJzIwMCcsICctbWV0YWxfYmluZGluZycsICctaW1hZScsICc8aW5maWxlLm1hZT4nLCAnLW9tYWUnLCAnPG91dGZpbGUubWFlPic=

> <r_lp_tautomer_probability>
1

> <r_epik_Ionization_Penalty>
0.000713824

> <r_epik_Ionization_Penalty_Charging>
0

> <r_epik_Ionization_Penalty_Neutral>
0.000713824

> <r_epik_State_Penalty>
0.000402132

> <r_epik_Charging_Adjusted_Penalty>
0.000402132

> <i_epik_Tot_Q>
0

> <i_epik_Tot_abs_Q>
0

> <r_epik_Metal_State_Penalty>
-0

> <b_epik_Metal_Only>
0

> <s_lp_Force_Field>
OPLS_2005

> <r_lp_Energy>
45.1221

> <b_lp_Chiralities_Consistent>
1

> <s_lp_Variant>
AV-unprocessed.smi:261-16

> <Gold.Version>
5.8.1

> <Gold.Id.Protein>
6NUR|6NUR_protein|mol2

> <Gold.PLP.Fitness>
43.7038

> <Gold.PLP.PLP>
-39.4131

> <Gold.PLP.part.hbond>
-2.7970

> <Gold.PLP.part.metal>
0.0000

> <Gold.PLP.part.buried>
-5.2397

> <Gold.PLP.part.nonpolar>
-31.7987

> <Gold.PLP.part.repulsive>
0.3273

> <Gold.PLP.ligand.clash>
0.0000

> <Gold.PLP.ligand.torsion>
0.8789

> <Gold.PLP.Chemscore.Hbond>
1.9760

> <Gold.PLP.Chemscore.CHOScore>
0.0000

> <Gold.PLP.Chemscore.Metal>
0.0000

> <Gold.Chemscore.Hbonds>
donor molecule, donor type, donor heavy atom, donor atom, acceptor molecule, acceptor atom, score
      P1  H  6934  6947       L1     8  0.80
      P1  H  7989  7998       L1    21  1.00

> <Gold.PLP.Chemscore.Internal.Correction>
0.1205

> <Gold.Rescore>
     Score         DG    S(hbond)    S(metal)    S(lipo)     H(rot)  DE(clash)    DE(int)     intcor
     11.00     -12.32       1.80        0.00      76.71       3.18       0.21       1.11       ----

> <Gold.Chemscore.Fitness>
11.0038

> <Gold.Chemscore.DG>
-12.3226

> <Gold.Chemscore.ZeroCoef>
-5.4800

> <Gold.Chemscore.Hbond>
1.8014

> <Gold.Chemscore.Metal>
0.0000

> <Gold.Chemscore.Lipo>
76.7052

> <Gold.Chemscore.Internal_Hbond>
0.0000

> <Gold.Chemscore.DEClash>
0.2124

> <Gold.Chemscore.DEInternal>
1.1064

> <Gold.Chemscore.Rot>
3.1831

> <Gold.Chemscore.Internal.Correction>
   9.000000E+99

> <Gold.Chemscore.Hbonds>
donor molecule, donor type, donor heavy atom, donor atom, acceptor molecule, acceptor atom, score
      P1  H  6934  6947       L1     8  0.12
      P1  H  7989  7998       L1    21  0.90

> <Gold.Chemscore.Hbond.Weighted>
-6.0167

> <Gold.Chemscore.Metal.Weighted>
-0.0000

> <Gold.Chemscore.Lipo.Weighted>
-8.9745

> <Gold.Chemscore.Internal_Hbond.Weighted>
0.0000

> <Gold.Chemscore.DEClash.Weighted>
0.2124

> <Gold.Chemscore.DEInternal.Weighted>
1.1064

> <Gold.Chemscore.Rot.Weighted>
8.1486

> <Gold.Chemscore.Internal.Correction.Weighted>
   9.000000E+99

> <Gold.Protein.RotatedTorsions>
[ 6907 6896 6895 6894 ] final  -94.68 input  -60.11 | X-H torsion
[ 7974 7965 7964 7962 ] final   92.70 input  175.53 | X-H torsion
[ 8008 7997 7996 7995 ] final   27.64 input   59.86 | X-H torsion
[ 10167 10162 10161 10158 ] final    1.75 input  -65.29 | X-H torsion
[ 10718 10713 10712 10709 ] final  -29.89 input   66.30 | X-H torsion
[ 10763 10752 10751 10750 ] final -158.41 input  -60.55 | X-H torsion
[ 11005 11000 10999 10996 ] final -125.02 input  -57.11 | X-H torsion

> <Gold.Protein.ActiveResidues>
 VAL166  LYS551  ARG553  GLY616  TRP617  ASP618  TYR619  PRO620  LYS621  CYS622 
 ASP623  PHE694  ASN695  SER759  ASP760  ASP761  ALA762  ILE779  LEU786  VAL792 
 PHE793  MET794  SER795  GLU796  ALA797  LYS798  CYS799  TRP800  GLU811  SER814 

> <Gold.Protein.RotatedAtoms>
  150.6947  134.1774  159.4235 H   0  0  0  0  0  0  0  0  0  0  0  0  # atno 6907 bound_to 6896
  151.9750  135.0055  160.0564 H   0  0  0  0  0  0  0  0  0  0  0  0  # atno 6908 bound_to 6896
  152.1807  133.4670  159.4993 H   0  0  0  0  0  0  0  0  0  0  0  0  # atno 6909 bound_to 6896
  145.4888  139.2277  143.2842 H   0  0  0  0  0  0  0  0  0  0  0  0  # atno 7974 bound_to 7965
  155.0461  140.3174  155.4708 H   0  0  0  0  0  0  0  0  0  0  0  0  # atno 8008 bound_to 7997
  156.2844  140.2154  156.5529 H   0  0  0  0  0  0  0  0  0  0  0  0  # atno 8009 bound_to 7997
  154.7250  140.0486  157.0662 H   0  0  0  0  0  0  0  0  0  0  0  0  # atno 8010 bound_to 7997
  140.6668  143.7157  150.7843 H   0  0  0  0  0  0  0  0  0  0  0  0  # atno 10167 bound_to 10162
  156.4067  130.4400  149.7282 H   0  0  0  0  0  0  0  0  0  0  0  0  # atno 10718 bound_to 10713
  154.7559  135.3104  154.8471 H   0  0  0  0  0  0  0  0  0  0  0  0  # atno 10763 bound_to 10752
  153.9246  135.6792  153.4751 H   0  0  0  0  0  0  0  0  0  0  0  0  # atno 10764 bound_to 10752
  153.1156  135.4846  154.9039 H   0  0  0  0  0  0  0  0  0  0  0  0  # atno 10765 bound_to 10752
  140.9795  134.0693  157.3781 H   0  0  0  0  0  0  0  0  0  0  0  0  # atno 11005 bound_to 11000
  146.2297  140.5680  142.8981 LP  0  0  0  0  0  0  0  0  0  0  0  0  # atno 17320 bound_to 7965
  144.7846  140.5910  143.6582 LP  0  0  0  0  0  0  0  0  0  0  0  0  # atno 17321 bound_to 7965
  140.0836  143.4945  152.2517 LP  0  0  0  0  0  0  0  0  0  0  0  0  # atno 17342 bound_to 10162
  139.5920  144.7553  151.3378 LP  0  0  0  0  0  0  0  0  0  0  0  0  # atno 17343 bound_to 10162
  156.4277  130.7799  151.2818 LP  0  0  0  0  0  0  0  0  0  0  0  0  # atno 17370 bound_to 10713
  157.7506  131.0163  150.3541 LP  0  0  0  0  0  0  0  0  0  0  0  0  # atno 17371 bound_to 10713
  139.8944  135.0136  156.6950 LP  0  0  0  0  0  0  0  0  0  0  0  0  # atno 17394 bound_to 11000
  140.7208  133.9142  155.8145 LP  0  0  0  0  0  0  0  0  0  0  0  0  # atno 17395 bound_to 11000

$$$$
