AV-unprocessed.smi:1515|AV-procd|sdf|6117|dock5
  -GOLD-   22720 6253D 1   1.00000     0.00000
 Structure written by MMmdl.
 34 35  0  0  0  0  0  0  0  0  1 V2000
  151.5294  145.4736  159.3778 C   0  0  0  0  0  0  0  0  0  0  0  0
  151.2526  144.4609  158.4163 O   0  0  0  0  0  0  0  0  0  0  0  0
  151.8105  143.2094  158.5967 C   0  0  0  0  0  0  0  0  0  0  0  0
  152.7256  143.0482  159.5856 N   0  0  0  0  0  0  0  0  0  0  0  0
  153.2663  141.8262  159.7685 C   0  0  0  0  0  0  0  0  0  0  0  0
  152.9238  140.7078  158.9872 C   0  0  0  0  0  0  0  0  0  0  0  0
  151.9759  140.8723  157.9606 C   0  0  0  0  0  0  0  0  0  0  0  0
  151.4088  142.1523  157.7467 C   0  0  0  0  0  0  0  0  0  0  0  0
  150.4267  142.4234  156.7536 N   0  0  0  0  0  0  0  0  0  0  0  0
  150.1009  141.6929  155.6736 C   0  0  0  0  0  0  0  0  0  0  0  0
  150.6541  140.6496  155.3270 O   0  0  0  0  0  0  0  0  0  0  0  0
  149.0922  142.2578  154.9948 N   0  0  0  0  0  0  0  0  0  0  0  0
  148.4871  141.7220  153.7805 C   0  0  0  0  0  0  0  0  0  0  0  0
  146.9628  141.7809  153.8445 C   0  0  0  0  0  0  0  0  0  0  0  0
  146.2398  143.1377  153.8535 C   0  0  0  0  0  0  0  0  0  0  0  0
  145.1945  142.5235  154.7876 C   0  0  0  0  0  0  0  0  0  0  0  0
  146.2509  141.4844  155.1729 C   0  0  0  0  0  0  0  0  0  0  0  0
  151.0158  146.3914  159.0919 H   0  0  0  0  0  0  0  0  0  0  0  0
  152.5965  145.6944  159.4291 H   0  0  0  0  0  0  0  0  0  0  0  0
  151.1738  145.1913  160.3698 H   0  0  0  0  0  0  0  0  0  0  0  0
  153.9886  141.7356  160.5662 H   0  0  0  0  0  0  0  0  0  0  0  0
  153.3734  139.7439  159.1745 H   0  0  0  0  0  0  0  0  0  0  0  0
  151.6934  140.0130  157.3728 H   0  0  0  0  0  0  0  0  0  0  0  0
  149.9462  143.3057  156.8544 H   0  0  0  0  0  0  0  0  0  0  0  0
  148.7057  143.1199  155.3504 H   0  0  0  0  0  0  0  0  0  0  0  0
  148.8479  142.3145  152.9396 H   0  0  0  0  0  0  0  0  0  0  0  0
  148.8304  140.7020  153.5992 H   0  0  0  0  0  0  0  0  0  0  0  0
  146.5195  141.1522  153.0690 H   0  0  0  0  0  0  0  0  0  0  0  0
  146.8207  143.9260  154.3353 H   0  0  0  0  0  0  0  0  0  0  0  0
  145.8579  143.4571  152.8833 H   0  0  0  0  0  0  0  0  0  0  0  0
  144.8712  143.1724  155.6022 H   0  0  0  0  0  0  0  0  0  0  0  0
  144.3488  142.0904  154.2513 H   0  0  0  0  0  0  0  0  0  0  0  0
  145.8754  140.4656  155.2718 H   0  0  0  0  0  0  0  0  0  0  0  0
  146.8361  141.7833  156.0442 H   0  0  0  0  0  0  0  0  0  0  0  0
  1  2  1  0  0  0  0
  1 18  1  0  0  0  0
  1 19  1  0  0  0  0
  1 20  1  0  0  0  0
  2  3  1  0  0  0  0
  3  8  1  0  0  0  0
  3  4  2  0  0  0  0
  4  5  1  0  0  0  0
  5  6  2  0  0  0  0
  5 21  1  0  0  0  0
  6  7  1  0  0  0  0
  6 22  1  0  0  0  0
  7  8  2  0  0  0  0
  7 23  1  0  0  0  0
  8  9  1  0  0  0  0
  9 10  1  0  0  0  0
  9 24  1  0  0  0  0
 10 11  2  0  0  0  0
 10 12  1  0  0  0  0
 12 13  1  0  0  0  0
 12 25  1  0  0  0  0
 13 14  1  0  0  0  0
 13 26  1  0  0  0  0
 13 27  1  0  0  0  0
 14 17  1  0  0  0  0
 14 15  1  0  0  0  0
 14 28  1  0  0  0  0
 15 16  1  0  0  0  0
 15 29  1  0  0  0  0
 15 30  1  0  0  0  0
 16 17  1  0  0  0  0
 16 31  1  0  0  0  0
 16 32  1  0  0  0  0
 17 33  1  0  0  0  0
 17 34  1  0  0  0  0
M  END
> <s_m_source_file>
AV-unprocessed.smi

> <i_m_source_file_index>
1515

> <i_lp_mmshare_version>
43012

> <i_f3d_flags>
0

> <s_epik_input>
W0NIM11PYzFuW2NIXVtjSF1bY0hdYzFbTkhdQyg9TylbTkhdW0NIMl1bQ0hdMltDSDJdW0NIMl1bQ0gyXTI=

> <s_epik_cmdline>
J2VwaWtfcHl0aG9uJywgJy1waCcsICc3LjAnLCAnLXRuJywgJzgnLCAnLW1hJywgJzIwMCcsICctbWV0YWxfYmluZGluZycsICctaW1hZScsICc8aW5maWxlLm1hZT4nLCAnLW9tYWUnLCAnPG91dGZpbGUubWFlPic=

> <r_lp_tautomer_probability>
1

> <r_epik_Ionization_Penalty>
9.92152e-05

> <r_epik_Ionization_Penalty_Charging>
0

> <r_epik_Ionization_Penalty_Neutral>
9.92152e-05

> <r_epik_State_Penalty>
-0

> <r_epik_Charging_Adjusted_Penalty>
0

> <i_epik_Tot_Q>
0

> <i_epik_Tot_abs_Q>
0

> <r_epik_Metal_State_Penalty>
-0

> <b_epik_Metal_Only>
0

> <s_lp_Force_Field>
OPLS_2005

> <r_lp_Energy>
15.166

> <b_lp_Chiralities_Consistent>
1

> <s_lp_Variant>
AV-unprocessed.smi:1515-1

> <Gold.Version>
5.8.1

> <Gold.Id.Protein>
6NUR|6NUR_protein|mol2

> <Gold.PLP.Fitness>
43.6314

> <Gold.PLP.PLP>
-36.9044

> <Gold.PLP.part.hbond>
-3.0000

> <Gold.PLP.part.metal>
0.0000

> <Gold.PLP.part.buried>
-3.8720

> <Gold.PLP.part.nonpolar>
-28.7653

> <Gold.PLP.part.repulsive>
0.4653

> <Gold.PLP.ligand.clash>
0.0000

> <Gold.PLP.ligand.torsion>
0.3339

> <Gold.PLP.Chemscore.Hbond>
2.4435

> <Gold.PLP.Chemscore.CHOScore>
0.0000

> <Gold.PLP.Chemscore.Metal>
0.0000

> <Gold.Chemscore.Hbonds>
donor molecule, donor type, donor heavy atom, donor atom, acceptor molecule, acceptor atom, score
      L1  H     9    24       P1  8028  0.61
      L1  H    12    25       P1  8028  0.99
      P1  H  7989  7998       L1    11  0.80

> <Gold.PLP.Chemscore.Internal.Correction>
0.0643

> <Gold.Rescore>
     Score         DG    S(hbond)    S(metal)    S(lipo)     H(rot)  DE(clash)    DE(int)     intcor
     16.04     -18.84       2.39        0.00      77.43       1.44       1.37       1.43       ----

> <Gold.Chemscore.Fitness>
16.0387

> <Gold.Chemscore.DG>
-18.8391

> <Gold.Chemscore.ZeroCoef>
-5.4800

> <Gold.Chemscore.Hbond>
2.3903

> <Gold.Chemscore.Metal>
0.0000

> <Gold.Chemscore.Lipo>
77.4316

> <Gold.Chemscore.Internal_Hbond>
0.0000

> <Gold.Chemscore.DEClash>
1.3664

> <Gold.Chemscore.DEInternal>
1.4340

> <Gold.Chemscore.Rot>
1.4391

> <Gold.Chemscore.Internal.Correction>
   9.000000E+99

> <Gold.Chemscore.Hbonds>
donor molecule, donor type, donor heavy atom, donor atom, acceptor molecule, acceptor atom, score
      L1  H     9    24       P1  8028  0.59
      L1  H    12    25       P1  8028  0.94
      P1  H  7989  7998       L1    11  0.59

> <Gold.Chemscore.Hbond.Weighted>
-7.9836

> <Gold.Chemscore.Metal.Weighted>
-0.0000

> <Gold.Chemscore.Lipo.Weighted>
-9.0595

> <Gold.Chemscore.Internal_Hbond.Weighted>
0.0000

> <Gold.Chemscore.DEClash.Weighted>
1.3664

> <Gold.Chemscore.DEInternal.Weighted>
1.4340

> <Gold.Chemscore.Rot.Weighted>
3.6840

> <Gold.Chemscore.Internal.Correction.Weighted>
   9.000000E+99

> <Gold.Protein.RotatedTorsions>
[ 6907 6896 6895 6894 ] final  -68.84 input  -60.11 | X-H torsion
[ 7974 7965 7964 7962 ] final -130.06 input  175.53 | X-H torsion
[ 8008 7997 7996 7995 ] final  -10.01 input   59.86 | X-H torsion
[ 10167 10162 10161 10158 ] final  -60.83 input  -65.29 | X-H torsion
[ 10718 10713 10712 10709 ] final   79.63 input   66.30 | X-H torsion
[ 10763 10752 10751 10750 ] final   47.45 input  -60.55 | X-H torsion
[ 11005 11000 10999 10996 ] final   76.56 input  -57.11 | X-H torsion

> <Gold.Protein.ActiveResidues>
 VAL166  LYS551  ARG553  GLY616  TRP617  ASP618  TYR619  PRO620  LYS621  CYS622 
 ASP623  PHE694  ASN695  SER759  ASP760  ASP761  ALA762  ILE779  LEU786  VAL792 
 PHE793  MET794  SER795  GLU796  ALA797  LYS798  CYS799  TRP800  GLU811  SER814 

> <Gold.Protein.RotatedAtoms>
  150.7335  134.5682  159.5876 H   0  0  0  0  0  0  0  0  0  0  0  0  # atno 6907 bound_to 6896
  152.3128  134.7474  160.0341 H   0  0  0  0  0  0  0  0  0  0  0  0  # atno 6908 bound_to 6896
  151.8016  133.3335  159.3565 H   0  0  0  0  0  0  0  0  0  0  0  0  # atno 6909 bound_to 6896
  144.9512  140.7346  143.4787 H   0  0  0  0  0  0  0  0  0  0  0  0  # atno 7974 bound_to 7965
  154.5594  140.2340  155.8359 H   0  0  0  0  0  0  0  0  0  0  0  0  # atno 8008 bound_to 7997
  156.2016  140.3051  155.9499 H   0  0  0  0  0  0  0  0  0  0  0  0  # atno 8009 bound_to 7997
  155.2918  140.0427  157.3014 H   0  0  0  0  0  0  0  0  0  0  0  0  # atno 8010 bound_to 7997
  140.6046  143.2370  151.5851 H   0  0  0  0  0  0  0  0  0  0  0  0  # atno 10167 bound_to 10162
  157.6782  130.9923  150.1960 H   0  0  0  0  0  0  0  0  0  0  0  0  # atno 10718 bound_to 10713
  152.9800  135.5976  154.3765 H   0  0  0  0  0  0  0  0  0  0  0  0  # atno 10763 bound_to 10752
  154.3434  135.2767  155.2412 H   0  0  0  0  0  0  0  0  0  0  0  0  # atno 10764 bound_to 10752
  154.4484  135.5996  153.6230 H   0  0  0  0  0  0  0  0  0  0  0  0  # atno 10765 bound_to 10752
  139.9293  134.7611  156.1411 H   0  0  0  0  0  0  0  0  0  0  0  0  # atno 11005 bound_to 11000
  145.2842  139.1907  143.4775 LP  0  0  0  0  0  0  0  0  0  0  0  0  # atno 17320 bound_to 7965
  146.3321  140.2808  142.8610 LP  0  0  0  0  0  0  0  0  0  0  0  0  # atno 17321 bound_to 7965
  139.5315  144.2902  152.1158 LP  0  0  0  0  0  0  0  0  0  0  0  0  # atno 17342 bound_to 10162
  140.2089  144.4583  150.6395 LP  0  0  0  0  0  0  0  0  0  0  0  0  # atno 17343 bound_to 10162
  156.2661  130.3716  149.8079 LP  0  0  0  0  0  0  0  0  0  0  0  0  # atno 17370 bound_to 10713
  156.5810  130.8466  151.3383 LP  0  0  0  0  0  0  0  0  0  0  0  0  # atno 17371 bound_to 10713
  141.0871  133.6729  156.2460 LP  0  0  0  0  0  0  0  0  0  0  0  0  # atno 17394 bound_to 11000
  140.6248  134.5325  157.5552 LP  0  0  0  0  0  0  0  0  0  0  0  0  # atno 17395 bound_to 11000

$$$$
