AV-unprocessed.smi:39|AV-procd|sdf|359|dock5
  -GOLD-   2262016193D 1   1.00000     0.00000
 Structure written by MMmdl.
 31 32  0  0  0  0  0  0  0  0  4 V2000
  150.5529  144.3787  158.6077 C   0  0  0  0  0  0  0  0  0  0  0  0
  151.3496  143.0872  158.5471 C   0  0  0  0  0  0  0  0  0  0  0  0
  151.1272  142.1463  157.6028 C   0  0  0  0  0  0  0  0  0  0  0  0
  151.8528  140.9684  157.5533 N   0  0  0  0  0  0  0  0  0  0  0  0
  151.5759  139.9231  156.4931 C   0  0  1  0  0  0  0  0  0  0  0  0
  150.5904  138.8778  157.0227 C   0  0  0  0  0  0  0  0  0  0  0  0
  149.2730  139.3884  156.4704 C   0  0  2  0  0  0  0  0  0  0  0  0
  148.2598  138.3375  156.3516 N   0  0  0  0  0  0  0  0  0  0  0  0
  147.8611  137.8360  157.4108 N   0  3  0  0  0  0  0  0  0  0  0  0
  147.6128  137.3767  158.4220 N   0  5  0  0  0  0  0  0  0  0  0  0
  149.7143  139.9368  155.1110 C   0  0  1  0  0  0  0  0  0  0  0  0
  148.7508  140.9834  154.5295 C   0  0  0  0  0  0  0  0  0  0  0  0
  149.1819  141.3820  153.2457 O   0  0  0  0  0  0  0  0  0  0  0  0
  150.9800  140.5352  155.3850 O   0  0  0  0  0  0  0  0  0  0  0  0
  152.8480  140.7175  158.5342 C   0  0  0  0  0  0  0  0  0  0  0  0
  153.4519  139.6455  158.4864 O   0  0  0  0  0  0  0  0  0  0  0  0
  153.0848  141.6644  159.4863 N   0  5  0  0  0  0  0  0  0  0  0  0
  152.3953  142.8397  159.5467 C   0  0  0  0  0  0  0  0  0  0  0  0
  152.6227  143.6880  160.4086 O   0  0  0  0  0  0  0  0  0  0  0  0
  152.5451  139.5131  156.2051 H   0  0  0  0  0  0  0  0  0  0  0  0
  148.9148  140.2128  157.0906 H   0  0  0  0  0  0  0  0  0  0  0  0
  149.8592  139.1075  154.4155 H   0  0  0  0  0  0  0  0  0  0  0  0
  149.8185  144.4295  157.8036 H   0  0  0  0  0  0  0  0  0  0  0  0
  151.2155  145.2397  158.5155 H   0  0  0  0  0  0  0  0  0  0  0  0
  150.0209  144.4530  159.5565 H   0  0  0  0  0  0  0  0  0  0  0  0
  150.3538  142.3249  156.8722 H   0  0  0  0  0  0  0  0  0  0  0  0
  150.8495  137.9102  156.5906 H   0  0  0  0  0  0  0  0  0  0  0  0
  150.6141  138.7959  158.1103 H   0  0  0  0  0  0  0  0  0  0  0  0
  147.7542  140.5556  154.4187 H   0  0  0  0  0  0  0  0  0  0  0  0
  148.6587  141.8491  155.1856 H   0  0  0  0  0  0  0  0  0  0  0  0
  149.2517  140.6134  152.7005 H   0  0  0  0  0  0  0  0  0  0  0  0
  1  2  1  0  0  0  0
  1 23  1  0  0  0  0
  1 24  1  0  0  0  0
  1 25  1  0  0  0  0
  2 18  1  0  0  0  0
  2  3  2  0  0  0  0
  3  4  1  0  0  0  0
  3 26  1  0  0  0  0
  4  5  1  0  0  0  0
  4 15  1  0  0  0  0
  5 20  1  0  0  0  0
  5 14  1  0  0  0  0
  5  6  1  0  0  0  0
  6  7  1  0  0  0  0
  6 27  1  0  0  0  0
  6 28  1  0  0  0  0
  7 21  1  0  0  0  0
  7  8  1  0  0  0  0
  7 11  1  0  0  0  0
  8  9  2  0  0  0  0
  9 10  2  0  0  0  0
 11 22  1  0  0  0  0
 11 12  1  0  0  0  0
 11 14  1  0  0  0  0
 12 13  1  0  0  0  0
 12 29  1  0  0  0  0
 12 30  1  0  0  0  0
 13 31  1  0  0  0  0
 15 16  2  0  0  0  0
 15 17  1  0  0  0  0
 17 18  1  0  0  0  0
 18 19  2  0  0  0  0
M  CHG  1   9   1
M  CHG  1  10  -1
M  CHG  1  17  -1
M  END
> <s_m_source_file>
AV-unprocessed.smi

> <i_m_source_file_index>
39

> <i_lp_mmshare_version>
43012

> <i_f3d_flags>
0

> <s_epik_input>
Tz1jMVtuSF1jKD1PKW4oW2NIXWMxW0NIM10pW0NASF0yW0NIMl1bQ0BIXShOPVtOK109W04tXSlbQ0BIXShPMilbQ0gyXVtPSF0=

> <s_epik_cmdline>
J2VwaWtfcHl0aG9uJywgJy1waCcsICc3LjAnLCAnLXRuJywgJzgnLCAnLW1hJywgJzIwMCcsICctbWV0YWxfYmluZGluZycsICctaW1hZScsICc8aW5maWxlLm1hZT4nLCAnLW9tYWUnLCAnPG91dGZpbGUubWFlPic=

> <r_lp_tautomer_probability>
0.999537

> <r_epik_Ionization_Penalty>
3.6393

> <r_epik_Ionization_Penalty_Charging>
9.76484e-08

> <r_epik_Ionization_Penalty_Neutral>
3.6393

> <r_epik_State_Penalty>
3.63887

> <r_epik_Charging_Adjusted_Penalty>
3.63887

> <i_epik_Tot_Q>
-1

> <i_epik_Tot_abs_Q>
3

> <r_epik_Metal_State_Penalty>
0.225911

> <b_epik_Metal_Only>
1

> <s_epik_Chemistry_Notes>
This compound contains an acetal/aminal-like group ( X-CH(R)-Y where X, Y are N, S, or O) that may be acid/base labile, releasing an aldehyde.

> <s_lp_Force_Field>
OPLS_2005

> <r_lp_Energy>
34.0218

> <b_lp_Chiralities_Consistent>
1

> <s_lp_Variant>
AV-unprocessed.smi:39-9

> <Gold.Version>
5.8.1

> <Gold.Id.Protein>
6NUR|6NUR_protein|mol2

> <Gold.PLP.Fitness>
37.0839

> <Gold.PLP.PLP>
-27.4250

> <Gold.PLP.part.hbond>
-4.4721

> <Gold.PLP.part.metal>
0.0000

> <Gold.PLP.part.buried>
-3.7432

> <Gold.PLP.part.nonpolar>
-18.7036

> <Gold.PLP.part.repulsive>
0.0699

> <Gold.PLP.ligand.clash>
0.0000

> <Gold.PLP.ligand.torsion>
0.7162

> <Gold.PLP.Chemscore.Hbond>
3.6855

> <Gold.PLP.Chemscore.CHOScore>
0.0000

> <Gold.PLP.Chemscore.Metal>
0.0000

> <Gold.Chemscore.Hbonds>
donor molecule, donor type, donor heavy atom, donor atom, acceptor molecule, acceptor atom, score
      L1  H    13    31       P1  7957  0.90
      P1  H  7989  7998       L1    14  0.94
      P1  H  7997  8009       L1    16  1.00
      P1  H  8011  8017       L1    13  0.94

> <Gold.PLP.Chemscore.Internal.Correction>
0.0346

> <Gold.Rescore>
     Score         DG    S(hbond)    S(metal)    S(lipo)     H(rot)  DE(clash)    DE(int)     intcor
     11.74     -12.87       2.85        0.00      41.10       2.72       0.31       0.81       ----

> <Gold.Chemscore.Fitness>
11.7420

> <Gold.Chemscore.DG>
-12.8654

> <Gold.Chemscore.ZeroCoef>
-5.4800

> <Gold.Chemscore.Hbond>
2.8528

> <Gold.Chemscore.Metal>
0.0000

> <Gold.Chemscore.Lipo>
41.0966

> <Gold.Chemscore.Internal_Hbond>
0.0000

> <Gold.Chemscore.DEClash>
0.3105

> <Gold.Chemscore.DEInternal>
0.8130

> <Gold.Chemscore.Rot>
2.7153

> <Gold.Chemscore.Internal.Correction>
   9.000000E+99

> <Gold.Chemscore.Hbonds>
donor molecule, donor type, donor heavy atom, donor atom, acceptor molecule, acceptor atom, score
      L1  H    13    31       P1  7957  0.86
      P1  H  7989  7998       L1    14  0.26
      P1  H  7997  8009       L1    16  0.34
      P1  H  8011  8017       L1    13  0.22

> <Gold.Chemscore.Hbond.Weighted>
-9.5283

> <Gold.Chemscore.Metal.Weighted>
-0.0000

> <Gold.Chemscore.Lipo.Weighted>
-4.8083

> <Gold.Chemscore.Internal_Hbond.Weighted>
0.0000

> <Gold.Chemscore.DEClash.Weighted>
0.3105

> <Gold.Chemscore.DEInternal.Weighted>
0.8130

> <Gold.Chemscore.Rot.Weighted>
6.9512

> <Gold.Chemscore.Internal.Correction.Weighted>
   9.000000E+99

> <Gold.Protein.RotatedTorsions>
[ 6907 6896 6895 6894 ] final  -21.16 input  -60.11 | X-H torsion
[ 7974 7965 7964 7962 ] final -134.13 input  175.53 | X-H torsion
[ 8008 7997 7996 7995 ] final  134.44 input   59.86 | X-H torsion
[ 10167 10162 10161 10158 ] final  168.35 input  -65.29 | X-H torsion
[ 10718 10713 10712 10709 ] final  133.72 input   66.30 | X-H torsion
[ 10763 10752 10751 10750 ] final  -62.88 input  -60.55 | X-H torsion
[ 11005 11000 10999 10996 ] final  -32.20 input  -57.11 | X-H torsion

> <Gold.Protein.ActiveResidues>
 VAL166  LYS551  ARG553  GLY616  TRP617  ASP618  TYR619  PRO620  LYS621  CYS622 
 ASP623  PHE694  ASN695  SER759  ASP760  ASP761  ALA762  ILE779  LEU786  VAL792 
 PHE793  MET794  SER795  GLU796  ALA797  LYS798  CYS799  TRP800  GLU811  SER814 

> <Gold.Protein.RotatedAtoms>
  151.2374  135.0576  159.9011 H   0  0  0  0  0  0  0  0  0  0  0  0  # atno 6907 bound_to 6896
  152.5397  134.0471  159.8103 H   0  0  0  0  0  0  0  0  0  0  0  0  # atno 6908 bound_to 6896
  151.0660  133.5456  159.2662 H   0  0  0  0  0  0  0  0  0  0  0  0  # atno 6909 bound_to 6896
  144.9131  140.6920  143.5012 H   0  0  0  0  0  0  0  0  0  0  0  0  # atno 7974 bound_to 7965
  156.2999  140.2496  156.3417 H   0  0  0  0  0  0  0  0  0  0  0  0  # atno 8008 bound_to 7997
  154.9048  140.0405  157.1933 H   0  0  0  0  0  0  0  0  0  0  0  0  # atno 8009 bound_to 7997
  154.8464  140.2899  155.5630 H   0  0  0  0  0  0  0  0  0  0  0  0  # atno 8010 bound_to 7997
  139.4966  144.3824  151.9607 H   0  0  0  0  0  0  0  0  0  0  0  0  # atno 10167 bound_to 10162
  157.4745  131.1082  150.9761 H   0  0  0  0  0  0  0  0  0  0  0  0  # atno 10718 bound_to 10713
  154.3066  135.6224  153.5447 H   0  0  0  0  0  0  0  0  0  0  0  0  # atno 10763 bound_to 10752
  152.9834  135.5691  154.5225 H   0  0  0  0  0  0  0  0  0  0  0  0  # atno 10764 bound_to 10752
  154.4866  135.2865  155.1506 H   0  0  0  0  0  0  0  0  0  0  0  0  # atno 10765 bound_to 10752
  140.9532  133.7208  156.1253 H   0  0  0  0  0  0  0  0  0  0  0  0  # atno 11005 bound_to 11000
  145.3421  139.1729  143.4480 LP  0  0  0  0  0  0  0  0  0  0  0  0  # atno 17320 bound_to 7965
  146.3168  140.3463  142.8652 LP  0  0  0  0  0  0  0  0  0  0  0  0  # atno 17321 bound_to 7965
  140.3261  144.3372  150.5998 LP  0  0  0  0  0  0  0  0  0  0  0  0  # atno 17342 bound_to 10162
  140.5683  143.2183  151.7643 LP  0  0  0  0  0  0  0  0  0  0  0  0  # atno 17343 bound_to 10162
  157.0515  130.5789  149.5371 LP  0  0  0  0  0  0  0  0  0  0  0  0  # atno 17370 bound_to 10713
  156.0090  130.5179  150.7925 LP  0  0  0  0  0  0  0  0  0  0  0  0  # atno 17371 bound_to 10713
  140.7572  134.3979  157.5532 LP  0  0  0  0  0  0  0  0  0  0  0  0  # atno 17394 bound_to 11000
  139.8854  134.8938  156.2645 LP  0  0  0  0  0  0  0  0  0  0  0  0  # atno 17395 bound_to 11000

$$$$
