AV-unprocessed.smi:100|AV-procd|sdf|905|dock6
  -GOLD-   2262017403D 1   1.00000     0.00000
 Structure written by MMmdl.
 31 33  0  0  0  0  0  0  0  0  1 V2000
  151.8165  144.4723  162.3693 N   0  0  0  0  0  0  0  0  0  0  0  0
  152.2315  143.4836  161.5656 C   0  0  0  0  0  0  0  0  0  0  0  0
  153.1842  142.6373  162.0239 N   0  0  0  0  0  0  0  0  0  0  0  0
  153.6137  141.6417  161.2408 C   0  0  0  0  0  0  0  0  0  0  0  0
  153.2296  141.3279  159.9997 N   0  0  0  0  0  0  0  0  0  0  0  0
  152.2704  142.1850  159.5426 C   0  0  0  0  0  0  0  0  0  0  0  0
  151.7190  143.2816  160.2595 C   0  0  0  0  0  0  0  0  0  0  0  0
  150.7670  143.9243  159.4794 N   0  0  0  0  0  0  0  0  0  0  0  0
  150.7590  143.2408  158.3656 C   0  0  0  0  0  0  0  0  0  0  0  0
  151.6336  142.1743  158.3215 N   0  0  0  0  0  0  0  0  0  0  0  0
  151.8844  141.1935  157.2155 C   0  0  2  0  0  0  0  0  0  0  0  0
  151.0620  141.5287  156.1349 O   0  0  0  0  0  0  0  0  0  0  0  0
  149.9603  140.6286  156.0744 C   0  0  1  0  0  0  0  0  0  0  0  0
  149.3519  140.6202  154.6649 C   0  0  0  0  0  0  0  0  0  0  0  0
  150.2902  140.1113  153.7415 O   0  0  0  0  0  0  0  0  0  0  0  0
  150.6443  139.3201  156.4586 C   0  0  2  0  0  0  0  0  0  0  0  0
  149.7992  138.3341  156.7657 F   0  0  0  0  0  0  0  0  0  0  0  0
  151.5330  139.7405  157.6191 C   0  0  2  0  0  0  0  0  0  0  0  0
  150.8417  139.6376  158.8543 O   0  0  0  0  0  0  0  0  0  0  0  0
  151.1060  145.1145  162.0483 H   0  0  0  0  0  0  0  0  0  0  0  0
  152.2123  144.5722  163.2927 H   0  0  0  0  0  0  0  0  0  0  0  0
  154.3734  141.0051  161.6701 H   0  0  0  0  0  0  0  0  0  0  0  0
  150.1091  143.5027  157.5435 H   0  0  0  0  0  0  0  0  0  0  0  0
  152.9317  141.3375  156.9464 H   0  0  0  0  0  0  0  0  0  0  0  0
  149.2127  140.8884  156.8264 H   0  0  0  0  0  0  0  0  0  0  0  0
  148.4309  140.0373  154.6325 H   0  0  0  0  0  0  0  0  0  0  0  0
  149.1056  141.6366  154.3563 H   0  0  0  0  0  0  0  0  0  0  0  0
  150.0262  139.2380  153.4944 H   0  0  0  0  0  0  0  0  0  0  0  0
  151.2609  138.9654  155.6313 H   0  0  0  0  0  0  0  0  0  0  0  0
  152.4416  139.1397  157.6706 H   0  0  0  0  0  0  0  0  0  0  0  0
  151.0136  140.4187  159.3582 H   0  0  0  0  0  0  0  0  0  0  0  0
  1  2  1  0  0  0  0
  1 20  1  0  0  0  0
  1 21  1  0  0  0  0
  2  7  1  0  0  0  0
  2  3  2  0  0  0  0
  3  4  1  0  0  0  0
  4  5  2  0  0  0  0
  4 22  1  0  0  0  0
  5  6  1  0  0  0  0
  6 10  1  0  0  0  0
  6  7  2  0  0  0  0
  7  8  1  0  0  0  0
  8  9  2  0  0  0  0
  9 10  1  0  0  0  0
  9 23  1  0  0  0  0
 10 11  1  0  0  0  0
 11 18  1  0  0  0  0
 11 12  1  0  0  0  0
 11 24  1  0  0  0  0
 12 13  1  0  0  0  0
 13 14  1  0  0  0  0
 13 16  1  0  0  0  0
 13 25  1  0  0  0  0
 14 15  1  0  0  0  0
 14 26  1  0  0  0  0
 14 27  1  0  0  0  0
 15 28  1  0  0  0  0
 16 17  1  0  0  0  0
 16 18  1  0  0  0  0
 16 29  1  0  0  0  0
 18 19  1  0  0  0  0
 18 30  1  0  0  0  0
 19 31  1  0  0  0  0
M  END
> <s_m_source_file>
AV-unprocessed.smi

> <i_m_source_file_index>
100

> <i_lp_mmshare_version>
43012

> <i_f3d_flags>
0

> <s_epik_input>
bjFbY0hdbmMoW05IMl0pYyhjMTIpbltjSF1uMltDQEBIXTNPW0NAQEhdKFtDSDJdW09IXSlbQ0BIXShGKVtDQEhdM1tPSF0=

> <s_epik_cmdline>
J2VwaWtfcHl0aG9uJywgJy1waCcsICc3LjAnLCAnLXRuJywgJzgnLCAnLW1hJywgJzIwMCcsICctbWV0YWxfYmluZGluZycsICctaW1hZScsICc8aW5maWxlLm1hZT4nLCAnLW9tYWUnLCAnPG91dGZpbGUubWFlPic=

> <r_lp_tautomer_probability>
1

> <r_epik_Ionization_Penalty>
0.000750324

> <r_epik_Ionization_Penalty_Charging>
0

> <r_epik_Ionization_Penalty_Neutral>
0.000750324

> <r_epik_State_Penalty>
-0

> <r_epik_Charging_Adjusted_Penalty>
0

> <i_epik_Tot_Q>
0

> <i_epik_Tot_abs_Q>
0

> <r_epik_Metal_State_Penalty>
-0

> <b_epik_Metal_Only>
0

> <s_epik_Chemistry_Notes>
This compound contains an acetal/aminal-like group ( X-CH(R)-Y where X, Y are N, S, or O) that may be acid/base labile, releasing an aldehyde.

> <s_lp_Force_Field>
OPLS_2005

> <r_lp_Energy>
36.1234

> <b_lp_Chiralities_Consistent>
1

> <s_lp_Variant>
AV-unprocessed.smi:100-9

> <Gold.Version>
5.8.1

> <Gold.Id.Protein>
6NUR|6NUR_protein|mol2

> <Gold.PLP.Fitness>
38.1931

> <Gold.PLP.PLP>
-32.7596

> <Gold.PLP.part.hbond>
-3.5197

> <Gold.PLP.part.metal>
0.0000

> <Gold.PLP.part.buried>
-6.6771

> <Gold.PLP.part.nonpolar>
-21.2874

> <Gold.PLP.part.repulsive>
0.2339

> <Gold.PLP.ligand.clash>
0.0000

> <Gold.PLP.ligand.torsion>
0.0515

> <Gold.PLP.Chemscore.Hbond>
0.8480

> <Gold.PLP.Chemscore.CHOScore>
0.9868

> <Gold.PLP.Chemscore.Metal>
0.0000

> <Gold.Chemscore.Hbonds>
donor molecule, donor type, donor heavy atom, donor atom, acceptor molecule, acceptor atom, score
      P1  H  7989  7998       L1    15  0.83
      L1  C     9    23       P1  8028  0.98

> <Gold.PLP.Chemscore.Internal.Correction>
0.0321

> <Gold.Rescore>
     Score         DG    S(hbond)    S(metal)    S(lipo)     H(rot)  DE(clash)    DE(int)     intcor
      2.87      -3.92       0.91        0.00      30.43       3.19       0.14       0.91       ----

> <Gold.Chemscore.Fitness>
2.8716

> <Gold.Chemscore.DG>
-3.9202

> <Gold.Chemscore.ZeroCoef>
-5.4800

> <Gold.Chemscore.Hbond>
0.9120

> <Gold.Chemscore.Metal>
0.0000

> <Gold.Chemscore.Lipo>
30.4347

> <Gold.Chemscore.Internal_Hbond>
0.0000

> <Gold.Chemscore.DEClash>
0.1432

> <Gold.Chemscore.DEInternal>
0.9055

> <Gold.Chemscore.Rot>
3.1901

> <Gold.Chemscore.Internal.Correction>
   9.000000E+99

> <Gold.Chemscore.Hbonds>
donor molecule, donor type, donor heavy atom, donor atom, acceptor molecule, acceptor atom, score
      P1  H  7989  7998       L1    15  0.77

> <Gold.Chemscore.Hbond.Weighted>
-3.0461

> <Gold.Chemscore.Metal.Weighted>
-0.0000

> <Gold.Chemscore.Lipo.Weighted>
-3.5609

> <Gold.Chemscore.Internal_Hbond.Weighted>
0.0000

> <Gold.Chemscore.DEClash.Weighted>
0.1432

> <Gold.Chemscore.DEInternal.Weighted>
0.9055

> <Gold.Chemscore.Rot.Weighted>
8.1667

> <Gold.Chemscore.Internal.Correction.Weighted>
   9.000000E+99

> <Gold.Protein.RotatedTorsions>
[ 6907 6896 6895 6894 ] final  -97.72 input  -60.11 | X-H torsion
[ 7974 7965 7964 7962 ] final  122.96 input  175.53 | X-H torsion
[ 8008 7997 7996 7995 ] final  -65.56 input   59.86 | X-H torsion
[ 10167 10162 10161 10158 ] final  114.35 input  -65.29 | X-H torsion
[ 10718 10713 10712 10709 ] final   32.58 input   66.30 | X-H torsion
[ 10763 10752 10751 10750 ] final -115.35 input  -60.55 | X-H torsion
[ 11005 11000 10999 10996 ] final  -34.37 input  -57.11 | X-H torsion

> <Gold.Protein.ActiveResidues>
 VAL166  LYS551  ARG553  GLY616  TRP617  ASP618  TYR619  PRO620  LYS621  CYS622 
 ASP623  PHE694  ASN695  SER759  ASP760  ASP761  ALA762  ILE779  LEU786  VAL792 
 PHE793  MET794  SER795  GLU796  ALA797  LYS798  CYS799  TRP800  GLU811  SER814 

> <Gold.Protein.RotatedAtoms>
  150.7025  134.1305  159.4067 H   0  0  0  0  0  0  0  0  0  0  0  0  # atno 6907 bound_to 6896
  151.9291  135.0262  160.0537 H   0  0  0  0  0  0  0  0  0  0  0  0  # atno 6908 bound_to 6896
  152.2191  133.4934  159.5189 H   0  0  0  0  0  0  0  0  0  0  0  0  # atno 6909 bound_to 6896
  145.1014  139.3516  143.4810 H   0  0  0  0  0  0  0  0  0  0  0  0  # atno 7974 bound_to 7965
  154.4679  140.0930  156.7069 H   0  0  0  0  0  0  0  0  0  0  0  0  # atno 8008 bound_to 7997
  155.4806  140.3467  155.4321 H   0  0  0  0  0  0  0  0  0  0  0  0  # atno 8009 bound_to 7997
  156.0989  140.1417  156.9483 H   0  0  0  0  0  0  0  0  0  0  0  0  # atno 8010 bound_to 7997
  139.6395  144.7122  151.2266 H   0  0  0  0  0  0  0  0  0  0  0  0  # atno 10167 bound_to 10162
  157.2870  130.7283  149.6588 H   0  0  0  0  0  0  0  0  0  0  0  0  # atno 10718 bound_to 10713
  154.8477  135.4385  154.1649 H   0  0  0  0  0  0  0  0  0  0  0  0  # atno 10763 bound_to 10752
  153.2777  135.6951  153.7423 H   0  0  0  0  0  0  0  0  0  0  0  0  # atno 10764 bound_to 10752
  153.6639  135.3430  155.3110 H   0  0  0  0  0  0  0  0  0  0  0  0  # atno 10765 bound_to 10752
  140.9711  133.7109  156.1525 H   0  0  0  0  0  0  0  0  0  0  0  0  # atno 11005 bound_to 11000
  146.3529  140.0893  142.8613 LP  0  0  0  0  0  0  0  0  0  0  0  0  # atno 17320 bound_to 7965
  145.0951  140.9309  143.4746 LP  0  0  0  0  0  0  0  0  0  0  0  0  # atno 17321 bound_to 7965
  140.7483  143.6337  150.8399 LP  0  0  0  0  0  0  0  0  0  0  0  0  # atno 17342 bound_to 10162
  139.9973  143.5782  152.2888 LP  0  0  0  0  0  0  0  0  0  0  0  0  # atno 17343 bound_to 10162
  155.9666  130.4320  150.4947 LP  0  0  0  0  0  0  0  0  0  0  0  0  # atno 17370 bound_to 10713
  157.2902  131.0624  151.2139 LP  0  0  0  0  0  0  0  0  0  0  0  0  # atno 17371 bound_to 10713
  140.7328  134.4236  157.5564 LP  0  0  0  0  0  0  0  0  0  0  0  0  # atno 17394 bound_to 11000
  139.8912  134.8784  156.2329 LP  0  0  0  0  0  0  0  0  0  0  0  0  # atno 17395 bound_to 11000

$$$$
