AV-unprocessed.smi:1301|AV-procd|sdf|5423|dock3
  -GOLD-   22720 4583D 1   1.00000     0.00000
 Structure written by MMmdl.
 44 45  0  0  0  0  0  0  0  0  3 V2000
  146.6280  135.7442  162.6914 C   0  0  0  0  0  0  0  0  0  0  0  0
  147.3642  135.7769  161.3957 C   0  0  0  0  0  0  0  0  0  0  0  0
  147.9682  134.8059  160.6484 C   0  0  0  0  0  0  0  0  0  0  0  0
  148.4714  135.5233  159.5290 C   0  0  0  0  0  0  0  0  0  0  0  0
  149.1649  135.0001  158.5062 N   0  5  0  0  0  0  0  0  0  0  0  0
  148.5609  134.1643  157.6312 C   0  0  0  0  0  0  0  0  0  0  0  0
  148.1338  133.0332  157.8740 O   0  0  0  0  0  0  0  0  0  0  0  0
  148.4442  134.6727  156.3962 N   0  0  0  0  0  0  0  0  0  0  0  0
  147.8390  134.0054  155.2477 C   0  0  2  0  0  0  0  0  0  0  0  0
  148.9379  133.5444  154.2780 C   0  0  0  0  0  0  0  0  0  0  0  0
  148.3338  132.9222  153.0090 C   0  0  0  0  0  0  0  0  0  0  0  0
  147.4100  133.8693  152.3331 N   0  3  1  0  0  0  0  0  0  0  0  0
  146.9272  133.3472  151.0284 C   0  0  0  0  0  0  0  0  0  0  0  0
  145.6036  132.5590  151.1394 C   0  0  0  0  0  0  0  0  0  0  0  0
  145.7808  131.3350  152.0501 C   0  0  0  0  0  0  0  0  0  0  0  0
  145.0731  132.1288  149.7613 C   0  0  0  0  0  0  0  0  0  0  0  0
  146.3124  134.2968  153.2408 C   0  0  0  0  0  0  0  0  0  0  0  0
  146.8700  134.9507  154.5152 C   0  0  0  0  0  0  0  0  0  0  0  0
  148.2100  136.8181  159.5987 N   0  0  0  0  0  0  0  0  0  0  0  0
  147.4937  136.9880  160.7895 O   0  0  0  0  0  0  0  0  0  0  0  0
  147.2375  135.2844  163.4693 H   0  0  0  0  0  0  0  0  0  0  0  0
  145.7085  135.1665  162.5968 H   0  0  0  0  0  0  0  0  0  0  0  0
  146.3631  136.7494  163.0203 H   0  0  0  0  0  0  0  0  0  0  0  0
  148.0374  133.7504  160.8650 H   0  0  0  0  0  0  0  0  0  0  0  0
  148.8092  135.6019  156.2458 H   0  0  0  0  0  0  0  0  0  0  0  0
  147.2920  133.1244  155.5892 H   0  0  0  0  0  0  0  0  0  0  0  0
  149.5684  134.3909  154.0006 H   0  0  0  0  0  0  0  0  0  0  0  0
  149.5901  132.8210  154.7689 H   0  0  0  0  0  0  0  0  0  0  0  0
  149.1421  132.6469  152.3308 H   0  0  0  0  0  0  0  0  0  0  0  0
  147.7992  132.0036  153.2565 H   0  0  0  0  0  0  0  0  0  0  0  0
  146.7683  134.1784  150.3398 H   0  0  0  0  0  0  0  0  0  0  0  0
  147.7073  132.7295  150.5806 H   0  0  0  0  0  0  0  0  0  0  0  0
  144.8478  133.1885  151.6075 H   0  0  0  0  0  0  0  0  0  0  0  0
  146.5158  130.6395  151.6434 H   0  0  0  0  0  0  0  0  0  0  0  0
  144.8416  130.7937  152.1691 H   0  0  0  0  0  0  0  0  0  0  0  0
  146.1163  131.6297  153.0450 H   0  0  0  0  0  0  0  0  0  0  0  0
  145.7907  131.4951  149.2390 H   0  0  0  0  0  0  0  0  0  0  0  0
  144.8644  132.9899  149.1262 H   0  0  0  0  0  0  0  0  0  0  0  0
  144.1442  131.5657  149.8581 H   0  0  0  0  0  0  0  0  0  0  0  0
  145.6581  135.0094  152.7406 H   0  0  0  0  0  0  0  0  0  0  0  0
  145.6969  133.4348  153.5028 H   0  0  0  0  0  0  0  0  0  0  0  0
  146.0460  135.2303  155.1728 H   0  0  0  0  0  0  0  0  0  0  0  0
  147.3831  135.8775  154.2531 H   0  0  0  0  0  0  0  0  0  0  0  0
  147.9576  134.6921  152.1252 H   0  0  0  0  0  0  0  0  0  0  0  0
  1  2  1  0  0  0  0
  1 21  1  0  0  0  0
  1 22  1  0  0  0  0
  1 23  1  0  0  0  0
  2 20  1  0  0  0  0
  2  3  2  0  0  0  0
  3  4  1  0  0  0  0
  3 24  1  0  0  0  0
  4  5  1  0  0  0  0
  4 19  2  0  0  0  0
  5  6  1  0  0  0  0
  6  7  2  0  0  0  0
  6  8  1  0  0  0  0
  8  9  1  0  0  0  0
  8 25  1  0  0  0  0
  9 18  1  0  0  0  0
  9 10  1  0  0  0  0
  9 26  1  0  0  0  0
 10 11  1  0  0  0  0
 10 27  1  0  0  0  0
 10 28  1  0  0  0  0
 11 12  1  0  0  0  0
 11 29  1  0  0  0  0
 11 30  1  0  0  0  0
 12 13  1  0  0  0  0
 12 17  1  0  0  0  0
 12 44  1  0  0  0  0
 13 14  1  0  0  0  0
 13 31  1  0  0  0  0
 13 32  1  0  0  0  0
 14 15  1  0  0  0  0
 14 16  1  0  0  0  0
 14 33  1  0  0  0  0
 15 34  1  0  0  0  0
 15 35  1  0  0  0  0
 15 36  1  0  0  0  0
 16 37  1  0  0  0  0
 16 38  1  0  0  0  0
 16 39  1  0  0  0  0
 17 18  1  0  0  0  0
 17 40  1  0  0  0  0
 17 41  1  0  0  0  0
 18 42  1  0  0  0  0
 18 43  1  0  0  0  0
 19 20  1  0  0  0  0
M  CHG  1   5  -1
M  CHG  1  12   1
M  END
> <s_m_source_file>
AV-unprocessed.smi

> <i_m_source_file_index>
1301

> <i_lp_mmshare_version>
43012

> <i_f3d_flags>
0

> <s_epik_input>
W0NIM11jMVtjSF1jKG5vMSlbTkhdQyg9TylbTkhdW0NIXTJbQ0gyXVtDSDJdTihbQ0gyXVtDSDJdMilbQ0gyXVtDSF0oW0NIM10pW0NIM10=

> <s_epik_cmdline>
J2VwaWtfcHl0aG9uJywgJy1waCcsICc3LjAnLCAnLXRuJywgJzgnLCAnLW1hJywgJzIwMCcsICctbWV0YWxfYmluZGluZycsICctaW1hZScsICc8aW5maWxlLm1hZT4nLCAnLW9tYWUnLCAnPG91dGZpbGUubWFlPic=

> <r_epik_Ionization_Penalty>
6.28597

> <r_epik_Ionization_Penalty_Charging>
6.28587

> <r_epik_Ionization_Penalty_Neutral>
9.69304e-05

> <r_epik_State_Penalty>
6.28524

> <r_epik_Charging_Adjusted_Penalty>
12.5711

> <i_epik_Tot_Q>
0

> <i_epik_Tot_abs_Q>
2

> <r_epik_Metal_State_Penalty>
2.21973

> <b_epik_Metal_Only>
1

> <s_lp_Force_Field>
OPLS_2005

> <r_lp_Energy>
7.73982

> <b_lp_Chiralities_Consistent>
1

> <s_lp_Variant>
AV-unprocessed.smi:1301-3

> <Gold.Version>
5.8.1

> <Gold.Id.Protein>
6NUR|6NUR_protein|mol2

> <Gold.PLP.Fitness>
45.2340

> <Gold.PLP.PLP>
-31.5238

> <Gold.PLP.part.hbond>
-4.0265

> <Gold.PLP.part.metal>
0.0000

> <Gold.PLP.part.buried>
-4.8752

> <Gold.PLP.part.nonpolar>
-23.4773

> <Gold.PLP.part.repulsive>
0.0318

> <Gold.PLP.ligand.clash>
0.0000

> <Gold.PLP.ligand.torsion>
1.7866

> <Gold.PLP.Chemscore.Hbond>
5.7440

> <Gold.PLP.Chemscore.CHOScore>
0.0000

> <Gold.PLP.Chemscore.Metal>
0.0000

> <Gold.Chemscore.Hbonds>
donor molecule, donor type, donor heavy atom, donor atom, acceptor molecule, acceptor atom, score
      L1  H    12    44       P1  7948  2.00
      P1  H  6896  6908       L1     5  1.60
      P1  H  6931  6943       L1    20  0.30
      P1  H  6934  6947       L1    20  0.93

> <Gold.PLP.Chemscore.Internal.Correction>
0.0515

> <Gold.Rescore>
     Score         DG    S(hbond)    S(metal)    S(lipo)     H(rot)  DE(clash)    DE(int)     intcor
     16.44     -18.27       2.55        0.00      67.28       1.41       0.01       1.82       ----

> <Gold.Chemscore.Fitness>
16.4436

> <Gold.Chemscore.DG>
-18.2687

> <Gold.Chemscore.ZeroCoef>
-5.4800

> <Gold.Chemscore.Hbond>
2.5499

> <Gold.Chemscore.Metal>
0.0000

> <Gold.Chemscore.Lipo>
67.2845

> <Gold.Chemscore.Internal_Hbond>
0.0000

> <Gold.Chemscore.DEClash>
0.0089

> <Gold.Chemscore.DEInternal>
1.8162

> <Gold.Chemscore.Rot>
1.4063

> <Gold.Chemscore.Internal.Correction>
   9.000000E+99

> <Gold.Chemscore.Hbonds>
donor molecule, donor type, donor heavy atom, donor atom, acceptor molecule, acceptor atom, score
      L1  H    12    44       P1  7948  0.40
      P1  H  6896  6908       L1     5  0.12
      P1  H  6931  6943       L1    20  0.04
      P1  H  6934  6947       L1    20  0.43

> <Gold.Chemscore.Hbond.Weighted>
-8.5166

> <Gold.Chemscore.Metal.Weighted>
-0.0000

> <Gold.Chemscore.Lipo.Weighted>
-7.8723

> <Gold.Chemscore.Internal_Hbond.Weighted>
0.0000

> <Gold.Chemscore.DEClash.Weighted>
0.0089

> <Gold.Chemscore.DEInternal.Weighted>
1.8162

> <Gold.Chemscore.Rot.Weighted>
3.6002

> <Gold.Chemscore.Internal.Correction.Weighted>
   9.000000E+99

> <Gold.Protein.RotatedTorsions>
[ 6907 6896 6895 6894 ] final  165.02 input  -60.11 | X-H torsion
[ 7974 7965 7964 7962 ] final  104.45 input  175.53 | X-H torsion
[ 8008 7997 7996 7995 ] final  -90.17 input   59.86 | X-H torsion
[ 10167 10162 10161 10158 ] final -176.28 input  -65.29 | X-H torsion
[ 10718 10713 10712 10709 ] final   39.59 input   66.30 | X-H torsion
[ 10763 10752 10751 10750 ] final   49.49 input  -60.55 | X-H torsion
[ 11005 11000 10999 10996 ] final  107.73 input  -57.11 | X-H torsion

> <Gold.Protein.ActiveResidues>
 VAL166  LYS551  ARG553  GLY616  TRP617  ASP618  TYR619  PRO620  LYS621  CYS622 
 ASP623  PHE694  ASN695  SER759  ASP760  ASP761  ALA762  ILE779  LEU786  VAL792 
 PHE793  MET794  SER795  GLU796  ALA797  LYS798  CYS799  TRP800  GLU811  SER814 

> <Gold.Protein.RotatedAtoms>
  151.9009  133.3538  159.3830 H   0  0  0  0  0  0  0  0  0  0  0  0  # atno 6907 bound_to 6896
  150.7080  134.4829  159.5488 H   0  0  0  0  0  0  0  0  0  0  0  0  # atno 6908 bound_to 6896
  152.2417  134.8222  160.0510 H   0  0  0  0  0  0  0  0  0  0  0  0  # atno 6909 bound_to 6896
  145.3327  139.2482  143.3652 H   0  0  0  0  0  0  0  0  0  0  0  0  # atno 7974 bound_to 7965
  154.6953  140.0533  157.0404 H   0  0  0  0  0  0  0  0  0  0  0  0  # atno 8008 bound_to 7997
  155.0760  140.3204  155.4597 H   0  0  0  0  0  0  0  0  0  0  0  0  # atno 8009 bound_to 7997
  156.2742  140.2073  156.5887 H   0  0  0  0  0  0  0  0  0  0  0  0  # atno 8010 bound_to 7997
  139.5538  144.2042  152.1123 H   0  0  0  0  0  0  0  0  0  0  0  0  # atno 10167 bound_to 10162
  157.3724  130.7708  149.7129 H   0  0  0  0  0  0  0  0  0  0  0  0  # atno 10718 bound_to 10713
  152.9787  135.5910  154.4098 H   0  0  0  0  0  0  0  0  0  0  0  0  # atno 10763 bound_to 10752
  154.3734  135.2767  155.2255 H   0  0  0  0  0  0  0  0  0  0  0  0  # atno 10764 bound_to 10752
  154.4200  135.6061  153.6059 H   0  0  0  0  0  0  0  0  0  0  0  0  # atno 10765 bound_to 10752
  139.8833  134.9409  156.5864 H   0  0  0  0  0  0  0  0  0  0  0  0  # atno 11005 bound_to 11000
  146.3039  140.3908  142.8694 LP  0  0  0  0  0  0  0  0  0  0  0  0  # atno 17320 bound_to 7965
  144.8852  140.7452  143.5961 LP  0  0  0  0  0  0  0  0  0  0  0  0  # atno 17321 bound_to 7965
  140.1542  144.5086  150.6670 LP  0  0  0  0  0  0  0  0  0  0  0  0  # atno 17342 bound_to 10162
  140.6806  143.2325  151.5393 LP  0  0  0  0  0  0  0  0  0  0  0  0  # atno 17343 bound_to 10162
  155.9758  130.4084  150.3823 LP  0  0  0  0  0  0  0  0  0  0  0  0  # atno 17370 bound_to 10713
  157.1915  131.0416  151.2697 LP  0  0  0  0  0  0  0  0  0  0  0  0  # atno 17371 bound_to 10713
  140.7988  133.8522  155.8709 LP  0  0  0  0  0  0  0  0  0  0  0  0  # atno 17394 bound_to 11000
  140.9611  134.1654  157.4653 LP  0  0  0  0  0  0  0  0  0  0  0  0  # atno 17395 bound_to 11000

$$$$
