AV-unprocessed.smi:2061|AV-procd|sdf|8373|dock5
  -GOLD-   2272011 43D 1   1.00000     0.00000
 Structure written by MMmdl.
 46 47  0  0  0  0  0  0  0  0  2 V2000
  152.2764  139.8896  158.3670 C   0  0  0  0  0  0  0  0  0  0  0  0
  151.6958  139.4141  157.0792 C   0  0  0  0  0  0  0  0  0  0  0  0
  150.6643  138.5691  156.7800 C   0  0  0  0  0  0  0  0  0  0  0  0
  150.6575  138.5634  155.3599 C   0  0  0  0  0  0  0  0  0  0  0  0
  149.7141  137.7867  154.6405 N   0  0  0  0  0  0  0  0  0  0  0  0
  148.8150  136.9223  155.1399 C   0  0  0  0  0  0  0  0  0  0  0  0
  148.6782  136.6477  156.3327 O   0  0  0  0  0  0  0  0  0  0  0  0
  148.0599  136.3870  154.1696 N   0  0  0  0  0  0  0  0  0  0  0  0
  146.9778  135.4314  154.3887 C   0  0  0  0  0  0  0  0  0  0  0  0
  146.1526  135.1373  153.1058 C   0  0  1  0  0  0  0  0  0  0  0  0
  145.6295  136.4630  152.5009 C   0  0  0  0  0  0  0  0  0  0  0  0
  146.9596  134.3246  152.1334 N   0  3  1  0  0  0  0  0  0  0  0  0
  147.5273  133.0693  152.6994 C   0  0  0  0  0  0  0  0  0  0  0  0
  146.4581  131.9588  152.8154 C   0  0  2  0  0  0  0  0  0  0  0  0
  147.0602  130.6307  153.2876 C   0  0  0  0  0  0  0  0  0  0  0  0
  145.8616  131.7418  151.5405 O   0  0  0  0  0  0  0  0  0  0  0  0
  145.2369  132.9062  151.0102 C   0  0  2  0  0  0  0  0  0  0  0  0
  144.5762  132.5271  149.6807 C   0  0  0  0  0  0  0  0  0  0  0  0
  146.3107  133.9990  150.8342 C   0  0  0  0  0  0  0  0  0  0  0  0
  151.5995  139.3347  154.8388 N   0  0  0  0  0  0  0  0  0  0  0  0
  152.2690  139.8850  155.9383 O   0  0  0  0  0  0  0  0  0  0  0  0
  151.8997  139.3023  159.2046 H   0  0  0  0  0  0  0  0  0  0  0  0
  152.0191  140.9341  158.5438 H   0  0  0  0  0  0  0  0  0  0  0  0
  153.3631  139.8049  158.3575 H   0  0  0  0  0  0  0  0  0  0  0  0
  150.0212  138.0414  157.4687 H   0  0  0  0  0  0  0  0  0  0  0  0
  149.7180  137.9122  153.6391 H   0  0  0  0  0  0  0  0  0  0  0  0
  148.2412  136.6625  153.2152 H   0  0  0  0  0  0  0  0  0  0  0  0
  147.4180  134.5062  154.7620 H   0  0  0  0  0  0  0  0  0  0  0  0
  146.3609  135.8191  155.1977 H   0  0  0  0  0  0  0  0  0  0  0  0
  145.2735  134.5576  153.3843 H   0  0  0  0  0  0  0  0  0  0  0  0
  145.0976  137.0646  153.2377 H   0  0  0  0  0  0  0  0  0  0  0  0
  144.9135  136.2918  151.6976 H   0  0  0  0  0  0  0  0  0  0  0  0
  146.4453  137.0724  152.1106 H   0  0  0  0  0  0  0  0  0  0  0  0
  148.3206  132.7316  152.0306 H   0  0  0  0  0  0  0  0  0  0  0  0
  148.0105  133.2313  153.6601 H   0  0  0  0  0  0  0  0  0  0  0  0
  145.6839  132.2483  153.5264 H   0  0  0  0  0  0  0  0  0  0  0  0
  147.5219  130.7362  154.2695 H   0  0  0  0  0  0  0  0  0  0  0  0
  147.8233  130.2734  152.5957 H   0  0  0  0  0  0  0  0  0  0  0  0
  146.2931  129.8596  153.3632 H   0  0  0  0  0  0  0  0  0  0  0  0
  144.4593  133.2447  151.6966 H   0  0  0  0  0  0  0  0  0  0  0  0
  144.0737  133.3853  149.2338 H   0  0  0  0  0  0  0  0  0  0  0  0
  143.8304  131.7449  149.8255 H   0  0  0  0  0  0  0  0  0  0  0  0
  145.3110  132.1585  148.9643 H   0  0  0  0  0  0  0  0  0  0  0  0
  145.9124  134.8812  150.3360 H   0  0  0  0  0  0  0  0  0  0  0  0
  147.0831  133.6285  150.1583 H   0  0  0  0  0  0  0  0  0  0  0  0
  147.7463  134.9130  151.8989 H   0  0  0  0  0  0  0  0  0  0  0  0
  1  2  1  0  0  0  0
  1 22  1  0  0  0  0
  1 23  1  0  0  0  0
  1 24  1  0  0  0  0
  2 21  1  0  0  0  0
  2  3  2  0  0  0  0
  3  4  1  0  0  0  0
  3 25  1  0  0  0  0
  4  5  1  0  0  0  0
  4 20  2  0  0  0  0
  5  6  1  0  0  0  0
  5 26  1  0  0  0  0
  6  7  2  0  0  0  0
  6  8  1  0  0  0  0
  8  9  1  0  0  0  0
  8 27  1  0  0  0  0
  9 10  1  0  0  0  0
  9 28  1  0  0  0  0
  9 29  1  0  0  0  0
 10 11  1  0  0  0  0
 10 12  1  0  0  0  0
 10 30  1  0  0  0  0
 11 31  1  0  0  0  0
 11 32  1  0  0  0  0
 11 33  1  0  0  0  0
 12 19  1  0  0  0  0
 12 13  1  0  0  0  0
 12 46  1  0  0  0  0
 13 14  1  0  0  0  0
 13 34  1  0  0  0  0
 13 35  1  0  0  0  0
 14 15  1  0  0  0  0
 14 16  1  0  0  0  0
 14 36  1  0  0  0  0
 15 37  1  0  0  0  0
 15 38  1  0  0  0  0
 15 39  1  0  0  0  0
 16 17  1  0  0  0  0
 17 18  1  0  0  0  0
 17 19  1  0  0  0  0
 17 40  1  0  0  0  0
 18 41  1  0  0  0  0
 18 42  1  0  0  0  0
 18 43  1  0  0  0  0
 19 44  1  0  0  0  0
 19 45  1  0  0  0  0
 20 21  1  0  0  0  0
M  CHG  1  12   1
M  END
> <s_m_source_file>
AV-unprocessed.smi

> <i_m_source_file_index>
2061

> <i_lp_mmshare_version>
43012

> <i_f3d_flags>
0

> <s_epik_input>
W0NIM11jMVtjSF1jKG5vMSlbTkhdQyg9TylbTkhdW0NIMl1bQ0BIXShbQ0gzXSlOMltDSDJdW0NAQEhdKFtDSDNdKU9bQ0BASF0oW0NIM10pW0NIMl0y

> <s_epik_cmdline>
J2VwaWtfcHl0aG9uJywgJy1waCcsICc3LjAnLCAnLXRuJywgJzgnLCAnLW1hJywgJzIwMCcsICctbWV0YWxfYmluZGluZycsICctaW1hZScsICc8aW5maWxlLm1hZT4nLCAnLW9tYWUnLCAnPG91dGZpbGUubWFlPic=

> <r_epik_Ionization_Penalty>
0.707076

> <r_epik_Ionization_Penalty_Charging>
0.707039

> <r_epik_Ionization_Penalty_Neutral>
3.6548e-05

> <r_epik_State_Penalty>
0.730276

> <r_epik_Charging_Adjusted_Penalty>
1.43732

> <i_epik_Tot_Q>
1

> <i_epik_Tot_abs_Q>
1

> <r_epik_Metal_State_Penalty>
0.743132

> <b_epik_Metal_Only>
0

> <s_lp_Force_Field>
OPLS_2005

> <r_lp_Energy>
17.8186

> <b_lp_Chiralities_Consistent>
1

> <s_lp_Variant>
AV-unprocessed.smi:2061-14

> <Gold.Version>
5.8.1

> <Gold.Id.Protein>
6NUR|6NUR_protein|mol2

> <Gold.PLP.Fitness>
41.7724

> <Gold.PLP.PLP>
-27.1525

> <Gold.PLP.part.hbond>
-4.1235

> <Gold.PLP.part.metal>
0.0000

> <Gold.PLP.part.buried>
-4.9284

> <Gold.PLP.part.nonpolar>
-18.1540

> <Gold.PLP.part.repulsive>
0.2694

> <Gold.PLP.ligand.clash>
0.0000

> <Gold.PLP.ligand.torsion>
0.0962

> <Gold.PLP.Chemscore.Hbond>
4.9199

> <Gold.PLP.Chemscore.CHOScore>
0.0000

> <Gold.PLP.Chemscore.Metal>
0.0000

> <Gold.Chemscore.Hbonds>
donor molecule, donor type, donor heavy atom, donor atom, acceptor molecule, acceptor atom, score
      L1  H     8    27       P1  7948  0.88
      L1  H    12    46       P1  7948  2.00
      P1  H  7989  7998       L1    20  1.00
      P1  H  7997  8008       L1    21  0.80

> <Gold.PLP.Chemscore.Internal.Correction>
0.0528

> <Gold.Rescore>
     Score         DG    S(hbond)    S(metal)    S(lipo)     H(rot)  DE(clash)    DE(int)     intcor
     17.90     -19.44       3.36        0.00      57.95       1.58       0.04       1.50       ----

> <Gold.Chemscore.Fitness>
17.8965

> <Gold.Chemscore.DG>
-19.4393

> <Gold.Chemscore.ZeroCoef>
-5.4800

> <Gold.Chemscore.Hbond>
3.3630

> <Gold.Chemscore.Metal>
0.0000

> <Gold.Chemscore.Lipo>
57.9511

> <Gold.Chemscore.Internal_Hbond>
0.0000

> <Gold.Chemscore.DEClash>
0.0440

> <Gold.Chemscore.DEInternal>
1.4989

> <Gold.Chemscore.Rot>
1.5834

> <Gold.Chemscore.Internal.Correction>
   9.000000E+99

> <Gold.Chemscore.Hbonds>
donor molecule, donor type, donor heavy atom, donor atom, acceptor molecule, acceptor atom, score
      L1  H     8    27       P1  7948  0.85
      L1  H    12    46       P1  7948  0.60
      P1  H  7989  7998       L1    20  0.32
      P1  H  7997  8008       L1    21  0.64

> <Gold.Chemscore.Hbond.Weighted>
-11.2325

> <Gold.Chemscore.Metal.Weighted>
-0.0000

> <Gold.Chemscore.Lipo.Weighted>
-6.7803

> <Gold.Chemscore.Internal_Hbond.Weighted>
0.0000

> <Gold.Chemscore.DEClash.Weighted>
0.0440

> <Gold.Chemscore.DEInternal.Weighted>
1.4989

> <Gold.Chemscore.Rot.Weighted>
4.0535

> <Gold.Chemscore.Internal.Correction.Weighted>
   9.000000E+99

> <Gold.Protein.RotatedTorsions>
[ 6907 6896 6895 6894 ] final  -88.96 input  -60.11 | X-H torsion
[ 7974 7965 7964 7962 ] final  -89.12 input  175.53 | X-H torsion
[ 8008 7997 7996 7995 ] final  -32.49 input   59.86 | X-H torsion
[ 10167 10162 10161 10158 ] final   96.62 input  -65.29 | X-H torsion
[ 10718 10713 10712 10709 ] final -101.75 input   66.30 | X-H torsion
[ 10763 10752 10751 10750 ] final   52.73 input  -60.55 | X-H torsion
[ 11005 11000 10999 10996 ] final   45.01 input  -57.11 | X-H torsion

> <Gold.Protein.ActiveResidues>
 VAL166  LYS551  ARG553  GLY616  TRP617  ASP618  TYR619  PRO620  LYS621  CYS622 
 ASP623  PHE694  ASN695  SER759  ASP760  ASP761  ALA762  ILE779  LEU786  VAL792 
 PHE793  MET794  SER795  GLU796  ALA797  LYS798  CYS799  TRP800  GLU811  SER814 

> <Gold.Protein.RotatedAtoms>
  150.6871  134.2660  159.4568 H   0  0  0  0  0  0  0  0  0  0  0  0  # atno 6907 bound_to 6896
  152.0586  134.9606  160.0584 H   0  0  0  0  0  0  0  0  0  0  0  0  # atno 6908 bound_to 6896
  152.1042  133.4231  159.4638 H   0  0  0  0  0  0  0  0  0  0  0  0  # atno 6909 bound_to 6896
  145.4441  140.9559  143.2059 H   0  0  0  0  0  0  0  0  0  0  0  0  # atno 7974 bound_to 7965
  154.4178  140.1736  156.1735 H   0  0  0  0  0  0  0  0  0  0  0  0  # atno 8008 bound_to 7997
  155.9740  140.3383  155.6578 H   0  0  0  0  0  0  0  0  0  0  0  0  # atno 8009 bound_to 7997
  155.6587  140.0698  157.2552 H   0  0  0  0  0  0  0  0  0  0  0  0  # atno 8010 bound_to 7997
  139.7877  144.6864  150.9935 H   0  0  0  0  0  0  0  0  0  0  0  0  # atno 10167 bound_to 10162
  156.0205  130.5388  150.7008 H   0  0  0  0  0  0  0  0  0  0  0  0  # atno 10718 bound_to 10713
  152.9790  135.5802  154.4627 H   0  0  0  0  0  0  0  0  0  0  0  0  # atno 10763 bound_to 10752
  154.4200  135.2771  155.1983 H   0  0  0  0  0  0  0  0  0  0  0  0  # atno 10764 bound_to 10752
  154.3736  135.6162  153.5807 H   0  0  0  0  0  0  0  0  0  0  0  0  # atno 10765 bound_to 10752
  140.1499  134.4475  155.8389 H   0  0  0  0  0  0  0  0  0  0  0  0  # atno 11005 bound_to 11000
  144.8103  139.5975  143.7032 LP  0  0  0  0  0  0  0  0  0  0  0  0  # atno 17320 bound_to 7965
  146.2540  139.6262  142.9407 LP  0  0  0  0  0  0  0  0  0  0  0  0  # atno 17321 bound_to 7965
  140.7820  143.4414  151.0546 LP  0  0  0  0  0  0  0  0  0  0  0  0  # atno 17342 bound_to 10162
  139.8092  143.7974  152.3170 LP  0  0  0  0  0  0  0  0  0  0  0  0  # atno 17343 bound_to 10162
  157.4669  131.0889  151.0685 LP  0  0  0  0  0  0  0  0  0  0  0  0  # atno 17370 bound_to 10713
  157.1157  130.6040  149.5492 LP  0  0  0  0  0  0  0  0  0  0  0  0  # atno 17371 bound_to 10713
  141.2197  133.6868  156.7402 LP  0  0  0  0  0  0  0  0  0  0  0  0  # atno 17394 bound_to 11000
  140.2617  134.8461  157.3765 LP  0  0  0  0  0  0  0  0  0  0  0  0  # atno 17395 bound_to 11000

$$$$
