AV-unprocessed.smi:2021|AV-procd|sdf|8176|dock10
  -GOLD-   2272010423D 1   1.00000     0.00000
 Structure written by MMmdl.
 42 43  0  0  0  0  0  0  0  0  2 V2000
  145.8817  131.9975  149.2266 C   0  0  0  0  0  0  0  0  0  0  0  0
  145.2200  131.7792  150.5954 C   0  0  0  0  0  0  0  0  0  0  0  0
  143.7718  132.2966  150.5800 C   0  0  0  0  0  0  0  0  0  0  0  0
  146.0557  132.4404  151.7132 C   0  0  0  0  0  0  0  0  0  0  0  0
  147.2119  131.6090  152.1473 N   0  3  2  0  0  0  0  0  0  0  0  0
  146.8287  130.4625  153.0066 C   0  0  0  0  0  0  0  0  0  0  0  0
  146.5518  130.9189  154.4501 C   0  0  0  0  0  0  0  0  0  0  0  0
  147.6994  131.5848  154.9617 O   0  0  0  0  0  0  0  0  0  0  0  0
  148.0211  132.7608  154.2250 C   0  0  1  0  0  0  0  0  0  0  0  0
  149.2254  133.4411  154.9012 C   0  0  0  0  0  0  0  0  0  0  0  0
  149.4306  134.8013  154.4134 N   0  0  0  0  0  0  0  0  0  0  0  0
  150.0878  135.7626  155.0778 C   0  0  0  0  0  0  0  0  0  0  0  0
  150.5931  135.5909  156.1874 O   0  0  0  0  0  0  0  0  0  0  0  0
  150.1180  136.9098  154.3770 N   0  0  0  0  0  0  0  0  0  0  0  0
  150.7423  138.1369  154.7262 C   0  0  0  0  0  0  0  0  0  0  0  0
  150.2059  139.3418  154.4771 N   0  0  0  0  0  0  0  0  0  0  0  0
  151.0181  140.3752  154.9258 N   0  0  0  0  0  0  0  0  0  0  0  0
  152.1334  139.9100  155.4958 C   0  0  0  0  0  0  0  0  0  0  0  0
  152.3002  138.1635  155.5405 S   0  0  0  0  0  0  0  0  0  0  0  0
  148.3322  132.3658  152.7643 C   0  0  0  0  0  0  0  0  0  0  0  0
  145.9426  133.0578  148.9787 H   0  0  0  0  0  0  0  0  0  0  0  0
  145.3201  131.5023  148.4338 H   0  0  0  0  0  0  0  0  0  0  0  0
  146.8944  131.5932  149.2104 H   0  0  0  0  0  0  0  0  0  0  0  0
  145.1892  130.7024  150.7577 H   0  0  0  0  0  0  0  0  0  0  0  0
  143.7369  133.3732  150.4092 H   0  0  0  0  0  0  0  0  0  0  0  0
  143.2638  132.0919  151.5224 H   0  0  0  0  0  0  0  0  0  0  0  0
  143.1926  131.8172  149.7902 H   0  0  0  0  0  0  0  0  0  0  0  0
  146.4008  133.4248  151.3974 H   0  0  0  0  0  0  0  0  0  0  0  0
  145.3979  132.6166  152.5653 H   0  0  0  0  0  0  0  0  0  0  0  0
  145.9678  129.9371  152.5914 H   0  0  0  0  0  0  0  0  0  0  0  0
  147.6509  129.7458  153.0084 H   0  0  0  0  0  0  0  0  0  0  0  0
  145.6793  131.5721  154.5012 H   0  0  0  0  0  0  0  0  0  0  0  0
  146.3383  130.0557  155.0805 H   0  0  0  0  0  0  0  0  0  0  0  0
  147.1713  133.4438  154.2470 H   0  0  0  0  0  0  0  0  0  0  0  0
  149.0762  133.4809  155.9806 H   0  0  0  0  0  0  0  0  0  0  0  0
  150.1324  132.8572  154.7356 H   0  0  0  0  0  0  0  0  0  0  0  0
  149.0450  135.0237  153.5071 H   0  0  0  0  0  0  0  0  0  0  0  0
  149.6459  136.9037  153.4849 H   0  0  0  0  0  0  0  0  0  0  0  0
  152.8624  140.6005  155.8938 H   0  0  0  0  0  0  0  0  0  0  0  0
  149.2173  131.7284  152.7443 H   0  0  0  0  0  0  0  0  0  0  0  0
  148.5831  133.2462  152.1746 H   0  0  0  0  0  0  0  0  0  0  0  0
  147.5728  131.2036  151.2954 H   0  0  0  0  0  0  0  0  0  0  0  0
  1  2  1  0  0  0  0
  1 21  1  0  0  0  0
  1 22  1  0  0  0  0
  1 23  1  0  0  0  0
  2  3  1  0  0  0  0
  2  4  1  0  0  0  0
  2 24  1  0  0  0  0
  3 25  1  0  0  0  0
  3 26  1  0  0  0  0
  3 27  1  0  0  0  0
  4  5  1  0  0  0  0
  4 28  1  0  0  0  0
  4 29  1  0  0  0  0
  5 20  1  0  0  0  0
  5  6  1  0  0  0  0
  5 42  1  0  0  0  0
  6  7  1  0  0  0  0
  6 30  1  0  0  0  0
  6 31  1  0  0  0  0
  7  8  1  0  0  0  0
  7 32  1  0  0  0  0
  7 33  1  0  0  0  0
  8  9  1  0  0  0  0
  9 10  1  0  0  0  0
  9 20  1  0  0  0  0
  9 34  1  0  0  0  0
 10 11  1  0  0  0  0
 10 35  1  0  0  0  0
 10 36  1  0  0  0  0
 11 12  1  0  0  0  0
 11 37  1  0  0  0  0
 12 13  2  0  0  0  0
 12 14  1  0  0  0  0
 14 15  1  0  0  0  0
 14 38  1  0  0  0  0
 15 19  1  0  0  0  0
 15 16  2  0  0  0  0
 16 17  1  0  0  0  0
 17 18  2  0  0  0  0
 18 19  1  0  0  0  0
 18 39  1  0  0  0  0
 20 40  1  0  0  0  0
 20 41  1  0  0  0  0
M  CHG  1   5   1
M  END
> <s_m_source_file>
AV-unprocessed.smi

> <i_m_source_file_index>
2021

> <i_lp_mmshare_version>
43012

> <i_f3d_flags>
0

> <s_epik_input>
W0NIM11bQ0hdKFtDSDNdKVtDSDJdTjFbQ0gyXVtDSDJdT1tDQEhdKFtDSDJdMSlbQ0gyXVtOSF1DKD1PKVtOSF1jMm5uW2NIXXMy

> <s_epik_cmdline>
J2VwaWtfcHl0aG9uJywgJy1waCcsICc3LjAnLCAnLXRuJywgJzgnLCAnLW1hJywgJzIwMCcsICctbWV0YWxfYmluZGluZycsICctaW1hZScsICc8aW5maWxlLm1hZT4nLCAnLW9tYWUnLCAnPG91dGZpbGUubWFlPic=

> <r_lp_tautomer_probability>
1

> <r_epik_Ionization_Penalty>
0.102019

> <r_epik_Ionization_Penalty_Charging>
0.098413

> <r_epik_Ionization_Penalty_Neutral>
0.00360555

> <r_epik_State_Penalty>
0.0884988

> <r_epik_Charging_Adjusted_Penalty>
0.186912

> <i_epik_Tot_Q>
1

> <i_epik_Tot_abs_Q>
1

> <r_epik_Metal_State_Penalty>
0.454709

> <b_epik_Metal_Only>
0

> <s_lp_Force_Field>
OPLS_2005

> <r_lp_Energy>
18.1157

> <b_lp_Chiralities_Consistent>
1

> <s_lp_Variant>
AV-unprocessed.smi:2021-2

> <Gold.Version>
5.8.1

> <Gold.Id.Protein>
6NUR|6NUR_protein|mol2

> <Gold.PLP.Fitness>
45.1849

> <Gold.PLP.PLP>
-35.1489

> <Gold.PLP.part.hbond>
-4.6118

> <Gold.PLP.part.metal>
0.0000

> <Gold.PLP.part.buried>
-2.6183

> <Gold.PLP.part.nonpolar>
-27.7642

> <Gold.PLP.part.repulsive>
0.3147

> <Gold.PLP.ligand.clash>
0.0000

> <Gold.PLP.ligand.torsion>
0.9642

> <Gold.PLP.Chemscore.Hbond>
3.9600

> <Gold.PLP.Chemscore.CHOScore>
0.0000

> <Gold.PLP.Chemscore.Metal>
0.0000

> <Gold.Chemscore.Hbonds>
donor molecule, donor type, donor heavy atom, donor atom, acceptor molecule, acceptor atom, score
      L1  H     5    42       P1 10747  0.96
      L1  H    11    37       P1  7948  1.00
      L1  H    14    38       P1  7948  1.00
      P1  H  7989  7998       L1    17  0.95

> <Gold.PLP.Chemscore.Internal.Correction>
0.0844

> <Gold.Rescore>
     Score         DG    S(hbond)    S(metal)    S(lipo)     H(rot)  DE(clash)    DE(int)     intcor
     15.92     -17.16       2.23        0.00      77.32       1.88       0.30       0.94       ----

> <Gold.Chemscore.Fitness>
15.9179

> <Gold.Chemscore.DG>
-17.1571

> <Gold.Chemscore.ZeroCoef>
-5.4800

> <Gold.Chemscore.Hbond>
2.2296

> <Gold.Chemscore.Metal>
0.0000

> <Gold.Chemscore.Lipo>
77.3177

> <Gold.Chemscore.Internal_Hbond>
0.0000

> <Gold.Chemscore.DEClash>
0.3003

> <Gold.Chemscore.DEInternal>
0.9389

> <Gold.Chemscore.Rot>
1.8812

> <Gold.Chemscore.Internal.Correction>
   9.000000E+99

> <Gold.Chemscore.Hbonds>
donor molecule, donor type, donor heavy atom, donor atom, acceptor molecule, acceptor atom, score
      L1  H     5    42       P1 10747  0.92
      L1  H    11    37       P1  7948  0.27
      L1  H    14    38       P1  7948  0.69
      P1  H  7989  7998       L1    17  0.05

> <Gold.Chemscore.Hbond.Weighted>
-7.4469

> <Gold.Chemscore.Metal.Weighted>
-0.0000

> <Gold.Chemscore.Lipo.Weighted>
-9.0462

> <Gold.Chemscore.Internal_Hbond.Weighted>
0.0000

> <Gold.Chemscore.DEClash.Weighted>
0.3003

> <Gold.Chemscore.DEInternal.Weighted>
0.9389

> <Gold.Chemscore.Rot.Weighted>
4.8159

> <Gold.Chemscore.Internal.Correction.Weighted>
   9.000000E+99

> <Gold.Protein.RotatedTorsions>
[ 6907 6896 6895 6894 ] final  144.11 input  -60.11 | X-H torsion
[ 7974 7965 7964 7962 ] final -170.53 input  175.53 | X-H torsion
[ 8008 7997 7996 7995 ] final  154.01 input   59.86 | X-H torsion
[ 10167 10162 10161 10158 ] final  -16.58 input  -65.29 | X-H torsion
[ 10718 10713 10712 10709 ] final  -44.49 input   66.30 | X-H torsion
[ 10763 10752 10751 10750 ] final -143.46 input  -60.55 | X-H torsion
[ 11005 11000 10999 10996 ] final   62.03 input  -57.11 | X-H torsion

> <Gold.Protein.ActiveResidues>
 VAL166  LYS551  ARG553  GLY616  TRP617  ASP618  TYR619  PRO620  LYS621  CYS622 
 ASP623  PHE694  ASN695  SER759  ASP760  ASP761  ALA762  ILE779  LEU786  VAL792 
 PHE793  MET794  SER795  GLU796  ALA797  LYS798  CYS799  TRP800  GLU811  SER814 

> <Gold.Protein.RotatedAtoms>
  152.1977  133.4819  159.5041 H   0  0  0  0  0  0  0  0  0  0  0  0  # atno 6907 bound_to 6896
  150.6963  134.1630  159.4192 H   0  0  0  0  0  0  0  0  0  0  0  0  # atno 6908 bound_to 6896
  151.9547  135.0152  160.0595 H   0  0  0  0  0  0  0  0  0  0  0  0  # atno 6909 bound_to 6896
  144.7169  140.2058  143.6333 H   0  0  0  0  0  0  0  0  0  0  0  0  # atno 7974 bound_to 7965
  156.2553  140.1978  156.6579 H   0  0  0  0  0  0  0  0  0  0  0  0  # atno 8008 bound_to 7997
  154.6486  140.0574  156.9955 H   0  0  0  0  0  0  0  0  0  0  0  0  # atno 8009 bound_to 7997
  155.1452  140.3246  155.4446 H   0  0  0  0  0  0  0  0  0  0  0  0  # atno 8010 bound_to 7997
  140.7235  143.5102  150.9759 H   0  0  0  0  0  0  0  0  0  0  0  0  # atno 10167 bound_to 10162
  156.2380  130.4177  149.8794 H   0  0  0  0  0  0  0  0  0  0  0  0  # atno 10718 bound_to 10713
  154.8469  135.3467  154.6191 H   0  0  0  0  0  0  0  0  0  0  0  0  # atno 10763 bound_to 10752
  153.6799  135.6980  153.5125 H   0  0  0  0  0  0  0  0  0  0  0  0  # atno 10764 bound_to 10752
  153.2676  135.4303  155.0912 H   0  0  0  0  0  0  0  0  0  0  0  0  # atno 10765 bound_to 10752
  140.0120  134.6281  155.9766 H   0  0  0  0  0  0  0  0  0  0  0  0  # atno 11005 bound_to 11000
  145.8637  139.2236  143.1702 LP  0  0  0  0  0  0  0  0  0  0  0  0  # atno 17320 bound_to 7965
  146.0150  140.8401  142.9952 LP  0  0  0  0  0  0  0  0  0  0  0  0  # atno 17321 bound_to 7965
  139.8815  143.7066  152.3156 LP  0  0  0  0  0  0  0  0  0  0  0  0  # atno 17342 bound_to 10162
  139.7350  144.7573  151.0742 LP  0  0  0  0  0  0  0  0  0  0  0  0  # atno 17343 bound_to 10162
  156.6386  130.8695  151.3509 LP  0  0  0  0  0  0  0  0  0  0  0  0  # atno 17370 bound_to 10713
  157.7163  130.9501  150.1267 LP  0  0  0  0  0  0  0  0  0  0  0  0  # atno 17371 bound_to 10713
  141.1717  133.6538  156.4678 LP  0  0  0  0  0  0  0  0  0  0  0  0  # atno 17394 bound_to 11000
  140.4537  134.6905  157.5052 LP  0  0  0  0  0  0  0  0  0  0  0  0  # atno 17395 bound_to 11000

$$$$
