AV-unprocessed.smi:104|AV-procd|sdf|1003|dock7
  -GOLD-   2262017593D 1   1.00000     0.00000
 Structure written by MMmdl.
 47 49  0  0  0  0  0  0  0  0  1 V2000
  152.0702  141.2573  159.2610 C   0  0  0  0  0  0  0  0  0  0  0  0
  152.1898  139.8576  158.6729 C   0  0  0  0  0  0  0  0  0  0  0  0
  153.1878  139.5134  158.0408 O   0  0  0  0  0  0  0  0  0  0  0  0
  151.1096  139.0995  158.9302 O   0  0  0  0  0  0  0  0  0  0  0  0
  151.0939  137.7167  158.6009 C   0  0  0  0  0  0  0  0  0  0  0  0
  149.8496  137.0297  159.1917 C   0  0  2  0  0  0  0  0  0  0  0  0
  149.7158  135.7035  158.7113 O   0  0  0  0  0  0  0  0  0  0  0  0
  148.4350  135.2716  159.0380 C   0  0  2  0  0  0  0  0  0  0  0  0
  147.9987  134.2730  158.0186 N   0  0  0  0  0  0  0  0  0  0  0  0
  148.6753  133.7913  156.9211 C   0  0  0  0  0  0  0  0  0  0  0  0
  150.4389  134.3580  156.4778 Br  0  0  0  0  0  0  0  0  0  0  0  0
  148.0616  132.9057  156.1866 N   0  0  0  0  0  0  0  0  0  0  0  0
  146.8435  132.7575  156.8390 C   0  0  0  0  0  0  0  0  0  0  0  0
  145.6913  131.9642  156.6086 C   0  0  0  0  0  0  0  0  0  0  0  0
  145.5826  131.1144  155.5781 N   0  0  0  0  0  0  0  0  0  0  0  0
  144.6517  132.0669  157.4696 N   0  0  0  0  0  0  0  0  0  0  0  0
  144.7345  132.9063  158.5069 C   0  0  0  0  0  0  0  0  0  0  0  0
  145.7428  133.7114  158.8512 N   0  0  0  0  0  0  0  0  0  0  0  0
  146.7910  133.6066  157.9825 C   0  0  0  0  0  0  0  0  0  0  0  0
  147.5124  136.5010  159.0141 C   0  0  1  0  0  0  0  0  0  0  0  0
  146.7754  136.6091  160.2243 O   0  0  0  0  0  0  0  0  0  0  0  0
  147.3970  136.4604  161.4071 C   0  0  0  0  0  0  0  0  0  0  0  0
  146.4741  135.9018  162.4816 C   0  0  0  0  0  0  0  0  0  0  0  0
  148.5719  136.7379  161.6488 O   0  0  0  0  0  0  0  0  0  0  0  0
  148.4883  137.6696  158.8904 C   0  0  2  0  0  0  0  0  0  0  0  0
  148.4433  138.1996  157.5705 O   0  0  0  0  0  0  0  0  0  0  0  0
  147.5248  139.1223  157.2367 C   0  0  0  0  0  0  0  0  0  0  0  0
  147.5263  139.4251  155.7446 C   0  0  0  0  0  0  0  0  0  0  0  0
  146.7466  139.6826  158.0087 O   0  0  0  0  0  0  0  0  0  0  0  0
  151.5824  141.9235  158.5495 H   0  0  0  0  0  0  0  0  0  0  0  0
  153.0574  141.6585  159.4902 H   0  0  0  0  0  0  0  0  0  0  0  0
  151.4837  141.2412  160.1800 H   0  0  0  0  0  0  0  0  0  0  0  0
  151.1916  137.5374  157.5295 H   0  0  0  0  0  0  0  0  0  0  0  0
  151.9812  137.2802  159.0594 H   0  0  0  0  0  0  0  0  0  0  0  0
  149.9708  136.9521  160.2741 H   0  0  0  0  0  0  0  0  0  0  0  0
  148.4476  134.7489  159.9944 H   0  0  0  0  0  0  0  0  0  0  0  0
  146.3450  131.0189  154.9227 H   0  0  0  0  0  0  0  0  0  0  0  0
  144.7409  130.5693  155.4605 H   0  0  0  0  0  0  0  0  0  0  0  0
  143.8704  132.9377  159.1539 H   0  0  0  0  0  0  0  0  0  0  0  0
  146.8454  136.4630  158.1509 H   0  0  0  0  0  0  0  0  0  0  0  0
  145.7031  136.6304  162.7321 H   0  0  0  0  0  0  0  0  0  0  0  0
  147.0365  135.6693  163.3861 H   0  0  0  0  0  0  0  0  0  0  0  0
  145.9907  134.9897  162.1315 H   0  0  0  0  0  0  0  0  0  0  0  0
  148.2781  138.4627  159.6104 H   0  0  0  0  0  0  0  0  0  0  0  0
  148.4721  139.8824  155.4538 H   0  0  0  0  0  0  0  0  0  0  0  0
  146.7175  140.1110  155.4916 H   0  0  0  0  0  0  0  0  0  0  0  0
  147.3934  138.5072  155.1719 H   0  0  0  0  0  0  0  0  0  0  0  0
  1  2  1  0  0  0  0
  1 30  1  0  0  0  0
  1 31  1  0  0  0  0
  1 32  1  0  0  0  0
  2  3  2  0  0  0  0
  2  4  1  0  0  0  0
  4  5  1  0  0  0  0
  5  6  1  0  0  0  0
  5 33  1  0  0  0  0
  5 34  1  0  0  0  0
  6 25  1  0  0  0  0
  6  7  1  0  0  0  0
  6 35  1  0  0  0  0
  7  8  1  0  0  0  0
  8  9  1  0  0  0  0
  8 20  1  0  0  0  0
  8 36  1  0  0  0  0
  9 19  1  0  0  0  0
  9 10  1  0  0  0  0
 10 11  1  0  0  0  0
 10 12  2  0  0  0  0
 12 13  1  0  0  0  0
 13 19  2  0  0  0  0
 13 14  1  0  0  0  0
 14 15  1  0  0  0  0
 14 16  2  0  0  0  0
 15 37  1  0  0  0  0
 15 38  1  0  0  0  0
 16 17  1  0  0  0  0
 17 18  2  0  0  0  0
 17 39  1  0  0  0  0
 18 19  1  0  0  0  0
 20 21  1  0  0  0  0
 20 25  1  0  0  0  0
 20 40  1  0  0  0  0
 21 22  1  0  0  0  0
 22 23  1  0  0  0  0
 22 24  2  0  0  0  0
 23 41  1  0  0  0  0
 23 42  1  0  0  0  0
 23 43  1  0  0  0  0
 25 26  1  0  0  0  0
 25 44  1  0  0  0  0
 26 27  1  0  0  0  0
 27 28  1  0  0  0  0
 27 29  2  0  0  0  0
 28 45  1  0  0  0  0
 28 46  1  0  0  0  0
 28 47  1  0  0  0  0
M  END
> <s_m_source_file>
AV-unprocessed.smi

> <i_m_source_file_index>
104

> <i_lp_mmshare_version>
43012

> <i_f3d_flags>
0

> <s_epik_input>
W0NIM11DKD1PKU9bQ0gyXVtDQEBIXTFPW0NASF0oW0NAQEhdKE9DKD1PKVtDSDNdKVtDQEhdMU9DKD1PKVtDSDNdKW4oYyhCciluMiljKGMyMyluW2NIXW5jM1tOSDJd

> <s_epik_cmdline>
J2VwaWtfcHl0aG9uJywgJy1waCcsICc3LjAnLCAnLXRuJywgJzgnLCAnLW1hJywgJzIwMCcsICctbWV0YWxfYmluZGluZycsICctaW1hZScsICc8aW5maWxlLm1hZT4nLCAnLW9tYWUnLCAnPG91dGZpbGUubWFlPic=

> <r_lp_tautomer_probability>
1

> <r_epik_Ionization_Penalty>
7.36622e-05

> <r_epik_Ionization_Penalty_Charging>
0

> <r_epik_Ionization_Penalty_Neutral>
7.36622e-05

> <r_epik_State_Penalty>
-0

> <r_epik_Charging_Adjusted_Penalty>
0

> <i_epik_Tot_Q>
0

> <i_epik_Tot_abs_Q>
0

> <r_epik_Metal_State_Penalty>
-0

> <b_epik_Metal_Only>
0

> <s_epik_Chemistry_Notes>
This compound has an ester and may undergo hydrolysis at high or low pH. This compound contains an acetal/aminal-like group ( X-CH(R)-Y where X, Y are N, S, or O) that may be acid/base labile, releasing an aldehyde.

> <s_lp_Force_Field>
OPLS_2005

> <r_lp_Energy>
15.0278

> <b_lp_Chiralities_Consistent>
1

> <s_lp_Variant>
AV-unprocessed.smi:104-11

> <Gold.Version>
5.8.1

> <Gold.Id.Protein>
6NUR|6NUR_protein|mol2

> <Gold.PLP.Fitness>
35.5306

> <Gold.PLP.PLP>
-25.0693

> <Gold.PLP.part.hbond>
-5.4222

> <Gold.PLP.part.metal>
0.0000

> <Gold.PLP.part.buried>
-4.3302

> <Gold.PLP.part.nonpolar>
-15.9459

> <Gold.PLP.part.repulsive>
0.1429

> <Gold.PLP.ligand.clash>
0.0000

> <Gold.PLP.ligand.torsion>
0.8337

> <Gold.PLP.Chemscore.Hbond>
4.0000

> <Gold.PLP.Chemscore.CHOScore>
0.0000

> <Gold.PLP.Chemscore.Metal>
0.0000

> <Gold.Chemscore.Hbonds>
donor molecule, donor type, donor heavy atom, donor atom, acceptor molecule, acceptor atom, score
      L1  H    15    38       P1 10956  0.85
      P1  H  6896  6909       L1     7  1.00
      P1  H  6931  6943       L1    24  1.00
      P1  H  7997  8010       L1     3  1.00

> <Gold.PLP.Chemscore.Internal.Correction>
0.1288

> <Gold.Rescore>
     Score         DG    S(hbond)    S(metal)    S(lipo)     H(rot)  DE(clash)    DE(int)     intcor
      4.65     -10.34       3.51        0.00      35.58       4.31       0.00       5.69       ----

> <Gold.Chemscore.Fitness>
4.6468

> <Gold.Chemscore.DG>
-10.3398

> <Gold.Chemscore.ZeroCoef>
-5.4800

> <Gold.Chemscore.Hbond>
3.5100

> <Gold.Chemscore.Metal>
0.0000

> <Gold.Chemscore.Lipo>
35.5753

> <Gold.Chemscore.Internal_Hbond>
0.0000

> <Gold.Chemscore.DEClash>
0.0000

> <Gold.Chemscore.DEInternal>
5.6929

> <Gold.Chemscore.Rot>
4.3070

> <Gold.Chemscore.Internal.Correction>
   9.000000E+99

> <Gold.Chemscore.Hbonds>
donor molecule, donor type, donor heavy atom, donor atom, acceptor molecule, acceptor atom, score
      L1  H    15    38       P1 10956  0.15
      P1  H  6896  6909       L1     7  0.32
      P1  H  6931  6943       L1    24  0.97
      P1  H  7997  8010       L1     3  1.00

> <Gold.Chemscore.Hbond.Weighted>
-11.7233

> <Gold.Chemscore.Metal.Weighted>
-0.0000

> <Gold.Chemscore.Lipo.Weighted>
-4.1623

> <Gold.Chemscore.Internal_Hbond.Weighted>
0.0000

> <Gold.Chemscore.DEClash.Weighted>
0.0000

> <Gold.Chemscore.DEInternal.Weighted>
5.6929

> <Gold.Chemscore.Rot.Weighted>
11.0259

> <Gold.Chemscore.Internal.Correction.Weighted>
   9.000000E+99

> <Gold.Protein.RotatedTorsions>
[ 6907 6896 6895 6894 ] final   51.80 input  -60.11 | X-H torsion
[ 7974 7965 7964 7962 ] final   67.18 input  175.53 | X-H torsion
[ 8008 7997 7996 7995 ] final   45.56 input   59.86 | X-H torsion
[ 10167 10162 10161 10158 ] final  134.61 input  -65.29 | X-H torsion
[ 10718 10713 10712 10709 ] final -154.36 input   66.30 | X-H torsion
[ 10763 10752 10751 10750 ] final  -91.83 input  -60.55 | X-H torsion
[ 11005 11000 10999 10996 ] final  -93.94 input  -57.11 | X-H torsion

> <Gold.Protein.ActiveResidues>
 VAL166  LYS551  ARG553  GLY616  TRP617  ASP618  TYR619  PRO620  LYS621  CYS622 
 ASP623  PHE694  ASN695  SER759  ASP760  ASP761  ALA762  ILE779  LEU786  VAL792 
 PHE793  MET794  SER795  GLU796  ALA797  LYS798  CYS799  TRP800  GLU811  SER814 

> <Gold.Protein.RotatedAtoms>
  152.3165  134.7433  160.0323 H   0  0  0  0  0  0  0  0  0  0  0  0  # atno 6907 bound_to 6896
  151.7896  133.3352  159.3503 H   0  0  0  0  0  0  0  0  0  0  0  0  # atno 6908 bound_to 6896
  150.7347  134.5785  159.5971 H   0  0  0  0  0  0  0  0  0  0  0  0  # atno 6909 bound_to 6896
  145.8177  139.3067  143.1061 H   0  0  0  0  0  0  0  0  0  0  0  0  # atno 7974 bound_to 7965
  155.3379  140.3406  155.4239 H   0  0  0  0  0  0  0  0  0  0  0  0  # atno 8008 bound_to 7997
  156.1828  140.1670  156.8278 H   0  0  0  0  0  0  0  0  0  0  0  0  # atno 8009 bound_to 7997
  154.5352  140.0736  156.8399 H   0  0  0  0  0  0  0  0  0  0  0  0  # atno 8010 bound_to 7997
  139.5249  144.6559  151.5164 H   0  0  0  0  0  0  0  0  0  0  0  0  # atno 10167 bound_to 10162
  156.4982  130.8379  151.2598 H   0  0  0  0  0  0  0  0  0  0  0  0  # atno 10718 bound_to 10713
  154.6800  135.5253  153.8251 H   0  0  0  0  0  0  0  0  0  0  0  0  # atno 10763 bound_to 10752
  153.0558  135.6550  154.0590 H   0  0  0  0  0  0  0  0  0  0  0  0  # atno 10764 bound_to 10752
  154.0478  135.2972  155.3325 H   0  0  0  0  0  0  0  0  0  0  0  0  # atno 10765 bound_to 10752
  141.1484  133.7921  157.0228 H   0  0  0  0  0  0  0  0  0  0  0  0  # atno 11005 bound_to 11000
  145.9708  140.8761  143.0163 LP  0  0  0  0  0  0  0  0  0  0  0  0  # atno 17320 bound_to 7965
  144.6751  140.1943  143.7393 LP  0  0  0  0  0  0  0  0  0  0  0  0  # atno 17321 bound_to 7965
  140.6384  143.8938  150.6668 LP  0  0  0  0  0  0  0  0  0  0  0  0  # atno 17342 bound_to 10162
  140.2265  143.3768  152.1601 LP  0  0  0  0  0  0  0  0  0  0  0  0  # atno 17343 bound_to 10162
  157.7466  130.9990  150.2875 LP  0  0  0  0  0  0  0  0  0  0  0  0  # atno 17370 bound_to 10713
  156.3359  130.3807  149.7451 LP  0  0  0  0  0  0  0  0  0  0  0  0  # atno 17371 bound_to 10713
  140.0804  134.9651  157.1615 LP  0  0  0  0  0  0  0  0  0  0  0  0  # atno 17394 bound_to 11000
  140.3584  134.2521  155.7190 LP  0  0  0  0  0  0  0  0  0  0  0  0  # atno 17395 bound_to 11000

$$$$
