AV-unprocessed.smi:1397|AV-procd|sdf|5679|dock7
  -GOLD-   22720 5303D 1   1.00000     0.00000
 Structure written by MMmdl.
 37 38  0  0  0  0  0  0  0  0  1 V2000
  152.1870  144.6621  161.9637 C   0  0  0  0  0  0  0  0  0  0  0  0
  152.3671  143.2484  161.4061 C   0  0  0  0  0  0  0  0  0  0  0  0
  152.1667  142.2988  162.1634 O   0  0  0  0  0  0  0  0  0  0  0  0
  152.7341  143.0881  160.1116 N   0  0  0  0  0  0  0  0  0  0  0  0
  152.8685  141.7688  159.4820 C   0  0  0  0  0  0  0  0  0  0  0  0
  151.7418  141.5881  158.4488 C   0  0  0  0  0  0  0  0  0  0  0  0
  151.7458  142.7317  157.4091 C   0  0  0  0  0  0  0  0  0  0  0  0
  150.5692  142.6526  156.5482 N   0  0  0  0  0  0  0  0  0  0  0  0
  150.1745  141.5607  155.8765 C   0  0  0  0  0  0  0  0  0  0  0  0
  150.7694  140.4834  155.9229 O   0  0  0  0  0  0  0  0  0  0  0  0
  149.0621  141.8047  155.1614 N   0  0  0  0  0  0  0  0  0  0  0  0
  148.3486  140.9144  154.3146 C   0  0  0  0  0  0  0  0  0  0  0  0
  147.4028  141.5278  153.4621 C   0  0  0  0  0  0  0  0  0  0  0  0
  146.6438  140.7317  152.5824 C   0  0  0  0  0  0  0  0  0  0  0  0
  146.8502  139.3408  152.5781 C   0  0  0  0  0  0  0  0  0  0  0  0
  147.8108  138.8100  153.4588 C   0  0  0  0  0  0  0  0  0  0  0  0
  148.5393  139.5712  154.3025 N   0  0  0  0  0  0  0  0  0  0  0  0
  151.7960  144.1125  158.0966 C   0  0  0  0  0  0  0  0  0  0  0  0
  152.9251  144.1737  159.1411 C   0  0  0  0  0  0  0  0  0  0  0  0
  151.4275  145.2064  161.4017 H   0  0  0  0  0  0  0  0  0  0  0  0
  153.1252  145.2159  161.9227 H   0  0  0  0  0  0  0  0  0  0  0  0
  151.8677  144.6267  163.0059 H   0  0  0  0  0  0  0  0  0  0  0  0
  153.8404  141.7002  158.9911 H   0  0  0  0  0  0  0  0  0  0  0  0
  152.8426  140.9508  160.2031 H   0  0  0  0  0  0  0  0  0  0  0  0
  151.8492  140.6241  157.9498 H   0  0  0  0  0  0  0  0  0  0  0  0
  150.7823  141.5624  158.9679 H   0  0  0  0  0  0  0  0  0  0  0  0
  152.6443  142.6366  156.7961 H   0  0  0  0  0  0  0  0  0  0  0  0
  150.0190  143.4937  156.4540 H   0  0  0  0  0  0  0  0  0  0  0  0
  148.6846  142.7384  155.2242 H   0  0  0  0  0  0  0  0  0  0  0  0
  147.2569  142.5983  153.4781 H   0  0  0  0  0  0  0  0  0  0  0  0
  145.9162  141.1815  151.9228 H   0  0  0  0  0  0  0  0  0  0  0  0
  146.2871  138.6977  151.9180 H   0  0  0  0  0  0  0  0  0  0  0  0
  147.9986  137.7469  153.4882 H   0  0  0  0  0  0  0  0  0  0  0  0
  151.9362  144.8962  157.3512 H   0  0  0  0  0  0  0  0  0  0  0  0
  150.8435  144.3186  158.5878 H   0  0  0  0  0  0  0  0  0  0  0  0
  152.9572  145.1642  159.5920 H   0  0  0  0  0  0  0  0  0  0  0  0
  153.8916  144.0471  158.6511 H   0  0  0  0  0  0  0  0  0  0  0  0
  1  2  1  0  0  0  0
  1 20  1  0  0  0  0
  1 21  1  0  0  0  0
  1 22  1  0  0  0  0
  2  3  2  0  0  0  0
  2  4  1  0  0  0  0
  4 19  1  0  0  0  0
  4  5  1  0  0  0  0
  5  6  1  0  0  0  0
  5 23  1  0  0  0  0
  5 24  1  0  0  0  0
  6  7  1  0  0  0  0
  6 25  1  0  0  0  0
  6 26  1  0  0  0  0
  7  8  1  0  0  0  0
  7 18  1  0  0  0  0
  7 27  1  0  0  0  0
  8  9  1  0  0  0  0
  8 28  1  0  0  0  0
  9 10  2  0  0  0  0
  9 11  1  0  0  0  0
 11 12  1  0  0  0  0
 11 29  1  0  0  0  0
 12 17  1  0  0  0  0
 12 13  2  0  0  0  0
 13 14  1  0  0  0  0
 13 30  1  0  0  0  0
 14 15  2  0  0  0  0
 14 31  1  0  0  0  0
 15 16  1  0  0  0  0
 15 32  1  0  0  0  0
 16 17  2  0  0  0  0
 16 33  1  0  0  0  0
 18 19  1  0  0  0  0
 18 34  1  0  0  0  0
 18 35  1  0  0  0  0
 19 36  1  0  0  0  0
 19 37  1  0  0  0  0
M  END
> <s_m_source_file>
AV-unprocessed.smi

> <i_m_source_file_index>
1397

> <i_lp_mmshare_version>
43012

> <i_f3d_flags>
0

> <s_epik_input>
W0NIM11DKD1PKU4xW0NIMl1bQ0gyXVtDSF0oW0NIMl1bQ0gyXTEpW05IXUMoPU8pW05IXWMyW2NIXVtjSF1bY0hdW2NIXW4y

> <s_epik_cmdline>
J2VwaWtfcHl0aG9uJywgJy1waCcsICc3LjAnLCAnLXRuJywgJzgnLCAnLW1hJywgJzIwMCcsICctbWV0YWxfYmluZGluZycsICctaW1hZScsICc8aW5maWxlLm1hZT4nLCAnLW9tYWUnLCAnPG91dGZpbGUubWFlPic=

> <r_lp_tautomer_probability>
1

> <r_epik_Ionization_Penalty>
4.8787e-05

> <r_epik_Ionization_Penalty_Charging>
0

> <r_epik_Ionization_Penalty_Neutral>
4.8787e-05

> <r_epik_State_Penalty>
-0

> <r_epik_Charging_Adjusted_Penalty>
0

> <i_epik_Tot_Q>
0

> <i_epik_Tot_abs_Q>
0

> <r_epik_Metal_State_Penalty>
-0

> <b_epik_Metal_Only>
0

> <s_lp_Force_Field>
OPLS_2005

> <r_lp_Energy>
25.5882

> <b_lp_Chiralities_Consistent>
1

> <s_lp_Variant>
AV-unprocessed.smi:1397-1

> <Gold.Version>
5.8.1

> <Gold.Id.Protein>
6NUR|6NUR_protein|mol2

> <Gold.PLP.Fitness>
47.5974

> <Gold.PLP.PLP>
-36.9278

> <Gold.PLP.part.hbond>
-2.7484

> <Gold.PLP.part.metal>
0.0000

> <Gold.PLP.part.buried>
-0.6846

> <Gold.PLP.part.nonpolar>
-34.2289

> <Gold.PLP.part.repulsive>
0.4974

> <Gold.PLP.ligand.clash>
0.0000

> <Gold.PLP.ligand.torsion>
0.0885

> <Gold.PLP.Chemscore.Hbond>
2.6175

> <Gold.PLP.Chemscore.CHOScore>
0.9937

> <Gold.PLP.Chemscore.Metal>
0.0000

> <Gold.Chemscore.Hbonds>
donor molecule, donor type, donor heavy atom, donor atom, acceptor molecule, acceptor atom, score
      L1  H     8    28       P1  8028  1.00
      L1  H    11    29       P1  8028  1.00
      P1  H  6933  6945       L1     3  0.62
      L1  C    16    33       P1  7948  1.00

> <Gold.PLP.Chemscore.Internal.Correction>
0.0131

> <Gold.Rescore>
     Score         DG    S(hbond)    S(metal)    S(lipo)     H(rot)  DE(clash)    DE(int)     intcor
     17.55     -22.92       2.53        0.00      98.62       1.00       2.74       2.64       ----

> <Gold.Chemscore.Fitness>
17.5473

> <Gold.Chemscore.DG>
-22.9239

> <Gold.Chemscore.ZeroCoef>
-5.4800

> <Gold.Chemscore.Hbond>
2.5345

> <Gold.Chemscore.Metal>
0.0000

> <Gold.Chemscore.Lipo>
98.6204

> <Gold.Chemscore.Internal_Hbond>
0.0000

> <Gold.Chemscore.DEClash>
2.7354

> <Gold.Chemscore.DEInternal>
2.6412

> <Gold.Chemscore.Rot>
1.0000

> <Gold.Chemscore.Internal.Correction>
   9.000000E+99

> <Gold.Chemscore.Hbonds>
donor molecule, donor type, donor heavy atom, donor atom, acceptor molecule, acceptor atom, score
      L1  H     8    28       P1  8028  0.99
      L1  H    11    29       P1  8028  0.90
      P1  H  6933  6945       L1     3  0.47

> <Gold.Chemscore.Hbond.Weighted>
-8.4654

> <Gold.Chemscore.Metal.Weighted>
-0.0000

> <Gold.Chemscore.Lipo.Weighted>
-11.5386

> <Gold.Chemscore.Internal_Hbond.Weighted>
0.0000

> <Gold.Chemscore.DEClash.Weighted>
2.7354

> <Gold.Chemscore.DEInternal.Weighted>
2.6412

> <Gold.Chemscore.Rot.Weighted>
2.5600

> <Gold.Chemscore.Internal.Correction.Weighted>
   9.000000E+99

> <Gold.Protein.RotatedTorsions>
[ 6907 6896 6895 6894 ] final  -24.43 input  -60.11 | X-H torsion
[ 7974 7965 7964 7962 ] final   65.54 input  175.53 | X-H torsion
[ 8008 7997 7996 7995 ] final  -24.20 input   59.86 | X-H torsion
[ 10167 10162 10161 10158 ] final  149.78 input  -65.29 | X-H torsion
[ 10718 10713 10712 10709 ] final  136.09 input   66.30 | X-H torsion
[ 10763 10752 10751 10750 ] final  -65.21 input  -60.55 | X-H torsion
[ 11005 11000 10999 10996 ] final -145.81 input  -57.11 | X-H torsion

> <Gold.Protein.ActiveResidues>
 VAL166  LYS551  ARG553  GLY616  TRP617  ASP618  TYR619  PRO620  LYS621  CYS622 
 ASP623  PHE694  ASN695  SER759  ASP760  ASP761  ALA762  ILE779  LEU786  VAL792 
 PHE793  MET794  SER795  GLU796  ALA797  LYS798  CYS799  TRP800  GLU811  SER814 

> <Gold.Protein.RotatedAtoms>
  151.1896  135.0397  159.8826 H   0  0  0  0  0  0  0  0  0  0  0  0  # atno 6907 bound_to 6896
  152.5440  134.0971  159.8312 H   0  0  0  0  0  0  0  0  0  0  0  0  # atno 6908 bound_to 6896
  151.1098  133.5134  159.2638 H   0  0  0  0  0  0  0  0  0  0  0  0  # atno 6909 bound_to 6896
  145.8373  139.3174  143.0952 H   0  0  0  0  0  0  0  0  0  0  0  0  # atno 7974 bound_to 7965
  154.4542  140.1960  156.0427 H   0  0  0  0  0  0  0  0  0  0  0  0  # atno 8008 bound_to 7997
  156.0713  140.3284  155.7551 H   0  0  0  0  0  0  0  0  0  0  0  0  # atno 8009 bound_to 7997
  155.5259  140.0574  157.2889 H   0  0  0  0  0  0  0  0  0  0  0  0  # atno 8010 bound_to 7997
  139.4857  144.5574  151.7292 H   0  0  0  0  0  0  0  0  0  0  0  0  # atno 10167 bound_to 10162
  157.4503  131.1065  151.0041 H   0  0  0  0  0  0  0  0  0  0  0  0  # atno 10718 bound_to 10713
  154.3416  135.6155  153.5599 H   0  0  0  0  0  0  0  0  0  0  0  0  # atno 10763 bound_to 10752
  152.9804  135.5771  154.4846 H   0  0  0  0  0  0  0  0  0  0  0  0  # atno 10764 bound_to 10752
  154.4551  135.2854  155.1730 H   0  0  0  0  0  0  0  0  0  0  0  0  # atno 10765 bound_to 10752
  140.7884  134.2997  157.5022 H   0  0  0  0  0  0  0  0  0  0  0  0  # atno 11005 bound_to 11000
  145.9505  140.8912  143.0262 LP  0  0  0  0  0  0  0  0  0  0  0  0  # atno 17320 bound_to 7965
  144.6735  140.1673  143.7417 LP  0  0  0  0  0  0  0  0  0  0  0  0  # atno 17321 bound_to 7965
  140.5138  144.0984  150.6002 LP  0  0  0  0  0  0  0  0  0  0  0  0  # atno 17342 bound_to 10162
  140.3918  143.2748  152.0051 LP  0  0  0  0  0  0  0  0  0  0  0  0  # atno 17343 bound_to 10162
  157.0873  130.5928  149.5432 LP  0  0  0  0  0  0  0  0  0  0  0  0  # atno 17370 bound_to 10713
  155.9984  130.5058  150.7571 LP  0  0  0  0  0  0  0  0  0  0  0  0  # atno 17371 bound_to 10713
  139.8734  134.9360  156.3648 LP  0  0  0  0  0  0  0  0  0  0  0  0  # atno 17394 bound_to 11000
  140.9414  133.7512  156.0151 LP  0  0  0  0  0  0  0  0  0  0  0  0  # atno 17395 bound_to 11000

$$$$
