AV-unprocessed.smi:3202|AV-procd|sdf|12242|dock4
  -GOLD-   2272018 73D 1   1.00000     0.00000
 Structure written by MMmdl.
 43 44  0  0  0  0  0  0  0  0  2 V2000
  146.9845  137.9299  153.9663 C   0  0  0  0  0  0  0  0  0  0  0  0
  148.1531  138.8204  154.2210 C   0  0  0  0  0  0  0  0  0  0  0  0
  148.2775  139.9581  154.9678 C   0  0  0  0  0  0  0  0  0  0  0  0
  149.6413  140.3409  154.8041 C   0  0  0  0  0  0  0  0  0  0  0  0
  150.3445  141.5284  155.4049 C   0  0  0  0  0  0  0  0  0  0  0  0
  150.0543  141.7248  156.9095 C   0  0  1  0  0  0  0  0  0  0  0  0
  150.6572  140.6161  157.7881 C   0  0  0  0  0  0  0  0  0  0  0  0
  150.5796  143.0329  157.3623 N   0  3  0  0  0  0  0  0  0  0  0  0
  150.6781  143.2227  158.8287 C   0  0  2  0  0  0  0  0  0  0  0  0
  149.5866  144.1264  159.4154 C   0  0  0  0  0  0  0  0  0  0  0  0
  150.1740  144.6686  160.7243 C   0  0  0  0  0  0  0  0  0  0  0  0
  151.6693  144.3120  160.7106 C   0  0  0  0  0  0  0  0  0  0  0  0
  152.0068  143.8706  159.2739 C   0  0  0  0  0  0  0  0  0  0  0  0
  153.1683  142.8590  159.2590 C   0  0  0  0  0  0  0  0  0  0  0  0
  152.3867  145.1055  158.4234 C   0  0  0  0  0  0  0  0  0  0  0  0
  150.3090  139.5056  154.0205 N   0  0  0  0  0  0  0  0  0  0  0  0
  149.3920  138.5841  153.6716 N   0  0  0  0  0  0  0  0  0  0  0  0
  149.6219  137.8109  153.0630 H   0  0  0  0  0  0  0  0  0  0  0  0
  146.1757  138.1382  154.6669 H   0  0  0  0  0  0  0  0  0  0  0  0
  147.2623  136.8813  154.0761 H   0  0  0  0  0  0  0  0  0  0  0  0
  146.6010  138.0751  152.9563 H   0  0  0  0  0  0  0  0  0  0  0  0
  147.5070  140.4473  155.5452 H   0  0  0  0  0  0  0  0  0  0  0  0
  151.4208  141.4337  155.2532 H   0  0  0  0  0  0  0  0  0  0  0  0
  150.0515  142.4217  154.8544 H   0  0  0  0  0  0  0  0  0  0  0  0
  148.9738  141.7048  157.0611 H   0  0  0  0  0  0  0  0  0  0  0  0
  150.2108  139.6452  157.5731 H   0  0  0  0  0  0  0  0  0  0  0  0
  150.4843  140.8181  158.8459 H   0  0  0  0  0  0  0  0  0  0  0  0
  151.7338  140.5303  157.6377 H   0  0  0  0  0  0  0  0  0  0  0  0
  151.5180  143.1151  156.9976 H   0  0  0  0  0  0  0  0  0  0  0  0
  150.6019  142.2437  159.3059 H   0  0  0  0  0  0  0  0  0  0  0  0
  149.3783  144.9599  158.7435 H   0  0  0  0  0  0  0  0  0  0  0  0
  148.6495  143.5915  159.5747 H   0  0  0  0  0  0  0  0  0  0  0  0
  150.0282  145.7478  160.7863 H   0  0  0  0  0  0  0  0  0  0  0  0
  149.6838  144.2238  161.5912 H   0  0  0  0  0  0  0  0  0  0  0  0
  152.2928  145.1382  161.0552 H   0  0  0  0  0  0  0  0  0  0  0  0
  151.8346  143.4855  161.4036 H   0  0  0  0  0  0  0  0  0  0  0  0
  154.0830  143.3046  159.6516 H   0  0  0  0  0  0  0  0  0  0  0  0
  153.3787  142.5127  158.2466 H   0  0  0  0  0  0  0  0  0  0  0  0
  152.9459  141.9806  159.8658 H   0  0  0  0  0  0  0  0  0  0  0  0
  153.2757  145.5952  158.8222 H   0  0  0  0  0  0  0  0  0  0  0  0
  151.5918  145.8511  158.4020 H   0  0  0  0  0  0  0  0  0  0  0  0
  152.6103  144.8327  157.3917 H   0  0  0  0  0  0  0  0  0  0  0  0
  150.0212  143.7736  156.9628 H   0  0  0  0  0  0  0  0  0  0  0  0
  1  2  1  0  0  0  0
  1 19  1  0  0  0  0
  1 20  1  0  0  0  0
  1 21  1  0  0  0  0
  2 17  1  0  0  0  0
  2  3  2  0  0  0  0
  3  4  1  0  0  0  0
  3 22  1  0  0  0  0
  4  5  1  0  0  0  0
  4 16  2  0  0  0  0
  5  6  1  0  0  0  0
  5 23  1  0  0  0  0
  5 24  1  0  0  0  0
  6  7  1  0  0  0  0
  6  8  1  0  0  0  0
  6 25  1  0  0  0  0
  7 26  1  0  0  0  0
  7 27  1  0  0  0  0
  7 28  1  0  0  0  0
  8  9  1  0  0  0  0
  8 29  1  0  0  0  0
  8 43  1  0  0  0  0
  9 13  1  0  0  0  0
  9 10  1  0  0  0  0
  9 30  1  0  0  0  0
 10 11  1  0  0  0  0
 10 31  1  0  0  0  0
 10 32  1  0  0  0  0
 11 12  1  0  0  0  0
 11 33  1  0  0  0  0
 11 34  1  0  0  0  0
 12 13  1  0  0  0  0
 12 35  1  0  0  0  0
 12 36  1  0  0  0  0
 13 14  1  0  0  0  0
 13 15  1  0  0  0  0
 14 37  1  0  0  0  0
 14 38  1  0  0  0  0
 14 39  1  0  0  0  0
 15 40  1  0  0  0  0
 15 41  1  0  0  0  0
 15 42  1  0  0  0  0
 16 17  1  0  0  0  0
 17 18  1  0  0  0  0
M  CHG  1   8   1
M  END
> <s_m_source_file>
AV-unprocessed.smi

> <i_m_source_file_index>
3202

> <i_lp_mmshare_version>
43012

> <i_f3d_flags>
0

> <s_epik_input>
W0NIM11jMVtjSF1jKG5bbkhdMSlbQ0gyXVtDQEhdKFtDSDNdKVtOSF1bQ0BASF0oQzIoW0NIM10pW0NIM10pW0NIMl1bQ0gyXVtDSDJdMg==

> <s_epik_cmdline>
J2VwaWtfcHl0aG9uJywgJy1waCcsICc3LjAnLCAnLXRuJywgJzgnLCAnLW1hJywgJzIwMCcsICctbWV0YWxfYmluZGluZycsICctaW1hZScsICc8aW5maWxlLm1hZT4nLCAnLW9tYWUnLCAnPG91dGZpbGUubWFlPic=

> <r_lp_tautomer_probability>
0.5

> <r_epik_Ionization_Penalty>
0.000341671

> <r_epik_Ionization_Penalty_Charging>
0.000281809

> <r_epik_Ionization_Penalty_Neutral>
5.9862e-05

> <r_epik_State_Penalty>
0.41068

> <r_epik_Charging_Adjusted_Penalty>
0.410962

> <i_epik_Tot_Q>
1

> <i_epik_Tot_abs_Q>
1

> <r_epik_Metal_State_Penalty>
0.410672

> <b_epik_Metal_Only>
0

> <s_lp_Force_Field>
OPLS_2005

> <r_lp_Energy>
29.8366

> <b_lp_Chiralities_Consistent>
1

> <s_lp_Variant>
AV-unprocessed.smi:3202-2

> <Gold.Version>
5.8.1

> <Gold.Id.Protein>
6NUR|6NUR_protein|mol2

> <Gold.PLP.Fitness>
42.9288

> <Gold.PLP.PLP>
-33.9425

> <Gold.PLP.part.hbond>
-4.0000

> <Gold.PLP.part.metal>
0.0000

> <Gold.PLP.part.buried>
-4.7516

> <Gold.PLP.part.nonpolar>
-27.0998

> <Gold.PLP.part.repulsive>
1.0438

> <Gold.PLP.ligand.clash>
0.0000

> <Gold.PLP.ligand.torsion>
0.9783

> <Gold.PLP.Chemscore.Hbond>
3.6413

> <Gold.PLP.Chemscore.CHOScore>
0.0000

> <Gold.PLP.Chemscore.Metal>
0.0000

> <Gold.Chemscore.Hbonds>
donor molecule, donor type, donor heavy atom, donor atom, acceptor molecule, acceptor atom, score
      L1  H     8    43       P1  8028  2.00
      L1  H    17    18       P1  7948  0.93
      P1  H  7989  7998       L1    16  0.70

> <Gold.PLP.Chemscore.Internal.Correction>
0.0190

> <Gold.Rescore>
     Score         DG    S(hbond)    S(metal)    S(lipo)     H(rot)  DE(clash)    DE(int)     intcor
     19.34     -20.59       1.76        0.00     110.93       1.46       0.28       0.98       ----

> <Gold.Chemscore.Fitness>
19.3395

> <Gold.Chemscore.DG>
-20.5932

> <Gold.Chemscore.ZeroCoef>
-5.4800

> <Gold.Chemscore.Hbond>
1.7578

> <Gold.Chemscore.Metal>
0.0000

> <Gold.Chemscore.Lipo>
110.9271

> <Gold.Chemscore.Internal_Hbond>
0.0000

> <Gold.Chemscore.DEClash>
0.2770

> <Gold.Chemscore.DEInternal>
0.9766

> <Gold.Chemscore.Rot>
1.4596

> <Gold.Chemscore.Internal.Correction>
   9.000000E+99

> <Gold.Chemscore.Hbonds>
donor molecule, donor type, donor heavy atom, donor atom, acceptor molecule, acceptor atom, score
      L1  H     8    43       P1  8028  0.97
      L1  H    17    18       P1  7948  0.67
      P1  H  7989  7998       L1    16  0.07

> <Gold.Chemscore.Hbond.Weighted>
-5.8712

> <Gold.Chemscore.Metal.Weighted>
-0.0000

> <Gold.Chemscore.Lipo.Weighted>
-12.9785

> <Gold.Chemscore.Internal_Hbond.Weighted>
0.0000

> <Gold.Chemscore.DEClash.Weighted>
0.2770

> <Gold.Chemscore.DEInternal.Weighted>
0.9766

> <Gold.Chemscore.Rot.Weighted>
3.7365

> <Gold.Chemscore.Internal.Correction.Weighted>
   9.000000E+99

> <Gold.Protein.RotatedTorsions>
[ 6907 6896 6895 6894 ] final  105.98 input  -60.11 | X-H torsion
[ 7974 7965 7964 7962 ] final -160.13 input  175.53 | X-H torsion
[ 8008 7997 7996 7995 ] final  178.43 input   59.86 | X-H torsion
[ 10167 10162 10161 10158 ] final   16.26 input  -65.29 | X-H torsion
[ 10718 10713 10712 10709 ] final   49.45 input   66.30 | X-H torsion
[ 10763 10752 10751 10750 ] final  161.03 input  -60.55 | X-H torsion
[ 11005 11000 10999 10996 ] final -145.95 input  -57.11 | X-H torsion

> <Gold.Protein.ActiveResidues>
 VAL166  LYS551  ARG553  GLY616  TRP617  ASP618  TYR619  PRO620  LYS621  CYS622 
 ASP623  PHE694  ASN695  SER759  ASP760  ASP761  ALA762  ILE779  LEU786  VAL792 
 PHE793  MET794  SER795  GLU796  ALA797  LYS798  CYS799  TRP800  GLU811  SER814 

> <Gold.Protein.RotatedAtoms>
  152.5210  133.9448  159.7643 H   0  0  0  0  0  0  0  0  0  0  0  0  # atno 6907 bound_to 6896
  150.9770  133.6276  159.2735 H   0  0  0  0  0  0  0  0  0  0  0  0  # atno 6908 bound_to 6896
  151.3467  135.0881  159.9442 H   0  0  0  0  0  0  0  0  0  0  0  0  # atno 6909 bound_to 6896
  144.7438  140.3585  143.6101 H   0  0  0  0  0  0  0  0  0  0  0  0  # atno 7974 bound_to 7965
  156.0547  140.1333  157.0010 H   0  0  0  0  0  0  0  0  0  0  0  0  # atno 8008 bound_to 7997
  154.4452  140.1003  156.6499 H   0  0  0  0  0  0  0  0  0  0  0  0  # atno 8009 bound_to 7997
  155.5469  140.3462  155.4462 H   0  0  0  0  0  0  0  0  0  0  0  0  # atno 8010 bound_to 7997
  140.5810  143.8981  150.6789 H   0  0  0  0  0  0  0  0  0  0  0  0  # atno 10167 bound_to 10162
  157.4788  130.8302  149.8069 H   0  0  0  0  0  0  0  0  0  0  0  0  # atno 10718 bound_to 10713
  154.2566  135.2770  155.2795 H   0  0  0  0  0  0  0  0  0  0  0  0  # atno 10763 bound_to 10752
  154.5419  135.5700  153.6850 H   0  0  0  0  0  0  0  0  0  0  0  0  # atno 10764 bound_to 10752
  152.9970  135.6253  154.2715 H   0  0  0  0  0  0  0  0  0  0  0  0  # atno 10765 bound_to 10752
  140.7870  134.3013  157.5026 H   0  0  0  0  0  0  0  0  0  0  0  0  # atno 11005 bound_to 11000
  145.7202  139.1707  143.2489 LP  0  0  0  0  0  0  0  0  0  0  0  0  # atno 17320 bound_to 7965
  146.1283  140.7219  142.9424 LP  0  0  0  0  0  0  0  0  0  0  0  0  # atno 17321 bound_to 7965
  140.2480  143.3614  152.1430 LP  0  0  0  0  0  0  0  0  0  0  0  0  # atno 17342 bound_to 10162
  139.5169  144.6985  151.5562 LP  0  0  0  0  0  0  0  0  0  0  0  0  # atno 17343 bound_to 10162
  156.0110  130.3833  150.2263 LP  0  0  0  0  0  0  0  0  0  0  0  0  # atno 17370 bound_to 10713
  157.0449  131.0046  151.3272 LP  0  0  0  0  0  0  0  0  0  0  0  0  # atno 17371 bound_to 10713
  139.8735  134.9352  156.3628 LP  0  0  0  0  0  0  0  0  0  0  0  0  # atno 17394 bound_to 11000
  140.9427  133.7504  156.0167 LP  0  0  0  0  0  0  0  0  0  0  0  0  # atno 17395 bound_to 11000

$$$$
