AV-unprocessed.smi:331|AV-procd|sdf|2350|dock4
  -GOLD-   2262022263D 1   1.00000     0.00000
 Structure written by MMmdl.
 36 37  0  0  0  0  0  0  0  0  1 V2000
  142.1299  136.3350  153.2700 O   0  0  0  0  0  0  0  0  0  0  0  0
  142.5923  137.4468  153.0219 C   0  0  0  0  0  0  0  0  0  0  0  0
  143.7392  137.6387  152.3497 N   0  0  0  0  0  0  0  0  0  0  0  0
  144.6441  136.5809  151.9136 C   0  0  0  0  0  0  0  0  0  0  0  0
  143.9785  135.6298  150.9008 C   0  0  0  0  0  0  0  0  0  0  0  0
  144.6837  134.2888  150.7869 C   0  0  0  0  0  0  0  0  0  0  0  0
  145.8839  134.0379  151.4844 C   0  0  0  0  0  0  0  0  0  0  0  0
  146.5087  132.7857  151.3307 C   0  0  0  0  0  0  0  0  0  0  0  0
  145.9033  131.8336  150.4864 C   0  0  0  0  0  0  0  0  0  0  0  0
  144.7539  132.0619  149.8152 N   0  0  0  0  0  0  0  0  0  0  0  0
  144.1615  133.2659  149.9674 C   0  0  0  0  0  0  0  0  0  0  0  0
  141.9733  138.5772  153.4058 N   0  0  0  0  0  0  0  0  0  0  0  0
  140.7167  138.7060  154.1481 C   0  0  0  0  0  0  0  0  0  0  0  0
  139.7310  137.5921  153.7472 C   0  0  0  0  0  0  0  0  0  0  0  0
  138.3875  138.2822  153.5077 C   0  0  0  0  0  0  0  0  0  0  0  0
  138.7646  139.6768  153.0191 C   0  0  0  0  0  0  0  0  0  0  0  0
  140.0040  140.0386  153.8385 C   0  0  0  0  0  0  0  0  0  0  0  0
  144.0335  138.5890  152.1773 H   0  0  0  0  0  0  0  0  0  0  0  0
  145.5590  137.0049  151.4971 H   0  0  0  0  0  0  0  0  0  0  0  0
  144.9410  136.0192  152.7997 H   0  0  0  0  0  0  0  0  0  0  0  0
  142.9389  135.4592  151.1839 H   0  0  0  0  0  0  0  0  0  0  0  0
  143.9495  136.1007  149.9176 H   0  0  0  0  0  0  0  0  0  0  0  0
  146.3236  134.7937  152.1189 H   0  0  0  0  0  0  0  0  0  0  0  0
  147.4303  132.5603  151.8467 H   0  0  0  0  0  0  0  0  0  0  0  0
  146.3555  130.8629  150.3454 H   0  0  0  0  0  0  0  0  0  0  0  0
  143.2469  133.4196  149.4137 H   0  0  0  0  0  0  0  0  0  0  0  0
  142.3854  139.4436  153.0904 H   0  0  0  0  0  0  0  0  0  0  0  0
  140.9090  138.6348  155.2205 H   0  0  0  0  0  0  0  0  0  0  0  0
  140.0500  137.1107  152.8207 H   0  0  0  0  0  0  0  0  0  0  0  0
  139.6598  136.8123  154.5064 H   0  0  0  0  0  0  0  0  0  0  0  0
  137.7591  137.7429  152.7983 H   0  0  0  0  0  0  0  0  0  0  0  0
  137.8399  138.3583  154.4481 H   0  0  0  0  0  0  0  0  0  0  0  0
  139.0225  139.6373  151.9599 H   0  0  0  0  0  0  0  0  0  0  0  0
  137.9558  140.3983  153.1393 H   0  0  0  0  0  0  0  0  0  0  0  0
  139.6928  140.5031  154.7751 H   0  0  0  0  0  0  0  0  0  0  0  0
  140.6363  140.7602  153.3192 H   0  0  0  0  0  0  0  0  0  0  0  0
  1  2  2  0  0  0  0
  2  3  1  0  0  0  0
  2 12  1  0  0  0  0
  3  4  1  0  0  0  0
  3 18  1  0  0  0  0
  4  5  1  0  0  0  0
  4 19  1  0  0  0  0
  4 20  1  0  0  0  0
  5  6  1  0  0  0  0
  5 21  1  0  0  0  0
  5 22  1  0  0  0  0
  6 11  1  0  0  0  0
  6  7  2  0  0  0  0
  7  8  1  0  0  0  0
  7 23  1  0  0  0  0
  8  9  2  0  0  0  0
  8 24  1  0  0  0  0
  9 10  1  0  0  0  0
  9 25  1  0  0  0  0
 10 11  2  0  0  0  0
 11 26  1  0  0  0  0
 12 13  1  0  0  0  0
 12 27  1  0  0  0  0
 13 17  1  0  0  0  0
 13 14  1  0  0  0  0
 13 28  1  0  0  0  0
 14 15  1  0  0  0  0
 14 29  1  0  0  0  0
 14 30  1  0  0  0  0
 15 16  1  0  0  0  0
 15 31  1  0  0  0  0
 15 32  1  0  0  0  0
 16 17  1  0  0  0  0
 16 33  1  0  0  0  0
 16 34  1  0  0  0  0
 17 35  1  0  0  0  0
 17 36  1  0  0  0  0
M  END
> <s_m_source_file>
AV-unprocessed.smi

> <i_m_source_file_index>
331

> <i_lp_mmshare_version>
43012

> <i_f3d_flags>
0

> <s_epik_input>
W0NIMl0xW0NIMl1bQ0gyXVtDSDJdW0NIXTFbTkhdQyg9TylbTkhdW0NIMl1bQ0gyXWMyW2NIXVtjSF1bY0hdbltjSF0y

> <s_epik_cmdline>
J2VwaWtfcHl0aG9uJywgJy1waCcsICc3LjAnLCAnLXRuJywgJzgnLCAnLW1hJywgJzIwMCcsICctbWV0YWxfYmluZGluZycsICctaW1hZScsICc8aW5maWxlLm1hZT4nLCAnLW9tYWUnLCAnPG91dGZpbGUubWFlPic=

> <r_epik_Ionization_Penalty>
0.0144384

> <r_epik_Ionization_Penalty_Charging>
0

> <r_epik_Ionization_Penalty_Neutral>
0.0144384

> <r_epik_State_Penalty>
0.0112394

> <r_epik_Charging_Adjusted_Penalty>
0.0112394

> <i_epik_Tot_Q>
0

> <i_epik_Tot_abs_Q>
0

> <r_epik_Metal_State_Penalty>
0.0109726

> <b_epik_Metal_Only>
0

> <s_lp_Force_Field>
OPLS_2005

> <r_lp_Energy>
25.692

> <b_lp_Chiralities_Consistent>
1

> <s_lp_Variant>
AV-unprocessed.smi:331-1

> <Gold.Version>
5.8.1

> <Gold.Id.Protein>
6NUR|6NUR_protein|mol2

> <Gold.PLP.Fitness>
43.0294

> <Gold.PLP.PLP>
-32.9021

> <Gold.PLP.part.hbond>
-3.0327

> <Gold.PLP.part.metal>
0.0000

> <Gold.PLP.part.buried>
-3.3213

> <Gold.PLP.part.nonpolar>
-26.5192

> <Gold.PLP.part.repulsive>
0.3236

> <Gold.PLP.ligand.clash>
0.0000

> <Gold.PLP.ligand.torsion>
0.4706

> <Gold.PLP.Chemscore.Hbond>
2.0000

> <Gold.PLP.Chemscore.CHOScore>
1.6841

> <Gold.PLP.Chemscore.Metal>
0.0000

> <Gold.Chemscore.Hbonds>
donor molecule, donor type, donor heavy atom, donor atom, acceptor molecule, acceptor atom, score
      L1  H     3    18       P1 10175  0.91
      L1  H    12    27       P1 10175  1.00
      L1  C     9    25       P1 10747  0.57
      L1  C    11    26       P1 10186  1.00

> <Gold.PLP.Chemscore.Internal.Correction>
0.0161

> <Gold.Rescore>
     Score         DG    S(hbond)    S(metal)    S(lipo)     H(rot)  DE(clash)    DE(int)     intcor
     16.60     -17.74       1.93        0.00      82.78       1.51       0.20       0.94       ----

> <Gold.Chemscore.Fitness>
16.6021

> <Gold.Chemscore.DG>
-17.7432

> <Gold.Chemscore.ZeroCoef>
-5.4800

> <Gold.Chemscore.Hbond>
1.9263

> <Gold.Chemscore.Metal>
0.0000

> <Gold.Chemscore.Lipo>
82.7754

> <Gold.Chemscore.Internal_Hbond>
0.0000

> <Gold.Chemscore.DEClash>
0.1976

> <Gold.Chemscore.DEInternal>
0.9434

> <Gold.Chemscore.Rot>
1.5060

> <Gold.Chemscore.Internal.Correction>
   9.000000E+99

> <Gold.Chemscore.Hbonds>
donor molecule, donor type, donor heavy atom, donor atom, acceptor molecule, acceptor atom, score
      L1  H     3    18       P1 10175  0.89
      L1  H    12    27       P1 10175  0.97

> <Gold.Chemscore.Hbond.Weighted>
-6.4338

> <Gold.Chemscore.Metal.Weighted>
-0.0000

> <Gold.Chemscore.Lipo.Weighted>
-9.6847

> <Gold.Chemscore.Internal_Hbond.Weighted>
0.0000

> <Gold.Chemscore.DEClash.Weighted>
0.1976

> <Gold.Chemscore.DEInternal.Weighted>
0.9434

> <Gold.Chemscore.Rot.Weighted>
3.8553

> <Gold.Chemscore.Internal.Correction.Weighted>
   9.000000E+99

> <Gold.Protein.RotatedTorsions>
[ 6907 6896 6895 6894 ] final -112.02 input  -60.11 | X-H torsion
[ 7974 7965 7964 7962 ] final  -31.38 input  175.53 | X-H torsion
[ 8008 7997 7996 7995 ] final    0.03 input   59.86 | X-H torsion
[ 10167 10162 10161 10158 ] final  105.33 input  -65.29 | X-H torsion
[ 10718 10713 10712 10709 ] final  117.67 input   66.30 | X-H torsion
[ 10763 10752 10751 10750 ] final -130.39 input  -60.55 | X-H torsion
[ 11005 11000 10999 10996 ] final -157.59 input  -57.11 | X-H torsion

> <Gold.Protein.ActiveResidues>
 VAL166  LYS551  ARG553  GLY616  TRP617  ASP618  TYR619  PRO620  LYS621  CYS622 
 ASP623  PHE694  ASN695  SER759  ASP760  ASP761  ALA762  ILE779  LEU786  VAL792 
 PHE793  MET794  SER795  GLU796  ALA797  LYS798  CYS799  TRP800  GLU811  SER814 

> <Gold.Protein.RotatedAtoms>
  150.7729  133.9151  159.3380 H   0  0  0  0  0  0  0  0  0  0  0  0  # atno 6907 bound_to 6896
  151.7033  135.0924  160.0264 H   0  0  0  0  0  0  0  0  0  0  0  0  # atno 6908 bound_to 6896
  152.3754  133.6436  159.6155 H   0  0  0  0  0  0  0  0  0  0  0  0  # atno 6909 bound_to 6896
  146.1072  140.5659  142.8794 H   0  0  0  0  0  0  0  0  0  0  0  0  # atno 7974 bound_to 7965
  154.6634  140.2595  155.7085 H   0  0  0  0  0  0  0  0  0  0  0  0  # atno 8008 bound_to 7997
  156.2628  140.2844  156.1036 H   0  0  0  0  0  0  0  0  0  0  0  0  # atno 8009 bound_to 7997
  155.1275  140.0378  157.2756 H   0  0  0  0  0  0  0  0  0  0  0  0  # atno 8010 bound_to 7997
  139.7102  144.7079  151.1040 H   0  0  0  0  0  0  0  0  0  0  0  0  # atno 10167 bound_to 10162
  157.6081  131.1040  150.7647 H   0  0  0  0  0  0  0  0  0  0  0  0  # atno 10718 bound_to 10713
  154.8755  135.3864  154.4075 H   0  0  0  0  0  0  0  0  0  0  0  0  # atno 10763 bound_to 10752
  153.4792  135.7030  153.5953 H   0  0  0  0  0  0  0  0  0  0  0  0  # atno 10764 bound_to 10752
  153.4376  135.3864  155.2176 H   0  0  0  0  0  0  0  0  0  0  0  0  # atno 10765 bound_to 10752
  140.6629  134.4330  157.5234 H   0  0  0  0  0  0  0  0  0  0  0  0  # atno 11005 bound_to 11000
  144.7481  140.5120  143.6821 LP  0  0  0  0  0  0  0  0  0  0  0  0  # atno 17320 bound_to 7965
  145.5737  139.1485  143.3274 LP  0  0  0  0  0  0  0  0  0  0  0  0  # atno 17321 bound_to 7965
  140.7731  143.5304  150.9430 LP  0  0  0  0  0  0  0  0  0  0  0  0  # atno 17342 bound_to 10162
  139.8988  143.6861  152.3134 LP  0  0  0  0  0  0  0  0  0  0  0  0  # atno 17343 bound_to 10162
  156.8030  130.4927  149.5367 LP  0  0  0  0  0  0  0  0  0  0  0  0  # atno 17370 bound_to 10713
  156.1175  130.6085  151.0142 LP  0  0  0  0  0  0  0  0  0  0  0  0  # atno 17371 bound_to 10713
  139.9007  134.8563  156.1909 LP  0  0  0  0  0  0  0  0  0  0  0  0  # atno 17394 bound_to 11000
  141.0451  133.6917  156.1669 LP  0  0  0  0  0  0  0  0  0  0  0  0  # atno 17395 bound_to 11000

$$$$
