AV-unprocessed.smi:3056|AV-procd|sdf|11651|dock9
  -GOLD-   2272017 53D 1   1.00000     0.00000
 Structure written by MMmdl.
 48 49  0  0  0  0  0  0  0  0  2 V2000
  151.1214  142.5892  157.0960 C   0  0  0  0  0  0  0  0  0  0  0  0
  150.6210  141.5269  156.1600 C   0  0  0  0  0  0  0  0  0  0  0  0
  151.2474  140.2947  155.8210 C   0  0  0  0  0  0  0  0  0  0  0  0
  150.5389  139.5783  154.9641 N   0  0  0  0  0  0  0  0  0  0  0  0
  149.4423  140.3259  154.7138 N   0  0  0  0  0  0  0  0  0  0  0  0
  148.4174  139.8195  153.8057 C   0  0  2  0  0  0  0  0  0  0  0  0
  147.3433  140.8860  153.5268 C   0  0  0  0  0  0  0  0  0  0  0  0
  147.8396  138.4489  154.2524 C   0  0  1  0  0  0  0  0  0  0  0  0
  146.9762  138.5599  155.5197 C   0  0  0  0  0  0  0  0  0  0  0  0
  147.0446  137.8097  153.1793 N   0  3  0  0  0  0  0  0  0  0  0  0
  146.2095  136.6665  153.6078 C   0  0  0  0  0  0  0  0  0  0  0  0
  145.3190  136.1349  152.4753 C   0  0  0  0  0  0  0  0  0  0  0  0
  144.3177  136.7783  152.1562 O   0  0  0  0  0  0  0  0  0  0  0  0
  145.6628  134.9786  151.8595 N   0  0  0  0  0  0  0  0  0  0  0  0
  146.8035  134.1233  152.2017 C   0  0  0  0  0  0  0  0  0  0  0  0
  146.2597  132.7741  152.7032 C   0  0  0  0  0  0  0  0  0  0  0  0
  145.4317  132.1885  151.7012 O   0  0  0  0  0  0  0  0  0  0  0  0
  144.3266  133.0087  151.3240 C   0  0  2  0  0  0  0  0  0  0  0  0
  143.5118  132.2584  150.2652 C   0  0  0  0  0  0  0  0  0  0  0  0
  144.8571  134.3598  150.8034 C   0  0  0  0  0  0  0  0  0  0  0  0
  149.4661  141.5067  155.4312 C   0  0  0  0  0  0  0  0  0  0  0  0
  151.9053  142.2135  157.7539 H   0  0  0  0  0  0  0  0  0  0  0  0
  150.3248  142.9727  157.7336 H   0  0  0  0  0  0  0  0  0  0  0  0
  151.5373  143.4384  156.5535 H   0  0  0  0  0  0  0  0  0  0  0  0
  152.1895  139.9007  156.1730 H   0  0  0  0  0  0  0  0  0  0  0  0
  148.9073  139.6457  152.8456 H   0  0  0  0  0  0  0  0  0  0  0  0
  146.6095  140.5241  152.8062 H   0  0  0  0  0  0  0  0  0  0  0  0
  147.7921  141.7883  153.1102 H   0  0  0  0  0  0  0  0  0  0  0  0
  146.8080  141.1751  154.4311 H   0  0  0  0  0  0  0  0  0  0  0  0
  148.6768  137.7952  154.5035 H   0  0  0  0  0  0  0  0  0  0  0  0
  147.5319  139.0276  156.3329 H   0  0  0  0  0  0  0  0  0  0  0  0
  146.6602  137.5749  155.8647 H   0  0  0  0  0  0  0  0  0  0  0  0
  146.0766  139.1516  155.3483 H   0  0  0  0  0  0  0  0  0  0  0  0
  146.4262  138.5051  152.7864 H   0  0  0  0  0  0  0  0  0  0  0  0
  146.8498  135.8586  153.9616 H   0  0  0  0  0  0  0  0  0  0  0  0
  145.5840  136.9891  154.4412 H   0  0  0  0  0  0  0  0  0  0  0  0
  147.4164  133.9709  151.3121 H   0  0  0  0  0  0  0  0  0  0  0  0
  147.4696  134.5501  152.9493 H   0  0  0  0  0  0  0  0  0  0  0  0
  147.0822  132.0931  152.9221 H   0  0  0  0  0  0  0  0  0  0  0  0
  145.6943  132.9010  153.6277 H   0  0  0  0  0  0  0  0  0  0  0  0
  143.6935  133.1748  152.1977 H   0  0  0  0  0  0  0  0  0  0  0  0
  142.6430  132.8391  149.9542 H   0  0  0  0  0  0  0  0  0  0  0  0
  143.1521  131.3050  150.6532 H   0  0  0  0  0  0  0  0  0  0  0  0
  144.1119  132.0520  149.3786 H   0  0  0  0  0  0  0  0  0  0  0  0
  144.0242  134.9876  150.4837 H   0  0  0  0  0  0  0  0  0  0  0  0
  145.4775  134.2092  149.9186 H   0  0  0  0  0  0  0  0  0  0  0  0
  148.6682  142.2319  155.3668 H   0  0  0  0  0  0  0  0  0  0  0  0
  147.6743  137.5030  152.4517 H   0  0  0  0  0  0  0  0  0  0  0  0
  1  2  1  0  0  0  0
  1 22  1  0  0  0  0
  1 23  1  0  0  0  0
  1 24  1  0  0  0  0
  2 21  2  0  0  0  0
  2  3  1  0  0  0  0
  3  4  2  0  0  0  0
  3 25  1  0  0  0  0
  4  5  1  0  0  0  0
  5  6  1  0  0  0  0
  5 21  1  0  0  0  0
  6  7  1  0  0  0  0
  6  8  1  0  0  0  0
  6 26  1  0  0  0  0
  7 27  1  0  0  0  0
  7 28  1  0  0  0  0
  7 29  1  0  0  0  0
  8  9  1  0  0  0  0
  8 10  1  0  0  0  0
  8 30  1  0  0  0  0
  9 31  1  0  0  0  0
  9 32  1  0  0  0  0
  9 33  1  0  0  0  0
 10 11  1  0  0  0  0
 10 34  1  0  0  0  0
 10 48  1  0  0  0  0
 11 12  1  0  0  0  0
 11 35  1  0  0  0  0
 11 36  1  0  0  0  0
 12 13  2  0  0  0  0
 12 14  1  0  0  0  0
 14 20  1  0  0  0  0
 14 15  1  0  0  0  0
 15 16  1  0  0  0  0
 15 37  1  0  0  0  0
 15 38  1  0  0  0  0
 16 17  1  0  0  0  0
 16 39  1  0  0  0  0
 16 40  1  0  0  0  0
 17 18  1  0  0  0  0
 18 19  1  0  0  0  0
 18 20  1  0  0  0  0
 18 41  1  0  0  0  0
 19 42  1  0  0  0  0
 19 43  1  0  0  0  0
 19 44  1  0  0  0  0
 20 45  1  0  0  0  0
 20 46  1  0  0  0  0
 21 47  1  0  0  0  0
M  CHG  1  10   1
M  END
> <s_m_source_file>
AV-unprocessed.smi

> <i_m_source_file_index>
3056

> <i_lp_mmshare_version>
43012

> <i_f3d_flags>
0

> <s_epik_input>
W0NIM11jMVtjSF1ubihbY0hdMSlbQ0BIXShbQ0gzXSlbQ0BIXShbQ0gzXSlbTkhdW0NIMl1DKD1PKU4yW0NIMl1bQ0gyXU9bQ0BASF0oW0NIM10pW0NIMl0y

> <s_epik_cmdline>
J2VwaWtfcHl0aG9uJywgJy1waCcsICc3LjAnLCAnLXRuJywgJzgnLCAnLW1hJywgJzIwMCcsICctbWV0YWxfYmluZGluZycsICctaW1hZScsICc8aW5maWxlLm1hZT4nLCAnLW9tYWUnLCAnPG91dGZpbGUubWFlPic=

> <r_lp_tautomer_probability>
1

> <r_epik_Ionization_Penalty>
0.233715

> <r_epik_Ionization_Penalty_Charging>
0.233698

> <r_epik_Ionization_Penalty_Neutral>
1.68157e-05

> <r_epik_State_Penalty>
0.225221

> <r_epik_Charging_Adjusted_Penalty>
0.458919

> <i_epik_Tot_Q>
1

> <i_epik_Tot_abs_Q>
1

> <r_epik_Metal_State_Penalty>
0.225535

> <b_epik_Metal_Only>
0

> <s_lp_Force_Field>
OPLS_2005

> <r_lp_Energy>
29.3518

> <b_lp_Chiralities_Consistent>
1

> <s_lp_Variant>
AV-unprocessed.smi:3056-7

> <Gold.Version>
5.8.1

> <Gold.Id.Protein>
6NUR|6NUR_protein|mol2

> <Gold.PLP.Fitness>
41.3342

> <Gold.PLP.PLP>
-33.1447

> <Gold.PLP.part.hbond>
-1.2760

> <Gold.PLP.part.metal>
0.0000

> <Gold.PLP.part.buried>
-2.7059

> <Gold.PLP.part.nonpolar>
-31.4841

> <Gold.PLP.part.repulsive>
1.3584

> <Gold.PLP.ligand.clash>
0.0000

> <Gold.PLP.ligand.torsion>
0.4729

> <Gold.PLP.Chemscore.Hbond>
2.0141

> <Gold.PLP.Chemscore.CHOScore>
0.9773

> <Gold.PLP.Chemscore.Metal>
0.0000

> <Gold.Chemscore.Hbonds>
donor molecule, donor type, donor heavy atom, donor atom, acceptor molecule, acceptor atom, score
      L1  H    10    48       P1  7948  1.95
      P1  H  7989  7998       L1     4  0.02
      L1  C    21    47       P1  8028  0.94

> <Gold.PLP.Chemscore.Internal.Correction>
0.1611

> <Gold.Rescore>
     Score         DG    S(hbond)    S(metal)    S(lipo)     H(rot)  DE(clash)    DE(int)     intcor
     13.02     -13.50       0.98        0.00      78.52       1.74       0.12       0.36       ----

> <Gold.Chemscore.Fitness>
13.0209

> <Gold.Chemscore.DG>
-13.5035

> <Gold.Chemscore.ZeroCoef>
-5.4800

> <Gold.Chemscore.Hbond>
0.9817

> <Gold.Chemscore.Metal>
0.0000

> <Gold.Chemscore.Lipo>
78.5240

> <Gold.Chemscore.Internal_Hbond>
0.0000

> <Gold.Chemscore.DEClash>
0.1213

> <Gold.Chemscore.DEInternal>
0.3613

> <Gold.Chemscore.Rot>
1.7354

> <Gold.Chemscore.Internal.Correction>
   9.000000E+99

> <Gold.Chemscore.Hbonds>
donor molecule, donor type, donor heavy atom, donor atom, acceptor molecule, acceptor atom, score
      L1  H    10    48       P1  7948  0.93

> <Gold.Chemscore.Hbond.Weighted>
-3.2788

> <Gold.Chemscore.Metal.Weighted>
-0.0000

> <Gold.Chemscore.Lipo.Weighted>
-9.1873

> <Gold.Chemscore.Internal_Hbond.Weighted>
0.0000

> <Gold.Chemscore.DEClash.Weighted>
0.1213

> <Gold.Chemscore.DEInternal.Weighted>
0.3613

> <Gold.Chemscore.Rot.Weighted>
4.4426

> <Gold.Chemscore.Internal.Correction.Weighted>
   9.000000E+99

> <Gold.Protein.RotatedTorsions>
[ 6907 6896 6895 6894 ] final   56.80 input  -60.11 | X-H torsion
[ 7974 7965 7964 7962 ] final   86.67 input  175.53 | X-H torsion
[ 8008 7997 7996 7995 ] final -131.93 input   59.86 | X-H torsion
[ 10167 10162 10161 10158 ] final   40.51 input  -65.29 | X-H torsion
[ 10718 10713 10712 10709 ] final  -65.13 input   66.30 | X-H torsion
[ 10763 10752 10751 10750 ] final  -37.57 input  -60.55 | X-H torsion
[ 11005 11000 10999 10996 ] final  161.71 input  -57.11 | X-H torsion

> <Gold.Protein.ActiveResidues>
 VAL166  LYS551  ARG553  GLY616  TRP617  ASP618  TYR619  PRO620  LYS621  CYS622 
 ASP623  PHE694  ASN695  SER759  ASP760  ASP761  ALA762  ILE779  LEU786  VAL792 
 PHE793  MET794  SER795  GLU796  ALA797  LYS798  CYS799  TRP800  GLU811  SER814 

> <Gold.Protein.RotatedAtoms>
  152.3671  134.6788  160.0188 H   0  0  0  0  0  0  0  0  0  0  0  0  # atno 6907 bound_to 6896
  151.7093  133.3306  159.3294 H   0  0  0  0  0  0  0  0  0  0  0  0  # atno 6908 bound_to 6896
  150.7646  134.6481  159.6318 H   0  0  0  0  0  0  0  0  0  0  0  0  # atno 6909 bound_to 6896
  145.5692  139.2312  143.2415 H   0  0  0  0  0  0  0  0  0  0  0  0  # atno 7974 bound_to 7965
  155.3205  140.0462  157.3039 H   0  0  0  0  0  0  0  0  0  0  0  0  # atno 8008 bound_to 7997
  154.5383  140.2279  155.8651 H   0  0  0  0  0  0  0  0  0  0  0  0  # atno 8009 bound_to 7997
  156.1856  140.3063  155.9238 H   0  0  0  0  0  0  0  0  0  0  0  0  # atno 8010 bound_to 7997
  140.3735  144.2074  150.6132 H   0  0  0  0  0  0  0  0  0  0  0  0  # atno 10167 bound_to 10162
  156.0687  130.4243  150.1520 H   0  0  0  0  0  0  0  0  0  0  0  0  # atno 10718 bound_to 10713
  153.8984  135.6805  153.4756 H   0  0  0  0  0  0  0  0  0  0  0  0  # atno 10763 bound_to 10752
  153.1142  135.4769  154.9085 H   0  0  0  0  0  0  0  0  0  0  0  0  # atno 10764 bound_to 10752
  154.7587  135.3204  154.8374 H   0  0  0  0  0  0  0  0  0  0  0  0  # atno 10765 bound_to 10752
  140.2185  134.8214  157.3195 H   0  0  0  0  0  0  0  0  0  0  0  0  # atno 11005 bound_to 11000
  146.1796  140.6518  142.9195 LP  0  0  0  0  0  0  0  0  0  0  0  0  # atno 17320 bound_to 7965
  144.7446  140.5033  143.6845 LP  0  0  0  0  0  0  0  0  0  0  0  0  # atno 17321 bound_to 7965
  140.5009  143.2318  151.8679 LP  0  0  0  0  0  0  0  0  0  0  0  0  # atno 17342 bound_to 10162
  139.4801  144.5060  151.8997 LP  0  0  0  0  0  0  0  0  0  0  0  0  # atno 17343 bound_to 10162
  156.9575  130.9794  151.3486 LP  0  0  0  0  0  0  0  0  0  0  0  0  # atno 17370 bound_to 10713
  157.5745  130.8334  149.8437 LP  0  0  0  0  0  0  0  0  0  0  0  0  # atno 17371 bound_to 10713
  140.1875  134.4413  155.7735 LP  0  0  0  0  0  0  0  0  0  0  0  0  # atno 17394 bound_to 11000
  141.2224  133.7011  156.7971 LP  0  0  0  0  0  0  0  0  0  0  0  0  # atno 17395 bound_to 11000

$$$$
