AV-unprocessed.smi:3306|AV-procd|sdf|12701|dock4
  -GOLD-   2272019 33D 1   1.00000     0.00000
 Structure written by MMmdl.
 45 46  0  0  0  0  0  0  0  0  3 V2000
  144.8136  132.1297  151.6821 C   0  0  0  0  0  0  0  0  0  0  0  0
  143.8296  133.0288  150.9153 C   0  0  0  0  0  0  0  0  0  0  0  0
  143.7134  132.6132  149.4358 C   0  0  0  0  0  0  0  0  0  0  0  0
  144.1559  134.4728  151.1057 N   0  3  2  0  0  0  0  0  0  0  0  0
  145.5559  134.8154  150.7405 C   0  0  0  0  0  0  0  0  0  0  0  0
  145.7618  136.3400  150.7227 C   0  0  0  0  0  0  0  0  0  0  0  0
  145.3968  136.9700  152.0772 C   0  0  1  0  0  0  0  0  0  0  0  0
  145.5697  138.4396  152.0184 N   0  3  0  0  0  0  0  0  0  0  0  0
  146.9632  138.9153  152.1448 C   0  0  0  0  0  0  0  0  0  0  0  0
  147.0457  140.1378  153.0691 C   0  0  0  0  0  0  0  0  0  0  0  0
  148.3541  140.1893  153.8348 C   0  0  0  0  0  0  0  0  0  0  0  0
  149.2225  139.0773  153.8569 C   0  0  0  0  0  0  0  0  0  0  0  0
  150.4249  139.1803  154.5836 C   0  0  0  0  0  0  0  0  0  0  0  0
  150.7117  140.3856  155.2531 C   0  0  0  0  0  0  0  0  0  0  0  0
  149.7798  141.4390  155.1664 C   0  0  0  0  0  0  0  0  0  0  0  0
  148.6235  141.3501  154.4734 N   0  0  0  0  0  0  0  0  0  0  0  0
  143.9537  136.5704  152.4436 C   0  0  0  0  0  0  0  0  0  0  0  0
  143.7799  135.0411  152.4295 C   0  0  0  0  0  0  0  0  0  0  0  0
  144.4879  131.0893  151.6563 H   0  0  0  0  0  0  0  0  0  0  0  0
  144.8822  132.4234  152.7301 H   0  0  0  0  0  0  0  0  0  0  0  0
  145.8168  132.1632  151.2577 H   0  0  0  0  0  0  0  0  0  0  0  0
  142.8550  132.8604  151.3757 H   0  0  0  0  0  0  0  0  0  0  0  0
  143.3658  131.5828  149.3534 H   0  0  0  0  0  0  0  0  0  0  0  0
  144.6723  132.6688  148.9202 H   0  0  0  0  0  0  0  0  0  0  0  0
  143.0024  133.2359  148.8935 H   0  0  0  0  0  0  0  0  0  0  0  0
  146.2484  134.3548  151.4461 H   0  0  0  0  0  0  0  0  0  0  0  0
  145.7933  134.4131  149.7550 H   0  0  0  0  0  0  0  0  0  0  0  0
  146.7993  136.5658  150.4730 H   0  0  0  0  0  0  0  0  0  0  0  0
  145.1514  136.7782  149.9312 H   0  0  0  0  0  0  0  0  0  0  0  0
  146.0815  136.5755  152.8302 H   0  0  0  0  0  0  0  0  0  0  0  0
  145.2319  138.7506  151.1185 H   0  0  0  0  0  0  0  0  0  0  0  0
  147.5930  138.1168  152.5371 H   0  0  0  0  0  0  0  0  0  0  0  0
  147.3450  139.1735  151.1560 H   0  0  0  0  0  0  0  0  0  0  0  0
  146.9430  141.0556  152.4881 H   0  0  0  0  0  0  0  0  0  0  0  0
  146.2156  140.1278  153.7770 H   0  0  0  0  0  0  0  0  0  0  0  0
  148.9765  138.1652  153.3332 H   0  0  0  0  0  0  0  0  0  0  0  0
  151.1142  138.3501  154.6269 H   0  0  0  0  0  0  0  0  0  0  0  0
  151.6238  140.4998  155.8200 H   0  0  0  0  0  0  0  0  0  0  0  0
  149.9683  142.3779  155.6658 H   0  0  0  0  0  0  0  0  0  0  0  0
  143.6892  136.9467  153.4319 H   0  0  0  0  0  0  0  0  0  0  0  0
  143.2515  137.0237  151.7423 H   0  0  0  0  0  0  0  0  0  0  0  0
  142.7442  134.7999  152.6660 H   0  0  0  0  0  0  0  0  0  0  0  0
  144.3962  134.6002  153.2143 H   0  0  0  0  0  0  0  0  0  0  0  0
  143.5833  134.9541  150.4270 H   0  0  0  0  0  0  0  0  0  0  0  0
  145.0046  138.8706  152.7363 H   0  0  0  0  0  0  0  0  0  0  0  0
  1  2  1  0  0  0  0
  1 19  1  0  0  0  0
  1 20  1  0  0  0  0
  1 21  1  0  0  0  0
  2  3  1  0  0  0  0
  2  4  1  0  0  0  0
  2 22  1  0  0  0  0
  3 23  1  0  0  0  0
  3 24  1  0  0  0  0
  3 25  1  0  0  0  0
  4 18  1  0  0  0  0
  4  5  1  0  0  0  0
  4 44  1  0  0  0  0
  5  6  1  0  0  0  0
  5 26  1  0  0  0  0
  5 27  1  0  0  0  0
  6  7  1  0  0  0  0
  6 28  1  0  0  0  0
  6 29  1  0  0  0  0
  7  8  1  0  0  0  0
  7 17  1  0  0  0  0
  7 30  1  0  0  0  0
  8  9  1  0  0  0  0
  8 31  1  0  0  0  0
  8 45  1  0  0  0  0
  9 10  1  0  0  0  0
  9 32  1  0  0  0  0
  9 33  1  0  0  0  0
 10 11  1  0  0  0  0
 10 34  1  0  0  0  0
 10 35  1  0  0  0  0
 11 16  1  0  0  0  0
 11 12  2  0  0  0  0
 12 13  1  0  0  0  0
 12 36  1  0  0  0  0
 13 14  2  0  0  0  0
 13 37  1  0  0  0  0
 14 15  1  0  0  0  0
 14 38  1  0  0  0  0
 15 16  2  0  0  0  0
 15 39  1  0  0  0  0
 17 18  1  0  0  0  0
 17 40  1  0  0  0  0
 17 41  1  0  0  0  0
 18 42  1  0  0  0  0
 18 43  1  0  0  0  0
M  CHG  1   4   1
M  CHG  1   8   1
M  END
> <s_m_source_file>
AV-unprocessed.smi

> <i_m_source_file_index>
3306

> <i_lp_mmshare_version>
43012

> <i_f3d_flags>
0

> <s_epik_input>
W0NIM11bQ0hdKFtDSDNdKU4xW0NIMl1bQ0gyXVtDSF0oW0NIMl1bQ0gyXTEpW05IXVtDSDJdW0NIMl1jMltjSF1bY0hdW2NIXVtjSF1uMg==

> <s_epik_cmdline>
J2VwaWtfcHl0aG9uJywgJy1waCcsICc3LjAnLCAnLXRuJywgJzgnLCAnLW1hJywgJzIwMCcsICctbWV0YWxfYmluZGluZycsICctaW1hZScsICc8aW5maWxlLm1hZT4nLCAnLW9tYWUnLCAnPG91dGZpbGUubWFlPic=

> <r_epik_Ionization_Penalty>
0.0800465

> <r_epik_Ionization_Penalty_Charging>
0.0790817

> <r_epik_Ionization_Penalty_Neutral>
0.000964829

> <r_epik_State_Penalty>
0.0665964

> <r_epik_Charging_Adjusted_Penalty>
0.145678

> <i_epik_Tot_Q>
2

> <i_epik_Tot_abs_Q>
2

> <r_epik_Metal_State_Penalty>
0.0683331

> <b_epik_Metal_Only>
0

> <s_lp_Force_Field>
OPLS_2005

> <r_lp_Energy>
27.4923

> <b_lp_Chiralities_Consistent>
1

> <s_lp_Variant>
AV-unprocessed.smi:3306-1

> <Gold.Version>
5.8.1

> <Gold.Id.Protein>
6NUR|6NUR_protein|mol2

> <Gold.PLP.Fitness>
45.8016

> <Gold.PLP.PLP>
-38.4785

> <Gold.PLP.part.hbond>
-2.0000

> <Gold.PLP.part.metal>
0.0000

> <Gold.PLP.part.buried>
1.2740

> <Gold.PLP.part.nonpolar>
-37.2797

> <Gold.PLP.part.repulsive>
0.1736

> <Gold.PLP.ligand.clash>
0.0000

> <Gold.PLP.ligand.torsion>
1.0382

> <Gold.PLP.Chemscore.Hbond>
2.0808

> <Gold.PLP.Chemscore.CHOScore>
1.0000

> <Gold.PLP.Chemscore.Metal>
0.0000

> <Gold.Chemscore.Hbonds>
donor molecule, donor type, donor heavy atom, donor atom, acceptor molecule, acceptor atom, score
      L1  H     8    31       P1 10171  0.94
      L1  H     8    45       P1 10175  0.88
      L1  C    15    39       P1  8028  0.88

> <Gold.PLP.Chemscore.Internal.Correction>
0.1571

> <Gold.Rescore>
     Score         DG    S(hbond)    S(metal)    S(lipo)     H(rot)  DE(clash)    DE(int)     intcor
     16.50     -18.23       1.20        0.00     106.94       1.47       0.64       1.09       ----

> <Gold.Chemscore.Fitness>
16.4982

> <Gold.Chemscore.DG>
-18.2285

> <Gold.Chemscore.ZeroCoef>
-5.4800

> <Gold.Chemscore.Hbond>
1.1960

> <Gold.Chemscore.Metal>
0.0000

> <Gold.Chemscore.Lipo>
106.9385

> <Gold.Chemscore.Internal_Hbond>
0.0000

> <Gold.Chemscore.DEClash>
0.6401

> <Gold.Chemscore.DEInternal>
1.0903

> <Gold.Chemscore.Rot>
1.4679

> <Gold.Chemscore.Internal.Correction>
   9.000000E+99

> <Gold.Chemscore.Hbonds>
donor molecule, donor type, donor heavy atom, donor atom, acceptor molecule, acceptor atom, score
      L1  H     8    31       P1 10171  0.91
      L1  H     8    45       P1 10175  0.44

> <Gold.Chemscore.Hbond.Weighted>
-3.9946

> <Gold.Chemscore.Metal.Weighted>
-0.0000

> <Gold.Chemscore.Lipo.Weighted>
-12.5118

> <Gold.Chemscore.Internal_Hbond.Weighted>
0.0000

> <Gold.Chemscore.DEClash.Weighted>
0.6401

> <Gold.Chemscore.DEInternal.Weighted>
1.0903

> <Gold.Chemscore.Rot.Weighted>
3.7579

> <Gold.Chemscore.Internal.Correction.Weighted>
   9.000000E+99

> <Gold.Protein.RotatedTorsions>
[ 6907 6896 6895 6894 ] final   82.68 input  -60.11 | X-H torsion
[ 7974 7965 7964 7962 ] final   82.59 input  175.53 | X-H torsion
[ 8008 7997 7996 7995 ] final  -14.23 input   59.86 | X-H torsion
[ 10167 10162 10161 10158 ] final  146.70 input  -65.29 | X-H torsion
[ 10718 10713 10712 10709 ] final  -69.25 input   66.30 | X-H torsion
[ 10763 10752 10751 10750 ] final    6.48 input  -60.55 | X-H torsion
[ 11005 11000 10999 10996 ] final  -29.26 input  -57.11 | X-H torsion

> <Gold.Protein.ActiveResidues>
 VAL166  LYS551  ARG553  GLY616  TRP617  ASP618  TYR619  PRO620  LYS621  CYS622 
 ASP623  PHE694  ASN695  SER759  ASP760  ASP761  ALA762  ILE779  LEU786  VAL792 
 PHE793  MET794  SER795  GLU796  ALA797  LYS798  CYS799  TRP800  GLU811  SER814 

> <Gold.Protein.RotatedAtoms>
  152.5306  134.3013  159.9079 H   0  0  0  0  0  0  0  0  0  0  0  0  # atno 6907 bound_to 6896
  151.2964  133.4136  159.2644 H   0  0  0  0  0  0  0  0  0  0  0  0  # atno 6908 bound_to 6896
  151.0157  134.9447  159.8089 H   0  0  0  0  0  0  0  0  0  0  0  0  # atno 6909 bound_to 6896
  145.6231  139.2389  143.2127 H   0  0  0  0  0  0  0  0  0  0  0  0  # atno 7974 bound_to 7965
  154.5227  140.2228  155.8946 H   0  0  0  0  0  0  0  0  0  0  0  0  # atno 8008 bound_to 7997
  156.1679  140.3128  155.8887 H   0  0  0  0  0  0  0  0  0  0  0  0  # atno 8009 bound_to 7997
  155.3618  140.0461  157.3037 H   0  0  0  0  0  0  0  0  0  0  0  0  # atno 8010 bound_to 7997
  139.4902  144.5810  151.6872 H   0  0  0  0  0  0  0  0  0  0  0  0  # atno 10167 bound_to 10162
  156.0465  130.4309  150.2120 H   0  0  0  0  0  0  0  0  0  0  0  0  # atno 10718 bound_to 10713
  153.2472  135.6910  153.7718 H   0  0  0  0  0  0  0  0  0  0  0  0  # atno 10763 bound_to 10752
  153.6826  135.3326  155.3183 H   0  0  0  0  0  0  0  0  0  0  0  0  # atno 10764 bound_to 10752
  154.8379  135.4526  154.1416 H   0  0  0  0  0  0  0  0  0  0  0  0  # atno 10765 bound_to 10752
  140.9280  133.7356  156.0896 H   0  0  0  0  0  0  0  0  0  0  0  0  # atno 11005 bound_to 11000
  146.1416  140.7050  142.9364 LP  0  0  0  0  0  0  0  0  0  0  0  0  # atno 17320 bound_to 7965
  144.7223  140.4414  143.6999 LP  0  0  0  0  0  0  0  0  0  0  0  0  # atno 17321 bound_to 7965
  140.5416  144.0570  150.6090 LP  0  0  0  0  0  0  0  0  0  0  0  0  # atno 17342 bound_to 10162
  140.3594  143.2917  152.0400 LP  0  0  0  0  0  0  0  0  0  0  0  0  # atno 17343 bound_to 10162
  157.0209  130.9979  151.3340 LP  0  0  0  0  0  0  0  0  0  0  0  0  # atno 17370 bound_to 10713
  157.5345  130.8080  149.7956 LP  0  0  0  0  0  0  0  0  0  0  0  0  # atno 17371 bound_to 10713
  140.7900  134.3628  157.5467 LP  0  0  0  0  0  0  0  0  0  0  0  0  # atno 17394 bound_to 11000
  139.8790  134.9134  156.3083 LP  0  0  0  0  0  0  0  0  0  0  0  0  # atno 17395 bound_to 11000

$$$$
