AV-unprocessed.smi:213|AV-procd|sdf|1637|dock7
  -GOLD-   2262020 03D 1   1.00000     0.00000
 Structure written by MMmdl.
 59 62  0  0  0  0  0  0  0  0  2 V2000
  147.4875  132.4136  155.4696 C   0  0  0  0  0  0  0  0  0  0  0  0
  148.1871  133.3896  154.5097 C   0  0  2  0  0  0  0  0  0  0  0  0
  148.8404  132.6404  153.3226 C   0  0  0  0  0  0  0  0  0  0  0  0
  147.8513  132.1440  152.3323 N   0  3  0  0  0  0  0  0  0  0  0  0
  147.0207  131.0315  152.8465 C   0  0  0  0  0  0  0  0  0  0  0  0
  146.0995  130.5046  151.7333 C   0  0  0  0  0  0  0  0  0  0  0  0
  145.2902  131.5661  151.2412 O   0  0  0  0  0  0  0  0  0  0  0  0
  146.0689  132.6142  150.6769 C   0  0  0  0  0  0  0  0  0  0  0  0
  146.9941  133.2070  151.7527 C   0  0  0  0  0  0  0  0  0  0  0  0
  149.1355  134.2588  155.2229 N   0  0  0  0  0  0  0  0  0  0  0  0
  150.5360  133.8539  155.3401 C   0  0  0  0  0  0  0  0  0  0  0  0
  148.8861  135.5943  155.1737 C   0  0  0  0  0  0  0  0  0  0  0  0
  147.6063  136.0279  155.0162 N   0  0  0  0  0  0  0  0  0  0  0  0
  147.3302  137.3348  155.0184 C   0  0  0  0  0  0  0  0  0  0  0  0
  148.1668  138.3623  155.1672 N   0  0  0  0  0  0  0  0  0  0  0  0
  149.4548  137.9381  155.3068 C   0  0  0  0  0  0  0  0  0  0  0  0
  149.8979  136.5850  155.3231 C   0  0  0  0  0  0  0  0  0  0  0  0
  151.2768  136.5418  155.4909 N   0  0  0  0  0  0  0  0  0  0  0  0
  151.6282  137.7954  155.5738 C   0  0  0  0  0  0  0  0  0  0  0  0
  150.5984  138.7023  155.4624 N   0  0  0  0  0  0  0  0  0  0  0  0
  150.7144  140.1510  155.5160 C   0  0  0  0  0  0  0  0  0  0  0  0
  150.1193  140.7931  156.7907 C   0  0  2  0  0  0  0  0  0  0  0  0
  148.8910  141.4157  156.4720 O   0  0  0  0  0  0  0  0  0  0  0  0
  151.0674  141.7784  157.5184 C   0  0  1  0  0  0  0  0  0  0  0  0
  151.3033  143.1642  156.8972 C   0  0  0  0  0  0  0  0  0  0  0  0
  151.6412  144.0409  158.0952 C   0  0  0  0  0  0  0  0  0  0  0  0
  151.3455  143.1606  159.3127 C   0  0  0  0  0  0  0  0  0  0  0  0
  150.5674  142.0845  158.8099 O   0  0  0  0  0  0  0  0  0  0  0  0
  146.7059  131.8559  154.9532 H   0  0  0  0  0  0  0  0  0  0  0  0
  147.0159  132.9482  156.2949 H   0  0  0  0  0  0  0  0  0  0  0  0
  148.1796  131.6852  155.8917 H   0  0  0  0  0  0  0  0  0  0  0  0
  147.3881  134.0033  154.0992 H   0  0  0  0  0  0  0  0  0  0  0  0
  149.5357  133.3175  152.8249 H   0  0  0  0  0  0  0  0  0  0  0  0
  149.4409  131.8036  153.6825 H   0  0  0  0  0  0  0  0  0  0  0  0
  147.6605  130.2237  153.2040 H   0  0  0  0  0  0  0  0  0  0  0  0
  146.4289  131.3759  153.6961 H   0  0  0  0  0  0  0  0  0  0  0  0
  146.6825  130.0685  150.9202 H   0  0  0  0  0  0  0  0  0  0  0  0
  145.4530  129.7172  152.1212 H   0  0  0  0  0  0  0  0  0  0  0  0
  146.6454  132.2405  149.8293 H   0  0  0  0  0  0  0  0  0  0  0  0
  145.4001  133.3838  150.2914 H   0  0  0  0  0  0  0  0  0  0  0  0
  146.4009  133.6719  152.5416 H   0  0  0  0  0  0  0  0  0  0  0  0
  147.6033  133.9921  151.3067 H   0  0  0  0  0  0  0  0  0  0  0  0
  151.0604  134.4761  156.0666 H   0  0  0  0  0  0  0  0  0  0  0  0
  151.0488  133.9407  154.3817 H   0  0  0  0  0  0  0  0  0  0  0  0
  150.6221  132.8224  155.6790 H   0  0  0  0  0  0  0  0  0  0  0  0
  146.2895  137.5946  154.8904 H   0  0  0  0  0  0  0  0  0  0  0  0
  152.6574  138.0955  155.7076 H   0  0  0  0  0  0  0  0  0  0  0  0
  151.7659  140.4202  155.4071 H   0  0  0  0  0  0  0  0  0  0  0  0
  150.2077  140.5578  154.6399 H   0  0  0  0  0  0  0  0  0  0  0  0
  149.8875  139.9772  157.4763 H   0  0  0  0  0  0  0  0  0  0  0  0
  148.3728  141.4723  157.2605 H   0  0  0  0  0  0  0  0  0  0  0  0
  152.0310  141.2878  157.6712 H   0  0  0  0  0  0  0  0  0  0  0  0
  152.0991  143.1612  156.1533 H   0  0  0  0  0  0  0  0  0  0  0  0
  150.4068  143.5548  156.4165 H   0  0  0  0  0  0  0  0  0  0  0  0
  152.6848  144.3574  158.0867 H   0  0  0  0  0  0  0  0  0  0  0  0
  151.0206  144.9378  158.0981 H   0  0  0  0  0  0  0  0  0  0  0  0
  152.2714  142.7651  159.7330 H   0  0  0  0  0  0  0  0  0  0  0  0
  150.8168  143.6973  160.1006 H   0  0  0  0  0  0  0  0  0  0  0  0
  148.3902  131.7559  151.5705 H   0  0  0  0  0  0  0  0  0  0  0  0
  1  2  1  0  0  0  0
  1 29  1  0  0  0  0
  1 30  1  0  0  0  0
  1 31  1  0  0  0  0
  2  3  1  0  0  0  0
  2 10  1  0  0  0  0
  2 32  1  0  0  0  0
  3  4  1  0  0  0  0
  3 33  1  0  0  0  0
  3 34  1  0  0  0  0
  4  9  1  0  0  0  0
  4  5  1  0  0  0  0
  4 59  1  0  0  0  0
  5  6  1  0  0  0  0
  5 35  1  0  0  0  0
  5 36  1  0  0  0  0
  6  7  1  0  0  0  0
  6 37  1  0  0  0  0
  6 38  1  0  0  0  0
  7  8  1  0  0  0  0
  8  9  1  0  0  0  0
  8 39  1  0  0  0  0
  8 40  1  0  0  0  0
  9 41  1  0  0  0  0
  9 42  1  0  0  0  0
 10 11  1  0  0  0  0
 10 12  1  0  0  0  0
 11 43  1  0  0  0  0
 11 44  1  0  0  0  0
 11 45  1  0  0  0  0
 12 17  1  0  0  0  0
 12 13  2  0  0  0  0
 13 14  1  0  0  0  0
 14 15  2  0  0  0  0
 14 46  1  0  0  0  0
 15 16  1  0  0  0  0
 16 20  1  0  0  0  0
 16 17  2  0  0  0  0
 17 18  1  0  0  0  0
 18 19  2  0  0  0  0
 19 20  1  0  0  0  0
 19 47  1  0  0  0  0
 20 21  1  0  0  0  0
 21 22  1  0  0  0  0
 21 48  1  0  0  0  0
 21 49  1  0  0  0  0
 22 23  1  0  0  0  0
 22 24  1  0  0  0  0
 22 50  1  0  0  0  0
 23 51  1  0  0  0  0
 24 28  1  0  0  0  0
 24 25  1  0  0  0  0
 24 52  1  0  0  0  0
 25 26  1  0  0  0  0
 25 53  1  0  0  0  0
 25 54  1  0  0  0  0
 26 27  1  0  0  0  0
 26 55  1  0  0  0  0
 26 56  1  0  0  0  0
 27 28  1  0  0  0  0
 27 57  1  0  0  0  0
 27 58  1  0  0  0  0
M  CHG  1   4   1
M  END
> <s_m_source_file>
AV-unprocessed.smi

> <i_m_source_file_index>
213

> <i_lp_mmshare_version>
43012

> <i_f3d_flags>
0

> <s_epik_input>
W0NIMl0xW0NIMl1PW0NIMl1bQ0gyXU4xW0NIMl1bQ0BASF0oW0NIM10pTihbQ0gzXSljKG5bY0hdbjIpYyhjMjMpbltjSF1uM1tDSDJdW0NASF0oW09IXSlbQ0BASF00W0NIMl1bQ0gyXVtDSDJdTzQ=

> <s_epik_cmdline>
J2VwaWtfcHl0aG9uJywgJy1waCcsICc3LjAnLCAnLXRuJywgJzgnLCAnLW1hJywgJzIwMCcsICctbWV0YWxfYmluZGluZycsICctaW1hZScsICc8aW5maWxlLm1hZT4nLCAnLW9tYWUnLCAnPG91dGZpbGUubWFlPic=

> <r_lp_tautomer_probability>
1

> <r_epik_Ionization_Penalty>
0.399679

> <r_epik_Ionization_Penalty_Charging>
0.399433

> <r_epik_Ionization_Penalty_Neutral>
0.000246213

> <r_epik_State_Penalty>
0.286032

> <r_epik_Charging_Adjusted_Penalty>
0.685465

> <i_epik_Tot_Q>
1

> <i_epik_Tot_abs_Q>
1

> <r_epik_Metal_State_Penalty>
0.286072

> <b_epik_Metal_Only>
0

> <s_lp_Force_Field>
OPLS_2005

> <r_lp_Energy>
48.2471

> <b_lp_Chiralities_Consistent>
1

> <s_lp_Variant>
AV-unprocessed.smi:213-5

> <Gold.Version>
5.8.1

> <Gold.Id.Protein>
6NUR|6NUR_protein|mol2

> <Gold.PLP.Fitness>
44.0746

> <Gold.PLP.PLP>
-40.1781

> <Gold.PLP.part.hbond>
-2.0000

> <Gold.PLP.part.metal>
0.0000

> <Gold.PLP.part.buried>
-6.9375

> <Gold.PLP.part.nonpolar>
-31.7070

> <Gold.PLP.part.repulsive>
0.3926

> <Gold.PLP.ligand.clash>
0.0000

> <Gold.PLP.ligand.torsion>
1.5853

> <Gold.PLP.Chemscore.Hbond>
2.0000

> <Gold.PLP.Chemscore.CHOScore>
0.0000

> <Gold.PLP.Chemscore.Metal>
0.0000

> <Gold.Chemscore.Hbonds>
donor molecule, donor type, donor heavy atom, donor atom, acceptor molecule, acceptor atom, score
      L1  H     4    59       P1 10747  1.00
      P1  H 10752 10764       L1    18  0.80

> <Gold.PLP.Chemscore.Internal.Correction>
1.0672

> <Gold.Rescore>
     Score         DG    S(hbond)    S(metal)    S(lipo)     H(rot)  DE(clash)    DE(int)     intcor
     11.73     -14.82       1.50        0.00      98.86       2.83       0.11       2.97       ----

> <Gold.Chemscore.Fitness>
11.7323

> <Gold.Chemscore.DG>
-14.8164

> <Gold.Chemscore.ZeroCoef>
-5.4800

> <Gold.Chemscore.Hbond>
1.4979

> <Gold.Chemscore.Metal>
0.0000

> <Gold.Chemscore.Lipo>
98.8569

> <Gold.Chemscore.Internal_Hbond>
0.0000

> <Gold.Chemscore.DEClash>
0.1101

> <Gold.Chemscore.DEInternal>
2.9740

> <Gold.Chemscore.Rot>
2.8254

> <Gold.Chemscore.Internal.Correction>
   9.000000E+99

> <Gold.Chemscore.Hbonds>
donor molecule, donor type, donor heavy atom, donor atom, acceptor molecule, acceptor atom, score
      L1  H     4    59       P1 10747  1.00
      P1  H 10752 10764       L1    18  0.35

> <Gold.Chemscore.Hbond.Weighted>
-5.0031

> <Gold.Chemscore.Metal.Weighted>
-0.0000

> <Gold.Chemscore.Lipo.Weighted>
-11.5663

> <Gold.Chemscore.Internal_Hbond.Weighted>
0.0000

> <Gold.Chemscore.DEClash.Weighted>
0.1101

> <Gold.Chemscore.DEInternal.Weighted>
2.9740

> <Gold.Chemscore.Rot.Weighted>
7.2330

> <Gold.Chemscore.Internal.Correction.Weighted>
   9.000000E+99

> <Gold.Protein.RotatedTorsions>
[ 6907 6896 6895 6894 ] final   44.79 input  -60.11 | X-H torsion
[ 7974 7965 7964 7962 ] final  -69.63 input  175.53 | X-H torsion
[ 8008 7997 7996 7995 ] final  138.77 input   59.86 | X-H torsion
[ 10167 10162 10161 10158 ] final -111.95 input  -65.29 | X-H torsion
[ 10718 10713 10712 10709 ] final    3.15 input   66.30 | X-H torsion
[ 10763 10752 10751 10750 ] final  -60.59 input  -60.55 | X-H torsion
[ 11005 11000 10999 10996 ] final   67.16 input  -57.11 | X-H torsion

> <Gold.Protein.ActiveResidues>
 VAL166  LYS551  ARG553  GLY616  TRP617  ASP618  TYR619  PRO620  LYS621  CYS622 
 ASP623  PHE694  ASN695  SER759  ASP760  ASP761  ALA762  ILE779  LEU786  VAL792 
 PHE793  MET794  SER795  GLU796  ALA797  LYS798  CYS799  TRP800  GLU811  SER814 

> <Gold.Protein.RotatedAtoms>
  152.2368  134.8268  160.0465 H   0  0  0  0  0  0  0  0  0  0  0  0  # atno 6907 bound_to 6896
  151.8997  133.3530  159.3834 H   0  0  0  0  0  0  0  0  0  0  0  0  # atno 6908 bound_to 6896
  150.7041  134.4766  159.5495 H   0  0  0  0  0  0  0  0  0  0  0  0  # atno 6909 bound_to 6896
  145.7013  140.9115  143.0729 H   0  0  0  0  0  0  0  0  0  0  0  0  # atno 7974 bound_to 7965
  156.2995  140.2385  156.4127 H   0  0  0  0  0  0  0  0  0  0  0  0  # atno 8008 bound_to 7997
  154.8426  140.0427  157.1571 H   0  0  0  0  0  0  0  0  0  0  0  0  # atno 8009 bound_to 7997
  154.9086  140.2987  155.5282 H   0  0  0  0  0  0  0  0  0  0  0  0  # atno 8010 bound_to 7997
  140.1280  143.4385  152.1646 H   0  0  0  0  0  0  0  0  0  0  0  0  # atno 10167 bound_to 10162
  156.8735  130.5628  149.5656 H   0  0  0  0  0  0  0  0  0  0  0  0  # atno 10718 bound_to 10713
  154.2715  135.6289  153.5312 H   0  0  0  0  0  0  0  0  0  0  0  0  # atno 10763 bound_to 10752
  152.9879  135.5611  154.5595 H   0  0  0  0  0  0  0  0  0  0  0  0  # atno 10764 bound_to 10752
  154.5166  135.2880  155.1273 H   0  0  0  0  0  0  0  0  0  0  0  0  # atno 10765 bound_to 10752
  139.9788  134.6779  156.0303 H   0  0  0  0  0  0  0  0  0  0  0  0  # atno 11005 bound_to 11000
  144.6968  139.8951  143.7455 LP  0  0  0  0  0  0  0  0  0  0  0  0  # atno 17320 bound_to 7965
  146.0795  139.3783  143.0473 LP  0  0  0  0  0  0  0  0  0  0  0  0  # atno 17321 bound_to 7965
  139.5534  144.7355  151.4367 LP  0  0  0  0  0  0  0  0  0  0  0  0  # atno 17342 bound_to 10162
  140.6833  143.8031  150.7151 LP  0  0  0  0  0  0  0  0  0  0  0  0  # atno 17343 bound_to 10162
  156.0714  130.5746  150.9390 LP  0  0  0  0  0  0  0  0  0  0  0  0  # atno 17370 bound_to 10713
  157.6182  131.0931  150.8671 LP  0  0  0  0  0  0  0  0  0  0  0  0  # atno 17371 bound_to 10713
  141.1462  133.6555  156.3875 LP  0  0  0  0  0  0  0  0  0  0  0  0  # atno 17394 bound_to 11000
  140.5140  134.6368  157.5294 LP  0  0  0  0  0  0  0  0  0  0  0  0  # atno 17395 bound_to 11000

$$$$
