AV-unprocessed.smi:1670|AV-procd|sdf|6694|dock5
  -GOLD-   22720 7423D 1   1.00000     0.00000
 Structure written by MMmdl.
 41 42  0  0  0  0  0  0  0  0  1 V2000
  149.9867  132.9530  155.3455 C   0  0  0  0  0  0  0  0  0  0  0  0
  149.5587  134.4152  155.1617 C   0  0  1  0  0  0  0  0  0  0  0  0
  150.7824  135.3538  155.0856 C   0  0  0  0  0  0  0  0  0  0  0  0
  150.4111  136.7582  155.0735 N   0  0  0  0  0  0  0  0  0  0  0  0
  150.8068  137.7398  154.1896 C   0  0  0  0  0  0  0  0  0  0  0  0
  150.2192  138.9062  154.5879 C   0  0  0  0  0  0  0  0  0  0  0  0
  149.4716  138.5319  155.7395 C   0  0  0  0  0  0  0  0  0  0  0  0
  149.5837  137.2448  156.0246 N   0  0  0  0  0  0  0  0  0  0  0  0
  148.7419  134.5238  153.9533 N   0  0  0  0  0  0  0  0  0  0  0  0
  147.6809  133.7583  153.6586 C   0  0  0  0  0  0  0  0  0  0  0  0
  147.2866  132.8285  154.3625 O   0  0  0  0  0  0  0  0  0  0  0  0
  147.0932  134.1492  152.5171 N   0  0  0  0  0  0  0  0  0  0  0  0
  145.8789  133.6003  151.9114 C   0  0  2  0  0  0  0  0  0  0  0  0
  146.1351  132.2658  151.1775 C   0  0  0  0  0  0  0  0  0  0  0  0
  144.8240  131.6829  150.6254 C   0  0  0  0  0  0  0  0  0  0  0  0
  144.1075  132.6960  149.7143 C   0  0  1  0  0  0  0  0  0  0  0  0
  142.8790  132.1516  149.2809 O   0  0  0  0  0  0  0  0  0  0  0  0
  143.8492  134.0243  150.4490 C   0  0  0  0  0  0  0  0  0  0  0  0
  145.1570  134.6156  150.9994 C   0  0  0  0  0  0  0  0  0  0  0  0
  150.5735  132.8286  156.2560 H   0  0  0  0  0  0  0  0  0  0  0  0
  150.5941  132.6072  154.5083 H   0  0  0  0  0  0  0  0  0  0  0  0
  149.1196  132.2962  155.4225 H   0  0  0  0  0  0  0  0  0  0  0  0
  148.9637  134.6874  156.0354 H   0  0  0  0  0  0  0  0  0  0  0  0
  151.4303  135.1917  155.9475 H   0  0  0  0  0  0  0  0  0  0  0  0
  151.3830  135.1324  154.2015 H   0  0  0  0  0  0  0  0  0  0  0  0
  151.4714  137.5294  153.3647 H   0  0  0  0  0  0  0  0  0  0  0  0
  150.3124  139.8789  154.1286 H   0  0  0  0  0  0  0  0  0  0  0  0
  148.8540  139.1527  156.3718 H   0  0  0  0  0  0  0  0  0  0  0  0
  148.9821  135.2647  153.3113 H   0  0  0  0  0  0  0  0  0  0  0  0
  147.5136  134.9262  152.0288 H   0  0  0  0  0  0  0  0  0  0  0  0
  145.2159  133.3878  152.7510 H   0  0  0  0  0  0  0  0  0  0  0  0
  146.8337  132.4091  150.3526 H   0  0  0  0  0  0  0  0  0  0  0  0
  146.6004  131.5483  151.8545 H   0  0  0  0  0  0  0  0  0  0  0  0
  145.0318  130.7645  150.0751 H   0  0  0  0  0  0  0  0  0  0  0  0
  144.1735  131.4059  151.4565 H   0  0  0  0  0  0  0  0  0  0  0  0
  144.7205  132.8850  148.8319 H   0  0  0  0  0  0  0  0  0  0  0  0
  142.2259  132.8343  149.2974 H   0  0  0  0  0  0  0  0  0  0  0  0
  143.3760  134.7401  149.7757 H   0  0  0  0  0  0  0  0  0  0  0  0
  143.1507  133.8638  151.2718 H   0  0  0  0  0  0  0  0  0  0  0  0
  144.9425  135.5307  151.5525 H   0  0  0  0  0  0  0  0  0  0  0  0
  145.7950  134.9018  150.1630 H   0  0  0  0  0  0  0  0  0  0  0  0
  1  2  1  0  0  0  0
  1 20  1  0  0  0  0
  1 21  1  0  0  0  0
  1 22  1  0  0  0  0
  2  3  1  0  0  0  0
  2  9  1  0  0  0  0
  2 23  1  0  0  0  0
  3  4  1  0  0  0  0
  3 24  1  0  0  0  0
  3 25  1  0  0  0  0
  4  8  1  0  0  0  0
  4  5  1  0  0  0  0
  5  6  2  0  0  0  0
  5 26  1  0  0  0  0
  6  7  1  0  0  0  0
  6 27  1  0  0  0  0
  7  8  2  0  0  0  0
  7 28  1  0  0  0  0
  9 10  1  0  0  0  0
  9 29  1  0  0  0  0
 10 11  2  0  0  0  0
 10 12  1  0  0  0  0
 12 13  1  0  0  0  0
 12 30  1  0  0  0  0
 13 19  1  0  0  0  0
 13 14  1  0  0  0  0
 13 31  1  0  0  0  0
 14 15  1  0  0  0  0
 14 32  1  0  0  0  0
 14 33  1  0  0  0  0
 15 16  1  0  0  0  0
 15 34  1  0  0  0  0
 15 35  1  0  0  0  0
 16 17  1  0  0  0  0
 16 18  1  0  0  0  0
 16 36  1  0  0  0  0
 17 37  1  0  0  0  0
 18 19  1  0  0  0  0
 18 38  1  0  0  0  0
 18 39  1  0  0  0  0
 19 40  1  0  0  0  0
 19 41  1  0  0  0  0
M  END
> <s_m_source_file>
AV-unprocessed.smi

> <i_m_source_file_index>
1670

> <i_lp_mmshare_version>
43012

> <i_f3d_flags>
0

> <s_epik_input>
bjFbY0hdW2NIXVtjSF1uMVtDSDJdW0NAQEhdKFtDSDNdKVtOSF1DKD1PKVtOSF1bQ0BASF0yW0NIMl1bQ0gyXVtDQEBIXShbT0hdKVtDSDJdW0NIMl0y

> <s_epik_cmdline>
J2VwaWtfcHl0aG9uJywgJy1waCcsICc3LjAnLCAnLXRuJywgJzgnLCAnLW1hJywgJzIwMCcsICctbWV0YWxfYmluZGluZycsICctaW1hZScsICc8aW5maWxlLm1hZT4nLCAnLW9tYWUnLCAnPG91dGZpbGUubWFlPic=

> <r_lp_tautomer_probability>
1

> <r_epik_Ionization_Penalty>
7.33369e-05

> <r_epik_Ionization_Penalty_Charging>
0

> <r_epik_Ionization_Penalty_Neutral>
7.33369e-05

> <r_epik_State_Penalty>
-0

> <r_epik_Charging_Adjusted_Penalty>
0

> <i_epik_Tot_Q>
0

> <i_epik_Tot_abs_Q>
0

> <r_epik_Metal_State_Penalty>
-0

> <b_epik_Metal_Only>
0

> <s_lp_Force_Field>
OPLS_2005

> <r_lp_Energy>
5.2693

> <b_lp_Chiralities_Consistent>
1

> <s_lp_Variant>
AV-unprocessed.smi:1670-2

> <Gold.Version>
5.8.1

> <Gold.Id.Protein>
6NUR|6NUR_protein|mol2

> <Gold.PLP.Fitness>
47.8117

> <Gold.PLP.PLP>
-34.0444

> <Gold.PLP.part.hbond>
-5.0000

> <Gold.PLP.part.metal>
0.0000

> <Gold.PLP.part.buried>
-3.6541

> <Gold.PLP.part.nonpolar>
-26.7931

> <Gold.PLP.part.repulsive>
0.0791

> <Gold.PLP.ligand.clash>
0.0000

> <Gold.PLP.ligand.torsion>
0.4450

> <Gold.PLP.Chemscore.Hbond>
3.8688

> <Gold.PLP.Chemscore.CHOScore>
1.0000

> <Gold.PLP.Chemscore.Metal>
0.0000

> <Gold.Chemscore.Hbonds>
donor molecule, donor type, donor heavy atom, donor atom, acceptor molecule, acceptor atom, score
      L1  H     9    29       P1  7948  1.00
      L1  H    12    30       P1  7948  1.00
      L1  H    17    37       P1 10186  1.00
      P1  H 10785 10796       L1    17  0.81
      L1  C     5    26       P1  7949  0.99

> <Gold.PLP.Chemscore.Internal.Correction>
0.0510

> <Gold.Rescore>
     Score         DG    S(hbond)    S(metal)    S(lipo)     H(rot)  DE(clash)    DE(int)     intcor
     17.94     -19.83       3.27        0.00      77.84       2.22       0.07       1.82       ----

> <Gold.Chemscore.Fitness>
17.9366

> <Gold.Chemscore.DG>
-19.8273

> <Gold.Chemscore.ZeroCoef>
-5.4800

> <Gold.Chemscore.Hbond>
3.2721

> <Gold.Chemscore.Metal>
0.0000

> <Gold.Chemscore.Lipo>
77.8433

> <Gold.Chemscore.Internal_Hbond>
0.0000

> <Gold.Chemscore.DEClash>
0.0665

> <Gold.Chemscore.DEInternal>
1.8241

> <Gold.Chemscore.Rot>
2.2224

> <Gold.Chemscore.Internal.Correction>
   9.000000E+99

> <Gold.Chemscore.Hbonds>
donor molecule, donor type, donor heavy atom, donor atom, acceptor molecule, acceptor atom, score
      L1  H     9    29       P1  7948  0.45
      L1  H    12    30       P1  7948  0.83
      L1  H    17    37       P1 10186  0.95
      P1  H 10785 10796       L1    17  0.56

> <Gold.Chemscore.Hbond.Weighted>
-10.9289

> <Gold.Chemscore.Metal.Weighted>
-0.0000

> <Gold.Chemscore.Lipo.Weighted>
-9.1077

> <Gold.Chemscore.Internal_Hbond.Weighted>
0.0000

> <Gold.Chemscore.DEClash.Weighted>
0.0665

> <Gold.Chemscore.DEInternal.Weighted>
1.8241

> <Gold.Chemscore.Rot.Weighted>
5.6893

> <Gold.Chemscore.Internal.Correction.Weighted>
   9.000000E+99

> <Gold.Protein.RotatedTorsions>
[ 6907 6896 6895 6894 ] final   47.59 input  -60.11 | X-H torsion
[ 7974 7965 7964 7962 ] final -177.23 input  175.53 | X-H torsion
[ 8008 7997 7996 7995 ] final  139.28 input   59.86 | X-H torsion
[ 10167 10162 10161 10158 ] final   41.73 input  -65.29 | X-H torsion
[ 10718 10713 10712 10709 ] final  158.61 input   66.30 | X-H torsion
[ 10763 10752 10751 10750 ] final  129.73 input  -60.55 | X-H torsion
[ 11005 11000 10999 10996 ] final   -4.07 input  -57.11 | X-H torsion

> <Gold.Protein.ActiveResidues>
 VAL166  LYS551  ARG553  GLY616  TRP617  ASP618  TYR619  PRO620  LYS621  CYS622 
 ASP623  PHE694  ASN695  SER759  ASP760  ASP761  ALA762  ILE779  LEU786  VAL792 
 PHE793  MET794  SER795  GLU796  ALA797  LYS798  CYS799  TRP800  GLU811  SER814 

> <Gold.Protein.RotatedAtoms>
  152.2698  134.7945  160.0415 H   0  0  0  0  0  0  0  0  0  0  0  0  # atno 6907 bound_to 6896
  151.8562  133.3443  159.3697 H   0  0  0  0  0  0  0  0  0  0  0  0  # atno 6908 bound_to 6896
  150.7147  134.5179  159.5683 H   0  0  0  0  0  0  0  0  0  0  0  0  # atno 6909 bound_to 6896
  144.7127  140.1050  143.6414 H   0  0  0  0  0  0  0  0  0  0  0  0  # atno 7974 bound_to 7965
  156.2991  140.2371  156.4212 H   0  0  0  0  0  0  0  0  0  0  0  0  # atno 8008 bound_to 7997
  154.8354  140.0431  157.1525 H   0  0  0  0  0  0  0  0  0  0  0  0  # atno 8009 bound_to 7997
  154.9162  140.2997  155.5244 H   0  0  0  0  0  0  0  0  0  0  0  0  # atno 8010 bound_to 7997
  140.3614  144.2223  150.6138 H   0  0  0  0  0  0  0  0  0  0  0  0  # atno 10167 bound_to 10162
  157.1755  131.0620  151.2160 H   0  0  0  0  0  0  0  0  0  0  0  0  # atno 10718 bound_to 10713
  153.7465  135.3216  155.3313 H   0  0  0  0  0  0  0  0  0  0  0  0  # atno 10763 bound_to 10752
  154.8277  135.4557  154.0974 H   0  0  0  0  0  0  0  0  0  0  0  0  # atno 10764 bound_to 10752
  153.2164  135.6942  153.8134 H   0  0  0  0  0  0  0  0  0  0  0  0  # atno 10765 bound_to 10752
  140.6762  133.9193  155.8526 H   0  0  0  0  0  0  0  0  0  0  0  0  # atno 11005 bound_to 11000
  145.9504  139.2730  143.1215 LP  0  0  0  0  0  0  0  0  0  0  0  0  # atno 17320 bound_to 7965
  145.9329  140.9036  143.0347 LP  0  0  0  0  0  0  0  0  0  0  0  0  # atno 17321 bound_to 7965
  140.5123  143.2287  151.8516 LP  0  0  0  0  0  0  0  0  0  0  0  0  # atno 17342 bound_to 10162
  139.4814  144.4935  151.9154 LP  0  0  0  0  0  0  0  0  0  0  0  0  # atno 17343 bound_to 10162
  157.4003  130.7329  149.6762 LP  0  0  0  0  0  0  0  0  0  0  0  0  # atno 17370 bound_to 10713
  155.9732  130.4122  150.4023 LP  0  0  0  0  0  0  0  0  0  0  0  0  # atno 17371 bound_to 10713
  141.0353  134.0698  157.3966 LP  0  0  0  0  0  0  0  0  0  0  0  0  # atno 17394 bound_to 11000
  139.8966  135.0146  156.7058 LP  0  0  0  0  0  0  0  0  0  0  0  0  # atno 17395 bound_to 11000

$$$$
