AV-unprocessed.smi:2061|AV-procd|sdf|8368|dock10
  -GOLD-   2272011 43D 1   1.00000     0.00000
 Structure written by MMmdl.
 46 47  0  0  0  0  0  0  0  0  2 V2000
  143.1696  132.5996  149.3816 C   0  0  0  0  0  0  0  0  0  0  0  0
  144.3048  133.2623  150.0837 C   0  0  0  0  0  0  0  0  0  0  0  0
  144.3848  134.3630  150.8891 C   0  0  0  0  0  0  0  0  0  0  0  0
  145.7729  134.4250  151.2077 C   0  0  0  0  0  0  0  0  0  0  0  0
  146.4047  135.3937  152.0297 N   0  0  0  0  0  0  0  0  0  0  0  0
  145.8992  136.0472  153.0894 C   0  0  0  0  0  0  0  0  0  0  0  0
  144.7660  135.8980  153.5461 O   0  0  0  0  0  0  0  0  0  0  0  0
  146.7967  136.8999  153.6063 N   0  0  0  0  0  0  0  0  0  0  0  0
  146.5597  137.8033  154.7305 C   0  0  0  0  0  0  0  0  0  0  0  0
  147.1876  139.2134  154.5384 C   0  0  2  0  0  0  0  0  0  0  0  0
  147.0316  139.6849  153.0709 C   0  0  0  0  0  0  0  0  0  0  0  0
  148.6227  139.2605  154.9844 N   0  3  1  0  0  0  0  0  0  0  0  0
  149.5755  138.6864  153.9921 C   0  0  0  0  0  0  0  0  0  0  0  0
  151.0333  138.7205  154.4907 C   0  0  2  0  0  0  0  0  0  0  0  0
  151.3387  137.6765  155.5807 C   0  0  0  0  0  0  0  0  0  0  0  0
  151.3881  140.0413  154.8849 O   0  0  0  0  0  0  0  0  0  0  0  0
  150.5452  140.5954  155.8860 C   0  0  1  0  0  0  0  0  0  0  0  0
  151.0617  142.0032  156.2026 C   0  0  0  0  0  0  0  0  0  0  0  0
  149.0887  140.6166  155.3881 C   0  0  0  0  0  0  0  0  0  0  0  0
  146.4668  133.4496  150.6506 N   0  0  0  0  0  0  0  0  0  0  0  0
  145.5332  132.7000  149.9255 O   0  0  0  0  0  0  0  0  0  0  0  0
  142.2171  133.0365  149.6819 H   0  0  0  0  0  0  0  0  0  0  0  0
  143.1404  131.5346  149.6129 H   0  0  0  0  0  0  0  0  0  0  0  0
  143.2667  132.7095  148.3014 H   0  0  0  0  0  0  0  0  0  0  0  0
  143.5722  135.0067  151.1902 H   0  0  0  0  0  0  0  0  0  0  0  0
  147.3502  135.6289  151.7660 H   0  0  0  0  0  0  0  0  0  0  0  0
  147.7053  136.9511  153.1684 H   0  0  0  0  0  0  0  0  0  0  0  0
  145.4749  137.8659  154.7935 H   0  0  0  0  0  0  0  0  0  0  0  0
  146.8989  137.3625  155.6695 H   0  0  0  0  0  0  0  0  0  0  0  0
  146.6285  139.9084  155.1671 H   0  0  0  0  0  0  0  0  0  0  0  0
  146.0025  139.6115  152.7232 H   0  0  0  0  0  0  0  0  0  0  0  0
  147.6493  139.0914  152.3959 H   0  0  0  0  0  0  0  0  0  0  0  0
  147.2907  140.7336  152.9376 H   0  0  0  0  0  0  0  0  0  0  0  0
  149.3382  137.6506  153.7591 H   0  0  0  0  0  0  0  0  0  0  0  0
  149.4950  139.2487  153.0604 H   0  0  0  0  0  0  0  0  0  0  0  0
  151.6762  138.4816  153.6430 H   0  0  0  0  0  0  0  0  0  0  0  0
  151.1995  136.6656  155.1963 H   0  0  0  0  0  0  0  0  0  0  0  0
  150.6910  137.7814  156.4507 H   0  0  0  0  0  0  0  0  0  0  0  0
  152.3719  137.7590  155.9191 H   0  0  0  0  0  0  0  0  0  0  0  0
  150.6116  140.0017  156.7977 H   0  0  0  0  0  0  0  0  0  0  0  0
  150.4573  142.4804  156.9746 H   0  0  0  0  0  0  0  0  0  0  0  0
  151.0391  142.6406  155.3179 H   0  0  0  0  0  0  0  0  0  0  0  0
  152.0906  141.9686  156.5616 H   0  0  0  0  0  0  0  0  0  0  0  0
  148.9828  141.3027  154.5460 H   0  0  0  0  0  0  0  0  0  0  0  0
  148.4883  141.0095  156.2059 H   0  0  0  0  0  0  0  0  0  0  0  0
  148.6846  138.6813  155.8097 H   0  0  0  0  0  0  0  0  0  0  0  0
  1  2  1  0  0  0  0
  1 22  1  0  0  0  0
  1 23  1  0  0  0  0
  1 24  1  0  0  0  0
  2 21  1  0  0  0  0
  2  3  2  0  0  0  0
  3  4  1  0  0  0  0
  3 25  1  0  0  0  0
  4  5  1  0  0  0  0
  4 20  2  0  0  0  0
  5  6  1  0  0  0  0
  5 26  1  0  0  0  0
  6  7  2  0  0  0  0
  6  8  1  0  0  0  0
  8  9  1  0  0  0  0
  8 27  1  0  0  0  0
  9 10  1  0  0  0  0
  9 28  1  0  0  0  0
  9 29  1  0  0  0  0
 10 11  1  0  0  0  0
 10 12  1  0  0  0  0
 10 30  1  0  0  0  0
 11 31  1  0  0  0  0
 11 32  1  0  0  0  0
 11 33  1  0  0  0  0
 12 19  1  0  0  0  0
 12 13  1  0  0  0  0
 12 46  1  0  0  0  0
 13 14  1  0  0  0  0
 13 34  1  0  0  0  0
 13 35  1  0  0  0  0
 14 15  1  0  0  0  0
 14 16  1  0  0  0  0
 14 36  1  0  0  0  0
 15 37  1  0  0  0  0
 15 38  1  0  0  0  0
 15 39  1  0  0  0  0
 16 17  1  0  0  0  0
 17 18  1  0  0  0  0
 17 19  1  0  0  0  0
 17 40  1  0  0  0  0
 18 41  1  0  0  0  0
 18 42  1  0  0  0  0
 18 43  1  0  0  0  0
 19 44  1  0  0  0  0
 19 45  1  0  0  0  0
 20 21  1  0  0  0  0
M  CHG  1  12   1
M  END
> <s_m_source_file>
AV-unprocessed.smi

> <i_m_source_file_index>
2061

> <i_lp_mmshare_version>
43012

> <i_f3d_flags>
0

> <s_epik_input>
W0NIM11jMVtjSF1jKG5vMSlbTkhdQyg9TylbTkhdW0NIMl1bQ0BIXShbQ0gzXSlOMltDSDJdW0NAQEhdKFtDSDNdKU9bQ0BASF0oW0NIM10pW0NIMl0y

> <s_epik_cmdline>
J2VwaWtfcHl0aG9uJywgJy1waCcsICc3LjAnLCAnLXRuJywgJzgnLCAnLW1hJywgJzIwMCcsICctbWV0YWxfYmluZGluZycsICctaW1hZScsICc8aW5maWxlLm1hZT4nLCAnLW9tYWUnLCAnPG91dGZpbGUubWFlPic=

> <r_epik_Ionization_Penalty>
0.707076

> <r_epik_Ionization_Penalty_Charging>
0.707039

> <r_epik_Ionization_Penalty_Neutral>
3.6548e-05

> <r_epik_State_Penalty>
0.730276

> <r_epik_Charging_Adjusted_Penalty>
1.43732

> <i_epik_Tot_Q>
1

> <i_epik_Tot_abs_Q>
1

> <r_epik_Metal_State_Penalty>
0.743132

> <b_epik_Metal_Only>
0

> <s_lp_Force_Field>
OPLS_2005

> <r_lp_Energy>
23.7206

> <b_lp_Chiralities_Consistent>
1

> <s_lp_Variant>
AV-unprocessed.smi:2061-9

> <Gold.Version>
5.8.1

> <Gold.Id.Protein>
6NUR|6NUR_protein|mol2

> <Gold.PLP.Fitness>
37.5948

> <Gold.PLP.PLP>
-30.7866

> <Gold.PLP.part.hbond>
-2.9669

> <Gold.PLP.part.metal>
0.0000

> <Gold.PLP.part.buried>
-4.3038

> <Gold.PLP.part.nonpolar>
-24.3944

> <Gold.PLP.part.repulsive>
0.5554

> <Gold.PLP.ligand.clash>
0.0000

> <Gold.PLP.ligand.torsion>
0.9676

> <Gold.PLP.Chemscore.Hbond>
2.8960

> <Gold.PLP.Chemscore.CHOScore>
0.0000

> <Gold.PLP.Chemscore.Metal>
0.0000

> <Gold.Chemscore.Hbonds>
donor molecule, donor type, donor heavy atom, donor atom, acceptor molecule, acceptor atom, score
      L1  H     5    26       P1  7948  1.00
      L1  H     8    27       P1  7948  0.96
      P1  H  7989  7998       L1    16  1.00

> <Gold.PLP.Chemscore.Internal.Correction>
0.0554

> <Gold.Rescore>
     Score         DG    S(hbond)    S(metal)    S(lipo)     H(rot)  DE(clash)    DE(int)     intcor
     18.19     -19.21       2.59        0.00      77.93       1.58       0.04       0.99       ----

> <Gold.Chemscore.Fitness>
18.1889

> <Gold.Chemscore.DG>
-19.2105

> <Gold.Chemscore.ZeroCoef>
-5.4800

> <Gold.Chemscore.Hbond>
2.5945

> <Gold.Chemscore.Metal>
0.0000

> <Gold.Chemscore.Lipo>
77.9335

> <Gold.Chemscore.Internal_Hbond>
0.0000

> <Gold.Chemscore.DEClash>
0.0360

> <Gold.Chemscore.DEInternal>
0.9856

> <Gold.Chemscore.Rot>
1.5834

> <Gold.Chemscore.Internal.Correction>
   9.000000E+99

> <Gold.Chemscore.Hbonds>
donor molecule, donor type, donor heavy atom, donor atom, acceptor molecule, acceptor atom, score
      L1  H     5    26       P1  7948  1.00
      L1  H     8    27       P1  7948  0.91
      P1  H  7989  7998       L1    16  0.53

> <Gold.Chemscore.Hbond.Weighted>
-8.6658

> <Gold.Chemscore.Metal.Weighted>
-0.0000

> <Gold.Chemscore.Lipo.Weighted>
-9.1182

> <Gold.Chemscore.Internal_Hbond.Weighted>
0.0000

> <Gold.Chemscore.DEClash.Weighted>
0.0360

> <Gold.Chemscore.DEInternal.Weighted>
0.9856

> <Gold.Chemscore.Rot.Weighted>
4.0535

> <Gold.Chemscore.Internal.Correction.Weighted>
   9.000000E+99

> <Gold.Protein.RotatedTorsions>
[ 6907 6896 6895 6894 ] final  163.92 input  -60.11 | X-H torsion
[ 7974 7965 7964 7962 ] final -144.36 input  175.53 | X-H torsion
[ 8008 7997 7996 7995 ] final   57.38 input   59.86 | X-H torsion
[ 10167 10162 10161 10158 ] final -152.66 input  -65.29 | X-H torsion
[ 10718 10713 10712 10709 ] final -156.40 input   66.30 | X-H torsion
[ 10763 10752 10751 10750 ] final  -34.72 input  -60.55 | X-H torsion
[ 11005 11000 10999 10996 ] final  159.55 input  -57.11 | X-H torsion

> <Gold.Protein.ActiveResidues>
 VAL166  LYS551  ARG553  GLY616  TRP617  ASP618  TYR619  PRO620  LYS621  CYS622 
 ASP623  PHE694  ASN695  SER759  ASP760  ASP761  ALA762  ILE779  LEU786  VAL792 
 PHE793  MET794  SER795  GLU796  ALA797  LYS798  CYS799  TRP800  GLU811  SER814 

> <Gold.Protein.RotatedAtoms>
  151.9178  133.3577  159.3885 H   0  0  0  0  0  0  0  0  0  0  0  0  # atno 6907 bound_to 6896
  150.7044  134.4666  159.5415 H   0  0  0  0  0  0  0  0  0  0  0  0  # atno 6908 bound_to 6896
  152.2284  134.8346  160.0527 H   0  0  0  0  0  0  0  0  0  0  0  0  # atno 6909 bound_to 6896
  144.8303  140.5720  143.5519 H   0  0  0  0  0  0  0  0  0  0  0  0  # atno 7974 bound_to 7965
  155.5329  140.3482  155.4430 H   0  0  0  0  0  0  0  0  0  0  0  0  # atno 8008 bound_to 7997
  156.0706  140.1362  156.9860 H   0  0  0  0  0  0  0  0  0  0  0  0  # atno 8009 bound_to 7997
  154.4526  140.0966  156.6638 H   0  0  0  0  0  0  0  0  0  0  0  0  # atno 8010 bound_to 7997
  139.7162  143.9029  152.2487 H   0  0  0  0  0  0  0  0  0  0  0  0  # atno 10167 bound_to 10162
  156.5260  130.8499  151.2699 H   0  0  0  0  0  0  0  0  0  0  0  0  # atno 10718 bound_to 10713
  153.8514  135.6848  153.4792 H   0  0  0  0  0  0  0  0  0  0  0  0  # atno 10763 bound_to 10752
  153.1395  135.4663  154.9472 H   0  0  0  0  0  0  0  0  0  0  0  0  # atno 10764 bound_to 10752
  154.7800  135.3266  154.7957 H   0  0  0  0  0  0  0  0  0  0  0  0  # atno 10765 bound_to 10752
  140.1972  134.8364  157.2978 H   0  0  0  0  0  0  0  0  0  0  0  0  # atno 11005 bound_to 11000
  145.4910  139.1489  143.3709 LP  0  0  0  0  0  0  0  0  0  0  0  0  # atno 17320 bound_to 7965
  146.2606  140.5048  142.8855 LP  0  0  0  0  0  0  0  0  0  0  0  0  # atno 17321 bound_to 7965
  139.8912  144.6964  150.8768 LP  0  0  0  0  0  0  0  0  0  0  0  0  # atno 17342 bound_to 10162
  140.7744  143.3585  151.1875 LP  0  0  0  0  0  0  0  0  0  0  0  0  # atno 17343 bound_to 10162
  157.7429  130.9901  150.2554 LP  0  0  0  0  0  0  0  0  0  0  0  0  # atno 17370 bound_to 10713
  156.3104  130.3771  149.7666 LP  0  0  0  0  0  0  0  0  0  0  0  0  # atno 17371 bound_to 10713
  140.2094  134.4157  155.7621 LP  0  0  0  0  0  0  0  0  0  0  0  0  # atno 17394 bound_to 11000
  141.2227  133.7110  156.8313 LP  0  0  0  0  0  0  0  0  0  0  0  0  # atno 17395 bound_to 11000

$$$$
