AV-unprocessed.smi:1074|AV-procd|sdf|4692|dock8
  -GOLD-   22720 3213D 1   1.00000     0.00000
 Structure written by MMmdl.
 44 45  0  0  0  0  0  0  0  0  1 V2000
  143.6063  132.8408  147.9251 C   0  0  0  0  0  0  0  0  0  0  0  0
  143.4639  132.9543  149.3685 N   0  0  0  0  0  0  0  0  0  0  0  0
  144.4617  132.7647  150.2446 C   0  0  0  0  0  0  0  0  0  0  0  0
  145.6067  132.4772  149.8958 O   0  0  0  0  0  0  0  0  0  0  0  0
  144.1020  132.9238  151.7341 C   0  0  2  0  0  0  0  0  0  0  0  0
  143.6051  134.3465  152.0836 C   0  0  0  0  0  0  0  0  0  0  0  0
  144.7344  135.3881  152.1986 C   0  0  0  0  0  0  0  0  0  0  0  0
  145.8323  134.9263  153.1767 C   0  0  2  0  0  0  0  0  0  0  0  0
  146.9261  135.8918  153.2172 N   0  0  0  0  0  0  0  0  0  0  0  0
  147.1589  136.7610  154.2109 C   0  0  0  0  0  0  0  0  0  0  0  0
  146.4459  136.8548  155.2091 O   0  0  0  0  0  0  0  0  0  0  0  0
  148.2518  137.5007  153.9545 N   0  0  0  0  0  0  0  0  0  0  0  0
  148.8815  138.4947  154.7540 C   0  0  0  0  0  0  0  0  0  0  0  0
  148.5720  138.7636  156.1096 C   0  0  0  0  0  0  0  0  0  0  0  0
  149.2890  139.7696  156.7851 C   0  0  0  0  0  0  0  0  0  0  0  0
  150.2929  140.4751  156.0931 C   0  0  0  0  0  0  0  0  0  0  0  0
  150.9927  141.4570  156.7642 O   0  0  0  0  0  0  0  0  0  0  0  0
  150.9118  141.4932  158.1849 C   0  0  0  0  0  0  0  0  0  0  0  0
  150.5968  140.2222  154.7963 N   0  0  0  0  0  0  0  0  0  0  0  0
  149.9057  139.2569  154.1546 C   0  0  0  0  0  0  0  0  0  0  0  0
  146.3813  133.5468  152.7734 C   0  0  0  0  0  0  0  0  0  0  0  0
  145.2568  132.5000  152.6711 C   0  0  0  0  0  0  0  0  0  0  0  0
  142.6454  133.0178  147.4423 H   0  0  0  0  0  0  0  0  0  0  0  0
  143.9498  131.8441  147.6455 H   0  0  0  0  0  0  0  0  0  0  0  0
  144.3191  133.5741  147.5463 H   0  0  0  0  0  0  0  0  0  0  0  0
  142.5484  133.1869  149.7257 H   0  0  0  0  0  0  0  0  0  0  0  0
  143.2710  132.2429  151.9266 H   0  0  0  0  0  0  0  0  0  0  0  0
  142.8726  134.6817  151.3480 H   0  0  0  0  0  0  0  0  0  0  0  0
  143.0711  134.3057  153.0338 H   0  0  0  0  0  0  0  0  0  0  0  0
  145.1674  135.5824  151.2173 H   0  0  0  0  0  0  0  0  0  0  0  0
  144.3131  136.3369  152.5328 H   0  0  0  0  0  0  0  0  0  0  0  0
  145.3986  134.8372  154.1747 H   0  0  0  0  0  0  0  0  0  0  0  0
  147.5592  135.8894  152.4310 H   0  0  0  0  0  0  0  0  0  0  0  0
  148.6965  137.3267  153.0651 H   0  0  0  0  0  0  0  0  0  0  0  0
  147.8134  138.2234  156.6522 H   0  0  0  0  0  0  0  0  0  0  0  0
  149.0736  139.9938  157.8195 H   0  0  0  0  0  0  0  0  0  0  0  0
  151.5153  142.3199  158.5593 H   0  0  0  0  0  0  0  0  0  0  0  0
  151.2968  140.5745  158.6295 H   0  0  0  0  0  0  0  0  0  0  0  0
  149.8867  141.6529  158.5227 H   0  0  0  0  0  0  0  0  0  0  0  0
  150.1830  139.0874  153.1243 H   0  0  0  0  0  0  0  0  0  0  0  0
  146.9128  133.6190  151.8240 H   0  0  0  0  0  0  0  0  0  0  0  0
  147.1181  133.2139  153.5054 H   0  0  0  0  0  0  0  0  0  0  0  0
  144.8520  132.3211  153.6681 H   0  0  0  0  0  0  0  0  0  0  0  0
  145.6749  131.5462  152.3464 H   0  0  0  0  0  0  0  0  0  0  0  0
  1  2  1  0  0  0  0
  1 23  1  0  0  0  0
  1 24  1  0  0  0  0
  1 25  1  0  0  0  0
  2  3  1  0  0  0  0
  2 26  1  0  0  0  0
  3  4  2  0  0  0  0
  3  5  1  0  0  0  0
  5 22  1  0  0  0  0
  5  6  1  0  0  0  0
  5 27  1  0  0  0  0
  6  7  1  0  0  0  0
  6 28  1  0  0  0  0
  6 29  1  0  0  0  0
  7  8  1  0  0  0  0
  7 30  1  0  0  0  0
  7 31  1  0  0  0  0
  8  9  1  0  0  0  0
  8 21  1  0  0  0  0
  8 32  1  0  0  0  0
  9 10  1  0  0  0  0
  9 33  1  0  0  0  0
 10 11  2  0  0  0  0
 10 12  1  0  0  0  0
 12 13  1  0  0  0  0
 12 34  1  0  0  0  0
 13 20  1  0  0  0  0
 13 14  2  0  0  0  0
 14 15  1  0  0  0  0
 14 35  1  0  0  0  0
 15 16  2  0  0  0  0
 15 36  1  0  0  0  0
 16 17  1  0  0  0  0
 16 19  1  0  0  0  0
 17 18  1  0  0  0  0
 18 37  1  0  0  0  0
 18 38  1  0  0  0  0
 18 39  1  0  0  0  0
 19 20  2  0  0  0  0
 20 40  1  0  0  0  0
 21 22  1  0  0  0  0
 21 41  1  0  0  0  0
 21 42  1  0  0  0  0
 22 43  1  0  0  0  0
 22 44  1  0  0  0  0
M  END
> <s_m_source_file>
AV-unprocessed.smi

> <i_m_source_file_index>
1074

> <i_lp_mmshare_version>
43012

> <i_f3d_flags>
0

> <s_epik_input>
W0NIM11bTkhdQyg9TylbQ0BASF0xW0NIMl1bQ0gyXVtDQEhdKFtDSDJdW0NIMl0xKVtOSF1DKD1PKVtOSF1jMltjSF1bY0hdYyhPW0NIM10pbltjSF0y

> <s_epik_cmdline>
J2VwaWtfcHl0aG9uJywgJy1waCcsICc3LjAnLCAnLXRuJywgJzgnLCAnLW1hJywgJzIwMCcsICctbWV0YWxfYmluZGluZycsICctaW1hZScsICc8aW5maWxlLm1hZT4nLCAnLW9tYWUnLCAnPG91dGZpbGUubWFlPic=

> <r_lp_tautomer_probability>
1

> <r_epik_Ionization_Penalty>
9.85099e-05

> <r_epik_Ionization_Penalty_Charging>
0

> <r_epik_Ionization_Penalty_Neutral>
9.85099e-05

> <r_epik_State_Penalty>
-0

> <r_epik_Charging_Adjusted_Penalty>
0

> <i_epik_Tot_Q>
0

> <i_epik_Tot_abs_Q>
0

> <r_epik_Metal_State_Penalty>
-0

> <b_epik_Metal_Only>
0

> <s_lp_Force_Field>
OPLS_2005

> <r_lp_Energy>
10.6819

> <b_lp_Chiralities_Consistent>
1

> <s_lp_Variant>
AV-unprocessed.smi:1074-2

> <Gold.Version>
5.8.1

> <Gold.Id.Protein>
6NUR|6NUR_protein|mol2

> <Gold.PLP.Fitness>
40.9583

> <Gold.PLP.PLP>
-27.4702

> <Gold.PLP.part.hbond>
-3.7159

> <Gold.PLP.part.metal>
0.0000

> <Gold.PLP.part.buried>
-1.6998

> <Gold.PLP.part.nonpolar>
-22.1690

> <Gold.PLP.part.repulsive>
0.4313

> <Gold.PLP.ligand.clash>
0.0000

> <Gold.PLP.ligand.torsion>
0.4426

> <Gold.PLP.Chemscore.Hbond>
3.7753

> <Gold.PLP.Chemscore.CHOScore>
1.0000

> <Gold.PLP.Chemscore.Metal>
0.0000

> <Gold.Chemscore.Hbonds>
donor molecule, donor type, donor heavy atom, donor atom, acceptor molecule, acceptor atom, score
      L1  H     2    26       P1 10186  0.90
      L1  H     9    33       P1  7948  0.98
      L1  H    12    34       P1  7948  0.94
      P1  H  7989  7998       L1    19  1.00
      L1  C    20    40       P1  7957  1.00

> <Gold.PLP.Chemscore.Internal.Correction>
0.0473

> <Gold.Rescore>
     Score         DG    S(hbond)    S(metal)    S(lipo)     H(rot)  DE(clash)    DE(int)     intcor
     17.74     -19.85       3.39        0.00      61.47       1.62       0.53       1.57       ----

> <Gold.Chemscore.Fitness>
17.7443

> <Gold.Chemscore.DG>
-19.8471

> <Gold.Chemscore.ZeroCoef>
-5.4800

> <Gold.Chemscore.Hbond>
3.3935

> <Gold.Chemscore.Metal>
0.0000

> <Gold.Chemscore.Lipo>
61.4732

> <Gold.Chemscore.Internal_Hbond>
0.0000

> <Gold.Chemscore.DEClash>
0.5346

> <Gold.Chemscore.DEInternal>
1.5681

> <Gold.Chemscore.Rot>
1.6248

> <Gold.Chemscore.Internal.Correction>
   9.000000E+99

> <Gold.Chemscore.Hbonds>
donor molecule, donor type, donor heavy atom, donor atom, acceptor molecule, acceptor atom, score
      L1  H     2    26       P1 10186  0.86
      L1  H     9    33       P1  7948  0.88
      L1  H    12    34       P1  7948  0.91
      P1  H  7989  7998       L1    19  0.35

> <Gold.Chemscore.Hbond.Weighted>
-11.3342

> <Gold.Chemscore.Metal.Weighted>
-0.0000

> <Gold.Chemscore.Lipo.Weighted>
-7.1924

> <Gold.Chemscore.Internal_Hbond.Weighted>
0.0000

> <Gold.Chemscore.DEClash.Weighted>
0.5346

> <Gold.Chemscore.DEInternal.Weighted>
1.5681

> <Gold.Chemscore.Rot.Weighted>
4.1595

> <Gold.Chemscore.Internal.Correction.Weighted>
   9.000000E+99

> <Gold.Protein.RotatedTorsions>
[ 6907 6896 6895 6894 ] final  -32.30 input  -60.11 | X-H torsion
[ 7974 7965 7964 7962 ] final  138.76 input  175.53 | X-H torsion
[ 8008 7997 7996 7995 ] final   67.35 input   59.86 | X-H torsion
[ 10167 10162 10161 10158 ] final  167.24 input  -65.29 | X-H torsion
[ 10718 10713 10712 10709 ] final  -61.58 input   66.30 | X-H torsion
[ 10763 10752 10751 10750 ] final -128.50 input  -60.55 | X-H torsion
[ 11005 11000 10999 10996 ] final    1.19 input  -57.11 | X-H torsion

> <Gold.Protein.ActiveResidues>
 VAL166  LYS551  ARG553  GLY616  TRP617  ASP618  TYR619  PRO620  LYS621  CYS622 
 ASP623  PHE694  ASN695  SER759  ASP760  ASP761  ALA762  ILE779  LEU786  VAL792 
 PHE793  MET794  SER795  GLU796  ALA797  LYS798  CYS799  TRP800  GLU811  SER814 

> <Gold.Protein.RotatedAtoms>
  151.0806  134.9856  159.8353 H   0  0  0  0  0  0  0  0  0  0  0  0  # atno 6907 bound_to 6896
  152.5419  134.2186  159.8789 H   0  0  0  0  0  0  0  0  0  0  0  0  # atno 6908 bound_to 6896
  151.2216  133.4455  159.2634 H   0  0  0  0  0  0  0  0  0  0  0  0  # atno 6909 bound_to 6896
  144.9342  139.5009  143.5603 H   0  0  0  0  0  0  0  0  0  0  0  0  # atno 7974 bound_to 7965
  155.6915  140.3496  155.4895 H   0  0  0  0  0  0  0  0  0  0  0  0  # atno 8008 bound_to 7997
  155.9520  140.1121  157.0991 H   0  0  0  0  0  0  0  0  0  0  0  0  # atno 8009 bound_to 7997
  154.4124  140.1192  156.5051 H   0  0  0  0  0  0  0  0  0  0  0  0  # atno 8010 bound_to 7997
  139.4941  144.3943  151.9482 H   0  0  0  0  0  0  0  0  0  0  0  0  # atno 10167 bound_to 10162
  156.0912  130.4200  150.1015 H   0  0  0  0  0  0  0  0  0  0  0  0  # atno 10718 bound_to 10713
  154.8756  135.3926  154.3767 H   0  0  0  0  0  0  0  0  0  0  0  0  # atno 10763 bound_to 10752
  153.4520  135.7028  153.6108 H   0  0  0  0  0  0  0  0  0  0  0  0  # atno 10764 bound_to 10752
  153.4644  135.3804  155.2325 H   0  0  0  0  0  0  0  0  0  0  0  0  # atno 10765 bound_to 10752
  140.6182  133.9685  155.8211 H   0  0  0  0  0  0  0  0  0  0  0  0  # atno 11005 bound_to 11000
  146.3260  139.8315  142.8907 LP  0  0  0  0  0  0  0  0  0  0  0  0  # atno 17320 bound_to 7965
  145.3093  141.0215  143.3564 LP  0  0  0  0  0  0  0  0  0  0  0  0  # atno 17321 bound_to 7965
  140.3381  144.3237  150.5973 LP  0  0  0  0  0  0  0  0  0  0  0  0  # atno 17342 bound_to 10162
  140.5589  143.2195  151.7799 LP  0  0  0  0  0  0  0  0  0  0  0  0  # atno 17343 bound_to 10162
  156.9024  130.9625  151.3574 LP  0  0  0  0  0  0  0  0  0  0  0  0  # atno 17370 bound_to 10713
  157.6061  130.8548  149.8878 LP  0  0  0  0  0  0  0  0  0  0  0  0  # atno 17371 bound_to 10713
  141.0761  134.0133  157.3456 LP  0  0  0  0  0  0  0  0  0  0  0  0  # atno 17394 bound_to 11000
  139.9164  135.0197  156.7897 LP  0  0  0  0  0  0  0  0  0  0  0  0  # atno 17395 bound_to 11000

$$$$
