AV-unprocessed.smi:3258|AV-procd|sdf|12468|dock2
  -GOLD-   2272018363D 1   1.00000     0.00000
 Structure written by MMmdl.
 38 39  0  0  0  0  0  0  0  0  1 V2000
  148.4178  131.4224  153.6302 C   0  0  0  0  0  0  0  0  0  0  0  0
  147.4777  132.6151  153.3896 C   0  0  2  0  0  0  0  0  0  0  0  0
  146.7779  132.5717  152.0135 C   0  0  0  0  0  0  0  0  0  0  0  0
  145.6841  133.5203  151.9100 N   0  0  0  0  0  0  0  0  0  0  0  0
  145.7492  134.8973  151.8901 C   0  0  0  0  0  0  0  0  0  0  0  0
  144.4703  135.3625  151.7792 C   0  0  0  0  0  0  0  0  0  0  0  0
  143.6824  134.1783  151.7352 C   0  0  0  0  0  0  0  0  0  0  0  0
  144.4119  133.0769  151.8118 N   0  0  0  0  0  0  0  0  0  0  0  0
  148.2342  133.8563  153.5292 N   0  0  0  0  0  0  0  0  0  0  0  0
  148.9639  134.2015  154.5995 C   0  0  0  0  0  0  0  0  0  0  0  0
  149.0869  133.5027  155.6055 O   0  0  0  0  0  0  0  0  0  0  0  0
  149.5355  135.4037  154.4433 N   0  0  0  0  0  0  0  0  0  0  0  0
  150.3806  136.0728  155.4272 C   0  0  0  0  0  0  0  0  0  0  0  0
  151.1070  137.2907  154.8259 C   0  0  2  0  0  0  0  0  0  0  0  0
  152.0233  138.0000  155.8021 C   0  0  0  0  0  0  0  0  0  0  0  0
  152.2185  139.3589  155.1336 C   0  0  0  0  0  0  0  0  0  0  0  0
  151.0405  139.5950  154.3671 O   0  0  0  0  0  0  0  0  0  0  0  0
  150.2006  138.4459  154.3985 C   0  0  0  0  0  0  0  0  0  0  0  0
  147.8750  130.4771  153.6241 H   0  0  0  0  0  0  0  0  0  0  0  0
  148.9137  131.5031  154.5982 H   0  0  0  0  0  0  0  0  0  0  0  0
  149.1908  131.3672  152.8630 H   0  0  0  0  0  0  0  0  0  0  0  0
  146.7132  132.5879  154.1687 H   0  0  0  0  0  0  0  0  0  0  0  0
  147.4892  132.7971  151.2178 H   0  0  0  0  0  0  0  0  0  0  0  0
  146.3977  131.5685  151.8128 H   0  0  0  0  0  0  0  0  0  0  0  0
  146.6897  135.4243  151.9572 H   0  0  0  0  0  0  0  0  0  0  0  0
  144.1471  136.3920  151.7355 H   0  0  0  0  0  0  0  0  0  0  0  0
  142.6098  134.0868  151.6493 H   0  0  0  0  0  0  0  0  0  0  0  0
  148.1944  134.5012  152.7535 H   0  0  0  0  0  0  0  0  0  0  0  0
  149.3706  135.8975  153.5782 H   0  0  0  0  0  0  0  0  0  0  0  0
  149.8013  136.3628  156.3055 H   0  0  0  0  0  0  0  0  0  0  0  0
  151.1160  135.3469  155.7751 H   0  0  0  0  0  0  0  0  0  0  0  0
  151.6996  136.9728  153.9661 H   0  0  0  0  0  0  0  0  0  0  0  0
  151.5267  138.1270  156.7653 H   0  0  0  0  0  0  0  0  0  0  0  0
  152.9626  137.4725  155.9705 H   0  0  0  0  0  0  0  0  0  0  0  0
  152.3869  140.1555  155.8587 H   0  0  0  0  0  0  0  0  0  0  0  0
  153.0724  139.3327  154.4560 H   0  0  0  0  0  0  0  0  0  0  0  0
  149.7253  138.2743  153.4324 H   0  0  0  0  0  0  0  0  0  0  0  0
  149.4152  138.6136  155.1368 H   0  0  0  0  0  0  0  0  0  0  0  0
  1  2  1  0  0  0  0
  1 19  1  0  0  0  0
  1 20  1  0  0  0  0
  1 21  1  0  0  0  0
  2  3  1  0  0  0  0
  2  9  1  0  0  0  0
  2 22  1  0  0  0  0
  3  4  1  0  0  0  0
  3 23  1  0  0  0  0
  3 24  1  0  0  0  0
  4  8  1  0  0  0  0
  4  5  1  0  0  0  0
  5  6  2  0  0  0  0
  5 25  1  0  0  0  0
  6  7  1  0  0  0  0
  6 26  1  0  0  0  0
  7  8  2  0  0  0  0
  7 27  1  0  0  0  0
  9 10  1  0  0  0  0
  9 28  1  0  0  0  0
 10 11  2  0  0  0  0
 10 12  1  0  0  0  0
 12 13  1  0  0  0  0
 12 29  1  0  0  0  0
 13 14  1  0  0  0  0
 13 30  1  0  0  0  0
 13 31  1  0  0  0  0
 14 18  1  0  0  0  0
 14 15  1  0  0  0  0
 14 32  1  0  0  0  0
 15 16  1  0  0  0  0
 15 33  1  0  0  0  0
 15 34  1  0  0  0  0
 16 17  1  0  0  0  0
 16 35  1  0  0  0  0
 16 36  1  0  0  0  0
 17 18  1  0  0  0  0
 18 37  1  0  0  0  0
 18 38  1  0  0  0  0
M  END
> <s_m_source_file>
AV-unprocessed.smi

> <i_m_source_file_index>
3258

> <i_lp_mmshare_version>
43012

> <i_f3d_flags>
0

> <s_epik_input>
bjFbY0hdW2NIXVtjSF1uMVtDSDJdW0NAQEhdKFtDSDNdKVtOSF1DKD1PKVtOSF1bQ0gyXVtDQEBIXTJbQ0gyXVtDSDJdT1tDSDJdMg==

> <s_epik_cmdline>
J2VwaWtfcHl0aG9uJywgJy1waCcsICc3LjAnLCAnLXRuJywgJzgnLCAnLW1hJywgJzIwMCcsICctbWV0YWxfYmluZGluZycsICctaW1hZScsICc8aW5maWxlLm1hZT4nLCAnLW9tYWUnLCAnPG91dGZpbGUubWFlPic=

> <r_lp_tautomer_probability>
1

> <r_epik_Ionization_Penalty>
6.85079e-05

> <r_epik_Ionization_Penalty_Charging>
0

> <r_epik_Ionization_Penalty_Neutral>
6.85079e-05

> <r_epik_State_Penalty>
-0

> <r_epik_Charging_Adjusted_Penalty>
0

> <i_epik_Tot_Q>
0

> <i_epik_Tot_abs_Q>
0

> <r_epik_Metal_State_Penalty>
-0

> <b_epik_Metal_Only>
0

> <s_lp_Force_Field>
OPLS_2005

> <r_lp_Energy>
16.0555

> <b_lp_Chiralities_Consistent>
1

> <s_lp_Variant>
AV-unprocessed.smi:3258-1

> <Gold.Version>
5.8.1

> <Gold.Id.Protein>
6NUR|6NUR_protein|mol2

> <Gold.PLP.Fitness>
46.5617

> <Gold.PLP.PLP>
-31.9581

> <Gold.PLP.part.hbond>
-3.0000

> <Gold.PLP.part.metal>
0.0000

> <Gold.PLP.part.buried>
-2.5288

> <Gold.PLP.part.nonpolar>
-26.0667

> <Gold.PLP.part.repulsive>
0.2874

> <Gold.PLP.ligand.clash>
0.0000

> <Gold.PLP.ligand.torsion>
0.2108

> <Gold.PLP.Chemscore.Hbond>
2.9920

> <Gold.PLP.Chemscore.CHOScore>
2.0000

> <Gold.PLP.Chemscore.Metal>
0.0000

> <Gold.Chemscore.Hbonds>
donor molecule, donor type, donor heavy atom, donor atom, acceptor molecule, acceptor atom, score
      L1  H     9    28       P1  7948  0.92
      L1  H    12    29       P1  7948  1.00
      P1  H  7989  7998       L1    17  0.85
      L1  C     5    25       P1  7948  1.00
      L1  C     7    27       P1 10186  0.53

> <Gold.PLP.Chemscore.Internal.Correction>
0.0492

> <Gold.Rescore>
     Score         DG    S(hbond)    S(metal)    S(lipo)     H(rot)  DE(clash)    DE(int)     intcor
     16.41     -16.79       2.73        0.00      59.79       1.87       0.00       0.37       ----

> <Gold.Chemscore.Fitness>
16.4125

> <Gold.Chemscore.DG>
-16.7856

> <Gold.Chemscore.ZeroCoef>
-5.4800

> <Gold.Chemscore.Hbond>
2.7256

> <Gold.Chemscore.Metal>
0.0000

> <Gold.Chemscore.Lipo>
59.7887

> <Gold.Chemscore.Internal_Hbond>
0.0000

> <Gold.Chemscore.DEClash>
0.0000

> <Gold.Chemscore.DEInternal>
0.3731

> <Gold.Chemscore.Rot>
1.8724

> <Gold.Chemscore.Internal.Correction>
   9.000000E+99

> <Gold.Chemscore.Hbonds>
donor molecule, donor type, donor heavy atom, donor atom, acceptor molecule, acceptor atom, score
      L1  H     9    28       P1  7948  0.33
      L1  H    12    29       P1  7948  0.55
      P1  H  7989  7998       L1    17  0.15

> <Gold.Chemscore.Hbond.Weighted>
-9.1035

> <Gold.Chemscore.Metal.Weighted>
-0.0000

> <Gold.Chemscore.Lipo.Weighted>
-6.9953

> <Gold.Chemscore.Internal_Hbond.Weighted>
0.0000

> <Gold.Chemscore.DEClash.Weighted>
0.0000

> <Gold.Chemscore.DEInternal.Weighted>
0.3731

> <Gold.Chemscore.Rot.Weighted>
4.7933

> <Gold.Chemscore.Internal.Correction.Weighted>
   9.000000E+99

> <Gold.Protein.RotatedTorsions>
[ 6907 6896 6895 6894 ] final  -28.16 input  -60.11 | X-H torsion
[ 7974 7965 7964 7962 ] final -175.21 input  175.53 | X-H torsion
[ 8008 7997 7996 7995 ] final -142.89 input   59.86 | X-H torsion
[ 10167 10162 10161 10158 ] final -172.19 input  -65.29 | X-H torsion
[ 10718 10713 10712 10709 ] final  100.34 input   66.30 | X-H torsion
[ 10763 10752 10751 10750 ] final -167.76 input  -60.55 | X-H torsion
[ 11005 11000 10999 10996 ] final -145.85 input  -57.11 | X-H torsion

> <Gold.Protein.ActiveResidues>
 VAL166  LYS551  ARG553  GLY616  TRP617  ASP618  TYR619  PRO620  LYS621  CYS622 
 ASP623  PHE694  ASN695  SER759  ASP760  ASP761  ALA762  ILE779  LEU786  VAL792 
 PHE793  MET794  SER795  GLU796  ALA797  LYS798  CYS799  TRP800  GLU811  SER814 

> <Gold.Protein.RotatedAtoms>
  151.1369  135.0159  159.8607 H   0  0  0  0  0  0  0  0  0  0  0  0  # atno 6907 bound_to 6896
  152.5452  134.1545  159.8542 H   0  0  0  0  0  0  0  0  0  0  0  0  # atno 6908 bound_to 6896
  151.1617  133.4795  159.2627 H   0  0  0  0  0  0  0  0  0  0  0  0  # atno 6909 bound_to 6896
  144.7129  140.1355  143.6395 H   0  0  0  0  0  0  0  0  0  0  0  0  # atno 7974 bound_to 7965
  155.5017  140.0576  157.2938 H   0  0  0  0  0  0  0  0  0  0  0  0  # atno 8008 bound_to 7997
  154.4584  140.1984  156.0262 H   0  0  0  0  0  0  0  0  0  0  0  0  # atno 8009 bound_to 7997
  156.0844  140.3242  155.7739 H   0  0  0  0  0  0  0  0  0  0  0  0  # atno 8010 bound_to 7997
  139.5758  144.1535  152.1449 H   0  0  0  0  0  0  0  0  0  0  0  0  # atno 10167 bound_to 10162
  157.6856  131.0695  150.5086 H   0  0  0  0  0  0  0  0  0  0  0  0  # atno 10718 bound_to 10713
  154.6699  135.2937  154.9756 H   0  0  0  0  0  0  0  0  0  0  0  0  # atno 10763 bound_to 10752
  154.0786  135.6608  153.4838 H   0  0  0  0  0  0  0  0  0  0  0  0  # atno 10764 bound_to 10752
  153.0480  135.5192  154.7690 H   0  0  0  0  0  0  0  0  0  0  0  0  # atno 10765 bound_to 10752
  140.7880  134.3002  157.5023 H   0  0  0  0  0  0  0  0  0  0  0  0  # atno 11005 bound_to 11000
  145.9249  139.2569  143.1360 LP  0  0  0  0  0  0  0  0  0  0  0  0  # atno 17320 bound_to 7965
  145.9583  140.8855  143.0224 LP  0  0  0  0  0  0  0  0  0  0  0  0  # atno 17321 bound_to 7965
  140.1077  144.5484  150.6945 LP  0  0  0  0  0  0  0  0  0  0  0  0  # atno 17342 bound_to 10162
  140.7041  143.2455  151.4778 LP  0  0  0  0  0  0  0  0  0  0  0  0  # atno 17343 bound_to 10162
  156.5404  130.4206  149.6157 LP  0  0  0  0  0  0  0  0  0  0  0  0  # atno 17370 bound_to 10713
  156.2990  130.7166  151.2033 LP  0  0  0  0  0  0  0  0  0  0  0  0  # atno 17371 bound_to 10713
  139.8734  134.9358  156.3642 LP  0  0  0  0  0  0  0  0  0  0  0  0  # atno 17394 bound_to 11000
  140.9417  133.7510  156.0156 LP  0  0  0  0  0  0  0  0  0  0  0  0  # atno 17395 bound_to 11000

$$$$
