AV-unprocessed.smi:2686|AV-procd|sdf|10384|dock6
  -GOLD-   2272014413D 1   1.00000     0.00000
 Structure written by MMmdl.
 32 32  0  0  0  0  0  0  0  0  1 V2000
  146.4256  138.6936  151.6017 C   0  0  0  0  0  0  0  0  0  0  0  0
  147.6508  138.5020  152.3627 N   0  0  0  0  0  0  0  0  0  0  0  0
  147.8833  139.0413  153.5674 C   0  0  0  0  0  0  0  0  0  0  0  0
  147.0626  139.7426  154.1608 O   0  0  0  0  0  0  0  0  0  0  0  0
  149.2423  138.7180  154.2017 C   0  0  0  0  0  0  0  0  0  0  0  0
  149.9821  139.9133  154.5996 N   0  0  0  0  0  0  0  0  0  0  0  0
  150.1842  140.3102  155.8658 C   0  0  0  0  0  0  0  0  0  0  0  0
  149.7372  139.7018  156.8396 O   0  0  0  0  0  0  0  0  0  0  0  0
  151.0231  141.5846  156.0402 C   0  0  0  0  0  0  0  0  0  0  0  0
  151.5355  141.7699  157.4083 N   0  0  0  0  0  0  0  0  0  0  0  0
  151.2795  143.0122  158.0209 C   0  0  0  0  0  0  0  0  0  0  0  0
  151.6845  143.3113  159.2701 C   0  0  0  0  0  0  0  0  0  0  0  0
  151.4466  144.6836  159.8809 C   0  0  0  0  0  0  0  0  0  0  0  0
  150.1434  144.9525  159.9646 F   0  0  0  0  0  0  0  0  0  0  0  0
  151.9705  144.7644  161.1046 F   0  0  0  0  0  0  0  0  0  0  0  0
  152.0157  145.6208  159.1239 F   0  0  0  0  0  0  0  0  0  0  0  0
  152.4416  142.2883  159.9644 C   0  0  0  0  0  0  0  0  0  0  0  0
  152.7077  141.1001  159.3875 C   0  0  0  0  0  0  0  0  0  0  0  0
  152.2455  140.7839  158.0340 C   0  0  0  0  0  0  0  0  0  0  0  0
  152.4837  139.7021  157.4965 O   0  0  0  0  0  0  0  0  0  0  0  0
  146.4512  138.0869  150.6966 H   0  0  0  0  0  0  0  0  0  0  0  0
  146.3135  139.7383  151.3092 H   0  0  0  0  0  0  0  0  0  0  0  0
  145.5513  138.4001  152.1846 H   0  0  0  0  0  0  0  0  0  0  0  0
  148.3723  137.9340  151.9426 H   0  0  0  0  0  0  0  0  0  0  0  0
  149.0730  138.1085  155.0895 H   0  0  0  0  0  0  0  0  0  0  0  0
  149.8451  138.1164  153.5188 H   0  0  0  0  0  0  0  0  0  0  0  0
  150.3881  140.4652  153.8579 H   0  0  0  0  0  0  0  0  0  0  0  0
  151.8535  141.5512  155.3332 H   0  0  0  0  0  0  0  0  0  0  0  0
  150.4243  142.4437  155.7330 H   0  0  0  0  0  0  0  0  0  0  0  0
  150.7390  143.7138  157.4019 H   0  0  0  0  0  0  0  0  0  0  0  0
  152.7997  142.4766  160.9658 H   0  0  0  0  0  0  0  0  0  0  0  0
  153.2741  140.3615  159.9353 H   0  0  0  0  0  0  0  0  0  0  0  0
  1  2  1  0  0  0  0
  1 21  1  0  0  0  0
  1 22  1  0  0  0  0
  1 23  1  0  0  0  0
  2  3  1  0  0  0  0
  2 24  1  0  0  0  0
  3  4  2  0  0  0  0
  3  5  1  0  0  0  0
  5  6  1  0  0  0  0
  5 25  1  0  0  0  0
  5 26  1  0  0  0  0
  6  7  1  0  0  0  0
  6 27  1  0  0  0  0
  7  8  2  0  0  0  0
  7  9  1  0  0  0  0
  9 10  1  0  0  0  0
  9 28  1  0  0  0  0
  9 29  1  0  0  0  0
 10 19  1  0  0  0  0
 10 11  1  0  0  0  0
 11 12  2  0  0  0  0
 11 30  1  0  0  0  0
 12 13  1  0  0  0  0
 12 17  1  0  0  0  0
 13 14  1  0  0  0  0
 13 15  1  0  0  0  0
 13 16  1  0  0  0  0
 17 18  2  0  0  0  0
 17 31  1  0  0  0  0
 18 19  1  0  0  0  0
 18 32  1  0  0  0  0
 19 20  2  0  0  0  0
M  END
> <s_m_source_file>
AV-unprocessed.smi

> <i_m_source_file_index>
2686

> <i_lp_mmshare_version>
43012

> <i_f3d_flags>
0

> <s_epik_input>
W0NIM11bTkhdQyg9TylbQ0gyXVtOSF1DKD1PKVtDSDJdbjFbY0hdYyhDKEYpKEYpRilbY0hdW2NIXWMxPU8=

> <s_epik_cmdline>
J2VwaWtfcHl0aG9uJywgJy1waCcsICc3LjAnLCAnLXRuJywgJzgnLCAnLW1hJywgJzIwMCcsICctbWV0YWxfYmluZGluZycsICctaW1hZScsICc8aW5maWxlLm1hZT4nLCAnLW9tYWUnLCAnPG91dGZpbGUubWFlPic=

> <r_lp_tautomer_probability>
1

> <r_epik_Ionization_Penalty>
8.267e-08

> <r_epik_Ionization_Penalty_Charging>
1.5129e-08

> <r_epik_Ionization_Penalty_Neutral>
6.7541e-08

> <r_epik_State_Penalty>
-0

> <r_epik_Charging_Adjusted_Penalty>
1.5129e-08

> <i_epik_Tot_Q>
0

> <i_epik_Tot_abs_Q>
0

> <r_epik_Metal_State_Penalty>
-0

> <b_epik_Metal_Only>
0

> <s_lp_Force_Field>
OPLS_2005

> <r_lp_Energy>
10.5627

> <b_lp_Chiralities_Consistent>
1

> <s_lp_Variant>
AV-unprocessed.smi:2686-1

> <Gold.Version>
5.8.1

> <Gold.Id.Protein>
6NUR|6NUR_protein|mol2

> <Gold.PLP.Fitness>
48.2877

> <Gold.PLP.PLP>
-42.0570

> <Gold.PLP.part.hbond>
-3.0000

> <Gold.PLP.part.metal>
0.0000

> <Gold.PLP.part.buried>
-2.6342

> <Gold.PLP.part.nonpolar>
-36.5951

> <Gold.PLP.part.repulsive>
0.5121

> <Gold.PLP.ligand.clash>
0.0000

> <Gold.PLP.ligand.torsion>
0.3746

> <Gold.PLP.Chemscore.Hbond>
1.7680

> <Gold.PLP.Chemscore.CHOScore>
0.5435

> <Gold.PLP.Chemscore.Metal>
0.0000

> <Gold.Chemscore.Hbonds>
donor molecule, donor type, donor heavy atom, donor atom, acceptor molecule, acceptor atom, score
      L1  H     2    24       P1  7948  0.86
      P1  H  7997  8009       L1    20  0.81
      L1  C    11    30       P1  8028  0.54

> <Gold.PLP.Chemscore.Internal.Correction>
0.0455

> <Gold.Rescore>
     Score         DG    S(hbond)    S(metal)    S(lipo)     H(rot)  DE(clash)    DE(int)     intcor
     12.46     -14.22       1.89        0.00      71.44       2.32       0.52       1.24       ----

> <Gold.Chemscore.Fitness>
12.4620

> <Gold.Chemscore.DG>
-14.2206

> <Gold.Chemscore.ZeroCoef>
-5.4800

> <Gold.Chemscore.Hbond>
1.8914

> <Gold.Chemscore.Metal>
0.0000

> <Gold.Chemscore.Lipo>
71.4394

> <Gold.Chemscore.Internal_Hbond>
0.0000

> <Gold.Chemscore.DEClash>
0.5228

> <Gold.Chemscore.DEInternal>
1.2358

> <Gold.Chemscore.Rot>
2.3184

> <Gold.Chemscore.Internal.Correction>
   9.000000E+99

> <Gold.Chemscore.Hbonds>
donor molecule, donor type, donor heavy atom, donor atom, acceptor molecule, acceptor atom, score
      L1  H     2    24       P1  7948  0.85
      P1  H  7997  8009       L1    20  0.21

> <Gold.Chemscore.Hbond.Weighted>
-6.3173

> <Gold.Chemscore.Metal.Weighted>
-0.0000

> <Gold.Chemscore.Lipo.Weighted>
-8.3584

> <Gold.Chemscore.Internal_Hbond.Weighted>
0.0000

> <Gold.Chemscore.DEClash.Weighted>
0.5228

> <Gold.Chemscore.DEInternal.Weighted>
1.2358

> <Gold.Chemscore.Rot.Weighted>
5.9352

> <Gold.Chemscore.Internal.Correction.Weighted>
   9.000000E+99

> <Gold.Protein.RotatedTorsions>
[ 6907 6896 6895 6894 ] final -127.45 input  -60.11 | X-H torsion
[ 7974 7965 7964 7962 ] final  -93.41 input  175.53 | X-H torsion
[ 8008 7997 7996 7995 ] final  169.34 input   59.86 | X-H torsion
[ 10167 10162 10161 10158 ] final    1.91 input  -65.29 | X-H torsion
[ 10718 10713 10712 10709 ] final  179.46 input   66.30 | X-H torsion
[ 10763 10752 10751 10750 ] final  -41.52 input  -60.55 | X-H torsion
[ 11005 11000 10999 10996 ] final  -11.39 input  -57.11 | X-H torsion

> <Gold.Protein.ActiveResidues>
 VAL166  LYS551  ARG553  GLY616  TRP617  ASP618  TYR619  PRO620  LYS621  CYS622 
 ASP623  PHE694  ASN695  SER759  ASP760  ASP761  ALA762  ILE779  LEU786  VAL792 
 PHE793  MET794  SER795  GLU796  ALA797  LYS798  CYS799  TRP800  GLU811  SER814 

> <Gold.Protein.RotatedAtoms>
  150.9074  133.7040  159.2863 H   0  0  0  0  0  0  0  0  0  0  0  0  # atno 6907 bound_to 6896
  151.4538  135.1031  159.9715 H   0  0  0  0  0  0  0  0  0  0  0  0  # atno 6908 bound_to 6896
  152.4911  133.8454  159.7229 H   0  0  0  0  0  0  0  0  0  0  0  0  # atno 6909 bound_to 6896
  145.3870  140.9524  143.2362 H   0  0  0  0  0  0  0  0  0  0  0  0  # atno 7974 bound_to 7965
  156.1466  140.1567  156.8836 H   0  0  0  0  0  0  0  0  0  0  0  0  # atno 8008 bound_to 7997
  154.5034  140.0819  156.7882 H   0  0  0  0  0  0  0  0  0  0  0  0  # atno 8009 bound_to 7997
  155.3976  140.3413  155.4257 H   0  0  0  0  0  0  0  0  0  0  0  0  # atno 8010 bound_to 7997
  140.6660  143.7178  150.7828 H   0  0  0  0  0  0  0  0  0  0  0  0  # atno 10167 bound_to 10162
  156.8754  130.9798  151.3068 H   0  0  0  0  0  0  0  0  0  0  0  0  # atno 10718 bound_to 10713
  153.9639  135.6736  153.4745 H   0  0  0  0  0  0  0  0  0  0  0  0  # atno 10763 bound_to 10752
  153.0825  135.4916  154.8528 H   0  0  0  0  0  0  0  0  0  0  0  0  # atno 10764 bound_to 10752
  154.7257  135.3127  154.8935 H   0  0  0  0  0  0  0  0  0  0  0  0  # atno 10765 bound_to 10752
  140.7547  133.8563  155.9074 H   0  0  0  0  0  0  0  0  0  0  0  0  # atno 11005 bound_to 11000
  144.8467  139.5385  143.6875 LP  0  0  0  0  0  0  0  0  0  0  0  0  # atno 17320 bound_to 7965
  146.2815  139.6891  142.9225 LP  0  0  0  0  0  0  0  0  0  0  0  0  # atno 17321 bound_to 7965
  140.0855  143.4928  152.2507 LP  0  0  0  0  0  0  0  0  0  0  0  0  # atno 17342 bound_to 10162
  139.5909  144.7550  151.3402 LP  0  0  0  0  0  0  0  0  0  0  0  0  # atno 17343 bound_to 10162
  157.6171  130.8627  149.9047 LP  0  0  0  0  0  0  0  0  0  0  0  0  # atno 17370 bound_to 10713
  156.0705  130.3686  150.0787 LP  0  0  0  0  0  0  0  0  0  0  0  0  # atno 17371 bound_to 10713
  140.9718  134.1521  157.4570 LP  0  0  0  0  0  0  0  0  0  0  0  0  # atno 17394 bound_to 11000
  139.8781  134.9981  156.5882 LP  0  0  0  0  0  0  0  0  0  0  0  0  # atno 17395 bound_to 11000

$$$$
