AV-unprocessed.smi:1294|AV-procd|sdf|5400|dock9
  -GOLD-   22720 4563D 1   1.00000     0.00000
 Structure written by MMmdl.
 45 46  0  0  0  0  0  0  0  0  1 V2000
  145.8781  139.6414  157.8672 C   0  0  0  0  0  0  0  0  0  0  0  0
  146.0432  140.5919  156.7159 C   0  0  0  0  0  0  0  0  0  0  0  0
  145.1767  141.5791  156.5589 N   0  0  0  0  0  0  0  0  0  0  0  0
  145.6004  142.2373  155.4613 N   0  0  0  0  0  0  0  0  0  0  0  0
  144.8666  143.4004  155.0017 C   0  0  0  0  0  0  0  0  0  0  0  0
  146.7362  141.6638  154.9233 C   0  0  0  0  0  0  0  0  0  0  0  0
  147.4050  142.2116  153.7042 C   0  0  0  0  0  0  0  0  0  0  0  0
  147.0533  140.5886  155.7098 C   0  0  0  0  0  0  0  0  0  0  0  0
  148.1997  139.6195  155.5653 C   0  0  0  0  0  0  0  0  0  0  0  0
  149.5305  140.3741  155.5933 C   0  0  0  0  0  0  0  0  0  0  0  0
  150.2367  140.4172  154.5856 O   0  0  0  0  0  0  0  0  0  0  0  0
  149.8598  140.9600  156.7552 N   0  0  0  0  0  0  0  0  0  0  0  0
  151.0833  141.7135  157.0126 C   0  0  0  0  0  0  0  0  0  0  0  0
  150.9693  142.5826  158.2754 C   0  0  0  0  0  0  0  0  0  0  0  0
  152.2150  143.9034  158.3284 S   0  0  0  0  0  0  0  0  0  0  0  0
  153.0553  143.5025  159.8869 C   0  0  0  0  0  0  0  0  0  0  0  0
  153.4445  142.0277  159.9756 C   0  0  0  0  0  0  0  0  0  0  0  0
  153.6507  141.7762  161.4712 C   0  0  0  0  0  0  0  0  0  0  0  0
  152.7539  142.7888  162.2002 C   0  0  0  0  0  0  0  0  0  0  0  0
  152.1751  143.7146  161.1215 C   0  0  0  0  0  0  0  0  0  0  0  0
  146.8168  139.5182  158.4077 H   0  0  0  0  0  0  0  0  0  0  0  0
  145.5650  138.6578  157.5172 H   0  0  0  0  0  0  0  0  0  0  0  0
  145.1316  139.9939  158.5799 H   0  0  0  0  0  0  0  0  0  0  0  0
  144.6179  143.2853  153.9465 H   0  0  0  0  0  0  0  0  0  0  0  0
  145.4802  144.2924  155.1289 H   0  0  0  0  0  0  0  0  0  0  0  0
  143.9431  143.5228  155.5692 H   0  0  0  0  0  0  0  0  0  0  0  0
  148.3664  141.7288  153.5299 H   0  0  0  0  0  0  0  0  0  0  0  0
  147.5860  143.2817  153.8072 H   0  0  0  0  0  0  0  0  0  0  0  0
  146.7858  142.0553  152.8210 H   0  0  0  0  0  0  0  0  0  0  0  0
  148.2056  138.8870  156.3729 H   0  0  0  0  0  0  0  0  0  0  0  0
  148.1136  139.0456  154.6414 H   0  0  0  0  0  0  0  0  0  0  0  0
  149.2127  140.8713  157.5252 H   0  0  0  0  0  0  0  0  0  0  0  0
  151.8839  140.9869  157.1516 H   0  0  0  0  0  0  0  0  0  0  0  0
  151.3721  142.3200  156.1524 H   0  0  0  0  0  0  0  0  0  0  0  0
  149.9733  143.0208  158.3484 H   0  0  0  0  0  0  0  0  0  0  0  0
  151.1037  141.9553  159.1565 H   0  0  0  0  0  0  0  0  0  0  0  0
  153.9563  144.1116  159.9719 H   0  0  0  0  0  0  0  0  0  0  0  0
  152.6263  141.4036  159.6125 H   0  0  0  0  0  0  0  0  0  0  0  0
  154.3302  141.7903  159.3855 H   0  0  0  0  0  0  0  0  0  0  0  0
  153.4192  140.7465  161.7447 H   0  0  0  0  0  0  0  0  0  0  0  0
  154.6938  141.9573  161.7338 H   0  0  0  0  0  0  0  0  0  0  0  0
  151.9555  142.2918  162.7526 H   0  0  0  0  0  0  0  0  0  0  0  0
  153.3422  143.3582  162.9208 H   0  0  0  0  0  0  0  0  0  0  0  0
  152.1510  144.7564  161.4425 H   0  0  0  0  0  0  0  0  0  0  0  0
  151.1493  143.4144  160.9024 H   0  0  0  0  0  0  0  0  0  0  0  0
  1  2  1  0  0  0  0
  1 21  1  0  0  0  0
  1 22  1  0  0  0  0
  1 23  1  0  0  0  0
  2  8  1  0  0  0  0
  2  3  2  0  0  0  0
  3  4  1  0  0  0  0
  4  5  1  0  0  0  0
  4  6  1  0  0  0  0
  5 24  1  0  0  0  0
  5 25  1  0  0  0  0
  5 26  1  0  0  0  0
  6  7  1  0  0  0  0
  6  8  2  0  0  0  0
  7 27  1  0  0  0  0
  7 28  1  0  0  0  0
  7 29  1  0  0  0  0
  8  9  1  0  0  0  0
  9 10  1  0  0  0  0
  9 30  1  0  0  0  0
  9 31  1  0  0  0  0
 10 11  2  0  0  0  0
 10 12  1  0  0  0  0
 12 13  1  0  0  0  0
 12 32  1  0  0  0  0
 13 14  1  0  0  0  0
 13 33  1  0  0  0  0
 13 34  1  0  0  0  0
 14 15  1  0  0  0  0
 14 35  1  0  0  0  0
 14 36  1  0  0  0  0
 15 16  1  0  0  0  0
 16 20  1  0  0  0  0
 16 17  1  0  0  0  0
 16 37  1  0  0  0  0
 17 18  1  0  0  0  0
 17 38  1  0  0  0  0
 17 39  1  0  0  0  0
 18 19  1  0  0  0  0
 18 40  1  0  0  0  0
 18 41  1  0  0  0  0
 19 20  1  0  0  0  0
 19 42  1  0  0  0  0
 19 43  1  0  0  0  0
 20 44  1  0  0  0  0
 20 45  1  0  0  0  0
M  END
> <s_m_source_file>
AV-unprocessed.smi

> <i_m_source_file_index>
1294

> <i_lp_mmshare_version>
43012

> <i_f3d_flags>
0

> <s_epik_input>
W0NIM11jMW5uKFtDSDNdKWMoW0NIM10pYzFbQ0gyXUMoPU8pW05IXVtDSDJdW0NIMl1TW0NIXTJbQ0gyXVtDSDJdW0NIMl1bQ0gyXTI=

> <s_epik_cmdline>
J2VwaWtfcHl0aG9uJywgJy1waCcsICc3LjAnLCAnLXRuJywgJzgnLCAnLW1hJywgJzIwMCcsICctbWV0YWxfYmluZGluZycsICctaW1hZScsICc8aW5maWxlLm1hZT4nLCAnLW9tYWUnLCAnPG91dGZpbGUubWFlPic=

> <r_lp_tautomer_probability>
1

> <r_epik_Ionization_Penalty>
0.00302432

> <r_epik_Ionization_Penalty_Charging>
0

> <r_epik_Ionization_Penalty_Neutral>
0.00302432

> <r_epik_State_Penalty>
0.0021246

> <r_epik_Charging_Adjusted_Penalty>
0.0021246

> <i_epik_Tot_Q>
0

> <i_epik_Tot_abs_Q>
0

> <r_epik_Metal_State_Penalty>
-0

> <b_epik_Metal_Only>
0

> <s_lp_Force_Field>
OPLS_2005

> <r_lp_Energy>
15.1488

> <b_lp_Chiralities_Consistent>
1

> <s_lp_Variant>
AV-unprocessed.smi:1294-1

> <Gold.Version>
5.8.1

> <Gold.Id.Protein>
6NUR|6NUR_protein|mol2

> <Gold.PLP.Fitness>
42.7331

> <Gold.PLP.PLP>
-41.1816

> <Gold.PLP.part.hbond>
-1.0000

> <Gold.PLP.part.metal>
0.0000

> <Gold.PLP.part.buried>
-6.8629

> <Gold.PLP.part.nonpolar>
-33.6041

> <Gold.PLP.part.repulsive>
0.1459

> <Gold.PLP.ligand.clash>
0.0000

> <Gold.PLP.ligand.torsion>
0.6630

> <Gold.PLP.Chemscore.Hbond>
0.9440

> <Gold.PLP.Chemscore.CHOScore>
0.0000

> <Gold.PLP.Chemscore.Metal>
0.0000

> <Gold.Chemscore.Hbonds>
donor molecule, donor type, donor heavy atom, donor atom, acceptor molecule, acceptor atom, score
      P1  H  7989  7998       L1    11  0.98

> <Gold.PLP.Chemscore.Internal.Correction>
0.0454

> <Gold.Rescore>
     Score         DG    S(hbond)    S(metal)    S(lipo)     H(rot)  DE(clash)    DE(int)     intcor
     16.87     -17.66       0.99        0.00     110.37       1.58       0.11       0.67       ----

> <Gold.Chemscore.Fitness>
16.8702

> <Gold.Chemscore.DG>
-17.6564

> <Gold.Chemscore.ZeroCoef>
-5.4800

> <Gold.Chemscore.Hbond>
0.9886

> <Gold.Chemscore.Metal>
0.0000

> <Gold.Chemscore.Lipo>
110.3695

> <Gold.Chemscore.Internal_Hbond>
0.0000

> <Gold.Chemscore.DEClash>
0.1131

> <Gold.Chemscore.DEInternal>
0.6731

> <Gold.Chemscore.Rot>
1.5776

> <Gold.Chemscore.Internal.Correction>
   9.000000E+99

> <Gold.Chemscore.Hbonds>
donor molecule, donor type, donor heavy atom, donor atom, acceptor molecule, acceptor atom, score
      P1  H  7989  7998       L1    11  0.93

> <Gold.Chemscore.Hbond.Weighted>
-3.3019

> <Gold.Chemscore.Metal.Weighted>
-0.0000

> <Gold.Chemscore.Lipo.Weighted>
-12.9132

> <Gold.Chemscore.Internal_Hbond.Weighted>
0.0000

> <Gold.Chemscore.DEClash.Weighted>
0.1131

> <Gold.Chemscore.DEInternal.Weighted>
0.6731

> <Gold.Chemscore.Rot.Weighted>
4.0387

> <Gold.Chemscore.Internal.Correction.Weighted>
   9.000000E+99

> <Gold.Protein.RotatedTorsions>
[ 6907 6896 6895 6894 ] final  160.72 input  -60.11 | X-H torsion
[ 7974 7965 7964 7962 ] final  -50.79 input  175.53 | X-H torsion
[ 8008 7997 7996 7995 ] final -114.65 input   59.86 | X-H torsion
[ 10167 10162 10161 10158 ] final -177.85 input  -65.29 | X-H torsion
[ 10718 10713 10712 10709 ] final -171.73 input   66.30 | X-H torsion
[ 10763 10752 10751 10750 ] final   -8.51 input  -60.55 | X-H torsion
[ 11005 11000 10999 10996 ] final   11.42 input  -57.11 | X-H torsion

> <Gold.Protein.ActiveResidues>
 VAL166  LYS551  ARG553  GLY616  TRP617  ASP618  TYR619  PRO620  LYS621  CYS622 
 ASP623  PHE694  ASN695  SER759  ASP760  ASP761  ALA762  ILE779  LEU786  VAL792 
 PHE793  MET794  SER795  GLU796  ALA797  LYS798  CYS799  TRP800  GLU811  SER814 

> <Gold.Protein.RotatedAtoms>
  151.9664  133.3712  159.4054 H   0  0  0  0  0  0  0  0  0  0  0  0  # atno 6907 bound_to 6896
  150.6956  134.4186  159.5204 H   0  0  0  0  0  0  0  0  0  0  0  0  # atno 6908 bound_to 6896
  152.1883  134.8694  160.0571 H   0  0  0  0  0  0  0  0  0  0  0  0  # atno 6909 bound_to 6896
  145.9260  140.7791  142.9623 H   0  0  0  0  0  0  0  0  0  0  0  0  # atno 7974 bound_to 7965
  155.0396  140.0392  157.2504 H   0  0  0  0  0  0  0  0  0  0  0  0  # atno 8008 bound_to 7997
  154.7228  140.2715  155.6502 H   0  0  0  0  0  0  0  0  0  0  0  0  # atno 8009 bound_to 7997
  156.2821  140.2699  156.1904 H   0  0  0  0  0  0  0  0  0  0  0  0  # atno 8010 bound_to 7997
  139.5460  144.2234  152.0989 H   0  0  0  0  0  0  0  0  0  0  0  0  # atno 10167 bound_to 10162
  156.7451  130.9357  151.3112 H   0  0  0  0  0  0  0  0  0  0  0  0  # atno 10718 bound_to 10713
  153.4415  135.7014  153.6166 H   0  0  0  0  0  0  0  0  0  0  0  0  # atno 10763 bound_to 10752
  153.4538  135.3752  155.2299 H   0  0  0  0  0  0  0  0  0  0  0  0  # atno 10764 bound_to 10752
  154.8727  135.4003  154.3815 H   0  0  0  0  0  0  0  0  0  0  0  0  # atno 10765 bound_to 10752
  140.5034  134.0723  155.7799 H   0  0  0  0  0  0  0  0  0  0  0  0  # atno 11005 bound_to 11000
  144.6758  140.2052  143.7383 LP  0  0  0  0  0  0  0  0  0  0  0  0  # atno 17320 bound_to 7965
  145.8488  139.2165  143.1784 LP  0  0  0  0  0  0  0  0  0  0  0  0  # atno 17321 bound_to 7965
  140.1721  144.4926  150.6574 LP  0  0  0  0  0  0  0  0  0  0  0  0  # atno 17342 bound_to 10162
  140.6708  143.2285  151.5629 LP  0  0  0  0  0  0  0  0  0  0  0  0  # atno 17343 bound_to 10162
  157.6801  130.9132  150.0247 LP  0  0  0  0  0  0  0  0  0  0  0  0  # atno 17370 bound_to 10713
  156.1438  130.3642  149.9541 LP  0  0  0  0  0  0  0  0  0  0  0  0  # atno 17371 bound_to 10713
  141.1424  133.9115  157.2296 LP  0  0  0  0  0  0  0  0  0  0  0  0  # atno 17394 bound_to 11000
  139.9700  135.0131  156.9487 LP  0  0  0  0  0  0  0  0  0  0  0  0  # atno 17395 bound_to 11000

$$$$
