AV-unprocessed.smi:3336|AV-procd|sdf|12856|dock6
  -GOLD-   2272019253D 1   1.00000     0.00000
 Structure written by MMmdl.
 42 43  0  0  0  0  0  0  0  0  2 V2000
  144.0067  136.3641  153.0757 C   0  0  0  0  0  0  0  0  0  0  0  0
  145.4494  136.0116  152.6630 C   0  0  1  0  0  0  0  0  0  0  0  0
  145.5822  135.7420  151.1500 C   0  0  0  0  0  0  0  0  0  0  0  0
  145.3516  134.3524  150.7978 N   0  0  0  0  0  0  0  0  0  0  0  0
  144.2645  133.8024  150.1516 C   0  0  0  0  0  0  0  0  0  0  0  0
  144.4929  132.4606  150.0427 C   0  0  0  0  0  0  0  0  0  0  0  0
  145.7611  132.2819  150.6627 C   0  0  0  0  0  0  0  0  0  0  0  0
  146.2718  133.4160  151.1149 N   0  0  0  0  0  0  0  0  0  0  0  0
  146.3864  137.0956  153.0405 N   0  3  0  0  0  0  0  0  0  0  0  0
  146.5348  137.3833  154.4896 C   0  0  1  0  0  0  0  0  0  0  0  0
  147.6661  136.5299  155.0978 C   0  0  0  0  0  0  0  0  0  0  0  0
  146.8243  138.8831  154.7103 C   0  0  0  0  0  0  0  0  0  0  0  0
  145.9993  139.5446  155.3437 O   0  0  0  0  0  0  0  0  0  0  0  0
  147.9541  139.4446  154.2091 N   0  0  0  0  0  0  0  0  0  0  0  0
  148.9475  138.6810  153.4451 C   0  0  0  0  0  0  0  0  0  0  0  0
  150.2741  138.6826  154.2240 C   0  0  0  0  0  0  0  0  0  0  0  0
  150.7019  140.0263  154.4255 O   0  0  0  0  0  0  0  0  0  0  0  0
  149.7542  140.8086  155.1460 C   0  0  0  0  0  0  0  0  0  0  0  0
  148.4101  140.8280  154.3936 C   0  0  0  0  0  0  0  0  0  0  0  0
  143.3159  135.5536  152.8431 H   0  0  0  0  0  0  0  0  0  0  0  0
  143.6553  137.2565  152.5572 H   0  0  0  0  0  0  0  0  0  0  0  0
  143.9210  136.5483  154.1459 H   0  0  0  0  0  0  0  0  0  0  0  0
  145.7402  135.0985  153.1820 H   0  0  0  0  0  0  0  0  0  0  0  0
  144.8856  136.3685  150.5898 H   0  0  0  0  0  0  0  0  0  0  0  0
  146.5824  136.0112  150.8077 H   0  0  0  0  0  0  0  0  0  0  0  0
  143.4285  134.4041  149.8260 H   0  0  0  0  0  0  0  0  0  0  0  0
  143.8512  131.7188  149.5906 H   0  0  0  0  0  0  0  0  0  0  0  0
  146.3217  131.3685  150.7967 H   0  0  0  0  0  0  0  0  0  0  0  0
  147.3039  136.8653  152.6865 H   0  0  0  0  0  0  0  0  0  0  0  0
  145.5851  137.1416  154.9618 H   0  0  0  0  0  0  0  0  0  0  0  0
  147.8250  136.7581  156.1515 H   0  0  0  0  0  0  0  0  0  0  0  0
  148.6121  136.7006  154.5820 H   0  0  0  0  0  0  0  0  0  0  0  0
  147.4469  135.4644  155.0389 H   0  0  0  0  0  0  0  0  0  0  0  0
  148.6416  137.6530  153.2474 H   0  0  0  0  0  0  0  0  0  0  0  0
  149.0864  139.1451  152.4677 H   0  0  0  0  0  0  0  0  0  0  0  0
  150.1634  138.1759  155.1840 H   0  0  0  0  0  0  0  0  0  0  0  0
  151.0419  138.1471  153.6656 H   0  0  0  0  0  0  0  0  0  0  0  0
  149.6316  140.4073  156.1531 H   0  0  0  0  0  0  0  0  0  0  0  0
  150.1424  141.8217  155.2514 H   0  0  0  0  0  0  0  0  0  0  0  0
  148.5368  141.2952  153.4158 H   0  0  0  0  0  0  0  0  0  0  0  0
  147.7134  141.4611  154.9377 H   0  0  0  0  0  0  0  0  0  0  0  0
  146.0791  137.9403  152.5792 H   0  0  0  0  0  0  0  0  0  0  0  0
  1  2  1  0  0  0  0
  1 20  1  0  0  0  0
  1 21  1  0  0  0  0
  1 22  1  0  0  0  0
  2  3  1  0  0  0  0
  2  9  1  0  0  0  0
  2 23  1  0  0  0  0
  3  4  1  0  0  0  0
  3 24  1  0  0  0  0
  3 25  1  0  0  0  0
  4  8  1  0  0  0  0
  4  5  1  0  0  0  0
  5  6  2  0  0  0  0
  5 26  1  0  0  0  0
  6  7  1  0  0  0  0
  6 27  1  0  0  0  0
  7  8  2  0  0  0  0
  7 28  1  0  0  0  0
  9 10  1  0  0  0  0
  9 29  1  0  0  0  0
  9 42  1  0  0  0  0
 10 11  1  0  0  0  0
 10 12  1  0  0  0  0
 10 30  1  0  0  0  0
 11 31  1  0  0  0  0
 11 32  1  0  0  0  0
 11 33  1  0  0  0  0
 12 13  2  0  0  0  0
 12 14  1  0  0  0  0
 14 19  1  0  0  0  0
 14 15  1  0  0  0  0
 15 16  1  0  0  0  0
 15 34  1  0  0  0  0
 15 35  1  0  0  0  0
 16 17  1  0  0  0  0
 16 36  1  0  0  0  0
 16 37  1  0  0  0  0
 17 18  1  0  0  0  0
 18 19  1  0  0  0  0
 18 38  1  0  0  0  0
 18 39  1  0  0  0  0
 19 40  1  0  0  0  0
 19 41  1  0  0  0  0
M  CHG  1   9   1
M  END
> <s_m_source_file>
AV-unprocessed.smi

> <i_m_source_file_index>
3336

> <i_lp_mmshare_version>
43012

> <i_f3d_flags>
0

> <s_epik_input>
bjFbY0hdW2NIXVtjSF1uMVtDSDJdW0NAQEhdKFtDSDNdKVtOSF1bQ0BIXShbQ0gzXSlDKD1PKU4yW0NIMl1bQ0gyXU9bQ0gyXVtDSDJdMg==

> <s_epik_cmdline>
J2VwaWtfcHl0aG9uJywgJy1waCcsICc3LjAnLCAnLXRuJywgJzgnLCAnLW1hJywgJzIwMCcsICctbWV0YWxfYmluZGluZycsICctaW1hZScsICc8aW5maWxlLm1hZT4nLCAnLW9tYWUnLCAnPG91dGZpbGUubWFlPic=

> <r_lp_tautomer_probability>
1

> <r_epik_Ionization_Penalty>
0.200288

> <r_epik_Ionization_Penalty_Charging>
0.200285

> <r_epik_Ionization_Penalty_Neutral>
3.37705e-06

> <r_epik_State_Penalty>
0.190126

> <r_epik_Charging_Adjusted_Penalty>
0.39041

> <i_epik_Tot_Q>
1

> <i_epik_Tot_abs_Q>
1

> <r_epik_Metal_State_Penalty>
0.190133

> <b_epik_Metal_Only>
0

> <s_lp_Force_Field>
OPLS_2005

> <r_lp_Energy>
28.672

> <b_lp_Chiralities_Consistent>
1

> <s_lp_Variant>
AV-unprocessed.smi:3336-4

> <Gold.Version>
5.8.1

> <Gold.Id.Protein>
6NUR|6NUR_protein|mol2

> <Gold.PLP.Fitness>
39.7751

> <Gold.PLP.PLP>
-26.5840

> <Gold.PLP.part.hbond>
-1.9338

> <Gold.PLP.part.metal>
0.0000

> <Gold.PLP.part.buried>
-0.4880

> <Gold.PLP.part.nonpolar>
-25.2788

> <Gold.PLP.part.repulsive>
0.3787

> <Gold.PLP.ligand.clash>
0.0000

> <Gold.PLP.ligand.torsion>
0.9482

> <Gold.PLP.Chemscore.Hbond>
3.0000

> <Gold.PLP.Chemscore.CHOScore>
2.0000

> <Gold.PLP.Chemscore.Metal>
0.0000

> <Gold.Chemscore.Hbonds>
donor molecule, donor type, donor heavy atom, donor atom, acceptor molecule, acceptor atom, score
      L1  H     9    29       P1  7948  2.00
      P1  H  7989  7998       L1    17  1.00
      L1  C     5    26       P1 10186  1.00
      L1  C     7    28       P1 10747  0.45

> <Gold.PLP.Chemscore.Internal.Correction>
0.0876

> <Gold.Rescore>
     Score         DG    S(hbond)    S(metal)    S(lipo)     H(rot)  DE(clash)    DE(int)     intcor
     12.18     -15.09       1.89        0.00      68.88       1.85       0.79       2.13       ----

> <Gold.Chemscore.Fitness>
12.1832

> <Gold.Chemscore.DG>
-15.0948

> <Gold.Chemscore.ZeroCoef>
-5.4800

> <Gold.Chemscore.Hbond>
1.8869

> <Gold.Chemscore.Metal>
0.0000

> <Gold.Chemscore.Lipo>
68.8802

> <Gold.Chemscore.Internal_Hbond>
0.0000

> <Gold.Chemscore.DEClash>
0.7850

> <Gold.Chemscore.DEInternal>
2.1266

> <Gold.Chemscore.Rot>
1.8541

> <Gold.Chemscore.Internal.Correction>
   9.000000E+99

> <Gold.Chemscore.Hbonds>
donor molecule, donor type, donor heavy atom, donor atom, acceptor molecule, acceptor atom, score
      L1  H     9    29       P1  7948  0.99
      P1  H  7989  7998       L1    17  0.85

> <Gold.Chemscore.Hbond.Weighted>
-6.3023

> <Gold.Chemscore.Metal.Weighted>
-0.0000

> <Gold.Chemscore.Lipo.Weighted>
-8.0590

> <Gold.Chemscore.Internal_Hbond.Weighted>
0.0000

> <Gold.Chemscore.DEClash.Weighted>
0.7850

> <Gold.Chemscore.DEInternal.Weighted>
2.1266

> <Gold.Chemscore.Rot.Weighted>
4.7465

> <Gold.Chemscore.Internal.Correction.Weighted>
   9.000000E+99

> <Gold.Protein.RotatedTorsions>
[ 6907 6896 6895 6894 ] final   76.57 input  -60.11 | X-H torsion
[ 7974 7965 7964 7962 ] final -129.09 input  175.53 | X-H torsion
[ 8008 7997 7996 7995 ] final   59.79 input   59.86 | X-H torsion
[ 10167 10162 10161 10158 ] final  -89.17 input  -65.29 | X-H torsion
[ 10718 10713 10712 10709 ] final  -53.99 input   66.30 | X-H torsion
[ 10763 10752 10751 10750 ] final  153.82 input  -60.55 | X-H torsion
[ 11005 11000 10999 10996 ] final   60.24 input  -57.11 | X-H torsion

> <Gold.Protein.ActiveResidues>
 VAL166  LYS551  ARG553  GLY616  TRP617  ASP618  TYR619  PRO620  LYS621  CYS622 
 ASP623  PHE694  ASN695  SER759  ASP760  ASP761  ALA762  ILE779  LEU786  VAL792 
 PHE793  MET794  SER795  GLU796  ALA797  LYS798  CYS799  TRP800  GLU811  SER814 

> <Gold.Protein.RotatedAtoms>
  152.5079  134.3948  159.9396 H   0  0  0  0  0  0  0  0  0  0  0  0  # atno 6907 bound_to 6896
  151.3910  133.3783  159.2728 H   0  0  0  0  0  0  0  0  0  0  0  0  # atno 6908 bound_to 6896
  150.9433  134.8861  159.7685 H   0  0  0  0  0  0  0  0  0  0  0  0  # atno 6909 bound_to 6896
  144.9606  140.7443  143.4731 H   0  0  0  0  0  0  0  0  0  0  0  0  # atno 7974 bound_to 7965
  155.5718  140.3490  155.4517 H   0  0  0  0  0  0  0  0  0  0  0  0  # atno 8008 bound_to 7997
  156.0438  140.1302  157.0151 H   0  0  0  0  0  0  0  0  0  0  0  0  # atno 8009 bound_to 7997
  154.4403  140.1018  156.6261 H   0  0  0  0  0  0  0  0  0  0  0  0  # atno 8010 bound_to 7997
  140.3675  143.2811  151.9541 H   0  0  0  0  0  0  0  0  0  0  0  0  # atno 10167 bound_to 10162
  156.1489  130.4152  149.9978 H   0  0  0  0  0  0  0  0  0  0  0  0  # atno 10718 bound_to 10713
  154.1424  135.2820  155.3157 H   0  0  0  0  0  0  0  0  0  0  0  0  # atno 10763 bound_to 10752
  154.6277  135.5446  153.7649 H   0  0  0  0  0  0  0  0  0  0  0  0  # atno 10764 bound_to 10752
  153.0246  135.6455  154.1571 H   0  0  0  0  0  0  0  0  0  0  0  0  # atno 10765 bound_to 10752
  140.0246  134.6102  155.9591 H   0  0  0  0  0  0  0  0  0  0  0  0  # atno 11005 bound_to 11000
  145.2705  139.1956  143.4844 LP  0  0  0  0  0  0  0  0  0  0  0  0  # atno 17320 bound_to 7965
  146.3352  140.2651  142.8603 LP  0  0  0  0  0  0  0  0  0  0  0  0  # atno 17321 bound_to 7965
  139.4807  144.5937  151.7727 LP  0  0  0  0  0  0  0  0  0  0  0  0  # atno 17342 bound_to 10162
  140.5067  144.1088  150.5984 LP  0  0  0  0  0  0  0  0  0  0  0  0  # atno 17343 bound_to 10162
  156.7842  130.9232  151.3646 LP  0  0  0  0  0  0  0  0  0  0  0  0  # atno 17370 bound_to 10713
  157.6640  130.8991  149.9891 LP  0  0  0  0  0  0  0  0  0  0  0  0  # atno 17371 bound_to 10713
  141.1795  133.6544  156.4962 LP  0  0  0  0  0  0  0  0  0  0  0  0  # atno 17394 bound_to 11000
  140.4328  134.7086  157.4951 LP  0  0  0  0  0  0  0  0  0  0  0  0  # atno 17395 bound_to 11000

$$$$
