AV-unprocessed.smi:1522|AV-procd|sdf|6134|dock4
  -GOLD-   22720 6273D 1   1.00000     0.00000
 Structure written by MMmdl.
 35 36  0  0  0  0  0  0  0  0  2 V2000
  149.5954  130.7147  154.1761 C   0  0  0  0  0  0  0  0  0  0  0  0
  149.1561  132.0495  153.5337 C   0  0  2  0  0  0  0  0  0  0  0  0
  148.7807  133.0865  154.6248 C   0  0  0  0  0  0  0  0  0  0  0  0
  149.2192  134.4404  154.2988 N   0  0  0  0  0  0  0  0  0  0  0  0
  150.0406  135.1810  155.0567 C   0  0  0  0  0  0  0  0  0  0  0  0
  150.5201  134.7831  156.1182 O   0  0  0  0  0  0  0  0  0  0  0  0
  150.2556  136.3874  154.5081 N   0  0  0  0  0  0  0  0  0  0  0  0
  151.0314  137.4543  155.0267 C   0  0  0  0  0  0  0  0  0  0  0  0
  152.0967  137.1493  155.7766 N   0  0  0  0  0  0  0  0  0  0  0  0
  152.7679  138.2847  156.2136 N   0  0  0  0  0  0  0  0  0  0  0  0
  152.1822  139.4030  155.7745 C   0  0  0  0  0  0  0  0  0  0  0  0
  150.7515  139.1813  154.7833 S   0  0  0  0  0  0  0  0  0  0  0  0
  148.0225  131.8496  152.5852 N   0  3  0  0  0  0  0  0  0  0  0  0
  146.8951  131.0383  153.1122 C   0  0  0  0  0  0  0  0  0  0  0  0
  145.5971  131.6487  152.5653 C   0  0  0  0  0  0  0  0  0  0  0  0
  146.0504  132.6627  151.5218 C   0  0  0  0  0  0  0  0  0  0  0  0
  147.4262  133.0824  152.0257 C   0  0  0  0  0  0  0  0  0  0  0  0
  150.4175  130.8569  154.8776 H   0  0  0  0  0  0  0  0  0  0  0  0
  149.9522  130.0006  153.4342 H   0  0  0  0  0  0  0  0  0  0  0  0
  148.7739  130.2494  154.7221 H   0  0  0  0  0  0  0  0  0  0  0  0
  149.9985  132.4341  152.9562 H   0  0  0  0  0  0  0  0  0  0  0  0
  147.7050  133.1103  154.8033 H   0  0  0  0  0  0  0  0  0  0  0  0
  149.2380  132.8060  155.5742 H   0  0  0  0  0  0  0  0  0  0  0  0
  148.8709  134.8401  153.4393 H   0  0  0  0  0  0  0  0  0  0  0  0
  149.8027  136.5713  153.6251 H   0  0  0  0  0  0  0  0  0  0  0  0
  152.5966  140.3655  156.0359 H   0  0  0  0  0  0  0  0  0  0  0  0
  147.0144  130.0038  152.7887 H   0  0  0  0  0  0  0  0  0  0  0  0
  146.8699  131.0445  154.2033 H   0  0  0  0  0  0  0  0  0  0  0  0
  144.9234  130.8989  152.1496 H   0  0  0  0  0  0  0  0  0  0  0  0
  145.0662  132.1613  153.3688 H   0  0  0  0  0  0  0  0  0  0  0  0
  146.1439  132.1786  150.5487 H   0  0  0  0  0  0  0  0  0  0  0  0
  145.3616  133.5015  151.4166 H   0  0  0  0  0  0  0  0  0  0  0  0
  147.3165  133.8300  152.8134 H   0  0  0  0  0  0  0  0  0  0  0  0
  148.0378  133.5093  151.2302 H   0  0  0  0  0  0  0  0  0  0  0  0
  148.3859  131.3389  151.7931 H   0  0  0  0  0  0  0  0  0  0  0  0
  1  2  1  0  0  0  0
  1 18  1  0  0  0  0
  1 19  1  0  0  0  0
  1 20  1  0  0  0  0
  2  3  1  0  0  0  0
  2 13  1  0  0  0  0
  2 21  1  0  0  0  0
  3  4  1  0  0  0  0
  3 22  1  0  0  0  0
  3 23  1  0  0  0  0
  4  5  1  0  0  0  0
  4 24  1  0  0  0  0
  5  6  2  0  0  0  0
  5  7  1  0  0  0  0
  7  8  1  0  0  0  0
  7 25  1  0  0  0  0
  8 12  1  0  0  0  0
  8  9  2  0  0  0  0
  9 10  1  0  0  0  0
 10 11  2  0  0  0  0
 11 12  1  0  0  0  0
 11 26  1  0  0  0  0
 13 17  1  0  0  0  0
 13 14  1  0  0  0  0
 13 35  1  0  0  0  0
 14 15  1  0  0  0  0
 14 27  1  0  0  0  0
 14 28  1  0  0  0  0
 15 16  1  0  0  0  0
 15 29  1  0  0  0  0
 15 30  1  0  0  0  0
 16 17  1  0  0  0  0
 16 31  1  0  0  0  0
 16 32  1  0  0  0  0
 17 33  1  0  0  0  0
 17 34  1  0  0  0  0
M  CHG  1  13   1
M  END
> <s_m_source_file>
AV-unprocessed.smi

> <i_m_source_file_index>
1522

> <i_lp_mmshare_version>
43012

> <i_f3d_flags>
0

> <s_epik_input>
W0NIMl0xW0NIMl1bQ0gyXVtDSDJdTjFbQ0BIXShbQ0gzXSlbQ0gyXVtOSF1DKD1PKVtOSF1jMm5uW2NIXXMy

> <s_epik_cmdline>
J2VwaWtfcHl0aG9uJywgJy1waCcsICc3LjAnLCAnLXRuJywgJzgnLCAnLW1hJywgJzIwMCcsICctbWV0YWxfYmluZGluZycsICctaW1hZScsICc8aW5maWxlLm1hZT4nLCAnLW9tYWUnLCAnPG91dGZpbGUubWFlPic=

> <r_lp_tautomer_probability>
1

> <r_epik_Ionization_Penalty>
0.00457064

> <r_epik_Ionization_Penalty_Charging>
0.000848324

> <r_epik_Ionization_Penalty_Neutral>
0.00372231

> <r_epik_State_Penalty>
-0

> <r_epik_Charging_Adjusted_Penalty>
0.000848324

> <i_epik_Tot_Q>
1

> <i_epik_Tot_abs_Q>
1

> <r_epik_Metal_State_Penalty>
0.370178

> <b_epik_Metal_Only>
0

> <s_lp_Force_Field>
OPLS_2005

> <r_lp_Energy>
27.0536

> <b_lp_Chiralities_Consistent>
1

> <s_lp_Variant>
AV-unprocessed.smi:1522-1

> <Gold.Version>
5.8.1

> <Gold.Id.Protein>
6NUR|6NUR_protein|mol2

> <Gold.PLP.Fitness>
41.2306

> <Gold.PLP.PLP>
-31.1676

> <Gold.PLP.part.hbond>
-5.1099

> <Gold.PLP.part.metal>
0.0000

> <Gold.PLP.part.buried>
-3.7157

> <Gold.PLP.part.nonpolar>
-23.0914

> <Gold.PLP.part.repulsive>
0.1479

> <Gold.PLP.ligand.clash>
0.0000

> <Gold.PLP.ligand.torsion>
0.8335

> <Gold.PLP.Chemscore.Hbond>
3.8960

> <Gold.PLP.Chemscore.CHOScore>
0.0000

> <Gold.PLP.Chemscore.Metal>
0.0000

> <Gold.Chemscore.Hbonds>
donor molecule, donor type, donor heavy atom, donor atom, acceptor molecule, acceptor atom, score
      L1  H     4    24       P1  7948  0.91
      L1  H     7    25       P1  7948  1.00
      L1  H    13    35       P1 10747  1.00
      P1  H 10752 10765       L1     9  0.86

> <Gold.PLP.Chemscore.Internal.Correction>
0.0421

> <Gold.Rescore>
     Score         DG    S(hbond)    S(metal)    S(lipo)     H(rot)  DE(clash)    DE(int)     intcor
     15.91     -17.91       3.04        0.00      56.79       1.70       0.00       2.00       ----

> <Gold.Chemscore.Fitness>
15.9088

> <Gold.Chemscore.DG>
-17.9113

> <Gold.Chemscore.ZeroCoef>
-5.4800

> <Gold.Chemscore.Hbond>
3.0378

> <Gold.Chemscore.Metal>
0.0000

> <Gold.Chemscore.Lipo>
56.7878

> <Gold.Chemscore.Internal_Hbond>
0.0000

> <Gold.Chemscore.DEClash>
0.0048

> <Gold.Chemscore.DEInternal>
1.9977

> <Gold.Chemscore.Rot>
1.7028

> <Gold.Chemscore.Internal.Correction>
   9.000000E+99

> <Gold.Chemscore.Hbonds>
donor molecule, donor type, donor heavy atom, donor atom, acceptor molecule, acceptor atom, score
      L1  H     4    24       P1  7948  0.29
      L1  H     7    25       P1  7948  0.39
      L1  H    13    35       P1 10747  1.00
      P1  H 10752 10765       L1     9  0.52

> <Gold.Chemscore.Hbond.Weighted>
-10.1463

> <Gold.Chemscore.Metal.Weighted>
-0.0000

> <Gold.Chemscore.Lipo.Weighted>
-6.6442

> <Gold.Chemscore.Internal_Hbond.Weighted>
0.0000

> <Gold.Chemscore.DEClash.Weighted>
0.0048

> <Gold.Chemscore.DEInternal.Weighted>
1.9977

> <Gold.Chemscore.Rot.Weighted>
4.3592

> <Gold.Chemscore.Internal.Correction.Weighted>
   9.000000E+99

> <Gold.Protein.RotatedTorsions>
[ 6907 6896 6895 6894 ] final  -97.91 input  -60.11 | X-H torsion
[ 7974 7965 7964 7962 ] final  129.20 input  175.53 | X-H torsion
[ 8008 7997 7996 7995 ] final  -95.87 input   59.86 | X-H torsion
[ 10167 10162 10161 10158 ] final  -67.18 input  -65.29 | X-H torsion
[ 10718 10713 10712 10709 ] final   31.19 input   66.30 | X-H torsion
[ 10763 10752 10751 10750 ] final -161.44 input  -60.55 | X-H torsion
[ 11005 11000 10999 10996 ] final  -62.97 input  -57.11 | X-H torsion

> <Gold.Protein.ActiveResidues>
 VAL166  LYS551  ARG553  GLY616  TRP617  ASP618  TYR619  PRO620  LYS621  CYS622 
 ASP623  PHE694  ASN695  SER759  ASP760  ASP761  ALA762  ILE779  LEU786  VAL792 
 PHE793  MET794  SER795  GLU796  ALA797  LYS798  CYS799  TRP800  GLU811  SER814 

> <Gold.Protein.RotatedAtoms>
  150.7030  134.1275  159.4057 H   0  0  0  0  0  0  0  0  0  0  0  0  # atno 6907 bound_to 6896
  151.9261  135.0275  160.0535 H   0  0  0  0  0  0  0  0  0  0  0  0  # atno 6908 bound_to 6896
  152.2215  133.4952  159.5202 H   0  0  0  0  0  0  0  0  0  0  0  0  # atno 6909 bound_to 6896
  145.0313  139.4044  143.5148 H   0  0  0  0  0  0  0  0  0  0  0  0  # atno 7974 bound_to 7965
  154.7671  140.0476  157.1021 H   0  0  0  0  0  0  0  0  0  0  0  0  # atno 8008 bound_to 7997
  154.9866  140.3108  155.4904 H   0  0  0  0  0  0  0  0  0  0  0  0  # atno 8009 bound_to 7997
  156.2914  140.2226  156.4969 H   0  0  0  0  0  0  0  0  0  0  0  0  # atno 8010 bound_to 7997
  140.5602  143.2312  151.6743 H   0  0  0  0  0  0  0  0  0  0  0  0  # atno 10167 bound_to 10162
  157.2693  130.7200  149.6495 H   0  0  0  0  0  0  0  0  0  0  0  0  # atno 10718 bound_to 10713
  154.7303  135.3045  154.8902 H   0  0  0  0  0  0  0  0  0  0  0  0  # atno 10763 bound_to 10752
  153.9747  135.6737  153.4752 H   0  0  0  0  0  0  0  0  0  0  0  0  # atno 10764 bound_to 10752
  153.0912  135.4958  154.8614 H   0  0  0  0  0  0  0  0  0  0  0  0  # atno 10765 bound_to 10752
  141.1378  133.6646  156.5609 H   0  0  0  0  0  0  0  0  0  0  0  0  # atno 11005 bound_to 11000
  146.3499  139.9864  142.8690 LP  0  0  0  0  0  0  0  0  0  0  0  0  # atno 17320 bound_to 7965
  145.1767  140.9747  143.4290 LP  0  0  0  0  0  0  0  0  0  0  0  0  # atno 17321 bound_to 7965
  139.5066  144.3674  152.0503 LP  0  0  0  0  0  0  0  0  0  0  0  0  # atno 17342 bound_to 10162
  140.2800  144.3870  150.6122 LP  0  0  0  0  0  0  0  0  0  0  0  0  # atno 17343 bound_to 10162
  155.9663  130.4373  150.5168 LP  0  0  0  0  0  0  0  0  0  0  0  0  # atno 17370 bound_to 10713
  157.3089  131.0660  151.2015 LP  0  0  0  0  0  0  0  0  0  0  0  0  # atno 17371 bound_to 10713
  140.3989  134.7374  157.4767 LP  0  0  0  0  0  0  0  0  0  0  0  0  # atno 17394 bound_to 11000
  140.0511  134.6130  155.8861 LP  0  0  0  0  0  0  0  0  0  0  0  0  # atno 17395 bound_to 11000

$$$$
