AV-unprocessed.smi:2465|AV-procd|sdf|9723|dock6
  -GOLD-   2272013363D 1   1.00000     0.00000
 Structure written by MMmdl.
 41 42  0  0  0  0  0  0  0  0  2 V2000
  147.4871  133.3200  151.9077 C   0  0  0  0  0  0  0  0  0  0  0  0
  146.0678  133.5140  151.4018 C   0  0  0  0  0  0  0  0  0  0  0  0
  145.3241  132.3918  150.9736 C   0  0  0  0  0  0  0  0  0  0  0  0
  144.0098  132.5715  150.5018 C   0  0  0  0  0  0  0  0  0  0  0  0
  143.4779  133.8104  150.4592 N   0  3  0  0  0  0  0  0  0  0  0  0
  144.1493  134.9120  150.8575 C   0  0  0  0  0  0  0  0  0  0  0  0
  145.4733  134.8016  151.3546 C   0  0  0  0  0  0  0  0  0  0  0  0
  146.2448  135.9213  151.7815 N   0  0  0  0  0  0  0  0  0  0  0  0
  145.8447  137.0364  152.4175 C   0  0  0  0  0  0  0  0  0  0  0  0
  144.6883  137.2919  152.7517 O   0  0  0  0  0  0  0  0  0  0  0  0
  146.8809  137.8516  152.6612 N   0  0  0  0  0  0  0  0  0  0  0  0
  146.7923  139.1452  153.3291 C   0  0  0  0  0  0  0  0  0  0  0  0
  148.1531  139.5977  153.8831 C   0  0  0  0  0  0  0  0  0  0  0  0
  149.0478  138.4093  154.2715 C   0  0  0  0  0  0  0  0  0  0  0  0
  150.3809  138.8465  154.6772 N   0  0  0  0  0  0  0  0  0  0  0  0
  150.5897  140.1796  155.2175 C   0  0  0  0  0  0  0  0  0  0  0  0
  152.0495  140.1937  155.6936 C   0  0  0  0  0  0  0  0  0  0  0  0
  152.7011  138.9501  155.0789 C   0  0  0  0  0  0  0  0  0  0  0  0
  151.5170  138.1479  154.5664 C   0  0  0  0  0  0  0  0  0  0  0  0
  151.6280  137.0092  154.1141 O   0  0  0  0  0  0  0  0  0  0  0  0
  147.7854  132.2720  151.8662 H   0  0  0  0  0  0  0  0  0  0  0  0
  147.5716  133.6536  152.9425 H   0  0  0  0  0  0  0  0  0  0  0  0
  148.1892  133.8930  151.3014 H   0  0  0  0  0  0  0  0  0  0  0  0
  145.7539  131.4010  151.0038 H   0  0  0  0  0  0  0  0  0  0  0  0
  143.3744  131.7694  150.1552 H   0  0  0  0  0  0  0  0  0  0  0  0
  143.5968  135.8323  150.7487 H   0  0  0  0  0  0  0  0  0  0  0  0
  147.2389  135.8410  151.6252 H   0  0  0  0  0  0  0  0  0  0  0  0
  147.7989  137.5620  152.3568 H   0  0  0  0  0  0  0  0  0  0  0  0
  146.4269  139.8732  152.6041 H   0  0  0  0  0  0  0  0  0  0  0  0
  146.0497  139.1023  154.1277 H   0  0  0  0  0  0  0  0  0  0  0  0
  148.6682  140.2067  153.1388 H   0  0  0  0  0  0  0  0  0  0  0  0
  147.9956  140.2392  154.7513 H   0  0  0  0  0  0  0  0  0  0  0  0
  148.5902  137.8427  155.0840 H   0  0  0  0  0  0  0  0  0  0  0  0
  149.1365  137.7208  153.4299 H   0  0  0  0  0  0  0  0  0  0  0  0
  150.4274  140.9175  154.4306 H   0  0  0  0  0  0  0  0  0  0  0  0
  149.8965  140.3901  156.0330 H   0  0  0  0  0  0  0  0  0  0  0  0
  152.5605  141.1107  155.3984 H   0  0  0  0  0  0  0  0  0  0  0  0
  152.0886  140.1328  156.7820 H   0  0  0  0  0  0  0  0  0  0  0  0
  153.3515  139.2119  154.2437 H   0  0  0  0  0  0  0  0  0  0  0  0
  153.2791  138.3842  155.8101 H   0  0  0  0  0  0  0  0  0  0  0  0
  142.5264  133.9212  150.1077 H   0  0  0  0  0  0  0  0  0  0  0  0
  1  2  1  0  0  0  0
  1 21  1  0  0  0  0
  1 22  1  0  0  0  0
  1 23  1  0  0  0  0
  2  7  1  0  0  0  0
  2  3  2  0  0  0  0
  3  4  1  0  0  0  0
  3 24  1  0  0  0  0
  4  5  2  0  0  0  0
  4 25  1  0  0  0  0
  5  6  1  0  0  0  0
  5 41  1  0  0  0  0
  6  7  2  0  0  0  0
  6 26  1  0  0  0  0
  7  8  1  0  0  0  0
  8  9  1  0  0  0  0
  8 27  1  0  0  0  0
  9 10  2  0  0  0  0
  9 11  1  0  0  0  0
 11 12  1  0  0  0  0
 11 28  1  0  0  0  0
 12 13  1  0  0  0  0
 12 29  1  0  0  0  0
 12 30  1  0  0  0  0
 13 14  1  0  0  0  0
 13 31  1  0  0  0  0
 13 32  1  0  0  0  0
 14 15  1  0  0  0  0
 14 33  1  0  0  0  0
 14 34  1  0  0  0  0
 15 19  1  0  0  0  0
 15 16  1  0  0  0  0
 16 17  1  0  0  0  0
 16 35  1  0  0  0  0
 16 36  1  0  0  0  0
 17 18  1  0  0  0  0
 17 37  1  0  0  0  0
 17 38  1  0  0  0  0
 18 19  1  0  0  0  0
 18 39  1  0  0  0  0
 18 40  1  0  0  0  0
 19 20  2  0  0  0  0
M  CHG  1   5   1
M  END
> <s_m_source_file>
AV-unprocessed.smi

> <i_m_source_file_index>
2465

> <i_lp_mmshare_version>
43012

> <i_f3d_flags>
0

> <s_epik_input>
W0NIM11jMVtjSF1bY0hdbltjSF1jMVtOSF1DKD1PKVtOSF1bQ0gyXVtDSDJdW0NIMl1OMltDSDJdW0NIMl1bQ0gyXUMyPU8=

> <s_epik_cmdline>
J2VwaWtfcHl0aG9uJywgJy1waCcsICc3LjAnLCAnLXRuJywgJzgnLCAnLW1hJywgJzIwMCcsICctbWV0YWxfYmluZGluZycsICctaW1hZScsICc8aW5maWxlLm1hZT4nLCAnLW9tYWUnLCAnPG91dGZpbGUubWFlPic=

> <r_epik_Ionization_Penalty>
1.98477

> <r_epik_Ionization_Penalty_Charging>
1.98474

> <r_epik_Ionization_Penalty_Neutral>
2.19328e-05

> <r_epik_State_Penalty>
2.1123

> <r_epik_Charging_Adjusted_Penalty>
4.09705

> <i_epik_Tot_Q>
1

> <i_epik_Tot_abs_Q>
1

> <r_epik_Metal_State_Penalty>
2.13405

> <b_epik_Metal_Only>
0

> <s_lp_Force_Field>
OPLS_2005

> <r_lp_Energy>
26.0932

> <b_lp_Chiralities_Consistent>
1

> <s_lp_Variant>
AV-unprocessed.smi:2465-2

> <Gold.Version>
5.8.1

> <Gold.Id.Protein>
6NUR|6NUR_protein|mol2

> <Gold.PLP.Fitness>
53.7941

> <Gold.PLP.PLP>
-40.6293

> <Gold.PLP.part.hbond>
-4.0000

> <Gold.PLP.part.metal>
0.0000

> <Gold.PLP.part.buried>
-5.1939

> <Gold.PLP.part.nonpolar>
-33.1049

> <Gold.PLP.part.repulsive>
1.1406

> <Gold.PLP.ligand.clash>
0.0000

> <Gold.PLP.ligand.torsion>
0.9510

> <Gold.PLP.Chemscore.Hbond>
5.0000

> <Gold.PLP.Chemscore.CHOScore>
0.0000

> <Gold.PLP.Chemscore.Metal>
0.0000

> <Gold.Chemscore.Hbonds>
donor molecule, donor type, donor heavy atom, donor atom, acceptor molecule, acceptor atom, score
      L1  H     5    41       P1 10186  2.00
      L1  H     8    27       P1  7948  1.00
      L1  H    11    28       P1  7948  1.00
      P1  H 10752 10764       L1    20  0.88

> <Gold.PLP.Chemscore.Internal.Correction>
0.0668

> <Gold.Rescore>
     Score         DG    S(hbond)    S(metal)    S(lipo)     H(rot)  DE(clash)    DE(int)     intcor
     22.31     -23.35       3.94        0.00      79.19       1.78       0.07       0.97       ----

> <Gold.Chemscore.Fitness>
22.3094

> <Gold.Chemscore.DG>
-23.3488

> <Gold.Chemscore.ZeroCoef>
-5.4800

> <Gold.Chemscore.Hbond>
3.9433

> <Gold.Chemscore.Metal>
0.0000

> <Gold.Chemscore.Lipo>
79.1927

> <Gold.Chemscore.Internal_Hbond>
0.0000

> <Gold.Chemscore.DEClash>
0.0723

> <Gold.Chemscore.DEInternal>
0.9670

> <Gold.Chemscore.Rot>
1.7841

> <Gold.Chemscore.Internal.Correction>
   9.000000E+99

> <Gold.Chemscore.Hbonds>
donor molecule, donor type, donor heavy atom, donor atom, acceptor molecule, acceptor atom, score
      L1  H     5    41       P1 10186  1.00
      L1  H     8    27       P1  7948  0.99
      L1  H    11    28       P1  7948  0.95
      P1  H 10752 10764       L1    20  0.84

> <Gold.Chemscore.Hbond.Weighted>
-13.1705

> <Gold.Chemscore.Metal.Weighted>
-0.0000

> <Gold.Chemscore.Lipo.Weighted>
-9.2655

> <Gold.Chemscore.Internal_Hbond.Weighted>
0.0000

> <Gold.Chemscore.DEClash.Weighted>
0.0723

> <Gold.Chemscore.DEInternal.Weighted>
0.9670

> <Gold.Chemscore.Rot.Weighted>
4.5673

> <Gold.Chemscore.Internal.Correction.Weighted>
   9.000000E+99

> <Gold.Protein.RotatedTorsions>
[ 6907 6896 6895 6894 ] final  -80.66 input  -60.11 | X-H torsion
[ 7974 7965 7964 7962 ] final   -7.25 input  175.53 | X-H torsion
[ 8008 7997 7996 7995 ] final   48.84 input   59.86 | X-H torsion
[ 10167 10162 10161 10158 ] final -124.27 input  -65.29 | X-H torsion
[ 10718 10713 10712 10709 ] final  141.07 input   66.30 | X-H torsion
[ 10763 10752 10751 10750 ] final  -58.75 input  -60.55 | X-H torsion
[ 11005 11000 10999 10996 ] final -109.87 input  -57.11 | X-H torsion

> <Gold.Protein.ActiveResidues>
 VAL166  LYS551  ARG553  GLY616  TRP617  ASP618  TYR619  PRO620  LYS621  CYS622 
 ASP623  PHE694  ASN695  SER759  ASP760  ASP761  ALA762  ILE779  LEU786  VAL792 
 PHE793  MET794  SER795  GLU796  ALA797  LYS798  CYS799  TRP800  GLU811  SER814 

> <Gold.Protein.RotatedAtoms>
  150.6925  134.3935  159.5086 H   0  0  0  0  0  0  0  0  0  0  0  0  # atno 6907 bound_to 6896
  152.1720  134.8824  160.0543 H   0  0  0  0  0  0  0  0  0  0  0  0  # atno 6908 bound_to 6896
  151.9846  133.3735  159.4158 H   0  0  0  0  0  0  0  0  0  0  0  0  # atno 6909 bound_to 6896
  146.2311  140.2292  142.8339 H   0  0  0  0  0  0  0  0  0  0  0  0  # atno 7974 bound_to 7965
  155.3922  140.3434  155.4252 H   0  0  0  0  0  0  0  0  0  0  0  0  # atno 8008 bound_to 7997
  156.1551  140.1583  156.8739 H   0  0  0  0  0  0  0  0  0  0  0  0  # atno 8009 bound_to 7997
  154.5087  140.0795  156.7928 H   0  0  0  0  0  0  0  0  0  0  0  0  # atno 8010 bound_to 7997
  139.9946  143.5605  152.2328 H   0  0  0  0  0  0  0  0  0  0  0  0  # atno 10167 bound_to 10162
  157.3961  131.1011  151.0598 H   0  0  0  0  0  0  0  0  0  0  0  0  # atno 10718 bound_to 10713
  154.2429  135.6340  153.5213 H   0  0  0  0  0  0  0  0  0  0  0  0  # atno 10763 bound_to 10752
  152.9926  135.5546  154.5890 H   0  0  0  0  0  0  0  0  0  0  0  0  # atno 10764 bound_to 10752
  154.5400  135.2894  155.1078 H   0  0  0  0  0  0  0  0  0  0  0  0  # atno 10765 bound_to 10752
  141.0824  133.9198  157.2260 H   0  0  0  0  0  0  0  0  0  0  0  0  # atno 11005 bound_to 11000
  144.9571  140.8238  143.5536 LP  0  0  0  0  0  0  0  0  0  0  0  0  # atno 17320 bound_to 7965
  145.2259  139.2137  143.5068 LP  0  0  0  0  0  0  0  0  0  0  0  0  # atno 17321 bound_to 7965
  139.6315  144.7645  151.2526 LP  0  0  0  0  0  0  0  0  0  0  0  0  # atno 17342 bound_to 10162
  140.7442  143.6471  150.8282 LP  0  0  0  0  0  0  0  0  0  0  0  0  # atno 17343 bound_to 10162
  157.1614  130.6227  149.5612 LP  0  0  0  0  0  0  0  0  0  0  0  0  # atno 17370 bound_to 10713
  155.9811  130.4816  150.6808 LP  0  0  0  0  0  0  0  0  0  0  0  0  # atno 17371 bound_to 10713
  139.9638  135.0147  156.9334 LP  0  0  0  0  0  0  0  0  0  0  0  0  # atno 17394 bound_to 11000
  140.5440  134.0692  155.7349 LP  0  0  0  0  0  0  0  0  0  0  0  0  # atno 17395 bound_to 11000

$$$$
