AV-unprocessed.smi:2032|AV-procd|sdf|8255|dock9
  -GOLD-   2272010533D 1   1.00000     0.00000
 Structure written by MMmdl.
 42 43  0  0  0  0  0  0  0  0  3 V2000
  149.2072  131.1657  153.9860 C   0  0  0  0  0  0  0  0  0  0  0  0
  148.6732  132.4895  153.4281 C   0  0  2  0  0  0  0  0  0  0  0  0
  148.2357  133.4564  154.5431 C   0  0  0  0  0  0  0  0  0  0  0  0
  147.6767  134.7126  153.9736 N   0  3  2  0  0  0  0  0  0  0  0  0
  147.3427  135.7315  155.0234 C   0  0  2  0  0  0  0  0  0  0  0  0
  146.8505  137.0768  154.4339 C   0  0  0  0  0  0  0  0  0  0  0  0
  148.5632  135.9521  155.9554 C   0  0  0  0  0  0  0  0  0  0  0  0
  148.2156  136.6255  157.2045 N   0  0  0  0  0  0  0  0  0  0  0  0
  148.4554  136.1726  158.4438 C   0  0  0  0  0  0  0  0  0  0  0  0
  149.0397  135.0992  158.6072 O   0  0  0  0  0  0  0  0  0  0  0  0
  148.0069  136.9963  159.4169 N   0  5  0  0  0  0  0  0  0  0  0  0
  147.7383  136.5066  160.6384 C   0  0  0  0  0  0  0  0  0  0  0  0
  147.4748  137.2859  161.6935 N   0  0  0  0  0  0  0  0  0  0  0  0
  147.2255  136.5687  162.8650 C   0  0  0  0  0  0  0  0  0  0  0  0
  147.3086  135.2116  162.6996 C   0  0  0  0  0  0  0  0  0  0  0  0
  147.7070  134.7915  161.0581 S   0  0  0  0  0  0  0  0  0  0  0  0
  146.5774  134.3769  153.0267 C   0  0  0  0  0  0  0  0  0  0  0  0
  147.0477  133.3667  151.9622 C   0  0  2  0  0  0  0  0  0  0  0  0
  145.9096  132.9405  151.0280 C   0  0  0  0  0  0  0  0  0  0  0  0
  147.5522  132.2029  152.6034 O   0  0  0  0  0  0  0  0  0  0  0  0
  150.0779  131.3303  154.6215 H   0  0  0  0  0  0  0  0  0  0  0  0
  149.5081  130.4965  153.1795 H   0  0  0  0  0  0  0  0  0  0  0  0
  148.4510  130.6519  154.5804 H   0  0  0  0  0  0  0  0  0  0  0  0
  149.4579  132.9515  152.8263 H   0  0  0  0  0  0  0  0  0  0  0  0
  147.4857  132.9812  155.1776 H   0  0  0  0  0  0  0  0  0  0  0  0
  149.0982  133.6591  155.1743 H   0  0  0  0  0  0  0  0  0  0  0  0
  146.5202  135.3344  155.6208 H   0  0  0  0  0  0  0  0  0  0  0  0
  146.6243  137.8030  155.2138 H   0  0  0  0  0  0  0  0  0  0  0  0
  145.9240  136.9655  153.8711 H   0  0  0  0  0  0  0  0  0  0  0  0
  147.6001  137.5231  153.7796 H   0  0  0  0  0  0  0  0  0  0  0  0
  149.0071  135.0051  156.2552 H   0  0  0  0  0  0  0  0  0  0  0  0
  149.3470  136.4901  155.4199 H   0  0  0  0  0  0  0  0  0  0  0  0
  147.7371  137.5113  157.1266 H   0  0  0  0  0  0  0  0  0  0  0  0
  146.9966  137.1073  163.7725 H   0  0  0  0  0  0  0  0  0  0  0  0
  147.1627  134.4377  163.4380 H   0  0  0  0  0  0  0  0  0  0  0  0
  145.7271  133.9777  153.5823 H   0  0  0  0  0  0  0  0  0  0  0  0
  146.2373  135.2668  152.4981 H   0  0  0  0  0  0  0  0  0  0  0  0
  147.8394  133.8140  151.3580 H   0  0  0  0  0  0  0  0  0  0  0  0
  145.4908  133.7985  150.5012 H   0  0  0  0  0  0  0  0  0  0  0  0
  145.1018  132.4610  151.5818 H   0  0  0  0  0  0  0  0  0  0  0  0
  146.2647  132.2328  150.2784 H   0  0  0  0  0  0  0  0  0  0  0  0
  148.4049  135.1275  153.4096 H   0  0  0  0  0  0  0  0  0  0  0  0
  1  2  1  0  0  0  0
  1 21  1  0  0  0  0
  1 22  1  0  0  0  0
  1 23  1  0  0  0  0
  2 20  1  0  0  0  0
  2  3  1  0  0  0  0
  2 24  1  0  0  0  0
  3  4  1  0  0  0  0
  3 25  1  0  0  0  0
  3 26  1  0  0  0  0
  4  5  1  0  0  0  0
  4 17  1  0  0  0  0
  4 42  1  0  0  0  0
  5  6  1  0  0  0  0
  5  7  1  0  0  0  0
  5 27  1  0  0  0  0
  6 28  1  0  0  0  0
  6 29  1  0  0  0  0
  6 30  1  0  0  0  0
  7  8  1  0  0  0  0
  7 31  1  0  0  0  0
  7 32  1  0  0  0  0
  8  9  1  0  0  0  0
  8 33  1  0  0  0  0
  9 10  2  0  0  0  0
  9 11  1  0  0  0  0
 11 12  1  0  0  0  0
 12 16  1  0  0  0  0
 12 13  2  0  0  0  0
 13 14  1  0  0  0  0
 14 15  2  0  0  0  0
 14 34  1  0  0  0  0
 15 16  1  0  0  0  0
 15 35  1  0  0  0  0
 17 18  1  0  0  0  0
 17 36  1  0  0  0  0
 17 37  1  0  0  0  0
 18 19  1  0  0  0  0
 18 20  1  0  0  0  0
 18 38  1  0  0  0  0
 19 39  1  0  0  0  0
 19 40  1  0  0  0  0
 19 41  1  0  0  0  0
M  CHG  1   4   1
M  CHG  1  11  -1
M  END
> <s_m_source_file>
AV-unprocessed.smi

> <i_m_source_file_index>
2032

> <i_lp_mmshare_version>
43012

> <i_f3d_flags>
0

> <s_epik_input>
W0NIM11bQ0BASF0xW0NIMl1OKFtDSDJdW0NASF0oTzEpW0NIM10pW0NASF0oW0NIM10pW0NIMl1bTkhdQyg9TylbTkhdYzJuW2NIXVtjSF1zMg==

> <s_epik_cmdline>
J2VwaWtfcHl0aG9uJywgJy1waCcsICc3LjAnLCAnLXRuJywgJzgnLCAnLW1hJywgJzIwMCcsICctbWV0YWxfYmluZGluZycsICctaW1hZScsICc8aW5maWxlLm1hZT4nLCAnLW9tYWUnLCAnPG91dGZpbGUubWFlPic=

> <r_lp_tautomer_probability>
0.999

> <r_epik_Ionization_Penalty>
6.71699

> <r_epik_Ionization_Penalty_Charging>
5.88592

> <r_epik_Ionization_Penalty_Neutral>
0.831074

> <r_epik_State_Penalty>
6.08365

> <r_epik_Charging_Adjusted_Penalty>
11.9696

> <i_epik_Tot_Q>
0

> <i_epik_Tot_abs_Q>
2

> <r_epik_Metal_State_Penalty>
2.0947

> <b_epik_Metal_Only>
1

> <s_lp_Force_Field>
OPLS_2005

> <r_lp_Energy>
9.66165

> <b_lp_Chiralities_Consistent>
1

> <s_lp_Variant>
AV-unprocessed.smi:2032-25

> <Gold.Version>
5.8.1

> <Gold.Id.Protein>
6NUR|6NUR_protein|mol2

> <Gold.PLP.Fitness>
46.1832

> <Gold.PLP.PLP>
-32.4557

> <Gold.PLP.part.hbond>
-4.0000

> <Gold.PLP.part.metal>
0.0000

> <Gold.PLP.part.buried>
-4.4116

> <Gold.PLP.part.nonpolar>
-25.0587

> <Gold.PLP.part.repulsive>
0.8908

> <Gold.PLP.ligand.clash>
0.0000

> <Gold.PLP.ligand.torsion>
0.2643

> <Gold.PLP.Chemscore.Hbond>
4.7280

> <Gold.PLP.Chemscore.CHOScore>
0.0000

> <Gold.PLP.Chemscore.Metal>
0.0000

> <Gold.Chemscore.Hbonds>
donor molecule, donor type, donor heavy atom, donor atom, acceptor molecule, acceptor atom, score
      L1  H     4    42       P1  7948  2.00
      P1  H  6896  6909       L1    10  1.00
      P1  H  6931  6943       L1    13  0.90
      P1  H  6934  6947       L1    13  0.78

> <Gold.PLP.Chemscore.Internal.Correction>
0.0720

> <Gold.Rescore>
     Score         DG    S(hbond)    S(metal)    S(lipo)     H(rot)  DE(clash)    DE(int)     intcor
     16.91     -18.65       2.95        0.00      63.05       1.58       0.10       1.65       ----

> <Gold.Chemscore.Fitness>
16.9060

> <Gold.Chemscore.DG>
-18.6540

> <Gold.Chemscore.ZeroCoef>
-5.4800

> <Gold.Chemscore.Hbond>
2.9462

> <Gold.Chemscore.Metal>
0.0000

> <Gold.Chemscore.Lipo>
63.0454

> <Gold.Chemscore.Internal_Hbond>
0.0000

> <Gold.Chemscore.DEClash>
0.0991

> <Gold.Chemscore.DEInternal>
1.6489

> <Gold.Chemscore.Rot>
1.5791

> <Gold.Chemscore.Internal.Correction>
   9.000000E+99

> <Gold.Chemscore.Hbonds>
donor molecule, donor type, donor heavy atom, donor atom, acceptor molecule, acceptor atom, score
      L1  H     4    42       P1  7948  0.87
      P1  H  6896  6909       L1    10  0.90
      P1  H  6931  6943       L1    13  0.28
      P1  H  6934  6947       L1    13  0.39

> <Gold.Chemscore.Hbond.Weighted>
-9.8402

> <Gold.Chemscore.Metal.Weighted>
-0.0000

> <Gold.Chemscore.Lipo.Weighted>
-7.3763

> <Gold.Chemscore.Internal_Hbond.Weighted>
0.0000

> <Gold.Chemscore.DEClash.Weighted>
0.0991

> <Gold.Chemscore.DEInternal.Weighted>
1.6489

> <Gold.Chemscore.Rot.Weighted>
4.0425

> <Gold.Chemscore.Internal.Correction.Weighted>
   9.000000E+99

> <Gold.Protein.RotatedTorsions>
[ 6907 6896 6895 6894 ] final   61.99 input  -60.11 | X-H torsion
[ 7974 7965 7964 7962 ] final   49.52 input  175.53 | X-H torsion
[ 8008 7997 7996 7995 ] final   58.67 input   59.86 | X-H torsion
[ 10167 10162 10161 10158 ] final   54.59 input  -65.29 | X-H torsion
[ 10718 10713 10712 10709 ] final  -87.31 input   66.30 | X-H torsion
[ 10763 10752 10751 10750 ] final    5.19 input  -60.55 | X-H torsion
[ 11005 11000 10999 10996 ] final   64.61 input  -57.11 | X-H torsion

> <Gold.Protein.ActiveResidues>
 VAL166  LYS551  ARG553  GLY616  TRP617  ASP618  TYR619  PRO620  LYS621  CYS622 
 ASP623  PHE694  ASN695  SER759  ASP760  ASP761  ALA762  ILE779  LEU786  VAL792 
 PHE793  MET794  SER795  GLU796  ALA797  LYS798  CYS799  TRP800  GLU811  SER814 

> <Gold.Protein.RotatedAtoms>
  152.4135  134.6083  160.0018 H   0  0  0  0  0  0  0  0  0  0  0  0  # atno 6907 bound_to 6896
  151.6254  133.3330  159.3105 H   0  0  0  0  0  0  0  0  0  0  0  0  # atno 6908 bound_to 6896
  150.8024  134.7167  159.6679 H   0  0  0  0  0  0  0  0  0  0  0  0  # atno 6909 bound_to 6896
  146.0101  139.4533  142.9961 H   0  0  0  0  0  0  0  0  0  0  0  0  # atno 7974 bound_to 7965
  155.5537  140.3487  155.4474 H   0  0  0  0  0  0  0  0  0  0  0  0  # atno 8008 bound_to 7997
  156.0565  140.1330  157.0017 H   0  0  0  0  0  0  0  0  0  0  0  0  # atno 8009 bound_to 7997
  154.4459  140.0994  156.6438 H   0  0  0  0  0  0  0  0  0  0  0  0  # atno 8010 bound_to 7997
  140.2285  144.3712  150.6423 H   0  0  0  0  0  0  0  0  0  0  0  0  # atno 10167 bound_to 10162
  155.9986  130.4795  150.4847 H   0  0  0  0  0  0  0  0  0  0  0  0  # atno 10718 bound_to 10713
  153.2623  135.6924  153.7565 H   0  0  0  0  0  0  0  0  0  0  0  0  # atno 10763 bound_to 10752
  153.6620  135.3359  155.3130 H   0  0  0  0  0  0  0  0  0  0  0  0  # atno 10764 bound_to 10752
  154.8435  135.4479  154.1618 H   0  0  0  0  0  0  0  0  0  0  0  0  # atno 10765 bound_to 10752
  139.9948  134.6535  156.0029 H   0  0  0  0  0  0  0  0  0  0  0  0  # atno 11005 bound_to 11000
  145.7355  141.0027  143.1329 LP  0  0  0  0  0  0  0  0  0  0  0  0  # atno 17320 bound_to 7965
  144.6950  139.9036  143.7460 LP  0  0  0  0  0  0  0  0  0  0  0  0  # atno 17321 bound_to 7965
  140.6203  143.2175  151.6708 LP  0  0  0  0  0  0  0  0  0  0  0  0  # atno 17342 bound_to 10162
  139.5118  144.3496  152.0665 LP  0  0  0  0  0  0  0  0  0  0  0  0  # atno 17343 bound_to 10162
  157.2848  131.0614  151.2173 LP  0  0  0  0  0  0  0  0  0  0  0  0  # atno 17370 bound_to 10713
  157.3207  130.6935  149.6267 LP  0  0  0  0  0  0  0  0  0  0  0  0  # atno 17371 bound_to 10713
  141.1595  133.6540  156.4272 LP  0  0  0  0  0  0  0  0  0  0  0  0  # atno 17394 bound_to 11000
  140.4839  134.6638  157.5183 LP  0  0  0  0  0  0  0  0  0  0  0  0  # atno 17395 bound_to 11000

$$$$
