AV-unprocessed.smi:2799|AV-procd|sdf|10790|dock3
  -GOLD-   2272015223D 1   1.00000     0.00000
 Structure written by MMmdl.
 52 53  0  0  0  0  0  0  0  0  2 V2000
  148.5536  133.3262  153.6105 C   0  0  0  0  0  0  0  0  0  0  0  0
  150.0315  133.5309  153.9843 C   0  0  0  0  0  0  0  0  0  0  0  0
  150.6602  132.2017  154.4274 C   0  0  0  0  0  0  0  0  0  0  0  0
  150.2113  134.6046  155.0818 C   0  0  0  0  0  0  0  0  0  0  0  0
  149.9105  135.9966  154.6427 N   0  3  1  0  0  0  0  0  0  0  0  0
  148.5895  136.4643  155.1429 C   0  0  0  0  0  0  0  0  0  0  0  0
  148.1795  137.7919  154.4860 C   0  0  0  0  0  0  0  0  0  0  0  0
  149.2557  138.8641  154.6872 C   0  0  0  0  0  0  0  0  0  0  0  0
  150.6080  138.3431  154.1826 C   0  0  0  0  0  0  0  0  0  0  0  0
  151.0011  137.0020  154.8465 C   0  0  1  0  0  0  0  0  0  0  0  0
  151.4321  137.1502  156.3319 C   0  0  0  0  0  0  0  0  0  0  0  0
  151.7293  138.5333  156.6897 N   0  0  0  0  0  0  0  0  0  0  0  0
  151.9392  138.9688  157.9400 C   0  0  0  0  0  0  0  0  0  0  0  0
  151.8864  138.2318  158.9246 O   0  0  0  0  0  0  0  0  0  0  0  0
  152.2347  140.2815  157.9503 N   0  0  0  0  0  0  0  0  0  0  0  0
  152.5219  141.1200  159.0417 C   0  0  0  0  0  0  0  0  0  0  0  0
  153.3616  140.8007  160.0585 C   0  0  0  0  0  0  0  0  0  0  0  0
  153.5943  141.7211  161.1454 C   0  0  0  0  0  0  0  0  0  0  0  0
  152.9519  142.8974  161.1332 C   0  0  0  0  0  0  0  0  0  0  0  0
  152.0689  143.2444  160.0965 N   0  0  0  0  0  0  0  0  0  0  0  0
  151.4127  144.5520  160.1743 C   0  0  0  0  0  0  0  0  0  0  0  0
  151.8125  142.4144  159.0418 C   0  0  0  0  0  0  0  0  0  0  0  0
  151.0301  142.7431  158.1463 O   0  0  0  0  0  0  0  0  0  0  0  0
  147.9643  133.0179  154.4747 H   0  0  0  0  0  0  0  0  0  0  0  0
  148.4469  132.5564  152.8456 H   0  0  0  0  0  0  0  0  0  0  0  0
  148.1098  134.2389  153.2127 H   0  0  0  0  0  0  0  0  0  0  0  0
  150.5718  133.8358  153.0886 H   0  0  0  0  0  0  0  0  0  0  0  0
  150.1764  131.8108  155.3231 H   0  0  0  0  0  0  0  0  0  0  0  0
  151.7213  132.3230  154.6481 H   0  0  0  0  0  0  0  0  0  0  0  0
  150.5738  131.4461  153.6459 H   0  0  0  0  0  0  0  0  0  0  0  0
  149.5437  134.3564  155.9081 H   0  0  0  0  0  0  0  0  0  0  0  0
  151.2180  134.5578  155.4974 H   0  0  0  0  0  0  0  0  0  0  0  0
  147.8283  135.7150  154.9218 H   0  0  0  0  0  0  0  0  0  0  0  0
  148.6142  136.5675  156.2282 H   0  0  0  0  0  0  0  0  0  0  0  0
  148.0153  137.6353  153.4190 H   0  0  0  0  0  0  0  0  0  0  0  0
  147.2297  138.1348  154.8976 H   0  0  0  0  0  0  0  0  0  0  0  0
  148.9814  139.7741  154.1528 H   0  0  0  0  0  0  0  0  0  0  0  0
  149.3240  139.1332  155.7416 H   0  0  0  0  0  0  0  0  0  0  0  0
  150.5476  138.1980  153.1029 H   0  0  0  0  0  0  0  0  0  0  0  0
  151.3797  139.0984  154.3332 H   0  0  0  0  0  0  0  0  0  0  0  0
  151.8679  136.6534  154.2871 H   0  0  0  0  0  0  0  0  0  0  0  0
  150.6499  136.7976  157.0031 H   0  0  0  0  0  0  0  0  0  0  0  0
  152.3136  136.5468  156.5494 H   0  0  0  0  0  0  0  0  0  0  0  0
  151.7918  139.2000  155.9339 H   0  0  0  0  0  0  0  0  0  0  0  0
  152.3062  140.7322  157.0494 H   0  0  0  0  0  0  0  0  0  0  0  0
  153.8697  139.8511  160.1018 H   0  0  0  0  0  0  0  0  0  0  0  0
  154.2711  141.4682  161.9481 H   0  0  0  0  0  0  0  0  0  0  0  0
  153.0738  143.6397  161.9085 H   0  0  0  0  0  0  0  0  0  0  0  0
  151.6694  145.1615  159.3066 H   0  0  0  0  0  0  0  0  0  0  0  0
  151.7000  145.1156  161.0626 H   0  0  0  0  0  0  0  0  0  0  0  0
  150.3282  144.4360  160.2007 H   0  0  0  0  0  0  0  0  0  0  0  0
  149.8009  135.9326  153.6408 H   0  0  0  0  0  0  0  0  0  0  0  0
  1  2  1  0  0  0  0
  1 24  1  0  0  0  0
  1 25  1  0  0  0  0
  1 26  1  0  0  0  0
  2  3  1  0  0  0  0
  2  4  1  0  0  0  0
  2 27  1  0  0  0  0
  3 28  1  0  0  0  0
  3 29  1  0  0  0  0
  3 30  1  0  0  0  0
  4  5  1  0  0  0  0
  4 31  1  0  0  0  0
  4 32  1  0  0  0  0
  5 10  1  0  0  0  0
  5  6  1  0  0  0  0
  5 52  1  0  0  0  0
  6  7  1  0  0  0  0
  6 33  1  0  0  0  0
  6 34  1  0  0  0  0
  7  8  1  0  0  0  0
  7 35  1  0  0  0  0
  7 36  1  0  0  0  0
  8  9  1  0  0  0  0
  8 37  1  0  0  0  0
  8 38  1  0  0  0  0
  9 10  1  0  0  0  0
  9 39  1  0  0  0  0
  9 40  1  0  0  0  0
 10 11  1  0  0  0  0
 10 41  1  0  0  0  0
 11 12  1  0  0  0  0
 11 42  1  0  0  0  0
 11 43  1  0  0  0  0
 12 13  1  0  0  0  0
 12 44  1  0  0  0  0
 13 14  2  0  0  0  0
 13 15  1  0  0  0  0
 15 16  1  0  0  0  0
 15 45  1  0  0  0  0
 16 22  1  0  0  0  0
 16 17  2  0  0  0  0
 17 18  1  0  0  0  0
 17 46  1  0  0  0  0
 18 19  2  0  0  0  0
 18 47  1  0  0  0  0
 19 20  1  0  0  0  0
 19 48  1  0  0  0  0
 20 21  1  0  0  0  0
 20 22  1  0  0  0  0
 21 49  1  0  0  0  0
 21 50  1  0  0  0  0
 21 51  1  0  0  0  0
 22 23  2  0  0  0  0
M  CHG  1   5   1
M  END
> <s_m_source_file>
AV-unprocessed.smi

> <i_m_source_file_index>
2799

> <i_lp_mmshare_version>
43012

> <i_f3d_flags>
0

> <s_epik_input>
W0NIM11bQ0hdKFtDSDNdKVtDSDJdTjFbQ0gyXVtDSDJdW0NIMl1bQ0gyXVtDQEhdMVtDSDJdW05IXUMoPU8pW05IXWMyW2NIXVtjSF1bY0hdbihbQ0gzXSljMj1P

> <s_epik_cmdline>
J2VwaWtfcHl0aG9uJywgJy1waCcsICc3LjAnLCAnLXRuJywgJzgnLCAnLW1hJywgJzIwMCcsICctbWV0YWxfYmluZGluZycsICctaW1hZScsICc8aW5maWxlLm1hZT4nLCAnLW9tYWUnLCAnPG91dGZpbGUubWFlPic=

> <r_lp_tautomer_probability>
1

> <r_epik_Ionization_Penalty>
0.0010885

> <r_epik_Ionization_Penalty_Charging>
0.00106921

> <r_epik_Ionization_Penalty_Neutral>
1.92865e-05

> <r_epik_State_Penalty>
0.000697184

> <r_epik_Charging_Adjusted_Penalty>
0.0017664

> <i_epik_Tot_Q>
1

> <i_epik_Tot_abs_Q>
1

> <r_epik_Metal_State_Penalty>
-0

> <b_epik_Metal_Only>
0

> <s_lp_Force_Field>
OPLS_2005

> <r_lp_Energy>
35.5071

> <b_lp_Chiralities_Consistent>
1

> <s_lp_Variant>
AV-unprocessed.smi:2799-2

> <Gold.Version>
5.8.1

> <Gold.Id.Protein>
6NUR|6NUR_protein|mol2

> <Gold.PLP.Fitness>
46.1417

> <Gold.PLP.PLP>
-43.5697

> <Gold.PLP.part.hbond>
-1.0000

> <Gold.PLP.part.metal>
0.0000

> <Gold.PLP.part.buried>
-4.8449

> <Gold.PLP.part.nonpolar>
-37.6297

> <Gold.PLP.part.repulsive>
0.2561

> <Gold.PLP.ligand.clash>
0.0000

> <Gold.PLP.ligand.torsion>
1.7558

> <Gold.PLP.Chemscore.Hbond>
2.0000

> <Gold.PLP.Chemscore.CHOScore>
0.0000

> <Gold.PLP.Chemscore.Metal>
0.0000

> <Gold.Chemscore.Hbonds>
donor molecule, donor type, donor heavy atom, donor atom, acceptor molecule, acceptor atom, score
      L1  H     5    52       P1  7948  1.60

> <Gold.PLP.Chemscore.Internal.Correction>
0.0835

> <Gold.Rescore>
     Score         DG    S(hbond)    S(metal)    S(lipo)     H(rot)  DE(clash)    DE(int)     intcor
     14.48     -16.18       0.88        0.00     100.69       1.57       0.01       1.70       ----

> <Gold.Chemscore.Fitness>
14.4776

> <Gold.Chemscore.DG>
-16.1803

> <Gold.Chemscore.ZeroCoef>
-5.4800

> <Gold.Chemscore.Hbond>
0.8789

> <Gold.Chemscore.Metal>
0.0000

> <Gold.Chemscore.Lipo>
100.6903

> <Gold.Chemscore.Internal_Hbond>
0.0000

> <Gold.Chemscore.DEClash>
0.0060

> <Gold.Chemscore.DEInternal>
1.6967

> <Gold.Chemscore.Rot>
1.5688

> <Gold.Chemscore.Internal.Correction>
   9.000000E+99

> <Gold.Chemscore.Hbonds>
donor molecule, donor type, donor heavy atom, donor atom, acceptor molecule, acceptor atom, score
      L1  H     5    52       P1  7948  0.12

> <Gold.Chemscore.Hbond.Weighted>
-2.9356

> <Gold.Chemscore.Metal.Weighted>
-0.0000

> <Gold.Chemscore.Lipo.Weighted>
-11.7808

> <Gold.Chemscore.Internal_Hbond.Weighted>
0.0000

> <Gold.Chemscore.DEClash.Weighted>
0.0060

> <Gold.Chemscore.DEInternal.Weighted>
1.6967

> <Gold.Chemscore.Rot.Weighted>
4.0161

> <Gold.Chemscore.Internal.Correction.Weighted>
   9.000000E+99

> <Gold.Protein.RotatedTorsions>
[ 6907 6896 6895 6894 ] final -133.20 input  -60.11 | X-H torsion
[ 7974 7965 7964 7962 ] final    2.42 input  175.53 | X-H torsion
[ 8008 7997 7996 7995 ] final   33.62 input   59.86 | X-H torsion
[ 10167 10162 10161 10158 ] final -179.63 input  -65.29 | X-H torsion
[ 10718 10713 10712 10709 ] final  -64.64 input   66.30 | X-H torsion
[ 10763 10752 10751 10750 ] final -166.61 input  -60.55 | X-H torsion
[ 11005 11000 10999 10996 ] final   47.86 input  -57.11 | X-H torsion

> <Gold.Protein.ActiveResidues>
 VAL166  LYS551  ARG553  GLY616  TRP617  ASP618  TYR619  PRO620  LYS621  CYS622 
 ASP623  PHE694  ASN695  SER759  ASP760  ASP761  ALA762  ILE779  LEU786  VAL792 
 PHE793  MET794  SER795  GLU796  ALA797  LYS798  CYS799  TRP800  GLU811  SER814 

> <Gold.Protein.RotatedAtoms>
  150.9712  133.6342  159.2737 H   0  0  0  0  0  0  0  0  0  0  0  0  # atno 6907 bound_to 6896
  151.3630  135.0906  159.9450 H   0  0  0  0  0  0  0  0  0  0  0  0  # atno 6908 bound_to 6896
  152.5183  133.9282  159.7622 H   0  0  0  0  0  0  0  0  0  0  0  0  # atno 6909 bound_to 6896
  146.2444  140.0839  142.8355 H   0  0  0  0  0  0  0  0  0  0  0  0  # atno 7974 bound_to 7965
  155.1415  140.3266  155.4451 H   0  0  0  0  0  0  0  0  0  0  0  0  # atno 8008 bound_to 7997
  156.2603  140.1993  156.6481 H   0  0  0  0  0  0  0  0  0  0  0  0  # atno 8009 bound_to 7997
  154.6538  140.0555  156.9973 H   0  0  0  0  0  0  0  0  0  0  0  0  # atno 8010 bound_to 7997
  139.5377  144.2449  152.0830 H   0  0  0  0  0  0  0  0  0  0  0  0  # atno 10167 bound_to 10162
  156.0717  130.4236  150.1449 H   0  0  0  0  0  0  0  0  0  0  0  0  # atno 10718 bound_to 10713
  154.6816  135.2955  154.9605 H   0  0  0  0  0  0  0  0  0  0  0  0  # atno 10763 bound_to 10752
  154.0598  135.6633  153.4814 H   0  0  0  0  0  0  0  0  0  0  0  0  # atno 10764 bound_to 10752
  153.0551  135.5149  154.7862 H   0  0  0  0  0  0  0  0  0  0  0  0  # atno 10765 bound_to 10752
  140.1242  134.4790  155.8573 H   0  0  0  0  0  0  0  0  0  0  0  0  # atno 11005 bound_to 11000
  145.0709  140.9155  143.4882 LP  0  0  0  0  0  0  0  0  0  0  0  0  # atno 17320 bound_to 7965
  145.0973  139.2848  143.5704 LP  0  0  0  0  0  0  0  0  0  0  0  0  # atno 17321 bound_to 7965
  140.1923  144.4740  150.6473 LP  0  0  0  0  0  0  0  0  0  0  0  0  # atno 17342 bound_to 10162
  140.6592  143.2247  151.5895 LP  0  0  0  0  0  0  0  0  0  0  0  0  # atno 17343 bound_to 10162
  156.9499  130.9771  151.3500 LP  0  0  0  0  0  0  0  0  0  0  0  0  # atno 17370 bound_to 10713
  157.5791  130.8364  149.8497 LP  0  0  0  0  0  0  0  0  0  0  0  0  # atno 17371 bound_to 10713
  141.2158  133.6771  156.6946 LP  0  0  0  0  0  0  0  0  0  0  0  0  # atno 17394 bound_to 11000
  140.2926  134.8228  157.4030 LP  0  0  0  0  0  0  0  0  0  0  0  0  # atno 17395 bound_to 11000

$$$$
