AV-unprocessed.smi:252|AV-procd|sdf|1940|dock4
  -GOLD-   2262021 63D 1   1.00000     0.00000
 Structure written by MMmdl.
 56 59  0  0  0  0  0  0  0  0  1 V2000
  145.9521  132.0710  151.4446 C   0  0  0  0  0  0  0  0  0  0  0  0
  146.8577  133.2683  151.7686 C   0  0  0  0  0  0  0  0  0  0  0  0
  147.4615  133.1908  153.1737 C   0  0  0  0  0  0  0  0  0  0  0  0
  147.3621  132.1567  153.8341 O   0  0  0  0  0  0  0  0  0  0  0  0
  148.0800  134.3000  153.6139 N   0  0  0  0  0  0  0  0  0  0  0  0
  148.7452  134.4977  154.9026 C   0  0  2  0  0  0  0  0  0  0  0  0
  147.8461  134.1237  156.0995 C   0  0  0  0  0  0  0  0  0  0  0  0
  148.6200  134.3077  157.4131 C   0  0  0  0  0  0  0  0  0  0  0  0
  149.1858  135.7332  157.5211 C   0  0  0  0  0  0  0  0  0  0  0  0
  149.9992  136.0634  156.3505 N   0  0  0  0  0  0  0  0  0  0  0  0
  150.8270  137.1260  156.5170 C   0  0  0  0  0  0  0  0  0  0  0  0
  152.1736  136.9392  156.5573 N   0  0  0  0  0  0  0  0  0  0  0  0
  152.9960  137.9823  156.7046 C   0  0  0  0  0  0  0  0  0  0  0  0
  152.6902  139.2751  156.8296 N   0  0  0  0  0  0  0  0  0  0  0  0
  151.3408  139.4692  156.7979 C   0  0  0  0  0  0  0  0  0  0  0  0
  150.3476  138.4598  156.6509 C   0  0  0  0  0  0  0  0  0  0  0  0
  149.0819  139.0341  156.6842 N   0  0  0  0  0  0  0  0  0  0  0  0
  149.3141  140.3098  156.8287 C   0  0  0  0  0  0  0  0  0  0  0  0
  150.6435  140.6610  156.8945 N   0  0  0  0  0  0  0  0  0  0  0  0
  151.1821  142.0043  157.0403 C   0  0  0  0  0  0  0  0  0  0  0  0
  151.4155  142.4126  158.5143 C   0  0  1  0  0  0  0  0  0  0  0  0
  150.1542  142.5806  159.1419 O   0  0  0  0  0  0  0  0  0  0  0  0
  152.2220  141.4031  159.3180 C   0  0  0  0  0  0  0  0  0  0  0  0
  152.7956  142.2575  160.4411 C   0  0  0  0  0  0  0  0  0  0  0  0
  153.0691  143.5153  159.8373 O   0  0  0  0  0  0  0  0  0  0  0  0
  152.2754  143.6871  158.6636 C   0  0  2  0  0  0  0  0  0  0  0  0
  151.5218  145.0262  158.7010 C   0  0  0  0  0  0  0  0  0  0  0  0
  149.3203  135.9216  155.0609 C   0  0  0  0  0  0  0  0  0  0  0  0
  145.5654  132.1445  150.4280 H   0  0  0  0  0  0  0  0  0  0  0  0
  145.0954  132.0223  152.1176 H   0  0  0  0  0  0  0  0  0  0  0  0
  146.4964  131.1291  151.5230 H   0  0  0  0  0  0  0  0  0  0  0  0
  147.6562  133.3272  151.0278 H   0  0  0  0  0  0  0  0  0  0  0  0
  146.2881  134.1943  151.6879 H   0  0  0  0  0  0  0  0  0  0  0  0
  148.0948  135.0923  152.9879 H   0  0  0  0  0  0  0  0  0  0  0  0
  149.5882  133.8054  154.8992 H   0  0  0  0  0  0  0  0  0  0  0  0
  146.9541  134.7502  156.1229 H   0  0  0  0  0  0  0  0  0  0  0  0
  147.5032  133.0924  156.0105 H   0  0  0  0  0  0  0  0  0  0  0  0
  147.9700  134.0988  158.2629 H   0  0  0  0  0  0  0  0  0  0  0  0
  149.4371  133.5867  157.4621 H   0  0  0  0  0  0  0  0  0  0  0  0
  148.3676  136.4514  157.5901 H   0  0  0  0  0  0  0  0  0  0  0  0
  149.7565  135.8240  158.4446 H   0  0  0  0  0  0  0  0  0  0  0  0
  154.0502  137.7476  156.7215 H   0  0  0  0  0  0  0  0  0  0  0  0
  148.5158  141.0357  156.8850 H   0  0  0  0  0  0  0  0  0  0  0  0
  152.1188  142.0504  156.4833 H   0  0  0  0  0  0  0  0  0  0  0  0
  150.5036  142.7069  156.5546 H   0  0  0  0  0  0  0  0  0  0  0  0
  149.5037  142.7248  158.4718 H   0  0  0  0  0  0  0  0  0  0  0  0
  151.6353  140.5573  159.6792 H   0  0  0  0  0  0  0  0  0  0  0  0
  153.0407  141.0098  158.7139 H   0  0  0  0  0  0  0  0  0  0  0  0
  152.0572  142.3971  161.2317 H   0  0  0  0  0  0  0  0  0  0  0  0
  153.6907  141.8225  160.8857 H   0  0  0  0  0  0  0  0  0  0  0  0
  152.9880  143.7234  157.8383 H   0  0  0  0  0  0  0  0  0  0  0  0
  150.9076  145.1549  157.8093 H   0  0  0  0  0  0  0  0  0  0  0  0
  152.2217  145.8607  158.7442 H   0  0  0  0  0  0  0  0  0  0  0  0
  150.8721  145.1003  159.5734 H   0  0  0  0  0  0  0  0  0  0  0  0
  150.0213  136.1218  154.2492 H   0  0  0  0  0  0  0  0  0  0  0  0
  148.5287  136.6689  154.9964 H   0  0  0  0  0  0  0  0  0  0  0  0
  1  2  1  0  0  0  0
  1 29  1  0  0  0  0
  1 30  1  0  0  0  0
  1 31  1  0  0  0  0
  2  3  1  0  0  0  0
  2 32  1  0  0  0  0
  2 33  1  0  0  0  0
  3  4  2  0  0  0  0
  3  5  1  0  0  0  0
  5  6  1  0  0  0  0
  5 34  1  0  0  0  0
  6 28  1  0  0  0  0
  6  7  1  0  0  0  0
  6 35  1  0  0  0  0
  7  8  1  0  0  0  0
  7 36  1  0  0  0  0
  7 37  1  0  0  0  0
  8  9  1  0  0  0  0
  8 38  1  0  0  0  0
  8 39  1  0  0  0  0
  9 10  1  0  0  0  0
  9 40  1  0  0  0  0
  9 41  1  0  0  0  0
 10 11  1  0  0  0  0
 10 28  1  0  0  0  0
 11 16  1  0  0  0  0
 11 12  2  0  0  0  0
 12 13  1  0  0  0  0
 13 14  2  0  0  0  0
 13 42  1  0  0  0  0
 14 15  1  0  0  0  0
 15 19  1  0  0  0  0
 15 16  2  0  0  0  0
 16 17  1  0  0  0  0
 17 18  2  0  0  0  0
 18 19  1  0  0  0  0
 18 43  1  0  0  0  0
 19 20  1  0  0  0  0
 20 21  1  0  0  0  0
 20 44  1  0  0  0  0
 20 45  1  0  0  0  0
 21 26  1  0  0  0  0
 21 22  1  0  0  0  0
 21 23  1  0  0  0  0
 22 46  1  0  0  0  0
 23 24  1  0  0  0  0
 23 47  1  0  0  0  0
 23 48  1  0  0  0  0
 24 25  1  0  0  0  0
 24 49  1  0  0  0  0
 24 50  1  0  0  0  0
 25 26  1  0  0  0  0
 26 27  1  0  0  0  0
 26 51  1  0  0  0  0
 27 52  1  0  0  0  0
 27 53  1  0  0  0  0
 27 54  1  0  0  0  0
 28 55  1  0  0  0  0
 28 56  1  0  0  0  0
M  END
> <s_m_source_file>
AV-unprocessed.smi

> <i_m_source_file_index>
252

> <i_lp_mmshare_version>
43012

> <i_f3d_flags>
0

> <s_epik_input>
W0NIM11bQ0gyXUMoPU8pW05IXVtDQEBIXTFbQ0gyXVtDSDJdW0NIMl1OKFtDSDJdMSljKG5bY0hdbjIpYyhjMjMpbltjSF1uM1tDSDJdW0NAQF00KFtPSF0pW0NIMl1bQ0gyXU9bQ0BIXTRbQ0gzXQ==

> <s_epik_cmdline>
J2VwaWtfcHl0aG9uJywgJy1waCcsICc3LjAnLCAnLXRuJywgJzgnLCAnLW1hJywgJzIwMCcsICctbWV0YWxfYmluZGluZycsICctaW1hZScsICc8aW5maWxlLm1hZT4nLCAnLW9tYWUnLCAnPG91dGZpbGUubWFlPic=

> <r_lp_tautomer_probability>
1

> <r_epik_Ionization_Penalty>
0.00182575

> <r_epik_Ionization_Penalty_Charging>
0

> <r_epik_Ionization_Penalty_Neutral>
0.00182575

> <r_epik_State_Penalty>
0.00104524

> <r_epik_Charging_Adjusted_Penalty>
0.00104524

> <i_epik_Tot_Q>
0

> <i_epik_Tot_abs_Q>
0

> <r_epik_Metal_State_Penalty>
-0

> <b_epik_Metal_Only>
0

> <s_lp_Force_Field>
OPLS_2005

> <r_lp_Energy>
36.8902

> <b_lp_Chiralities_Consistent>
1

> <s_lp_Variant>
AV-unprocessed.smi:252-5

> <Gold.Version>
5.8.1

> <Gold.Id.Protein>
6NUR|6NUR_protein|mol2

> <Gold.PLP.Fitness>
48.3453

> <Gold.PLP.PLP>
-40.5666

> <Gold.PLP.part.hbond>
-4.0000

> <Gold.PLP.part.metal>
0.0000

> <Gold.PLP.part.buried>
-4.4064

> <Gold.PLP.part.nonpolar>
-31.7970

> <Gold.PLP.part.repulsive>
0.1033

> <Gold.PLP.ligand.clash>
0.0000

> <Gold.PLP.ligand.torsion>
0.7922

> <Gold.PLP.Chemscore.Hbond>
2.9600

> <Gold.PLP.Chemscore.CHOScore>
0.0000

> <Gold.PLP.Chemscore.Metal>
0.0000

> <Gold.Chemscore.Hbonds>
donor molecule, donor type, donor heavy atom, donor atom, acceptor molecule, acceptor atom, score
      L1  H     5    34       P1  7948  1.00
      P1  H  7997  8008       L1    14  1.00
      P1  H 10752 10763       L1    12  0.31

> <Gold.PLP.Chemscore.Internal.Correction>
0.4831

> <Gold.Rescore>
     Score         DG    S(hbond)    S(metal)    S(lipo)     H(rot)  DE(clash)    DE(int)     intcor
     17.57     -18.48       2.55        0.00      97.58       2.70       0.25       0.66       ----

> <Gold.Chemscore.Fitness>
17.5734

> <Gold.Chemscore.DG>
-18.4775

> <Gold.Chemscore.ZeroCoef>
-5.4800

> <Gold.Chemscore.Hbond>
2.5459

> <Gold.Chemscore.Metal>
0.0000

> <Gold.Chemscore.Lipo>
97.5780

> <Gold.Chemscore.Internal_Hbond>
0.0000

> <Gold.Chemscore.DEClash>
0.2462

> <Gold.Chemscore.DEInternal>
0.6579

> <Gold.Chemscore.Rot>
2.7041

> <Gold.Chemscore.Internal.Correction>
   9.000000E+99

> <Gold.Chemscore.Hbonds>
donor molecule, donor type, donor heavy atom, donor atom, acceptor molecule, acceptor atom, score
      L1  H     5    34       P1  7948  0.92
      P1  H  7997  8008       L1    14  0.30
      P1  H 10752 10763       L1    12  0.18

> <Gold.Chemscore.Hbond.Weighted>
-8.5033

> <Gold.Chemscore.Metal.Weighted>
-0.0000

> <Gold.Chemscore.Lipo.Weighted>
-11.4166

> <Gold.Chemscore.Internal_Hbond.Weighted>
0.0000

> <Gold.Chemscore.DEClash.Weighted>
0.2462

> <Gold.Chemscore.DEInternal.Weighted>
0.6579

> <Gold.Chemscore.Rot.Weighted>
6.9225

> <Gold.Chemscore.Internal.Correction.Weighted>
   9.000000E+99

> <Gold.Protein.RotatedTorsions>
[ 6907 6896 6895 6894 ] final -165.69 input  -60.11 | X-H torsion
[ 7974 7965 7964 7962 ] final -147.80 input  175.53 | X-H torsion
[ 8008 7997 7996 7995 ] final  -63.56 input   59.86 | X-H torsion
[ 10167 10162 10161 10158 ] final  -86.96 input  -65.29 | X-H torsion
[ 10718 10713 10712 10709 ] final   -7.92 input   66.30 | X-H torsion
[ 10763 10752 10751 10750 ] final   92.97 input  -60.55 | X-H torsion
[ 11005 11000 10999 10996 ] final  140.14 input  -57.11 | X-H torsion

> <Gold.Protein.ActiveResidues>
 VAL166  LYS551  ARG553  GLY616  TRP617  ASP618  TYR619  PRO620  LYS621  CYS622 
 ASP623  PHE694  ASN695  SER759  ASP760  ASP761  ALA762  ILE779  LEU786  VAL792 
 PHE793  MET794  SER795  GLU796  ALA797  LYS798  CYS799  TRP800  GLU811  SER814 

> <Gold.Protein.RotatedAtoms>
  151.4316  133.3668  159.2769 H   0  0  0  0  0  0  0  0  0  0  0  0  # atno 6907 bound_to 6896
  150.9221  134.8640  159.7506 H   0  0  0  0  0  0  0  0  0  0  0  0  # atno 6908 bound_to 6896
  152.4987  134.4255  159.9547 H   0  0  0  0  0  0  0  0  0  0  0  0  # atno 6909 bound_to 6896
  144.8070  140.5279  143.5668 H   0  0  0  0  0  0  0  0  0  0  0  0  # atno 7974 bound_to 7965
  154.4561  140.0972  156.6761 H   0  0  0  0  0  0  0  0  0  0  0  0  # atno 8008 bound_to 7997
  155.5134  140.3477  155.4374 H   0  0  0  0  0  0  0  0  0  0  0  0  # atno 8009 bound_to 7997
  156.0780  140.1366  156.9736 H   0  0  0  0  0  0  0  0  0  0  0  0  # atno 8010 bound_to 7997
  140.3890  143.2713  151.9288 H   0  0  0  0  0  0  0  0  0  0  0  0  # atno 10167 bound_to 10162
  156.7101  130.5119  149.5894 H   0  0  0  0  0  0  0  0  0  0  0  0  # atno 10718 bound_to 10713
  153.2251  135.4342  155.0533 H   0  0  0  0  0  0  0  0  0  0  0  0  # atno 10763 bound_to 10752
  154.8269  135.3366  154.6869 H   0  0  0  0  0  0  0  0  0  0  0  0  # atno 10764 bound_to 10752
  153.7299  135.7011  153.5048 H   0  0  0  0  0  0  0  0  0  0  0  0  # atno 10765 bound_to 10752
  140.0306  134.9354  157.0654 H   0  0  0  0  0  0  0  0  0  0  0  0  # atno 11005 bound_to 11000
  145.5415  139.1475  143.3444 LP  0  0  0  0  0  0  0  0  0  0  0  0  # atno 17320 bound_to 7965
  146.2362  140.5555  142.8953 LP  0  0  0  0  0  0  0  0  0  0  0  0  # atno 17321 bound_to 7965
  139.4790  144.5745  151.8033 LP  0  0  0  0  0  0  0  0  0  0  0  0  # atno 17342 bound_to 10162
  140.4859  144.1382  150.5941 LP  0  0  0  0  0  0  0  0  0  0  0  0  # atno 17343 bound_to 10162
  156.1667  130.6410  151.0787 LP  0  0  0  0  0  0  0  0  0  0  0  0  # atno 17370 bound_to 10713
  157.6939  131.0800  150.7026 LP  0  0  0  0  0  0  0  0  0  0  0  0  # atno 17371 bound_to 10713
  140.4233  134.1858  155.7165 LP  0  0  0  0  0  0  0  0  0  0  0  0  # atno 17394 bound_to 11000
  141.1828  133.8377  157.1195 LP  0  0  0  0  0  0  0  0  0  0  0  0  # atno 17395 bound_to 11000

$$$$
