AV-unprocessed.smi:3187|AV-procd|sdf|12176|dock10
  -GOLD-   2272018 13D 1   1.00000     0.00000
 Structure written by MMmdl.
 41 42  0  0  0  0  0  0  0  0  2 V2000
  151.7470  144.8737  158.2829 C   0  0  0  0  0  0  0  0  0  0  0  0
  151.9778  143.6021  159.0833 C   0  0  0  0  0  0  0  0  0  0  0  0
  152.6129  143.6660  160.2692 C   0  0  0  0  0  0  0  0  0  0  0  0
  152.9658  142.4629  161.1126 C   0  0  0  0  0  0  0  0  0  0  0  0
  152.9889  141.1883  160.2661 C   0  0  0  0  0  0  0  0  0  0  0  0
  151.7104  141.0507  159.4231 C   0  0  2  0  0  0  0  0  0  0  0  0
  151.7419  139.7115  158.6612 C   0  0  0  0  0  0  0  0  0  0  0  0
  151.4878  142.2710  158.4763 C   0  0  1  0  0  0  0  0  0  0  0  0
  150.0049  142.3264  158.0221 C   0  0  0  0  0  0  0  0  0  0  0  0
  149.8434  142.1628  156.5633 N   0  3  0  0  0  0  0  0  0  0  0  0
  148.9612  141.0450  156.1723 C   0  0  0  0  0  0  0  0  0  0  0  0
  149.3513  140.4717  154.8010 C   0  0  0  0  0  0  0  0  0  0  0  0
  150.1614  139.2742  154.9198 N   0  0  0  0  0  0  0  0  0  0  0  0
  151.3582  139.1383  155.6112 C   0  0  0  0  0  0  0  0  0  0  0  0
  151.7648  137.8341  155.4405 C   0  0  0  0  0  0  0  0  0  0  0  0
  150.8381  137.1539  154.6536 N   0  0  0  0  0  0  0  0  0  0  0  0
  149.9149  138.0685  154.3884 C   0  0  0  0  0  0  0  0  0  0  0  0
  152.0908  144.7471  157.2562 H   0  0  0  0  0  0  0  0  0  0  0  0
  152.2926  145.7152  158.7114 H   0  0  0  0  0  0  0  0  0  0  0  0
  150.6911  145.1429  158.2746 H   0  0  0  0  0  0  0  0  0  0  0  0
  152.9189  144.6230  160.6669 H   0  0  0  0  0  0  0  0  0  0  0  0
  153.9440  142.6200  161.5684 H   0  0  0  0  0  0  0  0  0  0  0  0
  152.2427  142.3790  161.9245 H   0  0  0  0  0  0  0  0  0  0  0  0
  153.8596  141.2043  159.6087 H   0  0  0  0  0  0  0  0  0  0  0  0
  153.1124  140.3234  160.9191 H   0  0  0  0  0  0  0  0  0  0  0  0
  150.8753  141.0116  160.1247 H   0  0  0  0  0  0  0  0  0  0  0  0
  152.5538  139.6900  157.9335 H   0  0  0  0  0  0  0  0  0  0  0  0
  150.8142  139.5132  158.1270 H   0  0  0  0  0  0  0  0  0  0  0  0
  151.8949  138.8771  159.3465 H   0  0  0  0  0  0  0  0  0  0  0  0
  152.1096  142.1103  157.5940 H   0  0  0  0  0  0  0  0  0  0  0  0
  149.4207  141.5385  158.4947 H   0  0  0  0  0  0  0  0  0  0  0  0
  149.5572  143.2701  158.3376 H   0  0  0  0  0  0  0  0  0  0  0  0
  149.4615  143.0192  156.1878 H   0  0  0  0  0  0  0  0  0  0  0  0
  149.0005  140.2642  156.9332 H   0  0  0  0  0  0  0  0  0  0  0  0
  147.9320  141.4038  156.1360 H   0  0  0  0  0  0  0  0  0  0  0  0
  148.4544  140.2191  154.2342 H   0  0  0  0  0  0  0  0  0  0  0  0
  149.8951  141.2137  154.2142 H   0  0  0  0  0  0  0  0  0  0  0  0
  151.8105  139.9570  156.1517 H   0  0  0  0  0  0  0  0  0  0  0  0
  152.6454  137.3373  155.8207 H   0  0  0  0  0  0  0  0  0  0  0  0
  149.0424  137.8576  153.7871 H   0  0  0  0  0  0  0  0  0  0  0  0
  150.7552  142.0101  156.1558 H   0  0  0  0  0  0  0  0  0  0  0  0
  1  2  1  0  0  0  0
  1 18  1  0  0  0  0
  1 19  1  0  0  0  0
  1 20  1  0  0  0  0
  2  8  1  0  0  0  0
  2  3  2  0  0  0  0
  3  4  1  0  0  0  0
  3 21  1  0  0  0  0
  4  5  1  0  0  0  0
  4 22  1  0  0  0  0
  4 23  1  0  0  0  0
  5  6  1  0  0  0  0
  5 24  1  0  0  0  0
  5 25  1  0  0  0  0
  6  7  1  0  0  0  0
  6  8  1  0  0  0  0
  6 26  1  0  0  0  0
  7 27  1  0  0  0  0
  7 28  1  0  0  0  0
  7 29  1  0  0  0  0
  8  9  1  0  0  0  0
  8 30  1  0  0  0  0
  9 10  1  0  0  0  0
  9 31  1  0  0  0  0
  9 32  1  0  0  0  0
 10 11  1  0  0  0  0
 10 33  1  0  0  0  0
 10 41  1  0  0  0  0
 11 12  1  0  0  0  0
 11 34  1  0  0  0  0
 11 35  1  0  0  0  0
 12 13  1  0  0  0  0
 12 36  1  0  0  0  0
 12 37  1  0  0  0  0
 13 17  1  0  0  0  0
 13 14  1  0  0  0  0
 14 15  2  0  0  0  0
 14 38  1  0  0  0  0
 15 16  1  0  0  0  0
 15 39  1  0  0  0  0
 16 17  2  0  0  0  0
 17 40  1  0  0  0  0
M  CHG  1  10   1
M  END
> <s_m_source_file>
AV-unprocessed.smi

> <i_m_source_file_index>
3187

> <i_lp_mmshare_version>
43012

> <i_f3d_flags>
0

> <s_epik_input>
W0NIM11DMT1bQ0hdW0NIMl1bQ0gyXVtDQEBIXShbQ0gzXSlbQ0BIXTFbQ0gyXVtOSF1bQ0gyXVtDSDJdbjJbY0hdW2NIXW5bY0hdMg==

> <s_epik_cmdline>
J2VwaWtfcHl0aG9uJywgJy1waCcsICc3LjAnLCAnLXRuJywgJzgnLCAnLW1hJywgJzIwMCcsICctbWV0YWxfYmluZGluZycsICctaW1hZScsICc8aW5maWxlLm1hZT4nLCAnLW9tYWUnLCAnPG91dGZpbGUubWFlPic=

> <r_lp_tautomer_probability>
1

> <r_epik_Ionization_Penalty>
0.0501625

> <r_epik_Ionization_Penalty_Charging>
0.0501625

> <r_epik_Ionization_Penalty_Neutral>
0

> <r_epik_State_Penalty>
0.0972392

> <r_epik_Charging_Adjusted_Penalty>
0.147402

> <i_epik_Tot_Q>
1

> <i_epik_Tot_abs_Q>
1

> <r_epik_Metal_State_Penalty>
0.000104376

> <b_epik_Metal_Only>
0

> <s_lp_Force_Field>
OPLS_2005

> <r_lp_Energy>
17.5131

> <b_lp_Chiralities_Consistent>
1

> <s_lp_Variant>
AV-unprocessed.smi:3187-2

> <Gold.Version>
5.8.1

> <Gold.Id.Protein>
6NUR|6NUR_protein|mol2

> <Gold.PLP.Fitness>
52.3592

> <Gold.PLP.PLP>
-43.5330

> <Gold.PLP.part.hbond>
-2.0000

> <Gold.PLP.part.metal>
0.0000

> <Gold.PLP.part.buried>
-3.9373

> <Gold.PLP.part.nonpolar>
-37.9799

> <Gold.PLP.part.repulsive>
0.2236

> <Gold.PLP.ligand.clash>
0.0000

> <Gold.PLP.ligand.torsion>
1.5768

> <Gold.PLP.Chemscore.Hbond>
2.9672

> <Gold.PLP.Chemscore.CHOScore>
1.0000

> <Gold.PLP.Chemscore.Metal>
0.0000

> <Gold.Chemscore.Hbonds>
donor molecule, donor type, donor heavy atom, donor atom, acceptor molecule, acceptor atom, score
      L1  H    10    33       P1  8028  2.00
      L1  C    17    40       P1  7948  0.89

> <Gold.PLP.Chemscore.Internal.Correction>
0.0783

> <Gold.Rescore>
     Score         DG    S(hbond)    S(metal)    S(lipo)     H(rot)  DE(clash)    DE(int)     intcor
     16.11     -17.69       1.00        0.00     117.10       1.89       0.07       1.51       ----

> <Gold.Chemscore.Fitness>
16.1147

> <Gold.Chemscore.DG>
-17.6938

> <Gold.Chemscore.ZeroCoef>
-5.4800

> <Gold.Chemscore.Hbond>
0.9997

> <Gold.Chemscore.Metal>
0.0000

> <Gold.Chemscore.Lipo>
117.1030

> <Gold.Chemscore.Internal_Hbond>
0.0000

> <Gold.Chemscore.DEClash>
0.0667

> <Gold.Chemscore.DEInternal>
1.5124

> <Gold.Chemscore.Rot>
1.8853

> <Gold.Chemscore.Internal.Correction>
   9.000000E+99

> <Gold.Chemscore.Hbonds>
donor molecule, donor type, donor heavy atom, donor atom, acceptor molecule, acceptor atom, score
      L1  H    10    33       P1  8028  1.00

> <Gold.Chemscore.Hbond.Weighted>
-3.3390

> <Gold.Chemscore.Metal.Weighted>
-0.0000

> <Gold.Chemscore.Lipo.Weighted>
-13.7011

> <Gold.Chemscore.Internal_Hbond.Weighted>
0.0000

> <Gold.Chemscore.DEClash.Weighted>
0.0667

> <Gold.Chemscore.DEInternal.Weighted>
1.5124

> <Gold.Chemscore.Rot.Weighted>
4.8263

> <Gold.Chemscore.Internal.Correction.Weighted>
   9.000000E+99

> <Gold.Protein.RotatedTorsions>
[ 6907 6896 6895 6894 ] final -150.20 input  -60.11 | X-H torsion
[ 7974 7965 7964 7962 ] final -122.42 input  175.53 | X-H torsion
[ 8008 7997 7996 7995 ] final  -33.97 input   59.86 | X-H torsion
[ 10167 10162 10161 10158 ] final -128.20 input  -65.29 | X-H torsion
[ 10718 10713 10712 10709 ] final   53.78 input   66.30 | X-H torsion
[ 10763 10752 10751 10750 ] final   35.91 input  -60.55 | X-H torsion
[ 11005 11000 10999 10996 ] final  -53.38 input  -57.11 | X-H torsion

> <Gold.Protein.ActiveResidues>
 VAL166  LYS551  ARG553  GLY616  TRP617  ASP618  TYR619  PRO620  LYS621  CYS622 
 ASP623  PHE694  ASN695  SER759  ASP760  ASP761  ALA762  ILE779  LEU786  VAL792 
 PHE793  MET794  SER795  GLU796  ALA797  LYS798  CYS799  TRP800  GLU811  SER814 

> <Gold.Protein.RotatedAtoms>
  151.1951  133.4644  159.2595 H   0  0  0  0  0  0  0  0  0  0  0  0  # atno 6907 bound_to 6896
  151.1125  135.0034  159.8511 H   0  0  0  0  0  0  0  0  0  0  0  0  # atno 6908 bound_to 6896
  152.5451  134.1869  159.8711 H   0  0  0  0  0  0  0  0  0  0  0  0  # atno 6909 bound_to 6896
  145.0296  140.8056  143.4332 H   0  0  0  0  0  0  0  0  0  0  0  0  # atno 7974 bound_to 7965
  154.4134  140.1696  156.1973 H   0  0  0  0  0  0  0  0  0  0  0  0  # atno 8008 bound_to 7997
  155.9553  140.3398  155.6420 H   0  0  0  0  0  0  0  0  0  0  0  0  # atno 8009 bound_to 7997
  155.6818  140.0723  157.2472 H   0  0  0  0  0  0  0  0  0  0  0  0  # atno 8010 bound_to 7997
  139.9528  143.6036  152.2470 H   0  0  0  0  0  0  0  0  0  0  0  0  # atno 10167 bound_to 10162
  157.5197  130.8557  149.8543 H   0  0  0  0  0  0  0  0  0  0  0  0  # atno 10718 bound_to 10713
  153.0099  135.6320  154.1901 H   0  0  0  0  0  0  0  0  0  0  0  0  # atno 10763 bound_to 10752
  154.1644  135.2822  155.3101 H   0  0  0  0  0  0  0  0  0  0  0  0  # atno 10764 bound_to 10752
  154.5957  135.5603  153.7383 H   0  0  0  0  0  0  0  0  0  0  0  0  # atno 10765 bound_to 10752
  141.0973  133.6623  156.4164 H   0  0  0  0  0  0  0  0  0  0  0  0  # atno 11005 bound_to 11000
  145.1788  139.2363  143.5303 LP  0  0  0  0  0  0  0  0  0  0  0  0  # atno 17320 bound_to 7965
  146.3497  140.1557  142.8591 LP  0  0  0  0  0  0  0  0  0  0  0  0  # atno 17321 bound_to 7965
  139.6615  144.7662  151.1954 LP  0  0  0  0  0  0  0  0  0  0  0  0  # atno 17342 bound_to 10162
  140.7577  143.6004  150.8706 LP  0  0  0  0  0  0  0  0  0  0  0  0  # atno 17343 bound_to 10162
  156.0345  130.3755  150.1597 LP  0  0  0  0  0  0  0  0  0  0  0  0  # atno 17370 bound_to 10713
  156.9785  130.9857  151.3443 LP  0  0  0  0  0  0  0  0  0  0  0  0  # atno 17371 bound_to 10713
  140.5109  134.6396  157.5284 LP  0  0  0  0  0  0  0  0  0  0  0  0  # atno 17394 bound_to 11000
  139.9813  134.7132  155.9854 LP  0  0  0  0  0  0  0  0  0  0  0  0  # atno 17395 bound_to 11000

$$$$
