AV-unprocessed.smi:1304|AV-procd|sdf|5429|dock1
  -GOLD-   22720 4593D 1   1.00000     0.00000
 Structure written by MMmdl.
 47 48  0  0  0  0  0  0  0  0  1 V2000
  146.8205  139.0596  152.4975 C   0  0  0  0  0  0  0  0  0  0  0  0
  147.4383  140.4050  152.9195 C   0  0  0  0  0  0  0  0  0  0  0  0
  147.6719  140.5924  154.4529 C   0  0  1  0  0  0  0  0  0  0  0  0
  147.8758  139.1688  155.0386 C   0  0  0  0  0  0  0  0  0  0  0  0
  148.9933  141.4004  154.6688 C   0  0  0  0  0  0  0  0  0  0  0  0
  149.5494  141.2743  156.0158 N   0  0  0  0  0  0  0  0  0  0  0  0
  150.7715  140.8114  156.3199 C   0  0  0  0  0  0  0  0  0  0  0  0
  151.5979  140.4698  155.4732 O   0  0  0  0  0  0  0  0  0  0  0  0
  151.1093  140.7282  157.8142 C   0  0  0  0  0  0  0  0  0  0  0  0
  151.5748  142.0128  158.3617 N   0  0  0  0  0  0  0  0  0  0  0  0
  150.9923  143.1853  157.8402 C   0  0  0  0  0  0  0  0  0  0  0  0
  151.3480  144.4064  158.2697 C   0  0  0  0  0  0  0  0  0  0  0  0
  152.3579  144.5013  159.2971 C   0  0  0  0  0  0  0  0  0  0  0  0
  152.9236  143.3864  159.8009 C   0  0  0  0  0  0  0  0  0  0  0  0
  152.5400  142.0498  159.3324 C   0  0  0  0  0  0  0  0  0  0  0  0
  153.0542  141.0260  159.7847 O   0  0  0  0  0  0  0  0  0  0  0  0
  146.5008  141.2585  155.0911 N   0  0  0  0  0  0  0  0  0  0  0  0
  146.0233  142.4712  154.4158 C   0  0  0  0  0  0  0  0  0  0  0  0
  144.9115  143.1748  155.2130 C   0  0  0  0  0  0  0  0  0  0  0  0
  143.8367  142.2708  155.4397 O   0  0  0  0  0  0  0  0  0  0  0  0
  144.2470  141.1044  156.1434 C   0  0  0  0  0  0  0  0  0  0  0  0
  145.3504  140.3838  155.3505 C   0  0  0  0  0  0  0  0  0  0  0  0
  146.6900  139.0246  151.4158 H   0  0  0  0  0  0  0  0  0  0  0  0
  145.8403  138.9024  152.9472 H   0  0  0  0  0  0  0  0  0  0  0  0
  147.4555  138.2183  152.7731 H   0  0  0  0  0  0  0  0  0  0  0  0
  148.3827  140.5029  152.3836 H   0  0  0  0  0  0  0  0  0  0  0  0
  146.8203  141.2141  152.5302 H   0  0  0  0  0  0  0  0  0  0  0  0
  148.5647  138.5731  154.4388 H   0  0  0  0  0  0  0  0  0  0  0  0
  146.9373  138.6165  155.0907 H   0  0  0  0  0  0  0  0  0  0  0  0
  148.2921  139.1971  156.0455 H   0  0  0  0  0  0  0  0  0  0  0  0
  149.7475  141.1207  153.9330 H   0  0  0  0  0  0  0  0  0  0  0  0
  148.8169  142.4647  154.5185 H   0  0  0  0  0  0  0  0  0  0  0  0
  148.9420  141.5342  156.7794 H   0  0  0  0  0  0  0  0  0  0  0  0
  150.2212  140.3795  158.3427 H   0  0  0  0  0  0  0  0  0  0  0  0
  151.8646  139.9579  157.9839 H   0  0  0  0  0  0  0  0  0  0  0  0
  150.2505  143.0288  157.0706 H   0  0  0  0  0  0  0  0  0  0  0  0
  150.8939  145.2943  157.8551 H   0  0  0  0  0  0  0  0  0  0  0  0
  152.6622  145.4709  159.6626 H   0  0  0  0  0  0  0  0  0  0  0  0
  153.6780  143.4769  160.5687 H   0  0  0  0  0  0  0  0  0  0  0  0
  146.8334  143.1850  154.2766 H   0  0  0  0  0  0  0  0  0  0  0  0
  145.6402  142.2278  153.4251 H   0  0  0  0  0  0  0  0  0  0  0  0
  145.2939  143.5440  156.1659 H   0  0  0  0  0  0  0  0  0  0  0  0
  144.5390  144.0385  154.6618 H   0  0  0  0  0  0  0  0  0  0  0  0
  144.6015  141.3754  157.1392 H   0  0  0  0  0  0  0  0  0  0  0  0
  143.3872  140.4482  156.2770 H   0  0  0  0  0  0  0  0  0  0  0  0
  144.9263  140.0268  154.4122 H   0  0  0  0  0  0  0  0  0  0  0  0
  145.6472  139.5036  155.9175 H   0  0  0  0  0  0  0  0  0  0  0  0
  1  2  1  0  0  0  0
  1 23  1  0  0  0  0
  1 24  1  0  0  0  0
  1 25  1  0  0  0  0
  2  3  1  0  0  0  0
  2 26  1  0  0  0  0
  2 27  1  0  0  0  0
  3  4  1  0  0  0  0
  3  5  1  0  0  0  0
  3 17  1  0  0  0  0
  4 28  1  0  0  0  0
  4 29  1  0  0  0  0
  4 30  1  0  0  0  0
  5  6  1  0  0  0  0
  5 31  1  0  0  0  0
  5 32  1  0  0  0  0
  6  7  1  0  0  0  0
  6 33  1  0  0  0  0
  7  8  2  0  0  0  0
  7  9  1  0  0  0  0
  9 10  1  0  0  0  0
  9 34  1  0  0  0  0
  9 35  1  0  0  0  0
 10 15  1  0  0  0  0
 10 11  1  0  0  0  0
 11 12  2  0  0  0  0
 11 36  1  0  0  0  0
 12 13  1  0  0  0  0
 12 37  1  0  0  0  0
 13 14  2  0  0  0  0
 13 38  1  0  0  0  0
 14 15  1  0  0  0  0
 14 39  1  0  0  0  0
 15 16  2  0  0  0  0
 17 22  1  0  0  0  0
 17 18  1  0  0  0  0
 18 19  1  0  0  0  0
 18 40  1  0  0  0  0
 18 41  1  0  0  0  0
 19 20  1  0  0  0  0
 19 42  1  0  0  0  0
 19 43  1  0  0  0  0
 20 21  1  0  0  0  0
 21 22  1  0  0  0  0
 21 44  1  0  0  0  0
 21 45  1  0  0  0  0
 22 46  1  0  0  0  0
 22 47  1  0  0  0  0
M  END
> <s_m_source_file>
AV-unprocessed.smi

> <i_m_source_file_index>
1304

> <i_lp_mmshare_version>
43012

> <i_f3d_flags>
0

> <s_epik_input>
W0NIMl0xW0NIMl1PW0NIMl1bQ0gyXU4xW0NAQF0oW0NIM10pKFtDSDJdW0NIM10pW0NIMl1bTkhdQyg9TylbQ0gyXW4yW2NIXVtjSF1bY0hdW2NIXWMyPU8=

> <s_epik_cmdline>
J2VwaWtfcHl0aG9uJywgJy1waCcsICc3LjAnLCAnLXRuJywgJzgnLCAnLW1hJywgJzIwMCcsICctbWV0YWxfYmluZGluZycsICctaW1hZScsICc8aW5maWxlLm1hZT4nLCAnLW9tYWUnLCAnPG91dGZpbGUubWFlPic=

> <r_lp_tautomer_probability>
1

> <r_epik_Ionization_Penalty>
0.318667

> <r_epik_Ionization_Penalty_Charging>
3.55364e-07

> <r_epik_Ionization_Penalty_Neutral>
0.318667

> <r_epik_State_Penalty>
0.313095

> <r_epik_Charging_Adjusted_Penalty>
0.313095

> <i_epik_Tot_Q>
0

> <i_epik_Tot_abs_Q>
0

> <r_epik_Metal_State_Penalty>
0.313065

> <b_epik_Metal_Only>
0

> <s_lp_Force_Field>
OPLS_2005

> <r_lp_Energy>
51.6355

> <b_lp_Chiralities_Consistent>
1

> <s_lp_Variant>
AV-unprocessed.smi:1304-1

> <Gold.Version>
5.8.1

> <Gold.Id.Protein>
6NUR|6NUR_protein|mol2

> <Gold.PLP.Fitness>
44.2400

> <Gold.PLP.PLP>
-42.4713

> <Gold.PLP.part.hbond>
-1.0000

> <Gold.PLP.part.metal>
0.0000

> <Gold.PLP.part.buried>
-3.3672

> <Gold.PLP.part.nonpolar>
-39.8871

> <Gold.PLP.part.repulsive>
0.3707

> <Gold.PLP.ligand.clash>
0.0000

> <Gold.PLP.ligand.torsion>
1.9356

> <Gold.PLP.Chemscore.Hbond>
0.8320

> <Gold.PLP.Chemscore.CHOScore>
1.0000

> <Gold.PLP.Chemscore.Metal>
0.0000

> <Gold.Chemscore.Hbonds>
donor molecule, donor type, donor heavy atom, donor atom, acceptor molecule, acceptor atom, score
      P1  H  7989  7998       L1     8  0.80
      L1  C    11    36       P1  8028  0.86

> <Gold.PLP.Chemscore.Internal.Correction>
0.1438

> <Gold.Rescore>
     Score         DG    S(hbond)    S(metal)    S(lipo)     H(rot)  DE(clash)    DE(int)     intcor
     13.44     -16.01       1.21        0.00      98.17       1.95       0.86       1.71       ----

> <Gold.Chemscore.Fitness>
13.4363

> <Gold.Chemscore.DG>
-16.0063

> <Gold.Chemscore.ZeroCoef>
-5.4800

> <Gold.Chemscore.Hbond>
1.2083

> <Gold.Chemscore.Metal>
0.0000

> <Gold.Chemscore.Lipo>
98.1733

> <Gold.Chemscore.Internal_Hbond>
0.0000

> <Gold.Chemscore.DEClash>
0.8642

> <Gold.Chemscore.DEInternal>
1.7057

> <Gold.Chemscore.Rot>
1.9515

> <Gold.Chemscore.Internal.Correction>
   9.000000E+99

> <Gold.Chemscore.Hbonds>
donor molecule, donor type, donor heavy atom, donor atom, acceptor molecule, acceptor atom, score
      P1  H  7989  7998       L1     8  0.76

> <Gold.Chemscore.Hbond.Weighted>
-4.0359

> <Gold.Chemscore.Metal.Weighted>
-0.0000

> <Gold.Chemscore.Lipo.Weighted>
-11.4863

> <Gold.Chemscore.Internal_Hbond.Weighted>
0.0000

> <Gold.Chemscore.DEClash.Weighted>
0.8642

> <Gold.Chemscore.DEInternal.Weighted>
1.7057

> <Gold.Chemscore.Rot.Weighted>
4.9958

> <Gold.Chemscore.Internal.Correction.Weighted>
   9.000000E+99

> <Gold.Protein.RotatedTorsions>
[ 6907 6896 6895 6894 ] final -100.60 input  -60.11 | X-H torsion
[ 7974 7965 7964 7962 ] final -121.59 input  175.53 | X-H torsion
[ 8008 7997 7996 7995 ] final   -1.34 input   59.86 | X-H torsion
[ 10167 10162 10161 10158 ] final  -94.62 input  -65.29 | X-H torsion
[ 10718 10713 10712 10709 ] final    6.12 input   66.30 | X-H torsion
[ 10763 10752 10751 10750 ] final -159.40 input  -60.55 | X-H torsion
[ 11005 11000 10999 10996 ] final  102.46 input  -57.11 | X-H torsion

> <Gold.Protein.ActiveResidues>
 VAL166  LYS551  ARG553  GLY616  TRP617  ASP618  TYR619  PRO620  LYS621  CYS622 
 ASP623  PHE694  ASN695  SER759  ASP760  ASP761  ALA762  ILE779  LEU786  VAL792 
 PHE793  MET794  SER795  GLU796  ALA797  LYS798  CYS799  TRP800  GLU811  SER814 

> <Gold.Protein.RotatedAtoms>
  150.7122  134.0862  159.3915 H   0  0  0  0  0  0  0  0  0  0  0  0  # atno 6907 bound_to 6896
  151.8847  135.0438  160.0501 H   0  0  0  0  0  0  0  0  0  0  0  0  # atno 6908 bound_to 6896
  152.2540  133.5204  159.5378 H   0  0  0  0  0  0  0  0  0  0  0  0  # atno 6909 bound_to 6896
  145.0387  140.8126  143.4280 H   0  0  0  0  0  0  0  0  0  0  0  0  # atno 7974 bound_to 7965
  154.6479  140.2562  155.7247 H   0  0  0  0  0  0  0  0  0  0  0  0  # atno 8008 bound_to 7997
  156.2561  140.2874  156.0821 H   0  0  0  0  0  0  0  0  0  0  0  0  # atno 8009 bound_to 7997
  155.1496  140.0382  157.2808 H   0  0  0  0  0  0  0  0  0  0  0  0  # atno 8010 bound_to 7997
  140.3125  143.3096  152.0133 H   0  0  0  0  0  0  0  0  0  0  0  0  # atno 10167 bound_to 10162
  156.9175  130.5779  149.5647 H   0  0  0  0  0  0  0  0  0  0  0  0  # atno 10718 bound_to 10713
  154.7478  135.3084  154.8613 H   0  0  0  0  0  0  0  0  0  0  0  0  # atno 10763 bound_to 10752
  153.9409  135.6775  153.4748 H   0  0  0  0  0  0  0  0  0  0  0  0  # atno 10764 bound_to 10752
  153.1074  135.4883  154.8902 H   0  0  0  0  0  0  0  0  0  0  0  0  # atno 10765 bound_to 10752
  139.8778  134.9225  156.5061 H   0  0  0  0  0  0  0  0  0  0  0  0  # atno 11005 bound_to 11000
  145.1676  139.2422  143.5359 LP  0  0  0  0  0  0  0  0  0  0  0  0  # atno 17320 bound_to 7965
  146.3507  140.1419  142.8594 LP  0  0  0  0  0  0  0  0  0  0  0  0  # atno 17321 bound_to 7965
  139.4891  144.6373  151.6949 LP  0  0  0  0  0  0  0  0  0  0  0  0  # atno 17342 bound_to 10162
  140.5555  144.0355  150.6146 LP  0  0  0  0  0  0  0  0  0  0  0  0  # atno 17343 bound_to 10162
  156.0506  130.5576  150.8981 LP  0  0  0  0  0  0  0  0  0  0  0  0  # atno 17370 bound_to 10713
  157.5928  131.0944  150.9090 LP  0  0  0  0  0  0  0  0  0  0  0  0  # atno 17371 bound_to 10713
  140.8554  133.8100  155.9211 LP  0  0  0  0  0  0  0  0  0  0  0  0  # atno 17394 bound_to 11000
  140.9103  134.2269  157.4990 LP  0  0  0  0  0  0  0  0  0  0  0  0  # atno 17395 bound_to 11000

$$$$
