AV-unprocessed.smi:3183|AV-procd|sdf|12160|dock7
  -GOLD-   2272017593D 1   1.00000     0.00000
 Structure written by MMmdl.
 43 44  0  0  0  0  0  0  0  0  2 V2000
  152.7690  142.9854  161.3686 C   0  0  0  0  0  0  0  0  0  0  0  0
  152.4970  142.9008  159.8562 C   0  0  1  0  0  0  0  0  0  0  0  0
  151.9989  141.4875  159.4924 C   0  0  0  0  0  0  0  0  0  0  0  0
  151.7253  141.3377  157.9894 C   0  0  0  0  0  0  0  0  0  0  0  0
  150.7156  142.3933  157.5002 C   0  0  2  0  0  0  0  0  0  0  0  0
  150.4863  142.2949  156.0417 N   0  3  0  0  0  0  0  0  0  0  0  0
  149.7205  141.1106  155.5993 C   0  0  0  0  0  0  0  0  0  0  0  0
  150.4684  140.3562  154.4900 C   0  0  0  0  0  0  0  0  0  0  0  0
  150.5391  138.8725  154.6921 C   0  0  0  0  0  0  0  0  0  0  0  0
  149.5474  137.9385  154.8240 C   0  0  0  0  0  0  0  0  0  0  0  0
  150.2434  136.7103  154.9920 C   0  0  0  0  0  0  0  0  0  0  0  0
  151.5548  136.8645  154.9661 N   0  0  0  0  0  0  0  0  0  0  0  0
  151.7402  138.1881  154.7811 N   0  0  0  0  0  0  0  0  0  0  0  0
  153.0993  138.6909  154.7092 C   0  0  0  0  0  0  0  0  0  0  0  0
  151.2211  143.8038  157.8504 C   0  0  0  0  0  0  0  0  0  0  0  0
  151.4939  143.9750  159.3592 C   0  0  2  0  0  0  0  0  0  0  0  0
  151.9627  145.4127  159.6471 C   0  0  0  0  0  0  0  0  0  0  0  0
  151.8447  142.9134  161.9425 H   0  0  0  0  0  0  0  0  0  0  0  0
  153.2620  143.9184  161.6403 H   0  0  0  0  0  0  0  0  0  0  0  0
  153.4240  142.1766  161.6935 H   0  0  0  0  0  0  0  0  0  0  0  0
  153.4473  143.0595  159.3435 H   0  0  0  0  0  0  0  0  0  0  0  0
  152.7352  140.7435  159.7992 H   0  0  0  0  0  0  0  0  0  0  0  0
  151.0879  141.2637  160.0498 H   0  0  0  0  0  0  0  0  0  0  0  0
  152.6613  141.4328  157.4374 H   0  0  0  0  0  0  0  0  0  0  0  0
  151.3547  140.3307  157.7987 H   0  0  0  0  0  0  0  0  0  0  0  0
  149.7614  142.2406  158.0073 H   0  0  0  0  0  0  0  0  0  0  0  0
  149.9618  143.1113  155.7614 H   0  0  0  0  0  0  0  0  0  0  0  0
  149.5501  140.4446  156.4453 H   0  0  0  0  0  0  0  0  0  0  0  0
  148.7436  141.4319  155.2352 H   0  0  0  0  0  0  0  0  0  0  0  0
  149.9858  140.5607  153.5336 H   0  0  0  0  0  0  0  0  0  0  0  0
  151.4824  140.7504  154.4110 H   0  0  0  0  0  0  0  0  0  0  0  0
  148.4804  138.1030  154.8047 H   0  0  0  0  0  0  0  0  0  0  0  0
  149.8371  135.7194  155.1310 H   0  0  0  0  0  0  0  0  0  0  0  0
  153.1130  139.7361  154.4020 H   0  0  0  0  0  0  0  0  0  0  0  0
  153.6701  138.1087  153.9850 H   0  0  0  0  0  0  0  0  0  0  0  0
  153.5735  138.6045  155.6871 H   0  0  0  0  0  0  0  0  0  0  0  0
  152.1335  144.0151  157.2902 H   0  0  0  0  0  0  0  0  0  0  0  0
  150.4860  144.5421  157.5266 H   0  0  0  0  0  0  0  0  0  0  0  0
  150.5496  143.8278  159.8859 H   0  0  0  0  0  0  0  0  0  0  0  0
  152.9417  145.6074  159.2084 H   0  0  0  0  0  0  0  0  0  0  0  0
  152.0291  145.6102  160.7166 H   0  0  0  0  0  0  0  0  0  0  0  0
  151.2642  146.1422  159.2360 H   0  0  0  0  0  0  0  0  0  0  0  0
  151.3789  142.3116  155.5694 H   0  0  0  0  0  0  0  0  0  0  0  0
  1  2  1  0  0  0  0
  1 18  1  0  0  0  0
  1 19  1  0  0  0  0
  1 20  1  0  0  0  0
  2 16  1  0  0  0  0
  2  3  1  0  0  0  0
  2 21  1  0  0  0  0
  3  4  1  0  0  0  0
  3 22  1  0  0  0  0
  3 23  1  0  0  0  0
  4  5  1  0  0  0  0
  4 24  1  0  0  0  0
  4 25  1  0  0  0  0
  5  6  1  0  0  0  0
  5 15  1  0  0  0  0
  5 26  1  0  0  0  0
  6  7  1  0  0  0  0
  6 27  1  0  0  0  0
  6 43  1  0  0  0  0
  7  8  1  0  0  0  0
  7 28  1  0  0  0  0
  7 29  1  0  0  0  0
  8  9  1  0  0  0  0
  8 30  1  0  0  0  0
  8 31  1  0  0  0  0
  9 13  1  0  0  0  0
  9 10  2  0  0  0  0
 10 11  1  0  0  0  0
 10 32  1  0  0  0  0
 11 12  2  0  0  0  0
 11 33  1  0  0  0  0
 12 13  1  0  0  0  0
 13 14  1  0  0  0  0
 14 34  1  0  0  0  0
 14 35  1  0  0  0  0
 14 36  1  0  0  0  0
 15 16  1  0  0  0  0
 15 37  1  0  0  0  0
 15 38  1  0  0  0  0
 16 17  1  0  0  0  0
 16 39  1  0  0  0  0
 17 40  1  0  0  0  0
 17 41  1  0  0  0  0
 17 42  1  0  0  0  0
M  CHG  1   6   1
M  END
> <s_m_source_file>
AV-unprocessed.smi

> <i_m_source_file_index>
3183

> <i_lp_mmshare_version>
43012

> <i_f3d_flags>
0

> <s_epik_input>
W0NIM11bQ0BASF0xW0NIMl1bQ0gyXVtDQEhdKFtDSDJdW0NASF0xW0NIM10pW05IXVtDSDJdW0NIMl1jMltjSF1bY0hdbm4yW0NIM10=

> <s_epik_cmdline>
J2VwaWtfcHl0aG9uJywgJy1waCcsICc3LjAnLCAnLXRuJywgJzgnLCAnLW1hJywgJzIwMCcsICctbWV0YWxfYmluZGluZycsICctaW1hZScsICc8aW5maWxlLm1hZT4nLCAnLW9tYWUnLCAnPG91dGZpbGUubWFlPic=

> <r_lp_tautomer_probability>
1

> <r_epik_Ionization_Penalty>
0.000327718

> <r_epik_Ionization_Penalty_Charging>
0.000294043

> <r_epik_Ionization_Penalty_Neutral>
3.36755e-05

> <r_epik_State_Penalty>
-0

> <r_epik_Charging_Adjusted_Penalty>
0.000294043

> <i_epik_Tot_Q>
1

> <i_epik_Tot_abs_Q>
1

> <r_epik_Metal_State_Penalty>
-0

> <b_epik_Metal_Only>
0

> <s_lp_Force_Field>
OPLS_2005

> <r_lp_Energy>
12.5672

> <b_lp_Chiralities_Consistent>
1

> <s_lp_Variant>
AV-unprocessed.smi:3183-8

> <Gold.Version>
5.8.1

> <Gold.Id.Protein>
6NUR|6NUR_protein|mol2

> <Gold.PLP.Fitness>
49.5285

> <Gold.PLP.PLP>
-42.0478

> <Gold.PLP.part.hbond>
-2.0000

> <Gold.PLP.part.metal>
0.0000

> <Gold.PLP.part.buried>
-1.6398

> <Gold.PLP.part.nonpolar>
-39.4061

> <Gold.PLP.part.repulsive>
0.2409

> <Gold.PLP.ligand.clash>
0.0000

> <Gold.PLP.ligand.torsion>
0.7667

> <Gold.PLP.Chemscore.Hbond>
3.0000

> <Gold.PLP.Chemscore.CHOScore>
0.0000

> <Gold.PLP.Chemscore.Metal>
0.0000

> <Gold.Chemscore.Hbonds>
donor molecule, donor type, donor heavy atom, donor atom, acceptor molecule, acceptor atom, score
      L1  H     6    27       P1  8028  2.00
      P1  H 10752 10763       L1    12  1.00

> <Gold.PLP.Chemscore.Internal.Correction>
0.0140

> <Gold.Rescore>
     Score         DG    S(hbond)    S(metal)    S(lipo)     H(rot)  DE(clash)    DE(int)     intcor
     20.93     -23.17       1.99        0.00     124.54       1.38       1.50       0.75       ----

> <Gold.Chemscore.Fitness>
20.9281

> <Gold.Chemscore.DG>
-23.1712

> <Gold.Chemscore.ZeroCoef>
-5.4800

> <Gold.Chemscore.Hbond>
1.9895

> <Gold.Chemscore.Metal>
0.0000

> <Gold.Chemscore.Lipo>
124.5389

> <Gold.Chemscore.Internal_Hbond>
0.0000

> <Gold.Chemscore.DEClash>
1.4974

> <Gold.Chemscore.DEInternal>
0.7456

> <Gold.Chemscore.Rot>
1.3768

> <Gold.Chemscore.Internal.Correction>
   9.000000E+99

> <Gold.Chemscore.Hbonds>
donor molecule, donor type, donor heavy atom, donor atom, acceptor molecule, acceptor atom, score
      L1  H     6    27       P1  8028  0.99
      P1  H 10752 10763       L1    12  0.98

> <Gold.Chemscore.Hbond.Weighted>
-6.6448

> <Gold.Chemscore.Metal.Weighted>
-0.0000

> <Gold.Chemscore.Lipo.Weighted>
-14.5710

> <Gold.Chemscore.Internal_Hbond.Weighted>
0.0000

> <Gold.Chemscore.DEClash.Weighted>
1.4974

> <Gold.Chemscore.DEInternal.Weighted>
0.7456

> <Gold.Chemscore.Rot.Weighted>
3.5247

> <Gold.Chemscore.Internal.Correction.Weighted>
   9.000000E+99

> <Gold.Protein.RotatedTorsions>
[ 6907 6896 6895 6894 ] final  127.39 input  -60.11 | X-H torsion
[ 7974 7965 7964 7962 ] final  -56.64 input  175.53 | X-H torsion
[ 8008 7997 7996 7995 ] final  121.04 input   59.86 | X-H torsion
[ 10167 10162 10161 10158 ] final  169.02 input  -65.29 | X-H torsion
[ 10718 10713 10712 10709 ] final   99.73 input   66.30 | X-H torsion
[ 10763 10752 10751 10750 ] final   61.58 input  -60.55 | X-H torsion
[ 11005 11000 10999 10996 ] final  110.96 input  -57.11 | X-H torsion

> <Gold.Protein.ActiveResidues>
 VAL166  LYS551  ARG553  GLY616  TRP617  ASP618  TYR619  PRO620  LYS621  CYS622 
 ASP623  PHE694  ASN695  SER759  ASP760  ASP761  ALA762  ILE779  LEU786  VAL792 
 PHE793  MET794  SER795  GLU796  ALA797  LYS798  CYS799  TRP800  GLU811  SER814 

> <Gold.Protein.RotatedAtoms>
  152.3817  133.6555  159.6166 H   0  0  0  0  0  0  0  0  0  0  0  0  # atno 6907 bound_to 6896
  150.7746  133.9103  159.3376 H   0  0  0  0  0  0  0  0  0  0  0  0  # atno 6908 bound_to 6896
  151.6907  135.0948  160.0284 H   0  0  0  0  0  0  0  0  0  0  0  0  # atno 6909 bound_to 6896
  145.8603  140.8290  142.9940 H   0  0  0  0  0  0  0  0  0  0  0  0  # atno 7974 bound_to 7965
  156.2669  140.2817  156.1245 H   0  0  0  0  0  0  0  0  0  0  0  0  # atno 8008 bound_to 7997
  155.1120  140.0391  157.2744 H   0  0  0  0  0  0  0  0  0  0  0  0  # atno 8009 bound_to 7997
  154.6735  140.2593  155.6988 H   0  0  0  0  0  0  0  0  0  0  0  0  # atno 8010 bound_to 7997
  139.4982  144.3751  151.9683 H   0  0  0  0  0  0  0  0  0  0  0  0  # atno 10167 bound_to 10162
  157.6870  131.0678  150.4993 H   0  0  0  0  0  0  0  0  0  0  0  0  # atno 10718 bound_to 10713
  152.9955  135.5496  154.6056 H   0  0  0  0  0  0  0  0  0  0  0  0  # atno 10763 bound_to 10752
  154.5388  135.2818  155.1116 H   0  0  0  0  0  0  0  0  0  0  0  0  # atno 10764 bound_to 10752
  154.2402  135.6417  153.5257 H   0  0  0  0  0  0  0  0  0  0  0  0  # atno 10765 bound_to 10752
  139.8893  134.9496  156.6359 H   0  0  0  0  0  0  0  0  0  0  0  0  # atno 11005 bound_to 11000
  144.6727  140.1086  143.7456 LP  0  0  0  0  0  0  0  0  0  0  0  0  # atno 17320 bound_to 7965
  145.9255  139.2573  143.1356 LP  0  0  0  0  0  0  0  0  0  0  0  0  # atno 17321 bound_to 7965
  140.3187  144.3453  150.6015 LP  0  0  0  0  0  0  0  0  0  0  0  0  # atno 17342 bound_to 10162
  140.5740  143.2178  151.7548 LP  0  0  0  0  0  0  0  0  0  0  0  0  # atno 17343 bound_to 10162
  156.5315  130.4186  149.6199 LP  0  0  0  0  0  0  0  0  0  0  0  0  # atno 17370 bound_to 10713
  156.3065  130.7205  151.2088 LP  0  0  0  0  0  0  0  0  0  0  0  0  # atno 17371 bound_to 10713
  140.7631  133.8801  155.8433 LP  0  0  0  0  0  0  0  0  0  0  0  0  # atno 17394 bound_to 11000
  140.9905  134.1285  157.4412 LP  0  0  0  0  0  0  0  0  0  0  0  0  # atno 17395 bound_to 11000

$$$$
