AV-unprocessed.smi:160|AV-procd|sdf|1358|dock7
  -GOLD-   2262019 63D 1   1.00000     0.00000
 Structure written by MMmdl.
 29 30  0  0  0  0  0  0  0  0  1 V2000
  154.2084  138.3924  159.8089 N   0  0  0  0  0  0  0  0  0  0  0  0
  153.0649  137.8151  159.4255 C   0  0  0  0  0  0  0  0  0  0  0  0
  152.5040  136.9532  160.1002 O   0  0  0  0  0  0  0  0  0  0  0  0
  152.4959  138.2760  158.1121 C   0  0  0  0  0  0  0  0  0  0  0  0
  153.2750  138.9170  157.1913 N   0  0  0  0  0  0  0  0  0  0  0  0
  152.3657  139.1052  156.2433 C   0  0  0  0  0  0  0  0  0  0  0  0
  151.1507  138.6408  156.5511 N   0  0  0  0  0  0  0  0  0  0  0  0
  149.8936  138.6316  155.7438 C   0  0  1  0  0  0  0  0  0  0  0  0
  148.9517  139.3945  156.4390 O   0  0  0  0  0  0  0  0  0  0  0  0
  148.4222  140.4273  155.6107 C   0  0  1  0  0  0  0  0  0  0  0  0
  148.0753  141.6511  156.4726 C   0  0  0  0  0  0  0  0  0  0  0  0
  149.2545  142.3230  156.8602 O   0  0  0  0  0  0  0  0  0  0  0  0
  149.5460  140.6874  154.6063 C   0  0  2  0  0  0  0  0  0  0  0  0
  149.1021  141.3057  153.4127 O   0  0  0  0  0  0  0  0  0  0  0  0
  150.1165  139.2935  154.3758 C   0  0  2  0  0  0  0  0  0  0  0  0
  149.4329  138.5845  153.3586 O   0  0  0  0  0  0  0  0  0  0  0  0
  151.2186  138.0758  157.7826 N   0  0  0  0  0  0  0  0  0  0  0  0
  149.6078  137.5800  155.6899 H   0  0  0  0  0  0  0  0  0  0  0  0
  147.5442  140.0465  155.0851 H   0  0  0  0  0  0  0  0  0  0  0  0
  150.3086  141.3186  155.0646 H   0  0  0  0  0  0  0  0  0  0  0  0
  151.1760  139.3211  154.1163 H   0  0  0  0  0  0  0  0  0  0  0  0
  154.6381  138.1265  160.6829 H   0  0  0  0  0  0  0  0  0  0  0  0
  154.6336  139.0942  159.2207 H   0  0  0  0  0  0  0  0  0  0  0  0
  152.5908  139.5902  155.3047 H   0  0  0  0  0  0  0  0  0  0  0  0
  147.4059  142.3306  155.9438 H   0  0  0  0  0  0  0  0  0  0  0  0
  147.5649  141.3375  157.3837 H   0  0  0  0  0  0  0  0  0  0  0  0
  149.3842  143.0606  156.2837 H   0  0  0  0  0  0  0  0  0  0  0  0
  148.8430  140.6318  152.8032 H   0  0  0  0  0  0  0  0  0  0  0  0
  149.5656  139.0396  152.5408 H   0  0  0  0  0  0  0  0  0  0  0  0
  1  2  1  0  0  0  0
  1 22  1  0  0  0  0
  1 23  1  0  0  0  0
  2  3  2  0  0  0  0
  2  4  1  0  0  0  0
  4 17  2  0  0  0  0
  4  5  1  0  0  0  0
  5  6  2  0  0  0  0
  6  7  1  0  0  0  0
  6 24  1  0  0  0  0
  7  8  1  0  0  0  0
  7 17  1  0  0  0  0
  8 18  1  0  0  0  0
  8 15  1  0  0  0  0
  8  9  1  0  0  0  0
  9 10  1  0  0  0  0
 10 19  1  0  0  0  0
 10 11  1  0  0  0  0
 10 13  1  0  0  0  0
 11 12  1  0  0  0  0
 11 25  1  0  0  0  0
 11 26  1  0  0  0  0
 12 27  1  0  0  0  0
 13 20  1  0  0  0  0
 13 14  1  0  0  0  0
 13 15  1  0  0  0  0
 14 28  1  0  0  0  0
 15 21  1  0  0  0  0
 15 16  1  0  0  0  0
 16 29  1  0  0  0  0
M  END
> <s_m_source_file>
AV-unprocessed.smi

> <i_m_source_file_index>
160

> <i_lp_mmshare_version>
43012

> <i_f3d_flags>
0

> <s_epik_input>
W05IMl1DKD1PKWMxbltjSF1uKG4xKVtDQEBIXTJPW0NASF0oW0NIMl1bT0hdKVtDQEBIXShbT0hdKVtDQEhdMltPSF0=

> <s_epik_cmdline>
J2VwaWtfcHl0aG9uJywgJy1waCcsICc3LjAnLCAnLXRuJywgJzgnLCAnLW1hJywgJzIwMCcsICctbWV0YWxfYmluZGluZycsICctaW1hZScsICc8aW5maWxlLm1hZT4nLCAnLW9tYWUnLCAnPG91dGZpbGUubWFlPic=

> <r_lp_tautomer_probability>
1

> <r_epik_Ionization_Penalty>
1.06932e-05

> <r_epik_Ionization_Penalty_Charging>
0

> <r_epik_Ionization_Penalty_Neutral>
1.06932e-05

> <r_epik_State_Penalty>
-0

> <r_epik_Charging_Adjusted_Penalty>
0

> <i_epik_Tot_Q>
0

> <i_epik_Tot_abs_Q>
0

> <r_epik_Metal_State_Penalty>
0.0142097

> <b_epik_Metal_Only>
0

> <s_epik_Chemistry_Notes>
This compound contains an acetal/aminal-like group ( X-CH(R)-Y where X, Y are N, S, or O) that may be acid/base labile, releasing an aldehyde.

> <s_lp_Force_Field>
OPLS_2005

> <r_lp_Energy>
39.0504

> <b_lp_Chiralities_Consistent>
1

> <s_lp_Variant>
AV-unprocessed.smi:160-16

> <Gold.Version>
5.8.1

> <Gold.Id.Protein>
6NUR|6NUR_protein|mol2

> <Gold.PLP.Fitness>
37.6616

> <Gold.PLP.PLP>
-21.2940

> <Gold.PLP.part.hbond>
-8.0000

> <Gold.PLP.part.metal>
0.0000

> <Gold.PLP.part.buried>
-3.0184

> <Gold.PLP.part.nonpolar>
-10.9043

> <Gold.PLP.part.repulsive>
0.0471

> <Gold.PLP.ligand.clash>
0.0000

> <Gold.PLP.ligand.torsion>
0.3120

> <Gold.PLP.Chemscore.Hbond>
5.6560

> <Gold.PLP.Chemscore.CHOScore>
0.0000

> <Gold.PLP.Chemscore.Metal>
0.0000

> <Gold.Chemscore.Hbonds>
donor molecule, donor type, donor heavy atom, donor atom, acceptor molecule, acceptor atom, score
      L1  H    12    27       P1  8028  1.00
      L1  H    14    28       P1  7957  0.64
      L1  H    16    29       P1  7957  1.00
      P1  H  6896  6908       L1     3  1.00
      P1  H  7997  8010       L1     5  1.00
      P1  H  8011  8017       L1    14  0.98

> <Gold.PLP.Chemscore.Internal.Correction>
0.0236

> <Gold.Rescore>
     Score         DG    S(hbond)    S(metal)    S(lipo)     H(rot)  DE(clash)    DE(int)     intcor
     13.75     -14.25       4.92        0.00      23.22       4.06       0.07       0.43       ----

> <Gold.Chemscore.Fitness>
13.7507

> <Gold.Chemscore.DG>
-14.2489

> <Gold.Chemscore.ZeroCoef>
-5.4800

> <Gold.Chemscore.Hbond>
4.9240

> <Gold.Chemscore.Metal>
0.0000

> <Gold.Chemscore.Lipo>
23.2171

> <Gold.Chemscore.Internal_Hbond>
0.0000

> <Gold.Chemscore.DEClash>
0.0694

> <Gold.Chemscore.DEInternal>
0.4289

> <Gold.Chemscore.Rot>
4.0600

> <Gold.Chemscore.Internal.Correction>
   9.000000E+99

> <Gold.Chemscore.Hbonds>
donor molecule, donor type, donor heavy atom, donor atom, acceptor molecule, acceptor atom, score
      L1  H    12    27       P1  8028  0.95
      L1  H    14    28       P1  7957  0.64
      L1  H    16    29       P1  7957  0.93
      P1  H  6896  6908       L1     3  0.99
      P1  H  7997  8010       L1     5  0.35
      P1  H  8011  8017       L1    14  0.24

> <Gold.Chemscore.Hbond.Weighted>
-16.4462

> <Gold.Chemscore.Metal.Weighted>
-0.0000

> <Gold.Chemscore.Lipo.Weighted>
-2.7164

> <Gold.Chemscore.Internal_Hbond.Weighted>
0.0000

> <Gold.Chemscore.DEClash.Weighted>
0.0694

> <Gold.Chemscore.DEInternal.Weighted>
0.4289

> <Gold.Chemscore.Rot.Weighted>
10.3936

> <Gold.Chemscore.Internal.Correction.Weighted>
   9.000000E+99

> <Gold.Protein.RotatedTorsions>
[ 6907 6896 6895 6894 ] final  -91.81 input  -60.11 | X-H torsion
[ 7974 7965 7964 7962 ] final   36.23 input  175.53 | X-H torsion
[ 8008 7997 7996 7995 ] final   51.42 input   59.86 | X-H torsion
[ 10167 10162 10161 10158 ] final  139.61 input  -65.29 | X-H torsion
[ 10718 10713 10712 10709 ] final   61.91 input   66.30 | X-H torsion
[ 10763 10752 10751 10750 ] final  -38.53 input  -60.55 | X-H torsion
[ 11005 11000 10999 10996 ] final   50.43 input  -57.11 | X-H torsion

> <Gold.Protein.ActiveResidues>
 VAL166  LYS551  ARG553  GLY616  TRP617  ASP618  TYR619  PRO620  LYS621  CYS622 
 ASP623  PHE694  ASN695  SER759  ASP760  ASP761  ALA762  ILE779  LEU786  VAL792 
 PHE793  MET794  SER795  GLU796  ALA797  LYS798  CYS799  TRP800  GLU811  SER814 

> <Gold.Protein.RotatedAtoms>
  150.6897  134.2219  159.4399 H   0  0  0  0  0  0  0  0  0  0  0  0  # atno 6907 bound_to 6896
  152.0175  134.9839  160.0579 H   0  0  0  0  0  0  0  0  0  0  0  0  # atno 6908 bound_to 6896
  152.1429  133.4440  159.4813 H   0  0  0  0  0  0  0  0  0  0  0  0  # atno 6909 bound_to 6896
  146.1226  139.6043  142.9279 H   0  0  0  0  0  0  0  0  0  0  0  0  # atno 7974 bound_to 7965
  155.4349  140.3452  155.4284 H   0  0  0  0  0  0  0  0  0  0  0  0  # atno 8008 bound_to 7997
  156.1314  140.1515  156.9090 H   0  0  0  0  0  0  0  0  0  0  0  0  # atno 8009 bound_to 7997
  154.4897  140.0844  156.7547 H   0  0  0  0  0  0  0  0  0  0  0  0  # atno 8010 bound_to 7997
  139.5074  144.6284  151.5878 H   0  0  0  0  0  0  0  0  0  0  0  0  # atno 10167 bound_to 10162
  157.5862  130.9021  149.9520 H   0  0  0  0  0  0  0  0  0  0  0  0  # atno 10718 bound_to 10713
  153.9144  135.6789  153.4750 H   0  0  0  0  0  0  0  0  0  0  0  0  # atno 10763 bound_to 10752
  153.1061  135.4805  154.8951 H   0  0  0  0  0  0  0  0  0  0  0  0  # atno 10764 bound_to 10752
  154.7510  135.3185  154.8512 H   0  0  0  0  0  0  0  0  0  0  0  0  # atno 10765 bound_to 10752
  140.1018  134.5071  155.8755 H   0  0  0  0  0  0  0  0  0  0  0  0  # atno 11005 bound_to 11000
  145.5433  141.0419  143.2318 LP  0  0  0  0  0  0  0  0  0  0  0  0  # atno 17320 bound_to 7965
  144.7611  139.6953  143.7234 LP  0  0  0  0  0  0  0  0  0  0  0  0  # atno 17321 bound_to 7965
  140.6009  143.9611  150.6385 LP  0  0  0  0  0  0  0  0  0  0  0  0  # atno 17342 bound_to 10162
  140.2823  143.3381  152.1140 LP  0  0  0  0  0  0  0  0  0  0  0  0  # atno 17343 bound_to 10162
  156.0912  130.3663  150.0392 LP  0  0  0  0  0  0  0  0  0  0  0  0  # atno 17370 bound_to 10713
  156.8523  130.9463  151.3624 LP  0  0  0  0  0  0  0  0  0  0  0  0  # atno 17371 bound_to 10713
  141.2108  133.6698  156.6533 LP  0  0  0  0  0  0  0  0  0  0  0  0  # atno 17394 bound_to 11000
  140.3209  134.8008  157.4252 LP  0  0  0  0  0  0  0  0  0  0  0  0  # atno 17395 bound_to 11000

$$$$
