AV-unprocessed.smi:1223|AV-procd|sdf|5127|dock1
  -GOLD-   22720 4183D 1   1.00000     0.00000
 Structure written by MMmdl.
 33 34  0  0  0  0  0  0  0  0  1 V2000
  151.1217  141.3730  157.5364 O   0  0  0  0  0  0  0  0  0  0  0  0
  150.7784  142.4337  157.0147 C   0  0  0  0  0  0  0  0  0  0  0  0
  151.4320  143.7468  157.4486 C   0  0  0  0  0  0  0  0  0  0  0  0
  151.7357  143.7404  158.8691 N   0  0  0  0  0  0  0  0  0  0  0  0
  151.3616  144.6578  159.8291 C   0  0  0  0  0  0  0  0  0  0  0  0
  151.8665  144.2264  161.0222 C   0  0  0  0  0  0  0  0  0  0  0  0
  152.5437  143.0207  160.6867 C   0  0  0  0  0  0  0  0  0  0  0  0
  152.4656  142.7332  159.3974 N   0  0  0  0  0  0  0  0  0  0  0  0
  149.8351  142.5209  156.0632 N   0  0  0  0  0  0  0  0  0  0  0  0
  149.1058  141.4004  155.4694 C   0  0  1  0  0  0  0  0  0  0  0  0
  148.2362  141.8966  154.2927 C   0  0  0  0  0  0  0  0  0  0  0  0
  147.0569  140.9708  153.9532 C   0  0  0  0  0  0  0  0  0  0  0  0
  147.4566  139.5656  153.4791 C   0  0  0  0  0  0  0  0  0  0  0  0
  148.1587  138.7260  154.5602 C   0  0  0  0  0  0  0  0  0  0  0  0
  149.5653  139.0751  154.7145 N   0  0  0  0  0  0  0  0  0  0  0  0
  150.0703  140.2543  155.1078 C   0  0  0  0  0  0  0  0  0  0  0  0
  151.2882  140.4205  155.1735 O   0  0  0  0  0  0  0  0  0  0  0  0
  152.3469  143.9114  156.8773 H   0  0  0  0  0  0  0  0  0  0  0  0
  150.7659  144.5846  157.2379 H   0  0  0  0  0  0  0  0  0  0  0  0
  150.7710  145.5288  159.5853 H   0  0  0  0  0  0  0  0  0  0  0  0
  151.7656  144.6991  161.9877 H   0  0  0  0  0  0  0  0  0  0  0  0
  153.0859  142.3501  161.3368 H   0  0  0  0  0  0  0  0  0  0  0  0
  149.6274  143.4370  155.6910 H   0  0  0  0  0  0  0  0  0  0  0  0
  148.4452  141.0075  156.2447 H   0  0  0  0  0  0  0  0  0  0  0  0
  147.8192  142.8749  154.5349 H   0  0  0  0  0  0  0  0  0  0  0  0
  148.8559  142.0531  153.4084 H   0  0  0  0  0  0  0  0  0  0  0  0
  146.3982  140.8894  154.8188 H   0  0  0  0  0  0  0  0  0  0  0  0
  146.4609  141.4434  153.1718 H   0  0  0  0  0  0  0  0  0  0  0  0
  146.5487  139.0429  153.1767 H   0  0  0  0  0  0  0  0  0  0  0  0
  148.0765  139.6283  152.5837 H   0  0  0  0  0  0  0  0  0  0  0  0
  147.6400  138.8006  155.5169 H   0  0  0  0  0  0  0  0  0  0  0  0
  148.1221  137.6745  154.2745 H   0  0  0  0  0  0  0  0  0  0  0  0
  150.2289  138.3481  154.4888 H   0  0  0  0  0  0  0  0  0  0  0  0
  1  2  2  0  0  0  0
  2  3  1  0  0  0  0
  2  9  1  0  0  0  0
  3  4  1  0  0  0  0
  3 18  1  0  0  0  0
  3 19  1  0  0  0  0
  4  8  1  0  0  0  0
  4  5  1  0  0  0  0
  5  6  2  0  0  0  0
  5 20  1  0  0  0  0
  6  7  1  0  0  0  0
  6 21  1  0  0  0  0
  7  8  2  0  0  0  0
  7 22  1  0  0  0  0
  9 10  1  0  0  0  0
  9 23  1  0  0  0  0
 10 16  1  0  0  0  0
 10 11  1  0  0  0  0
 10 24  1  0  0  0  0
 11 12  1  0  0  0  0
 11 25  1  0  0  0  0
 11 26  1  0  0  0  0
 12 13  1  0  0  0  0
 12 27  1  0  0  0  0
 12 28  1  0  0  0  0
 13 14  1  0  0  0  0
 13 29  1  0  0  0  0
 13 30  1  0  0  0  0
 14 15  1  0  0  0  0
 14 31  1  0  0  0  0
 14 32  1  0  0  0  0
 15 16  1  0  0  0  0
 15 33  1  0  0  0  0
 16 17  2  0  0  0  0
M  END
> <s_m_source_file>
AV-unprocessed.smi

> <i_m_source_file_index>
1223

> <i_lp_mmshare_version>
43012

> <i_f3d_flags>
0

> <s_epik_input>
bjFbY0hdW2NIXVtjSF1uMVtDSDJdQyg9TylbTkhdW0NAQEhdMltDSDJdW0NIMl1bQ0gyXVtDSDJdW05IXUMyPU8=

> <s_epik_cmdline>
J2VwaWtfcHl0aG9uJywgJy1waCcsICc3LjAnLCAnLXRuJywgJzgnLCAnLW1hJywgJzIwMCcsICctbWV0YWxfYmluZGluZycsICctaW1hZScsICc8aW5maWxlLm1hZT4nLCAnLW9tYWUnLCAnPG91dGZpbGUubWFlPic=

> <r_lp_tautomer_probability>
1

> <r_epik_Ionization_Penalty>
1.16214e-05

> <r_epik_Ionization_Penalty_Charging>
0

> <r_epik_Ionization_Penalty_Neutral>
1.16214e-05

> <r_epik_State_Penalty>
-0

> <r_epik_Charging_Adjusted_Penalty>
0

> <i_epik_Tot_Q>
0

> <i_epik_Tot_abs_Q>
0

> <r_epik_Metal_State_Penalty>
-0

> <b_epik_Metal_Only>
0

> <s_lp_Force_Field>
OPLS_2005

> <r_lp_Energy>
10.4026

> <b_lp_Chiralities_Consistent>
1

> <s_lp_Variant>
AV-unprocessed.smi:1223-2

> <Gold.Version>
5.8.1

> <Gold.Id.Protein>
6NUR|6NUR_protein|mol2

> <Gold.PLP.Fitness>
42.1031

> <Gold.PLP.PLP>
-37.0586

> <Gold.PLP.part.hbond>
-1.9065

> <Gold.PLP.part.metal>
0.0000

> <Gold.PLP.part.buried>
-4.2645

> <Gold.PLP.part.nonpolar>
-31.0600

> <Gold.PLP.part.repulsive>
0.2477

> <Gold.PLP.ligand.clash>
0.0000

> <Gold.PLP.ligand.torsion>
0.4944

> <Gold.PLP.Chemscore.Hbond>
2.0000

> <Gold.PLP.Chemscore.CHOScore>
0.0000

> <Gold.PLP.Chemscore.Metal>
0.0000

> <Gold.Chemscore.Hbonds>
donor molecule, donor type, donor heavy atom, donor atom, acceptor molecule, acceptor atom, score
      L1  H     9    23       P1  8028  0.88
      P1  H  7989  7998       L1    17  0.98

> <Gold.PLP.Chemscore.Internal.Correction>
0.0334

> <Gold.Rescore>
     Score         DG    S(hbond)    S(metal)    S(lipo)     H(rot)  DE(clash)    DE(int)     intcor
     12.98     -15.52       1.82        0.00      68.29       1.58       0.00       2.54       ----

> <Gold.Chemscore.Fitness>
12.9765

> <Gold.Chemscore.DG>
-15.5155

> <Gold.Chemscore.ZeroCoef>
-5.4800

> <Gold.Chemscore.Hbond>
1.8227

> <Gold.Chemscore.Metal>
0.0000

> <Gold.Chemscore.Lipo>
68.2932

> <Gold.Chemscore.Internal_Hbond>
0.0000

> <Gold.Chemscore.DEClash>
0.0038

> <Gold.Chemscore.DEInternal>
2.5351

> <Gold.Chemscore.Rot>
1.5792

> <Gold.Chemscore.Internal.Correction>
   9.000000E+99

> <Gold.Chemscore.Hbonds>
donor molecule, donor type, donor heavy atom, donor atom, acceptor molecule, acceptor atom, score
      L1  H     9    23       P1  8028  0.83
      P1  H  7989  7998       L1    17  0.28

> <Gold.Chemscore.Hbond.Weighted>
-6.0880

> <Gold.Chemscore.Metal.Weighted>
-0.0000

> <Gold.Chemscore.Lipo.Weighted>
-7.9903

> <Gold.Chemscore.Internal_Hbond.Weighted>
0.0000

> <Gold.Chemscore.DEClash.Weighted>
0.0038

> <Gold.Chemscore.DEInternal.Weighted>
2.5351

> <Gold.Chemscore.Rot.Weighted>
4.0428

> <Gold.Chemscore.Internal.Correction.Weighted>
   9.000000E+99

> <Gold.Protein.RotatedTorsions>
[ 6907 6896 6895 6894 ] final -156.36 input  -60.11 | X-H torsion
[ 7974 7965 7964 7962 ] final   64.47 input  175.53 | X-H torsion
[ 8008 7997 7996 7995 ] final  -32.50 input   59.86 | X-H torsion
[ 10167 10162 10161 10158 ] final  -55.17 input  -65.29 | X-H torsion
[ 10718 10713 10712 10709 ] final   25.78 input   66.30 | X-H torsion
[ 10763 10752 10751 10750 ] final  156.26 input  -60.55 | X-H torsion
[ 11005 11000 10999 10996 ] final  -56.03 input  -57.11 | X-H torsion

> <Gold.Protein.ActiveResidues>
 VAL166  LYS551  ARG553  GLY616  TRP617  ASP618  TYR619  PRO620  LYS621  CYS622 
 ASP623  PHE694  ASN695  SER759  ASP760  ASP761  ALA762  ILE779  LEU786  VAL792 
 PHE793  MET794  SER795  GLU796  ALA797  LYS798  CYS799  TRP800  GLU811  SER814 

> <Gold.Protein.RotatedAtoms>
  151.2865  133.4185  159.2630 H   0  0  0  0  0  0  0  0  0  0  0  0  # atno 6907 bound_to 6896
  151.0315  134.9543  159.8124 H   0  0  0  0  0  0  0  0  0  0  0  0  # atno 6908 bound_to 6896
  152.5346  134.2826  159.9065 H   0  0  0  0  0  0  0  0  0  0  0  0  # atno 6909 bound_to 6896
  145.8498  139.3247  143.0882 H   0  0  0  0  0  0  0  0  0  0  0  0  # atno 7974 bound_to 7965
  154.4178  140.1735  156.1738 H   0  0  0  0  0  0  0  0  0  0  0  0  # atno 8008 bound_to 7997
  155.9739  140.3383  155.6576 H   0  0  0  0  0  0  0  0  0  0  0  0  # atno 8009 bound_to 7997
  155.6590  140.0699  157.2551 H   0  0  0  0  0  0  0  0  0  0  0  0  # atno 8010 bound_to 7997
  140.6389  143.2497  151.5042 H   0  0  0  0  0  0  0  0  0  0  0  0  # atno 10167 bound_to 10162
  157.1980  130.6876  149.6176 H   0  0  0  0  0  0  0  0  0  0  0  0  # atno 10718 bound_to 10713
  154.1815  135.2799  155.3050 H   0  0  0  0  0  0  0  0  0  0  0  0  # atno 10763 bound_to 10752
  154.5999  135.5533  153.7367 H   0  0  0  0  0  0  0  0  0  0  0  0  # atno 10764 bound_to 10752
  153.0137  135.6389  154.1954 H   0  0  0  0  0  0  0  0  0  0  0  0  # atno 10765 bound_to 10752
  141.1101  133.6611  156.4558 H   0  0  0  0  0  0  0  0  0  0  0  0  # atno 11005 bound_to 11000
  145.9370  140.9007  143.0327 LP  0  0  0  0  0  0  0  0  0  0  0  0  # atno 17320 bound_to 7965
  144.6729  140.1496  143.7431 LP  0  0  0  0  0  0  0  0  0  0  0  0  # atno 17321 bound_to 7965
  139.5599  144.2183  152.1674 LP  0  0  0  0  0  0  0  0  0  0  0  0  # atno 17342 bound_to 10162
  140.1447  144.5169  150.6723 LP  0  0  0  0  0  0  0  0  0  0  0  0  # atno 17343 bound_to 10162
  155.9704  130.4592  150.6029 LP  0  0  0  0  0  0  0  0  0  0  0  0  # atno 17370 bound_to 10713
  157.3795  131.0778  151.1488 LP  0  0  0  0  0  0  0  0  0  0  0  0  # atno 17371 bound_to 10713
  140.4797  134.6676  157.5166 LP  0  0  0  0  0  0  0  0  0  0  0  0  # atno 17394 bound_to 11000
  139.9991  134.6865  155.9560 LP  0  0  0  0  0  0  0  0  0  0  0  0  # atno 17395 bound_to 11000

$$$$
