AV-unprocessed.smi:1350|AV-procd|sdf|5520|dock7
  -GOLD-   22720 5103D 1   1.00000     0.00000
 Structure written by MMmdl.
 43 45  0  0  0  0  0  0  0  0  1 V2000
  162.1136  140.7943  162.9583 C   0  0  0  0  0  0  0  0  0  0  0  0
  160.7829  140.6960  162.4720 O   0  0  0  0  0  0  0  0  0  0  0  0
  160.4665  141.3247  161.2845 C   0  0  0  0  0  0  0  0  0  0  0  0
  161.4141  142.0424  160.5092 C   0  0  0  0  0  0  0  0  0  0  0  0
  161.0352  142.6643  159.3045 C   0  0  0  0  0  0  0  0  0  0  0  0
  159.7064  142.5792  158.8550 C   0  0  0  0  0  0  0  0  0  0  0  0
  158.7574  141.8711  159.6131 C   0  0  0  0  0  0  0  0  0  0  0  0
  159.1277  141.2473  160.8232 C   0  0  0  0  0  0  0  0  0  0  0  0
  158.0628  140.4857  161.5957 C   0  0  0  0  0  0  0  0  0  0  0  0
  156.7907  140.6134  160.9827 O   0  0  0  0  0  0  0  0  0  0  0  0
  155.7683  139.9254  161.6842 C   0  0  0  0  0  0  0  0  0  0  0  0
  154.6150  139.6227  160.7174 C   0  0  2  0  0  0  0  0  0  0  0  0
  154.9973  138.5484  159.8809 O   0  0  0  0  0  0  0  0  0  0  0  0
  154.2295  140.8420  159.8577 C   0  0  0  0  0  0  0  0  0  0  0  0
  153.4020  141.7878  160.5839 N   0  0  0  0  0  0  0  0  0  0  0  0
  153.1131  141.7794  161.8996 C   0  0  0  0  0  0  0  0  0  0  0  0
  152.3303  142.7524  162.3580 N   0  0  0  0  0  0  0  0  0  0  0  0
  152.0820  143.4772  161.2048 C   0  0  0  0  0  0  0  0  0  0  0  0
  151.3123  144.6453  161.0028 C   0  0  0  0  0  0  0  0  0  0  0  0
  151.2017  145.2142  159.7167 C   0  0  0  0  0  0  0  0  0  0  0  0
  151.8569  144.6260  158.6153 C   0  0  0  0  0  0  0  0  0  0  0  0
  152.6300  143.4624  158.7921 C   0  0  0  0  0  0  0  0  0  0  0  0
  152.7376  142.8984  160.0767 C   0  0  0  0  0  0  0  0  0  0  0  0
  162.1912  140.2546  163.9020 H   0  0  0  0  0  0  0  0  0  0  0  0
  162.3937  141.8312  163.1489 H   0  0  0  0  0  0  0  0  0  0  0  0
  162.8262  140.3473  162.2639 H   0  0  0  0  0  0  0  0  0  0  0  0
  162.4448  142.1317  160.8163 H   0  0  0  0  0  0  0  0  0  0  0  0
  161.7668  143.2069  158.7242 H   0  0  0  0  0  0  0  0  0  0  0  0
  159.4154  143.0551  157.9302 H   0  0  0  0  0  0  0  0  0  0  0  0
  157.7375  141.8068  159.2628 H   0  0  0  0  0  0  0  0  0  0  0  0
  158.3530  139.4344  161.6228 H   0  0  0  0  0  0  0  0  0  0  0  0
  158.0028  140.8228  162.6303 H   0  0  0  0  0  0  0  0  0  0  0  0
  156.1565  139.0029  162.1196 H   0  0  0  0  0  0  0  0  0  0  0  0
  155.4121  140.5516  162.5041 H   0  0  0  0  0  0  0  0  0  0  0  0
  153.7495  139.2944  161.2948 H   0  0  0  0  0  0  0  0  0  0  0  0
  154.5459  138.6352  159.0553 H   0  0  0  0  0  0  0  0  0  0  0  0
  155.1249  141.3667  159.5222 H   0  0  0  0  0  0  0  0  0  0  0  0
  153.6982  140.5269  158.9583 H   0  0  0  0  0  0  0  0  0  0  0  0
  153.5022  141.0172  162.5590 H   0  0  0  0  0  0  0  0  0  0  0  0
  150.8066  145.1047  161.8390 H   0  0  0  0  0  0  0  0  0  0  0  0
  150.6110  146.1073  159.5746 H   0  0  0  0  0  0  0  0  0  0  0  0
  151.7663  145.0687  157.6343 H   0  0  0  0  0  0  0  0  0  0  0  0
  153.1348  143.0088  157.9521 H   0  0  0  0  0  0  0  0  0  0  0  0
  1  2  1  0  0  0  0
  1 24  1  0  0  0  0
  1 25  1  0  0  0  0
  1 26  1  0  0  0  0
  2  3  1  0  0  0  0
  3  8  1  0  0  0  0
  3  4  2  0  0  0  0
  4  5  1  0  0  0  0
  4 27  1  0  0  0  0
  5  6  2  0  0  0  0
  5 28  1  0  0  0  0
  6  7  1  0  0  0  0
  6 29  1  0  0  0  0
  7  8  2  0  0  0  0
  7 30  1  0  0  0  0
  8  9  1  0  0  0  0
  9 10  1  0  0  0  0
  9 31  1  0  0  0  0
  9 32  1  0  0  0  0
 10 11  1  0  0  0  0
 11 12  1  0  0  0  0
 11 33  1  0  0  0  0
 11 34  1  0  0  0  0
 12 13  1  0  0  0  0
 12 14  1  0  0  0  0
 12 35  1  0  0  0  0
 13 36  1  0  0  0  0
 14 15  1  0  0  0  0
 14 37  1  0  0  0  0
 14 38  1  0  0  0  0
 15 23  1  0  0  0  0
 15 16  1  0  0  0  0
 16 17  2  0  0  0  0
 16 39  1  0  0  0  0
 17 18  1  0  0  0  0
 18 23  2  0  0  0  0
 18 19  1  0  0  0  0
 19 20  2  0  0  0  0
 19 40  1  0  0  0  0
 20 21  1  0  0  0  0
 20 41  1  0  0  0  0
 21 22  2  0  0  0  0
 21 42  1  0  0  0  0
 22 23  1  0  0  0  0
 22 43  1  0  0  0  0
M  END
> <s_m_source_file>
AV-unprocessed.smi

> <i_m_source_file_index>
1350

> <i_lp_mmshare_version>
43012

> <i_f3d_flags>
0

> <s_epik_input>
W0NIM11PYzFbY0hdW2NIXVtjSF1bY0hdYzFbQ0gyXU9bQ0gyXVtDQEhdKFtPSF0pW0NIMl1uKFtjSF1uMiljKGMyMylbY0hdW2NIXVtjSF1bY0hdMw==

> <s_epik_cmdline>
J2VwaWtfcHl0aG9uJywgJy1waCcsICc3LjAnLCAnLXRuJywgJzgnLCAnLW1hJywgJzIwMCcsICctbWV0YWxfYmluZGluZycsICctaW1hZScsICc8aW5maWxlLm1hZT4nLCAnLW9tYWUnLCAnPG91dGZpbGUubWFlPic=

> <r_lp_tautomer_probability>
1

> <r_epik_Ionization_Penalty>
0.0713119

> <r_epik_Ionization_Penalty_Charging>
0

> <r_epik_Ionization_Penalty_Neutral>
0.0713119

> <r_epik_State_Penalty>
0.06259

> <r_epik_Charging_Adjusted_Penalty>
0.06259

> <i_epik_Tot_Q>
0

> <i_epik_Tot_abs_Q>
0

> <r_epik_Metal_State_Penalty>
6.60119e-05

> <b_epik_Metal_Only>
0

> <s_lp_Force_Field>
OPLS_2005

> <r_lp_Energy>
18.6906

> <b_lp_Chiralities_Consistent>
1

> <s_lp_Variant>
AV-unprocessed.smi:1350-1

> <Gold.Version>
5.8.1

> <Gold.Id.Protein>
6NUR|6NUR_protein|mol2

> <Gold.PLP.Fitness>
51.0849

> <Gold.PLP.PLP>
-51.9746

> <Gold.PLP.part.hbond>
-1.0000

> <Gold.PLP.part.metal>
0.0000

> <Gold.PLP.part.buried>
-3.0302

> <Gold.PLP.part.nonpolar>
-47.6526

> <Gold.PLP.part.repulsive>
0.1579

> <Gold.PLP.ligand.clash>
0.0000

> <Gold.PLP.ligand.torsion>
0.5026

> <Gold.PLP.Chemscore.Hbond>
0.0000

> <Gold.PLP.Chemscore.CHOScore>
0.0000

> <Gold.PLP.Chemscore.Metal>
0.0000

> <Gold.PLP.Chemscore.Internal.Correction>
0.1155

> <Gold.Rescore>
     Score         DG    S(hbond)    S(metal)    S(lipo)     H(rot)  DE(clash)    DE(int)     intcor
     16.09     -17.43       0.66        0.00     140.76       2.63       0.68       0.66       ----

> <Gold.Chemscore.Fitness>
16.0875

> <Gold.Chemscore.DG>
-17.4320

> <Gold.Chemscore.ZeroCoef>
-5.4800

> <Gold.Chemscore.Hbond>
0.6639

> <Gold.Chemscore.Metal>
0.0000

> <Gold.Chemscore.Lipo>
140.7625

> <Gold.Chemscore.Internal_Hbond>
0.0000

> <Gold.Chemscore.DEClash>
0.6813

> <Gold.Chemscore.DEInternal>
0.6631

> <Gold.Chemscore.Rot>
2.6308

> <Gold.Chemscore.Internal.Correction>
   9.000000E+99

> <Gold.Chemscore.Hbond.Weighted>
-2.2175

> <Gold.Chemscore.Metal.Weighted>
-0.0000

> <Gold.Chemscore.Lipo.Weighted>
-16.4692

> <Gold.Chemscore.Internal_Hbond.Weighted>
0.0000

> <Gold.Chemscore.DEClash.Weighted>
0.6813

> <Gold.Chemscore.DEInternal.Weighted>
0.6631

> <Gold.Chemscore.Rot.Weighted>
6.7347

> <Gold.Chemscore.Internal.Correction.Weighted>
   9.000000E+99

> <Gold.Protein.RotatedTorsions>
[ 6907 6896 6895 6894 ] final  -84.95 input  -60.11 | X-H torsion
[ 7974 7965 7964 7962 ] final  -55.38 input  175.53 | X-H torsion
[ 8008 7997 7996 7995 ] final   -7.74 input   59.86 | X-H torsion
[ 10167 10162 10161 10158 ] final  -92.03 input  -65.29 | X-H torsion
[ 10718 10713 10712 10709 ] final -152.87 input   66.30 | X-H torsion
[ 10763 10752 10751 10750 ] final   72.10 input  -60.55 | X-H torsion
[ 11005 11000 10999 10996 ] final  110.29 input  -57.11 | X-H torsion

> <Gold.Protein.ActiveResidues>
 VAL166  LYS551  ARG553  GLY616  TRP617  ASP618  TYR619  PRO620  LYS621  CYS622 
 ASP623  PHE694  ASN695  SER759  ASP760  ASP761  ALA762  ILE779  LEU786  VAL792 
 PHE793  MET794  SER795  GLU796  ALA797  LYS798  CYS799  TRP800  GLU811  SER814 

> <Gold.Protein.RotatedAtoms>
  150.6873  134.3280  159.4814 H   0  0  0  0  0  0  0  0  0  0  0  0  # atno 6907 bound_to 6896
  152.1147  134.9246  160.0574 H   0  0  0  0  0  0  0  0  0  0  0  0  # atno 6908 bound_to 6896
  152.0475  133.3969  159.4400 H   0  0  0  0  0  0  0  0  0  0  0  0  # atno 6909 bound_to 6896
  145.8748  140.8189  142.9870 H   0  0  0  0  0  0  0  0  0  0  0  0  # atno 7974 bound_to 7965
  154.5808  140.2399  155.8056 H   0  0  0  0  0  0  0  0  0  0  0  0  # atno 8008 bound_to 7997
  156.2178  140.3007  155.9836 H   0  0  0  0  0  0  0  0  0  0  0  0  # atno 8009 bound_to 7997
  155.2544  140.0412  157.2981 H   0  0  0  0  0  0  0  0  0  0  0  0  # atno 8010 bound_to 7997
  140.3389  143.2953  151.9858 H   0  0  0  0  0  0  0  0  0  0  0  0  # atno 10167 bound_to 10162
  156.4783  130.8291  151.2519 H   0  0  0  0  0  0  0  0  0  0  0  0  # atno 10718 bound_to 10713
  153.0438  135.5112  154.7692 H   0  0  0  0  0  0  0  0  0  0  0  0  # atno 10763 bound_to 10752
  154.6609  135.2938  154.9870 H   0  0  0  0  0  0  0  0  0  0  0  0  # atno 10764 bound_to 10752
  154.0722  135.6676  153.4878 H   0  0  0  0  0  0  0  0  0  0  0  0  # atno 10765 bound_to 10752
  139.8879  134.9480  156.6256 H   0  0  0  0  0  0  0  0  0  0  0  0  # atno 11005 bound_to 11000
  144.6726  140.1294  143.7444 LP  0  0  0  0  0  0  0  0  0  0  0  0  # atno 17320 bound_to 7965
  145.9094  139.2478  143.1446 LP  0  0  0  0  0  0  0  0  0  0  0  0  # atno 17321 bound_to 7965
  139.4844  144.6173  151.7322 LP  0  0  0  0  0  0  0  0  0  0  0  0  # atno 17342 bound_to 10162
  140.5327  144.0704  150.6059 LP  0  0  0  0  0  0  0  0  0  0  0  0  # atno 17343 bound_to 10162
  157.7485  131.0053  150.3110 LP  0  0  0  0  0  0  0  0  0  0  0  0  # atno 17370 bound_to 10713
  156.3548  130.3837  149.7299 LP  0  0  0  0  0  0  0  0  0  0  0  0  # atno 17371 bound_to 10713
  140.7705  133.8742  155.8488 LP  0  0  0  0  0  0  0  0  0  0  0  0  # atno 17394 bound_to 11000
  140.9846  134.1360  157.4464 LP  0  0  0  0  0  0  0  0  0  0  0  0  # atno 17395 bound_to 11000

$$$$
