AV-unprocessed.smi:2163|AV-procd|sdf|8806|dock7
  -GOLD-   2272011593D 1   1.00000     0.00000
 Structure written by MMmdl.
 44 46  0  0  0  0  0  0  0  0  2 V2000
  149.7111  141.4497  155.5861 C   0  0  0  0  0  0  0  0  0  0  0  0
  150.4205  141.9962  156.7792 C   0  0  0  0  0  0  0  0  0  0  0  0
  150.5575  143.3143  157.0960 N   0  3  0  0  0  0  0  0  0  0  0  0
  151.2789  143.4419  158.2836 C   0  0  0  0  0  0  0  0  0  0  0  0
  151.6647  144.5725  158.9969 C   0  0  0  0  0  0  0  0  0  0  0  0
  152.3956  144.3535  160.1828 C   0  0  0  0  0  0  0  0  0  0  0  0
  152.7168  143.0512  160.6173 C   0  0  0  0  0  0  0  0  0  0  0  0
  152.3218  141.9125  159.8845 C   0  0  0  0  0  0  0  0  0  0  0  0
  151.5988  142.1370  158.7128 C   0  0  0  0  0  0  0  0  0  0  0  0
  151.0489  141.2781  157.7531 N   0  0  0  0  0  0  0  0  0  0  0  0
  151.1987  139.8222  157.9024 C   0  0  0  0  0  0  0  0  0  0  0  0
  152.6677  139.3635  157.8007 C   0  0  2  0  0  0  0  0  0  0  0  0
  152.9278  138.6982  156.5810 O   0  0  0  0  0  0  0  0  0  0  0  0
  153.1187  138.4730  158.9696 C   0  0  0  0  0  0  0  0  0  0  0  0
  153.6272  139.2792  160.0256 O   0  0  0  0  0  0  0  0  0  0  0  0
  154.0759  138.6523  161.1684 C   0  0  0  0  0  0  0  0  0  0  0  0
  153.8329  137.2903  161.4790 C   0  0  0  0  0  0  0  0  0  0  0  0
  154.3306  136.7307  162.6720 C   0  0  0  0  0  0  0  0  0  0  0  0
  155.0761  137.5195  163.5698 C   0  0  0  0  0  0  0  0  0  0  0  0
  155.6122  136.9155  164.8514 C   0  0  0  0  0  0  0  0  0  0  0  0
  156.3102  137.9093  165.6810 C   0  0  0  0  0  0  0  0  0  0  0  0
  156.8590  138.6911  166.3339 N   0  0  0  0  0  0  0  0  0  0  0  0
  155.3219  138.8731  163.2674 C   0  0  0  0  0  0  0  0  0  0  0  0
  154.8235  139.4320  162.0749 C   0  0  0  0  0  0  0  0  0  0  0  0
  149.2955  142.2577  154.9836 H   0  0  0  0  0  0  0  0  0  0  0  0
  148.8965  140.7964  155.8984 H   0  0  0  0  0  0  0  0  0  0  0  0
  150.4017  140.8759  154.9677 H   0  0  0  0  0  0  0  0  0  0  0  0
  151.4186  145.5710  158.6666 H   0  0  0  0  0  0  0  0  0  0  0  0
  152.7153  145.2013  160.7715 H   0  0  0  0  0  0  0  0  0  0  0  0
  153.2767  142.9225  161.5322 H   0  0  0  0  0  0  0  0  0  0  0  0
  152.5711  140.9203  160.2300 H   0  0  0  0  0  0  0  0  0  0  0  0
  150.7959  139.5550  158.8799 H   0  0  0  0  0  0  0  0  0  0  0  0
  150.5675  139.3198  157.1694 H   0  0  0  0  0  0  0  0  0  0  0  0
  153.3046  140.2487  157.7980 H   0  0  0  0  0  0  0  0  0  0  0  0
  153.8616  138.6951  156.4353 H   0  0  0  0  0  0  0  0  0  0  0  0
  152.2911  137.8497  159.3132 H   0  0  0  0  0  0  0  0  0  0  0  0
  153.9100  137.8092  158.6172 H   0  0  0  0  0  0  0  0  0  0  0  0
  153.2665  136.6516  160.8186 H   0  0  0  0  0  0  0  0  0  0  0  0
  154.1386  135.6914  162.8952 H   0  0  0  0  0  0  0  0  0  0  0  0
  154.7951  136.4908  165.4351 H   0  0  0  0  0  0  0  0  0  0  0  0
  156.3073  136.1068  164.6243 H   0  0  0  0  0  0  0  0  0  0  0  0
  155.8941  139.4857  163.9486 H   0  0  0  0  0  0  0  0  0  0  0  0
  155.0183  140.4709  161.8525 H   0  0  0  0  0  0  0  0  0  0  0  0
  150.1814  144.0706  156.5387 H   0  0  0  0  0  0  0  0  0  0  0  0
  1  2  1  0  0  0  0
  1 25  1  0  0  0  0
  1 26  1  0  0  0  0
  1 27  1  0  0  0  0
  2 10  1  0  0  0  0
  2  3  2  0  0  0  0
  3  4  1  0  0  0  0
  3 44  1  0  0  0  0
  4  9  2  0  0  0  0
  4  5  1  0  0  0  0
  5  6  2  0  0  0  0
  5 28  1  0  0  0  0
  6  7  1  0  0  0  0
  6 29  1  0  0  0  0
  7  8  2  0  0  0  0
  7 30  1  0  0  0  0
  8  9  1  0  0  0  0
  8 31  1  0  0  0  0
  9 10  1  0  0  0  0
 10 11  1  0  0  0  0
 11 12  1  0  0  0  0
 11 32  1  0  0  0  0
 11 33  1  0  0  0  0
 12 13  1  0  0  0  0
 12 14  1  0  0  0  0
 12 34  1  0  0  0  0
 13 35  1  0  0  0  0
 14 15  1  0  0  0  0
 14 36  1  0  0  0  0
 14 37  1  0  0  0  0
 15 16  1  0  0  0  0
 16 24  1  0  0  0  0
 16 17  2  0  0  0  0
 17 18  1  0  0  0  0
 17 38  1  0  0  0  0
 18 19  2  0  0  0  0
 18 39  1  0  0  0  0
 19 20  1  0  0  0  0
 19 23  1  0  0  0  0
 20 21  1  0  0  0  0
 20 40  1  0  0  0  0
 20 41  1  0  0  0  0
 21 22  3  0  0  0  0
 23 24  2  0  0  0  0
 23 42  1  0  0  0  0
 24 43  1  0  0  0  0
M  CHG  1   3   1
M  END
> <s_m_source_file>
AV-unprocessed.smi

> <i_m_source_file_index>
2163

> <i_lp_mmshare_version>
43012

> <i_f3d_flags>
0

> <s_epik_input>
W2NIXTFbY0hdW2NIXVtjSF1jKGMxMiluKGMobjIpW0NIM10pW0NIMl1bQ0BIXShbT0hdKVtDSDJdT2MzW2NIXVtjSF1jKFtDSDJdQyNOKVtjSF1bY0hdMw==

> <s_epik_cmdline>
J2VwaWtfcHl0aG9uJywgJy1waCcsICc3LjAnLCAnLXRuJywgJzgnLCAnLW1hJywgJzIwMCcsICctbWV0YWxfYmluZGluZycsICctaW1hZScsICc8aW5maWxlLm1hZT4nLCAnLW9tYWUnLCAnPG91dGZpbGUubWFlPic=

> <r_lp_tautomer_probability>
1

> <r_epik_Ionization_Penalty>
1.03158

> <r_epik_Ionization_Penalty_Charging>
1.03158

> <r_epik_Ionization_Penalty_Neutral>
2.3994e-06

> <r_epik_State_Penalty>
1.08278

> <r_epik_Charging_Adjusted_Penalty>
2.11436

> <i_epik_Tot_Q>
1

> <i_epik_Tot_abs_Q>
1

> <r_epik_Metal_State_Penalty>
5.07177

> <b_epik_Metal_Only>
0

> <s_lp_Force_Field>
OPLS_2005

> <r_lp_Energy>
21.0912

> <b_lp_Chiralities_Consistent>
1

> <s_lp_Variant>
AV-unprocessed.smi:2163-3

> <Gold.Version>
5.8.1

> <Gold.Id.Protein>
6NUR|6NUR_protein|mol2

> <Gold.PLP.Fitness>
52.1137

> <Gold.PLP.PLP>
-48.6921

> <Gold.PLP.part.hbond>
-2.0000

> <Gold.PLP.part.metal>
0.0000

> <Gold.PLP.part.buried>
-5.5810

> <Gold.PLP.part.nonpolar>
-41.4627

> <Gold.PLP.part.repulsive>
0.0406

> <Gold.PLP.ligand.clash>
0.0000

> <Gold.PLP.ligand.torsion>
1.2804

> <Gold.PLP.Chemscore.Hbond>
1.9520

> <Gold.PLP.Chemscore.CHOScore>
0.0000

> <Gold.PLP.Chemscore.Metal>
0.0000

> <Gold.Chemscore.Hbonds>
donor molecule, donor type, donor heavy atom, donor atom, acceptor molecule, acceptor atom, score
      L1  H     3    44       P1  8028  2.00

> <Gold.PLP.Chemscore.Internal.Correction>
0.1264

> <Gold.Rescore>
     Score         DG    S(hbond)    S(metal)    S(lipo)     H(rot)  DE(clash)    DE(int)     intcor
     17.06     -18.07       0.94        0.00     137.69       2.60       0.03       0.98       ----

> <Gold.Chemscore.Fitness>
17.0606

> <Gold.Chemscore.DG>
-18.0717

> <Gold.Chemscore.ZeroCoef>
-5.4800

> <Gold.Chemscore.Hbond>
0.9427

> <Gold.Chemscore.Metal>
0.0000

> <Gold.Chemscore.Lipo>
137.6896

> <Gold.Chemscore.Internal_Hbond>
0.0000

> <Gold.Chemscore.DEClash>
0.0286

> <Gold.Chemscore.DEInternal>
0.9826

> <Gold.Chemscore.Rot>
2.6041

> <Gold.Chemscore.Internal.Correction>
   9.000000E+99

> <Gold.Chemscore.Hbonds>
donor molecule, donor type, donor heavy atom, donor atom, acceptor molecule, acceptor atom, score
      L1  H     3    44       P1  8028  0.94

> <Gold.Chemscore.Hbond.Weighted>
-3.1486

> <Gold.Chemscore.Metal.Weighted>
-0.0000

> <Gold.Chemscore.Lipo.Weighted>
-16.1097

> <Gold.Chemscore.Internal_Hbond.Weighted>
0.0000

> <Gold.Chemscore.DEClash.Weighted>
0.0286

> <Gold.Chemscore.DEInternal.Weighted>
0.9826

> <Gold.Chemscore.Rot.Weighted>
6.6665

> <Gold.Chemscore.Internal.Correction.Weighted>
   9.000000E+99

> <Gold.Protein.RotatedTorsions>
[ 6907 6896 6895 6894 ] final -107.09 input  -60.11 | X-H torsion
[ 7974 7965 7964 7962 ] final -165.73 input  175.53 | X-H torsion
[ 8008 7997 7996 7995 ] final  -68.65 input   59.86 | X-H torsion
[ 10167 10162 10161 10158 ] final -135.90 input  -65.29 | X-H torsion
[ 10718 10713 10712 10709 ] final  122.02 input   66.30 | X-H torsion
[ 10763 10752 10751 10750 ] final  137.39 input  -60.55 | X-H torsion
[ 11005 11000 10999 10996 ] final   43.51 input  -57.11 | X-H torsion

> <Gold.Protein.ActiveResidues>
 VAL166  LYS551  ARG553  GLY616  TRP617  ASP618  TYR619  PRO620  LYS621  CYS622 
 ASP623  PHE694  ASN695  SER759  ASP760  ASP761  ALA762  ILE779  LEU786  VAL792 
 PHE793  MET794  SER795  GLU796  ALA797  LYS798  CYS799  TRP800  GLU811  SER814 

> <Gold.Protein.RotatedAtoms>
  150.7425  133.9878  159.3596 H   0  0  0  0  0  0  0  0  0  0  0  0  # atno 6907 bound_to 6896
  151.7823  135.0756  160.0385 H   0  0  0  0  0  0  0  0  0  0  0  0  # atno 6908 bound_to 6896
  152.3265  133.5874  159.5816 H   0  0  0  0  0  0  0  0  0  0  0  0  # atno 6909 bound_to 6896
  144.7262  140.2771  143.6241 H   0  0  0  0  0  0  0  0  0  0  0  0  # atno 7974 bound_to 7965
  154.4883  140.0869  156.7536 H   0  0  0  0  0  0  0  0  0  0  0  0  # atno 8008 bound_to 7997
  155.4295  140.3449  155.4260 H   0  0  0  0  0  0  0  0  0  0  0  0  # atno 8009 bound_to 7997
  156.1293  140.1496  156.9077 H   0  0  0  0  0  0  0  0  0  0  0  0  # atno 8010 bound_to 7997
  139.8732  143.6931  152.2637 H   0  0  0  0  0  0  0  0  0  0  0  0  # atno 10167 bound_to 10162
  157.5773  131.1078  150.8254 H   0  0  0  0  0  0  0  0  0  0  0  0  # atno 10718 bound_to 10713
  153.8723  135.3054  155.3442 H   0  0  0  0  0  0  0  0  0  0  0  0  # atno 10763 bound_to 10752
  154.7800  135.4841  153.9827 H   0  0  0  0  0  0  0  0  0  0  0  0  # atno 10764 bound_to 10752
  153.1399  135.6822  153.9140 H   0  0  0  0  0  0  0  0  0  0  0  0  # atno 10765 bound_to 10752
  140.1638  134.4308  155.8300 H   0  0  0  0  0  0  0  0  0  0  0  0  # atno 11005 bound_to 11000
  145.7986  139.1955  143.2061 LP  0  0  0  0  0  0  0  0  0  0  0  0  # atno 17320 bound_to 7965
  146.0696  140.7883  142.9695 LP  0  0  0  0  0  0  0  0  0  0  0  0  # atno 17321 bound_to 7965
  139.7265  144.7592  151.0871 LP  0  0  0  0  0  0  0  0  0  0  0  0  # atno 17342 bound_to 10162
  140.7757  143.5142  150.9615 LP  0  0  0  0  0  0  0  0  0  0  0  0  # atno 17343 bound_to 10162
  156.8709  130.5146  149.5297 LP  0  0  0  0  0  0  0  0  0  0  0  0  # atno 17370 bound_to 10713
  156.0818  130.5827  150.9577 LP  0  0  0  0  0  0  0  0  0  0  0  0  # atno 17371 bound_to 10713
  141.2212  133.6925  156.7641 LP  0  0  0  0  0  0  0  0  0  0  0  0  # atno 17394 bound_to 11000
  140.2458  134.8578  157.3619 LP  0  0  0  0  0  0  0  0  0  0  0  0  # atno 17395 bound_to 11000

$$$$
