AV-unprocessed.smi:886|AV-procd|sdf|4050|dock7
  -GOLD-   22720 1533D 1   1.00000     0.00000
 Structure written by MMmdl.
 35 37  0  0  0  0  0  0  0  0  1 V2000
  147.0211  141.7828  152.7769 C   0  0  0  0  0  0  0  0  0  0  0  0
  148.2201  141.1972  153.3562 N   0  0  0  0  0  0  0  0  0  0  0  0
  148.6064  141.3746  154.6290 C   0  0  0  0  0  0  0  0  0  0  0  0
  147.9846  142.0703  155.4328 O   0  0  0  0  0  0  0  0  0  0  0  0
  149.8906  140.6850  155.0131 C   0  0  0  0  0  0  0  0  0  0  0  0
  150.2444  139.4699  154.3807 C   0  0  0  0  0  0  0  0  0  0  0  0
  151.4253  138.8068  154.7589 C   0  0  0  0  0  0  0  0  0  0  0  0
  152.2156  139.3818  155.7686 C   0  0  0  0  0  0  0  0  0  0  0  0
  151.8949  140.5359  156.3868 N   0  0  0  0  0  0  0  0  0  0  0  0
  150.7580  141.1823  156.0289 C   0  0  0  0  0  0  0  0  0  0  0  0
  150.4784  142.3941  156.6865 N   0  0  0  0  0  0  0  0  0  0  0  0
  150.6819  142.5317  158.1248 C   0  0  2  0  0  0  0  0  0  0  0  0
  150.2212  143.8909  158.6676 C   0  0  0  0  0  0  0  0  0  0  0  0
  151.4999  144.4193  159.3294 C   0  0  1  0  0  0  0  0  0  0  0  0
  151.8733  143.6262  160.5891 C   0  0  0  0  0  0  0  0  0  0  0  0
  152.3800  142.3135  159.9925 C   0  0  0  0  0  0  0  0  0  0  0  0
  152.1760  142.5495  158.4896 C   0  0  2  0  0  0  0  0  0  0  0  0
  152.4698  143.9357  158.4176 O   0  0  0  0  0  0  0  0  0  0  0  0
  146.9387  141.4998  151.7276 H   0  0  0  0  0  0  0  0  0  0  0  0
  147.0537  142.8715  152.8346 H   0  0  0  0  0  0  0  0  0  0  0  0
  146.1281  141.4325  153.2963 H   0  0  0  0  0  0  0  0  0  0  0  0
  148.7934  140.6244  152.7537 H   0  0  0  0  0  0  0  0  0  0  0  0
  149.6166  139.0375  153.6151 H   0  0  0  0  0  0  0  0  0  0  0  0
  151.7149  137.8782  154.2901 H   0  0  0  0  0  0  0  0  0  0  0  0
  153.1286  138.9028  156.0895 H   0  0  0  0  0  0  0  0  0  0  0  0
  149.8010  143.0100  156.2594 H   0  0  0  0  0  0  0  0  0  0  0  0
  150.1893  141.7060  158.6403 H   0  0  0  0  0  0  0  0  0  0  0  0
  149.9106  144.5617  157.8651 H   0  0  0  0  0  0  0  0  0  0  0  0
  149.3935  143.8015  159.3716 H   0  0  0  0  0  0  0  0  0  0  0  0
  151.5124  145.5009  159.4662 H   0  0  0  0  0  0  0  0  0  0  0  0
  152.6687  144.1267  161.1424 H   0  0  0  0  0  0  0  0  0  0  0  0
  151.0233  143.4885  161.2582 H   0  0  0  0  0  0  0  0  0  0  0  0
  153.4371  142.1738  160.2212 H   0  0  0  0  0  0  0  0  0  0  0  0
  151.8341  141.4426  160.3567 H   0  0  0  0  0  0  0  0  0  0  0  0
  152.8036  141.9168  157.8607 H   0  0  0  0  0  0  0  0  0  0  0  0
  1  2  1  0  0  0  0
  1 19  1  0  0  0  0
  1 20  1  0  0  0  0
  1 21  1  0  0  0  0
  2  3  1  0  0  0  0
  2 22  1  0  0  0  0
  3  4  2  0  0  0  0
  3  5  1  0  0  0  0
  5 10  1  0  0  0  0
  5  6  2  0  0  0  0
  6  7  1  0  0  0  0
  6 23  1  0  0  0  0
  7  8  2  0  0  0  0
  7 24  1  0  0  0  0
  8  9  1  0  0  0  0
  8 25  1  0  0  0  0
  9 10  2  0  0  0  0
 10 11  1  0  0  0  0
 11 12  1  0  0  0  0
 11 26  1  0  0  0  0
 12 17  1  0  0  0  0
 12 13  1  0  0  0  0
 12 27  1  0  0  0  0
 13 14  1  0  0  0  0
 13 28  1  0  0  0  0
 13 29  1  0  0  0  0
 14 18  1  0  0  0  0
 14 15  1  0  0  0  0
 14 30  1  0  0  0  0
 15 16  1  0  0  0  0
 15 31  1  0  0  0  0
 15 32  1  0  0  0  0
 16 17  1  0  0  0  0
 16 33  1  0  0  0  0
 16 34  1  0  0  0  0
 17 18  1  0  0  0  0
 17 35  1  0  0  0  0
M  END
> <s_m_source_file>
AV-unprocessed.smi

> <i_m_source_file_index>
886

> <i_lp_mmshare_version>
43012

> <i_f3d_flags>
0

> <s_epik_input>
W0NIM11bTkhdQyg9TyljMVtjSF1bY0hdW2NIXW5jMVtOSF1bQ0BIXShbQ0gyXVtDQEhdMjMpW0NASF0oTzMpW0NIMl1bQ0gyXTI=

> <s_epik_cmdline>
J2VwaWtfcHl0aG9uJywgJy1waCcsICc3LjAnLCAnLXRuJywgJzgnLCAnLW1hJywgJzIwMCcsICctbWV0YWxfYmluZGluZycsICctaW1hZScsICc8aW5maWxlLm1hZT4nLCAnLW9tYWUnLCAnPG91dGZpbGUubWFlPic=

> <r_lp_tautomer_probability>
1

> <r_epik_Ionization_Penalty>
0.0065447

> <r_epik_Ionization_Penalty_Charging>
0

> <r_epik_Ionization_Penalty_Neutral>
0.0065447

> <r_epik_State_Penalty>
0.00484214

> <r_epik_Charging_Adjusted_Penalty>
0.00484214

> <i_epik_Tot_Q>
0

> <i_epik_Tot_abs_Q>
0

> <r_epik_Metal_State_Penalty>
-0

> <b_epik_Metal_Only>
0

> <s_lp_Force_Field>
OPLS_2005

> <r_lp_Energy>
46.3803

> <b_lp_Chiralities_Consistent>
1

> <s_lp_Variant>
AV-unprocessed.smi:886-3

> <Gold.Version>
5.8.1

> <Gold.Id.Protein>
6NUR|6NUR_protein|mol2

> <Gold.PLP.Fitness>
41.4476

> <Gold.PLP.PLP>
-36.9465

> <Gold.PLP.part.hbond>
-2.0000

> <Gold.PLP.part.metal>
0.0000

> <Gold.PLP.part.buried>
-4.8284

> <Gold.PLP.part.nonpolar>
-31.4030

> <Gold.PLP.part.repulsive>
1.8268

> <Gold.PLP.ligand.clash>
0.0000

> <Gold.PLP.ligand.torsion>
0.7480

> <Gold.PLP.Chemscore.Hbond>
1.9913

> <Gold.PLP.Chemscore.CHOScore>
0.0000

> <Gold.PLP.Chemscore.Metal>
0.0000

> <Gold.Chemscore.Hbonds>
donor molecule, donor type, donor heavy atom, donor atom, acceptor molecule, acceptor atom, score
      L1  H     2    22       P1  7957  1.00
      L1  H    11    26       P1  8028  1.00

> <Gold.PLP.Chemscore.Internal.Correction>
0.0234

> <Gold.Rescore>
     Score         DG    S(hbond)    S(metal)    S(lipo)     H(rot)  DE(clash)    DE(int)     intcor
     16.70     -20.54       1.81        0.00      98.92       1.00       1.56       2.28       ----

> <Gold.Chemscore.Fitness>
16.6979

> <Gold.Chemscore.DG>
-20.5366

> <Gold.Chemscore.ZeroCoef>
-5.4800

> <Gold.Chemscore.Hbond>
1.8091

> <Gold.Chemscore.Metal>
0.0000

> <Gold.Chemscore.Lipo>
98.9244

> <Gold.Chemscore.Internal_Hbond>
0.0000

> <Gold.Chemscore.DEClash>
1.5618

> <Gold.Chemscore.DEInternal>
2.2769

> <Gold.Chemscore.Rot>
1.0000

> <Gold.Chemscore.Internal.Correction>
   9.000000E+99

> <Gold.Chemscore.Hbonds>
donor molecule, donor type, donor heavy atom, donor atom, acceptor molecule, acceptor atom, score
      L1  H     2    22       P1  7957  0.99
      L1  H    11    26       P1  8028  0.93

> <Gold.Chemscore.Hbond.Weighted>
-6.0425

> <Gold.Chemscore.Metal.Weighted>
-0.0000

> <Gold.Chemscore.Lipo.Weighted>
-11.5742

> <Gold.Chemscore.Internal_Hbond.Weighted>
0.0000

> <Gold.Chemscore.DEClash.Weighted>
1.5618

> <Gold.Chemscore.DEInternal.Weighted>
2.2769

> <Gold.Chemscore.Rot.Weighted>
2.5600

> <Gold.Chemscore.Internal.Correction.Weighted>
   9.000000E+99

> <Gold.Protein.RotatedTorsions>
[ 6907 6896 6895 6894 ] final -138.62 input  -60.11 | X-H torsion
[ 7974 7965 7964 7962 ] final  105.77 input  175.53 | X-H torsion
[ 8008 7997 7996 7995 ] final  105.15 input   59.86 | X-H torsion
[ 10167 10162 10161 10158 ] final  -77.76 input  -65.29 | X-H torsion
[ 10718 10713 10712 10709 ] final   98.17 input   66.30 | X-H torsion
[ 10763 10752 10751 10750 ] final -176.42 input  -60.55 | X-H torsion
[ 11005 11000 10999 10996 ] final    3.38 input  -57.11 | X-H torsion

> <Gold.Protein.ActiveResidues>
 VAL166  LYS551  ARG553  GLY616  TRP617  ASP618  TYR619  PRO620  LYS621  CYS622 
 ASP623  PHE694  ASN695  SER759  ASP760  ASP761  ALA762  ILE779  LEU786  VAL792 
 PHE793  MET794  SER795  GLU796  ALA797  LYS798  CYS799  TRP800  GLU811  SER814 

> <Gold.Protein.RotatedAtoms>
  151.0373  133.5737  159.2654 H   0  0  0  0  0  0  0  0  0  0  0  0  # atno 6907 bound_to 6896
  151.2796  135.0709  159.9174 H   0  0  0  0  0  0  0  0  0  0  0  0  # atno 6908 bound_to 6896
  152.5357  134.0090  159.7983 H   0  0  0  0  0  0  0  0  0  0  0  0  # atno 6909 bound_to 6896
  145.3153  139.2528  143.3741 H   0  0  0  0  0  0  0  0  0  0  0  0  # atno 7974 bound_to 7965
  156.1635  140.3135  155.8848 H   0  0  0  0  0  0  0  0  0  0  0  0  # atno 8008 bound_to 7997
  155.3734  140.0483  157.3062 H   0  0  0  0  0  0  0  0  0  0  0  0  # atno 8009 bound_to 7997
  154.5169  140.2184  155.9059 H   0  0  0  0  0  0  0  0  0  0  0  0  # atno 8010 bound_to 7997
  140.4742  143.2418  151.8158 H   0  0  0  0  0  0  0  0  0  0  0  0  # atno 10167 bound_to 10162
  157.6900  131.0632  150.4756 H   0  0  0  0  0  0  0  0  0  0  0  0  # atno 10718 bound_to 10713
  154.5725  135.2829  155.0813 H   0  0  0  0  0  0  0  0  0  0  0  0  # atno 10763 bound_to 10752
  154.2180  135.6396  153.5139 H   0  0  0  0  0  0  0  0  0  0  0  0  # atno 10764 bound_to 10752
  153.0062  135.5507  154.6353 H   0  0  0  0  0  0  0  0  0  0  0  0  # atno 10765 bound_to 10752
  140.5938  133.9899  155.8100 H   0  0  0  0  0  0  0  0  0  0  0  0  # atno 11005 bound_to 11000
  146.3102  140.3699  142.8673 LP  0  0  0  0  0  0  0  0  0  0  0  0  # atno 17320 bound_to 7965
  144.8982  140.7610  143.5883 LP  0  0  0  0  0  0  0  0  0  0  0  0  # atno 17321 bound_to 7965
  139.4823  144.4854  151.9254 LP  0  0  0  0  0  0  0  0  0  0  0  0  # atno 17342 bound_to 10162
  140.3939  144.2580  150.5897 LP  0  0  0  0  0  0  0  0  0  0  0  0  # atno 17343 bound_to 10162
  156.5091  130.4135  149.6311 LP  0  0  0  0  0  0  0  0  0  0  0  0  # atno 17370 bound_to 10713
  156.3257  130.7305  151.2225 LP  0  0  0  0  0  0  0  0  0  0  0  0  # atno 17371 bound_to 10713
  141.0917  133.9906  157.3225 LP  0  0  0  0  0  0  0  0  0  0  0  0  # atno 17394 bound_to 11000
  139.9262  135.0201  156.8243 LP  0  0  0  0  0  0  0  0  0  0  0  0  # atno 17395 bound_to 11000

$$$$
