AV-unprocessed.smi:2340|AV-procd|sdf|9346|dock4
  -GOLD-   2272012563D 1   1.00000     0.00000
 Structure written by MMmdl.
 40 41  0  0  0  0  0  0  0  0  1 V2000
  145.3256  135.6381  151.1796 C   0  0  0  0  0  0  0  0  0  0  0  0
  145.6828  134.2766  151.6866 C   0  0  0  0  0  0  0  0  0  0  0  0
  145.3033  133.0705  151.1527 C   0  0  0  0  0  0  0  0  0  0  0  0
  145.9470  131.7285  152.0574 S   0  0  0  0  0  0  0  0  0  0  0  0
  146.7198  132.8740  153.1488 C   0  0  0  0  0  0  0  0  0  0  0  0
  147.5756  132.4530  154.3052 C   0  0  2  0  0  0  0  0  0  0  0  0
  146.9178  132.7627  155.6573 C   0  0  0  0  0  0  0  0  0  0  0  0
  149.0281  132.9724  154.2080 C   0  0  0  0  0  0  0  0  0  0  0  0
  149.1092  134.4301  154.1725 N   0  0  0  0  0  0  0  0  0  0  0  0
  149.7002  135.1908  155.1029 C   0  0  0  0  0  0  0  0  0  0  0  0
  150.1975  134.7527  156.1405 O   0  0  0  0  0  0  0  0  0  0  0  0
  149.7095  136.4832  154.7525 N   0  0  0  0  0  0  0  0  0  0  0  0
  150.3335  137.5549  155.5261 C   0  0  1  0  0  0  0  0  0  0  0  0
  151.8580  137.5262  155.3935 C   0  0  0  0  0  0  0  0  0  0  0  0
  152.2269  138.9534  155.0013 C   0  0  0  0  0  0  0  0  0  0  0  0
  151.0844  139.4060  154.2966 O   0  0  0  0  0  0  0  0  0  0  0  0
  149.9471  138.9625  155.0217 C   0  0  1  0  0  0  0  0  0  0  0  0
  148.6834  139.0762  154.1537 C   0  0  0  0  0  0  0  0  0  0  0  0
  146.4893  134.1490  152.8206 N   0  0  0  0  0  0  0  0  0  0  0  0
  144.6574  135.5811  150.3200 H   0  0  0  0  0  0  0  0  0  0  0  0
  146.2147  136.1877  150.8702 H   0  0  0  0  0  0  0  0  0  0  0  0
  144.8235  136.2253  151.9488 H   0  0  0  0  0  0  0  0  0  0  0  0
  144.6872  132.8901  150.2842 H   0  0  0  0  0  0  0  0  0  0  0  0
  147.6336  131.3652  154.2494 H   0  0  0  0  0  0  0  0  0  0  0  0
  145.9357  132.2949  155.7322 H   0  0  0  0  0  0  0  0  0  0  0  0
  146.7875  133.8361  155.7978 H   0  0  0  0  0  0  0  0  0  0  0  0
  147.5249  132.3909  156.4829 H   0  0  0  0  0  0  0  0  0  0  0  0
  149.5904  132.6433  155.0824 H   0  0  0  0  0  0  0  0  0  0  0  0
  149.5325  132.5464  153.3393 H   0  0  0  0  0  0  0  0  0  0  0  0
  148.7318  134.8859  153.3545 H   0  0  0  0  0  0  0  0  0  0  0  0
  149.2782  136.7451  153.8781 H   0  0  0  0  0  0  0  0  0  0  0  0
  150.0358  137.4614  156.5720 H   0  0  0  0  0  0  0  0  0  0  0  0
  152.3530  137.2106  156.3123 H   0  0  0  0  0  0  0  0  0  0  0  0
  152.1698  136.8435  154.6010 H   0  0  0  0  0  0  0  0  0  0  0  0
  152.3792  139.5736  155.8859 H   0  0  0  0  0  0  0  0  0  0  0  0
  153.1262  139.0030  154.3870 H   0  0  0  0  0  0  0  0  0  0  0  0
  149.8363  139.6204  155.8857 H   0  0  0  0  0  0  0  0  0  0  0  0
  147.8071  138.7044  154.6850 H   0  0  0  0  0  0  0  0  0  0  0  0
  148.7809  138.5151  153.2240 H   0  0  0  0  0  0  0  0  0  0  0  0
  148.4922  140.1159  153.8876 H   0  0  0  0  0  0  0  0  0  0  0  0
  1  2  1  0  0  0  0
  1 20  1  0  0  0  0
  1 21  1  0  0  0  0
  1 22  1  0  0  0  0
  2 19  1  0  0  0  0
  2  3  2  0  0  0  0
  3  4  1  0  0  0  0
  3 23  1  0  0  0  0
  4  5  1  0  0  0  0
  5  6  1  0  0  0  0
  5 19  2  0  0  0  0
  6  7  1  0  0  0  0
  6  8  1  0  0  0  0
  6 24  1  0  0  0  0
  7 25  1  0  0  0  0
  7 26  1  0  0  0  0
  7 27  1  0  0  0  0
  8  9  1  0  0  0  0
  8 28  1  0  0  0  0
  8 29  1  0  0  0  0
  9 10  1  0  0  0  0
  9 30  1  0  0  0  0
 10 11  2  0  0  0  0
 10 12  1  0  0  0  0
 12 13  1  0  0  0  0
 12 31  1  0  0  0  0
 13 17  1  0  0  0  0
 13 14  1  0  0  0  0
 13 32  1  0  0  0  0
 14 15  1  0  0  0  0
 14 33  1  0  0  0  0
 14 34  1  0  0  0  0
 15 16  1  0  0  0  0
 15 35  1  0  0  0  0
 15 36  1  0  0  0  0
 16 17  1  0  0  0  0
 17 18  1  0  0  0  0
 17 37  1  0  0  0  0
 18 38  1  0  0  0  0
 18 39  1  0  0  0  0
 18 40  1  0  0  0  0
M  END
> <s_m_source_file>
AV-unprocessed.smi

> <i_m_source_file_index>
2340

> <i_lp_mmshare_version>
43012

> <i_f3d_flags>
0

> <s_epik_input>
W0NIM11jMVtjSF1zYyhuMSlbQ0BIXShbQ0gzXSlbQ0gyXVtOSF1DKD1PKVtOSF1bQ0BASF0yW0NIMl1bQ0gyXU9bQ0BIXTJbQ0gzXQ==

> <s_epik_cmdline>
J2VwaWtfcHl0aG9uJywgJy1waCcsICc3LjAnLCAnLXRuJywgJzgnLCAnLW1hJywgJzIwMCcsICctbWV0YWxfYmluZGluZycsICctaW1hZScsICc8aW5maWxlLm1hZT4nLCAnLW9tYWUnLCAnPG91dGZpbGUubWFlPic=

> <r_epik_Ionization_Penalty>
0.00156622

> <r_epik_Ionization_Penalty_Charging>
0

> <r_epik_Ionization_Penalty_Neutral>
0.00156622

> <r_epik_State_Penalty>
0.00101902

> <r_epik_Charging_Adjusted_Penalty>
0.00101902

> <i_epik_Tot_Q>
0

> <i_epik_Tot_abs_Q>
0

> <r_epik_Metal_State_Penalty>
-0

> <b_epik_Metal_Only>
0

> <s_lp_Force_Field>
OPLS_2005

> <r_lp_Energy>
5.02478

> <b_lp_Chiralities_Consistent>
1

> <s_lp_Variant>
AV-unprocessed.smi:2340-3

> <Gold.Version>
5.8.1

> <Gold.Id.Protein>
6NUR|6NUR_protein|mol2

> <Gold.PLP.Fitness>
39.7934

> <Gold.PLP.PLP>
-31.4406

> <Gold.PLP.part.hbond>
-3.0000

> <Gold.PLP.part.metal>
0.0000

> <Gold.PLP.part.buried>
-3.4282

> <Gold.PLP.part.nonpolar>
-25.0889

> <Gold.PLP.part.repulsive>
0.5860

> <Gold.PLP.ligand.clash>
0.0000

> <Gold.PLP.ligand.torsion>
0.2612

> <Gold.PLP.Chemscore.Hbond>
2.9120

> <Gold.PLP.Chemscore.CHOScore>
0.0000

> <Gold.PLP.Chemscore.Metal>
0.0000

> <Gold.Chemscore.Hbonds>
donor molecule, donor type, donor heavy atom, donor atom, acceptor molecule, acceptor atom, score
      L1  H     9    30       P1  7948  0.98
      L1  H    12    31       P1  7948  0.79
      P1  H  7989  7998       L1    16  1.00

> <Gold.PLP.Chemscore.Internal.Correction>
0.1391

> <Gold.Rescore>
     Score         DG    S(hbond)    S(metal)    S(lipo)     H(rot)  DE(clash)    DE(int)     intcor
     16.70     -17.20       2.08        0.00      74.39       1.53       0.37       0.14       ----

> <Gold.Chemscore.Fitness>
16.6974

> <Gold.Chemscore.DG>
-17.2037

> <Gold.Chemscore.ZeroCoef>
-5.4800

> <Gold.Chemscore.Hbond>
2.0787

> <Gold.Chemscore.Metal>
0.0000

> <Gold.Chemscore.Lipo>
74.3944

> <Gold.Chemscore.Internal_Hbond>
0.0000

> <Gold.Chemscore.DEClash>
0.3693

> <Gold.Chemscore.DEInternal>
0.1371

> <Gold.Chemscore.Rot>
1.5325

> <Gold.Chemscore.Internal.Correction>
   9.000000E+99

> <Gold.Chemscore.Hbonds>
donor molecule, donor type, donor heavy atom, donor atom, acceptor molecule, acceptor atom, score
      L1  H     9    30       P1  7948  0.45
      L1  H    12    31       P1  7948  0.72
      P1  H  7989  7998       L1    16  0.45

> <Gold.Chemscore.Hbond.Weighted>
-6.9429

> <Gold.Chemscore.Metal.Weighted>
-0.0000

> <Gold.Chemscore.Lipo.Weighted>
-8.7041

> <Gold.Chemscore.Internal_Hbond.Weighted>
0.0000

> <Gold.Chemscore.DEClash.Weighted>
0.3693

> <Gold.Chemscore.DEInternal.Weighted>
0.1371

> <Gold.Chemscore.Rot.Weighted>
3.9233

> <Gold.Chemscore.Internal.Correction.Weighted>
   9.000000E+99

> <Gold.Protein.RotatedTorsions>
[ 6907 6896 6895 6894 ] final  -42.19 input  -60.11 | X-H torsion
[ 7974 7965 7964 7962 ] final  -68.41 input  175.53 | X-H torsion
[ 8008 7997 7996 7995 ] final  109.35 input   59.86 | X-H torsion
[ 10167 10162 10161 10158 ] final  -38.14 input  -65.29 | X-H torsion
[ 10718 10713 10712 10709 ] final  167.41 input   66.30 | X-H torsion
[ 10763 10752 10751 10750 ] final  -54.06 input  -60.55 | X-H torsion
[ 11005 11000 10999 10996 ] final  -84.56 input  -57.11 | X-H torsion

> <Gold.Protein.ActiveResidues>
 VAL166  LYS551  ARG553  GLY616  TRP617  ASP618  TYR619  PRO620  LYS621  CYS622 
 ASP623  PHE694  ASN695  SER759  ASP760  ASP761  ALA762  ILE779  LEU786  VAL792 
 PHE793  MET794  SER795  GLU796  ALA797  LYS798  CYS799  TRP800  GLU811  SER814 

> <Gold.Protein.RotatedAtoms>
  150.9581  134.8972  159.7713 H   0  0  0  0  0  0  0  0  0  0  0  0  # atno 6907 bound_to 6896
  152.5145  134.3712  159.9328 H   0  0  0  0  0  0  0  0  0  0  0  0  # atno 6908 bound_to 6896
  151.3725  133.3809  159.2736 H   0  0  0  0  0  0  0  0  0  0  0  0  # atno 6909 bound_to 6896
  145.7169  140.9055  143.0651 H   0  0  0  0  0  0  0  0  0  0  0  0  # atno 7974 bound_to 7965
  156.1972  140.3059  155.9452 H   0  0  0  0  0  0  0  0  0  0  0  0  # atno 8008 bound_to 7997
  155.3037  140.0447  157.3048 H   0  0  0  0  0  0  0  0  0  0  0  0  # atno 8009 bound_to 7997
  154.5525  140.2296  155.8471 H   0  0  0  0  0  0  0  0  0  0  0  0  # atno 8010 bound_to 7997
  140.7100  143.3296  151.2599 H   0  0  0  0  0  0  0  0  0  0  0  0  # atno 10167 bound_to 10162
  157.0520  131.0316  151.2677 H   0  0  0  0  0  0  0  0  0  0  0  0  # atno 10718 bound_to 10713
  154.1687  135.6462  153.5004 H   0  0  0  0  0  0  0  0  0  0  0  0  # atno 10763 bound_to 10752
  153.0090  135.5378  154.6635 H   0  0  0  0  0  0  0  0  0  0  0  0  # atno 10764 bound_to 10752
  154.5968  135.2939  155.0549 H   0  0  0  0  0  0  0  0  0  0  0  0  # atno 10765 bound_to 10752
  141.1649  133.7352  156.8886 H   0  0  0  0  0  0  0  0  0  0  0  0  # atno 11005 bound_to 11000
  144.6927  139.9149  143.7465 LP  0  0  0  0  0  0  0  0  0  0  0  0  # atno 17320 bound_to 7965
  146.0662  139.3652  143.0551 LP  0  0  0  0  0  0  0  0  0  0  0  0  # atno 17321 bound_to 7965
  139.6775  143.9913  152.2789 LP  0  0  0  0  0  0  0  0  0  0  0  0  # atno 17342 bound_to 10162
  139.9532  144.6607  150.8152 LP  0  0  0  0  0  0  0  0  0  0  0  0  # atno 17343 bound_to 10162
  157.5023  130.7887  149.7617 LP  0  0  0  0  0  0  0  0  0  0  0  0  # atno 17370 bound_to 10713
  156.0005  130.3883  150.2626 LP  0  0  0  0  0  0  0  0  0  0  0  0  # atno 17371 bound_to 10713
  140.1664  134.9130  157.2779 LP  0  0  0  0  0  0  0  0  0  0  0  0  # atno 17394 bound_to 11000
  140.2552  134.3636  155.7427 LP  0  0  0  0  0  0  0  0  0  0  0  0  # atno 17395 bound_to 11000

$$$$
