AV-unprocessed.smi:1492|AV-procd|sdf|6039|dock4
  -GOLD-   22720 6143D 1   1.00000     0.00000
 Structure written by MMmdl.
 53 54  0  0  0  0  0  0  0  0  2 V2000
  147.5366  139.9239  154.4385 C   0  0  0  0  0  0  0  0  0  0  0  0
  146.9447  138.5415  154.1092 C   0  0  0  0  0  0  0  0  0  0  0  0
  147.3920  137.3764  155.0454 C   0  0  2  0  0  0  0  0  0  0  0  0
  146.4421  136.1793  154.7778 C   0  0  0  0  0  0  0  0  0  0  0  0
  147.2497  137.8295  156.5319 C   0  0  0  0  0  0  0  0  0  0  0  0
  147.3809  136.7334  157.4899 N   0  0  0  0  0  0  0  0  0  0  0  0
  147.2365  136.8269  158.8206 C   0  0  0  0  0  0  0  0  0  0  0  0
  146.9774  137.8786  159.4046 O   0  0  0  0  0  0  0  0  0  0  0  0
  147.4314  135.5343  159.6138 C   0  0  0  0  0  0  0  0  0  0  0  0
  146.3326  135.2139  160.6255 C   0  0  0  0  0  0  0  0  0  0  0  0
  146.5197  135.2932  161.9755 C   0  0  0  0  0  0  0  0  0  0  0  0
  147.8411  135.7053  162.6005 C   0  0  0  0  0  0  0  0  0  0  0  0
  145.4906  134.9929  162.8788 N   0  0  0  0  0  0  0  0  0  0  0  0
  144.3405  134.6315  162.4133 C   0  0  0  0  0  0  0  0  0  0  0  0
  143.1496  134.2836  163.2812 C   0  0  0  0  0  0  0  0  0  0  0  0
  144.0837  134.5305  161.0469 N   0  0  0  0  0  0  0  0  0  0  0  0
  145.0124  134.8083  160.1050 C   0  0  0  0  0  0  0  0  0  0  0  0
  144.7306  134.7280  158.9101 O   0  0  0  0  0  0  0  0  0  0  0  0
  148.8162  136.9813  154.7427 N   0  3  0  0  0  0  0  0  0  0  0  0
  149.8402  138.0504  154.9172 C   0  0  0  0  0  0  0  0  0  0  0  0
  151.1999  137.5859  154.3722 C   0  0  0  0  0  0  0  0  0  0  0  0
  151.6016  136.4025  155.0473 O   0  0  0  0  0  0  0  0  0  0  0  0
  150.6845  135.3388  154.8331 C   0  0  0  0  0  0  0  0  0  0  0  0
  149.2990  135.7234  155.3805 C   0  0  0  0  0  0  0  0  0  0  0  0
  143.1642  134.2466  160.7416 H   0  0  0  0  0  0  0  0  0  0  0  0
  147.1697  140.6709  153.7344 H   0  0  0  0  0  0  0  0  0  0  0  0
  148.6242  139.9257  154.3716 H   0  0  0  0  0  0  0  0  0  0  0  0
  147.2597  140.2588  155.4380 H   0  0  0  0  0  0  0  0  0  0  0  0
  145.8580  138.6183  154.0878 H   0  0  0  0  0  0  0  0  0  0  0  0
  147.2172  138.3080  153.0792 H   0  0  0  0  0  0  0  0  0  0  0  0
  145.3971  136.4903  154.7525 H   0  0  0  0  0  0  0  0  0  0  0  0
  146.5144  135.4174  155.5542 H   0  0  0  0  0  0  0  0  0  0  0  0
  146.6550  135.6971  153.8234 H   0  0  0  0  0  0  0  0  0  0  0  0
  147.9645  138.6173  156.7715 H   0  0  0  0  0  0  0  0  0  0  0  0
  146.2646  138.2601  156.7075 H   0  0  0  0  0  0  0  0  0  0  0  0
  147.6007  135.8239  157.1084 H   0  0  0  0  0  0  0  0  0  0  0  0
  147.5523  134.7096  158.9100 H   0  0  0  0  0  0  0  0  0  0  0  0
  148.3879  135.5896  160.1341 H   0  0  0  0  0  0  0  0  0  0  0  0
  148.6170  134.9748  162.3708 H   0  0  0  0  0  0  0  0  0  0  0  0
  147.7608  135.7765  163.6858 H   0  0  0  0  0  0  0  0  0  0  0  0
  148.1585  136.6787  162.2262 H   0  0  0  0  0  0  0  0  0  0  0  0
  142.8753  135.1375  163.9010 H   0  0  0  0  0  0  0  0  0  0  0  0
  143.3942  133.4483  163.9378 H   0  0  0  0  0  0  0  0  0  0  0  0
  142.2817  134.0042  162.6822 H   0  0  0  0  0  0  0  0  0  0  0  0
  149.5628  138.9620  154.3921 H   0  0  0  0  0  0  0  0  0  0  0  0
  149.9478  138.3052  155.9718 H   0  0  0  0  0  0  0  0  0  0  0  0
  151.1505  137.4114  153.2960 H   0  0  0  0  0  0  0  0  0  0  0  0
  151.9527  138.3575  154.5351 H   0  0  0  0  0  0  0  0  0  0  0  0
  150.6296  135.0983  153.7700 H   0  0  0  0  0  0  0  0  0  0  0  0
  151.0544  134.4482  155.3411 H   0  0  0  0  0  0  0  0  0  0  0  0
  149.3566  135.8454  156.4624 H   0  0  0  0  0  0  0  0  0  0  0  0
  148.6276  134.8890  155.1863 H   0  0  0  0  0  0  0  0  0  0  0  0
  148.8109  136.7822  153.7527 H   0  0  0  0  0  0  0  0  0  0  0  0
  1  2  1  0  0  0  0
  1 26  1  0  0  0  0
  1 27  1  0  0  0  0
  1 28  1  0  0  0  0
  2  3  1  0  0  0  0
  2 29  1  0  0  0  0
  2 30  1  0  0  0  0
  3  4  1  0  0  0  0
  3  5  1  0  0  0  0
  3 19  1  0  0  0  0
  4 31  1  0  0  0  0
  4 32  1  0  0  0  0
  4 33  1  0  0  0  0
  5  6  1  0  0  0  0
  5 34  1  0  0  0  0
  5 35  1  0  0  0  0
  6  7  1  0  0  0  0
  6 36  1  0  0  0  0
  7  8  2  0  0  0  0
  7  9  1  0  0  0  0
  9 10  1  0  0  0  0
  9 37  1  0  0  0  0
  9 38  1  0  0  0  0
 10 17  1  0  0  0  0
 10 11  2  0  0  0  0
 11 12  1  0  0  0  0
 11 13  1  0  0  0  0
 12 39  1  0  0  0  0
 12 40  1  0  0  0  0
 12 41  1  0  0  0  0
 13 14  2  0  0  0  0
 14 15  1  0  0  0  0
 14 16  1  0  0  0  0
 15 42  1  0  0  0  0
 15 43  1  0  0  0  0
 15 44  1  0  0  0  0
 16 25  1  0  0  0  0
 16 17  1  0  0  0  0
 17 18  2  0  0  0  0
 19 24  1  0  0  0  0
 19 20  1  0  0  0  0
 19 53  1  0  0  0  0
 20 21  1  0  0  0  0
 20 45  1  0  0  0  0
 20 46  1  0  0  0  0
 21 22  1  0  0  0  0
 21 47  1  0  0  0  0
 21 48  1  0  0  0  0
 22 23  1  0  0  0  0
 23 24  1  0  0  0  0
 23 49  1  0  0  0  0
 23 50  1  0  0  0  0
 24 51  1  0  0  0  0
 24 52  1  0  0  0  0
M  CHG  1  19   1
M  END
> <s_m_source_file>
AV-unprocessed.smi

> <i_m_source_file_index>
1492

> <i_lp_mmshare_version>
43012

> <i_f3d_flags>
0

> <s_epik_input>
W0NIMl0xW0NIMl1PW0NIMl1bQ0gyXU4xW0NAQF0oW0NIM10pKFtDSDJdW0NIM10pW0NIMl1bTkhdQyg9TylbQ0gyXWMyYyhbQ0gzXSluYyhbQ0gzXSlbbkhdYzI9Tw==

> <s_epik_cmdline>
J2VwaWtfcHl0aG9uJywgJy1waCcsICc3LjAnLCAnLXRuJywgJzgnLCAnLW1hJywgJzIwMCcsICctbWV0YWxfYmluZGluZycsICctaW1hZScsICc8aW5maWxlLm1hZT4nLCAnLW9tYWUnLCAnPG91dGZpbGUubWFlPic=

> <r_lp_tautomer_probability>
0.839158

> <r_epik_Ionization_Penalty>
0.506959

> <r_epik_Ionization_Penalty_Charging>
0.506936

> <r_epik_Ionization_Penalty_Neutral>
2.27768e-05

> <r_epik_State_Penalty>
0.6046

> <r_epik_Charging_Adjusted_Penalty>
1.11154

> <i_epik_Tot_Q>
1

> <i_epik_Tot_abs_Q>
1

> <r_epik_Metal_State_Penalty>
0.783136

> <b_epik_Metal_Only>
0

> <s_lp_Force_Field>
OPLS_2005

> <r_lp_Energy>
29.7621

> <b_lp_Chiralities_Consistent>
1

> <s_lp_Variant>
AV-unprocessed.smi:1492-4

> <Gold.Version>
5.8.1

> <Gold.Id.Protein>
6NUR|6NUR_protein|mol2

> <Gold.PLP.Fitness>
36.7525

> <Gold.PLP.PLP>
-26.4597

> <Gold.PLP.part.hbond>
-3.0000

> <Gold.PLP.part.metal>
0.0000

> <Gold.PLP.part.buried>
-4.5443

> <Gold.PLP.part.nonpolar>
-19.4441

> <Gold.PLP.part.repulsive>
0.1304

> <Gold.PLP.ligand.clash>
0.0000

> <Gold.PLP.ligand.torsion>
0.4973

> <Gold.PLP.Chemscore.Hbond>
3.7200

> <Gold.PLP.Chemscore.CHOScore>
0.0000

> <Gold.PLP.Chemscore.Metal>
0.0000

> <Gold.Chemscore.Hbonds>
donor molecule, donor type, donor heavy atom, donor atom, acceptor molecule, acceptor atom, score
      L1  H    19    53       P1  7948  2.00
      P1  H  6934  6947       L1     8  0.72
      P1  H 10752 10765       L1    22  0.90

> <Gold.PLP.Chemscore.Internal.Correction>
0.1274

> <Gold.Rescore>
     Score         DG    S(hbond)    S(metal)    S(lipo)     H(rot)  DE(clash)    DE(int)     intcor
     15.28     -15.97       2.56        0.00      64.70       2.19       0.00       0.69       ----

> <Gold.Chemscore.Fitness>
15.2823

> <Gold.Chemscore.DG>
-15.9744

> <Gold.Chemscore.ZeroCoef>
-5.4800

> <Gold.Chemscore.Hbond>
2.5559

> <Gold.Chemscore.Metal>
0.0000

> <Gold.Chemscore.Lipo>
64.7049

> <Gold.Chemscore.Internal_Hbond>
0.0000

> <Gold.Chemscore.DEClash>
0.0021

> <Gold.Chemscore.DEInternal>
0.6900

> <Gold.Chemscore.Rot>
2.1926

> <Gold.Chemscore.Internal.Correction>
   9.000000E+99

> <Gold.Chemscore.Hbonds>
donor molecule, donor type, donor heavy atom, donor atom, acceptor molecule, acceptor atom, score
      L1  H    19    53       P1  7948  0.98
      P1  H  6934  6947       L1     8  0.72
      P1  H 10752 10765       L1    22  0.18

> <Gold.Chemscore.Hbond.Weighted>
-8.5369

> <Gold.Chemscore.Metal.Weighted>
-0.0000

> <Gold.Chemscore.Lipo.Weighted>
-7.5705

> <Gold.Chemscore.Internal_Hbond.Weighted>
0.0000

> <Gold.Chemscore.DEClash.Weighted>
0.0021

> <Gold.Chemscore.DEInternal.Weighted>
0.6900

> <Gold.Chemscore.Rot.Weighted>
5.6129

> <Gold.Chemscore.Internal.Correction.Weighted>
   9.000000E+99

> <Gold.Protein.RotatedTorsions>
[ 6907 6896 6895 6894 ] final -168.01 input  -60.11 | X-H torsion
[ 7974 7965 7964 7962 ] final   31.94 input  175.53 | X-H torsion
[ 8008 7997 7996 7995 ] final   64.41 input   59.86 | X-H torsion
[ 10167 10162 10161 10158 ] final  -66.62 input  -65.29 | X-H torsion
[ 10718 10713 10712 10709 ] final    5.42 input   66.30 | X-H torsion
[ 10763 10752 10751 10750 ] final -161.89 input  -60.55 | X-H torsion
[ 11005 11000 10999 10996 ] final   40.66 input  -57.11 | X-H torsion

> <Gold.Protein.ActiveResidues>
 VAL166  LYS551  ARG553  GLY616  TRP617  ASP618  TYR619  PRO620  LYS621  CYS622 
 ASP623  PHE694  ASN695  SER759  ASP760  ASP761  ALA762  ILE779  LEU786  VAL792 
 PHE793  MET794  SER795  GLU796  ALA797  LYS798  CYS799  TRP800  GLU811  SER814 

> <Gold.Protein.RotatedAtoms>
  151.4688  133.3574  159.2820 H   0  0  0  0  0  0  0  0  0  0  0  0  # atno 6907 bound_to 6896
  150.8975  134.8386  159.7348 H   0  0  0  0  0  0  0  0  0  0  0  0  # atno 6908 bound_to 6896
  152.4860  134.4604  159.9655 H   0  0  0  0  0  0  0  0  0  0  0  0  # atno 6909 bound_to 6896
  146.1518  139.6591  142.9093 H   0  0  0  0  0  0  0  0  0  0  0  0  # atno 7974 bound_to 7965
  155.6455  140.3497  155.4730 H   0  0  0  0  0  0  0  0  0  0  0  0  # atno 8008 bound_to 7997
  155.9891  140.1190  157.0679 H   0  0  0  0  0  0  0  0  0  0  0  0  # atno 8009 bound_to 7997
  154.4213  140.1123  156.5526 H   0  0  0  0  0  0  0  0  0  0  0  0  # atno 8010 bound_to 7997
  140.5643  143.2314  151.6665 H   0  0  0  0  0  0  0  0  0  0  0  0  # atno 10167 bound_to 10162
  156.9071  130.5742  149.5647 H   0  0  0  0  0  0  0  0  0  0  0  0  # atno 10718 bound_to 10713
  154.7264  135.3036  154.8964 H   0  0  0  0  0  0  0  0  0  0  0  0  # atno 10763 bound_to 10752
  153.9821  135.6729  153.4754 H   0  0  0  0  0  0  0  0  0  0  0  0  # atno 10764 bound_to 10752
  153.0878  135.4975  154.8551 H   0  0  0  0  0  0  0  0  0  0  0  0  # atno 10765 bound_to 10752
  140.1909  134.3987  155.8147 H   0  0  0  0  0  0  0  0  0  0  0  0  # atno 11005 bound_to 11000
  145.4804  141.0438  143.2649 LP  0  0  0  0  0  0  0  0  0  0  0  0  # atno 17320 bound_to 7965
  144.7914  139.6321  143.7111 LP  0  0  0  0  0  0  0  0  0  0  0  0  # atno 17321 bound_to 7965
  139.5085  144.3608  152.0564 LP  0  0  0  0  0  0  0  0  0  0  0  0  # atno 17342 bound_to 10162
  140.2738  144.3935  150.6142 LP  0  0  0  0  0  0  0  0  0  0  0  0  # atno 17343 bound_to 10162
  156.0554  130.5616  150.9079 LP  0  0  0  0  0  0  0  0  0  0  0  0  # atno 17370 bound_to 10713
  157.5990  131.0942  150.8992 LP  0  0  0  0  0  0  0  0  0  0  0  0  # atno 17371 bound_to 10713
  141.2226  133.7046  156.8094 LP  0  0  0  0  0  0  0  0  0  0  0  0  # atno 17394 bound_to 11000
  140.2160  134.8792  157.3326 LP  0  0  0  0  0  0  0  0  0  0  0  0  # atno 17395 bound_to 11000

$$$$
