AV-unprocessed.smi:45|AV-procd|sdf|410|dock6
  -GOLD-   2262016273D 1   1.00000     0.00000
 Structure written by MMmdl.
 61 64  0  0  0  0  0  0  0  0  2 V2000
  137.2907  141.0674  153.6011 C   0  0  0  0  0  0  0  0  0  0  0  0
  137.0587  139.7335  154.0293 O   0  0  0  0  0  0  0  0  0  0  0  0
  138.0846  138.8195  153.9037 C   0  0  0  0  0  0  0  0  0  0  0  0
  139.3791  139.1471  153.4261 C   0  0  0  0  0  0  0  0  0  0  0  0
  140.3769  138.1585  153.3266 C   0  0  0  0  0  0  0  0  0  0  0  0
  140.1000  136.8278  153.6987 C   0  0  0  0  0  0  0  0  0  0  0  0
  141.1742  135.7622  153.5981 C   0  0  0  0  0  0  0  0  0  0  0  0
  142.3656  136.0644  154.3802 N   0  0  0  0  0  0  0  0  0  0  0  0
  143.5375  135.3008  154.2435 C   0  0  0  0  0  0  0  0  0  0  0  0
  143.6164  134.4506  153.1955 N   0  0  0  0  0  0  0  0  0  0  0  0
  144.7046  133.6920  153.0120 C   0  0  0  0  0  0  0  0  0  0  0  0
  144.7574  132.8258  151.9205 N   0  0  0  0  0  0  0  0  0  0  0  0
  143.8255  132.9505  150.8050 C   0  0  0  0  0  0  0  0  0  0  0  0
  144.5938  132.5051  149.5618 C   0  0  0  0  0  0  0  0  0  0  0  0
  145.6038  131.5121  150.1210 C   0  0  0  0  0  0  0  0  0  0  0  0
  145.9535  132.0936  151.4985 C   0  0  2  0  0  0  0  0  0  0  0  0
  146.3952  131.0081  152.5033 C   0  0  0  0  0  0  0  0  0  0  0  0
  147.3910  130.1932  151.9230 O   0  0  0  0  0  0  0  0  0  0  0  0
  145.7468  133.7334  153.8572 N   0  3  0  0  0  0  0  0  0  0  0  0
  145.7188  134.5632  154.9273 C   0  0  0  0  0  0  0  0  0  0  0  0
  144.6011  135.3887  155.1762 C   0  0  0  0  0  0  0  0  0  0  0  0
  144.5971  136.3294  156.3515 C   0  0  0  0  0  0  0  0  0  0  0  0
  143.5711  136.9128  156.7013 O   0  0  0  0  0  0  0  0  0  0  0  0
  145.7732  136.4541  156.9868 N   0  0  0  0  0  0  0  0  0  0  0  0
  146.0168  137.3348  158.1231 C   0  0  0  0  0  0  0  0  0  0  0  0
  146.6398  136.6040  159.2995 C   0  0  0  0  0  0  0  0  0  0  0  0
  146.9490  137.3458  160.3688 N   0  0  0  0  0  0  0  0  0  0  0  0
  147.4976  136.7001  161.4209 C   0  0  0  0  0  0  0  0  0  0  0  0
  147.7315  135.3106  161.3987 C   0  0  0  0  0  0  0  0  0  0  0  0
  147.3633  134.6347  160.2179 C   0  0  0  0  0  0  0  0  0  0  0  0
  146.8166  135.2855  159.1680 N   0  0  0  0  0  0  0  0  0  0  0  0
  138.8174  136.4958  154.1770 C   0  0  0  0  0  0  0  0  0  0  0  0
  137.8176  137.4832  154.2774 C   0  0  0  0  0  0  0  0  0  0  0  0
  136.2551  137.0404  154.8663 Cl  0  0  0  0  0  0  0  0  0  0  0  0
  146.7537  132.8255  151.3787 H   0  0  0  0  0  0  0  0  0  0  0  0
  136.3905  141.6592  153.7659 H   0  0  0  0  0  0  0  0  0  0  0  0
  137.5221  141.1100  152.5360 H   0  0  0  0  0  0  0  0  0  0  0  0
  138.0989  141.5332  154.1665 H   0  0  0  0  0  0  0  0  0  0  0  0
  139.6339  140.1529  153.1295 H   0  0  0  0  0  0  0  0  0  0  0  0
  141.3584  138.4270  152.9639 H   0  0  0  0  0  0  0  0  0  0  0  0
  140.7494  134.8171  153.9381 H   0  0  0  0  0  0  0  0  0  0  0  0
  141.4578  135.6291  152.5535 H   0  0  0  0  0  0  0  0  0  0  0  0
  142.3989  136.9354  154.8916 H   0  0  0  0  0  0  0  0  0  0  0  0
  142.9734  132.2949  150.9870 H   0  0  0  0  0  0  0  0  0  0  0  0
  143.4523  133.9684  150.6867 H   0  0  0  0  0  0  0  0  0  0  0  0
  143.9494  132.0748  148.7946 H   0  0  0  0  0  0  0  0  0  0  0  0
  145.1184  133.3561  149.1254 H   0  0  0  0  0  0  0  0  0  0  0  0
  145.1284  130.5355  150.2266 H   0  0  0  0  0  0  0  0  0  0  0  0
  146.4774  131.3909  149.4799 H   0  0  0  0  0  0  0  0  0  0  0  0
  146.8115  131.4394  153.4125 H   0  0  0  0  0  0  0  0  0  0  0  0
  145.5504  130.3874  152.8038 H   0  0  0  0  0  0  0  0  0  0  0  0
  147.9092  130.7217  151.3348 H   0  0  0  0  0  0  0  0  0  0  0  0
  146.6032  134.5427  155.5479 H   0  0  0  0  0  0  0  0  0  0  0  0
  146.5637  135.9279  156.6447 H   0  0  0  0  0  0  0  0  0  0  0  0
  146.6414  138.1775  157.8203 H   0  0  0  0  0  0  0  0  0  0  0  0
  145.0636  137.7604  158.4386 H   0  0  0  0  0  0  0  0  0  0  0  0
  147.7514  137.2957  162.2853 H   0  0  0  0  0  0  0  0  0  0  0  0
  148.1696  134.7924  162.2389 H   0  0  0  0  0  0  0  0  0  0  0  0
  147.5076  133.5695  160.1156 H   0  0  0  0  0  0  0  0  0  0  0  0
  138.5945  135.4798  154.4686 H   0  0  0  0  0  0  0  0  0  0  0  0
  146.5675  133.1485  153.6988 H   0  0  0  0  0  0  0  0  0  0  0  0
  1  2  1  0  0  0  0
  1 36  1  0  0  0  0
  1 37  1  0  0  0  0
  1 38  1  0  0  0  0
  2  3  1  0  0  0  0
  3 33  1  0  0  0  0
  3  4  2  0  0  0  0
  4  5  1  0  0  0  0
  4 39  1  0  0  0  0
  5  6  2  0  0  0  0
  5 40  1  0  0  0  0
  6  7  1  0  0  0  0
  6 32  1  0  0  0  0
  7  8  1  0  0  0  0
  7 41  1  0  0  0  0
  7 42  1  0  0  0  0
  8  9  1  0  0  0  0
  8 43  1  0  0  0  0
  9 21  1  0  0  0  0
  9 10  2  0  0  0  0
 10 11  1  0  0  0  0
 11 12  1  0  0  0  0
 11 19  2  0  0  0  0
 12 16  1  0  0  0  0
 12 13  1  0  0  0  0
 13 14  1  0  0  0  0
 13 44  1  0  0  0  0
 13 45  1  0  0  0  0
 14 15  1  0  0  0  0
 14 46  1  0  0  0  0
 14 47  1  0  0  0  0
 15 16  1  0  0  0  0
 15 48  1  0  0  0  0
 15 49  1  0  0  0  0
 16 35  1  0  0  0  0
 16 17  1  0  0  0  0
 17 18  1  0  0  0  0
 17 50  1  0  0  0  0
 17 51  1  0  0  0  0
 18 52  1  0  0  0  0
 19 20  1  0  0  0  0
 19 61  1  0  0  0  0
 20 21  2  0  0  0  0
 20 53  1  0  0  0  0
 21 22  1  0  0  0  0
 22 23  2  0  0  0  0
 22 24  1  0  0  0  0
 24 25  1  0  0  0  0
 24 54  1  0  0  0  0
 25 26  1  0  0  0  0
 25 55  1  0  0  0  0
 25 56  1  0  0  0  0
 26 31  1  0  0  0  0
 26 27  2  0  0  0  0
 27 28  1  0  0  0  0
 28 29  2  0  0  0  0
 28 57  1  0  0  0  0
 29 30  1  0  0  0  0
 29 58  1  0  0  0  0
 30 31  2  0  0  0  0
 30 59  1  0  0  0  0
 32 33  2  0  0  0  0
 32 60  1  0  0  0  0
 33 34  1  0  0  0  0
M  CHG  1  19   1
M  END
> <s_m_source_file>
AV-unprocessed.smi

> <i_m_source_file_index>
45

> <i_lp_mmshare_version>
43012

> <i_f3d_flags>
0

> <s_epik_input>
W0NIM11PYzFbY0hdW2NIXWMoW2NIXWMxQ2wpW0NIMl1bTkhdYzJuYyhOM1tDSDJdW0NIMl1bQ0gyXVtDQEhdM1tDSDJdW09IXSluW2NIXWMyQyg9TylbTkhdW0NIMl1jNG5bY0hdW2NIXVtjSF1uNA==

> <s_epik_cmdline>
J2VwaWtfcHl0aG9uJywgJy1waCcsICc3LjAnLCAnLXRuJywgJzgnLCAnLW1hJywgJzIwMCcsICctbWV0YWxfYmluZGluZycsICctaW1hZScsICc8aW5maWxlLm1hZT4nLCAnLW9tYWUnLCAnPG91dGZpbGUubWFlPic=

> <r_lp_tautomer_probability>
0.575011

> <r_epik_Ionization_Penalty>
1.61454

> <r_epik_Ionization_Penalty_Charging>
1.61448

> <r_epik_Ionization_Penalty_Neutral>
6.30284e-05

> <r_epik_State_Penalty>
1.91123

> <r_epik_Charging_Adjusted_Penalty>
3.52572

> <i_epik_Tot_Q>
1

> <i_epik_Tot_abs_Q>
1

> <r_epik_Metal_State_Penalty>
1.95488

> <b_epik_Metal_Only>
0

> <s_epik_Chemistry_Notes>
This compound contains an electron-poor aromatic ring that is susceptible to covalent hydrolysis at low pH, typically resulting in measured values for nitrogen ring protonation that are around two units higher than predicted values.

> <s_lp_Force_Field>
OPLS_2005

> <r_lp_Energy>
37.0931

> <b_lp_Chiralities_Consistent>
1

> <s_lp_Variant>
AV-unprocessed.smi:45-4

> <Gold.Version>
5.8.1

> <Gold.Id.Protein>
6NUR|6NUR_protein|mol2

> <Gold.PLP.Fitness>
54.4218

> <Gold.PLP.PLP>
-48.5618

> <Gold.PLP.part.hbond>
-1.6462

> <Gold.PLP.part.metal>
0.0000

> <Gold.PLP.part.buried>
-6.3114

> <Gold.PLP.part.nonpolar>
-41.3987

> <Gold.PLP.part.repulsive>
0.1433

> <Gold.PLP.ligand.clash>
0.0000

> <Gold.PLP.ligand.torsion>
0.3123

> <Gold.PLP.Chemscore.Hbond>
2.0000

> <Gold.PLP.Chemscore.CHOScore>
0.0000

> <Gold.PLP.Chemscore.Metal>
0.0000

> <Gold.Chemscore.Hbonds>
donor molecule, donor type, donor heavy atom, donor atom, acceptor molecule, acceptor atom, score
      L1  H    18    52       P1 10747  0.92
      P1  H  6934  6947       L1    27  0.95

> <Gold.PLP.Chemscore.Internal.Correction>
0.4846

> <Gold.Rescore>
     Score         DG    S(hbond)    S(metal)    S(lipo)     H(rot)  DE(clash)    DE(int)     intcor
     16.45     -18.39       1.76        0.00     124.36       2.94       0.01       1.92       ----

> <Gold.Chemscore.Fitness>
16.4464

> <Gold.Chemscore.DG>
-18.3858

> <Gold.Chemscore.ZeroCoef>
-5.4800

> <Gold.Chemscore.Hbond>
1.7607

> <Gold.Chemscore.Metal>
0.0000

> <Gold.Chemscore.Lipo>
124.3613

> <Gold.Chemscore.Internal_Hbond>
0.0000

> <Gold.Chemscore.DEClash>
0.0148

> <Gold.Chemscore.DEInternal>
1.9245

> <Gold.Chemscore.Rot>
2.9395

> <Gold.Chemscore.Internal.Correction>
   9.000000E+99

> <Gold.Chemscore.Hbonds>
donor molecule, donor type, donor heavy atom, donor atom, acceptor molecule, acceptor atom, score
      L1  H    18    52       P1 10747  0.84
      P1  H  6934  6947       L1    27  0.22

> <Gold.Chemscore.Hbond.Weighted>
-5.8806

> <Gold.Chemscore.Metal.Weighted>
-0.0000

> <Gold.Chemscore.Lipo.Weighted>
-14.5503

> <Gold.Chemscore.Internal_Hbond.Weighted>
0.0000

> <Gold.Chemscore.DEClash.Weighted>
0.0148

> <Gold.Chemscore.DEInternal.Weighted>
1.9245

> <Gold.Chemscore.Rot.Weighted>
7.5251

> <Gold.Chemscore.Internal.Correction.Weighted>
   9.000000E+99

> <Gold.Protein.RotatedTorsions>
[ 6907 6896 6895 6894 ] final  -33.84 input  -60.11 | X-H torsion
[ 7974 7965 7964 7962 ] final  178.11 input  175.53 | X-H torsion
[ 8008 7997 7996 7995 ] final  136.04 input   59.86 | X-H torsion
[ 10167 10162 10161 10158 ] final   58.84 input  -65.29 | X-H torsion
[ 10718 10713 10712 10709 ] final -115.68 input   66.30 | X-H torsion
[ 10763 10752 10751 10750 ] final -168.56 input  -60.55 | X-H torsion
[ 11005 11000 10999 10996 ] final   77.10 input  -57.11 | X-H torsion

> <Gold.Protein.ActiveResidues>
 VAL166  LYS551  ARG553  GLY616  TRP617  ASP618  TYR619  PRO620  LYS621  CYS622 
 ASP623  PHE694  ASN695  SER759  ASP760  ASP761  ALA762  ILE779  LEU786  VAL792 
 PHE793  MET794  SER795  GLU796  ALA797  LYS798  CYS799  TRP800  GLU811  SER814 

> <Gold.Protein.RotatedAtoms>
  151.0603  134.9732  159.8256 H   0  0  0  0  0  0  0  0  0  0  0  0  # atno 6907 bound_to 6896
  152.5394  134.2426  159.8878 H   0  0  0  0  0  0  0  0  0  0  0  0  # atno 6908 bound_to 6896
  151.2445  133.4339  159.2642 H   0  0  0  0  0  0  0  0  0  0  0  0  # atno 6909 bound_to 6896
  144.7160  140.0348  143.6438 H   0  0  0  0  0  0  0  0  0  0  0  0  # atno 7974 bound_to 7965
  156.3004  140.2455  156.3680 H   0  0  0  0  0  0  0  0  0  0  0  0  # atno 8008 bound_to 7997
  154.8815  140.0412  157.1805 H   0  0  0  0  0  0  0  0  0  0  0  0  # atno 8009 bound_to 7997
  154.8691  140.2932  155.5496 H   0  0  0  0  0  0  0  0  0  0  0  0  # atno 8010 bound_to 7997
  140.1828  144.4164  150.6607 H   0  0  0  0  0  0  0  0  0  0  0  0  # atno 10167 bound_to 10162
  156.0912  130.6094  150.8937 H   0  0  0  0  0  0  0  0  0  0  0  0  # atno 10718 bound_to 10713
  154.6615  135.2925  154.9860 H   0  0  0  0  0  0  0  0  0  0  0  0  # atno 10763 bound_to 10752
  154.0918  135.6589  153.4857 H   0  0  0  0  0  0  0  0  0  0  0  0  # atno 10764 bound_to 10752
  153.0433  135.5222  154.7568 H   0  0  0  0  0  0  0  0  0  0  0  0  # atno 10765 bound_to 10752
  139.9269  134.7655  156.1479 H   0  0  0  0  0  0  0  0  0  0  0  0  # atno 11005 bound_to 11000
  146.0073  139.3140  143.0892 LP  0  0  0  0  0  0  0  0  0  0  0  0  # atno 17320 bound_to 7965
  145.8724  140.9412  143.0644 LP  0  0  0  0  0  0  0  0  0  0  0  0  # atno 17321 bound_to 7965
  140.6508  143.2224  151.6081 LP  0  0  0  0  0  0  0  0  0  0  0  0  # atno 17342 bound_to 10162
  139.5289  144.2976  152.1100 LP  0  0  0  0  0  0  0  0  0  0  0  0  # atno 17343 bound_to 10162
  157.6061  131.0939  150.8876 LP  0  0  0  0  0  0  0  0  0  0  0  0  # atno 17370 bound_to 10713
  156.9024  130.5251  149.5282 LP  0  0  0  0  0  0  0  0  0  0  0  0  # atno 17371 bound_to 10713
  141.0833  133.6745  156.2381 LP  0  0  0  0  0  0  0  0  0  0  0  0  # atno 17394 bound_to 11000
  140.6311  134.5263  157.5559 LP  0  0  0  0  0  0  0  0  0  0  0  0  # atno 17395 bound_to 11000

$$$$
