AV-unprocessed.smi:3129|AV-procd|sdf|11922|dock6
  -GOLD-   2272017303D 1   1.00000     0.00000
 Structure written by MMmdl.
 40 40  0  0  0  0  0  0  0  0  2 V2000
  146.8067  133.7166  151.3280 C   0  0  0  0  0  0  0  0  0  0  0  0
  145.6030  134.5123  151.8517 C   0  0  0  0  0  0  0  0  0  0  0  0
  145.0271  135.4179  150.7492 C   0  0  0  0  0  0  0  0  0  0  0  0
  145.9796  135.2955  153.1295 C   0  0  0  0  0  0  0  0  0  0  0  0
  146.6283  136.5723  152.8460 N   0  0  0  0  0  0  0  0  0  0  0  0
  146.2595  137.7552  153.3601 C   0  0  0  0  0  0  0  0  0  0  0  0
  145.3332  137.8854  154.1613 O   0  0  0  0  0  0  0  0  0  0  0  0
  147.0490  138.9858  152.8962 C   0  0  2  0  0  0  0  0  0  0  0  0
  146.7999  139.2432  151.4024 C   0  0  0  0  0  0  0  0  0  0  0  0
  148.4934  138.7846  153.1397 N   0  3  0  0  0  0  0  0  0  0  0  0
  148.9485  139.1302  154.5047 C   0  0  0  0  0  0  0  0  0  0  0  0
  150.2074  140.0102  154.4652 C   0  0  0  0  0  0  0  0  0  0  0  0
  150.5504  140.5218  155.7807 N   0  0  0  0  0  0  0  0  0  0  0  0
  150.5880  141.8315  156.2108 C   0  0  0  0  0  0  0  0  0  0  0  0
  150.9732  141.8178  157.5205 C   0  0  0  0  0  0  0  0  0  0  0  0
  151.1419  140.4350  157.8095 C   0  0  0  0  0  0  0  0  0  0  0  0
  150.8845  139.6621  156.7673 N   0  0  0  0  0  0  0  0  0  0  0  0
  147.6226  134.3779  151.0343 H   0  0  0  0  0  0  0  0  0  0  0  0
  146.5338  133.1180  150.4585 H   0  0  0  0  0  0  0  0  0  0  0  0
  147.1881  133.0347  152.0886 H   0  0  0  0  0  0  0  0  0  0  0  0
  144.8336  133.7853  152.1127 H   0  0  0  0  0  0  0  0  0  0  0  0
  145.7424  136.1859  150.4537 H   0  0  0  0  0  0  0  0  0  0  0  0
  144.1149  135.9180  151.0745 H   0  0  0  0  0  0  0  0  0  0  0  0
  144.7749  134.8389  149.8605 H   0  0  0  0  0  0  0  0  0  0  0  0
  145.0936  135.4697  153.7425 H   0  0  0  0  0  0  0  0  0  0  0  0
  146.6618  134.7025  153.7395 H   0  0  0  0  0  0  0  0  0  0  0  0
  147.4032  136.5530  152.1986 H   0  0  0  0  0  0  0  0  0  0  0  0
  146.7214  139.8674  153.4505 H   0  0  0  0  0  0  0  0  0  0  0  0
  145.7401  139.4033  151.2002 H   0  0  0  0  0  0  0  0  0  0  0  0
  147.1331  138.4059  150.7872 H   0  0  0  0  0  0  0  0  0  0  0  0
  147.3330  140.1329  151.0657 H   0  0  0  0  0  0  0  0  0  0  0  0
  148.6911  137.8083  152.9703 H   0  0  0  0  0  0  0  0  0  0  0  0
  148.1378  139.6472  155.0185 H   0  0  0  0  0  0  0  0  0  0  0  0
  149.1543  138.2294  155.0848 H   0  0  0  0  0  0  0  0  0  0  0  0
  151.0561  139.4519  154.0678 H   0  0  0  0  0  0  0  0  0  0  0  0
  150.0493  140.8600  153.8002 H   0  0  0  0  0  0  0  0  0  0  0  0
  150.3455  142.6558  155.5564 H   0  0  0  0  0  0  0  0  0  0  0  0
  151.1120  142.6662  158.1740 H   0  0  0  0  0  0  0  0  0  0  0  0
  151.4423  139.9727  158.7381 H   0  0  0  0  0  0  0  0  0  0  0  0
  149.0218  139.3402  152.4824 H   0  0  0  0  0  0  0  0  0  0  0  0
  1  2  1  0  0  0  0
  1 18  1  0  0  0  0
  1 19  1  0  0  0  0
  1 20  1  0  0  0  0
  2  3  1  0  0  0  0
  2  4  1  0  0  0  0
  2 21  1  0  0  0  0
  3 22  1  0  0  0  0
  3 23  1  0  0  0  0
  3 24  1  0  0  0  0
  4  5  1  0  0  0  0
  4 25  1  0  0  0  0
  4 26  1  0  0  0  0
  5  6  1  0  0  0  0
  5 27  1  0  0  0  0
  6  7  2  0  0  0  0
  6  8  1  0  0  0  0
  8  9  1  0  0  0  0
  8 10  1  0  0  0  0
  8 28  1  0  0  0  0
  9 29  1  0  0  0  0
  9 30  1  0  0  0  0
  9 31  1  0  0  0  0
 10 11  1  0  0  0  0
 10 32  1  0  0  0  0
 10 40  1  0  0  0  0
 11 12  1  0  0  0  0
 11 33  1  0  0  0  0
 11 34  1  0  0  0  0
 12 13  1  0  0  0  0
 12 35  1  0  0  0  0
 12 36  1  0  0  0  0
 13 17  1  0  0  0  0
 13 14  1  0  0  0  0
 14 15  2  0  0  0  0
 14 37  1  0  0  0  0
 15 16  1  0  0  0  0
 15 38  1  0  0  0  0
 16 17  2  0  0  0  0
 16 39  1  0  0  0  0
M  CHG  1  10   1
M  END
> <s_m_source_file>
AV-unprocessed.smi

> <i_m_source_file_index>
3129

> <i_lp_mmshare_version>
43012

> <i_f3d_flags>
0

> <s_epik_input>
W0NIM11bQ0hdKFtDSDNdKVtDSDJdW05IXUMoPU8pW0NASF0oW0NIM10pW05IXVtDSDJdW0NIMl1uMVtjSF1bY0hdW2NIXW4x

> <s_epik_cmdline>
J2VwaWtfcHl0aG9uJywgJy1waCcsICc3LjAnLCAnLXRuJywgJzgnLCAnLW1hJywgJzIwMCcsICctbWV0YWxfYmluZGluZycsICctaW1hZScsICc8aW5maWxlLm1hZT4nLCAnLW9tYWUnLCAnPG91dGZpbGUubWFlPic=

> <r_lp_tautomer_probability>
1

> <r_epik_Ionization_Penalty>
0.20724

> <r_epik_Ionization_Penalty_Charging>
0.207237

> <r_epik_Ionization_Penalty_Neutral>
3.32432e-06

> <r_epik_State_Penalty>
0.197234

> <r_epik_Charging_Adjusted_Penalty>
0.404471

> <i_epik_Tot_Q>
1

> <i_epik_Tot_abs_Q>
1

> <r_epik_Metal_State_Penalty>
0.197522

> <b_epik_Metal_Only>
0

> <s_lp_Force_Field>
OPLS_2005

> <r_lp_Energy>
5.48994

> <b_lp_Chiralities_Consistent>
1

> <s_lp_Variant>
AV-unprocessed.smi:3129-1

> <Gold.Version>
5.8.1

> <Gold.Id.Protein>
6NUR|6NUR_protein|mol2

> <Gold.PLP.Fitness>
44.9373

> <Gold.PLP.PLP>
-31.7160

> <Gold.PLP.part.hbond>
-3.0000

> <Gold.PLP.part.metal>
0.0000

> <Gold.PLP.part.buried>
0.3953

> <Gold.PLP.part.nonpolar>
-28.7554

> <Gold.PLP.part.repulsive>
0.2037

> <Gold.PLP.ligand.clash>
0.0000

> <Gold.PLP.ligand.torsion>
0.9723

> <Gold.PLP.Chemscore.Hbond>
4.0000

> <Gold.PLP.Chemscore.CHOScore>
0.9995

> <Gold.PLP.Chemscore.Metal>
0.0000

> <Gold.Chemscore.Hbonds>
donor molecule, donor type, donor heavy atom, donor atom, acceptor molecule, acceptor atom, score
      L1  H     5    27       P1  7948  1.00
      L1  H    10    32       P1  7948  2.00
      L1  H    10    40       P1  7957  1.00
      L1  C    14    37       P1  8028  1.00

> <Gold.PLP.Chemscore.Internal.Correction>
0.1675

> <Gold.Rescore>
     Score         DG    S(hbond)    S(metal)    S(lipo)     H(rot)  DE(clash)    DE(int)     intcor
     15.56     -17.69       2.94        0.00      69.05       2.22       1.36       0.77       ----

> <Gold.Chemscore.Fitness>
15.5616

> <Gold.Chemscore.DG>
-17.6868

> <Gold.Chemscore.ZeroCoef>
-5.4800

> <Gold.Chemscore.Hbond>
2.9411

> <Gold.Chemscore.Metal>
0.0000

> <Gold.Chemscore.Lipo>
69.0528

> <Gold.Chemscore.Internal_Hbond>
0.0000

> <Gold.Chemscore.DEClash>
1.3571

> <Gold.Chemscore.DEInternal>
0.7681

> <Gold.Chemscore.Rot>
2.2249

> <Gold.Chemscore.Internal.Correction>
   9.000000E+99

> <Gold.Chemscore.Hbonds>
donor molecule, donor type, donor heavy atom, donor atom, acceptor molecule, acceptor atom, score
      L1  H     5    27       P1  7948  0.95
      L1  H    10    32       P1  7948  0.97
      L1  H    10    40       P1  7957  0.99

> <Gold.Chemscore.Hbond.Weighted>
-9.8233

> <Gold.Chemscore.Metal.Weighted>
-0.0000

> <Gold.Chemscore.Lipo.Weighted>
-8.0792

> <Gold.Chemscore.Internal_Hbond.Weighted>
0.0000

> <Gold.Chemscore.DEClash.Weighted>
1.3571

> <Gold.Chemscore.DEInternal.Weighted>
0.7681

> <Gold.Chemscore.Rot.Weighted>
5.6957

> <Gold.Chemscore.Internal.Correction.Weighted>
   9.000000E+99

> <Gold.Protein.RotatedTorsions>
[ 6907 6896 6895 6894 ] final  160.94 input  -60.11 | X-H torsion
[ 7974 7965 7964 7962 ] final   72.27 input  175.53 | X-H torsion
[ 8008 7997 7996 7995 ] final  170.84 input   59.86 | X-H torsion
[ 10167 10162 10161 10158 ] final  -60.36 input  -65.29 | X-H torsion
[ 10718 10713 10712 10709 ] final   43.61 input   66.30 | X-H torsion
[ 10763 10752 10751 10750 ] final -164.33 input  -60.55 | X-H torsion
[ 11005 11000 10999 10996 ] final  125.08 input  -57.11 | X-H torsion

> <Gold.Protein.ActiveResidues>
 VAL166  LYS551  ARG553  GLY616  TRP617  ASP618  TYR619  PRO620  LYS621  CYS622 
 ASP623  PHE694  ASN695  SER759  ASP760  ASP761  ALA762  ILE779  LEU786  VAL792 
 PHE793  MET794  SER795  GLU796  ALA797  LYS798  CYS799  TRP800  GLU811  SER814 

> <Gold.Protein.RotatedAtoms>
  151.9631  133.3701  159.4042 H   0  0  0  0  0  0  0  0  0  0  0  0  # atno 6907 bound_to 6896
  150.6961  134.4219  159.5218 H   0  0  0  0  0  0  0  0  0  0  0  0  # atno 6908 bound_to 6896
  152.1911  134.8671  160.0568 H   0  0  0  0  0  0  0  0  0  0  0  0  # atno 6909 bound_to 6896
  145.7554  139.2778  143.1407 H   0  0  0  0  0  0  0  0  0  0  0  0  # atno 7974 bound_to 7965
  156.1327  140.1527  156.9040 H   0  0  0  0  0  0  0  0  0  0  0  0  # atno 8008 bound_to 7997
  154.4922  140.0848  156.7659 H   0  0  0  0  0  0  0  0  0  0  0  0  # atno 8009 bound_to 7997
  155.4225  140.3423  155.4275 H   0  0  0  0  0  0  0  0  0  0  0  0  # atno 8010 bound_to 7997
  140.6076  143.2378  151.5785 H   0  0  0  0  0  0  0  0  0  0  0  0  # atno 10167 bound_to 10162
  157.4178  130.7951  149.7488 H   0  0  0  0  0  0  0  0  0  0  0  0  # atno 10718 bound_to 10713
  154.7039  135.2993  154.9300 H   0  0  0  0  0  0  0  0  0  0  0  0  # atno 10763 bound_to 10752
  154.0223  135.6681  153.4777 H   0  0  0  0  0  0  0  0  0  0  0  0  # atno 10764 bound_to 10752
  153.0702  135.5065  154.8198 H   0  0  0  0  0  0  0  0  0  0  0  0  # atno 10765 bound_to 10752
  139.9389  134.9637  156.8505 H   0  0  0  0  0  0  0  0  0  0  0  0  # atno 11005 bound_to 11000
  146.0316  140.8252  142.9873 LP  0  0  0  0  0  0  0  0  0  0  0  0  # atno 17320 bound_to 7965
  144.6841  140.2777  143.7297 LP  0  0  0  0  0  0  0  0  0  0  0  0  # atno 17321 bound_to 7965
  139.5336  144.2843  152.1203 LP  0  0  0  0  0  0  0  0  0  0  0  0  # atno 17342 bound_to 10162
  140.2036  144.4633  150.6419 LP  0  0  0  0  0  0  0  0  0  0  0  0  # atno 17343 bound_to 10162
  155.9871  130.3970  150.3183 LP  0  0  0  0  0  0  0  0  0  0  0  0  # atno 17370 bound_to 10713
  157.1327  131.0276  151.2962 LP  0  0  0  0  0  0  0  0  0  0  0  0  # atno 17371 bound_to 10713
  140.6003  134.0178  155.7534 LP  0  0  0  0  0  0  0  0  0  0  0  0  # atno 17394 bound_to 11000
  141.1015  133.9760  157.3070 LP  0  0  0  0  0  0  0  0  0  0  0  0  # atno 17395 bound_to 11000

$$$$
