AV-unprocessed.smi:66|AV-procd|sdf|624|dock8
  -GOLD-   2262016513D 1   1.00000     0.00000
 Structure written by MMmdl.
 28 30  0  0  0  0  0  0  0  0  2 V2000
  150.5279  138.4815  158.1069 O   0  0  0  0  0  0  0  0  0  0  0  0
  151.2836  138.2846  157.1304 C   0  0  0  0  0  0  0  0  0  0  0  0
  151.6847  137.1652  156.7411 O   0  5  0  0  0  0  0  0  0  0  0  0
  151.7503  139.5305  156.3591 C   0  0  1  0  0  0  0  0  0  0  0  0
  151.2920  139.4968  154.8901 C   0  0  0  0  0  0  0  0  0  0  0  0
  150.0058  140.3227  154.8934 C   0  0  2  0  0  0  0  0  0  0  0  0
  149.7057  140.8657  153.6247 O   0  0  0  0  0  0  0  0  0  0  0  0
  150.3004  141.4019  155.9357 C   0  0  0  0  0  0  0  0  0  0  0  0
  151.1719  140.7565  156.9110 N   0  0  0  0  0  0  0  0  0  0  0  0
  151.7819  141.5089  157.9396 C   0  0  0  0  0  0  0  0  0  0  0  0
  152.7593  140.9198  158.6709 N   0  0  0  0  0  0  0  0  0  0  0  0
  153.3391  141.6246  159.6506 C   0  0  0  0  0  0  0  0  0  0  0  0
  153.0971  142.8835  160.0446 N   0  0  0  0  0  0  0  0  0  0  0  0
  152.1388  143.4883  159.3307 C   0  0  0  0  0  0  0  0  0  0  0  0
  151.6899  144.7893  159.5138 N   0  0  0  0  0  0  0  0  0  0  0  0
  150.7621  144.8955  158.5648 C   0  0  0  0  0  0  0  0  0  0  0  0
  150.5645  143.8097  157.8007 N   0  0  0  0  0  0  0  0  0  0  0  0
  151.4456  142.8438  158.2610 C   0  0  0  0  0  0  0  0  0  0  0  0
  149.9111  143.7423  157.0314 H   0  0  0  0  0  0  0  0  0  0  0  0
  152.8392  139.5788  156.3854 H   0  0  0  0  0  0  0  0  0  0  0  0
  152.0472  139.9817  154.2696 H   0  0  0  0  0  0  0  0  0  0  0  0
  151.1435  138.4901  154.4963 H   0  0  0  0  0  0  0  0  0  0  0  0
  149.1717  139.7038  155.2271 H   0  0  0  0  0  0  0  0  0  0  0  0
  149.5655  140.1524  153.0214 H   0  0  0  0  0  0  0  0  0  0  0  0
  150.8288  142.2435  155.4840 H   0  0  0  0  0  0  0  0  0  0  0  0
  149.3845  141.7756  156.3950 H   0  0  0  0  0  0  0  0  0  0  0  0
  154.1088  141.1054  160.2021 H   0  0  0  0  0  0  0  0  0  0  0  0
  150.2018  145.8066  158.4143 H   0  0  0  0  0  0  0  0  0  0  0  0
  1  2  2  0  0  0  0
  2  3  1  0  0  0  0
  2  4  1  0  0  0  0
  4  9  1  0  0  0  0
  4  5  1  0  0  0  0
  4 20  1  0  0  0  0
  5  6  1  0  0  0  0
  5 21  1  0  0  0  0
  5 22  1  0  0  0  0
  6  7  1  0  0  0  0
  6  8  1  0  0  0  0
  6 23  1  0  0  0  0
  7 24  1  0  0  0  0
  8  9  1  0  0  0  0
  8 25  1  0  0  0  0
  8 26  1  0  0  0  0
  9 10  1  0  0  0  0
 10 18  1  0  0  0  0
 10 11  2  0  0  0  0
 11 12  1  0  0  0  0
 12 13  2  0  0  0  0
 12 27  1  0  0  0  0
 13 14  1  0  0  0  0
 14 18  2  0  0  0  0
 14 15  1  0  0  0  0
 15 16  2  0  0  0  0
 16 17  1  0  0  0  0
 16 28  1  0  0  0  0
 17 19  1  0  0  0  0
 17 18  1  0  0  0  0
M  CHG  1   3  -1
M  END
> <s_m_source_file>
AV-unprocessed.smi

> <i_m_source_file_index>
66

> <i_lp_mmshare_version>
43012

> <i_f3d_flags>
0

> <s_epik_input>
Tz1DKFtPSF0pW0NAQEhdMVtDSDJdW0NAQEhdKFtPSF0pW0NIMl1OMWMobltjSF1uMiljKGMyMylbbkhdW2NIXW4z

> <s_epik_cmdline>
J2VwaWtfcHl0aG9uJywgJy1waCcsICc3LjAnLCAnLXRuJywgJzgnLCAnLW1hJywgJzIwMCcsICctbWV0YWxfYmluZGluZycsICctaW1hZScsICc8aW5maWxlLm1hZT4nLCAnLW9tYWUnLCAnPG91dGZpbGUubWFlPic=

> <r_lp_tautomer_probability>
0.0419193

> <r_epik_Ionization_Penalty>
0.0157405

> <r_epik_Ionization_Penalty_Charging>
0.000248217

> <r_epik_Ionization_Penalty_Neutral>
0.0154923

> <r_epik_State_Penalty>
1.99742

> <r_epik_Charging_Adjusted_Penalty>
1.99767

> <i_epik_Tot_Q>
-1

> <i_epik_Tot_abs_Q>
1

> <r_epik_Metal_State_Penalty>
2.31035

> <b_epik_Metal_Only>
0

> <s_lp_Force_Field>
OPLS_2005

> <r_lp_Energy>
19.7313

> <b_lp_Chiralities_Consistent>
1

> <s_lp_Variant>
AV-unprocessed.smi:66-8

> <Gold.Version>
5.8.1

> <Gold.Id.Protein>
6NUR|6NUR_protein|mol2

> <Gold.PLP.Fitness>
42.7432

> <Gold.PLP.PLP>
-32.1949

> <Gold.PLP.part.hbond>
-4.0000

> <Gold.PLP.part.metal>
0.0000

> <Gold.PLP.part.buried>
-2.8481

> <Gold.PLP.part.nonpolar>
-25.5885

> <Gold.PLP.part.repulsive>
0.0940

> <Gold.PLP.ligand.clash>
0.0000

> <Gold.PLP.ligand.torsion>
0.0940

> <Gold.PLP.Chemscore.Hbond>
2.5981

> <Gold.PLP.Chemscore.CHOScore>
0.9199

> <Gold.PLP.Chemscore.Metal>
0.0000

> <Gold.Chemscore.Hbonds>
donor molecule, donor type, donor heavy atom, donor atom, acceptor molecule, acceptor atom, score
      L1  H     7    24       P1  7957  0.66
      L1  H    17    19       P1  8028  0.90
      P1  H  7989  7998       L1     7  0.04
      P1  H  8011  8017       L1     7  1.00
      L1  C    16    28       P1  8029  0.86

> <Gold.PLP.Chemscore.Internal.Correction>
0.1824

> <Gold.Rescore>
     Score         DG    S(hbond)    S(metal)    S(lipo)     H(rot)  DE(clash)    DE(int)     intcor
     10.59     -11.70       1.90        0.00      38.01       1.78       0.20       0.91       ----

> <Gold.Chemscore.Fitness>
10.5895

> <Gold.Chemscore.DG>
-11.6981

> <Gold.Chemscore.ZeroCoef>
-5.4800

> <Gold.Chemscore.Hbond>
1.8976

> <Gold.Chemscore.Metal>
0.0000

> <Gold.Chemscore.Lipo>
38.0147

> <Gold.Chemscore.Internal_Hbond>
0.0000

> <Gold.Chemscore.DEClash>
0.2002

> <Gold.Chemscore.DEInternal>
0.9084

> <Gold.Chemscore.Rot>
1.7842

> <Gold.Chemscore.Internal.Correction>
   9.000000E+99

> <Gold.Chemscore.Hbonds>
donor molecule, donor type, donor heavy atom, donor atom, acceptor molecule, acceptor atom, score
      L1  H     7    24       P1  7957  0.66
      L1  H    17    19       P1  8028  0.84
      P1  H  8011  8017       L1     7  0.23

> <Gold.Chemscore.Hbond.Weighted>
-6.3380

> <Gold.Chemscore.Metal.Weighted>
-0.0000

> <Gold.Chemscore.Lipo.Weighted>
-4.4477

> <Gold.Chemscore.Internal_Hbond.Weighted>
0.0000

> <Gold.Chemscore.DEClash.Weighted>
0.2002

> <Gold.Chemscore.DEInternal.Weighted>
0.9084

> <Gold.Chemscore.Rot.Weighted>
4.5676

> <Gold.Chemscore.Internal.Correction.Weighted>
   9.000000E+99

> <Gold.Protein.RotatedTorsions>
[ 6907 6896 6895 6894 ] final  -31.33 input  -60.11 | X-H torsion
[ 7974 7965 7964 7962 ] final   84.47 input  175.53 | X-H torsion
[ 8008 7997 7996 7995 ] final  -48.70 input   59.86 | X-H torsion
[ 10167 10162 10161 10158 ] final -177.13 input  -65.29 | X-H torsion
[ 10718 10713 10712 10709 ] final  120.11 input   66.30 | X-H torsion
[ 10763 10752 10751 10750 ] final   -5.65 input  -60.55 | X-H torsion
[ 11005 11000 10999 10996 ] final  141.21 input  -57.11 | X-H torsion

> <Gold.Protein.ActiveResidues>
 VAL166  LYS551  ARG553  GLY616  TRP617  ASP618  TYR619  PRO620  LYS621  CYS622 
 ASP623  PHE694  ASN695  SER759  ASP760  ASP761  ALA762  ILE779  LEU786  VAL792 
 PHE793  MET794  SER795  GLU796  ALA797  LYS798  CYS799  TRP800  GLU811  SER814 

> <Gold.Protein.RotatedAtoms>
  151.0935  134.9930  159.8413 H   0  0  0  0  0  0  0  0  0  0  0  0  # atno 6907 bound_to 6896
  152.5431  134.2037  159.8732 H   0  0  0  0  0  0  0  0  0  0  0  0  # atno 6908 bound_to 6896
  151.2075  133.4531  159.2631 H   0  0  0  0  0  0  0  0  0  0  0  0  # atno 6909 bound_to 6896
  145.5983  139.2348  143.2260 H   0  0  0  0  0  0  0  0  0  0  0  0  # atno 7974 bound_to 7965
  154.4033  140.1315  156.4382 H   0  0  0  0  0  0  0  0  0  0  0  0  # atno 8008 bound_to 7997
  155.7484  140.3488  155.5118 H   0  0  0  0  0  0  0  0  0  0  0  0  # atno 8009 bound_to 7997
  155.8973  140.1013  157.1366 H   0  0  0  0  0  0  0  0  0  0  0  0  # atno 8010 bound_to 7997
  139.5495  144.2147  152.1051 H   0  0  0  0  0  0  0  0  0  0  0  0  # atno 10167 bound_to 10162
  157.5914  131.1064  150.7990 H   0  0  0  0  0  0  0  0  0  0  0  0  # atno 10718 bound_to 10713
  153.4014  135.7005  153.6423 H   0  0  0  0  0  0  0  0  0  0  0  0  # atno 10763 bound_to 10752
  153.4955  135.3663  155.2514 H   0  0  0  0  0  0  0  0  0  0  0  0  # atno 10764 bound_to 10752
  154.8711  135.4099  154.3350 H   0  0  0  0  0  0  0  0  0  0  0  0  # atno 10765 bound_to 10752
  140.0384  134.9317  157.0797 H   0  0  0  0  0  0  0  0  0  0  0  0  # atno 11005 bound_to 11000
  146.1595  140.6809  142.9284 LP  0  0  0  0  0  0  0  0  0  0  0  0  # atno 17320 bound_to 7965
  144.7321  140.4701  143.6930 LP  0  0  0  0  0  0  0  0  0  0  0  0  # atno 17321 bound_to 7965
  140.1639  144.4999  150.6617 LP  0  0  0  0  0  0  0  0  0  0  0  0  # atno 17342 bound_to 10162
  140.6753  143.2303  151.5522 LP  0  0  0  0  0  0  0  0  0  0  0  0  # atno 17343 bound_to 10162
  156.8411  130.5048  149.5321 LP  0  0  0  0  0  0  0  0  0  0  0  0  # atno 17370 bound_to 10713
  156.0969  130.5939  150.9829 LP  0  0  0  0  0  0  0  0  0  0  0  0  # atno 17371 bound_to 10713
  140.4109  134.1982  155.7163 LP  0  0  0  0  0  0  0  0  0  0  0  0  # atno 17394 bound_to 11000
  141.1870  133.8290  157.1048 LP  0  0  0  0  0  0  0  0  0  0  0  0  # atno 17395 bound_to 11000

$$$$
