AV-unprocessed.smi:290|AV-procd|sdf|2226|dock5
  -GOLD-   2262022 83D 1   1.00000     0.00000
 Structure written by MMmdl.
 59 62  0  0  0  0  0  0  0  0  2 V2000
  152.8302  142.5650  161.3705 C   0  0  0  0  0  0  0  0  0  0  0  0
  151.7975  143.5377  160.7797 C   0  0  1  0  0  0  0  0  0  0  0  0
  152.3967  144.8288  160.7158 O   0  0  0  0  0  0  0  0  0  0  0  0
  151.7972  145.5525  159.6565 C   0  0  0  0  0  0  0  0  0  0  0  0
  151.6870  144.4970  158.5673 C   0  0  0  0  0  0  0  0  0  0  0  0
  151.2901  143.2402  159.3396 C   0  0  2  0  0  0  0  0  0  0  0  0
  149.8740  143.1901  159.3854 O   0  0  0  0  0  0  0  0  0  0  0  0
  151.7967  141.9272  158.6867 C   0  0  0  0  0  0  0  0  0  0  0  0
  150.8083  141.2898  157.8299 N   0  0  0  0  0  0  0  0  0  0  0  0
  150.3096  141.7791  156.6425 C   0  0  0  0  0  0  0  0  0  0  0  0
  149.4243  141.0216  156.0540 N   0  0  0  0  0  0  0  0  0  0  0  0
  149.3134  139.9232  156.8960 C   0  0  0  0  0  0  0  0  0  0  0  0
  148.5460  138.7313  156.8616 C   0  0  0  0  0  0  0  0  0  0  0  0
  147.6917  138.4718  155.8474 N   0  0  0  0  0  0  0  0  0  0  0  0
  146.2873  138.4719  156.2255 C   0  0  0  0  0  0  0  0  0  0  0  0
  145.5396  137.8139  155.0591 C   0  0  0  0  0  0  0  0  0  0  0  0
  146.6236  137.0465  154.2706 C   0  0  1  0  0  0  0  0  0  0  0  0
  146.7607  137.4433  152.8339 N   0  3  2  0  0  0  0  0  0  0  0  0
  146.9634  138.8939  152.5841 C   0  0  0  0  0  0  0  0  0  0  0  0
  145.7109  136.8679  151.9544 C   0  0  0  0  0  0  0  0  0  0  0  0
  146.0722  136.9844  150.4636 C   0  0  0  0  0  0  0  0  0  0  0  0
  145.2117  136.1717  149.6938 O   0  0  0  0  0  0  0  0  0  0  0  0
  147.9071  137.2383  155.1036 C   0  0  1  0  0  0  0  0  0  0  0  0
  149.2491  137.1798  154.3461 C   0  0  0  0  0  0  0  0  0  0  0  0
  148.6976  137.8445  157.8805 N   0  0  0  0  0  0  0  0  0  0  0  0
  149.5521  138.1115  158.8734 C   0  0  0  0  0  0  0  0  0  0  0  0
  150.3337  139.1817  159.0371 N   0  0  0  0  0  0  0  0  0  0  0  0
  150.1794  140.0710  158.0144 C   0  0  0  0  0  0  0  0  0  0  0  0
  146.3915  135.9823  154.3010 H   0  0  0  0  0  0  0  0  0  0  0  0
  147.9223  136.4250  155.8316 H   0  0  0  0  0  0  0  0  0  0  0  0
  152.4267  141.5556  161.4510 H   0  0  0  0  0  0  0  0  0  0  0  0
  153.1223  142.8798  162.3725 H   0  0  0  0  0  0  0  0  0  0  0  0
  153.7368  142.5250  160.7663 H   0  0  0  0  0  0  0  0  0  0  0  0
  150.9552  143.6040  161.4715 H   0  0  0  0  0  0  0  0  0  0  0  0
  150.8127  145.9114  159.9604 H   0  0  0  0  0  0  0  0  0  0  0  0
  152.4032  146.4076  159.3571 H   0  0  0  0  0  0  0  0  0  0  0  0
  150.9892  144.7691  157.7741 H   0  0  0  0  0  0  0  0  0  0  0  0
  152.6696  144.3643  158.1129 H   0  0  0  0  0  0  0  0  0  0  0  0
  149.5326  143.9940  159.0244 H   0  0  0  0  0  0  0  0  0  0  0  0
  152.6784  142.1208  158.0754 H   0  0  0  0  0  0  0  0  0  0  0  0
  152.1017  141.2117  159.4515 H   0  0  0  0  0  0  0  0  0  0  0  0
  150.6224  142.7253  156.2253 H   0  0  0  0  0  0  0  0  0  0  0  0
  146.1364  137.8985  157.1416 H   0  0  0  0  0  0  0  0  0  0  0  0
  145.9330  139.4878  156.4029 H   0  0  0  0  0  0  0  0  0  0  0  0
  144.7707  137.1378  155.4340 H   0  0  0  0  0  0  0  0  0  0  0  0
  145.0246  138.5641  154.4625 H   0  0  0  0  0  0  0  0  0  0  0  0
  146.0330  139.4558  152.6622 H   0  0  0  0  0  0  0  0  0  0  0  0
  147.3477  139.0423  151.5746 H   0  0  0  0  0  0  0  0  0  0  0  0
  147.6851  139.3340  153.2708 H   0  0  0  0  0  0  0  0  0  0  0  0
  145.5388  135.8253  152.2258 H   0  0  0  0  0  0  0  0  0  0  0  0
  144.7621  137.3823  152.1172 H   0  0  0  0  0  0  0  0  0  0  0  0
  146.0217  138.0120  150.1050 H   0  0  0  0  0  0  0  0  0  0  0  0
  147.0956  136.6440  150.3044 H   0  0  0  0  0  0  0  0  0  0  0  0
  145.7085  135.7927  148.9840 H   0  0  0  0  0  0  0  0  0  0  0  0
  149.3267  136.2618  153.7633 H   0  0  0  0  0  0  0  0  0  0  0  0
  150.0898  137.1942  155.0405 H   0  0  0  0  0  0  0  0  0  0  0  0
  149.3787  138.0214  153.6667 H   0  0  0  0  0  0  0  0  0  0  0  0
  149.6200  137.3607  159.6469 H   0  0  0  0  0  0  0  0  0  0  0  0
  147.6177  137.0076  152.5228 H   0  0  0  0  0  0  0  0  0  0  0  0
  1  2  1  0  0  0  0
  1 31  1  0  0  0  0
  1 32  1  0  0  0  0
  1 33  1  0  0  0  0
  2  6  1  0  0  0  0
  2  3  1  0  0  0  0
  2 34  1  0  0  0  0
  3  4  1  0  0  0  0
  4  5  1  0  0  0  0
  4 35  1  0  0  0  0
  4 36  1  0  0  0  0
  5  6  1  0  0  0  0
  5 37  1  0  0  0  0
  5 38  1  0  0  0  0
  6  7  1  0  0  0  0
  6  8  1  0  0  0  0
  7 39  1  0  0  0  0
  8  9  1  0  0  0  0
  8 40  1  0  0  0  0
  8 41  1  0  0  0  0
  9 28  1  0  0  0  0
  9 10  1  0  0  0  0
 10 11  2  0  0  0  0
 10 42  1  0  0  0  0
 11 12  1  0  0  0  0
 12 28  2  0  0  0  0
 12 13  1  0  0  0  0
 13 14  1  0  0  0  0
 13 25  2  0  0  0  0
 14 23  1  0  0  0  0
 14 15  1  0  0  0  0
 15 16  1  0  0  0  0
 15 43  1  0  0  0  0
 15 44  1  0  0  0  0
 16 17  1  0  0  0  0
 16 45  1  0  0  0  0
 16 46  1  0  0  0  0
 17 29  1  0  0  0  0
 17 18  1  0  0  0  0
 17 23  1  0  0  0  0
 18 19  1  0  0  0  0
 18 20  1  0  0  0  0
 18 59  1  0  0  0  0
 19 47  1  0  0  0  0
 19 48  1  0  0  0  0
 19 49  1  0  0  0  0
 20 21  1  0  0  0  0
 20 50  1  0  0  0  0
 20 51  1  0  0  0  0
 21 22  1  0  0  0  0
 21 52  1  0  0  0  0
 21 53  1  0  0  0  0
 22 54  1  0  0  0  0
 23 30  1  0  0  0  0
 23 24  1  0  0  0  0
 24 55  1  0  0  0  0
 24 56  1  0  0  0  0
 24 57  1  0  0  0  0
 25 26  1  0  0  0  0
 26 27  2  0  0  0  0
 26 58  1  0  0  0  0
 27 28  1  0  0  0  0
M  CHG  1  18   1
M  END
> <s_m_source_file>
AV-unprocessed.smi

> <i_m_source_file_index>
290

> <i_lp_mmshare_version>
43012

> <i_f3d_flags>
0

> <s_epik_input>
W0NIMl0xW0NIMl1PW0NAQEhdKFtDSDNdKVtDQEBdMShbT0hdKVtDSDJdbihbY0hdbjIpYyhjMjMpbltjSF1uYzNONFtDSDJdW0NIMl1bQ0BIXShbQ0BIXTRbQ0gzXSlOKFtDSDNdKVtDSDJdW0NIMl1bT0hd

> <s_epik_cmdline>
J2VwaWtfcHl0aG9uJywgJy1waCcsICc3LjAnLCAnLXRuJywgJzgnLCAnLW1hJywgJzIwMCcsICctbWV0YWxfYmluZGluZycsICctaW1hZScsICc8aW5maWxlLm1hZT4nLCAnLW9tYWUnLCAnPG91dGZpbGUubWFlPic=

> <r_lp_tautomer_probability>
1

> <r_epik_Ionization_Penalty>
0.0036983

> <r_epik_Ionization_Penalty_Charging>
0.0032725

> <r_epik_Ionization_Penalty_Neutral>
0.000425798

> <r_epik_State_Penalty>
-0

> <r_epik_Charging_Adjusted_Penalty>
0.0032725

> <i_epik_Tot_Q>
1

> <i_epik_Tot_abs_Q>
1

> <r_epik_Metal_State_Penalty>
-0

> <b_epik_Metal_Only>
0

> <s_lp_Force_Field>
OPLS_2005

> <r_lp_Energy>
69.8612

> <b_lp_Chiralities_Consistent>
1

> <s_lp_Variant>
AV-unprocessed.smi:290-12

> <Gold.Version>
5.8.1

> <Gold.Id.Protein>
6NUR|6NUR_protein|mol2

> <Gold.PLP.Fitness>
46.2312

> <Gold.PLP.PLP>
-36.2095

> <Gold.PLP.part.hbond>
-4.1959

> <Gold.PLP.part.metal>
0.0000

> <Gold.PLP.part.buried>
3.8630

> <Gold.PLP.part.nonpolar>
-36.5064

> <Gold.PLP.part.repulsive>
0.2611

> <Gold.PLP.ligand.clash>
0.0000

> <Gold.PLP.ligand.torsion>
1.1009

> <Gold.PLP.Chemscore.Hbond>
3.0000

> <Gold.PLP.Chemscore.CHOScore>
1.0000

> <Gold.PLP.Chemscore.Metal>
0.0000

> <Gold.Chemscore.Hbonds>
donor molecule, donor type, donor heavy atom, donor atom, acceptor molecule, acceptor atom, score
      L1  H    18    59       P1  7948  2.00
      L1  H    22    54       P1  7921  1.00
      L1  C    10    42       P1  8028  0.50

> <Gold.PLP.Chemscore.Internal.Correction>
0.2235

> <Gold.Rescore>
     Score         DG    S(hbond)    S(metal)    S(lipo)     H(rot)  DE(clash)    DE(int)     intcor
      9.34     -14.78       2.00        0.00     102.61       3.67       3.15       2.29       ----

> <Gold.Chemscore.Fitness>
9.3445

> <Gold.Chemscore.DG>
-14.7789

> <Gold.Chemscore.ZeroCoef>
-5.4800

> <Gold.Chemscore.Hbond>
1.9993

> <Gold.Chemscore.Metal>
0.0000

> <Gold.Chemscore.Lipo>
102.6126

> <Gold.Chemscore.Internal_Hbond>
0.0000

> <Gold.Chemscore.DEClash>
3.1485

> <Gold.Chemscore.DEInternal>
2.2859

> <Gold.Chemscore.Rot>
3.6658

> <Gold.Chemscore.Internal.Correction>
   9.000000E+99

> <Gold.Chemscore.Hbonds>
donor molecule, donor type, donor heavy atom, donor atom, acceptor molecule, acceptor atom, score
      L1  H    18    59       P1  7948  1.00
      L1  H    22    54       P1  7921  1.00

> <Gold.Chemscore.Hbond.Weighted>
-6.6776

> <Gold.Chemscore.Metal.Weighted>
-0.0000

> <Gold.Chemscore.Lipo.Weighted>
-12.0057

> <Gold.Chemscore.Internal_Hbond.Weighted>
0.0000

> <Gold.Chemscore.DEClash.Weighted>
3.1485

> <Gold.Chemscore.DEInternal.Weighted>
2.2859

> <Gold.Chemscore.Rot.Weighted>
9.3844

> <Gold.Chemscore.Internal.Correction.Weighted>
   9.000000E+99

> <Gold.Protein.RotatedTorsions>
[ 6907 6896 6895 6894 ] final   27.68 input  -60.11 | X-H torsion
[ 7974 7965 7964 7962 ] final  133.83 input  175.53 | X-H torsion
[ 8008 7997 7996 7995 ] final -120.64 input   59.86 | X-H torsion
[ 10167 10162 10161 10158 ] final   35.41 input  -65.29 | X-H torsion
[ 10718 10713 10712 10709 ] final  -32.59 input   66.30 | X-H torsion
[ 10763 10752 10751 10750 ] final -117.14 input  -60.55 | X-H torsion
[ 11005 11000 10999 10996 ] final  123.32 input  -57.11 | X-H torsion

> <Gold.Protein.ActiveResidues>
 VAL166  LYS551  ARG553  GLY616  TRP617  ASP618  TYR619  PRO620  LYS621  CYS622 
 ASP623  PHE694  ASN695  SER759  ASP760  ASP761  ALA762  ILE779  LEU786  VAL792 
 PHE793  MET794  SER795  GLU796  ALA797  LYS798  CYS799  TRP800  GLU811  SER814 

> <Gold.Protein.RotatedAtoms>
  152.0059  134.9903  160.0566 H   0  0  0  0  0  0  0  0  0  0  0  0  # atno 6907 bound_to 6896
  152.1475  133.4497  159.4805 H   0  0  0  0  0  0  0  0  0  0  0  0  # atno 6908 bound_to 6896
  150.6872  134.2148  159.4416 H   0  0  0  0  0  0  0  0  0  0  0  0  # atno 6909 bound_to 6896
  144.9825  139.4489  143.5379 H   0  0  0  0  0  0  0  0  0  0  0  0  # atno 7974 bound_to 7965
  155.1350  140.0401  157.2784 H   0  0  0  0  0  0  0  0  0  0  0  0  # atno 8008 bound_to 7997
  154.6514  140.2570  155.7183 H   0  0  0  0  0  0  0  0  0  0  0  0  # atno 8009 bound_to 7997
  156.2579  140.2835  156.0950 H   0  0  0  0  0  0  0  0  0  0  0  0  # atno 8010 bound_to 7997
  140.4225  144.1440  150.6149 H   0  0  0  0  0  0  0  0  0  0  0  0  # atno 10167 bound_to 10162
  156.3731  130.4343  149.7529 H   0  0  0  0  0  0  0  0  0  0  0  0  # atno 10718 bound_to 10713
  154.8544  135.4320  154.1932 H   0  0  0  0  0  0  0  0  0  0  0  0  # atno 10763 bound_to 10752
  153.2996  135.6968  153.7222 H   0  0  0  0  0  0  0  0  0  0  0  0  # atno 10764 bound_to 10752
  153.6357  135.3477  155.3030 H   0  0  0  0  0  0  0  0  0  0  0  0  # atno 10765 bound_to 10752
  139.9307  134.9641  156.8242 H   0  0  0  0  0  0  0  0  0  0  0  0  # atno 11005 bound_to 11000
  146.3412  139.9107  142.8781 LP  0  0  0  0  0  0  0  0  0  0  0  0  # atno 17320 bound_to 7965
  145.2400  141.0006  143.3941 LP  0  0  0  0  0  0  0  0  0  0  0  0  # atno 17321 bound_to 7965
  140.4518  143.2483  151.9337 LP  0  0  0  0  0  0  0  0  0  0  0  0  # atno 17342 bound_to 10162
  139.4783  144.5554  151.8321 LP  0  0  0  0  0  0  0  0  0  0  0  0  # atno 17343 bound_to 10162
  156.4649  130.7969  151.2989 LP  0  0  0  0  0  0  0  0  0  0  0  0  # atno 17370 bound_to 10713
  157.7486  131.0054  150.3112 LP  0  0  0  0  0  0  0  0  0  0  0  0  # atno 17371 bound_to 10713
  140.6209  133.9995  155.7618 LP  0  0  0  0  0  0  0  0  0  0  0  0  # atno 17394 bound_to 11000
  141.0894  133.9939  157.3261 LP  0  0  0  0  0  0  0  0  0  0  0  0  # atno 17395 bound_to 11000

$$$$
