AV-unprocessed.smi:199|AV-procd|sdf|1562|dock6
  -GOLD-   2262019433D 1   1.00000     0.00000
 Structure written by MMmdl.
 51 55  0  0  0  0  0  0  0  0  1 V2000
  150.2235  141.4308  155.8073 C   0  0  0  0  0  0  0  0  0  0  0  0
  150.6763  139.9647  155.7101 C   0  0  2  0  0  0  0  0  0  0  0  0
  151.9327  139.8694  155.0552 O   0  0  0  0  0  0  0  0  0  0  0  0
  152.0962  138.5157  154.6735 C   0  0  0  0  0  0  0  0  0  0  0  0
  150.7284  138.1577  154.1044 C   0  0  0  0  0  0  0  0  0  0  0  0
  149.7486  138.9852  154.9427 C   0  0  2  0  0  0  0  0  0  0  0  0
  148.8807  139.6723  154.0559 O   0  0  0  0  0  0  0  0  0  0  0  0
  148.8852  138.0998  155.8752 C   0  0  0  0  0  0  0  0  0  0  0  0
  148.2130  137.0115  155.1809 N   0  0  0  0  0  0  0  0  0  0  0  0
  148.7365  135.7740  154.8856 C   0  0  0  0  0  0  0  0  0  0  0  0
  147.9350  134.9720  154.2411 N   0  0  0  0  0  0  0  0  0  0  0  0
  146.7666  135.7073  154.0765 C   0  0  0  0  0  0  0  0  0  0  0  0
  145.5044  135.4571  153.4612 C   0  0  0  0  0  0  0  0  0  0  0  0
  145.1781  134.2964  152.8275 N   0  0  0  0  0  0  0  0  0  0  0  0
  143.9523  134.2024  152.0472 C   0  0  1  0  0  0  0  0  0  0  0  0
  144.2619  134.9973  150.7607 C   0  0  0  0  0  0  0  0  0  0  0  0
  145.7592  134.7026  150.5789 C   0  0  0  0  0  0  0  0  0  0  0  0
  146.0278  133.7631  151.7720 C   0  0  2  0  0  0  0  0  0  0  0  0
  145.3903  132.3860  151.4777 C   0  0  1  0  0  0  0  0  0  0  0  0
  145.9091  131.2607  152.3911 C   0  0  0  0  0  0  0  0  0  0  0  0
  147.3184  131.1946  152.3383 O   0  0  0  0  0  0  0  0  0  0  0  0
  143.8997  132.7041  151.7109 C   0  0  0  0  0  0  0  0  0  0  0  0
  144.5698  136.4417  153.5416 N   0  0  0  0  0  0  0  0  0  0  0  0
  144.8488  137.5968  154.1504 C   0  0  0  0  0  0  0  0  0  0  0  0
  145.9815  137.9728  154.7441 N   0  0  0  0  0  0  0  0  0  0  0  0
  146.9213  136.9872  154.6841 C   0  0  0  0  0  0  0  0  0  0  0  0
  149.2538  141.5124  156.2988 H   0  0  0  0  0  0  0  0  0  0  0  0
  150.1441  141.8929  154.8234 H   0  0  0  0  0  0  0  0  0  0  0  0
  150.9369  142.0160  156.3876 H   0  0  0  0  0  0  0  0  0  0  0  0
  150.8409  139.5881  156.7200 H   0  0  0  0  0  0  0  0  0  0  0  0
  152.9002  138.3943  153.9475 H   0  0  0  0  0  0  0  0  0  0  0  0
  152.3273  137.9100  155.5512 H   0  0  0  0  0  0  0  0  0  0  0  0
  150.6973  138.4561  153.0549 H   0  0  0  0  0  0  0  0  0  0  0  0
  150.5357  137.0848  154.1424 H   0  0  0  0  0  0  0  0  0  0  0  0
  149.1357  139.4691  153.1691 H   0  0  0  0  0  0  0  0  0  0  0  0
  149.4981  137.6718  156.6698 H   0  0  0  0  0  0  0  0  0  0  0  0
  148.1282  138.7082  156.3718 H   0  0  0  0  0  0  0  0  0  0  0  0
  149.7414  135.4853  155.1569 H   0  0  0  0  0  0  0  0  0  0  0  0
  143.0521  134.5419  152.5607 H   0  0  0  0  0  0  0  0  0  0  0  0
  143.6597  134.6713  149.9120 H   0  0  0  0  0  0  0  0  0  0  0  0
  144.0947  136.0656  150.9030 H   0  0  0  0  0  0  0  0  0  0  0  0
  145.9896  134.2440  149.6169 H   0  0  0  0  0  0  0  0  0  0  0  0
  146.3450  135.6189  150.6650 H   0  0  0  0  0  0  0  0  0  0  0  0
  147.0859  133.6798  152.0116 H   0  0  0  0  0  0  0  0  0  0  0  0
  145.5561  132.0977  150.4384 H   0  0  0  0  0  0  0  0  0  0  0  0
  145.5931  131.4148  153.4235 H   0  0  0  0  0  0  0  0  0  0  0  0
  145.5090  130.2988  152.0696 H   0  0  0  0  0  0  0  0  0  0  0  0
  147.5856  131.2003  151.4318 H   0  0  0  0  0  0  0  0  0  0  0  0
  143.4993  132.1402  152.5547 H   0  0  0  0  0  0  0  0  0  0  0  0
  143.2792  132.4891  150.8403 H   0  0  0  0  0  0  0  0  0  0  0  0
  144.0504  138.3242  154.1617 H   0  0  0  0  0  0  0  0  0  0  0  0
  1  2  1  0  0  0  0
  1 27  1  0  0  0  0
  1 28  1  0  0  0  0
  1 29  1  0  0  0  0
  2  6  1  0  0  0  0
  2  3  1  0  0  0  0
  2 30  1  0  0  0  0
  3  4  1  0  0  0  0
  4  5  1  0  0  0  0
  4 31  1  0  0  0  0
  4 32  1  0  0  0  0
  5  6  1  0  0  0  0
  5 33  1  0  0  0  0
  5 34  1  0  0  0  0
  6  7  1  0  0  0  0
  6  8  1  0  0  0  0
  7 35  1  0  0  0  0
  8  9  1  0  0  0  0
  8 36  1  0  0  0  0
  8 37  1  0  0  0  0
  9 26  1  0  0  0  0
  9 10  1  0  0  0  0
 10 11  2  0  0  0  0
 10 38  1  0  0  0  0
 11 12  1  0  0  0  0
 12 26  2  0  0  0  0
 12 13  1  0  0  0  0
 13 14  1  0  0  0  0
 13 23  2  0  0  0  0
 14 18  1  0  0  0  0
 14 15  1  0  0  0  0
 15 22  1  0  0  0  0
 15 16  1  0  0  0  0
 15 39  1  0  0  0  0
 16 17  1  0  0  0  0
 16 40  1  0  0  0  0
 16 41  1  0  0  0  0
 17 18  1  0  0  0  0
 17 42  1  0  0  0  0
 17 43  1  0  0  0  0
 18 19  1  0  0  0  0
 18 44  1  0  0  0  0
 19 20  1  0  0  0  0
 19 22  1  0  0  0  0
 19 45  1  0  0  0  0
 20 21  1  0  0  0  0
 20 46  1  0  0  0  0
 20 47  1  0  0  0  0
 21 48  1  0  0  0  0
 22 49  1  0  0  0  0
 22 50  1  0  0  0  0
 23 24  1  0  0  0  0
 24 25  2  0  0  0  0
 24 51  1  0  0  0  0
 25 26  1  0  0  0  0
M  END
> <s_m_source_file>
AV-unprocessed.smi

> <i_m_source_file_index>
199

> <i_lp_mmshare_version>
43012

> <i_f3d_flags>
0

> <s_epik_input>
W0NIMl0xW0NIMl1PW0NAQEhdKFtDSDNdKVtDQEBdMShbT0hdKVtDSDJdbihbY0hdbjIpYyhjMjMpbltjSF1uYzNOKFtDQEBIXTQ1KVtDQEhdKFtDSDJdW0NIMl00KVtDQEhdKFtDSDJdNSlbQ0gyXVtPSF0=

> <s_epik_cmdline>
J2VwaWtfcHl0aG9uJywgJy1waCcsICc3LjAnLCAnLXRuJywgJzgnLCAnLW1hJywgJzIwMCcsICctbWV0YWxfYmluZGluZycsICctaW1hZScsICc8aW5maWxlLm1hZT4nLCAnLW9tYWUnLCAnPG91dGZpbGUubWFlPic=

> <r_lp_tautomer_probability>
1

> <r_epik_Ionization_Penalty>
0.00583903

> <r_epik_Ionization_Penalty_Charging>
0

> <r_epik_Ionization_Penalty_Neutral>
0.00583903

> <r_epik_State_Penalty>
-0

> <r_epik_Charging_Adjusted_Penalty>
0

> <i_epik_Tot_Q>
0

> <i_epik_Tot_abs_Q>
0

> <r_epik_Metal_State_Penalty>
-0

> <b_epik_Metal_Only>
0

> <s_lp_Force_Field>
OPLS_2005

> <r_lp_Energy>
83.6045

> <b_lp_Chiralities_Consistent>
1

> <s_lp_Variant>
AV-unprocessed.smi:199-3

> <Gold.Version>
5.8.1

> <Gold.Id.Protein>
6NUR|6NUR_protein|mol2

> <Gold.PLP.Fitness>
43.4306

> <Gold.PLP.PLP>
-32.8745

> <Gold.PLP.part.hbond>
-3.0000

> <Gold.PLP.part.metal>
0.0000

> <Gold.PLP.part.buried>
-3.5956

> <Gold.PLP.part.nonpolar>
-26.8045

> <Gold.PLP.part.repulsive>
2.0096

> <Gold.PLP.ligand.clash>
0.0000

> <Gold.PLP.ligand.torsion>
0.6002

> <Gold.PLP.Chemscore.Hbond>
2.9040

> <Gold.PLP.Chemscore.CHOScore>
1.0000

> <Gold.PLP.Chemscore.Metal>
0.0000

> <Gold.Chemscore.Hbonds>
donor molecule, donor type, donor heavy atom, donor atom, acceptor molecule, acceptor atom, score
      L1  H     7    35       P1  7957  0.73
      L1  H    21    48       P1 10747  0.88
      P1  H  7989  7998       L1     3  0.91
      L1  C    24    51       P1 10175  0.47

> <Gold.PLP.Chemscore.Internal.Correction>
0.0446

> <Gold.Rescore>
     Score         DG    S(hbond)    S(metal)    S(lipo)     H(rot)  DE(clash)    DE(int)     intcor
     12.11     -14.30       2.17        0.00      80.67       3.07       1.64       0.55       ----

> <Gold.Chemscore.Fitness>
12.1120

> <Gold.Chemscore.DG>
-14.3047

> <Gold.Chemscore.ZeroCoef>
-5.4800

> <Gold.Chemscore.Hbond>
2.1716

> <Gold.Chemscore.Metal>
0.0000

> <Gold.Chemscore.Lipo>
80.6702

> <Gold.Chemscore.Internal_Hbond>
0.0000

> <Gold.Chemscore.DEClash>
1.6387

> <Gold.Chemscore.DEInternal>
0.5540

> <Gold.Chemscore.Rot>
3.0729

> <Gold.Chemscore.Internal.Correction>
   9.000000E+99

> <Gold.Chemscore.Hbonds>
donor molecule, donor type, donor heavy atom, donor atom, acceptor molecule, acceptor atom, score
      L1  H     7    35       P1  7957  0.70
      L1  H    21    48       P1 10747  0.87
      P1  H  7989  7998       L1     3  0.23

> <Gold.Chemscore.Hbond.Weighted>
-7.2530

> <Gold.Chemscore.Metal.Weighted>
-0.0000

> <Gold.Chemscore.Lipo.Weighted>
-9.4384

> <Gold.Chemscore.Internal_Hbond.Weighted>
0.0000

> <Gold.Chemscore.DEClash.Weighted>
1.6387

> <Gold.Chemscore.DEInternal.Weighted>
0.5540

> <Gold.Chemscore.Rot.Weighted>
7.8667

> <Gold.Chemscore.Internal.Correction.Weighted>
   9.000000E+99

> <Gold.Protein.RotatedTorsions>
[ 6907 6896 6895 6894 ] final -177.82 input  -60.11 | X-H torsion
[ 7974 7965 7964 7962 ] final  102.25 input  175.53 | X-H torsion
[ 8008 7997 7996 7995 ] final -134.11 input   59.86 | X-H torsion
[ 10167 10162 10161 10158 ] final  123.87 input  -65.29 | X-H torsion
[ 10718 10713 10712 10709 ] final  137.90 input   66.30 | X-H torsion
[ 10763 10752 10751 10750 ] final  132.79 input  -60.55 | X-H torsion
[ 11005 11000 10999 10996 ] final  -58.89 input  -57.11 | X-H torsion

> <Gold.Protein.ActiveResidues>
 VAL166  LYS551  ARG553  GLY616  TRP617  ASP618  TYR619  PRO620  LYS621  CYS622 
 ASP623  PHE694  ASN695  SER759  ASP760  ASP761  ALA762  ILE779  LEU786  VAL792 
 PHE793  MET794  SER795  GLU796  ALA797  LYS798  CYS799  TRP800  GLU811  SER814 

> <Gold.Protein.RotatedAtoms>
  151.6271  133.3334  159.3100 H   0  0  0  0  0  0  0  0  0  0  0  0  # atno 6907 bound_to 6896
  150.8075  134.7214  159.6669 H   0  0  0  0  0  0  0  0  0  0  0  0  # atno 6908 bound_to 6896
  152.4171  134.6026  160.0055 H   0  0  0  0  0  0  0  0  0  0  0  0  # atno 6909 bound_to 6896
  145.3616  139.2417  143.3503 H   0  0  0  0  0  0  0  0  0  0  0  0  # atno 7974 bound_to 7965
  155.3566  140.0480  157.3046 H   0  0  0  0  0  0  0  0  0  0  0  0  # atno 8008 bound_to 7997
  154.5199  140.2221  155.8959 H   0  0  0  0  0  0  0  0  0  0  0  0  # atno 8009 bound_to 7997
  156.1678  140.3102  155.8926 H   0  0  0  0  0  0  0  0  0  0  0  0  # atno 8010 bound_to 7997
  139.5774  144.6970  151.3617 H   0  0  0  0  0  0  0  0  0  0  0  0  # atno 10167 bound_to 10162
  157.4311  131.1048  151.0249 H   0  0  0  0  0  0  0  0  0  0  0  0  # atno 10718 bound_to 10713
  153.7965  135.3148  155.3385 H   0  0  0  0  0  0  0  0  0  0  0  0  # atno 10763 bound_to 10752
  154.8105  135.4670  154.0508 H   0  0  0  0  0  0  0  0  0  0  0  0  # atno 10764 bound_to 10752
  153.1842  135.6898  153.8524 H   0  0  0  0  0  0  0  0  0  0  0  0  # atno 10765 bound_to 10752
  141.1226  133.6614  156.4988 H   0  0  0  0  0  0  0  0  0  0  0  0  # atno 11005 bound_to 11000
  146.2925  140.4251  142.8734 LP  0  0  0  0  0  0  0  0  0  0  0  0  # atno 17320 bound_to 7965
  144.8642  140.7183  143.6088 LP  0  0  0  0  0  0  0  0  0  0  0  0  # atno 17321 bound_to 7965
  140.7056  143.7523  150.7476 LP  0  0  0  0  0  0  0  0  0  0  0  0  # atno 17342 bound_to 10162
  140.1046  143.4755  152.2405 LP  0  0  0  0  0  0  0  0  0  0  0  0  # atno 17343 bound_to 10162
  157.1145  130.6036  149.5490 LP  0  0  0  0  0  0  0  0  0  0  0  0  # atno 17370 bound_to 10713
  155.9913  130.4968  150.7295 LP  0  0  0  0  0  0  0  0  0  0  0  0  # atno 17371 bound_to 10713
  140.4463  134.6970  157.5017 LP  0  0  0  0  0  0  0  0  0  0  0  0  # atno 17394 bound_to 11000
  140.0196  134.6568  155.9260 LP  0  0  0  0  0  0  0  0  0  0  0  0  # atno 17395 bound_to 11000

$$$$
