AV-unprocessed.smi:2786|AV-procd|sdf|10749|dock6
  -GOLD-   2272015183D 1   1.00000     0.00000
 Structure written by MMmdl.
 27 28  0  0  0  0  0  0  0  0  2 V2000
  152.4985  144.5610  158.0069 C   0  0  0  0  0  0  0  0  0  0  0  0
  152.4015  143.4075  158.8803 N   0  0  0  0  0  0  0  0  0  0  0  0
  153.2629  143.1065  159.9272 C   0  0  0  0  0  0  0  0  0  0  0  0
  152.8160  141.9313  160.4803 C   0  0  0  0  0  0  0  0  0  0  0  0
  151.6886  141.4977  159.7914 N   0  0  0  0  0  0  0  0  0  0  0  0
  151.4832  142.4214  158.8551 C   0  0  0  0  0  0  0  0  0  0  0  0
  150.3686  142.3639  157.8505 C   0  0  1  0  0  0  0  0  0  0  0  0
  150.9096  142.1243  156.4235 C   0  0  0  0  0  0  0  0  0  0  0  0
  149.8009  142.1149  155.4466 N   0  3  0  0  0  0  0  0  0  0  0  0
  148.7686  141.1270  155.8197 C   0  0  0  0  0  0  0  0  0  0  0  0
  148.2771  141.3975  157.2536 C   0  0  0  0  0  0  0  0  0  0  0  0
  149.4019  141.3160  158.1803 N   0  0  0  0  0  0  0  0  0  0  0  0
  153.4066  145.1234  158.2264 H   0  0  0  0  0  0  0  0  0  0  0  0
  151.6366  145.2111  158.1579 H   0  0  0  0  0  0  0  0  0  0  0  0
  152.5293  144.2370  156.9662 H   0  0  0  0  0  0  0  0  0  0  0  0
  154.1021  143.7358  160.1850 H   0  0  0  0  0  0  0  0  0  0  0  0
  153.2148  141.3689  161.3117 H   0  0  0  0  0  0  0  0  0  0  0  0
  149.8393  143.3171  157.8777 H   0  0  0  0  0  0  0  0  0  0  0  0
  151.6120  142.9109  156.1459 H   0  0  0  0  0  0  0  0  0  0  0  0
  151.4513  141.1785  156.3677 H   0  0  0  0  0  0  0  0  0  0  0  0
  149.3781  143.0318  155.4295 H   0  0  0  0  0  0  0  0  0  0  0  0
  147.9398  141.1936  155.1148 H   0  0  0  0  0  0  0  0  0  0  0  0
  149.1800  140.1197  155.7369 H   0  0  0  0  0  0  0  0  0  0  0  0
  147.7971  142.3744  157.3285 H   0  0  0  0  0  0  0  0  0  0  0  0
  147.5333  140.6532  157.5387 H   0  0  0  0  0  0  0  0  0  0  0  0
  149.8490  140.4184  158.0556 H   0  0  0  0  0  0  0  0  0  0  0  0
  150.1606  141.8984  154.5281 H   0  0  0  0  0  0  0  0  0  0  0  0
  1  2  1  0  0  0  0
  1 13  1  0  0  0  0
  1 14  1  0  0  0  0
  1 15  1  0  0  0  0
  2  6  1  0  0  0  0
  2  3  1  0  0  0  0
  3  4  2  0  0  0  0
  3 16  1  0  0  0  0
  4  5  1  0  0  0  0
  4 17  1  0  0  0  0
  5  6  2  0  0  0  0
  6  7  1  0  0  0  0
  7 12  1  0  0  0  0
  7  8  1  0  0  0  0
  7 18  1  0  0  0  0
  8  9  1  0  0  0  0
  8 19  1  0  0  0  0
  8 20  1  0  0  0  0
  9 10  1  0  0  0  0
  9 21  1  0  0  0  0
  9 27  1  0  0  0  0
 10 11  1  0  0  0  0
 10 22  1  0  0  0  0
 10 23  1  0  0  0  0
 11 12  1  0  0  0  0
 11 24  1  0  0  0  0
 11 25  1  0  0  0  0
 12 26  1  0  0  0  0
M  CHG  1   9   1
M  END
> <s_m_source_file>
AV-unprocessed.smi

> <i_m_source_file_index>
2786

> <i_lp_mmshare_version>
43012

> <i_f3d_flags>
0

> <s_epik_input>
W0NIM11uMVtjSF1bY0hdbmMxW0NAQEhdMltDSDJdW05IXVtDSDJdW0NIMl1bTkhdMg==

> <s_epik_cmdline>
J2VwaWtfcHl0aG9uJywgJy1waCcsICc3LjAnLCAnLXRuJywgJzgnLCAnLW1hJywgJzIwMCcsICctbWV0YWxfYmluZGluZycsICctaW1hZScsICc8aW5maWxlLm1hZT4nLCAnLW9tYWUnLCAnPG91dGZpbGUubWFlPic=

> <r_lp_tautomer_probability>
1

> <r_epik_Ionization_Penalty>
0.130484

> <r_epik_Ionization_Penalty_Charging>
0.130409

> <r_epik_Ionization_Penalty_Neutral>
7.57914e-05

> <r_epik_State_Penalty>
0.270147

> <r_epik_Charging_Adjusted_Penalty>
0.400555

> <i_epik_Tot_Q>
1

> <i_epik_Tot_abs_Q>
1

> <r_epik_Metal_State_Penalty>
0.136376

> <b_epik_Metal_Only>
0

> <s_lp_Force_Field>
OPLS_2005

> <r_lp_Energy>
9.37099

> <b_lp_Chiralities_Consistent>
1

> <s_lp_Variant>
AV-unprocessed.smi:2786-2

> <Gold.Version>
5.8.1

> <Gold.Id.Protein>
6NUR|6NUR_protein|mol2

> <Gold.PLP.Fitness>
33.7468

> <Gold.PLP.PLP>
-28.0367

> <Gold.PLP.part.hbond>
-1.4570

> <Gold.PLP.part.metal>
0.0000

> <Gold.PLP.part.buried>
-3.8585

> <Gold.PLP.part.nonpolar>
-22.8648

> <Gold.PLP.part.repulsive>
0.1845

> <Gold.PLP.ligand.clash>
0.0000

> <Gold.PLP.ligand.torsion>
0.1488

> <Gold.PLP.Chemscore.Hbond>
2.0000

> <Gold.PLP.Chemscore.CHOScore>
0.0000

> <Gold.PLP.Chemscore.Metal>
0.0000

> <Gold.Chemscore.Hbonds>
donor molecule, donor type, donor heavy atom, donor atom, acceptor molecule, acceptor atom, score
      L1  H     9    21       P1  8028  2.00

> <Gold.PLP.Chemscore.Internal.Correction>
0.0076

> <Gold.Rescore>
     Score         DG    S(hbond)    S(metal)    S(lipo)     H(rot)  DE(clash)    DE(int)     intcor
     13.17     -13.33       1.00        0.00      60.56       1.00       0.01       0.15       ----

> <Gold.Chemscore.Fitness>
13.1735

> <Gold.Chemscore.DG>
-13.3342

> <Gold.Chemscore.ZeroCoef>
-5.4800

> <Gold.Chemscore.Hbond>
0.9966

> <Gold.Chemscore.Metal>
0.0000

> <Gold.Chemscore.Lipo>
60.5612

> <Gold.Chemscore.Internal_Hbond>
0.0000

> <Gold.Chemscore.DEClash>
0.0150

> <Gold.Chemscore.DEInternal>
0.1457

> <Gold.Chemscore.Rot>
1.0000

> <Gold.Chemscore.Internal.Correction>
   9.000000E+99

> <Gold.Chemscore.Hbonds>
donor molecule, donor type, donor heavy atom, donor atom, acceptor molecule, acceptor atom, score
      L1  H     9    21       P1  8028  1.00

> <Gold.Chemscore.Hbond.Weighted>
-3.3286

> <Gold.Chemscore.Metal.Weighted>
-0.0000

> <Gold.Chemscore.Lipo.Weighted>
-7.0857

> <Gold.Chemscore.Internal_Hbond.Weighted>
0.0000

> <Gold.Chemscore.DEClash.Weighted>
0.0150

> <Gold.Chemscore.DEInternal.Weighted>
0.1457

> <Gold.Chemscore.Rot.Weighted>
2.5600

> <Gold.Chemscore.Internal.Correction.Weighted>
   9.000000E+99

> <Gold.Protein.RotatedTorsions>
[ 6907 6896 6895 6894 ] final  -40.15 input  -60.11 | X-H torsion
[ 7974 7965 7964 7962 ] final   41.26 input  175.53 | X-H torsion
[ 8008 7997 7996 7995 ] final   -9.40 input   59.86 | X-H torsion
[ 10167 10162 10161 10158 ] final  -24.09 input  -65.29 | X-H torsion
[ 10718 10713 10712 10709 ] final -178.37 input   66.30 | X-H torsion
[ 10763 10752 10751 10750 ] final  -55.61 input  -60.55 | X-H torsion
[ 11005 11000 10999 10996 ] final   41.80 input  -57.11 | X-H torsion

> <Gold.Protein.ActiveResidues>
 VAL166  LYS551  ARG553  GLY616  TRP617  ASP618  TYR619  PRO620  LYS621  CYS622 
 ASP623  PHE694  ASN695  SER759  ASP760  ASP761  ALA762  ILE779  LEU786  VAL792 
 PHE793  MET794  SER795  GLU796  ALA797  LYS798  CYS799  TRP800  GLU811  SER814 

> <Gold.Protein.RotatedAtoms>
  150.9818  134.9172  159.7848 H   0  0  0  0  0  0  0  0  0  0  0  0  # atno 6907 bound_to 6896
  152.5224  134.3400  159.9223 H   0  0  0  0  0  0  0  0  0  0  0  0  # atno 6908 bound_to 6896
  151.3407  133.3922  159.2705 H   0  0  0  0  0  0  0  0  0  0  0  0  # atno 6909 bound_to 6896
  146.0838  139.5437  142.9520 H   0  0  0  0  0  0  0  0  0  0  0  0  # atno 7974 bound_to 7965
  154.5651  140.2356  155.8276 H   0  0  0  0  0  0  0  0  0  0  0  0  # atno 8008 bound_to 7997
  156.2061  140.3039  155.9589 H   0  0  0  0  0  0  0  0  0  0  0  0  # atno 8009 bound_to 7997
  155.2817  140.0423  157.3006 H   0  0  0  0  0  0  0  0  0  0  0  0  # atno 8010 bound_to 7997
  140.7288  143.4384  151.0694 H   0  0  0  0  0  0  0  0  0  0  0  0  # atno 10167 bound_to 10162
  156.8433  130.9694  151.3098 H   0  0  0  0  0  0  0  0  0  0  0  0  # atno 10718 bound_to 10713
  154.1935  135.6423  153.5066 H   0  0  0  0  0  0  0  0  0  0  0  0  # atno 10763 bound_to 10752
  153.0029  135.5434  154.6390 H   0  0  0  0  0  0  0  0  0  0  0  0  # atno 10764 bound_to 10752
  154.5785  135.2923  155.0729 H   0  0  0  0  0  0  0  0  0  0  0  0  # atno 10765 bound_to 10752
  140.1799  134.4116  155.8206 H   0  0  0  0  0  0  0  0  0  0  0  0  # atno 11005 bound_to 11000
  145.6168  141.0330  143.1936 LP  0  0  0  0  0  0  0  0  0  0  0  0  # atno 17320 bound_to 7965
  144.7311  139.7722  143.7346 LP  0  0  0  0  0  0  0  0  0  0  0  0  # atno 17321 bound_to 7965
  139.8049  143.8032  152.3166 LP  0  0  0  0  0  0  0  0  0  0  0  0  # atno 17342 bound_to 10162
  139.8061  144.7354  150.9759 LP  0  0  0  0  0  0  0  0  0  0  0  0  # atno 17343 bound_to 10162
  157.6343  130.8754  149.9331 LP  0  0  0  0  0  0  0  0  0  0  0  0  # atno 17370 bound_to 10713
  156.0868  130.3667  150.0472 LP  0  0  0  0  0  0  0  0  0  0  0  0  # atno 17371 bound_to 10713
  141.2222  133.6995  156.7913 LP  0  0  0  0  0  0  0  0  0  0  0  0  # atno 17394 bound_to 11000
  140.2279  134.8708  157.3446 LP  0  0  0  0  0  0  0  0  0  0  0  0  # atno 17395 bound_to 11000

$$$$
