AV-unprocessed.smi:2962|AV-procd|sdf|11316|dock5
  -GOLD-   2272016223D 1   1.00000     0.00000
 Structure written by MMmdl.
 36 37  0  0  0  0  0  0  0  0  1 V2000
  147.9963  141.0532  153.6618 C   0  0  0  0  0  0  0  0  0  0  0  0
  149.2748  141.5185  154.0553 O   0  0  0  0  0  0  0  0  0  0  0  0
  149.5649  141.2305  155.4133 C   0  0  0  0  0  0  0  0  0  0  0  0
  150.6801  142.1584  155.9137 C   0  0  0  0  0  0  0  0  0  0  0  0
  151.5531  141.4944  156.8715 N   0  0  0  0  0  0  0  0  0  0  0  0
  152.1587  140.2851  156.7652 C   0  0  0  0  0  0  0  0  0  0  0  0
  151.9779  139.2576  155.3454 S   0  0  0  0  0  0  0  0  0  0  0  0
  151.2690  137.7934  156.1592 C   0  0  1  0  0  0  0  0  0  0  0  0
  150.1913  138.1876  157.1857 C   0  0  0  0  0  0  0  0  0  0  0  0
  150.7482  136.7914  155.1217 C   0  0  0  0  0  0  0  0  0  0  0  0
  149.7921  137.2236  154.2948 N   0  0  0  0  0  0  0  0  0  0  0  0
  151.1932  135.6463  155.0600 O   0  0  0  0  0  0  0  0  0  0  0  0
  152.8958  139.9135  157.8115 N   0  0  0  0  0  0  0  0  0  0  0  0
  152.7617  140.9827  158.6748 C   0  0  0  0  0  0  0  0  0  0  0  0
  153.3073  141.1998  159.9603 C   0  0  0  0  0  0  0  0  0  0  0  0
  153.0224  142.3877  160.6650 C   0  0  0  0  0  0  0  0  0  0  0  0
  152.1892  143.3729  160.0963 C   0  0  0  0  0  0  0  0  0  0  0  0
  151.6358  143.1765  158.8164 C   0  0  0  0  0  0  0  0  0  0  0  0
  151.9254  141.9899  158.1165 C   0  0  0  0  0  0  0  0  0  0  0  0
  147.8263  141.2941  152.6124 H   0  0  0  0  0  0  0  0  0  0  0  0
  147.2073  141.5258  154.2482 H   0  0  0  0  0  0  0  0  0  0  0  0
  147.9177  139.9713  153.7758 H   0  0  0  0  0  0  0  0  0  0  0  0
  148.6709  141.3677  156.0230 H   0  0  0  0  0  0  0  0  0  0  0  0
  149.8730  140.1887  155.5161 H   0  0  0  0  0  0  0  0  0  0  0  0
  151.2659  142.5292  155.0736 H   0  0  0  0  0  0  0  0  0  0  0  0
  150.2470  143.0369  156.3929 H   0  0  0  0  0  0  0  0  0  0  0  0
  152.0723  137.2933  156.7015 H   0  0  0  0  0  0  0  0  0  0  0  0
  149.7182  137.3081  157.6243 H   0  0  0  0  0  0  0  0  0  0  0  0
  149.4088  138.7954  156.7295 H   0  0  0  0  0  0  0  0  0  0  0  0
  150.6199  138.7631  158.0059 H   0  0  0  0  0  0  0  0  0  0  0  0
  149.4207  136.6075  153.5866 H   0  0  0  0  0  0  0  0  0  0  0  0
  149.4514  138.1706  154.3763 H   0  0  0  0  0  0  0  0  0  0  0  0
  153.9454  140.4504  160.4047 H   0  0  0  0  0  0  0  0  0  0  0  0
  153.4439  142.5433  161.6474 H   0  0  0  0  0  0  0  0  0  0  0  0
  151.9748  144.2792  160.6435 H   0  0  0  0  0  0  0  0  0  0  0  0
  150.9966  143.9283  158.3781 H   0  0  0  0  0  0  0  0  0  0  0  0
  1  2  1  0  0  0  0
  1 20  1  0  0  0  0
  1 21  1  0  0  0  0
  1 22  1  0  0  0  0
  2  3  1  0  0  0  0
  3  4  1  0  0  0  0
  3 23  1  0  0  0  0
  3 24  1  0  0  0  0
  4  5  1  0  0  0  0
  4 25  1  0  0  0  0
  4 26  1  0  0  0  0
  5 19  1  0  0  0  0
  5  6  1  0  0  0  0
  6  7  1  0  0  0  0
  6 13  2  0  0  0  0
  7  8  1  0  0  0  0
  8  9  1  0  0  0  0
  8 10  1  0  0  0  0
  8 27  1  0  0  0  0
  9 28  1  0  0  0  0
  9 29  1  0  0  0  0
  9 30  1  0  0  0  0
 10 11  1  0  0  0  0
 10 12  2  0  0  0  0
 11 31  1  0  0  0  0
 11 32  1  0  0  0  0
 13 14  1  0  0  0  0
 14 19  2  0  0  0  0
 14 15  1  0  0  0  0
 15 16  2  0  0  0  0
 15 33  1  0  0  0  0
 16 17  1  0  0  0  0
 16 34  1  0  0  0  0
 17 18  2  0  0  0  0
 17 35  1  0  0  0  0
 18 19  1  0  0  0  0
 18 36  1  0  0  0  0
M  END
> <s_m_source_file>
AV-unprocessed.smi

> <i_m_source_file_index>
2962

> <i_lp_mmshare_version>
43012

> <i_f3d_flags>
0

> <s_epik_input>
W2NIXTFbY0hdW2NIXVtjSF1jKGMxMiluKFtDSDJdW0NIMl1PW0NIM10pYyhuMilTW0NASF0oW0NIM10pQyg9TylbTkgyXQ==

> <s_epik_cmdline>
J2VwaWtfcHl0aG9uJywgJy1waCcsICc3LjAnLCAnLXRuJywgJzgnLCAnLW1hJywgJzIwMCcsICctbWV0YWxfYmluZGluZycsICctaW1hZScsICc8aW5maWxlLm1hZT4nLCAnLW9tYWUnLCAnPG91dGZpbGUubWFlPic=

> <r_epik_Ionization_Penalty>
0.0199986

> <r_epik_Ionization_Penalty_Charging>
0

> <r_epik_Ionization_Penalty_Neutral>
0.0199986

> <r_epik_State_Penalty>
0.0160044

> <r_epik_Charging_Adjusted_Penalty>
0.0160044

> <i_epik_Tot_Q>
0

> <i_epik_Tot_abs_Q>
0

> <r_epik_Metal_State_Penalty>
0.015472

> <b_epik_Metal_Only>
0

> <s_lp_Force_Field>
OPLS_2005

> <r_lp_Energy>
4.7896

> <b_lp_Chiralities_Consistent>
1

> <s_lp_Variant>
AV-unprocessed.smi:2962-2

> <Gold.Version>
5.8.1

> <Gold.Id.Protein>
6NUR|6NUR_protein|mol2

> <Gold.PLP.Fitness>
46.5788

> <Gold.PLP.PLP>
-36.7350

> <Gold.PLP.part.hbond>
-4.8246

> <Gold.PLP.part.metal>
0.0000

> <Gold.PLP.part.buried>
-3.4692

> <Gold.PLP.part.nonpolar>
-27.6643

> <Gold.PLP.part.repulsive>
0.3381

> <Gold.PLP.ligand.clash>
0.0000

> <Gold.PLP.ligand.torsion>
0.5543

> <Gold.PLP.Chemscore.Hbond>
3.6264

> <Gold.PLP.Chemscore.CHOScore>
0.0000

> <Gold.PLP.Chemscore.Metal>
0.0000

> <Gold.Chemscore.Hbonds>
donor molecule, donor type, donor heavy atom, donor atom, acceptor molecule, acceptor atom, score
      L1  H    11    31       P1  7948  1.00
      P1  H  7997  8008       L1    13  1.00
      P1  H  8011  8017       L1     2  0.59
      P1  H 10752 10763       L1    12  1.00

> <Gold.PLP.Chemscore.Internal.Correction>
0.0732

> <Gold.Rescore>
     Score         DG    S(hbond)    S(metal)    S(lipo)     H(rot)  DE(clash)    DE(int)     intcor
     16.90     -18.64       2.40        0.00      98.61       2.50       1.32       0.42       ----

> <Gold.Chemscore.Fitness>
16.8994

> <Gold.Chemscore.DG>
-18.6406

> <Gold.Chemscore.ZeroCoef>
-5.4800

> <Gold.Chemscore.Hbond>
2.4044

> <Gold.Chemscore.Metal>
0.0000

> <Gold.Chemscore.Lipo>
98.6070

> <Gold.Chemscore.Internal_Hbond>
0.0000

> <Gold.Chemscore.DEClash>
1.3237

> <Gold.Chemscore.DEInternal>
0.4175

> <Gold.Chemscore.Rot>
2.5027

> <Gold.Chemscore.Internal.Correction>
   9.000000E+99

> <Gold.Chemscore.Hbonds>
donor molecule, donor type, donor heavy atom, donor atom, acceptor molecule, acceptor atom, score
      L1  H    11    31       P1  7948  0.81
      P1  H  7997  8008       L1    13  0.15
      P1  H  8011  8017       L1     2  0.11
      P1  H 10752 10763       L1    12  0.90

> <Gold.Chemscore.Hbond.Weighted>
-8.0306

> <Gold.Chemscore.Metal.Weighted>
-0.0000

> <Gold.Chemscore.Lipo.Weighted>
-11.5370

> <Gold.Chemscore.Internal_Hbond.Weighted>
0.0000

> <Gold.Chemscore.DEClash.Weighted>
1.3237

> <Gold.Chemscore.DEInternal.Weighted>
0.4175

> <Gold.Chemscore.Rot.Weighted>
6.4070

> <Gold.Chemscore.Internal.Correction.Weighted>
   9.000000E+99

> <Gold.Protein.RotatedTorsions>
[ 6907 6896 6895 6894 ] final   -7.76 input  -60.11 | X-H torsion
[ 7974 7965 7964 7962 ] final -115.80 input  175.53 | X-H torsion
[ 8008 7997 7996 7995 ] final  -88.56 input   59.86 | X-H torsion
[ 10167 10162 10161 10158 ] final  103.73 input  -65.29 | X-H torsion
[ 10718 10713 10712 10709 ] final   71.40 input   66.30 | X-H torsion
[ 10763 10752 10751 10750 ] final   70.48 input  -60.55 | X-H torsion
[ 11005 11000 10999 10996 ] final  141.70 input  -57.11 | X-H torsion

> <Gold.Protein.ActiveResidues>
 VAL166  LYS551  ARG553  GLY616  TRP617  ASP618  TYR619  PRO620  LYS621  CYS622 
 ASP623  PHE694  ASN695  SER759  ASP760  ASP761  ALA762  ILE779  LEU786  VAL792 
 PHE793  MET794  SER795  GLU796  ALA797  LYS798  CYS799  TRP800  GLU811  SER814 

> <Gold.Protein.RotatedAtoms>
  151.4445  135.1023  159.9679 H   0  0  0  0  0  0  0  0  0  0  0  0  # atno 6907 bound_to 6896
  152.4911  133.8498  159.7206 H   0  0  0  0  0  0  0  0  0  0  0  0  # atno 6908 bound_to 6896
  150.9065  133.6992  159.2893 H   0  0  0  0  0  0  0  0  0  0  0  0  # atno 6909 bound_to 6896
  145.1041  140.8571  143.3908 H   0  0  0  0  0  0  0  0  0  0  0  0  # atno 7974 bound_to 7965
  154.6762  140.0552  157.0218 H   0  0  0  0  0  0  0  0  0  0  0  0  # atno 8008 bound_to 7997
  155.1017  140.3229  155.4526 H   0  0  0  0  0  0  0  0  0  0  0  0  # atno 8009 bound_to 7997
  156.2677  140.2030  156.6143 H   0  0  0  0  0  0  0  0  0  0  0  0  # atno 8010 bound_to 7997
  139.7238  144.7052  151.0830 H   0  0  0  0  0  0  0  0  0  0  0  0  # atno 10167 bound_to 10162
  157.6449  130.9526  150.0784 H   0  0  0  0  0  0  0  0  0  0  0  0  # atno 10718 bound_to 10713
  153.0344  135.5172  154.7448 H   0  0  0  0  0  0  0  0  0  0  0  0  # atno 10763 bound_to 10752
  154.6436  135.2915  155.0075 H   0  0  0  0  0  0  0  0  0  0  0  0  # atno 10764 bound_to 10752
  154.0984  135.6640  153.4916 H   0  0  0  0  0  0  0  0  0  0  0  0  # atno 10765 bound_to 10752
  140.0421  134.9299  157.0862 H   0  0  0  0  0  0  0  0  0  0  0  0  # atno 11005 bound_to 11000
  145.0921  139.2882  143.5729 LP  0  0  0  0  0  0  0  0  0  0  0  0  # atno 17320 bound_to 7965
  146.3529  140.0462  142.8639 LP  0  0  0  0  0  0  0  0  0  0  0  0  # atno 17321 bound_to 7965
  140.7759  143.5131  150.9628 LP  0  0  0  0  0  0  0  0  0  0  0  0  # atno 17342 bound_to 10162
  139.8819  143.7062  152.3156 LP  0  0  0  0  0  0  0  0  0  0  0  0  # atno 17343 bound_to 10162
  156.1767  130.3648  149.9090 LP  0  0  0  0  0  0  0  0  0  0  0  0  # atno 17370 bound_to 10713
  156.7053  130.8949  151.3604 LP  0  0  0  0  0  0  0  0  0  0  0  0  # atno 17371 bound_to 10713
  140.4052  134.2039  155.7163 LP  0  0  0  0  0  0  0  0  0  0  0  0  # atno 17394 bound_to 11000
  141.1888  133.8252  157.0980 LP  0  0  0  0  0  0  0  0  0  0  0  0  # atno 17395 bound_to 11000

$$$$
