AV-unprocessed.smi:3085|AV-procd|sdf|11751|dock3
  -GOLD-   2272017143D 1   1.00000     0.00000
 Structure written by MMmdl.
 28 29  0  0  0  0  0  0  0  0  2 V2000
  144.0595  132.6980  149.1512 C   0  0  0  0  0  0  0  0  0  0  0  0
  143.8142  132.4055  150.6353 C   0  0  0  0  0  0  0  0  0  0  0  0
  144.0217  133.6067  151.4982 C   0  0  0  0  0  0  0  0  0  0  0  0
  144.4622  134.7872  151.0760 N   0  0  0  0  0  0  0  0  0  0  0  0
  144.4896  135.4746  152.2579 C   0  0  0  0  0  0  0  0  0  0  0  0
  144.8798  136.9184  152.3324 C   0  0  1  0  0  0  0  0  0  0  0  0
  144.9638  137.4250  153.7850 C   0  0  0  0  0  0  0  0  0  0  0  0
  145.4437  138.8204  153.8027 N   0  3  0  0  0  0  0  0  0  0  0  0
  146.7251  138.9601  153.0825 C   0  0  0  0  0  0  0  0  0  0  0  0
  146.5957  138.4001  151.6548 C   0  0  0  0  0  0  0  0  0  0  0  0
  146.1552  137.0470  151.7063 O   0  0  0  0  0  0  0  0  0  0  0  0
  144.0775  134.8007  153.3325 N   0  0  0  0  0  0  0  0  0  0  0  0
  143.7947  133.5877  152.8132 N   0  0  0  0  0  0  0  0  0  0  0  0
  143.4574  132.8137  153.3680 H   0  0  0  0  0  0  0  0  0  0  0  0
  143.8994  131.8043  148.5478 H   0  0  0  0  0  0  0  0  0  0  0  0
  145.0817  133.0373  148.9805 H   0  0  0  0  0  0  0  0  0  0  0  0
  143.3840  133.4722  148.7863 H   0  0  0  0  0  0  0  0  0  0  0  0
  142.7954  132.0435  150.7781 H   0  0  0  0  0  0  0  0  0  0  0  0
  144.4771  131.6070  150.9707 H   0  0  0  0  0  0  0  0  0  0  0  0
  144.1468  137.5038  151.7739 H   0  0  0  0  0  0  0  0  0  0  0  0
  143.9888  137.3710  154.2701 H   0  0  0  0  0  0  0  0  0  0  0  0
  145.6487  136.8064  154.3671 H   0  0  0  0  0  0  0  0  0  0  0  0
  144.7541  139.4051  153.3523 H   0  0  0  0  0  0  0  0  0  0  0  0
  147.0143  140.0110  153.0584 H   0  0  0  0  0  0  0  0  0  0  0  0
  147.5028  138.4243  153.6284 H   0  0  0  0  0  0  0  0  0  0  0  0
  145.9002  138.9979  151.0637 H   0  0  0  0  0  0  0  0  0  0  0  0
  147.5593  138.4394  151.1468 H   0  0  0  0  0  0  0  0  0  0  0  0
  145.5599  139.1243  154.7591 H   0  0  0  0  0  0  0  0  0  0  0  0
  1  2  1  0  0  0  0
  1 15  1  0  0  0  0
  1 16  1  0  0  0  0
  1 17  1  0  0  0  0
  2  3  1  0  0  0  0
  2 18  1  0  0  0  0
  2 19  1  0  0  0  0
  3 13  1  0  0  0  0
  3  4  2  0  0  0  0
  4  5  1  0  0  0  0
  5  6  1  0  0  0  0
  5 12  2  0  0  0  0
  6 11  1  0  0  0  0
  6  7  1  0  0  0  0
  6 20  1  0  0  0  0
  7  8  1  0  0  0  0
  7 21  1  0  0  0  0
  7 22  1  0  0  0  0
  8  9  1  0  0  0  0
  8 23  1  0  0  0  0
  8 28  1  0  0  0  0
  9 10  1  0  0  0  0
  9 24  1  0  0  0  0
  9 25  1  0  0  0  0
 10 11  1  0  0  0  0
 10 26  1  0  0  0  0
 10 27  1  0  0  0  0
 12 13  1  0  0  0  0
 13 14  1  0  0  0  0
M  CHG  1   8   1
M  END
> <s_m_source_file>
AV-unprocessed.smi

> <i_m_source_file_index>
3085

> <i_lp_mmshare_version>
43012

> <i_f3d_flags>
0

> <s_epik_input>
W0NIM11bQ0gyXWMxbmMobltuSF0xKVtDQEBIXTJbQ0gyXVtOSF1bQ0gyXVtDSDJdTzI=

> <s_epik_cmdline>
J2VwaWtfcHl0aG9uJywgJy1waCcsICc3LjAnLCAnLXRuJywgJzgnLCAnLW1hJywgJzIwMCcsICctbWV0YWxfYmluZGluZycsICctaW1hZScsICc8aW5maWxlLm1hZT4nLCAnLW9tYWUnLCAnPG91dGZpbGUubWFlPic=

> <r_lp_tautomer_probability>
0.948284

> <r_epik_Ionization_Penalty>
0.107151

> <r_epik_Ionization_Penalty_Charging>
0.100865

> <r_epik_Ionization_Penalty_Neutral>
0.00628602

> <r_epik_State_Penalty>
0.429695

> <r_epik_Charging_Adjusted_Penalty>
0.530559

> <i_epik_Tot_Q>
1

> <i_epik_Tot_abs_Q>
1

> <r_epik_Metal_State_Penalty>
0.651827

> <b_epik_Metal_Only>
0

> <s_lp_Force_Field>
OPLS_2005

> <r_lp_Energy>
10.0575

> <b_lp_Chiralities_Consistent>
1

> <s_lp_Variant>
AV-unprocessed.smi:3085-2

> <Gold.Version>
5.8.1

> <Gold.Id.Protein>
6NUR|6NUR_protein|mol2

> <Gold.PLP.Fitness>
30.4140

> <Gold.PLP.PLP>
-21.6712

> <Gold.PLP.part.hbond>
-2.0000

> <Gold.PLP.part.metal>
0.0000

> <Gold.PLP.part.buried>
-1.6376

> <Gold.PLP.part.nonpolar>
-19.9024

> <Gold.PLP.part.repulsive>
1.5349

> <Gold.PLP.ligand.clash>
0.0000

> <Gold.PLP.ligand.torsion>
0.1362

> <Gold.PLP.Chemscore.Hbond>
3.0000

> <Gold.PLP.Chemscore.CHOScore>
0.0000

> <Gold.PLP.Chemscore.Metal>
0.0000

> <Gold.Chemscore.Hbonds>
donor molecule, donor type, donor heavy atom, donor atom, acceptor molecule, acceptor atom, score
      L1  H     8    23       P1 10175  2.00
      L1  H    13    14       P1 10957  1.00

> <Gold.PLP.Chemscore.Internal.Correction>
0.0151

> <Gold.Rescore>
     Score         DG    S(hbond)    S(metal)    S(lipo)     H(rot)  DE(clash)    DE(int)     intcor
     13.39     -13.72       2.00        0.00      41.84       1.30       0.03       0.30       ----

> <Gold.Chemscore.Fitness>
13.3925

> <Gold.Chemscore.DG>
-13.7205

> <Gold.Chemscore.ZeroCoef>
-5.4800

> <Gold.Chemscore.Hbond>
1.9987

> <Gold.Chemscore.Metal>
0.0000

> <Gold.Chemscore.Lipo>
41.8442

> <Gold.Chemscore.Internal_Hbond>
0.0000

> <Gold.Chemscore.DEClash>
0.0314

> <Gold.Chemscore.DEInternal>
0.2966

> <Gold.Chemscore.Rot>
1.3011

> <Gold.Chemscore.Internal.Correction>
   9.000000E+99

> <Gold.Chemscore.Hbonds>
donor molecule, donor type, donor heavy atom, donor atom, acceptor molecule, acceptor atom, score
      L1  H     8    23       P1 10175  1.00
      L1  H    13    14       P1 10957  0.60

> <Gold.Chemscore.Hbond.Weighted>
-6.6755

> <Gold.Chemscore.Metal.Weighted>
-0.0000

> <Gold.Chemscore.Lipo.Weighted>
-4.8958

> <Gold.Chemscore.Internal_Hbond.Weighted>
0.0000

> <Gold.Chemscore.DEClash.Weighted>
0.0314

> <Gold.Chemscore.DEInternal.Weighted>
0.2966

> <Gold.Chemscore.Rot.Weighted>
3.3308

> <Gold.Chemscore.Internal.Correction.Weighted>
   9.000000E+99

> <Gold.Protein.RotatedTorsions>
[ 6907 6896 6895 6894 ] final  -11.14 input  -60.11 | X-H torsion
[ 7974 7965 7964 7962 ] final  147.55 input  175.53 | X-H torsion
[ 8008 7997 7996 7995 ] final  132.82 input   59.86 | X-H torsion
[ 10167 10162 10161 10158 ] final  134.96 input  -65.29 | X-H torsion
[ 10718 10713 10712 10709 ] final   13.31 input   66.30 | X-H torsion
[ 10763 10752 10751 10750 ] final  154.16 input  -60.55 | X-H torsion
[ 11005 11000 10999 10996 ] final -141.41 input  -57.11 | X-H torsion

> <Gold.Protein.ActiveResidues>
 VAL166  LYS551  ARG553  GLY616  TRP617  ASP618  TYR619  PRO620  LYS621  CYS622 
 ASP623  PHE694  ASN695  SER759  ASP760  ASP761  ALA762  ILE779  LEU786  VAL792 
 PHE793  MET794  SER795  GLU796  ALA797  LYS798  CYS799  TRP800  GLU811  SER814 

> <Gold.Protein.RotatedAtoms>
  151.3908  135.0955  159.9525 H   0  0  0  0  0  0  0  0  0  0  0  0  # atno 6907 bound_to 6896
  152.5080  133.8981  159.7438 H   0  0  0  0  0  0  0  0  0  0  0  0  # atno 6908 bound_to 6896
  150.9434  133.6574  159.2815 H   0  0  0  0  0  0  0  0  0  0  0  0  # atno 6909 bound_to 6896
  144.8583  139.6042  143.5942 H   0  0  0  0  0  0  0  0  0  0  0  0  # atno 7974 bound_to 7965
  156.2986  140.2537  156.3151 H   0  0  0  0  0  0  0  0  0  0  0  0  # atno 8008 bound_to 7997
  154.9288  140.0399  157.2056 H   0  0  0  0  0  0  0  0  0  0  0  0  # atno 8009 bound_to 7997
  154.8238  140.2864  155.5773 H   0  0  0  0  0  0  0  0  0  0  0  0  # atno 8010 bound_to 7997
  139.5235  144.6541  151.5215 H   0  0  0  0  0  0  0  0  0  0  0  0  # atno 10167 bound_to 10162
  157.0227  130.6161  149.5723 H   0  0  0  0  0  0  0  0  0  0  0  0  # atno 10718 bound_to 10713
  154.1479  135.2817  155.3143 H   0  0  0  0  0  0  0  0  0  0  0  0  # atno 10763 bound_to 10752
  154.6239  135.5458  153.7609 H   0  0  0  0  0  0  0  0  0  0  0  0  # atno 10764 bound_to 10752
  153.0230  135.6446  154.1624 H   0  0  0  0  0  0  0  0  0  0  0  0  # atno 10765 bound_to 10752
  140.8327  134.2497  157.4849 H   0  0  0  0  0  0  0  0  0  0  0  0  # atno 11005 bound_to 11000
  146.2840  139.6955  142.9208 LP  0  0  0  0  0  0  0  0  0  0  0  0  # atno 17320 bound_to 7965
  145.4362  141.0419  143.2883 LP  0  0  0  0  0  0  0  0  0  0  0  0  # atno 17321 bound_to 7965
  140.6359  143.8986  150.6646 LP  0  0  0  0  0  0  0  0  0  0  0  0  # atno 17342 bound_to 10162
  140.2305  143.3740  152.1570 LP  0  0  0  0  0  0  0  0  0  0  0  0  # atno 17343 bound_to 10162
  156.0096  130.5187  150.7946 LP  0  0  0  0  0  0  0  0  0  0  0  0  # atno 17370 bound_to 10713
  157.5237  131.0933  151.0045 LP  0  0  0  0  0  0  0  0  0  0  0  0  # atno 17371 bound_to 10713
  139.8704  134.9594  156.4332 LP  0  0  0  0  0  0  0  0  0  0  0  0  # atno 17394 bound_to 11000
  140.8980  133.7800  155.9648 LP  0  0  0  0  0  0  0  0  0  0  0  0  # atno 17395 bound_to 11000

$$$$
