AV-unprocessed.smi:500|AV-procd|sdf|2736|dock10
  -GOLD-   2262023193D 1   1.00000     0.00000
 Structure written by MMmdl.
 46 48  0  0  0  0  0  0  0  0  2 V2000
  150.8121  138.7051  154.6043 C   0  0  0  0  0  0  0  0  0  0  0  0
  152.2606  138.4764  155.0413 C   0  0  0  0  0  0  0  0  0  0  0  0
  152.6178  139.4826  155.9725 O   0  0  0  0  0  0  0  0  0  0  0  0
  152.2884  139.1414  157.3089 C   0  0  0  0  0  0  0  0  0  0  0  0
  150.8506  139.5833  157.6140 C   0  0  0  0  0  0  0  0  0  0  0  0
  150.6890  141.0437  157.5397 N   0  0  0  0  0  0  0  0  0  0  0  0
  149.8114  141.7987  156.8158 C   0  0  0  0  0  0  0  0  0  0  0  0
  148.7352  141.2971  155.8992 C   0  0  2  0  0  0  0  0  0  0  0  0
  149.1953  141.2900  154.4333 C   0  0  0  0  0  0  0  0  0  0  0  0
  147.5263  142.1053  156.0285 N   0  0  0  0  0  0  0  0  0  0  0  0
  146.8490  142.3346  157.1650 C   0  0  0  0  0  0  0  0  0  0  0  0
  147.1648  141.8597  158.2554 O   0  0  0  0  0  0  0  0  0  0  0  0
  145.6627  143.2021  157.0392 C   0  0  0  0  0  0  0  0  0  0  0  0
  145.0344  143.7266  155.9399 C   0  0  0  0  0  0  0  0  0  0  0  0
  143.9423  144.4985  156.4247 C   0  0  0  0  0  0  0  0  0  0  0  0
  143.9835  144.3940  157.7852 C   0  0  0  0  0  0  0  0  0  0  0  0
  145.0257  143.6109  158.1749 O   0  0  0  0  0  0  0  0  0  0  0  0
  150.0666  143.1050  157.1165 N   0  3  0  0  0  0  0  0  0  0  0  0
  151.1332  143.1879  158.0113 C   0  0  0  0  0  0  0  0  0  0  0  0
  151.7570  144.2918  158.5845 C   0  0  0  0  0  0  0  0  0  0  0  0
  152.8307  144.0280  159.4600 C   0  0  0  0  0  0  0  0  0  0  0  0
  153.2445  142.7088  159.7367 C   0  0  0  0  0  0  0  0  0  0  0  0
  152.6015  141.5981  159.1518 C   0  0  0  0  0  0  0  0  0  0  0  0
  151.5405  141.8671  158.2867 C   0  0  0  0  0  0  0  0  0  0  0  0
  150.4962  137.9449  153.8895 H   0  0  0  0  0  0  0  0  0  0  0  0
  150.6958  139.6797  154.1298 H   0  0  0  0  0  0  0  0  0  0  0  0
  150.1350  138.6647  155.4578 H   0  0  0  0  0  0  0  0  0  0  0  0
  152.3611  137.4899  155.4963 H   0  0  0  0  0  0  0  0  0  0  0  0
  152.9223  138.5118  154.1746 H   0  0  0  0  0  0  0  0  0  0  0  0
  152.3846  138.0642  157.4540 H   0  0  0  0  0  0  0  0  0  0  0  0
  152.9789  139.6266  158.0000 H   0  0  0  0  0  0  0  0  0  0  0  0
  150.1621  139.1337  156.9003 H   0  0  0  0  0  0  0  0  0  0  0  0
  150.5343  139.2344  158.5970 H   0  0  0  0  0  0  0  0  0  0  0  0
  148.5244  140.2611  156.1680 H   0  0  0  0  0  0  0  0  0  0  0  0
  150.0887  140.6776  154.3069 H   0  0  0  0  0  0  0  0  0  0  0  0
  149.4244  142.2944  154.0751 H   0  0  0  0  0  0  0  0  0  0  0  0
  148.4217  140.8778  153.7845 H   0  0  0  0  0  0  0  0  0  0  0  0
  147.1781  142.5362  155.1845 H   0  0  0  0  0  0  0  0  0  0  0  0
  145.3228  143.5752  154.9101 H   0  0  0  0  0  0  0  0  0  0  0  0
  143.2192  145.0597  155.8516 H   0  0  0  0  0  0  0  0  0  0  0  0
  143.3802  144.7924  158.5876 H   0  0  0  0  0  0  0  0  0  0  0  0
  151.4428  145.3032  158.3724 H   0  0  0  0  0  0  0  0  0  0  0  0
  153.3485  144.8531  159.9272 H   0  0  0  0  0  0  0  0  0  0  0  0
  154.0730  142.5447  160.4105 H   0  0  0  0  0  0  0  0  0  0  0  0
  152.9319  140.5927  159.3666 H   0  0  0  0  0  0  0  0  0  0  0  0
  149.5516  143.8834  156.7258 H   0  0  0  0  0  0  0  0  0  0  0  0
  1  2  1  0  0  0  0
  1 25  1  0  0  0  0
  1 26  1  0  0  0  0
  1 27  1  0  0  0  0
  2  3  1  0  0  0  0
  2 28  1  0  0  0  0
  2 29  1  0  0  0  0
  3  4  1  0  0  0  0
  4  5  1  0  0  0  0
  4 30  1  0  0  0  0
  4 31  1  0  0  0  0
  5  6  1  0  0  0  0
  5 32  1  0  0  0  0
  5 33  1  0  0  0  0
  6 24  1  0  0  0  0
  6  7  1  0  0  0  0
  7  8  1  0  0  0  0
  7 18  2  0  0  0  0
  8  9  1  0  0  0  0
  8 10  1  0  0  0  0
  8 34  1  0  0  0  0
  9 35  1  0  0  0  0
  9 36  1  0  0  0  0
  9 37  1  0  0  0  0
 10 11  1  0  0  0  0
 10 38  1  0  0  0  0
 11 12  2  0  0  0  0
 11 13  1  0  0  0  0
 13 17  1  0  0  0  0
 13 14  2  0  0  0  0
 14 15  1  0  0  0  0
 14 39  1  0  0  0  0
 15 16  2  0  0  0  0
 15 40  1  0  0  0  0
 16 17  1  0  0  0  0
 16 41  1  0  0  0  0
 18 19  1  0  0  0  0
 18 46  1  0  0  0  0
 19 24  2  0  0  0  0
 19 20  1  0  0  0  0
 20 21  2  0  0  0  0
 20 42  1  0  0  0  0
 21 22  1  0  0  0  0
 21 43  1  0  0  0  0
 22 23  2  0  0  0  0
 22 44  1  0  0  0  0
 23 24  1  0  0  0  0
 23 45  1  0  0  0  0
M  CHG  1  18   1
M  END
> <s_m_source_file>
AV-unprocessed.smi

> <i_m_source_file_index>
500

> <i_lp_mmshare_version>
43012

> <i_f3d_flags>
0

> <s_epik_input>
W0NIM11bQ0gyXU9bQ0gyXVtDSDJdbihjKGMxMilbY0hdW2NIXVtjSF1bY0hdMiljKG4xKVtDQEhdKFtDSDNdKVtOSF1DKD1PKWMzW2NIXVtjSF1bY0hdbzM=

> <s_epik_cmdline>
J2VwaWtfcHl0aG9uJywgJy1waCcsICc3LjAnLCAnLXRuJywgJzgnLCAnLW1hJywgJzIwMCcsICctbWV0YWxfYmluZGluZycsICctaW1hZScsICc8aW5maWxlLm1hZT4nLCAnLW9tYWUnLCAnPG91dGZpbGUubWFlPic=

> <r_epik_Ionization_Penalty>
1.05286

> <r_epik_Ionization_Penalty_Charging>
1.05283

> <r_epik_Ionization_Penalty_Neutral>
2.09263e-05

> <r_epik_State_Penalty>
1.10586

> <r_epik_Charging_Adjusted_Penalty>
2.15869

> <i_epik_Tot_Q>
1

> <i_epik_Tot_abs_Q>
1

> <r_epik_Metal_State_Penalty>
1.22833

> <b_epik_Metal_Only>
0

> <s_lp_Force_Field>
OPLS_2005

> <r_lp_Energy>
11.0053

> <b_lp_Chiralities_Consistent>
1

> <s_lp_Variant>
AV-unprocessed.smi:500-3

> <Gold.Version>
5.8.1

> <Gold.Id.Protein>
6NUR|6NUR_protein|mol2

> <Gold.PLP.Fitness>
51.6219

> <Gold.PLP.PLP>
-44.6573

> <Gold.PLP.part.hbond>
-3.2154

> <Gold.PLP.part.metal>
0.0000

> <Gold.PLP.part.buried>
-5.1441

> <Gold.PLP.part.nonpolar>
-36.5481

> <Gold.PLP.part.repulsive>
0.1580

> <Gold.PLP.ligand.clash>
0.0000

> <Gold.PLP.ligand.torsion>
1.0548

> <Gold.PLP.Chemscore.Hbond>
3.0000

> <Gold.PLP.Chemscore.CHOScore>
0.0000

> <Gold.PLP.Chemscore.Metal>
0.0000

> <Gold.Chemscore.Hbonds>
donor molecule, donor type, donor heavy atom, donor atom, acceptor molecule, acceptor atom, score
      L1  H    18    46       P1  8028  1.85
      P1  H  7997  8009       L1     3  1.00

> <Gold.PLP.Chemscore.Internal.Correction>
0.0742

> <Gold.Rescore>
     Score         DG    S(hbond)    S(metal)    S(lipo)     H(rot)  DE(clash)    DE(int)     intcor
     18.28     -19.09       1.77        0.00     108.97       1.97       0.04       0.76       ----

> <Gold.Chemscore.Fitness>
18.2840

> <Gold.Chemscore.DG>
-19.0862

> <Gold.Chemscore.ZeroCoef>
-5.4800

> <Gold.Chemscore.Hbond>
1.7699

> <Gold.Chemscore.Metal>
0.0000

> <Gold.Chemscore.Lipo>
108.9719

> <Gold.Chemscore.Internal_Hbond>
0.0000

> <Gold.Chemscore.DEClash>
0.0402

> <Gold.Chemscore.DEInternal>
0.7620

> <Gold.Chemscore.Rot>
1.9746

> <Gold.Chemscore.Internal.Correction>
   9.000000E+99

> <Gold.Chemscore.Hbonds>
donor molecule, donor type, donor heavy atom, donor atom, acceptor molecule, acceptor atom, score
      L1  H    18    46       P1  8028  0.84
      P1  H  7997  8009       L1     3  0.62

> <Gold.Chemscore.Hbond.Weighted>
-5.9114

> <Gold.Chemscore.Metal.Weighted>
-0.0000

> <Gold.Chemscore.Lipo.Weighted>
-12.7497

> <Gold.Chemscore.Internal_Hbond.Weighted>
0.0000

> <Gold.Chemscore.DEClash.Weighted>
0.0402

> <Gold.Chemscore.DEInternal.Weighted>
0.7620

> <Gold.Chemscore.Rot.Weighted>
5.0550

> <Gold.Chemscore.Internal.Correction.Weighted>
   9.000000E+99

> <Gold.Protein.RotatedTorsions>
[ 6907 6896 6895 6894 ] final -100.96 input  -60.11 | X-H torsion
[ 7974 7965 7964 7962 ] final   40.83 input  175.53 | X-H torsion
[ 8008 7997 7996 7995 ] final -139.47 input   59.86 | X-H torsion
[ 10167 10162 10161 10158 ] final  135.78 input  -65.29 | X-H torsion
[ 10718 10713 10712 10709 ] final   61.91 input   66.30 | X-H torsion
[ 10763 10752 10751 10750 ] final  -62.03 input  -60.55 | X-H torsion
[ 11005 11000 10999 10996 ] final   92.69 input  -57.11 | X-H torsion

> <Gold.Protein.ActiveResidues>
 VAL166  LYS551  ARG553  GLY616  TRP617  ASP618  TYR619  PRO620  LYS621  CYS622 
 ASP623  PHE694  ASN695  SER759  ASP760  ASP761  ALA762  ILE779  LEU786  VAL792 
 PHE793  MET794  SER795  GLU796  ALA797  LYS798  CYS799  TRP800  GLU811  SER814 

> <Gold.Protein.RotatedAtoms>
  150.7136  134.0806  159.3896 H   0  0  0  0  0  0  0  0  0  0  0  0  # atno 6907 bound_to 6896
  151.8790  135.0458  160.0496 H   0  0  0  0  0  0  0  0  0  0  0  0  # atno 6908 bound_to 6896
  152.2583  133.5239  159.5403 H   0  0  0  0  0  0  0  0  0  0  0  0  # atno 6909 bound_to 6896
  146.0873  139.5487  142.9498 H   0  0  0  0  0  0  0  0  0  0  0  0  # atno 7974 bound_to 7965
  155.4454  140.0535  157.3006 H   0  0  0  0  0  0  0  0  0  0  0  0  # atno 8008 bound_to 7997
  154.4800  140.2077  155.9743 H   0  0  0  0  0  0  0  0  0  0  0  0  # atno 8009 bound_to 7997
  156.1191  140.3191  155.8186 H   0  0  0  0  0  0  0  0  0  0  0  0  # atno 8010 bound_to 7997
  139.5204  144.6499  151.5333 H   0  0  0  0  0  0  0  0  0  0  0  0  # atno 10167 bound_to 10162
  157.5863  130.9021  149.9521 H   0  0  0  0  0  0  0  0  0  0  0  0  # atno 10718 bound_to 10713
  154.2936  135.6248  153.5395 H   0  0  0  0  0  0  0  0  0  0  0  0  # atno 10763 bound_to 10752
  152.9849  135.5661  154.5362 H   0  0  0  0  0  0  0  0  0  0  0  0  # atno 10764 bound_to 10752
  154.4978  135.2870  155.1421 H   0  0  0  0  0  0  0  0  0  0  0  0  # atno 10765 bound_to 10752
  139.8820  134.8747  156.3609 H   0  0  0  0  0  0  0  0  0  0  0  0  # atno 11005 bound_to 11000
  145.6106  141.0340  143.1969 LP  0  0  0  0  0  0  0  0  0  0  0  0  # atno 17320 bound_to 7965
  144.7335  139.7655  143.7338 LP  0  0  0  0  0  0  0  0  0  0  0  0  # atno 17321 bound_to 7965
  140.6299  143.9096  150.6596 LP  0  0  0  0  0  0  0  0  0  0  0  0  # atno 17342 bound_to 10162
  140.2397  143.3673  152.1497 LP  0  0  0  0  0  0  0  0  0  0  0  0  # atno 17343 bound_to 10162
  156.0912  130.3663  150.0391 LP  0  0  0  0  0  0  0  0  0  0  0  0  # atno 17370 bound_to 10713
  156.8522  130.9463  151.3624 LP  0  0  0  0  0  0  0  0  0  0  0  0  # atno 17371 bound_to 10713
  140.9530  133.7439  156.0297 LP  0  0  0  0  0  0  0  0  0  0  0  0  # atno 17394 bound_to 11000
  140.8083  134.3429  157.5419 LP  0  0  0  0  0  0  0  0  0  0  0  0  # atno 17395 bound_to 11000

$$$$
