AV-unprocessed.smi:916|AV-procd|sdf|4158|dock7
  -GOLD-   22720 2 63D 1   1.00000     0.00000
 Structure written by MMmdl.
 43 44  0  0  0  0  0  0  0  0  1 V2000
  141.4677  136.5185  153.9634 C   0  0  0  0  0  0  0  0  0  0  0  0
  142.0938  135.1361  153.7493 C   0  0  0  0  0  0  0  0  0  0  0  0
  143.3903  135.2063  153.0008 C   0  0  0  0  0  0  0  0  0  0  0  0
  143.6491  134.6947  151.7526 C   0  0  0  0  0  0  0  0  0  0  0  0
  145.2886  135.0027  151.2461 S   0  0  0  0  0  0  0  0  0  0  0  0
  145.5661  135.8201  152.7757 C   0  0  0  0  0  0  0  0  0  0  0  0
  146.8177  136.4076  153.0966 N   0  0  0  0  0  0  0  0  0  0  0  0
  147.2006  136.9642  154.2588 C   0  0  0  0  0  0  0  0  0  0  0  0
  146.5269  136.9945  155.2892 O   0  0  0  0  0  0  0  0  0  0  0  0
  148.4334  137.4830  154.1634 N   0  0  0  0  0  0  0  0  0  0  0  0
  149.1553  138.1580  155.2377 C   0  0  0  0  0  0  0  0  0  0  0  0
  150.4646  138.7934  154.7320 C   0  0  2  0  0  0  0  0  0  0  0  0
  151.5800  137.8044  154.4501 C   0  0  0  0  0  0  0  0  0  0  0  0
  152.8105  138.7054  154.4503 C   0  0  0  0  0  0  0  0  0  0  0  0
  152.5230  139.7572  155.3668 O   0  0  0  0  0  0  0  0  0  0  0  0
  151.1516  139.7110  155.7546 C   0  0  1  0  0  0  0  0  0  0  0  0
  150.5638  141.1337  155.9043 C   0  0  0  0  0  0  0  0  0  0  0  0
  151.2634  141.9770  156.9856 C   0  0  0  0  0  0  0  0  0  0  0  0
  149.0499  141.0751  156.1608 C   0  0  0  0  0  0  0  0  0  0  0  0
  144.4941  135.8442  153.5758 N   0  0  0  0  0  0  0  0  0  0  0  0
  140.5288  136.4385  154.5114 H   0  0  0  0  0  0  0  0  0  0  0  0
  141.2567  137.0075  153.0118 H   0  0  0  0  0  0  0  0  0  0  0  0
  142.1328  137.1672  154.5342 H   0  0  0  0  0  0  0  0  0  0  0  0
  142.2473  134.6589  154.7179 H   0  0  0  0  0  0  0  0  0  0  0  0
  141.3880  134.5012  153.2128 H   0  0  0  0  0  0  0  0  0  0  0  0
  142.9748  134.1590  151.1013 H   0  0  0  0  0  0  0  0  0  0  0  0
  147.4941  136.4211  152.3476 H   0  0  0  0  0  0  0  0  0  0  0  0
  148.9110  137.4078  153.2771 H   0  0  0  0  0  0  0  0  0  0  0  0
  148.4998  138.9338  155.6330 H   0  0  0  0  0  0  0  0  0  0  0  0
  149.3531  137.4775  156.0678 H   0  0  0  0  0  0  0  0  0  0  0  0
  150.2654  139.3423  153.8121 H   0  0  0  0  0  0  0  0  0  0  0  0
  151.6528  137.0722  155.2557 H   0  0  0  0  0  0  0  0  0  0  0  0
  151.4520  137.2653  153.5109 H   0  0  0  0  0  0  0  0  0  0  0  0
  153.7184  138.1697  154.7288 H   0  0  0  0  0  0  0  0  0  0  0  0
  152.9627  139.1411  153.4623 H   0  0  0  0  0  0  0  0  0  0  0  0
  151.1223  139.2121  156.7250 H   0  0  0  0  0  0  0  0  0  0  0  0
  150.6991  141.6482  154.9527 H   0  0  0  0  0  0  0  0  0  0  0  0
  151.2032  141.5000  157.9642 H   0  0  0  0  0  0  0  0  0  0  0  0
  150.8009  142.9606  157.0709 H   0  0  0  0  0  0  0  0  0  0  0  0
  152.3153  142.1425  156.7577 H   0  0  0  0  0  0  0  0  0  0  0  0
  148.8263  140.5799  157.1063 H   0  0  0  0  0  0  0  0  0  0  0  0
  148.5365  140.5283  155.3695 H   0  0  0  0  0  0  0  0  0  0  0  0
  148.6179  142.0756  156.2000 H   0  0  0  0  0  0  0  0  0  0  0  0
  1  2  1  0  0  0  0
  1 21  1  0  0  0  0
  1 22  1  0  0  0  0
  1 23  1  0  0  0  0
  2  3  1  0  0  0  0
  2 24  1  0  0  0  0
  2 25  1  0  0  0  0
  3 20  1  0  0  0  0
  3  4  2  0  0  0  0
  4  5  1  0  0  0  0
  4 26  1  0  0  0  0
  5  6  1  0  0  0  0
  6  7  1  0  0  0  0
  6 20  2  0  0  0  0
  7  8  1  0  0  0  0
  7 27  1  0  0  0  0
  8  9  2  0  0  0  0
  8 10  1  0  0  0  0
 10 11  1  0  0  0  0
 10 28  1  0  0  0  0
 11 12  1  0  0  0  0
 11 29  1  0  0  0  0
 11 30  1  0  0  0  0
 12 16  1  0  0  0  0
 12 13  1  0  0  0  0
 12 31  1  0  0  0  0
 13 14  1  0  0  0  0
 13 32  1  0  0  0  0
 13 33  1  0  0  0  0
 14 15  1  0  0  0  0
 14 34  1  0  0  0  0
 14 35  1  0  0  0  0
 15 16  1  0  0  0  0
 16 17  1  0  0  0  0
 16 36  1  0  0  0  0
 17 18  1  0  0  0  0
 17 19  1  0  0  0  0
 17 37  1  0  0  0  0
 18 38  1  0  0  0  0
 18 39  1  0  0  0  0
 18 40  1  0  0  0  0
 19 41  1  0  0  0  0
 19 42  1  0  0  0  0
 19 43  1  0  0  0  0
M  END
> <s_m_source_file>
AV-unprocessed.smi

> <i_m_source_file_index>
916

> <i_lp_mmshare_version>
43012

> <i_f3d_flags>
0

> <s_epik_input>
W0NIM11bQ0gyXWMxW2NIXXNjKG4xKVtOSF1DKD1PKVtOSF1bQ0gyXVtDQEBIXTJbQ0gyXVtDSDJdT1tDQEhdMltDSF0oW0NIM10pW0NIM10=

> <s_epik_cmdline>
J2VwaWtfcHl0aG9uJywgJy1waCcsICc3LjAnLCAnLXRuJywgJzgnLCAnLW1hJywgJzIwMCcsICctbWV0YWxfYmluZGluZycsICctaW1hZScsICc8aW5maWxlLm1hZT4nLCAnLW9tYWUnLCAnPG91dGZpbGUubWFlPic=

> <r_lp_tautomer_probability>
0.999

> <r_epik_Ionization_Penalty>
0.000518907

> <r_epik_Ionization_Penalty_Charging>
0

> <r_epik_Ionization_Penalty_Neutral>
0.000518907

> <r_epik_State_Penalty>
0.000177984

> <r_epik_Charging_Adjusted_Penalty>
0.000177984

> <i_epik_Tot_Q>
0

> <i_epik_Tot_abs_Q>
0

> <r_epik_Metal_State_Penalty>
-0

> <b_epik_Metal_Only>
0

> <s_lp_Force_Field>
OPLS_2005

> <r_lp_Energy>
16.7546

> <b_lp_Chiralities_Consistent>
1

> <s_lp_Variant>
AV-unprocessed.smi:916-1

> <Gold.Version>
5.8.1

> <Gold.Id.Protein>
6NUR|6NUR_protein|mol2

> <Gold.PLP.Fitness>
44.8309

> <Gold.PLP.PLP>
-33.8892

> <Gold.PLP.part.hbond>
-3.5837

> <Gold.PLP.part.metal>
0.0000

> <Gold.PLP.part.buried>
-5.1792

> <Gold.PLP.part.nonpolar>
-25.1916

> <Gold.PLP.part.repulsive>
0.0991

> <Gold.PLP.ligand.clash>
0.0000

> <Gold.PLP.ligand.torsion>
0.1662

> <Gold.PLP.Chemscore.Hbond>
2.7451

> <Gold.PLP.Chemscore.CHOScore>
1.0000

> <Gold.PLP.Chemscore.Metal>
0.0000

> <Gold.Chemscore.Hbonds>
donor molecule, donor type, donor heavy atom, donor atom, acceptor molecule, acceptor atom, score
      L1  H     7    27       P1  7948  1.00
      L1  H    10    28       P1  7948  0.77
      P1  H  7989  7998       L1    15  0.01
      P1  H  7997  8009       L1    15  1.00
      L1  C     4    26       P1 10186  1.00

> <Gold.PLP.Chemscore.Internal.Correction>
0.0388

> <Gold.Rescore>
     Score         DG    S(hbond)    S(metal)    S(lipo)     H(rot)  DE(clash)    DE(int)     intcor
     17.72     -19.44       2.67        0.00      76.53       1.52       0.27       1.45       ----

> <Gold.Chemscore.Fitness>
17.7189

> <Gold.Chemscore.DG>
-19.4361

> <Gold.Chemscore.ZeroCoef>
-5.4800

> <Gold.Chemscore.Hbond>
2.6654

> <Gold.Chemscore.Metal>
0.0000

> <Gold.Chemscore.Lipo>
76.5329

> <Gold.Chemscore.Internal_Hbond>
0.0000

> <Gold.Chemscore.DEClash>
0.2657

> <Gold.Chemscore.DEInternal>
1.4514

> <Gold.Chemscore.Rot>
1.5238

> <Gold.Chemscore.Internal.Correction>
   9.000000E+99

> <Gold.Chemscore.Hbonds>
donor molecule, donor type, donor heavy atom, donor atom, acceptor molecule, acceptor atom, score
      L1  H     7    27       P1  7948  0.90
      L1  H    10    28       P1  7948  0.78
      P1  H  7997  8009       L1    15  0.24

> <Gold.Chemscore.Hbond.Weighted>
-8.9026

> <Gold.Chemscore.Metal.Weighted>
-0.0000

> <Gold.Chemscore.Lipo.Weighted>
-8.9544

> <Gold.Chemscore.Internal_Hbond.Weighted>
0.0000

> <Gold.Chemscore.DEClash.Weighted>
0.2657

> <Gold.Chemscore.DEInternal.Weighted>
1.4514

> <Gold.Chemscore.Rot.Weighted>
3.9008

> <Gold.Chemscore.Internal.Correction.Weighted>
   9.000000E+99

> <Gold.Protein.RotatedTorsions>
[ 6907 6896 6895 6894 ] final -172.29 input  -60.11 | X-H torsion
[ 7974 7965 7964 7962 ] final   13.34 input  175.53 | X-H torsion
[ 8008 7997 7996 7995 ] final -141.68 input   59.86 | X-H torsion
[ 10167 10162 10161 10158 ] final  -16.83 input  -65.29 | X-H torsion
[ 10718 10713 10712 10709 ] final  -38.54 input   66.30 | X-H torsion
[ 10763 10752 10751 10750 ] final   25.48 input  -60.55 | X-H torsion
[ 11005 11000 10999 10996 ] final -107.47 input  -57.11 | X-H torsion

> <Gold.Protein.ActiveResidues>
 VAL166  LYS551  ARG553  GLY616  TRP617  ASP618  TYR619  PRO620  LYS621  CYS622 
 ASP623  PHE694  ASN695  SER759  ASP760  ASP761  ALA762  ILE779  LEU786  VAL792 
 PHE793  MET794  SER795  GLU796  ALA797  LYS798  CYS799  TRP800  GLU811  SER814 

> <Gold.Protein.RotatedAtoms>
  151.5377  133.3438  159.2929 H   0  0  0  0  0  0  0  0  0  0  0  0  # atno 6907 bound_to 6896
  150.8555  134.7895  159.7053 H   0  0  0  0  0  0  0  0  0  0  0  0  # atno 6908 bound_to 6896
  152.4589  134.5237  159.9842 H   0  0  0  0  0  0  0  0  0  0  0  0  # atno 6909 bound_to 6896
  146.2331  139.9203  142.8511 H   0  0  0  0  0  0  0  0  0  0  0  0  # atno 7974 bound_to 7965
  155.4817  140.0561  157.2966 H   0  0  0  0  0  0  0  0  0  0  0  0  # atno 8008 bound_to 7997
  154.4657  140.2017  156.0076 H   0  0  0  0  0  0  0  0  0  0  0  0  # atno 8009 bound_to 7997
  156.0971  140.3225  155.7896 H   0  0  0  0  0  0  0  0  0  0  0  0  # atno 8010 bound_to 7997
  140.7239  143.5076  150.9790 H   0  0  0  0  0  0  0  0  0  0  0  0  # atno 10167 bound_to 10162
  156.3025  130.4242  149.8129 H   0  0  0  0  0  0  0  0  0  0  0  0  # atno 10718 bound_to 10713
  153.0689  135.6582  154.0292 H   0  0  0  0  0  0  0  0  0  0  0  0  # atno 10763 bound_to 10752
  153.9943  135.2943  155.3410 H   0  0  0  0  0  0  0  0  0  0  0  0  # atno 10764 bound_to 10752
  154.7056  135.5226  153.8660 H   0  0  0  0  0  0  0  0  0  0  0  0  # atno 10765 bound_to 10752
  141.0952  133.8984  157.1980 H   0  0  0  0  0  0  0  0  0  0  0  0  # atno 11005 bound_to 11000
  145.2143  140.9909  143.4082 LP  0  0  0  0  0  0  0  0  0  0  0  0  # atno 17320 bound_to 7965
  144.9664  139.3925  143.6330 LP  0  0  0  0  0  0  0  0  0  0  0  0  # atno 17321 bound_to 7965
  139.8788  143.7098  152.3159 LP  0  0  0  0  0  0  0  0  0  0  0  0  # atno 17342 bound_to 10162
  139.7373  144.7568  151.0708 LP  0  0  0  0  0  0  0  0  0  0  0  0  # atno 17343 bound_to 10162
  156.5501  130.8338  151.3297 LP  0  0  0  0  0  0  0  0  0  0  0  0  # atno 17370 bound_to 10713
  157.7371  130.9791  150.2177 LP  0  0  0  0  0  0  0  0  0  0  0  0  # atno 17371 bound_to 10713
  139.9787  135.0105  156.9695 LP  0  0  0  0  0  0  0  0  0  0  0  0  # atno 17394 bound_to 11000
  140.5157  134.0957  155.7280 LP  0  0  0  0  0  0  0  0  0  0  0  0  # atno 17395 bound_to 11000

$$$$
