AV-unprocessed.smi:2660|AV-procd|sdf|10315|dock8
  -GOLD-   2272014333D 1   1.00000     0.00000
 Structure written by MMmdl.
 36 37  0  0  0  0  0  0  0  0  1 V2000
  155.2806  139.3941  161.5219 N   0  0  0  0  0  0  0  0  0  0  0  0
  154.1881  139.2272  160.7662 C   0  0  0  0  0  0  0  0  0  0  0  0
  153.7451  138.0897  160.6074 O   0  0  0  0  0  0  0  0  0  0  0  0
  153.6410  140.4822  160.2034 C   0  0  0  0  0  0  0  0  0  0  0  0
  154.2634  141.6755  160.3350 C   0  0  0  0  0  0  0  0  0  0  0  0
  153.6828  142.8679  159.7815 C   0  0  0  0  0  0  0  0  0  0  0  0
  152.5578  142.7935  159.0462 C   0  0  0  0  0  0  0  0  0  0  0  0
  151.8589  144.0666  158.5522 C   0  0  0  0  0  0  0  0  0  0  0  0
  152.4830  145.1618  158.9880 F   0  0  0  0  0  0  0  0  0  0  0  0
  151.8518  144.1305  157.2221 F   0  0  0  0  0  0  0  0  0  0  0  0
  150.6062  144.1371  159.0053 F   0  0  0  0  0  0  0  0  0  0  0  0
  151.9429  141.5229  158.8169 N   0  0  0  0  0  0  0  0  0  0  0  0
  150.8334  141.3844  157.8382 C   0  0  0  0  0  0  0  0  0  0  0  0
  151.3177  141.0559  156.4014 C   0  0  1  0  0  0  0  0  0  0  0  0
  152.2412  139.9878  156.4758 O   0  0  0  0  0  0  0  0  0  0  0  0
  150.1776  140.7832  155.4263 C   0  0  0  0  0  0  0  0  0  0  0  0
  149.2726  141.8059  155.0630 C   0  0  0  0  0  0  0  0  0  0  0  0
  148.2319  141.5443  154.1510 C   0  0  0  0  0  0  0  0  0  0  0  0
  148.0866  140.2585  153.5972 C   0  0  0  0  0  0  0  0  0  0  0  0
  148.9821  139.2336  153.9571 C   0  0  0  0  0  0  0  0  0  0  0  0
  150.0221  139.4947  154.8699 C   0  0  0  0  0  0  0  0  0  0  0  0
  152.3659  140.3763  159.4494 C   0  0  0  0  0  0  0  0  0  0  0  0
  151.7100  139.3351  159.3480 O   0  0  0  0  0  0  0  0  0  0  0  0
  155.7193  138.5910  161.9489 H   0  0  0  0  0  0  0  0  0  0  0  0
  155.6607  140.3179  161.6656 H   0  0  0  0  0  0  0  0  0  0  0  0
  155.1996  141.7804  160.8627 H   0  0  0  0  0  0  0  0  0  0  0  0
  154.1444  143.8190  160.0006 H   0  0  0  0  0  0  0  0  0  0  0  0
  150.1510  140.6044  158.1819 H   0  0  0  0  0  0  0  0  0  0  0  0
  150.1993  142.2614  157.7736 H   0  0  0  0  0  0  0  0  0  0  0  0
  151.8881  141.8953  156.0038 H   0  0  0  0  0  0  0  0  0  0  0  0
  151.7623  139.1866  156.6221 H   0  0  0  0  0  0  0  0  0  0  0  0
  149.3772  142.7997  155.4729 H   0  0  0  0  0  0  0  0  0  0  0  0
  147.5462  142.3317  153.8746 H   0  0  0  0  0  0  0  0  0  0  0  0
  147.2887  140.0584  152.8974 H   0  0  0  0  0  0  0  0  0  0  0  0
  148.8715  138.2468  153.5325 H   0  0  0  0  0  0  0  0  0  0  0  0
  150.7054  138.7020  155.1376 H   0  0  0  0  0  0  0  0  0  0  0  0
  1  2  1  0  0  0  0
  1 24  1  0  0  0  0
  1 25  1  0  0  0  0
  2  3  2  0  0  0  0
  2  4  1  0  0  0  0
  4 22  1  0  0  0  0
  4  5  2  0  0  0  0
  5  6  1  0  0  0  0
  5 26  1  0  0  0  0
  6  7  2  0  0  0  0
  6 27  1  0  0  0  0
  7  8  1  0  0  0  0
  7 12  1  0  0  0  0
  8  9  1  0  0  0  0
  8 10  1  0  0  0  0
  8 11  1  0  0  0  0
 12 13  1  0  0  0  0
 12 22  1  0  0  0  0
 13 14  1  0  0  0  0
 13 28  1  0  0  0  0
 13 29  1  0  0  0  0
 14 15  1  0  0  0  0
 14 16  1  0  0  0  0
 14 30  1  0  0  0  0
 15 31  1  0  0  0  0
 16 21  1  0  0  0  0
 16 17  2  0  0  0  0
 17 18  1  0  0  0  0
 17 32  1  0  0  0  0
 18 19  2  0  0  0  0
 18 33  1  0  0  0  0
 19 20  1  0  0  0  0
 19 34  1  0  0  0  0
 20 21  2  0  0  0  0
 20 35  1  0  0  0  0
 21 36  1  0  0  0  0
 22 23  2  0  0  0  0
M  END
> <s_m_source_file>
AV-unprocessed.smi

> <i_m_source_file_index>
2660

> <i_lp_mmshare_version>
43012

> <i_f3d_flags>
0

> <s_epik_input>
W05IMl1DKD1PKWMxW2NIXVtjSF1jKEMoRikoRilGKW4oYzE9TylbQ0gyXVtDQEhdKFtPSF0pYzJbY0hdW2NIXVtjSF1bY0hdW2NIXTI=

> <s_epik_cmdline>
J2VwaWtfcHl0aG9uJywgJy1waCcsICc3LjAnLCAnLXRuJywgJzgnLCAnLW1hJywgJzIwMCcsICctbWV0YWxfYmluZGluZycsICctaW1hZScsICc8aW5maWxlLm1hZT4nLCAnLW9tYWUnLCAnPG91dGZpbGUubWFlPic=

> <r_lp_tautomer_probability>
1

> <r_epik_Ionization_Penalty>
1.58596e-06

> <r_epik_Ionization_Penalty_Charging>
5.13453e-09

> <r_epik_Ionization_Penalty_Neutral>
1.58083e-06

> <r_epik_State_Penalty>
-0

> <r_epik_Charging_Adjusted_Penalty>
5.13453e-09

> <i_epik_Tot_Q>
0

> <i_epik_Tot_abs_Q>
0

> <r_epik_Metal_State_Penalty>
-0

> <b_epik_Metal_Only>
0

> <s_lp_Force_Field>
OPLS_2005

> <r_lp_Energy>
32.13

> <b_lp_Chiralities_Consistent>
1

> <s_lp_Variant>
AV-unprocessed.smi:2660-2

> <Gold.Version>
5.8.1

> <Gold.Id.Protein>
6NUR|6NUR_protein|mol2

> <Gold.PLP.Fitness>
51.4046

> <Gold.PLP.PLP>
-49.4597

> <Gold.PLP.part.hbond>
-1.0000

> <Gold.PLP.part.metal>
0.0000

> <Gold.PLP.part.buried>
-0.7068

> <Gold.PLP.part.nonpolar>
-47.9090

> <Gold.PLP.part.repulsive>
0.0000

> <Gold.PLP.ligand.clash>
1.8134

> <Gold.PLP.ligand.torsion>
0.6408

> <Gold.PLP.Chemscore.Hbond>
1.0000

> <Gold.PLP.Chemscore.CHOScore>
0.0000

> <Gold.PLP.Chemscore.Metal>
0.0000

> <Gold.Chemscore.Hbonds>
donor molecule, donor type, donor heavy atom, donor atom, acceptor molecule, acceptor atom, score
      P1  H  7997  8008       L1    15  0.81

> <Gold.PLP.Chemscore.Internal.Correction>
2.0399

> <Gold.Rescore>
     Score         DG    S(hbond)    S(metal)    S(lipo)     H(rot)  DE(clash)    DE(int)     intcor
      6.33     -12.72       0.00        0.00     110.13       2.21       2.25       4.14       ----

> <Gold.Chemscore.Fitness>
6.3312

> <Gold.Chemscore.DG>
-12.7243

> <Gold.Chemscore.ZeroCoef>
-5.4800

> <Gold.Chemscore.Hbond>
0.0040

> <Gold.Chemscore.Metal>
0.0000

> <Gold.Chemscore.Lipo>
110.1278

> <Gold.Chemscore.Internal_Hbond>
0.0000

> <Gold.Chemscore.DEClash>
2.2515

> <Gold.Chemscore.DEInternal>
4.1416

> <Gold.Chemscore.Rot>
2.2086

> <Gold.Chemscore.Internal.Correction>
   9.000000E+99

> <Gold.Chemscore.Hbonds>
donor molecule, donor type, donor heavy atom, donor atom, acceptor molecule, acceptor atom, score
      P1  H  7997  8008       L1    15  0.78

> <Gold.Chemscore.Hbond.Weighted>
-0.0133

> <Gold.Chemscore.Metal.Weighted>
-0.0000

> <Gold.Chemscore.Lipo.Weighted>
-12.8850

> <Gold.Chemscore.Internal_Hbond.Weighted>
0.0000

> <Gold.Chemscore.DEClash.Weighted>
2.2515

> <Gold.Chemscore.DEInternal.Weighted>
4.1416

> <Gold.Chemscore.Rot.Weighted>
5.6540

> <Gold.Chemscore.Internal.Correction.Weighted>
   9.000000E+99

> <Gold.Protein.RotatedTorsions>
[ 6907 6896 6895 6894 ] final   42.06 input  -60.11 | X-H torsion
[ 7974 7965 7964 7962 ] final -103.52 input  175.53 | X-H torsion
[ 8008 7997 7996 7995 ] final  -38.75 input   59.86 | X-H torsion
[ 10167 10162 10161 10158 ] final -174.02 input  -65.29 | X-H torsion
[ 10718 10713 10712 10709 ] final  177.27 input   66.30 | X-H torsion
[ 10763 10752 10751 10750 ] final  118.86 input  -60.55 | X-H torsion
[ 11005 11000 10999 10996 ] final   -9.08 input  -57.11 | X-H torsion

> <Gold.Protein.ActiveResidues>
 VAL166  LYS551  ARG553  GLY616  TRP617  ASP618  TYR619  PRO620  LYS621  CYS622 
 ASP623  PHE694  ASN695  SER759  ASP760  ASP761  ALA762  ILE779  LEU786  VAL792 
 PHE793  MET794  SER795  GLU796  ALA797  LYS798  CYS799  TRP800  GLU811  SER814 

> <Gold.Protein.RotatedAtoms>
  152.2032  134.8569  160.0505 H   0  0  0  0  0  0  0  0  0  0  0  0  # atno 6907 bound_to 6896
  151.9415  133.3634  159.3975 H   0  0  0  0  0  0  0  0  0  0  0  0  # atno 6908 bound_to 6896
  150.6959  134.4358  159.5313 H   0  0  0  0  0  0  0  0  0  0  0  0  # atno 6909 bound_to 6896
  145.2549  140.9250  143.3074 H   0  0  0  0  0  0  0  0  0  0  0  0  # atno 7974 bound_to 7965
  154.4032  140.1569  156.2751 H   0  0  0  0  0  0  0  0  0  0  0  0  # atno 8008 bound_to 7997
  155.8919  140.3438  155.5940 H   0  0  0  0  0  0  0  0  0  0  0  0  # atno 8009 bound_to 7997
  155.7548  140.0809  157.2174 H   0  0  0  0  0  0  0  0  0  0  0  0  # atno 8010 bound_to 7997
  139.5656  144.1763  152.1308 H   0  0  0  0  0  0  0  0  0  0  0  0  # atno 10167 bound_to 10162
  156.9079  130.9900  151.3025 H   0  0  0  0  0  0  0  0  0  0  0  0  # atno 10718 bound_to 10713
  153.5742  135.3496  155.2849 H   0  0  0  0  0  0  0  0  0  0  0  0  # atno 10763 bound_to 10752
  154.8677  135.4166  154.2692 H   0  0  0  0  0  0  0  0  0  0  0  0  # atno 10764 bound_to 10752
  153.3464  135.7053  153.6894 H   0  0  0  0  0  0  0  0  0  0  0  0  # atno 10765 bound_to 10752
  140.7303  133.8754  155.8888 H   0  0  0  0  0  0  0  0  0  0  0  0  # atno 11005 bound_to 11000
  144.9470  139.4125  143.6421 LP  0  0  0  0  0  0  0  0  0  0  0  0  # atno 17320 bound_to 7965
  146.3292  139.8458  142.8882 LP  0  0  0  0  0  0  0  0  0  0  0  0  # atno 17321 bound_to 7965
  140.1285  144.5309  150.6817 LP  0  0  0  0  0  0  0  0  0  0  0  0  # atno 17342 bound_to 10162
  140.6940  143.2392  151.5054 LP  0  0  0  0  0  0  0  0  0  0  0  0  # atno 17343 bound_to 10162
  157.5986  130.8495  149.8767 LP  0  0  0  0  0  0  0  0  0  0  0  0  # atno 17370 bound_to 10713
  156.0550  130.3710  150.1112 LP  0  0  0  0  0  0  0  0  0  0  0  0  # atno 17371 bound_to 10713
  140.9927  134.1257  157.4393 LP  0  0  0  0  0  0  0  0  0  0  0  0  # atno 17394 bound_to 11000
  139.8828  135.0045  156.6254 LP  0  0  0  0  0  0  0  0  0  0  0  0  # atno 17395 bound_to 11000

$$$$
