AV-unprocessed.smi:2195|AV-procd|sdf|8905|dock3
  -GOLD-   2272012123D 1   1.00000     0.00000
 Structure written by MMmdl.
 39 41  0  0  0  0  0  0  0  0  1 V2000
  152.3832  143.6605  161.9423 C   0  0  0  0  0  0  0  0  0  0  0  0
  151.9667  143.3500  160.5193 C   0  0  0  0  0  0  0  0  0  0  0  0
  151.4051  144.3518  159.7031 C   0  0  0  0  0  0  0  0  0  0  0  0
  151.0228  144.0533  158.3811 C   0  0  0  0  0  0  0  0  0  0  0  0
  151.1945  142.7567  157.8539 C   0  0  0  0  0  0  0  0  0  0  0  0
  150.7960  142.5536  156.5499 O   0  0  0  0  0  0  0  0  0  0  0  0
  150.8489  141.2329  156.0261 C   0  0  0  0  0  0  0  0  0  0  0  0
  149.8416  141.1189  154.8711 C   0  0  1  0  0  0  0  0  0  0  0  0
  150.3695  140.2335  153.9025 O   0  0  0  0  0  0  0  0  0  0  0  0
  148.4774  140.5818  155.3462 C   0  0  0  0  0  0  0  0  0  0  0  0
  147.3803  141.4658  154.9944 N   0  0  0  0  0  0  0  0  0  0  0  0
  147.0070  141.8481  153.7579 C   0  0  0  0  0  0  0  0  0  0  0  0
  145.9658  142.6706  153.6625 N   0  0  0  0  0  0  0  0  0  0  0  0
  145.6241  142.8434  154.9928 C   0  0  0  0  0  0  0  0  0  0  0  0
  144.5943  143.6106  155.5833 C   0  0  0  0  0  0  0  0  0  0  0  0
  144.4362  143.6359  156.9847 C   0  0  0  0  0  0  0  0  0  0  0  0
  145.3027  142.8962  157.8159 C   0  0  0  0  0  0  0  0  0  0  0  0
  146.3353  142.1235  157.2506 C   0  0  0  0  0  0  0  0  0  0  0  0
  146.4899  142.1017  155.8520 C   0  0  0  0  0  0  0  0  0  0  0  0
  151.7568  141.7525  158.6820 C   0  0  0  0  0  0  0  0  0  0  0  0
  152.1391  142.0502  160.0045 C   0  0  0  0  0  0  0  0  0  0  0  0
  152.2986  144.7259  162.1585 H   0  0  0  0  0  0  0  0  0  0  0  0
  153.4187  143.3622  162.1073 H   0  0  0  0  0  0  0  0  0  0  0  0
  151.7527  143.1177  162.6468 H   0  0  0  0  0  0  0  0  0  0  0  0
  151.2654  145.3523  160.0858 H   0  0  0  0  0  0  0  0  0  0  0  0
  150.5943  144.8294  157.7641 H   0  0  0  0  0  0  0  0  0  0  0  0
  151.8537  140.9697  155.6903 H   0  0  0  0  0  0  0  0  0  0  0  0
  150.5688  140.5373  156.8191 H   0  0  0  0  0  0  0  0  0  0  0  0
  149.6980  142.0990  154.4143 H   0  0  0  0  0  0  0  0  0  0  0  0
  149.8513  140.3093  153.1156 H   0  0  0  0  0  0  0  0  0  0  0  0
  148.2843  139.5961  154.9197 H   0  0  0  0  0  0  0  0  0  0  0  0
  148.4765  140.4581  156.4299 H   0  0  0  0  0  0  0  0  0  0  0  0
  147.5320  141.5058  152.8781 H   0  0  0  0  0  0  0  0  0  0  0  0
  143.9250  144.1811  154.9568 H   0  0  0  0  0  0  0  0  0  0  0  0
  143.6458  144.2267  157.4240 H   0  0  0  0  0  0  0  0  0  0  0  0
  145.1743  142.9224  158.8881 H   0  0  0  0  0  0  0  0  0  0  0  0
  147.0013  141.5553  157.8830 H   0  0  0  0  0  0  0  0  0  0  0  0
  151.9052  140.7442  158.3268 H   0  0  0  0  0  0  0  0  0  0  0  0
  152.5666  141.2757  160.6243 H   0  0  0  0  0  0  0  0  0  0  0  0
  1  2  1  0  0  0  0
  1 22  1  0  0  0  0
  1 23  1  0  0  0  0
  1 24  1  0  0  0  0
  2 21  1  0  0  0  0
  2  3  2  0  0  0  0
  3  4  1  0  0  0  0
  3 25  1  0  0  0  0
  4  5  2  0  0  0  0
  4 26  1  0  0  0  0
  5  6  1  0  0  0  0
  5 20  1  0  0  0  0
  6  7  1  0  0  0  0
  7  8  1  0  0  0  0
  7 27  1  0  0  0  0
  7 28  1  0  0  0  0
  8  9  1  0  0  0  0
  8 10  1  0  0  0  0
  8 29  1  0  0  0  0
  9 30  1  0  0  0  0
 10 11  1  0  0  0  0
 10 31  1  0  0  0  0
 10 32  1  0  0  0  0
 11 19  1  0  0  0  0
 11 12  1  0  0  0  0
 12 13  2  0  0  0  0
 12 33  1  0  0  0  0
 13 14  1  0  0  0  0
 14 19  2  0  0  0  0
 14 15  1  0  0  0  0
 15 16  2  0  0  0  0
 15 34  1  0  0  0  0
 16 17  1  0  0  0  0
 16 35  1  0  0  0  0
 17 18  2  0  0  0  0
 17 36  1  0  0  0  0
 18 19  1  0  0  0  0
 18 37  1  0  0  0  0
 20 21  2  0  0  0  0
 20 38  1  0  0  0  0
 21 39  1  0  0  0  0
M  END
> <s_m_source_file>
AV-unprocessed.smi

> <i_m_source_file_index>
2195

> <i_lp_mmshare_version>
43012

> <i_f3d_flags>
0

> <s_epik_input>
W0NIM11jMVtjSF1bY0hdYyhbY0hdW2NIXTEpT1tDSDJdW0NASF0oW09IXSlbQ0gyXW4oW2NIXW4yKWMoYzIzKVtjSF1bY0hdW2NIXVtjSF0z

> <s_epik_cmdline>
J2VwaWtfcHl0aG9uJywgJy1waCcsICc3LjAnLCAnLXRuJywgJzgnLCAnLW1hJywgJzIwMCcsICctbWV0YWxfYmluZGluZycsICctaW1hZScsICc8aW5maWxlLm1hZT4nLCAnLW9tYWUnLCAnPG91dGZpbGUubWFlPic=

> <r_lp_tautomer_probability>
1

> <r_epik_Ionization_Penalty>
0.0609831

> <r_epik_Ionization_Penalty_Charging>
0

> <r_epik_Ionization_Penalty_Neutral>
0.0609831

> <r_epik_State_Penalty>
0.0529032

> <r_epik_Charging_Adjusted_Penalty>
0.0529032

> <i_epik_Tot_Q>
0

> <i_epik_Tot_abs_Q>
0

> <r_epik_Metal_State_Penalty>
5.53344e-05

> <b_epik_Metal_Only>
0

> <s_lp_Force_Field>
OPLS_2005

> <r_lp_Energy>
16.3269

> <b_lp_Chiralities_Consistent>
1

> <s_lp_Variant>
AV-unprocessed.smi:2195-2

> <Gold.Version>
5.8.1

> <Gold.Id.Protein>
6NUR|6NUR_protein|mol2

> <Gold.PLP.Fitness>
47.8874

> <Gold.PLP.PLP>
-44.8078

> <Gold.PLP.part.hbond>
-1.9173

> <Gold.PLP.part.metal>
0.0000

> <Gold.PLP.part.buried>
-6.7728

> <Gold.PLP.part.nonpolar>
-36.7438

> <Gold.PLP.part.repulsive>
0.9152

> <Gold.PLP.ligand.clash>
0.0000

> <Gold.PLP.ligand.torsion>
1.3472

> <Gold.PLP.Chemscore.Hbond>
1.8880

> <Gold.PLP.Chemscore.CHOScore>
0.0000

> <Gold.PLP.Chemscore.Metal>
0.0000

> <Gold.Chemscore.Hbonds>
donor molecule, donor type, donor heavy atom, donor atom, acceptor molecule, acceptor atom, score
      L1  H     9    30       P1  7957  1.00
      P1  H  7989  7998       L1     9  0.74

> <Gold.PLP.Chemscore.Internal.Correction>
0.1101

> <Gold.Rescore>
     Score         DG    S(hbond)    S(metal)    S(lipo)     H(rot)  DE(clash)    DE(int)     intcor
     14.49     -16.17       0.97        0.00     111.57       2.19       0.35       1.32       ----

> <Gold.Chemscore.Fitness>
14.4906

> <Gold.Chemscore.DG>
-16.1659

> <Gold.Chemscore.ZeroCoef>
-5.4800

> <Gold.Chemscore.Hbond>
0.9679

> <Gold.Chemscore.Metal>
0.0000

> <Gold.Chemscore.Lipo>
111.5683

> <Gold.Chemscore.Internal_Hbond>
0.0000

> <Gold.Chemscore.DEClash>
0.3519

> <Gold.Chemscore.DEInternal>
1.3234

> <Gold.Chemscore.Rot>
2.1877

> <Gold.Chemscore.Internal.Correction>
   9.000000E+99

> <Gold.Chemscore.Hbonds>
donor molecule, donor type, donor heavy atom, donor atom, acceptor molecule, acceptor atom, score
      L1  H     9    30       P1  7957  0.93
      P1  H  7989  7998       L1     9  0.08

> <Gold.Chemscore.Hbond.Weighted>
-3.2329

> <Gold.Chemscore.Metal.Weighted>
-0.0000

> <Gold.Chemscore.Lipo.Weighted>
-13.0535

> <Gold.Chemscore.Internal_Hbond.Weighted>
0.0000

> <Gold.Chemscore.DEClash.Weighted>
0.3519

> <Gold.Chemscore.DEInternal.Weighted>
1.3234

> <Gold.Chemscore.Rot.Weighted>
5.6005

> <Gold.Chemscore.Internal.Correction.Weighted>
   9.000000E+99

> <Gold.Protein.RotatedTorsions>
[ 6907 6896 6895 6894 ] final  164.26 input  -60.11 | X-H torsion
[ 7974 7965 7964 7962 ] final  173.42 input  175.53 | X-H torsion
[ 8008 7997 7996 7995 ] final   24.47 input   59.86 | X-H torsion
[ 10167 10162 10161 10158 ] final  -76.50 input  -65.29 | X-H torsion
[ 10718 10713 10712 10709 ] final  142.33 input   66.30 | X-H torsion
[ 10763 10752 10751 10750 ] final  -24.48 input  -60.55 | X-H torsion
[ 11005 11000 10999 10996 ] final -112.65 input  -57.11 | X-H torsion

> <Gold.Protein.ActiveResidues>
 VAL166  LYS551  ARG553  GLY616  TRP617  ASP618  TYR619  PRO620  LYS621  CYS622 
 ASP623  PHE694  ASN695  SER759  ASP760  ASP761  ALA762  ILE779  LEU786  VAL792 
 PHE793  MET794  SER795  GLU796  ALA797  LYS798  CYS799  TRP800  GLU811  SER814 

> <Gold.Protein.RotatedAtoms>
  151.9126  133.3565  159.3868 H   0  0  0  0  0  0  0  0  0  0  0  0  # atno 6907 bound_to 6896
  150.7054  134.4717  159.5437 H   0  0  0  0  0  0  0  0  0  0  0  0  # atno 6908 bound_to 6896
  152.2325  134.8308  160.0522 H   0  0  0  0  0  0  0  0  0  0  0  0  # atno 6909 bound_to 6896
  144.7244  139.9645  143.6435 H   0  0  0  0  0  0  0  0  0  0  0  0  # atno 7974 bound_to 7965
  154.9967  140.3120  155.4884 H   0  0  0  0  0  0  0  0  0  0  0  0  # atno 8008 bound_to 7997
  156.2931  140.2239  156.5015 H   0  0  0  0  0  0  0  0  0  0  0  0  # atno 8009 bound_to 7997
  154.7655  140.0456  157.0996 H   0  0  0  0  0  0  0  0  0  0  0  0  # atno 8010 bound_to 7997
  140.4851  143.2393  151.7996 H   0  0  0  0  0  0  0  0  0  0  0  0  # atno 10167 bound_to 10162
  157.3817  131.0993  151.0732 H   0  0  0  0  0  0  0  0  0  0  0  0  # atno 10718 bound_to 10713
  153.6844  135.6965  153.5108 H   0  0  0  0  0  0  0  0  0  0  0  0  # atno 10763 bound_to 10752
  153.2460  135.4290  155.0747 H   0  0  0  0  0  0  0  0  0  0  0  0  # atno 10764 bound_to 10752
  154.8391  135.3519  154.6387 H   0  0  0  0  0  0  0  0  0  0  0  0  # atno 10765 bound_to 10752
  141.0662  133.9455  157.2574 H   0  0  0  0  0  0  0  0  0  0  0  0  # atno 11005 bound_to 11000
  146.0611  139.3604  143.0581 LP  0  0  0  0  0  0  0  0  0  0  0  0  # atno 17320 bound_to 7965
  145.8091  140.9734  143.0958 LP  0  0  0  0  0  0  0  0  0  0  0  0  # atno 17321 bound_to 7965
  139.4840  144.4722  151.9411 LP  0  0  0  0  0  0  0  0  0  0  0  0  # atno 17342 bound_to 10162
  140.3808  144.2739  150.5909 LP  0  0  0  0  0  0  0  0  0  0  0  0  # atno 17343 bound_to 10162
  157.1798  130.6304  149.5668 LP  0  0  0  0  0  0  0  0  0  0  0  0  # atno 17370 bound_to 10713
  155.9777  130.4757  150.6612 LP  0  0  0  0  0  0  0  0  0  0  0  0  # atno 17371 bound_to 10713
  139.9479  135.0181  156.8906 LP  0  0  0  0  0  0  0  0  0  0  0  0  # atno 17394 bound_to 11000
  140.5768  134.0390  155.7450 LP  0  0  0  0  0  0  0  0  0  0  0  0  # atno 17395 bound_to 11000

$$$$
