AV-unprocessed.smi:1225|AV-procd|sdf|5142|dock6
  -GOLD-   22720 4213D 1   1.00000     0.00000
 Structure written by MMmdl.
 49 51  0  0  0  0  0  0  0  0  2 V2000
  145.5597  134.1264  154.0536 C   0  0  0  0  0  0  0  0  0  0  0  0
  145.6699  135.5458  153.6122 C   0  0  0  0  0  0  0  0  0  0  0  0
  144.7017  136.1953  152.9624 N   0  0  0  0  0  0  0  0  0  0  0  0
  145.0527  137.5119  152.6583 C   0  0  0  0  0  0  0  0  0  0  0  0
  146.3049  137.8677  153.0955 C   0  0  0  0  0  0  0  0  0  0  0  0
  146.9785  139.1919  152.9353 C   0  0  0  0  0  0  0  0  0  0  0  0
  146.3756  140.2358  153.8036 N   0  3  1  0  0  0  0  0  0  0  0  0
  145.9651  139.7076  155.1257 C   0  0  0  0  0  0  0  0  0  0  0  0
  147.2190  141.4517  153.9271 C   0  0  0  0  0  0  0  0  0  0  0  0
  148.6778  141.1150  154.3107 C   0  0  1  0  0  0  0  0  0  0  0  0
  149.4628  141.0780  153.1360 O   0  0  0  0  0  0  0  0  0  0  0  0
  149.3172  142.1369  155.2708 C   0  0  0  0  0  0  0  0  0  0  0  0
  150.4598  141.5935  155.9820 N   0  0  0  0  0  0  0  0  0  0  0  0
  151.2375  140.5635  155.5968 C   0  0  0  0  0  0  0  0  0  0  0  0
  152.2350  140.2188  156.4055 N   0  0  0  0  0  0  0  0  0  0  0  0
  152.0938  141.1374  157.4315 C   0  0  0  0  0  0  0  0  0  0  0  0
  152.8450  141.3142  158.6138 C   0  0  0  0  0  0  0  0  0  0  0  0
  152.5157  142.3327  159.5362 C   0  0  0  0  0  0  0  0  0  0  0  0
  153.3521  142.4880  160.7943 C   0  0  0  0  0  0  0  0  0  0  0  0
  151.4184  143.1942  159.2819 C   0  0  0  0  0  0  0  0  0  0  0  0
  151.0484  144.2976  160.2573 C   0  0  0  0  0  0  0  0  0  0  0  0
  150.6557  143.0298  158.1069 C   0  0  0  0  0  0  0  0  0  0  0  0
  150.9940  142.0133  157.1958 C   0  0  0  0  0  0  0  0  0  0  0  0
  147.0976  136.5342  153.8954 S   0  0  0  0  0  0  0  0  0  0  0  0
  144.5425  133.7579  153.9157 H   0  0  0  0  0  0  0  0  0  0  0  0
  145.8207  134.0421  155.1085 H   0  0  0  0  0  0  0  0  0  0  0  0
  146.2396  133.5028  153.4732 H   0  0  0  0  0  0  0  0  0  0  0  0
  144.3447  138.1324  152.1289 H   0  0  0  0  0  0  0  0  0  0  0  0
  148.0452  139.1082  153.1489 H   0  0  0  0  0  0  0  0  0  0  0  0
  146.9085  139.4828  151.8878 H   0  0  0  0  0  0  0  0  0  0  0  0
  146.8307  139.3675  155.6955 H   0  0  0  0  0  0  0  0  0  0  0  0
  145.2746  138.8709  155.0207 H   0  0  0  0  0  0  0  0  0  0  0  0
  145.4534  140.4752  155.7069 H   0  0  0  0  0  0  0  0  0  0  0  0
  147.2300  141.9986  152.9828 H   0  0  0  0  0  0  0  0  0  0  0  0
  146.7593  142.1196  154.6569 H   0  0  0  0  0  0  0  0  0  0  0  0
  148.7308  140.1303  154.7742 H   0  0  0  0  0  0  0  0  0  0  0  0
  148.9959  140.5914  152.4733 H   0  0  0  0  0  0  0  0  0  0  0  0
  149.6478  143.0186  154.7198 H   0  0  0  0  0  0  0  0  0  0  0  0
  148.5858  142.4839  156.0016 H   0  0  0  0  0  0  0  0  0  0  0  0
  151.0580  140.0336  154.6725 H   0  0  0  0  0  0  0  0  0  0  0  0
  153.6816  140.6587  158.8068 H   0  0  0  0  0  0  0  0  0  0  0  0
  153.8217  143.4715  160.8220 H   0  0  0  0  0  0  0  0  0  0  0  0
  154.1426  141.7386  160.8425 H   0  0  0  0  0  0  0  0  0  0  0  0
  152.7309  142.3751  161.6833 H   0  0  0  0  0  0  0  0  0  0  0  0
  150.1963  144.8762  159.9002 H   0  0  0  0  0  0  0  0  0  0  0  0
  151.8843  144.9841  160.3932 H   0  0  0  0  0  0  0  0  0  0  0  0
  150.7848  143.8768  161.2277 H   0  0  0  0  0  0  0  0  0  0  0  0
  149.8177  143.6797  157.9031 H   0  0  0  0  0  0  0  0  0  0  0  0
  145.5275  140.5396  153.3462 H   0  0  0  0  0  0  0  0  0  0  0  0
  1  2  1  0  0  0  0
  1 25  1  0  0  0  0
  1 26  1  0  0  0  0
  1 27  1  0  0  0  0
  2 24  1  0  0  0  0
  2  3  2  0  0  0  0
  3  4  1  0  0  0  0
  4  5  2  0  0  0  0
  4 28  1  0  0  0  0
  5  6  1  0  0  0  0
  5 24  1  0  0  0  0
  6  7  1  0  0  0  0
  6 29  1  0  0  0  0
  6 30  1  0  0  0  0
  7  8  1  0  0  0  0
  7  9  1  0  0  0  0
  7 49  1  0  0  0  0
  8 31  1  0  0  0  0
  8 32  1  0  0  0  0
  8 33  1  0  0  0  0
  9 10  1  0  0  0  0
  9 34  1  0  0  0  0
  9 35  1  0  0  0  0
 10 11  1  0  0  0  0
 10 12  1  0  0  0  0
 10 36  1  0  0  0  0
 11 37  1  0  0  0  0
 12 13  1  0  0  0  0
 12 38  1  0  0  0  0
 12 39  1  0  0  0  0
 13 23  1  0  0  0  0
 13 14  1  0  0  0  0
 14 15  2  0  0  0  0
 14 40  1  0  0  0  0
 15 16  1  0  0  0  0
 16 23  2  0  0  0  0
 16 17  1  0  0  0  0
 17 18  2  0  0  0  0
 17 41  1  0  0  0  0
 18 19  1  0  0  0  0
 18 20  1  0  0  0  0
 19 42  1  0  0  0  0
 19 43  1  0  0  0  0
 19 44  1  0  0  0  0
 20 21  1  0  0  0  0
 20 22  2  0  0  0  0
 21 45  1  0  0  0  0
 21 46  1  0  0  0  0
 21 47  1  0  0  0  0
 22 23  1  0  0  0  0
 22 48  1  0  0  0  0
M  CHG  1   7   1
M  END
> <s_m_source_file>
AV-unprocessed.smi

> <i_m_source_file_index>
1225

> <i_lp_mmshare_version>
43012

> <i_f3d_flags>
0

> <s_epik_input>
W0NIM11jMW5bY0hdYyhzMSlbQ0gyXU4oW0NIM10pW0NIMl1bQ0BIXShbT0hdKVtDSDJdbihbY0hdbjIpYyhjMjMpW2NIXWMoW0NIM10pYyhbY0hdMylbQ0gzXQ==

> <s_epik_cmdline>
J2VwaWtfcHl0aG9uJywgJy1waCcsICc3LjAnLCAnLXRuJywgJzgnLCAnLW1hJywgJzIwMCcsICctbWV0YWxfYmluZGluZycsICctaW1hZScsICc8aW5maWxlLm1hZT4nLCAnLW9tYWUnLCAnPG91dGZpbGUubWFlPic=

> <r_epik_Ionization_Penalty>
1.62543

> <r_epik_Ionization_Penalty_Charging>
1.53932

> <r_epik_Ionization_Penalty_Neutral>
0.0861152

> <r_epik_State_Penalty>
1.73127

> <r_epik_Charging_Adjusted_Penalty>
3.27059

> <i_epik_Tot_Q>
1

> <i_epik_Tot_abs_Q>
1

> <r_epik_Metal_State_Penalty>
1.71387

> <b_epik_Metal_Only>
0

> <s_lp_Force_Field>
OPLS_2005

> <r_lp_Energy>
12.5973

> <b_lp_Chiralities_Consistent>
1

> <s_lp_Variant>
AV-unprocessed.smi:1225-7

> <Gold.Version>
5.8.1

> <Gold.Id.Protein>
6NUR|6NUR_protein|mol2

> <Gold.PLP.Fitness>
57.2856

> <Gold.PLP.PLP>
-41.7714

> <Gold.PLP.part.hbond>
-3.1651

> <Gold.PLP.part.metal>
0.0000

> <Gold.PLP.part.buried>
-1.9614

> <Gold.PLP.part.nonpolar>
-36.8122

> <Gold.PLP.part.repulsive>
0.0919

> <Gold.PLP.ligand.clash>
0.0000

> <Gold.PLP.ligand.torsion>
1.4189

> <Gold.PLP.Chemscore.Hbond>
4.0164

> <Gold.PLP.Chemscore.CHOScore>
2.0000

> <Gold.PLP.Chemscore.Metal>
0.0000

> <Gold.Chemscore.Hbonds>
donor molecule, donor type, donor heavy atom, donor atom, acceptor molecule, acceptor atom, score
      L1  H     7    49       P1 10175  1.95
      L1  H    11    37       P1  7957  0.51
      P1  H  7989  7998       L1    11  0.08
      P1  H  7997  8008       L1    15  0.78
      P1  H  8011  8017       L1    11  1.00
      L1  C     4    28       P1 10171  1.00
      L1  C     4    28       P1 10175  1.00

> <Gold.PLP.Chemscore.Internal.Correction>
0.3027

> <Gold.Rescore>
     Score         DG    S(hbond)    S(metal)    S(lipo)     H(rot)  DE(clash)    DE(int)     intcor
     16.54     -18.22       1.46        0.00     119.11       2.37       0.49       1.18       ----

> <Gold.Chemscore.Fitness>
16.5442

> <Gold.Chemscore.DG>
-18.2212

> <Gold.Chemscore.ZeroCoef>
-5.4800

> <Gold.Chemscore.Hbond>
1.4625

> <Gold.Chemscore.Metal>
0.0000

> <Gold.Chemscore.Lipo>
119.1135

> <Gold.Chemscore.Internal_Hbond>
0.0000

> <Gold.Chemscore.DEClash>
0.4944

> <Gold.Chemscore.DEInternal>
1.1826

> <Gold.Chemscore.Rot>
2.3750

> <Gold.Chemscore.Internal.Correction>
   9.000000E+99

> <Gold.Chemscore.Hbonds>
donor molecule, donor type, donor heavy atom, donor atom, acceptor molecule, acceptor atom, score
      L1  H     7    49       P1 10175  0.87
      L1  H    11    37       P1  7957  0.49
      P1  H  7989  7998       L1    11  0.07
      P1  H  7997  8008       L1    15  0.22
      P1  H  8011  8017       L1    11  0.25

> <Gold.Chemscore.Hbond.Weighted>
-4.8849

> <Gold.Chemscore.Metal.Weighted>
-0.0000

> <Gold.Chemscore.Lipo.Weighted>
-13.9363

> <Gold.Chemscore.Internal_Hbond.Weighted>
0.0000

> <Gold.Chemscore.DEClash.Weighted>
0.4944

> <Gold.Chemscore.DEInternal.Weighted>
1.1826

> <Gold.Chemscore.Rot.Weighted>
6.0800

> <Gold.Chemscore.Internal.Correction.Weighted>
   9.000000E+99

> <Gold.Protein.RotatedTorsions>
[ 6907 6896 6895 6894 ] final -108.42 input  -60.11 | X-H torsion
[ 7974 7965 7964 7962 ] final -102.84 input  175.53 | X-H torsion
[ 8008 7997 7996 7995 ] final  -34.44 input   59.86 | X-H torsion
[ 10167 10162 10161 10158 ] final   -7.01 input  -65.29 | X-H torsion
[ 10718 10713 10712 10709 ] final  162.03 input   66.30 | X-H torsion
[ 10763 10752 10751 10750 ] final  -75.64 input  -60.55 | X-H torsion
[ 11005 11000 10999 10996 ] final  -73.99 input  -57.11 | X-H torsion

> <Gold.Protein.ActiveResidues>
 VAL166  LYS551  ARG553  GLY616  TRP617  ASP618  TYR619  PRO620  LYS621  CYS622 
 ASP623  PHE694  ASN695  SER759  ASP760  ASP761  ALA762  ILE779  LEU786  VAL792 
 PHE793  MET794  SER795  GLU796  ALA797  LYS798  CYS799  TRP800  GLU811  SER814 

> <Gold.Protein.RotatedAtoms>
  150.7501  133.9680  159.3536 H   0  0  0  0  0  0  0  0  0  0  0  0  # atno 6907 bound_to 6896
  151.7611  135.0808  160.0355 H   0  0  0  0  0  0  0  0  0  0  0  0  # atno 6908 bound_to 6896
  152.3402  133.6021  159.5907 H   0  0  0  0  0  0  0  0  0  0  0  0  # atno 6909 bound_to 6896
  145.2636  140.9277  143.3026 H   0  0  0  0  0  0  0  0  0  0  0  0  # atno 7974 bound_to 7965
  154.4121  140.1684  156.2049 H   0  0  0  0  0  0  0  0  0  0  0  0  # atno 8008 bound_to 7997
  155.9493  140.3402  155.6370 H   0  0  0  0  0  0  0  0  0  0  0  0  # atno 8009 bound_to 7997
  155.6891  140.0731  157.2446 H   0  0  0  0  0  0  0  0  0  0  0  0  # atno 8010 bound_to 7997
  140.7015  143.6130  150.8686 H   0  0  0  0  0  0  0  0  0  0  0  0  # atno 10167 bound_to 10162
  157.1283  131.0510  151.2383 H   0  0  0  0  0  0  0  0  0  0  0  0  # atno 10718 bound_to 10713
  154.4893  135.5824  153.6447 H   0  0  0  0  0  0  0  0  0  0  0  0  # atno 10763 bound_to 10752
  152.9859  135.6109  154.3145 H   0  0  0  0  0  0  0  0  0  0  0  0  # atno 10764 bound_to 10752
  154.3044  135.2846  155.2575 H   0  0  0  0  0  0  0  0  0  0  0  0  # atno 10765 bound_to 10752
  141.1630  133.6896  156.7296 H   0  0  0  0  0  0  0  0  0  0  0  0  # atno 11005 bound_to 11000
  144.9397  139.4203  143.6455 LP  0  0  0  0  0  0  0  0  0  0  0  0  # atno 17320 bound_to 7965
  146.3268  139.8350  142.8901 LP  0  0  0  0  0  0  0  0  0  0  0  0  # atno 17321 bound_to 7965
  139.9852  143.5907  152.2929 LP  0  0  0  0  0  0  0  0  0  0  0  0  # atno 17342 bound_to 10162
  139.6542  144.7661  151.2087 LP  0  0  0  0  0  0  0  0  0  0  0  0  # atno 17343 bound_to 10162
  157.4415  130.7547  149.7073 LP  0  0  0  0  0  0  0  0  0  0  0  0  # atno 17370 bound_to 10713
  155.9813  130.4020  150.3477 LP  0  0  0  0  0  0  0  0  0  0  0  0  # atno 17371 bound_to 10713
  140.2755  134.8358  157.3886 LP  0  0  0  0  0  0  0  0  0  0  0  0  # atno 17394 bound_to 11000
  140.1482  134.4884  155.7981 LP  0  0  0  0  0  0  0  0  0  0  0  0  # atno 17395 bound_to 11000

$$$$
