AV-unprocessed.smi:1936|AV-procd|sdf|7832|dock2
  -GOLD-   22720 9583D 1   1.00000     0.00000
 Structure written by MMmdl.
 39 40  0  0  0  0  0  0  0  0  2 V2000
  146.7056  139.7970  151.1960 C   0  0  0  0  0  0  0  0  0  0  0  0
  146.7809  138.5470  152.0827 C   0  0  1  0  0  0  0  0  0  0  0  0
  146.5060  138.8848  153.5662 C   0  0  0  0  0  0  0  0  0  0  0  0
  147.6924  139.4529  154.2562 N   0  3  0  0  0  0  0  0  0  0  0  0
  148.8983  138.5960  154.1627 C   0  0  0  0  0  0  0  0  0  0  0  0
  150.0461  139.2090  154.9808 C   0  0  0  0  0  0  0  0  0  0  0  0
  150.3131  140.5250  154.5109 O   0  0  0  0  0  0  0  0  0  0  0  0
  149.1887  141.3831  154.6610 C   0  0  0  0  0  0  0  0  0  0  0  0
  148.0063  140.8392  153.8408 C   0  0  0  0  0  0  0  0  0  0  0  0
  145.8240  137.5521  151.6000 N   0  0  0  0  0  0  0  0  0  0  0  0
  145.5950  136.3475  152.1473 C   0  0  0  0  0  0  0  0  0  0  0  0
  146.2479  135.8864  153.0830 O   0  0  0  0  0  0  0  0  0  0  0  0
  144.4013  135.5723  151.5935 C   0  0  0  0  0  0  0  0  0  0  0  0
  144.8361  134.2964  151.0518 N   0  0  0  0  0  0  0  0  0  0  0  0
  144.0655  133.2896  150.5088 C   0  0  0  0  0  0  0  0  0  0  0  0
  144.9135  132.2909  150.1241 C   0  0  0  0  0  0  0  0  0  0  0  0
  146.2005  132.7842  150.4768 C   0  0  0  0  0  0  0  0  0  0  0  0
  146.1519  133.9871  151.0258 N   0  0  0  0  0  0  0  0  0  0  0  0
  147.4274  140.5485  151.5173 H   0  0  0  0  0  0  0  0  0  0  0  0
  145.7148  140.2517  151.2299 H   0  0  0  0  0  0  0  0  0  0  0  0
  146.9251  139.5545  150.1555 H   0  0  0  0  0  0  0  0  0  0  0  0
  147.7940  138.1533  151.9904 H   0  0  0  0  0  0  0  0  0  0  0  0
  145.6581  139.5647  153.6617 H   0  0  0  0  0  0  0  0  0  0  0  0
  146.2134  137.9631  154.0718 H   0  0  0  0  0  0  0  0  0  0  0  0
  148.6822  137.5941  154.5326 H   0  0  0  0  0  0  0  0  0  0  0  0
  149.1971  138.4935  153.1183 H   0  0  0  0  0  0  0  0  0  0  0  0
  149.7986  139.2301  156.0436 H   0  0  0  0  0  0  0  0  0  0  0  0
  150.9477  138.6054  154.8746 H   0  0  0  0  0  0  0  0  0  0  0  0
  148.9239  141.4682  155.7157 H   0  0  0  0  0  0  0  0  0  0  0  0
  149.4568  142.3826  154.3183 H   0  0  0  0  0  0  0  0  0  0  0  0
  148.2436  140.8597  152.7760 H   0  0  0  0  0  0  0  0  0  0  0  0
  147.1353  141.4783  153.9912 H   0  0  0  0  0  0  0  0  0  0  0  0
  145.2329  137.8327  150.8303 H   0  0  0  0  0  0  0  0  0  0  0  0
  143.6553  135.4003  152.3713 H   0  0  0  0  0  0  0  0  0  0  0  0
  143.9183  136.1491  150.8035 H   0  0  0  0  0  0  0  0  0  0  0  0
  142.9902  133.3675  150.4418 H   0  0  0  0  0  0  0  0  0  0  0  0
  144.6542  131.3499  149.6620 H   0  0  0  0  0  0  0  0  0  0  0  0
  147.1618  132.3099  150.3460 H   0  0  0  0  0  0  0  0  0  0  0  0
  147.4468  139.5062  155.2349 H   0  0  0  0  0  0  0  0  0  0  0  0
  1  2  1  0  0  0  0
  1 19  1  0  0  0  0
  1 20  1  0  0  0  0
  1 21  1  0  0  0  0
  2  3  1  0  0  0  0
  2 10  1  0  0  0  0
  2 22  1  0  0  0  0
  3  4  1  0  0  0  0
  3 23  1  0  0  0  0
  3 24  1  0  0  0  0
  4  9  1  0  0  0  0
  4  5  1  0  0  0  0
  4 39  1  0  0  0  0
  5  6  1  0  0  0  0
  5 25  1  0  0  0  0
  5 26  1  0  0  0  0
  6  7  1  0  0  0  0
  6 27  1  0  0  0  0
  6 28  1  0  0  0  0
  7  8  1  0  0  0  0
  8  9  1  0  0  0  0
  8 29  1  0  0  0  0
  8 30  1  0  0  0  0
  9 31  1  0  0  0  0
  9 32  1  0  0  0  0
 10 11  1  0  0  0  0
 10 33  1  0  0  0  0
 11 12  2  0  0  0  0
 11 13  1  0  0  0  0
 13 14  1  0  0  0  0
 13 34  1  0  0  0  0
 13 35  1  0  0  0  0
 14 18  1  0  0  0  0
 14 15  1  0  0  0  0
 15 16  2  0  0  0  0
 15 36  1  0  0  0  0
 16 17  1  0  0  0  0
 16 37  1  0  0  0  0
 17 18  2  0  0  0  0
 17 38  1  0  0  0  0
M  CHG  1   4   1
M  END
> <s_m_source_file>
AV-unprocessed.smi

> <i_m_source_file_index>
1936

> <i_lp_mmshare_version>
43012

> <i_f3d_flags>
0

> <s_epik_input>
W0NIMl0xW0NIMl1PW0NIMl1bQ0gyXU4xW0NIMl1bQ0BASF0oW0NIM10pW05IXUMoPU8pW0NIMl1uMltjSF1bY0hdW2NIXW4y

> <s_epik_cmdline>
J2VwaWtfcHl0aG9uJywgJy1waCcsICc3LjAnLCAnLXRuJywgJzgnLCAnLW1hJywgJzIwMCcsICctbWV0YWxfYmluZGluZycsICctaW1hZScsICc8aW5maWxlLm1hZT4nLCAnLW9tYWUnLCAnPG91dGZpbGUubWFlPic=

> <r_lp_tautomer_probability>
1

> <r_epik_Ionization_Penalty>
0.748405

> <r_epik_Ionization_Penalty_Charging>
0.748396

> <r_epik_Ionization_Penalty_Neutral>
9.02181e-06

> <r_epik_State_Penalty>
0.775162

> <r_epik_Charging_Adjusted_Penalty>
1.52356

> <i_epik_Tot_Q>
1

> <i_epik_Tot_abs_Q>
1

> <r_epik_Metal_State_Penalty>
0.775167

> <b_epik_Metal_Only>
0

> <s_lp_Force_Field>
OPLS_2005

> <r_lp_Energy>
20.1582

> <b_lp_Chiralities_Consistent>
1

> <s_lp_Variant>
AV-unprocessed.smi:1936-4

> <Gold.Version>
5.8.1

> <Gold.Id.Protein>
6NUR|6NUR_protein|mol2

> <Gold.PLP.Fitness>
45.1311

> <Gold.PLP.PLP>
-33.7916

> <Gold.PLP.part.hbond>
-2.0000

> <Gold.PLP.part.metal>
0.0000

> <Gold.PLP.part.buried>
-1.3803

> <Gold.PLP.part.nonpolar>
-30.6476

> <Gold.PLP.part.repulsive>
1.5326

> <Gold.PLP.ligand.clash>
0.0000

> <Gold.PLP.ligand.torsion>
0.2764

> <Gold.PLP.Chemscore.Hbond>
1.9440

> <Gold.PLP.Chemscore.CHOScore>
2.0000

> <Gold.PLP.Chemscore.Metal>
0.0000

> <Gold.Chemscore.Hbonds>
donor molecule, donor type, donor heavy atom, donor atom, acceptor molecule, acceptor atom, score
      L1  H    10    33       P1 10171  1.00
      P1  H  7989  7998       L1     7  0.94
      L1  C    15    36       P1 10186  1.00
      L1  C    17    38       P1 10747  1.00

> <Gold.PLP.Chemscore.Internal.Correction>
0.0602

> <Gold.Rescore>
     Score         DG    S(hbond)    S(metal)    S(lipo)     H(rot)  DE(clash)    DE(int)     intcor
     13.10     -16.76       1.90        0.00      84.36       1.93       1.68       1.97       ----

> <Gold.Chemscore.Fitness>
13.1046

> <Gold.Chemscore.DG>
-16.7614

> <Gold.Chemscore.ZeroCoef>
-5.4800

> <Gold.Chemscore.Hbond>
1.9049

> <Gold.Chemscore.Metal>
0.0000

> <Gold.Chemscore.Lipo>
84.3591

> <Gold.Chemscore.Internal_Hbond>
0.0000

> <Gold.Chemscore.DEClash>
1.6837

> <Gold.Chemscore.DEInternal>
1.9731

> <Gold.Chemscore.Rot>
1.9340

> <Gold.Chemscore.Internal.Correction>
   9.000000E+99

> <Gold.Chemscore.Hbonds>
donor molecule, donor type, donor heavy atom, donor atom, acceptor molecule, acceptor atom, score
      L1  H    10    33       P1 10171  1.00
      P1  H  7989  7998       L1     7  0.90

> <Gold.Chemscore.Hbond.Weighted>
-6.3624

> <Gold.Chemscore.Metal.Weighted>
-0.0000

> <Gold.Chemscore.Lipo.Weighted>
-9.8700

> <Gold.Chemscore.Internal_Hbond.Weighted>
0.0000

> <Gold.Chemscore.DEClash.Weighted>
1.6837

> <Gold.Chemscore.DEInternal.Weighted>
1.9731

> <Gold.Chemscore.Rot.Weighted>
4.9510

> <Gold.Chemscore.Internal.Correction.Weighted>
   9.000000E+99

> <Gold.Protein.RotatedTorsions>
[ 6907 6896 6895 6894 ] final   12.43 input  -60.11 | X-H torsion
[ 7974 7965 7964 7962 ] final  139.56 input  175.53 | X-H torsion
[ 8008 7997 7996 7995 ] final  -74.81 input   59.86 | X-H torsion
[ 10167 10162 10161 10158 ] final  -82.75 input  -65.29 | X-H torsion
[ 10718 10713 10712 10709 ] final  134.00 input   66.30 | X-H torsion
[ 10763 10752 10751 10750 ] final   80.67 input  -60.55 | X-H torsion
[ 11005 11000 10999 10996 ] final  -82.55 input  -57.11 | X-H torsion

> <Gold.Protein.ActiveResidues>
 VAL166  LYS551  ARG553  GLY616  TRP617  ASP618  TYR619  PRO620  LYS621  CYS622 
 ASP623  PHE694  ASN695  SER759  ASP760  ASP761  ALA762  ILE779  LEU786  VAL792 
 PHE793  MET794  SER795  GLU796  ALA797  LYS798  CYS799  TRP800  GLU811  SER814 

> <Gold.Protein.RotatedAtoms>
  151.7703  135.0788  160.0358 H   0  0  0  0  0  0  0  0  0  0  0  0  # atno 6907 bound_to 6896
  152.3293  133.5936  159.5807 H   0  0  0  0  0  0  0  0  0  0  0  0  # atno 6908 bound_to 6896
  150.7413  133.9808  159.3617 H   0  0  0  0  0  0  0  0  0  0  0  0  # atno 6909 bound_to 6896
  144.9268  139.5098  143.5637 H   0  0  0  0  0  0  0  0  0  0  0  0  # atno 7974 bound_to 7965
  154.5363  140.0755  156.8433 H   0  0  0  0  0  0  0  0  0  0  0  0  # atno 8008 bound_to 7997
  155.3272  140.3399  155.4222 H   0  0  0  0  0  0  0  0  0  0  0  0  # atno 8009 bound_to 7997
  156.1831  140.1659  156.8223 H   0  0  0  0  0  0  0  0  0  0  0  0  # atno 8010 bound_to 7997
  140.4291  143.2555  151.8785 H   0  0  0  0  0  0  0  0  0  0  0  0  # atno 10167 bound_to 10162
  157.4717  131.1080  150.9794 H   0  0  0  0  0  0  0  0  0  0  0  0  # atno 10718 bound_to 10713
  153.1052  135.4794  154.8939 H   0  0  0  0  0  0  0  0  0  0  0  0  # atno 10763 bound_to 10752
  154.7423  135.3085  154.8709 H   0  0  0  0  0  0  0  0  0  0  0  0  # atno 10764 bound_to 10752
  153.9314  135.6844  153.4799 H   0  0  0  0  0  0  0  0  0  0  0  0  # atno 10765 bound_to 10752
  141.1662  133.7250  156.8588 H   0  0  0  0  0  0  0  0  0  0  0  0  # atno 11005 bound_to 11000
  146.3229  139.8188  142.8931 LP  0  0  0  0  0  0  0  0  0  0  0  0  # atno 17320 bound_to 7965
  145.3207  141.0243  143.3502 LP  0  0  0  0  0  0  0  0  0  0  0  0  # atno 17321 bound_to 7965
  139.4784  144.5354  151.8605 LP  0  0  0  0  0  0  0  0  0  0  0  0  # atno 17342 bound_to 10162
  140.4448  144.1937  150.5893 LP  0  0  0  0  0  0  0  0  0  0  0  0  # atno 17343 bound_to 10162
  157.0557  130.5805  149.5377 LP  0  0  0  0  0  0  0  0  0  0  0  0  # atno 17370 bound_to 10713
  156.0076  130.5165  150.7884 LP  0  0  0  0  0  0  0  0  0  0  0  0  # atno 17371 bound_to 10713
  140.1863  134.8997  157.3008 LP  0  0  0  0  0  0  0  0  0  0  0  0  # atno 17394 bound_to 11000
  140.2339  134.3876  155.7510 LP  0  0  0  0  0  0  0  0  0  0  0  0  # atno 17395 bound_to 11000

$$$$
