AV-unprocessed.smi:606|AV-procd|sdf|3041|dock6
  -GOLD-   2262023563D 1   1.00000     0.00000
 Structure written by MMmdl.
 36 37  0  0  0  0  0  0  0  0  1 V2000
  146.6978  138.5269  152.6651 C   0  0  0  0  0  0  0  0  0  0  0  0
  146.9889  139.7159  153.5151 C   0  0  0  0  0  0  0  0  0  0  0  0
  148.0387  140.0469  154.3250 C   0  0  0  0  0  0  0  0  0  0  0  0
  147.6646  141.3213  154.8288 C   0  0  0  0  0  0  0  0  0  0  0  0
  148.5058  142.0248  155.7284 N   0  0  0  0  0  0  0  0  0  0  0  0
  149.6946  141.6301  156.2158 C   0  0  0  0  0  0  0  0  0  0  0  0
  150.2458  140.5594  155.9576 O   0  0  0  0  0  0  0  0  0  0  0  0
  150.2176  142.5547  157.0354 N   0  0  0  0  0  0  0  0  0  0  0  0
  151.4998  142.4442  157.7286 C   0  0  0  0  0  0  0  0  0  0  0  0
  151.5158  141.1654  158.5960 C   0  0  0  0  0  0  0  0  0  0  0  0
  152.9231  140.7860  159.0871 C   0  0  0  0  0  0  0  0  0  0  0  0
  153.3698  141.4457  160.4037 C   0  0  0  0  0  0  0  0  0  0  0  0
  152.9960  142.9262  160.5951 C   0  0  0  0  0  0  0  0  0  0  0  0
  153.0469  143.7906  159.3251 C   0  0  0  0  0  0  0  0  0  0  0  0
  151.7364  143.7442  158.5201 C   0  0  0  0  0  0  0  0  0  0  0  0
  146.4916  141.7297  154.3695 N   0  0  0  0  0  0  0  0  0  0  0  0
  146.0525  140.7031  153.5255 O   0  0  0  0  0  0  0  0  0  0  0  0
  147.5712  137.8790  152.5887 H   0  0  0  0  0  0  0  0  0  0  0  0
  146.4141  138.8313  151.6574 H   0  0  0  0  0  0  0  0  0  0  0  0
  145.8792  137.9429  153.0858 H   0  0  0  0  0  0  0  0  0  0  0  0
  148.9291  139.4686  154.5220 H   0  0  0  0  0  0  0  0  0  0  0  0
  148.1671  142.9259  156.0312 H   0  0  0  0  0  0  0  0  0  0  0  0
  149.6910  143.4015  157.1927 H   0  0  0  0  0  0  0  0  0  0  0  0
  152.2889  142.3676  156.9780 H   0  0  0  0  0  0  0  0  0  0  0  0
  150.8206  141.2474  159.4325 H   0  0  0  0  0  0  0  0  0  0  0  0
  151.1520  140.3344  157.9899 H   0  0  0  0  0  0  0  0  0  0  0  0
  152.9671  139.7052  159.2264 H   0  0  0  0  0  0  0  0  0  0  0  0
  153.6509  141.0005  158.3037 H   0  0  0  0  0  0  0  0  0  0  0  0
  152.9609  140.8819  161.2428 H   0  0  0  0  0  0  0  0  0  0  0  0
  154.4523  141.3393  160.4825 H   0  0  0  0  0  0  0  0  0  0  0  0
  152.0032  142.9965  161.0407 H   0  0  0  0  0  0  0  0  0  0  0  0
  153.6728  143.3483  161.3388 H   0  0  0  0  0  0  0  0  0  0  0  0
  153.2075  144.8247  159.6317 H   0  0  0  0  0  0  0  0  0  0  0  0
  153.9037  143.5291  158.7031 H   0  0  0  0  0  0  0  0  0  0  0  0
  151.7440  144.5763  157.8148 H   0  0  0  0  0  0  0  0  0  0  0  0
  150.8939  143.9337  159.1870 H   0  0  0  0  0  0  0  0  0  0  0  0
  1  2  1  0  0  0  0
  1 18  1  0  0  0  0
  1 19  1  0  0  0  0
  1 20  1  0  0  0  0
  2 17  1  0  0  0  0
  2  3  2  0  0  0  0
  3  4  1  0  0  0  0
  3 21  1  0  0  0  0
  4  5  1  0  0  0  0
  4 16  2  0  0  0  0
  5  6  1  0  0  0  0
  5 22  1  0  0  0  0
  6  7  2  0  0  0  0
  6  8  1  0  0  0  0
  8  9  1  0  0  0  0
  8 23  1  0  0  0  0
  9 15  1  0  0  0  0
  9 10  1  0  0  0  0
  9 24  1  0  0  0  0
 10 11  1  0  0  0  0
 10 25  1  0  0  0  0
 10 26  1  0  0  0  0
 11 12  1  0  0  0  0
 11 27  1  0  0  0  0
 11 28  1  0  0  0  0
 12 13  1  0  0  0  0
 12 29  1  0  0  0  0
 12 30  1  0  0  0  0
 13 14  1  0  0  0  0
 13 31  1  0  0  0  0
 13 32  1  0  0  0  0
 14 15  1  0  0  0  0
 14 33  1  0  0  0  0
 14 34  1  0  0  0  0
 15 35  1  0  0  0  0
 15 36  1  0  0  0  0
 16 17  1  0  0  0  0
M  END
> <s_m_source_file>
AV-unprocessed.smi

> <i_m_source_file_index>
606

> <i_lp_mmshare_version>
43012

> <i_f3d_flags>
0

> <s_epik_input>
W0NIM11jMVtjSF1jKG5vMSlbTkhdQyg9TylbTkhdW0NIXTJbQ0gyXVtDSDJdW0NIMl1bQ0gyXVtDSDJdW0NIMl0y

> <s_epik_cmdline>
J2VwaWtfcHl0aG9uJywgJy1waCcsICc3LjAnLCAnLXRuJywgJzgnLCAnLW1hJywgJzIwMCcsICctbWV0YWxfYmluZGluZycsICctaW1hZScsICc8aW5maWxlLm1hZT4nLCAnLW9tYWUnLCAnPG91dGZpbGUubWFlPic=

> <r_lp_tautomer_probability>
1

> <r_epik_Ionization_Penalty>
2.39396e-05

> <r_epik_Ionization_Penalty_Charging>
0

> <r_epik_Ionization_Penalty_Neutral>
2.39396e-05

> <r_epik_State_Penalty>
-0

> <r_epik_Charging_Adjusted_Penalty>
0

> <i_epik_Tot_Q>
0

> <i_epik_Tot_abs_Q>
0

> <r_epik_Metal_State_Penalty>
-0

> <b_epik_Metal_Only>
0

> <s_lp_Force_Field>
OPLS_2005

> <r_lp_Energy>
12.5841

> <b_lp_Chiralities_Consistent>
1

> <s_lp_Variant>
AV-unprocessed.smi:606-1

> <Gold.Version>
5.8.1

> <Gold.Id.Protein>
6NUR|6NUR_protein|mol2

> <Gold.PLP.Fitness>
38.8813

> <Gold.PLP.PLP>
-33.4338

> <Gold.PLP.part.hbond>
-2.0000

> <Gold.PLP.part.metal>
0.0000

> <Gold.PLP.part.buried>
-2.0153

> <Gold.PLP.part.nonpolar>
-30.4679

> <Gold.PLP.part.repulsive>
2.0921

> <Gold.PLP.ligand.clash>
0.0000

> <Gold.PLP.ligand.torsion>
0.0071

> <Gold.PLP.Chemscore.Hbond>
1.8160

> <Gold.PLP.Chemscore.CHOScore>
0.0000

> <Gold.PLP.Chemscore.Metal>
0.0000

> <Gold.Chemscore.Hbonds>
donor molecule, donor type, donor heavy atom, donor atom, acceptor molecule, acceptor atom, score
      L1  H     5    22       P1  8028  0.61
      L1  H     8    23       P1  8028  0.36

> <Gold.PLP.Chemscore.Internal.Correction>
0.0137

> <Gold.Rescore>
     Score         DG    S(hbond)    S(metal)    S(lipo)     H(rot)  DE(clash)    DE(int)     intcor
     16.70     -19.91       1.97        0.00      89.04       1.00       0.45       2.76       ----

> <Gold.Chemscore.Fitness>
16.7013

> <Gold.Chemscore.DG>
-19.9090

> <Gold.Chemscore.ZeroCoef>
-5.4800

> <Gold.Chemscore.Hbond>
1.9676

> <Gold.Chemscore.Metal>
0.0000

> <Gold.Chemscore.Lipo>
89.0362

> <Gold.Chemscore.Internal_Hbond>
0.0000

> <Gold.Chemscore.DEClash>
0.4521

> <Gold.Chemscore.DEInternal>
2.7556

> <Gold.Chemscore.Rot>
1.0000

> <Gold.Chemscore.Internal.Correction>
   9.000000E+99

> <Gold.Chemscore.Hbonds>
donor molecule, donor type, donor heavy atom, donor atom, acceptor molecule, acceptor atom, score
      L1  H     5    22       P1  8028  0.47
      L1  H     8    23       P1  8028  0.34

> <Gold.Chemscore.Hbond.Weighted>
-6.5717

> <Gold.Chemscore.Metal.Weighted>
-0.0000

> <Gold.Chemscore.Lipo.Weighted>
-10.4172

> <Gold.Chemscore.Internal_Hbond.Weighted>
0.0000

> <Gold.Chemscore.DEClash.Weighted>
0.4521

> <Gold.Chemscore.DEInternal.Weighted>
2.7556

> <Gold.Chemscore.Rot.Weighted>
2.5600

> <Gold.Chemscore.Internal.Correction.Weighted>
   9.000000E+99

> <Gold.Protein.RotatedTorsions>
[ 6907 6896 6895 6894 ] final  104.80 input  -60.11 | X-H torsion
[ 7974 7965 7964 7962 ] final -120.21 input  175.53 | X-H torsion
[ 8008 7997 7996 7995 ] final   27.14 input   59.86 | X-H torsion
[ 10167 10162 10161 10158 ] final  -96.35 input  -65.29 | X-H torsion
[ 10718 10713 10712 10709 ] final  -56.14 input   66.30 | X-H torsion
[ 10763 10752 10751 10750 ] final -131.15 input  -60.55 | X-H torsion
[ 11005 11000 10999 10996 ] final -128.08 input  -57.11 | X-H torsion

> <Gold.Protein.ActiveResidues>
 VAL166  LYS551  ARG553  GLY616  TRP617  ASP618  TYR619  PRO620  LYS621  CYS622 
 ASP623  PHE694  ASN695  SER759  ASP760  ASP761  ALA762  ILE779  LEU786  VAL792 
 PHE793  MET794  SER795  GLU796  ALA797  LYS798  CYS799  TRP800  GLU811  SER814 

> <Gold.Protein.RotatedAtoms>
  152.5252  133.9622  159.7722 H   0  0  0  0  0  0  0  0  0  0  0  0  # atno 6907 bound_to 6896
  150.9911  133.6141  159.2715 H   0  0  0  0  0  0  0  0  0  0  0  0  # atno 6908 bound_to 6896
  151.3284  135.0842  159.9383 H   0  0  0  0  0  0  0  0  0  0  0  0  # atno 6909 bound_to 6896
  145.0539  140.8239  143.4193 H   0  0  0  0  0  0  0  0  0  0  0  0  # atno 7974 bound_to 7965
  155.0382  140.3166  155.4734 H   0  0  0  0  0  0  0  0  0  0  0  0  # atno 8008 bound_to 7997
  156.2860  140.2168  156.5449 H   0  0  0  0  0  0  0  0  0  0  0  0  # atno 8009 bound_to 7997
  154.7312  140.0481  157.0716 H   0  0  0  0  0  0  0  0  0  0  0  0  # atno 8010 bound_to 7997
  140.2947  143.3199  152.0310 H   0  0  0  0  0  0  0  0  0  0  0  0  # atno 10167 bound_to 10162
  156.1312  130.4159  150.0265 H   0  0  0  0  0  0  0  0  0  0  0  0  # atno 10718 bound_to 10713
  154.8752  135.3839  154.4199 H   0  0  0  0  0  0  0  0  0  0  0  0  # atno 10763 bound_to 10752
  153.4904  135.7030  153.5892 H   0  0  0  0  0  0  0  0  0  0  0  0  # atno 10764 bound_to 10752
  153.4269  135.3888  155.2113 H   0  0  0  0  0  0  0  0  0  0  0  0  # atno 10765 bound_to 10752
  140.9546  134.1019  157.4029 H   0  0  0  0  0  0  0  0  0  0  0  0  # atno 11005 bound_to 11000
  145.1493  139.2524  143.5449 LP  0  0  0  0  0  0  0  0  0  0  0  0  # atno 17320 bound_to 7965
  146.3520  140.1191  142.8601 LP  0  0  0  0  0  0  0  0  0  0  0  0  # atno 17321 bound_to 7965
  139.4929  144.6499  151.6697 LP  0  0  0  0  0  0  0  0  0  0  0  0  # atno 17342 bound_to 10162
  140.5702  144.0121  150.6213 LP  0  0  0  0  0  0  0  0  0  0  0  0  # atno 17343 bound_to 10162
  156.8177  130.9347  151.3642 LP  0  0  0  0  0  0  0  0  0  0  0  0  # atno 17370 bound_to 10713
  157.6490  130.8868  149.9595 LP  0  0  0  0  0  0  0  0  0  0  0  0  # atno 17371 bound_to 10713
  139.8858  135.0076  156.6458 LP  0  0  0  0  0  0  0  0  0  0  0  0  # atno 17394 bound_to 11000
  140.7554  133.8862  155.8378 LP  0  0  0  0  0  0  0  0  0  0  0  0  # atno 17395 bound_to 11000

$$$$
