AV-unprocessed.smi:1969|AV-procd|sdf|7957|dock3
  -GOLD-   2272010123D 1   1.00000     0.00000
 Structure written by MMmdl.
 44 45  0  0  0  0  0  0  0  0  1 V2000
  150.7501  144.8874  159.5527 C   0  0  0  0  0  0  0  0  0  0  0  0
  151.9514  144.4115  158.7165 C   0  0  2  0  0  0  0  0  0  0  0  0
  151.5456  143.6978  157.4120 C   0  0  0  0  0  0  0  0  0  0  0  0
  151.0605  142.3473  157.6822 N   0  0  0  0  0  0  0  0  0  0  0  0
  150.3950  141.7160  156.6096 C   0  0  0  0  0  0  0  0  0  0  0  0
  148.9824  141.7353  156.5415 C   0  0  0  0  0  0  0  0  0  0  0  0
  148.3387  141.1074  155.4588 C   0  0  0  0  0  0  0  0  0  0  0  0
  149.1150  140.4816  154.4648 C   0  0  0  0  0  0  0  0  0  0  0  0
  148.4369  139.8430  153.3918 N   0  0  0  0  0  0  0  0  0  0  0  0
  147.1735  139.3781  153.3490 C   0  0  0  0  0  0  0  0  0  0  0  0
  146.3858  139.4190  154.2930 O   0  0  0  0  0  0  0  0  0  0  0  0
  146.7138  138.7380  152.0348 C   0  0  0  0  0  0  0  0  0  0  0  0
  145.9704  137.5544  152.2922 O   0  0  0  0  0  0  0  0  0  0  0  0
  145.7079  136.8031  151.1177 C   0  0  0  0  0  0  0  0  0  0  0  0
  145.0978  135.4504  151.5041 C   0  0  0  0  0  0  0  0  0  0  0  0
  146.0068  134.7281  152.1572 F   0  0  0  0  0  0  0  0  0  0  0  0
  144.0430  135.6318  152.2982 F   0  0  0  0  0  0  0  0  0  0  0  0
  144.7260  134.7837  150.4116 F   0  0  0  0  0  0  0  0  0  0  0  0
  150.5205  140.4940  154.6267 C   0  0  0  0  0  0  0  0  0  0  0  0
  151.1411  141.0929  155.6651 N   0  0  0  0  0  0  0  0  0  0  0  0
  151.9902  141.5519  158.4793 C   0  0  0  0  0  0  0  0  0  0  0  0
  152.3470  142.2908  159.7815 C   0  0  1  0  0  0  0  0  0  0  0  0
  153.4215  141.5496  160.5839 C   0  0  0  0  0  0  0  0  0  0  0  0
  152.8456  143.5915  159.4723 O   0  0  0  0  0  0  0  0  0  0  0  0
  150.1587  145.6160  158.9978 H   0  0  0  0  0  0  0  0  0  0  0  0
  151.0832  145.3661  160.4736 H   0  0  0  0  0  0  0  0  0  0  0  0
  150.0825  144.0693  159.8220 H   0  0  0  0  0  0  0  0  0  0  0  0
  152.5160  145.3033  158.4433 H   0  0  0  0  0  0  0  0  0  0  0  0
  150.8080  144.3007  156.8841 H   0  0  0  0  0  0  0  0  0  0  0  0
  152.4120  143.6213  156.7540 H   0  0  0  0  0  0  0  0  0  0  0  0
  148.3892  142.2094  157.3094 H   0  0  0  0  0  0  0  0  0  0  0  0
  147.2602  141.1102  155.3950 H   0  0  0  0  0  0  0  0  0  0  0  0
  148.9955  139.6637  152.5696 H   0  0  0  0  0  0  0  0  0  0  0  0
  146.1034  139.4558  151.4848 H   0  0  0  0  0  0  0  0  0  0  0  0
  147.5904  138.5089  151.4270 H   0  0  0  0  0  0  0  0  0  0  0  0
  145.0208  137.3505  150.4703 H   0  0  0  0  0  0  0  0  0  0  0  0
  146.6317  136.6478  150.5580 H   0  0  0  0  0  0  0  0  0  0  0  0
  151.1811  140.0007  153.9312 H   0  0  0  0  0  0  0  0  0  0  0  0
  151.5476  140.5851  158.7227 H   0  0  0  0  0  0  0  0  0  0  0  0
  152.8912  141.3605  157.8944 H   0  0  0  0  0  0  0  0  0  0  0  0
  151.4589  142.3767  160.4079 H   0  0  0  0  0  0  0  0  0  0  0  0
  153.0867  140.5489  160.8574 H   0  0  0  0  0  0  0  0  0  0  0  0
  153.6575  142.0839  161.5044 H   0  0  0  0  0  0  0  0  0  0  0  0
  154.3437  141.4498  160.0109 H   0  0  0  0  0  0  0  0  0  0  0  0
  1  2  1  0  0  0  0
  1 25  1  0  0  0  0
  1 26  1  0  0  0  0
  1 27  1  0  0  0  0
  2 24  1  0  0  0  0
  2  3  1  0  0  0  0
  2 28  1  0  0  0  0
  3  4  1  0  0  0  0
  3 29  1  0  0  0  0
  3 30  1  0  0  0  0
  4  5  1  0  0  0  0
  4 21  1  0  0  0  0
  5 20  1  0  0  0  0
  5  6  2  0  0  0  0
  6  7  1  0  0  0  0
  6 31  1  0  0  0  0
  7  8  2  0  0  0  0
  7 32  1  0  0  0  0
  8  9  1  0  0  0  0
  8 19  1  0  0  0  0
  9 10  1  0  0  0  0
  9 33  1  0  0  0  0
 10 11  2  0  0  0  0
 10 12  1  0  0  0  0
 12 13  1  0  0  0  0
 12 34  1  0  0  0  0
 12 35  1  0  0  0  0
 13 14  1  0  0  0  0
 14 15  1  0  0  0  0
 14 36  1  0  0  0  0
 14 37  1  0  0  0  0
 15 16  1  0  0  0  0
 15 17  1  0  0  0  0
 15 18  1  0  0  0  0
 19 20  2  0  0  0  0
 19 38  1  0  0  0  0
 21 22  1  0  0  0  0
 21 39  1  0  0  0  0
 21 40  1  0  0  0  0
 22 23  1  0  0  0  0
 22 24  1  0  0  0  0
 22 41  1  0  0  0  0
 23 42  1  0  0  0  0
 23 43  1  0  0  0  0
 23 44  1  0  0  0  0
M  END
> <s_m_source_file>
AV-unprocessed.smi

> <i_m_source_file_index>
1969

> <i_lp_mmshare_version>
43012

> <i_f3d_flags>
0

> <s_epik_input>
W0NIM11bQ0BASF0xW0NIMl1OKFtDSDJdW0NASF0oTzEpW0NIM10pYzJbY0hdW2NIXWMoW2NIXW4yKVtOSF1DKD1PKVtDSDJdT1tDSDJdQyhGKShGKUY=

> <s_epik_cmdline>
J2VwaWtfcHl0aG9uJywgJy1waCcsICc3LjAnLCAnLXRuJywgJzgnLCAnLW1hJywgJzIwMCcsICctbWV0YWxfYmluZGluZycsICctaW1hZScsICc8aW5maWxlLm1hZT4nLCAnLW9tYWUnLCAnPG91dGZpbGUubWFlPic=

> <r_lp_tautomer_probability>
1

> <r_epik_Ionization_Penalty>
0.000531129

> <r_epik_Ionization_Penalty_Charging>
0

> <r_epik_Ionization_Penalty_Neutral>
0.000531129

> <r_epik_State_Penalty>
0.000331002

> <r_epik_Charging_Adjusted_Penalty>
0.000331002

> <i_epik_Tot_Q>
0

> <i_epik_Tot_abs_Q>
0

> <r_epik_Metal_State_Penalty>
-0

> <b_epik_Metal_Only>
0

> <s_lp_Force_Field>
OPLS_2005

> <r_lp_Energy>
25.1949

> <b_lp_Chiralities_Consistent>
1

> <s_lp_Variant>
AV-unprocessed.smi:1969-1

> <Gold.Version>
5.8.1

> <Gold.Id.Protein>
6NUR|6NUR_protein|mol2

> <Gold.PLP.Fitness>
48.6869

> <Gold.PLP.PLP>
-46.9226

> <Gold.PLP.part.hbond>
-2.0000

> <Gold.PLP.part.metal>
0.0000

> <Gold.PLP.part.buried>
-0.5820

> <Gold.PLP.part.nonpolar>
-45.6115

> <Gold.PLP.part.repulsive>
0.5962

> <Gold.PLP.ligand.clash>
0.0000

> <Gold.PLP.ligand.torsion>
0.7907

> <Gold.PLP.Chemscore.Hbond>
1.0000

> <Gold.PLP.Chemscore.CHOScore>
0.0000

> <Gold.PLP.Chemscore.Metal>
0.0000

> <Gold.Chemscore.Hbonds>
donor molecule, donor type, donor heavy atom, donor atom, acceptor molecule, acceptor atom, score
      L1  H     9    33       P1  7957  1.00

> <Gold.PLP.Chemscore.Internal.Correction>
0.3456

> <Gold.Rescore>
     Score         DG    S(hbond)    S(metal)    S(lipo)     H(rot)  DE(clash)    DE(int)     intcor
     13.16     -16.50       1.00        0.00     108.31       1.94       1.40       1.94       ----

> <Gold.Chemscore.Fitness>
13.1626

> <Gold.Chemscore.DG>
-16.5049

> <Gold.Chemscore.ZeroCoef>
-5.4800

> <Gold.Chemscore.Hbond>
0.9968

> <Gold.Chemscore.Metal>
0.0000

> <Gold.Chemscore.Lipo>
108.3053

> <Gold.Chemscore.Internal_Hbond>
0.0000

> <Gold.Chemscore.DEClash>
1.3976

> <Gold.Chemscore.DEInternal>
1.9448

> <Gold.Chemscore.Rot>
1.9438

> <Gold.Chemscore.Internal.Correction>
   9.000000E+99

> <Gold.Chemscore.Hbonds>
donor molecule, donor type, donor heavy atom, donor atom, acceptor molecule, acceptor atom, score
      L1  H     9    33       P1  7957  0.95

> <Gold.Chemscore.Hbond.Weighted>
-3.3293

> <Gold.Chemscore.Metal.Weighted>
-0.0000

> <Gold.Chemscore.Lipo.Weighted>
-12.6717

> <Gold.Chemscore.Internal_Hbond.Weighted>
0.0000

> <Gold.Chemscore.DEClash.Weighted>
1.3976

> <Gold.Chemscore.DEInternal.Weighted>
1.9448

> <Gold.Chemscore.Rot.Weighted>
4.9761

> <Gold.Chemscore.Internal.Correction.Weighted>
   9.000000E+99

> <Gold.Protein.RotatedTorsions>
[ 6907 6896 6895 6894 ] final   68.26 input  -60.11 | X-H torsion
[ 7974 7965 7964 7962 ] final  151.91 input  175.53 | X-H torsion
[ 8008 7997 7996 7995 ] final  150.47 input   59.86 | X-H torsion
[ 10167 10162 10161 10158 ] final   46.69 input  -65.29 | X-H torsion
[ 10718 10713 10712 10709 ] final -148.74 input   66.30 | X-H torsion
[ 10763 10752 10751 10750 ] final   -3.54 input  -60.55 | X-H torsion
[ 11005 11000 10999 10996 ] final -111.41 input  -57.11 | X-H torsion

> <Gold.Protein.ActiveResidues>
 VAL166  LYS551  ARG553  GLY616  TRP617  ASP618  TYR619  PRO620  LYS621  CYS622 
 ASP623  PHE694  ASN695  SER759  ASP760  ASP761  ALA762  ILE779  LEU786  VAL792 
 PHE793  MET794  SER795  GLU796  ALA797  LYS798  CYS799  TRP800  GLU811  SER814 

> <Gold.Protein.RotatedAtoms>
  152.4608  134.5188  159.9775 H   0  0  0  0  0  0  0  0  0  0  0  0  # atno 6907 bound_to 6896
  151.5237  133.3456  159.2914 H   0  0  0  0  0  0  0  0  0  0  0  0  # atno 6908 bound_to 6896
  150.8570  134.7942  159.7116 H   0  0  0  0  0  0  0  0  0  0  0  0  # atno 6909 bound_to 6896
  144.8259  139.6600  143.6080 H   0  0  0  0  0  0  0  0  0  0  0  0  # atno 7974 bound_to 7965
  156.2714  140.2074  156.6023 H   0  0  0  0  0  0  0  0  0  0  0  0  # atno 8008 bound_to 7997
  154.6897  140.0531  157.0374 H   0  0  0  0  0  0  0  0  0  0  0  0  # atno 8009 bound_to 7997
  155.0884  140.3194  155.4584 H   0  0  0  0  0  0  0  0  0  0  0  0  # atno 8010 bound_to 7997
  140.3114  144.2816  150.6199 H   0  0  0  0  0  0  0  0  0  0  0  0  # atno 10167 bound_to 10162
  156.4242  130.8043  151.2268 H   0  0  0  0  0  0  0  0  0  0  0  0  # atno 10718 bound_to 10713
  153.3728  135.6995  153.6625 H   0  0  0  0  0  0  0  0  0  0  0  0  # atno 10763 bound_to 10752
  153.5268  135.3600  155.2658 H   0  0  0  0  0  0  0  0  0  0  0  0  # atno 10764 bound_to 10752
  154.8683  135.4171  154.3010 H   0  0  0  0  0  0  0  0  0  0  0  0  # atno 10765 bound_to 10752
  141.0735  133.9339  157.2436 H   0  0  0  0  0  0  0  0  0  0  0  0  # atno 11005 bound_to 11000
  146.2564  139.6312  142.9392 LP  0  0  0  0  0  0  0  0  0  0  0  0  # atno 17320 bound_to 7965
  145.5002  141.0437  143.2545 LP  0  0  0  0  0  0  0  0  0  0  0  0  # atno 17321 bound_to 7965
  140.5565  143.2198  151.7838 LP  0  0  0  0  0  0  0  0  0  0  0  0  # atno 17342 bound_to 10162
  139.4893  144.4407  151.9768 LP  0  0  0  0  0  0  0  0  0  0  0  0  # atno 17343 bound_to 10162
  157.7508  131.0219  150.3768 LP  0  0  0  0  0  0  0  0  0  0  0  0  # atno 17370 bound_to 10713
  156.4091  130.3930  149.6904 LP  0  0  0  0  0  0  0  0  0  0  0  0  # atno 17371 bound_to 10713
  139.9548  135.0168  156.9097 LP  0  0  0  0  0  0  0  0  0  0  0  0  # atno 17394 bound_to 11000
  140.5622  134.0524  155.7402 LP  0  0  0  0  0  0  0  0  0  0  0  0  # atno 17395 bound_to 11000

$$$$
