AV-unprocessed.smi:886|AV-procd|sdf|4051|dock1
  -GOLD-   22720 1533D 1   1.00000     0.00000
 Structure written by MMmdl.
 35 37  0  0  0  0  0  0  0  0  1 V2000
  155.1482  140.2008  161.0871 C   0  0  0  0  0  0  0  0  0  0  0  0
  154.1706  141.1538  160.5853 N   0  0  0  0  0  0  0  0  0  0  0  0
  153.4062  140.9512  159.5011 C   0  0  0  0  0  0  0  0  0  0  0  0
  153.4722  139.9342  158.8093 O   0  0  0  0  0  0  0  0  0  0  0  0
  152.4695  142.0808  159.1551 C   0  0  0  0  0  0  0  0  0  0  0  0
  152.6357  143.3391  159.7804 C   0  0  0  0  0  0  0  0  0  0  0  0
  151.7482  144.3878  159.4805 C   0  0  0  0  0  0  0  0  0  0  0  0
  150.7127  144.1400  158.5637 C   0  0  0  0  0  0  0  0  0  0  0  0
  150.5323  142.9474  157.9620 N   0  0  0  0  0  0  0  0  0  0  0  0
  151.3820  141.9300  158.2461 C   0  0  0  0  0  0  0  0  0  0  0  0
  151.1635  140.7122  157.5777 N   0  0  0  0  0  0  0  0  0  0  0  0
  151.2754  140.6339  156.1241 C   0  0  1  0  0  0  0  0  0  0  0  0
  152.1883  139.4963  155.6596 C   0  0  0  0  0  0  0  0  0  0  0  0
  151.2722  138.7282  154.6969 C   0  0  1  0  0  0  0  0  0  0  0  0
  150.2107  137.9198  155.4546 C   0  0  0  0  0  0  0  0  0  0  0  0
  149.2680  139.0208  155.9355 C   0  0  0  0  0  0  0  0  0  0  0  0
  149.9579  140.2873  155.4000 C   0  0  2  0  0  0  0  0  0  0  0  0
  150.4783  139.7838  154.1812 O   0  0  0  0  0  0  0  0  0  0  0  0
  155.6239  140.5940  161.9854 H   0  0  0  0  0  0  0  0  0  0  0  0
  155.9247  140.0140  160.3442 H   0  0  0  0  0  0  0  0  0  0  0  0
  154.6722  139.2525  161.3403 H   0  0  0  0  0  0  0  0  0  0  0  0
  154.0689  142.0221  161.0907 H   0  0  0  0  0  0  0  0  0  0  0  0
  153.4317  143.5067  160.4917 H   0  0  0  0  0  0  0  0  0  0  0  0
  151.8569  145.3567  159.9445 H   0  0  0  0  0  0  0  0  0  0  0  0
  150.0107  144.9191  158.3066 H   0  0  0  0  0  0  0  0  0  0  0  0
  150.5343  140.0564  158.0186 H   0  0  0  0  0  0  0  0  0  0  0  0
  151.6710  141.5740  155.7367 H   0  0  0  0  0  0  0  0  0  0  0  0
  153.0542  139.8990  155.1333 H   0  0  0  0  0  0  0  0  0  0  0  0
  152.5513  138.8628  156.4702 H   0  0  0  0  0  0  0  0  0  0  0  0
  151.8069  138.1546  153.9396 H   0  0  0  0  0  0  0  0  0  0  0  0
  149.6893  137.2345  154.7853 H   0  0  0  0  0  0  0  0  0  0  0  0
  150.6371  137.3402  156.2741 H   0  0  0  0  0  0  0  0  0  0  0  0
  148.2846  138.9013  155.4795 H   0  0  0  0  0  0  0  0  0  0  0  0
  149.1349  139.0277  157.0172 H   0  0  0  0  0  0  0  0  0  0  0  0
  149.2839  141.1355  155.2771 H   0  0  0  0  0  0  0  0  0  0  0  0
  1  2  1  0  0  0  0
  1 19  1  0  0  0  0
  1 20  1  0  0  0  0
  1 21  1  0  0  0  0
  2  3  1  0  0  0  0
  2 22  1  0  0  0  0
  3  4  2  0  0  0  0
  3  5  1  0  0  0  0
  5 10  1  0  0  0  0
  5  6  2  0  0  0  0
  6  7  1  0  0  0  0
  6 23  1  0  0  0  0
  7  8  2  0  0  0  0
  7 24  1  0  0  0  0
  8  9  1  0  0  0  0
  8 25  1  0  0  0  0
  9 10  2  0  0  0  0
 10 11  1  0  0  0  0
 11 12  1  0  0  0  0
 11 26  1  0  0  0  0
 12 17  1  0  0  0  0
 12 13  1  0  0  0  0
 12 27  1  0  0  0  0
 13 14  1  0  0  0  0
 13 28  1  0  0  0  0
 13 29  1  0  0  0  0
 14 18  1  0  0  0  0
 14 15  1  0  0  0  0
 14 30  1  0  0  0  0
 15 16  1  0  0  0  0
 15 31  1  0  0  0  0
 15 32  1  0  0  0  0
 16 17  1  0  0  0  0
 16 33  1  0  0  0  0
 16 34  1  0  0  0  0
 17 18  1  0  0  0  0
 17 35  1  0  0  0  0
M  END
> <s_m_source_file>
AV-unprocessed.smi

> <i_m_source_file_index>
886

> <i_lp_mmshare_version>
43012

> <i_f3d_flags>
0

> <s_epik_input>
W0NIM11bTkhdQyg9TyljMVtjSF1bY0hdW2NIXW5jMVtOSF1bQ0BIXShbQ0gyXVtDQEhdMjMpW0NASF0oTzMpW0NIMl1bQ0gyXTI=

> <s_epik_cmdline>
J2VwaWtfcHl0aG9uJywgJy1waCcsICc3LjAnLCAnLXRuJywgJzgnLCAnLW1hJywgJzIwMCcsICctbWV0YWxfYmluZGluZycsICctaW1hZScsICc8aW5maWxlLm1hZT4nLCAnLW9tYWUnLCAnPG91dGZpbGUubWFlPic=

> <r_lp_tautomer_probability>
1

> <r_epik_Ionization_Penalty>
0.0065447

> <r_epik_Ionization_Penalty_Charging>
0

> <r_epik_Ionization_Penalty_Neutral>
0.0065447

> <r_epik_State_Penalty>
0.00484214

> <r_epik_Charging_Adjusted_Penalty>
0.00484214

> <i_epik_Tot_Q>
0

> <i_epik_Tot_abs_Q>
0

> <r_epik_Metal_State_Penalty>
-0

> <b_epik_Metal_Only>
0

> <s_lp_Force_Field>
OPLS_2005

> <r_lp_Energy>
46.6605

> <b_lp_Chiralities_Consistent>
1

> <s_lp_Variant>
AV-unprocessed.smi:886-4

> <Gold.Version>
5.8.1

> <Gold.Id.Protein>
6NUR|6NUR_protein|mol2

> <Gold.PLP.Fitness>
42.9844

> <Gold.PLP.PLP>
-35.3339

> <Gold.PLP.part.hbond>
-2.0000

> <Gold.PLP.part.metal>
0.0000

> <Gold.PLP.part.buried>
-6.2518

> <Gold.PLP.part.nonpolar>
-29.1074

> <Gold.PLP.part.repulsive>
0.8741

> <Gold.PLP.ligand.clash>
0.0000

> <Gold.PLP.ligand.torsion>
0.7450

> <Gold.PLP.Chemscore.Hbond>
2.0000

> <Gold.PLP.Chemscore.CHOScore>
1.0394

> <Gold.PLP.Chemscore.Metal>
0.0000

> <Gold.Chemscore.Hbonds>
donor molecule, donor type, donor heavy atom, donor atom, acceptor molecule, acceptor atom, score
      P1  H  7989  7998       L1    18  1.00
      P1  H  7997  8009       L1     4  0.88
      L1  C     8    25       P1  8028  0.06
      L1  C     8    25       P1  8029  0.93

> <Gold.PLP.Chemscore.Internal.Correction>
0.0223

> <Gold.Rescore>
     Score         DG    S(hbond)    S(metal)    S(lipo)     H(rot)  DE(clash)    DE(int)     intcor
     17.35     -18.19       1.50        0.00      87.61       1.00       0.02       0.81       ----

> <Gold.Chemscore.Fitness>
17.3543

> <Gold.Chemscore.DG>
-18.1922

> <Gold.Chemscore.ZeroCoef>
-5.4800

> <Gold.Chemscore.Hbond>
1.5035

> <Gold.Chemscore.Metal>
0.0000

> <Gold.Chemscore.Lipo>
87.6122

> <Gold.Chemscore.Internal_Hbond>
0.0000

> <Gold.Chemscore.DEClash>
0.0234

> <Gold.Chemscore.DEInternal>
0.8146

> <Gold.Chemscore.Rot>
1.0000

> <Gold.Chemscore.Internal.Correction>
   9.000000E+99

> <Gold.Chemscore.Hbonds>
donor molecule, donor type, donor heavy atom, donor atom, acceptor molecule, acceptor atom, score
      P1  H  7989  7998       L1    18  0.37
      P1  H  7997  8009       L1     4  0.77

> <Gold.Chemscore.Hbond.Weighted>
-5.0216

> <Gold.Chemscore.Metal.Weighted>
-0.0000

> <Gold.Chemscore.Lipo.Weighted>
-10.2506

> <Gold.Chemscore.Internal_Hbond.Weighted>
0.0000

> <Gold.Chemscore.DEClash.Weighted>
0.0234

> <Gold.Chemscore.DEInternal.Weighted>
0.8146

> <Gold.Chemscore.Rot.Weighted>
2.5600

> <Gold.Chemscore.Internal.Correction.Weighted>
   9.000000E+99

> <Gold.Protein.RotatedTorsions>
[ 6907 6896 6895 6894 ] final -129.72 input  -60.11 | X-H torsion
[ 7974 7965 7964 7962 ] final   85.97 input  175.53 | X-H torsion
[ 8008 7997 7996 7995 ] final  149.22 input   59.86 | X-H torsion
[ 10167 10162 10161 10158 ] final   73.17 input  -65.29 | X-H torsion
[ 10718 10713 10712 10709 ] final  127.32 input   66.30 | X-H torsion
[ 10763 10752 10751 10750 ] final  137.40 input  -60.55 | X-H torsion
[ 11005 11000 10999 10996 ] final   75.86 input  -57.11 | X-H torsion

> <Gold.Protein.ActiveResidues>
 VAL166  LYS551  ARG553  GLY616  TRP617  ASP618  TYR619  PRO620  LYS621  CYS622 
 ASP623  PHE694  ASN695  SER759  ASP760  ASP761  ALA762  ILE779  LEU786  VAL792 
 PHE793  MET794  SER795  GLU796  ALA797  LYS798  CYS799  TRP800  GLU811  SER814 

> <Gold.Protein.RotatedAtoms>
  150.9318  133.6758  159.2809 H   0  0  0  0  0  0  0  0  0  0  0  0  # atno 6907 bound_to 6896
  151.4178  135.0992  159.9614 H   0  0  0  0  0  0  0  0  0  0  0  0  # atno 6908 bound_to 6896
  152.5029  133.8776  159.7385 H   0  0  0  0  0  0  0  0  0  0  0  0  # atno 6909 bound_to 6896
  145.5785  139.2322  143.2366 H   0  0  0  0  0  0  0  0  0  0  0  0  # atno 7974 bound_to 7965
  156.2763  140.2107  156.5823 H   0  0  0  0  0  0  0  0  0  0  0  0  # atno 8008 bound_to 7997
  154.7048  140.0517  157.0517 H   0  0  0  0  0  0  0  0  0  0  0  0  # atno 8009 bound_to 7997
  155.0685  140.3174  155.4641 H   0  0  0  0  0  0  0  0  0  0  0  0  # atno 8010 bound_to 7997
  140.0273  144.5493  150.7534 H   0  0  0  0  0  0  0  0  0  0  0  0  # atno 10167 bound_to 10162
  157.5343  131.1098  150.8961 H   0  0  0  0  0  0  0  0  0  0  0  0  # atno 10718 bound_to 10713
  153.8725  135.3054  155.3442 H   0  0  0  0  0  0  0  0  0  0  0  0  # atno 10763 bound_to 10752
  154.7799  135.4841  153.9826 H   0  0  0  0  0  0  0  0  0  0  0  0  # atno 10764 bound_to 10752
  153.1398  135.6821  153.9141 H   0  0  0  0  0  0  0  0  0  0  0  0  # atno 10765 bound_to 10752
  139.9324  134.7553  156.1323 H   0  0  0  0  0  0  0  0  0  0  0  0  # atno 11005 bound_to 11000
  146.1733  140.6612  142.9223 LP  0  0  0  0  0  0  0  0  0  0  0  0  # atno 17320 bound_to 7965
  144.7405  140.4928  143.6873 LP  0  0  0  0  0  0  0  0  0  0  0  0  # atno 17321 bound_to 7965
  140.7317  143.2697  151.3928 LP  0  0  0  0  0  0  0  0  0  0  0  0  # atno 17342 bound_to 10162
  139.6099  144.1119  152.2288 LP  0  0  0  0  0  0  0  0  0  0  0  0  # atno 17343 bound_to 10162
  156.9533  130.5428  149.5283 LP  0  0  0  0  0  0  0  0  0  0  0  0  # atno 17370 bound_to 10713
  156.0446  130.5524  150.8851 LP  0  0  0  0  0  0  0  0  0  0  0  0  # atno 17371 bound_to 10713
  141.0920  133.6710  156.2562 LP  0  0  0  0  0  0  0  0  0  0  0  0  # atno 17394 bound_to 11000
  140.6165  134.5405  157.5541 LP  0  0  0  0  0  0  0  0  0  0  0  0  # atno 17395 bound_to 11000

$$$$
