AV-unprocessed.smi:1718|AV-procd|sdf|6922|dock2
  -GOLD-   22720 8123D 1   1.00000     0.00000
 Structure written by MMmdl.
 40 41  0  0  0  0  0  0  0  0  1 V2000
  151.8238  137.7829  154.0588 C   0  0  0  0  0  0  0  0  0  0  0  0
  151.0146  138.7780  154.9042 C   0  0  2  0  0  0  0  0  0  0  0  0
  150.5049  139.7729  154.0213 O   0  0  0  0  0  0  0  0  0  0  0  0
  149.4992  140.6212  154.5666 C   0  0  0  0  0  0  0  0  0  0  0  0
  148.2612  140.5925  153.6596 C   0  0  2  0  0  0  0  0  0  0  0  0
  146.9912  141.1833  154.2910 C   0  0  0  0  0  0  0  0  0  0  0  0
  146.0752  139.9834  154.4334 C   0  0  0  0  0  0  0  0  0  0  0  0
  146.5455  139.0841  153.2985 C   0  0  0  0  0  0  0  0  0  0  0  0
  147.9552  139.2425  153.3202 O   0  0  0  0  0  0  0  0  0  0  0  0
  151.8817  139.4289  155.9943 C   0  0  0  0  0  0  0  0  0  0  0  0
  153.1075  139.3455  155.9229 O   0  0  0  0  0  0  0  0  0  0  0  0
  151.2015  140.0585  156.9730 N   0  0  0  0  0  0  0  0  0  0  0  0
  151.6845  140.7913  158.0702 C   0  0  0  0  0  0  0  0  0  0  0  0
  151.4550  142.1132  158.2856 C   0  0  0  0  0  0  0  0  0  0  0  0
  151.9714  142.8059  159.4537 C   0  0  0  0  0  0  0  0  0  0  0  0
  151.7683  144.3016  159.6391 C   0  0  0  0  0  0  0  0  0  0  0  0
  152.1824  144.7055  160.8409 F   0  0  0  0  0  0  0  0  0  0  0  0
  152.4372  144.9885  158.7129 F   0  0  0  0  0  0  0  0  0  0  0  0
  150.4754  144.6005  159.5220 F   0  0  0  0  0  0  0  0  0  0  0  0
  152.6986  142.0709  160.3153 C   0  0  0  0  0  0  0  0  0  0  0  0
  152.9214  140.7070  160.1125 N   0  0  0  0  0  0  0  0  0  0  0  0
  152.4618  140.0117  159.0481 C   0  0  0  0  0  0  0  0  0  0  0  0
  152.7001  138.8091  158.9423 O   0  0  0  0  0  0  0  0  0  0  0  0
  153.4634  140.2216  160.8129 H   0  0  0  0  0  0  0  0  0  0  0  0
  152.2603  136.9987  154.6783 H   0  0  0  0  0  0  0  0  0  0  0  0
  152.6342  138.2772  153.5214 H   0  0  0  0  0  0  0  0  0  0  0  0
  151.1866  137.3002  153.3176 H   0  0  0  0  0  0  0  0  0  0  0  0
  150.1830  138.2383  155.3618 H   0  0  0  0  0  0  0  0  0  0  0  0
  149.2302  140.2726  155.5647 H   0  0  0  0  0  0  0  0  0  0  0  0
  149.8531  141.6479  154.6645 H   0  0  0  0  0  0  0  0  0  0  0  0
  148.4827  141.1280  152.7355 H   0  0  0  0  0  0  0  0  0  0  0  0
  147.1703  141.6843  155.2432 H   0  0  0  0  0  0  0  0  0  0  0  0
  146.5460  141.9118  153.6124 H   0  0  0  0  0  0  0  0  0  0  0  0
  146.2490  139.4932  155.3921 H   0  0  0  0  0  0  0  0  0  0  0  0
  145.0178  140.2404  154.3657 H   0  0  0  0  0  0  0  0  0  0  0  0
  146.2558  138.0423  153.4360 H   0  0  0  0  0  0  0  0  0  0  0  0
  146.1544  139.4293  152.3403 H   0  0  0  0  0  0  0  0  0  0  0  0
  150.1951  139.9827  156.9322 H   0  0  0  0  0  0  0  0  0  0  0  0
  150.8575  142.6943  157.6028 H   0  0  0  0  0  0  0  0  0  0  0  0
  153.1631  142.4613  161.2088 H   0  0  0  0  0  0  0  0  0  0  0  0
  1  2  1  0  0  0  0
  1 25  1  0  0  0  0
  1 26  1  0  0  0  0
  1 27  1  0  0  0  0
  2  3  1  0  0  0  0
  2 10  1  0  0  0  0
  2 28  1  0  0  0  0
  3  4  1  0  0  0  0
  4  5  1  0  0  0  0
  4 29  1  0  0  0  0
  4 30  1  0  0  0  0
  5  9  1  0  0  0  0
  5  6  1  0  0  0  0
  5 31  1  0  0  0  0
  6  7  1  0  0  0  0
  6 32  1  0  0  0  0
  6 33  1  0  0  0  0
  7  8  1  0  0  0  0
  7 34  1  0  0  0  0
  7 35  1  0  0  0  0
  8  9  1  0  0  0  0
  8 36  1  0  0  0  0
  8 37  1  0  0  0  0
 10 11  2  0  0  0  0
 10 12  1  0  0  0  0
 12 13  1  0  0  0  0
 12 38  1  0  0  0  0
 13 22  1  0  0  0  0
 13 14  2  0  0  0  0
 14 15  1  0  0  0  0
 14 39  1  0  0  0  0
 15 16  1  0  0  0  0
 15 20  2  0  0  0  0
 16 17  1  0  0  0  0
 16 18  1  0  0  0  0
 16 19  1  0  0  0  0
 20 21  1  0  0  0  0
 20 40  1  0  0  0  0
 21 24  1  0  0  0  0
 21 22  1  0  0  0  0
 22 23  2  0  0  0  0
M  END
> <s_m_source_file>
AV-unprocessed.smi

> <i_m_source_file_index>
1718

> <i_lp_mmshare_version>
43012

> <i_f3d_flags>
0

> <s_epik_input>
TzFbQ0gyXVtDSDJdW0NIMl1bQ0BIXTFbQ0gyXU9bQ0BASF0oW0NIM10pQyg9TylbTkhdYzJbY0hdYyhDKEYpKEYpRilbY0hdW25IXWMyPU8=

> <s_epik_cmdline>
J2VwaWtfcHl0aG9uJywgJy1waCcsICc3LjAnLCAnLXRuJywgJzgnLCAnLW1hJywgJzIwMCcsICctbWV0YWxfYmluZGluZycsICctaW1hZScsICc8aW5maWxlLm1hZT4nLCAnLW9tYWUnLCAnPG91dGZpbGUubWFlPic=

> <r_lp_tautomer_probability>
0.999

> <r_epik_Ionization_Penalty>
0.00894336

> <r_epik_Ionization_Penalty_Charging>
0.00894326

> <r_epik_Ionization_Penalty_Neutral>
1.00145e-07

> <r_epik_State_Penalty>
0.00676626

> <r_epik_Charging_Adjusted_Penalty>
0.0157095

> <i_epik_Tot_Q>
0

> <i_epik_Tot_abs_Q>
0

> <r_epik_Metal_State_Penalty>
0.321145

> <b_epik_Metal_Only>
0

> <s_lp_Force_Field>
OPLS_2005

> <r_lp_Energy>
34.6519

> <b_lp_Chiralities_Consistent>
1

> <s_lp_Variant>
AV-unprocessed.smi:1718-1

> <Gold.Version>
5.8.1

> <Gold.Id.Protein>
6NUR|6NUR_protein|mol2

> <Gold.PLP.Fitness>
48.5061

> <Gold.PLP.PLP>
-46.2976

> <Gold.PLP.part.hbond>
-1.7607

> <Gold.PLP.part.metal>
0.0000

> <Gold.PLP.part.buried>
-7.3206

> <Gold.PLP.part.nonpolar>
-38.3100

> <Gold.PLP.part.repulsive>
1.0446

> <Gold.PLP.ligand.clash>
0.5210

> <Gold.PLP.ligand.torsion>
1.7690

> <Gold.PLP.Chemscore.Hbond>
1.9760

> <Gold.PLP.Chemscore.CHOScore>
0.0000

> <Gold.PLP.Chemscore.Metal>
0.0000

> <Gold.Chemscore.Hbonds>
donor molecule, donor type, donor heavy atom, donor atom, acceptor molecule, acceptor atom, score
      P1  H  7989  7998       L1     3  1.00
      P1  H  7997  8009       L1    11  1.00

> <Gold.PLP.Chemscore.Internal.Correction>
0.3396

> <Gold.Rescore>
     Score         DG    S(hbond)    S(metal)    S(lipo)     H(rot)  DE(clash)    DE(int)     intcor
     13.58     -16.02       1.63        0.00      84.79       1.88       0.12       2.33       ----

> <Gold.Chemscore.Fitness>
13.5752

> <Gold.Chemscore.DG>
-16.0248

> <Gold.Chemscore.ZeroCoef>
-5.4800

> <Gold.Chemscore.Hbond>
1.6271

> <Gold.Chemscore.Metal>
0.0000

> <Gold.Chemscore.Lipo>
84.7899

> <Gold.Chemscore.Internal_Hbond>
0.0000

> <Gold.Chemscore.DEClash>
0.1191

> <Gold.Chemscore.DEInternal>
2.3304

> <Gold.Chemscore.Rot>
1.8790

> <Gold.Chemscore.Internal.Correction>
   9.000000E+99

> <Gold.Chemscore.Hbonds>
donor molecule, donor type, donor heavy atom, donor atom, acceptor molecule, acceptor atom, score
      P1  H  7989  7998       L1     3  0.31
      P1  H  7997  8009       L1    11  0.92

> <Gold.Chemscore.Hbond.Weighted>
-5.4345

> <Gold.Chemscore.Metal.Weighted>
-0.0000

> <Gold.Chemscore.Lipo.Weighted>
-9.9204

> <Gold.Chemscore.Internal_Hbond.Weighted>
0.0000

> <Gold.Chemscore.DEClash.Weighted>
0.1191

> <Gold.Chemscore.DEInternal.Weighted>
2.3304

> <Gold.Chemscore.Rot.Weighted>
4.8102

> <Gold.Chemscore.Internal.Correction.Weighted>
   9.000000E+99

> <Gold.Protein.RotatedTorsions>
[ 6907 6896 6895 6894 ] final   89.07 input  -60.11 | X-H torsion
[ 7974 7965 7964 7962 ] final   79.62 input  175.53 | X-H torsion
[ 8008 7997 7996 7995 ] final -174.10 input   59.86 | X-H torsion
[ 10167 10162 10161 10158 ] final  -63.27 input  -65.29 | X-H torsion
[ 10718 10713 10712 10709 ] final    2.34 input   66.30 | X-H torsion
[ 10763 10752 10751 10750 ] final  -86.37 input  -60.55 | X-H torsion
[ 11005 11000 10999 10996 ] final -170.32 input  -57.11 | X-H torsion

> <Gold.Protein.ActiveResidues>
 VAL166  LYS551  ARG553  GLY616  TRP617  ASP618  TYR619  PRO620  LYS621  CYS622 
 ASP623  PHE694  ASN695  SER759  ASP760  ASP761  ALA762  ILE779  LEU786  VAL792 
 PHE793  MET794  SER795  GLU796  ALA797  LYS798  CYS799  TRP800  GLU811  SER814 

> <Gold.Protein.RotatedAtoms>
  152.5432  134.2023  159.8716 H   0  0  0  0  0  0  0  0  0  0  0  0  # atno 6907 bound_to 6896
  151.2011  133.4603  159.2604 H   0  0  0  0  0  0  0  0  0  0  0  0  # atno 6908 bound_to 6896
  151.0988  134.9972  159.8494 H   0  0  0  0  0  0  0  0  0  0  0  0  # atno 6909 bound_to 6896
  145.6618  139.2473  143.1918 H   0  0  0  0  0  0  0  0  0  0  0  0  # atno 7974 bound_to 7965
  155.9658  140.1153  157.0856 H   0  0  0  0  0  0  0  0  0  0  0  0  # atno 8008 bound_to 7997
  154.4143  140.1173  156.5307 H   0  0  0  0  0  0  0  0  0  0  0  0  # atno 8009 bound_to 7997
  155.6661  140.3473  155.4803 H   0  0  0  0  0  0  0  0  0  0  0  0  # atno 8010 bound_to 7997
  140.5882  143.2337  151.6197 H   0  0  0  0  0  0  0  0  0  0  0  0  # atno 10167 bound_to 10162
  156.8615  130.5588  149.5662 H   0  0  0  0  0  0  0  0  0  0  0  0  # atno 10718 bound_to 10713
  154.6217  135.5451  153.7582 H   0  0  0  0  0  0  0  0  0  0  0  0  # atno 10763 bound_to 10752
  153.0241  135.6414  154.1431 H   0  0  0  0  0  0  0  0  0  0  0  0  # atno 10764 bound_to 10752
  154.1365  135.2911  155.3152 H   0  0  0  0  0  0  0  0  0  0  0  0  # atno 10765 bound_to 10752
  140.5209  134.5710  157.5047 H   0  0  0  0  0  0  0  0  0  0  0  0  # atno 11005 bound_to 11000
  146.1119  140.7418  142.9499 LP  0  0  0  0  0  0  0  0  0  0  0  0  # atno 17320 bound_to 7965
  144.7086  140.3952  143.7098 LP  0  0  0  0  0  0  0  0  0  0  0  0  # atno 17321 bound_to 7965
  139.5211  144.3203  152.0916 LP  0  0  0  0  0  0  0  0  0  0  0  0  # atno 17342 bound_to 10162
  140.2364  144.4315  150.6278 LP  0  0  0  0  0  0  0  0  0  0  0  0  # atno 17343 bound_to 10162
  156.0774  130.5793  150.9499 LP  0  0  0  0  0  0  0  0  0  0  0  0  # atno 17370 bound_to 10713
  157.6247  131.0926  150.8556 LP  0  0  0  0  0  0  0  0  0  0  0  0  # atno 17371 bound_to 10713
  139.9606  134.7458  156.0244 LP  0  0  0  0  0  0  0  0  0  0  0  0  # atno 17394 bound_to 11000
  141.1335  133.6580  156.3529 LP  0  0  0  0  0  0  0  0  0  0  0  0  # atno 17395 bound_to 11000

$$$$
