AV-unprocessed.smi:1364|AV-procd|sdf|5567|dock6
  -GOLD-   22720 5163D 1   1.00000     0.00000
 Structure written by MMmdl.
 40 41  0  0  0  0  0  0  0  0  1 V2000
  152.2006  144.2819  157.7485 C   0  0  0  0  0  0  0  0  0  0  0  0
  151.3328  143.7098  158.8887 C   0  0  0  0  0  0  0  0  0  0  0  0
  152.2479  143.3094  160.0647 C   0  0  0  0  0  0  0  0  0  0  0  0
  150.3533  144.8069  159.3705 C   0  0  0  0  0  0  0  0  0  0  0  0
  150.6060  142.4427  158.3717 C   0  0  0  0  0  0  0  0  0  0  0  0
  150.7427  141.3846  158.9868 O   0  0  0  0  0  0  0  0  0  0  0  0
  149.8691  142.5576  157.2488 N   0  0  0  0  0  0  0  0  0  0  0  0
  149.1085  141.5628  156.5772 C   0  0  0  0  0  0  0  0  0  0  0  0
  148.6387  140.3744  157.1819 C   0  0  0  0  0  0  0  0  0  0  0  0
  147.8755  139.4740  156.4142 C   0  0  0  0  0  0  0  0  0  0  0  0
  147.5916  139.7819  155.0626 C   0  0  0  0  0  0  0  0  0  0  0  0
  146.8299  138.8910  154.2747 N   0  0  0  0  0  0  0  0  0  0  0  0
  145.5355  138.4509  154.7923 C   0  0  0  0  0  0  0  0  0  0  0  0
  144.9950  137.2770  153.9584 C   0  0  0  0  0  0  0  0  0  0  0  0
  144.9395  137.6500  152.5857 O   0  0  0  0  0  0  0  0  0  0  0  0
  146.2286  137.9675  152.0716 C   0  0  0  0  0  0  0  0  0  0  0  0
  146.8166  139.1641  152.8394 C   0  0  0  0  0  0  0  0  0  0  0  0
  148.0257  140.9333  154.4936 N   0  0  0  0  0  0  0  0  0  0  0  0
  148.7575  141.7930  155.2325 C   0  0  0  0  0  0  0  0  0  0  0  0
  152.7400  145.1728  158.0717 H   0  0  0  0  0  0  0  0  0  0  0  0
  151.5920  144.5642  156.8881 H   0  0  0  0  0  0  0  0  0  0  0  0
  152.9453  143.5633  157.4031 H   0  0  0  0  0  0  0  0  0  0  0  0
  152.9948  142.5719  159.7673 H   0  0  0  0  0  0  0  0  0  0  0  0
  151.6743  142.8834  160.8890 H   0  0  0  0  0  0  0  0  0  0  0  0
  152.7874  144.1725  160.4562 H   0  0  0  0  0  0  0  0  0  0  0  0
  150.8943  145.6822  159.7314 H   0  0  0  0  0  0  0  0  0  0  0  0
  149.7260  144.4586  160.1924 H   0  0  0  0  0  0  0  0  0  0  0  0
  149.6977  145.1468  158.5674 H   0  0  0  0  0  0  0  0  0  0  0  0
  149.9101  143.4552  156.7879 H   0  0  0  0  0  0  0  0  0  0  0  0
  148.8310  140.1435  158.2179 H   0  0  0  0  0  0  0  0  0  0  0  0
  147.5028  138.5722  156.8762 H   0  0  0  0  0  0  0  0  0  0  0  0
  145.6304  138.1391  155.8332 H   0  0  0  0  0  0  0  0  0  0  0  0
  144.8325  139.2846  154.7628 H   0  0  0  0  0  0  0  0  0  0  0  0
  145.6208  136.3915  154.0814 H   0  0  0  0  0  0  0  0  0  0  0  0
  143.9936  137.0077  154.2945 H   0  0  0  0  0  0  0  0  0  0  0  0
  146.8852  137.0989  152.1438 H   0  0  0  0  0  0  0  0  0  0  0  0
  146.1380  138.2104  151.0129 H   0  0  0  0  0  0  0  0  0  0  0  0
  146.2146  140.0552  152.6577 H   0  0  0  0  0  0  0  0  0  0  0  0
  147.8144  139.3732  152.4567 H   0  0  0  0  0  0  0  0  0  0  0  0
  149.0771  142.6937  154.7291 H   0  0  0  0  0  0  0  0  0  0  0  0
  1  2  1  0  0  0  0
  1 20  1  0  0  0  0
  1 21  1  0  0  0  0
  1 22  1  0  0  0  0
  2  3  1  0  0  0  0
  2  4  1  0  0  0  0
  2  5  1  0  0  0  0
  3 23  1  0  0  0  0
  3 24  1  0  0  0  0
  3 25  1  0  0  0  0
  4 26  1  0  0  0  0
  4 27  1  0  0  0  0
  4 28  1  0  0  0  0
  5  6  2  0  0  0  0
  5  7  1  0  0  0  0
  7  8  1  0  0  0  0
  7 29  1  0  0  0  0
  8 19  1  0  0  0  0
  8  9  2  0  0  0  0
  9 10  1  0  0  0  0
  9 30  1  0  0  0  0
 10 11  2  0  0  0  0
 10 31  1  0  0  0  0
 11 12  1  0  0  0  0
 11 18  1  0  0  0  0
 12 17  1  0  0  0  0
 12 13  1  0  0  0  0
 13 14  1  0  0  0  0
 13 32  1  0  0  0  0
 13 33  1  0  0  0  0
 14 15  1  0  0  0  0
 14 34  1  0  0  0  0
 14 35  1  0  0  0  0
 15 16  1  0  0  0  0
 16 17  1  0  0  0  0
 16 36  1  0  0  0  0
 16 37  1  0  0  0  0
 17 38  1  0  0  0  0
 17 39  1  0  0  0  0
 18 19  2  0  0  0  0
 19 40  1  0  0  0  0
M  END
> <s_m_source_file>
AV-unprocessed.smi

> <i_m_source_file_index>
1364

> <i_lp_mmshare_version>
43012

> <i_f3d_flags>
0

> <s_epik_input>
W0NIM11DKFtDSDNdKShbQ0gzXSlDKD1PKVtOSF1jMVtjSF1bY0hdYyhuW2NIXTEpTjJbQ0gyXVtDSDJdT1tDSDJdW0NIMl0y

> <s_epik_cmdline>
J2VwaWtfcHl0aG9uJywgJy1waCcsICc3LjAnLCAnLXRuJywgJzgnLCAnLW1hJywgJzIwMCcsICctbWV0YWxfYmluZGluZycsICctaW1hZScsICc8aW5maWxlLm1hZT4nLCAnLW9tYWUnLCAnPG91dGZpbGUubWFlPic=

> <r_lp_tautomer_probability>
1

> <r_epik_Ionization_Penalty>
0.000770434

> <r_epik_Ionization_Penalty_Charging>
0

> <r_epik_Ionization_Penalty_Neutral>
0.000770434

> <r_epik_State_Penalty>
0.00047801

> <r_epik_Charging_Adjusted_Penalty>
0.00047801

> <i_epik_Tot_Q>
0

> <i_epik_Tot_abs_Q>
0

> <r_epik_Metal_State_Penalty>
-0

> <b_epik_Metal_Only>
0

> <s_lp_Force_Field>
OPLS_2005

> <r_lp_Energy>
28.9923

> <b_lp_Chiralities_Consistent>
1

> <s_lp_Variant>
AV-unprocessed.smi:1364-1

> <Gold.Version>
5.8.1

> <Gold.Id.Protein>
6NUR|6NUR_protein|mol2

> <Gold.PLP.Fitness>
32.2090

> <Gold.PLP.PLP>
-26.6741

> <Gold.PLP.part.hbond>
-1.0000

> <Gold.PLP.part.metal>
0.0000

> <Gold.PLP.part.buried>
-3.2288

> <Gold.PLP.part.nonpolar>
-24.1336

> <Gold.PLP.part.repulsive>
0.4975

> <Gold.PLP.ligand.clash>
0.0000

> <Gold.PLP.ligand.torsion>
0.3732

> <Gold.PLP.Chemscore.Hbond>
0.9920

> <Gold.PLP.Chemscore.CHOScore>
0.9846

> <Gold.PLP.Chemscore.Metal>
0.0000

> <Gold.Chemscore.Hbonds>
donor molecule, donor type, donor heavy atom, donor atom, acceptor molecule, acceptor atom, score
      L1  H     7    29       P1  8028  0.90
      L1  C    19    40       P1  8028  0.86

> <Gold.PLP.Chemscore.Internal.Correction>
0.3515

> <Gold.Rescore>
     Score         DG    S(hbond)    S(metal)    S(lipo)     H(rot)  DE(clash)    DE(int)     intcor
     13.37     -14.88       0.99        0.00      77.70       1.17       0.10       1.42       ----

> <Gold.Chemscore.Fitness>
13.3680

> <Gold.Chemscore.DG>
-14.8818

> <Gold.Chemscore.ZeroCoef>
-5.4800

> <Gold.Chemscore.Hbond>
0.9878

> <Gold.Chemscore.Metal>
0.0000

> <Gold.Chemscore.Lipo>
77.7044

> <Gold.Chemscore.Internal_Hbond>
0.0000

> <Gold.Chemscore.DEClash>
0.0971

> <Gold.Chemscore.DEInternal>
1.4167

> <Gold.Chemscore.Rot>
1.1675

> <Gold.Chemscore.Internal.Correction>
   9.000000E+99

> <Gold.Chemscore.Hbonds>
donor molecule, donor type, donor heavy atom, donor atom, acceptor molecule, acceptor atom, score
      L1  H     7    29       P1  8028  0.85

> <Gold.Chemscore.Hbond.Weighted>
-3.2991

> <Gold.Chemscore.Metal.Weighted>
-0.0000

> <Gold.Chemscore.Lipo.Weighted>
-9.0914

> <Gold.Chemscore.Internal_Hbond.Weighted>
0.0000

> <Gold.Chemscore.DEClash.Weighted>
0.0971

> <Gold.Chemscore.DEInternal.Weighted>
1.4167

> <Gold.Chemscore.Rot.Weighted>
2.9888

> <Gold.Chemscore.Internal.Correction.Weighted>
   9.000000E+99

> <Gold.Protein.RotatedTorsions>
[ 6907 6896 6895 6894 ] final   16.35 input  -60.11 | X-H torsion
[ 7974 7965 7964 7962 ] final   10.53 input  175.53 | X-H torsion
[ 8008 7997 7996 7995 ] final  157.34 input   59.86 | X-H torsion
[ 10167 10162 10161 10158 ] final  -42.69 input  -65.29 | X-H torsion
[ 10718 10713 10712 10709 ] final -158.85 input   66.30 | X-H torsion
[ 10763 10752 10751 10750 ] final  104.30 input  -60.55 | X-H torsion
[ 11005 11000 10999 10996 ] final  153.80 input  -57.11 | X-H torsion

> <Gold.Protein.ActiveResidues>
 VAL166  LYS551  ARG553  GLY616  TRP617  ASP618  TYR619  PRO620  LYS621  CYS622 
 ASP623  PHE694  ASN695  SER759  ASP760  ASP761  ALA762  ILE779  LEU786  VAL792 
 PHE793  MET794  SER795  GLU796  ALA797  LYS798  CYS799  TRP800  GLU811  SER814 

> <Gold.Protein.RotatedAtoms>
  151.8325  135.0617  160.0438 H   0  0  0  0  0  0  0  0  0  0  0  0  # atno 6907 bound_to 6896
  152.2870  133.5520  159.5542 H   0  0  0  0  0  0  0  0  0  0  0  0  # atno 6908 bound_to 6896
  150.7213  134.0399  159.3804 H   0  0  0  0  0  0  0  0  0  0  0  0  # atno 6909 bound_to 6896
  146.2387  139.9620  142.8457 H   0  0  0  0  0  0  0  0  0  0  0  0  # atno 7974 bound_to 7965
  156.2370  140.1888  156.7093 H   0  0  0  0  0  0  0  0  0  0  0  0  # atno 8008 bound_to 7997
  154.6124  140.0620  156.9538 H   0  0  0  0  0  0  0  0  0  0  0  0  # atno 8009 bound_to 7997
  155.1994  140.3291  155.4348 H   0  0  0  0  0  0  0  0  0  0  0  0  # atno 8010 bound_to 7997
  140.6960  143.3024  151.3245 H   0  0  0  0  0  0  0  0  0  0  0  0  # atno 10167 bound_to 10162
  156.5598  130.8642  151.2806 H   0  0  0  0  0  0  0  0  0  0  0  0  # atno 10718 bound_to 10713
  153.3641  135.3948  155.1740 H   0  0  0  0  0  0  0  0  0  0  0  0  # atno 10763 bound_to 10752
  154.8684  135.3686  154.5061 H   0  0  0  0  0  0  0  0  0  0  0  0  # atno 10764 bound_to 10752
  153.5523  135.7082  153.5646 H   0  0  0  0  0  0  0  0  0  0  0  0  # atno 10765 bound_to 10752
  140.1430  134.8726  157.2356 H   0  0  0  0  0  0  0  0  0  0  0  0  # atno 11005 bound_to 11000
  145.1762  140.9745  143.4293 LP  0  0  0  0  0  0  0  0  0  0  0  0  # atno 17320 bound_to 7965
  144.9984  139.3622  143.6180 LP  0  0  0  0  0  0  0  0  0  0  0  0  # atno 17321 bound_to 7965
  139.6417  144.0527  152.2559 LP  0  0  0  0  0  0  0  0  0  0  0  0  # atno 17342 bound_to 10162
  140.0035  144.6276  150.7709 LP  0  0  0  0  0  0  0  0  0  0  0  0  # atno 17343 bound_to 10162
  157.7371  130.9789  150.2172 LP  0  0  0  0  0  0  0  0  0  0  0  0  # atno 17370 bound_to 10713
  156.2809  130.3733  149.7936 LP  0  0  0  0  0  0  0  0  0  0  0  0  # atno 17371 bound_to 10713
  140.2698  134.3473  155.7377 LP  0  0  0  0  0  0  0  0  0  0  0  0  # atno 17394 bound_to 11000
  141.2189  133.7417  156.9205 LP  0  0  0  0  0  0  0  0  0  0  0  0  # atno 17395 bound_to 11000

$$$$
