AV-unprocessed.smi:1260|AV-procd|sdf|5296|dock3
  -GOLD-   22720 4413D 1   1.00000     0.00000
 Structure written by MMmdl.
 37 39  0  0  0  0  0  0  0  0  2 V2000
  149.2235  141.3563  153.8541 O   0  0  0  0  0  0  0  0  0  0  0  0
  149.3307  140.3209  154.5097 C   0  0  0  0  0  0  0  0  0  0  0  0
  150.4797  140.1623  155.5069 C   0  0  0  0  0  0  0  0  0  0  0  0
  151.4044  139.1295  155.0732 N   0  0  0  0  0  0  0  0  0  0  0  0
  151.2293  138.0770  154.2717 C   0  0  0  0  0  0  0  0  0  0  0  0
  152.3344  137.3555  154.1635 N   0  0  0  0  0  0  0  0  0  0  0  0
  153.2378  138.0414  154.9579 N   0  0  0  0  0  0  0  0  0  0  0  0
  152.6930  139.0968  155.4977 N   0  0  0  0  0  0  0  0  0  0  0  0
  148.4599  139.3014  154.4309 N   0  0  0  0  0  0  0  0  0  0  0  0
  147.2161  139.3110  153.6647 C   0  0  1  0  0  0  0  0  0  0  0  0
  147.4233  139.6751  152.1820 C   0  0  0  0  0  0  0  0  0  0  0  0
  146.5031  138.7182  151.4161 C   0  0  0  0  0  0  0  0  0  0  0  0
  146.5338  137.5047  152.2406 N   0  3  2  0  0  0  0  0  0  0  0  0
  145.5681  136.4258  151.9497 C   0  0  0  0  0  0  0  0  0  0  0  0
  145.9310  135.2011  152.8173 C   0  0  0  0  0  0  0  0  0  0  0  0
  146.0557  135.5607  154.3156 C   0  0  0  0  0  0  0  0  0  0  0  0
  146.9753  136.7804  154.5393 C   0  0  0  0  0  0  0  0  0  0  0  0
  146.4955  137.9408  153.6469 C   0  0  1  0  0  0  0  0  0  0  0  0
  151.0175  141.1061  155.6056 H   0  0  0  0  0  0  0  0  0  0  0  0
  150.0939  139.9011  156.4935 H   0  0  0  0  0  0  0  0  0  0  0  0
  150.2976  137.8343  153.7822 H   0  0  0  0  0  0  0  0  0  0  0  0
  148.6388  138.4848  154.9973 H   0  0  0  0  0  0  0  0  0  0  0  0
  146.5372  140.0494  154.0963 H   0  0  0  0  0  0  0  0  0  0  0  0
  147.2032  140.7223  151.9717 H   0  0  0  0  0  0  0  0  0  0  0  0
  148.4578  139.4916  151.8869 H   0  0  0  0  0  0  0  0  0  0  0  0
  145.4859  139.1114  151.3758 H   0  0  0  0  0  0  0  0  0  0  0  0
  146.8438  138.5292  150.3978 H   0  0  0  0  0  0  0  0  0  0  0  0
  144.5516  136.7639  152.1574 H   0  0  0  0  0  0  0  0  0  0  0  0
  145.6140  136.1645  150.8920 H   0  0  0  0  0  0  0  0  0  0  0  0
  145.1885  134.4139  152.6827 H   0  0  0  0  0  0  0  0  0  0  0  0
  146.8797  134.7879  152.4720 H   0  0  0  0  0  0  0  0  0  0  0  0
  145.0645  135.7811  154.7142 H   0  0  0  0  0  0  0  0  0  0  0  0
  146.4280  134.7033  154.8772 H   0  0  0  0  0  0  0  0  0  0  0  0
  146.9521  137.0682  155.5907 H   0  0  0  0  0  0  0  0  0  0  0  0
  148.0079  136.5178  154.3040 H   0  0  0  0  0  0  0  0  0  0  0  0
  145.4523  138.1432  153.8986 H   0  0  0  0  0  0  0  0  0  0  0  0
  147.4521  137.1093  152.0977 H   0  0  0  0  0  0  0  0  0  0  0  0
  1  2  2  0  0  0  0
  2  3  1  0  0  0  0
  2  9  1  0  0  0  0
  3  4  1  0  0  0  0
  3 19  1  0  0  0  0
  3 20  1  0  0  0  0
  4  8  1  0  0  0  0
  4  5  1  0  0  0  0
  5  6  2  0  0  0  0
  5 21  1  0  0  0  0
  6  7  1  0  0  0  0
  7  8  2  0  0  0  0
  9 10  1  0  0  0  0
  9 22  1  0  0  0  0
 10 18  1  0  0  0  0
 10 11  1  0  0  0  0
 10 23  1  0  0  0  0
 11 12  1  0  0  0  0
 11 24  1  0  0  0  0
 11 25  1  0  0  0  0
 12 13  1  0  0  0  0
 12 26  1  0  0  0  0
 12 27  1  0  0  0  0
 13 18  1  0  0  0  0
 13 14  1  0  0  0  0
 13 37  1  0  0  0  0
 14 15  1  0  0  0  0
 14 28  1  0  0  0  0
 14 29  1  0  0  0  0
 15 16  1  0  0  0  0
 15 30  1  0  0  0  0
 15 31  1  0  0  0  0
 16 17  1  0  0  0  0
 16 32  1  0  0  0  0
 16 33  1  0  0  0  0
 17 18  1  0  0  0  0
 17 34  1  0  0  0  0
 17 35  1  0  0  0  0
 18 36  1  0  0  0  0
M  CHG  1  13   1
M  END
> <s_m_source_file>
AV-unprocessed.smi

> <i_m_source_file_index>
1260

> <i_lp_mmshare_version>
43012

> <i_f3d_flags>
0

> <s_epik_input>
bjFubltjSF1uMVtDSDJdQyg9TylbTkhdW0NASF0oW0NIMl1bQ0gyXTIpW0NAQEhdKE4yMylbQ0gyXVtDSDJdW0NIMl1bQ0gyXTM=

> <s_epik_cmdline>
J2VwaWtfcHl0aG9uJywgJy1waCcsICc3LjAnLCAnLXRuJywgJzgnLCAnLW1hJywgJzIwMCcsICctbWV0YWxfYmluZGluZycsICctaW1hZScsICc8aW5maWxlLm1hZT4nLCAnLW9tYWUnLCAnPG91dGZpbGUubWFlPic=

> <r_lp_tautomer_probability>
1

> <r_epik_Ionization_Penalty>
0.00234324

> <r_epik_Ionization_Penalty_Charging>
0.00233897

> <r_epik_Ionization_Penalty_Neutral>
4.26861e-06

> <r_epik_State_Penalty>
0.00161477

> <r_epik_Charging_Adjusted_Penalty>
0.00395374

> <i_epik_Tot_Q>
1

> <i_epik_Tot_abs_Q>
1

> <r_epik_Metal_State_Penalty>
-0

> <b_epik_Metal_Only>
0

> <s_lp_Force_Field>
OPLS_2005

> <r_lp_Energy>
42.8184

> <b_lp_Chiralities_Consistent>
1

> <s_lp_Variant>
AV-unprocessed.smi:1260-4

> <Gold.Version>
5.8.1

> <Gold.Id.Protein>
6NUR|6NUR_protein|mol2

> <Gold.PLP.Fitness>
42.9673

> <Gold.PLP.PLP>
-29.2013

> <Gold.PLP.part.hbond>
-6.0000

> <Gold.PLP.part.metal>
0.0000

> <Gold.PLP.part.buried>
0.6644

> <Gold.PLP.part.nonpolar>
-25.8369

> <Gold.PLP.part.repulsive>
1.4180

> <Gold.PLP.ligand.clash>
0.0000

> <Gold.PLP.ligand.torsion>
0.4260

> <Gold.PLP.Chemscore.Hbond>
4.5593

> <Gold.PLP.Chemscore.CHOScore>
0.3126

> <Gold.PLP.Chemscore.Metal>
0.0000

> <Gold.Chemscore.Hbonds>
donor molecule, donor type, donor heavy atom, donor atom, acceptor molecule, acceptor atom, score
      L1  H    13    37       P1  7948  2.00
      P1  H  7997  8008       L1     8  0.88
      P1  H  8011  8017       L1     1  0.80
      P1  H 10752 10763       L1     6  0.78
      L1  C     5    21       P1  7948  0.34

> <Gold.PLP.Chemscore.Internal.Correction>
0.0025

> <Gold.Rescore>
     Score         DG    S(hbond)    S(metal)    S(lipo)     H(rot)  DE(clash)    DE(int)     intcor
     10.19     -13.53       2.36        0.00      44.54       1.98       1.72       1.61       ----

> <Gold.Chemscore.Fitness>
10.1924

> <Gold.Chemscore.DG>
-13.5282

> <Gold.Chemscore.ZeroCoef>
-5.4800

> <Gold.Chemscore.Hbond>
2.3639

> <Gold.Chemscore.Metal>
0.0000

> <Gold.Chemscore.Lipo>
44.5354

> <Gold.Chemscore.Internal_Hbond>
0.0000

> <Gold.Chemscore.DEClash>
1.7233

> <Gold.Chemscore.DEInternal>
1.6126

> <Gold.Chemscore.Rot>
1.9757

> <Gold.Chemscore.Internal.Correction>
   9.000000E+99

> <Gold.Chemscore.Hbonds>
donor molecule, donor type, donor heavy atom, donor atom, acceptor molecule, acceptor atom, score
      L1  H    13    37       P1  7948  1.00
      P1  H  7997  8008       L1     8  0.30
      P1  H  8011  8017       L1     1  0.79
      P1  H 10752 10763       L1     6  0.31

> <Gold.Chemscore.Hbond.Weighted>
-7.8954

> <Gold.Chemscore.Metal.Weighted>
-0.0000

> <Gold.Chemscore.Lipo.Weighted>
-5.2106

> <Gold.Chemscore.Internal_Hbond.Weighted>
0.0000

> <Gold.Chemscore.DEClash.Weighted>
1.7233

> <Gold.Chemscore.DEInternal.Weighted>
1.6126

> <Gold.Chemscore.Rot.Weighted>
5.0578

> <Gold.Chemscore.Internal.Correction.Weighted>
   9.000000E+99

> <Gold.Protein.RotatedTorsions>
[ 6907 6896 6895 6894 ] final    2.24 input  -60.11 | X-H torsion
[ 7974 7965 7964 7962 ] final -139.62 input  175.53 | X-H torsion
[ 8008 7997 7996 7995 ] final  -35.26 input   59.86 | X-H torsion
[ 10167 10162 10161 10158 ] final  129.03 input  -65.29 | X-H torsion
[ 10718 10713 10712 10709 ] final -176.59 input   66.30 | X-H torsion
[ 10763 10752 10751 10750 ] final   32.20 input  -60.55 | X-H torsion
[ 11005 11000 10999 10996 ] final -178.08 input  -57.11 | X-H torsion

> <Gold.Protein.ActiveResidues>
 VAL166  LYS551  ARG553  GLY616  TRP617  ASP618  TYR619  PRO620  LYS621  CYS622 
 ASP623  PHE694  ASN695  SER759  ASP760  ASP761  ALA762  ILE779  LEU786  VAL792 
 PHE793  MET794  SER795  GLU796  ALA797  LYS798  CYS799  TRP800  GLU811  SER814 

> <Gold.Protein.RotatedAtoms>
  151.6056  135.1044  160.0069 H   0  0  0  0  0  0  0  0  0  0  0  0  # atno 6907 bound_to 6896
  152.4235  133.7152  159.6512 H   0  0  0  0  0  0  0  0  0  0  0  0  # atno 6908 bound_to 6896
  150.8123  133.8327  159.3198 H   0  0  0  0  0  0  0  0  0  0  0  0  # atno 6909 bound_to 6896
  144.8663  140.6297  143.5296 H   0  0  0  0  0  0  0  0  0  0  0  0  # atno 7974 bound_to 7965
  154.4100  140.1662  156.2183 H   0  0  0  0  0  0  0  0  0  0  0  0  # atno 8008 bound_to 7997
  155.9385  140.3409  155.6285 H   0  0  0  0  0  0  0  0  0  0  0  0  # atno 8009 bound_to 7997
  155.7018  140.0746  157.2398 H   0  0  0  0  0  0  0  0  0  0  0  0  # atno 8010 bound_to 7997
  139.5498  144.6803  151.4360 H   0  0  0  0  0  0  0  0  0  0  0  0  # atno 10167 bound_to 10162
  156.8169  130.9606  151.3113 H   0  0  0  0  0  0  0  0  0  0  0  0  # atno 10718 bound_to 10713
  153.0275  135.6419  154.1318 H   0  0  0  0  0  0  0  0  0  0  0  0  # atno 10763 bound_to 10752
  154.1045  135.2857  155.3246 H   0  0  0  0  0  0  0  0  0  0  0  0  # atno 10764 bound_to 10752
  154.6375  135.5471  153.7814 H   0  0  0  0  0  0  0  0  0  0  0  0  # atno 10765 bound_to 10752
  140.4338  134.6494  157.4725 H   0  0  0  0  0  0  0  0  0  0  0  0  # atno 11005 bound_to 11000
  145.4216  139.1563  143.4071 LP  0  0  0  0  0  0  0  0  0  0  0  0  # atno 17320 bound_to 7965
  146.2898  140.4327  142.8744 LP  0  0  0  0  0  0  0  0  0  0  0  0  # atno 17321 bound_to 7965
  140.6757  143.8195  150.7055 LP  0  0  0  0  0  0  0  0  0  0  0  0  # atno 17342 bound_to 10162
  140.1633  143.4257  152.2052 LP  0  0  0  0  0  0  0  0  0  0  0  0  # atno 17343 bound_to 10162
  157.6477  130.8858  149.9570 LP  0  0  0  0  0  0  0  0  0  0  0  0  # atno 17370 bound_to 10713
  156.1011  130.3655  150.0216 LP  0  0  0  0  0  0  0  0  0  0  0  0  # atno 17371 bound_to 10713
  140.0116  134.6682  155.9372 LP  0  0  0  0  0  0  0  0  0  0  0  0  # atno 17394 bound_to 11000
  141.1734  133.6538  156.4738 LP  0  0  0  0  0  0  0  0  0  0  0  0  # atno 17395 bound_to 11000

$$$$
