AV-unprocessed.smi:50|AV-procd|sdf|498|dock9
  -GOLD-   2262016373D 1   1.00000     0.00000
 Structure written by MMmdl.
 42 43  0  0  0  0  0  0  0  0  2 V2000
  147.3536  135.3977  163.1006 C   0  0  0  0  0  0  0  0  0  0  0  0
  146.7516  134.5239  161.9805 C   0  0  0  0  0  0  0  0  0  0  0  0
  147.7439  133.3945  161.6474 C   0  0  0  0  0  0  0  0  0  0  0  0
  146.3447  135.3030  160.6933 C   0  0  1  0  0  0  0  0  0  0  0  0
  145.0472  135.9527  160.8855 N   0  0  0  0  0  0  0  0  0  0  0  0
  147.4044  136.3224  160.2360 C   0  0  0  0  0  0  0  0  0  0  0  0
  147.7404  137.3157  160.8841 O   0  0  0  0  0  0  0  0  0  0  0  0
  147.9098  135.9609  159.0431 O   0  0  0  0  0  0  0  0  0  0  0  0
  148.9096  136.7401  158.4022 C   0  0  0  0  0  0  0  0  0  0  0  0
  148.9426  136.3433  156.9245 C   0  0  0  0  0  0  0  0  0  0  0  0
  150.2480  136.5807  156.4151 O   0  0  0  0  0  0  0  0  0  0  0  0
  150.2920  136.8305  155.0468 C   0  0  0  0  0  0  0  0  0  0  0  0
  150.0792  138.2510  154.8248 N   0  0  0  0  0  0  0  0  0  0  0  0
  150.9269  139.2506  155.1363 C   0  0  0  0  0  0  0  0  0  0  0  0
  150.4985  140.4770  154.8410 N   0  0  0  0  0  0  0  0  0  0  0  0
  149.2505  140.2217  154.2840 C   0  0  0  0  0  0  0  0  0  0  0  0
  148.2035  141.1282  153.7541 C   0  0  0  0  0  0  0  0  0  0  0  0
  148.4027  142.3415  153.7613 O   0  0  0  0  0  0  0  0  0  0  0  0
  147.0714  140.5132  153.2947 N   0  5  0  0  0  0  0  0  0  0  0  0
  146.9546  139.1167  153.3365 C   0  0  0  0  0  0  0  0  0  0  0  0
  145.7563  138.6655  152.8277 N   0  0  0  0  0  0  0  0  0  0  0  0
  147.8352  138.2579  153.7885 N   0  0  0  0  0  0  0  0  0  0  0  0
  148.9762  138.8807  154.2595 C   0  0  0  0  0  0  0  0  0  0  0  0
  146.2252  134.5754  159.8895 H   0  0  0  0  0  0  0  0  0  0  0  0
  148.2011  135.9744  162.7314 H   0  0  0  0  0  0  0  0  0  0  0  0
  147.7072  134.7879  163.9326 H   0  0  0  0  0  0  0  0  0  0  0  0
  146.6265  136.0961  163.5148 H   0  0  0  0  0  0  0  0  0  0  0  0
  145.8544  134.0596  162.3931 H   0  0  0  0  0  0  0  0  0  0  0  0
  148.6703  133.7936  161.2326 H   0  0  0  0  0  0  0  0  0  0  0  0
  147.3303  132.6927  160.9231 H   0  0  0  0  0  0  0  0  0  0  0  0
  148.0015  132.8211  162.5384 H   0  0  0  0  0  0  0  0  0  0  0  0
  144.3034  135.4287  160.4471 H   0  0  0  0  0  0  0  0  0  0  0  0
  144.8119  136.0303  161.8644 H   0  0  0  0  0  0  0  0  0  0  0  0
  148.6953  137.8024  158.5209 H   0  0  0  0  0  0  0  0  0  0  0  0
  149.8930  136.5548  158.8365 H   0  0  0  0  0  0  0  0  0  0  0  0
  148.7116  135.2832  156.8147 H   0  0  0  0  0  0  0  0  0  0  0  0
  148.1781  136.8986  156.3801 H   0  0  0  0  0  0  0  0  0  0  0  0
  151.2863  136.5769  154.6780 H   0  0  0  0  0  0  0  0  0  0  0  0
  149.5546  136.2432  154.4969 H   0  0  0  0  0  0  0  0  0  0  0  0
  151.8856  139.0722  155.6003 H   0  0  0  0  0  0  0  0  0  0  0  0
  145.0391  139.2750  152.4637 H   0  0  0  0  0  0  0  0  0  0  0  0
  145.5086  137.6877  152.7887 H   0  0  0  0  0  0  0  0  0  0  0  0
  1  2  1  0  0  0  0
  1 25  1  0  0  0  0
  1 26  1  0  0  0  0
  1 27  1  0  0  0  0
  2  3  1  0  0  0  0
  2  4  1  0  0  0  0
  2 28  1  0  0  0  0
  3 29  1  0  0  0  0
  3 30  1  0  0  0  0
  3 31  1  0  0  0  0
  4 24  1  0  0  0  0
  4  5  1  0  0  0  0
  4  6  1  0  0  0  0
  5 32  1  0  0  0  0
  5 33  1  0  0  0  0
  6  7  2  0  0  0  0
  6  8  1  0  0  0  0
  8  9  1  0  0  0  0
  9 10  1  0  0  0  0
  9 34  1  0  0  0  0
  9 35  1  0  0  0  0
 10 11  1  0  0  0  0
 10 36  1  0  0  0  0
 10 37  1  0  0  0  0
 11 12  1  0  0  0  0
 12 13  1  0  0  0  0
 12 38  1  0  0  0  0
 12 39  1  0  0  0  0
 13 23  1  0  0  0  0
 13 14  1  0  0  0  0
 14 15  2  0  0  0  0
 14 40  1  0  0  0  0
 15 16  1  0  0  0  0
 16 23  2  0  0  0  0
 16 17  1  0  0  0  0
 17 18  2  0  0  0  0
 17 19  1  0  0  0  0
 19 20  1  0  0  0  0
 20 21  1  0  0  0  0
 20 22  2  0  0  0  0
 21 41  1  0  0  0  0
 21 42  1  0  0  0  0
 22 23  1  0  0  0  0
M  CHG  1  19  -1
M  END
> <s_m_source_file>
AV-unprocessed.smi

> <i_m_source_file_index>
50

> <i_lp_mmshare_version>
43012

> <i_f3d_flags>
0

> <s_epik_input>
W0NIM11bQ0hdKFtDSDNdKVtDQEhdKFtOSDJdKUMoPU8pT1tDSDJdW0NIMl1PW0NIMl1uKFtjSF1uMSljKGMxMiluYyhbTkgyXSlbbkhdYzI9Tw==

> <s_epik_cmdline>
J2VwaWtfcHl0aG9uJywgJy1waCcsICc3LjAnLCAnLXRuJywgJzgnLCAnLW1hJywgJzIwMCcsICctbWV0YWxfYmluZGluZycsICctaW1hZScsICc8aW5maWxlLm1hZT4nLCAnLW9tYWUnLCAnPG91dGZpbGUubWFlPic=

> <r_lp_tautomer_probability>
0.99994

> <r_epik_Ionization_Penalty>
4.26118

> <r_epik_Ionization_Penalty_Charging>
1.23364e-10

> <r_epik_Ionization_Penalty_Neutral>
4.26118

> <r_epik_State_Penalty>
4.27372

> <r_epik_Charging_Adjusted_Penalty>
4.27372

> <i_epik_Tot_Q>
-1

> <i_epik_Tot_abs_Q>
1

> <r_epik_Metal_State_Penalty>
1.24306

> <b_epik_Metal_Only>
1

> <s_epik_Chemistry_Notes>
This compound has an ester and may undergo hydrolysis at high or low pH. This compound contains an acetal/aminal-like group ( X-CH(R)-Y where X, Y are N, S, or O) that may be acid/base labile, releasing an aldehyde.

> <s_lp_Force_Field>
OPLS_2005

> <r_lp_Energy>
20.1027

> <b_lp_Chiralities_Consistent>
1

> <s_lp_Variant>
AV-unprocessed.smi:50-8

> <Gold.Version>
5.8.1

> <Gold.Id.Protein>
6NUR|6NUR_protein|mol2

> <Gold.PLP.Fitness>
44.8739

> <Gold.PLP.PLP>
-34.1927

> <Gold.PLP.part.hbond>
-5.3126

> <Gold.PLP.part.metal>
0.0000

> <Gold.PLP.part.buried>
-4.0100

> <Gold.PLP.part.nonpolar>
-27.2983

> <Gold.PLP.part.repulsive>
2.8950

> <Gold.PLP.ligand.clash>
0.0000

> <Gold.PLP.ligand.torsion>
1.0214

> <Gold.PLP.Chemscore.Hbond>
4.1478

> <Gold.PLP.Chemscore.CHOScore>
0.0000

> <Gold.PLP.Chemscore.Metal>
0.0000

> <Gold.Chemscore.Hbonds>
donor molecule, donor type, donor heavy atom, donor atom, acceptor molecule, acceptor atom, score
      L1  H    21    41       P1 10175  1.00
      P1  H  6931  6943       L1     7  0.80
      P1  H  6934  6947       L1     7  0.86
      P1  H  7989  7998       L1    15  1.00
      P1  H  8011  8017       L1    18  0.23
      P1  H  8022  8030       L1    18  0.01

> <Gold.PLP.Chemscore.Internal.Correction>
0.2806

> <Gold.Rescore>
     Score         DG    S(hbond)    S(metal)    S(lipo)     H(rot)  DE(clash)    DE(int)     intcor
      9.15     -11.51       3.96        0.00      41.87       4.72       0.28       2.08       ----

> <Gold.Chemscore.Fitness>
9.1472

> <Gold.Chemscore.DG>
-11.5092

> <Gold.Chemscore.ZeroCoef>
-5.4800

> <Gold.Chemscore.Hbond>
3.9590

> <Gold.Chemscore.Metal>
0.0000

> <Gold.Chemscore.Lipo>
41.8749

> <Gold.Chemscore.Internal_Hbond>
0.0000

> <Gold.Chemscore.DEClash>
0.2845

> <Gold.Chemscore.DEInternal>
2.0774

> <Gold.Chemscore.Rot>
4.7239

> <Gold.Chemscore.Internal.Correction>
   9.000000E+99

> <Gold.Chemscore.Hbonds>
donor molecule, donor type, donor heavy atom, donor atom, acceptor molecule, acceptor atom, score
      L1  H    21    41       P1 10175  1.00
      P1  H  6931  6943       L1     7  0.79
      P1  H  6934  6947       L1     7  0.85
      P1  H  7989  7998       L1    15  0.16
      P1  H  8011  8017       L1    18  0.05
      P1  H  8022  8030       L1    18  0.06

> <Gold.Chemscore.Hbond.Weighted>
-13.2231

> <Gold.Chemscore.Metal.Weighted>
-0.0000

> <Gold.Chemscore.Lipo.Weighted>
-4.8994

> <Gold.Chemscore.Internal_Hbond.Weighted>
0.0000

> <Gold.Chemscore.DEClash.Weighted>
0.2845

> <Gold.Chemscore.DEInternal.Weighted>
2.0774

> <Gold.Chemscore.Rot.Weighted>
12.0933

> <Gold.Chemscore.Internal.Correction.Weighted>
   9.000000E+99

> <Gold.Protein.RotatedTorsions>
[ 6907 6896 6895 6894 ] final  -76.39 input  -60.11 | X-H torsion
[ 7974 7965 7964 7962 ] final  157.66 input  175.53 | X-H torsion
[ 8008 7997 7996 7995 ] final  104.74 input   59.86 | X-H torsion
[ 10167 10162 10161 10158 ] final  -93.66 input  -65.29 | X-H torsion
[ 10718 10713 10712 10709 ] final -108.08 input   66.30 | X-H torsion
[ 10763 10752 10751 10750 ] final -178.38 input  -60.55 | X-H torsion
[ 11005 11000 10999 10996 ] final    5.18 input  -57.11 | X-H torsion

> <Gold.Protein.ActiveResidues>
 VAL166  LYS551  ARG553  GLY616  TRP617  ASP618  TYR619  PRO620  LYS621  CYS622 
 ASP623  PHE694  ASN695  SER759  ASP760  ASP761  ALA762  ILE779  LEU786  VAL792 
 PHE793  MET794  SER795  GLU796  ALA797  LYS798  CYS799  TRP800  GLU811  SER814 

> <Gold.Protein.RotatedAtoms>
  150.7029  134.4578  159.5366 H   0  0  0  0  0  0  0  0  0  0  0  0  # atno 6907 bound_to 6896
  152.2259  134.8366  160.0489 H   0  0  0  0  0  0  0  0  0  0  0  0  # atno 6908 bound_to 6896
  151.9199  133.3548  159.3930 H   0  0  0  0  0  0  0  0  0  0  0  0  # atno 6909 bound_to 6896
  144.7890  139.7371  143.6229 H   0  0  0  0  0  0  0  0  0  0  0  0  # atno 7974 bound_to 7965
  156.1599  140.3142  155.8790 H   0  0  0  0  0  0  0  0  0  0  0  0  # atno 8008 bound_to 7997
  155.3803  140.0487  157.3061 H   0  0  0  0  0  0  0  0  0  0  0  0  # atno 8009 bound_to 7997
  154.5137  140.2173  155.9118 H   0  0  0  0  0  0  0  0  0  0  0  0  # atno 8010 bound_to 7997
  140.3224  143.3042  152.0032 H   0  0  0  0  0  0  0  0  0  0  0  0  # atno 10167 bound_to 10162
  156.0468  130.5695  150.7912 H   0  0  0  0  0  0  0  0  0  0  0  0  # atno 10718 bound_to 10713
  154.5484  135.2811  155.1031 H   0  0  0  0  0  0  0  0  0  0  0  0  # atno 10763 bound_to 10752
  154.2487  135.6343  153.5236 H   0  0  0  0  0  0  0  0  0  0  0  0  # atno 10764 bound_to 10752
  152.9996  135.5577  154.6043 H   0  0  0  0  0  0  0  0  0  0  0  0  # atno 10765 bound_to 10752
  140.5736  134.0079  155.8018 H   0  0  0  0  0  0  0  0  0  0  0  0  # atno 11005 bound_to 11000
  146.2135  139.5507  142.9665 LP  0  0  0  0  0  0  0  0  0  0  0  0  # atno 17320 bound_to 7965
  145.5844  141.0378  143.2104 LP  0  0  0  0  0  0  0  0  0  0  0  0  # atno 17321 bound_to 7965
  139.4872  144.6301  151.7087 LP  0  0  0  0  0  0  0  0  0  0  0  0  # atno 17342 bound_to 10162
  140.5472  144.0484  150.6112 LP  0  0  0  0  0  0  0  0  0  0  0  0  # atno 17343 bound_to 10162
  157.5352  131.0938  150.9902 LP  0  0  0  0  0  0  0  0  0  0  0  0  # atno 17370 bound_to 10713
  157.0198  130.5669  149.5330 LP  0  0  0  0  0  0  0  0  0  0  0  0  # atno 17371 bound_to 10713
  141.1041  133.9722  157.3028 LP  0  0  0  0  0  0  0  0  0  0  0  0  # atno 17394 bound_to 11000
  139.9350  135.0197  156.8527 LP  0  0  0  0  0  0  0  0  0  0  0  0  # atno 17395 bound_to 11000

$$$$
