AV-unprocessed.smi:2597|AV-procd|sdf|10170|dock5
  -GOLD-   2272014183D 1   1.00000     0.00000
 Structure written by MMmdl.
 31 32  0  0  0  0  0  0  0  0  2 V2000
  147.1772  134.1979  152.8086 N   0  3  0  0  0  0  0  0  0  0  0  0
  146.6280  133.2929  151.7810 C   0  0  1  0  0  0  0  0  0  0  0  0
  146.3264  131.9011  152.3732 C   0  0  0  0  0  0  0  0  0  0  0  0
  145.7602  130.9516  151.3054 C   0  0  0  0  0  0  0  0  0  0  0  0
  144.5127  131.5390  150.6273 C   0  0  0  0  0  0  0  0  0  0  0  0
  144.7968  132.9317  150.0338 C   0  0  0  0  0  0  0  0  0  0  0  0
  145.4134  133.9244  151.0471 C   0  0  1  0  0  0  0  0  0  0  0  0
  144.4150  134.5133  151.9413 N   0  0  0  0  0  0  0  0  0  0  0  0
  143.0619  134.2405  151.9798 C   0  0  0  0  0  0  0  0  0  0  0  0
  142.5913  135.0617  152.9645 C   0  0  0  0  0  0  0  0  0  0  0  0
  141.1918  135.2334  153.4705 C   0  0  0  0  0  0  0  0  0  0  0  0
  140.4540  134.1241  153.0046 O   0  0  0  0  0  0  0  0  0  0  0  0
  143.6600  135.7876  153.4848 N   0  0  0  0  0  0  0  0  0  0  0  0
  144.7461  135.4475  152.8674 N   0  0  0  0  0  0  0  0  0  0  0  0
  147.4204  133.1617  151.0428 H   0  0  0  0  0  0  0  0  0  0  0  0
  145.8024  134.7581  150.4601 H   0  0  0  0  0  0  0  0  0  0  0  0
  146.4180  134.6519  153.2965 H   0  0  0  0  0  0  0  0  0  0  0  0
  147.7576  134.8972  152.3679 H   0  0  0  0  0  0  0  0  0  0  0  0
  147.2392  131.4709  152.7869 H   0  0  0  0  0  0  0  0  0  0  0  0
  145.6288  131.9754  153.2069 H   0  0  0  0  0  0  0  0  0  0  0  0
  146.5238  130.7556  150.5517 H   0  0  0  0  0  0  0  0  0  0  0  0
  145.5182  129.9884  151.7556 H   0  0  0  0  0  0  0  0  0  0  0  0
  144.1771  130.8679  149.8362 H   0  0  0  0  0  0  0  0  0  0  0  0
  143.6917  131.5880  151.3415 H   0  0  0  0  0  0  0  0  0  0  0  0
  145.4901  132.8126  149.2000 H   0  0  0  0  0  0  0  0  0  0  0  0
  143.8845  133.3481  149.6046 H   0  0  0  0  0  0  0  0  0  0  0  0
  142.5714  133.5271  151.3338 H   0  0  0  0  0  0  0  0  0  0  0  0
  141.1659  135.2601  154.5599 H   0  0  0  0  0  0  0  0  0  0  0  0
  140.7386  136.1548  153.1032 H   0  0  0  0  0  0  0  0  0  0  0  0
  140.0398  134.3614  152.1890 H   0  0  0  0  0  0  0  0  0  0  0  0
  147.7301  133.6672  153.4665 H   0  0  0  0  0  0  0  0  0  0  0  0
  1  2  1  0  0  0  0
  1 17  1  0  0  0  0
  1 18  1  0  0  0  0
  1 31  1  0  0  0  0
  2 15  1  0  0  0  0
  2  7  1  0  0  0  0
  2  3  1  0  0  0  0
  3  4  1  0  0  0  0
  3 19  1  0  0  0  0
  3 20  1  0  0  0  0
  4  5  1  0  0  0  0
  4 21  1  0  0  0  0
  4 22  1  0  0  0  0
  5  6  1  0  0  0  0
  5 23  1  0  0  0  0
  5 24  1  0  0  0  0
  6  7  1  0  0  0  0
  6 25  1  0  0  0  0
  6 26  1  0  0  0  0
  7 16  1  0  0  0  0
  7  8  1  0  0  0  0
  8 14  1  0  0  0  0
  8  9  1  0  0  0  0
  9 10  2  0  0  0  0
  9 27  1  0  0  0  0
 10 11  1  0  0  0  0
 10 13  1  0  0  0  0
 11 12  1  0  0  0  0
 11 28  1  0  0  0  0
 11 29  1  0  0  0  0
 12 30  1  0  0  0  0
 13 14  2  0  0  0  0
M  CHG  1   1   1
M  END
> <s_m_source_file>
AV-unprocessed.smi

> <i_m_source_file_index>
2597

> <i_lp_mmshare_version>
43012

> <i_f3d_flags>
0

> <s_epik_input>
W05IMl1bQ0BIXTFbQ0gyXVtDSDJdW0NIMl1bQ0gyXVtDQEhdMW4yW2NIXWMobm4yKVtDSDJdW09IXQ==

> <s_epik_cmdline>
J2VwaWtfcHl0aG9uJywgJy1waCcsICc3LjAnLCAnLXRuJywgJzgnLCAnLW1hJywgJzIwMCcsICctbWV0YWxfYmluZGluZycsICctaW1hZScsICc8aW5maWxlLm1hZT4nLCAnLW9tYWUnLCAnPG91dGZpbGUubWFlPic=

> <r_lp_tautomer_probability>
1

> <r_epik_Ionization_Penalty>
0.014346

> <r_epik_Ionization_Penalty_Charging>
0.014316

> <r_epik_Ionization_Penalty_Neutral>
3.00097e-05

> <r_epik_State_Penalty>
0.0111909

> <r_epik_Charging_Adjusted_Penalty>
0.0255069

> <i_epik_Tot_Q>
1

> <i_epik_Tot_abs_Q>
1

> <r_epik_Metal_State_Penalty>
0.011192

> <b_epik_Metal_Only>
0

> <s_lp_Force_Field>
OPLS_2005

> <r_lp_Energy>
16.1833

> <b_lp_Chiralities_Consistent>
1

> <s_lp_Variant>
AV-unprocessed.smi:2597-1

> <Gold.Version>
5.8.1

> <Gold.Id.Protein>
6NUR|6NUR_protein|mol2

> <Gold.PLP.Fitness>
39.0243

> <Gold.PLP.PLP>
-27.4952

> <Gold.PLP.part.hbond>
-3.5218

> <Gold.PLP.part.metal>
0.0000

> <Gold.PLP.part.buried>
-4.0954

> <Gold.PLP.part.nonpolar>
-19.5205

> <Gold.PLP.part.repulsive>
0.1321

> <Gold.PLP.ligand.clash>
0.0000

> <Gold.PLP.ligand.torsion>
0.2386

> <Gold.PLP.Chemscore.Hbond>
3.1983

> <Gold.PLP.Chemscore.CHOScore>
0.7821

> <Gold.PLP.Chemscore.Metal>
0.0000

> <Gold.Chemscore.Hbonds>
donor molecule, donor type, donor heavy atom, donor atom, acceptor molecule, acceptor atom, score
      L1  H     1    18       P1  7948  2.00
      L1  H    12    30       P1 10187  0.65
      P1  H 10995 11001       L1    12  0.62
      L1  C     9    27       P1 10186  0.75

> <Gold.PLP.Chemscore.Internal.Correction>
0.0650

> <Gold.Rescore>
     Score         DG    S(hbond)    S(metal)    S(lipo)     H(rot)  DE(clash)    DE(int)     intcor
     12.05     -13.77       1.69        0.00      63.23       1.86       0.04       1.68       ----

> <Gold.Chemscore.Fitness>
12.0499

> <Gold.Chemscore.DG>
-13.7722

> <Gold.Chemscore.ZeroCoef>
-5.4800

> <Gold.Chemscore.Hbond>
1.6896

> <Gold.Chemscore.Metal>
0.0000

> <Gold.Chemscore.Lipo>
63.2304

> <Gold.Chemscore.Internal_Hbond>
0.0000

> <Gold.Chemscore.DEClash>
0.0401

> <Gold.Chemscore.DEInternal>
1.6821

> <Gold.Chemscore.Rot>
1.8551

> <Gold.Chemscore.Internal.Correction>
   9.000000E+99

> <Gold.Chemscore.Hbonds>
donor molecule, donor type, donor heavy atom, donor atom, acceptor molecule, acceptor atom, score
      L1  H     1    18       P1  7948  0.88
      L1  H    12    30       P1 10187  0.06
      P1  H 10995 11001       L1    12  0.15

> <Gold.Chemscore.Hbond.Weighted>
-5.6431

> <Gold.Chemscore.Metal.Weighted>
-0.0000

> <Gold.Chemscore.Lipo.Weighted>
-7.3980

> <Gold.Chemscore.Internal_Hbond.Weighted>
0.0000

> <Gold.Chemscore.DEClash.Weighted>
0.0401

> <Gold.Chemscore.DEInternal.Weighted>
1.6821

> <Gold.Chemscore.Rot.Weighted>
4.7489

> <Gold.Chemscore.Internal.Correction.Weighted>
   9.000000E+99

> <Gold.Protein.RotatedTorsions>
[ 6907 6896 6895 6894 ] final  174.04 input  -60.11 | X-H torsion
[ 7974 7965 7964 7962 ] final   86.63 input  175.53 | X-H torsion
[ 8008 7997 7996 7995 ] final   -9.33 input   59.86 | X-H torsion
[ 10167 10162 10161 10158 ] final   47.19 input  -65.29 | X-H torsion
[ 10718 10713 10712 10709 ] final   24.00 input   66.30 | X-H torsion
[ 10763 10752 10751 10750 ] final  -75.62 input  -60.55 | X-H torsion
[ 11005 11000 10999 10996 ] final  -95.41 input  -57.11 | X-H torsion

> <Gold.Protein.ActiveResidues>
 VAL166  LYS551  ARG553  GLY616  TRP617  ASP618  TYR619  PRO620  LYS621  CYS622 
 ASP623  PHE694  ASN695  SER759  ASP760  ASP761  ALA762  ILE779  LEU786  VAL792 
 PHE793  MET794  SER795  GLU796  ALA797  LYS798  CYS799  TRP800  GLU811  SER814 

> <Gold.Protein.RotatedAtoms>
  151.7586  133.3332  159.3411 H   0  0  0  0  0  0  0  0  0  0  0  0  # atno 6907 bound_to 6896
  150.7507  134.6127  159.6104 H   0  0  0  0  0  0  0  0  0  0  0  0  # atno 6908 bound_to 6896
  152.3420  134.7123  160.0312 H   0  0  0  0  0  0  0  0  0  0  0  0  # atno 6909 bound_to 6896
  145.5697  139.2312  143.2413 H   0  0  0  0  0  0  0  0  0  0  0  0  # atno 7974 bound_to 7965
  154.5656  140.2358  155.8268 H   0  0  0  0  0  0  0  0  0  0  0  0  # atno 8008 bound_to 7997
  156.2066  140.3038  155.9598 H   0  0  0  0  0  0  0  0  0  0  0  0  # atno 8009 bound_to 7997
  155.2807  140.0422  157.3006 H   0  0  0  0  0  0  0  0  0  0  0  0  # atno 8010 bound_to 7997
  140.3062  144.2875  150.6209 H   0  0  0  0  0  0  0  0  0  0  0  0  # atno 10167 bound_to 10162
  157.1738  130.6771  149.6087 H   0  0  0  0  0  0  0  0  0  0  0  0  # atno 10718 bound_to 10713
  154.4890  135.5825  153.6445 H   0  0  0  0  0  0  0  0  0  0  0  0  # atno 10763 bound_to 10752
  152.9859  135.6108  154.3149 H   0  0  0  0  0  0  0  0  0  0  0  0  # atno 10764 bound_to 10752
  154.3047  135.2846  155.2574 H   0  0  0  0  0  0  0  0  0  0  0  0  # atno 10765 bound_to 10752
  141.1442  133.8024  157.0431 H   0  0  0  0  0  0  0  0  0  0  0  0  # atno 11005 bound_to 11000
  146.1793  140.6523  142.9197 LP  0  0  0  0  0  0  0  0  0  0  0  0  # atno 17320 bound_to 7965
  144.7443  140.5027  143.6846 LP  0  0  0  0  0  0  0  0  0  0  0  0  # atno 17321 bound_to 7965
  140.5608  143.2192  151.7769 LP  0  0  0  0  0  0  0  0  0  0  0  0  # atno 17342 bound_to 10162
  139.4904  144.4351  151.9828 LP  0  0  0  0  0  0  0  0  0  0  0  0  # atno 17343 bound_to 10162
  155.9734  130.4670  150.6309 LP  0  0  0  0  0  0  0  0  0  0  0  0  # atno 17370 bound_to 10713
  157.4018  131.0811  151.1301 LP  0  0  0  0  0  0  0  0  0  0  0  0  # atno 17371 bound_to 10713
  140.0679  134.9718  157.1418 LP  0  0  0  0  0  0  0  0  0  0  0  0  # atno 17394 bound_to 11000
  140.3752  134.2346  155.7175 LP  0  0  0  0  0  0  0  0  0  0  0  0  # atno 17395 bound_to 11000

$$$$
