AV-unprocessed.smi:28|AV-procd|sdf|189|dock9
  -GOLD-   2262015453D 1   1.00000     0.00000
 Structure written by MMmdl.
 41 44  0  0  0  0  0  0  0  0  1 V2000
  151.4922  137.2239  158.0859 O   0  0  0  0  0  0  0  0  0  0  0  0
  151.2875  138.0088  157.1584 C   0  0  0  0  0  0  0  0  0  0  0  0
  149.9520  138.4072  156.7267 C   0  0  0  0  0  0  0  0  0  0  0  0
  148.8750  137.9195  157.3651 F   0  0  0  0  0  0  0  0  0  0  0  0
  149.7767  139.2565  155.6911 C   0  0  0  0  0  0  0  0  0  0  0  0
  150.8296  139.8046  154.9762 N   0  0  0  0  0  0  0  0  0  0  0  0
  150.6078  140.7358  153.8021 C   0  0  2  0  0  0  0  0  0  0  0  0
  150.1173  142.1142  154.2861 C   0  0  0  0  0  0  0  0  0  0  0  0
  148.8729  142.3409  153.4505 C   0  0  0  0  0  0  0  0  0  0  0  0
  148.3959  140.9181  153.2017 C   0  0  0  0  0  0  0  0  0  0  0  0
  149.6112  140.2196  152.9661 O   0  0  0  0  0  0  0  0  0  0  0  0
  152.1572  139.4679  155.3202 C   0  0  0  0  0  0  0  0  0  0  0  0
  153.1079  139.9232  154.6800 O   0  0  0  0  0  0  0  0  0  0  0  0
  152.3437  138.5896  156.4139 N   0  0  0  0  0  0  0  0  0  0  0  0
  153.7050  138.2120  156.7558 C   0  0  0  0  0  0  0  0  0  0  0  0
  154.1981  139.0358  157.9033 C   0  0  0  0  0  0  0  0  0  0  0  0
  155.4115  139.0129  158.4577 N   0  0  0  0  0  0  0  0  0  0  0  0
  155.3828  139.9585  159.4572 N   0  0  0  0  0  0  0  0  0  0  0  0
  154.1560  140.4896  159.4298 C   0  0  0  0  0  0  0  0  0  0  0  0
  153.5837  141.5263  160.2810 C   0  0  0  0  0  0  0  0  0  0  0  0
  152.8594  142.5760  159.6744 C   0  0  0  0  0  0  0  0  0  0  0  0
  152.2910  143.5987  160.4571 C   0  0  0  0  0  0  0  0  0  0  0  0
  152.4480  143.5827  161.8549 C   0  0  0  0  0  0  0  0  0  0  0  0
  153.1792  142.5474  162.4663 C   0  0  0  0  0  0  0  0  0  0  0  0
  153.7518  141.5208  161.6884 C   0  0  0  0  0  0  0  0  0  0  0  0
  154.7672  140.1729  162.5777 Br  0  0  0  0  0  0  0  0  0  0  0  0
  153.3588  139.9343  158.4791 O   0  0  0  0  0  0  0  0  0  0  0  0
  148.7606  139.5022  155.4232 H   0  0  0  0  0  0  0  0  0  0  0  0
  151.5570  140.7616  153.2640 H   0  0  0  0  0  0  0  0  0  0  0  0
  149.8617  142.0751  155.3464 H   0  0  0  0  0  0  0  0  0  0  0  0
  150.8816  142.8769  154.1332 H   0  0  0  0  0  0  0  0  0  0  0  0
  148.1282  142.9605  153.9507 H   0  0  0  0  0  0  0  0  0  0  0  0
  149.1369  142.8165  152.5051 H   0  0  0  0  0  0  0  0  0  0  0  0
  147.8941  140.5165  154.0834 H   0  0  0  0  0  0  0  0  0  0  0  0
  147.7171  140.8416  152.3522 H   0  0  0  0  0  0  0  0  0  0  0  0
  153.7222  137.1477  156.9961 H   0  0  0  0  0  0  0  0  0  0  0  0
  154.3408  138.3378  155.8782 H   0  0  0  0  0  0  0  0  0  0  0  0
  152.7303  142.5969  158.6018 H   0  0  0  0  0  0  0  0  0  0  0  0
  151.7341  144.3946  159.9847 H   0  0  0  0  0  0  0  0  0  0  0  0
  152.0130  144.3665  162.4574 H   0  0  0  0  0  0  0  0  0  0  0  0
  153.3071  142.5437  163.5388 H   0  0  0  0  0  0  0  0  0  0  0  0
  1  2  2  0  0  0  0
  2 14  1  0  0  0  0
  2  3  1  0  0  0  0
  3  4  1  0  0  0  0
  3  5  2  0  0  0  0
  5  6  1  0  0  0  0
  5 28  1  0  0  0  0
  6  7  1  0  0  0  0
  6 12  1  0  0  0  0
  7 11  1  0  0  0  0
  7  8  1  0  0  0  0
  7 29  1  0  0  0  0
  8  9  1  0  0  0  0
  8 30  1  0  0  0  0
  8 31  1  0  0  0  0
  9 10  1  0  0  0  0
  9 32  1  0  0  0  0
  9 33  1  0  0  0  0
 10 11  1  0  0  0  0
 10 34  1  0  0  0  0
 10 35  1  0  0  0  0
 12 13  2  0  0  0  0
 12 14  1  0  0  0  0
 14 15  1  0  0  0  0
 15 16  1  0  0  0  0
 15 36  1  0  0  0  0
 15 37  1  0  0  0  0
 16 27  1  0  0  0  0
 16 17  2  0  0  0  0
 17 18  1  0  0  0  0
 18 19  2  0  0  0  0
 19 20  1  0  0  0  0
 19 27  1  0  0  0  0
 20 25  1  0  0  0  0
 20 21  2  0  0  0  0
 21 22  1  0  0  0  0
 21 38  1  0  0  0  0
 22 23  2  0  0  0  0
 22 39  1  0  0  0  0
 23 24  1  0  0  0  0
 23 40  1  0  0  0  0
 24 25  2  0  0  0  0
 24 41  1  0  0  0  0
 25 26  1  0  0  0  0
M  END
> <s_m_source_file>
AV-unprocessed.smi

> <i_m_source_file_index>
28

> <i_lp_mmshare_version>
43012

> <i_f3d_flags>
0

> <s_epik_input>
TzFbQ0gyXVtDSDJdW0NIMl1bQ0BIXTFuKFtjSF1jKEYpYzI9TyljKD1PKW4yW0NIMl1jM25uYyhvMyktYzRbY0hdW2NIXVtjSF1bY0hdYzRCcg==

> <s_epik_cmdline>
J2VwaWtfcHl0aG9uJywgJy1waCcsICc3LjAnLCAnLXRuJywgJzgnLCAnLW1hJywgJzIwMCcsICctbWV0YWxfYmluZGluZycsICctaW1hZScsICc8aW5maWxlLm1hZT4nLCAnLW9tYWUnLCAnPG91dGZpbGUubWFlPic=

> <r_lp_tautomer_probability>
1

> <r_epik_Ionization_Penalty>
2.5628e-09

> <r_epik_Ionization_Penalty_Charging>
2.54231e-09

> <r_epik_Ionization_Penalty_Neutral>
2.0492e-11

> <r_epik_State_Penalty>
-0

> <r_epik_Charging_Adjusted_Penalty>
2.54231e-09

> <i_epik_Tot_Q>
0

> <i_epik_Tot_abs_Q>
0

> <r_epik_Metal_State_Penalty>
-0

> <b_epik_Metal_Only>
0

> <s_epik_Chemistry_Notes>
This compound contains an acetal/aminal-like group ( X-CH(R)-Y where X, Y are N, S, or O) that may be acid/base labile, releasing an aldehyde.

> <s_lp_Force_Field>
OPLS_2005

> <r_lp_Energy>
34.3922

> <b_lp_Chiralities_Consistent>
1

> <s_lp_Variant>
AV-unprocessed.smi:28-1

> <Gold.Version>
5.8.1

> <Gold.Id.Protein>
6NUR|6NUR_protein|mol2

> <Gold.PLP.Fitness>
49.5456

> <Gold.PLP.PLP>
-47.5697

> <Gold.PLP.part.hbond>
-3.7269

> <Gold.PLP.part.metal>
0.0000

> <Gold.PLP.part.buried>
-3.7365

> <Gold.PLP.part.nonpolar>
-40.5685

> <Gold.PLP.part.repulsive>
1.3097

> <Gold.PLP.ligand.clash>
0.0000

> <Gold.PLP.ligand.torsion>
1.3956

> <Gold.PLP.Chemscore.Hbond>
1.5807

> <Gold.PLP.Chemscore.CHOScore>
0.0000

> <Gold.PLP.Chemscore.Metal>
0.0000

> <Gold.Chemscore.Hbonds>
donor molecule, donor type, donor heavy atom, donor atom, acceptor molecule, acceptor atom, score
      P1  H  7989  7998       L1    13  0.08
      P1  H  7997  8010       L1    13  1.00

> <Gold.PLP.Chemscore.Internal.Correction>
0.0251

> <Gold.Rescore>
     Score         DG    S(hbond)    S(metal)    S(lipo)     H(rot)  DE(clash)    DE(int)     intcor
     15.65     -17.74       1.51        0.00      98.72       1.70       0.96       1.13       ----

> <Gold.Chemscore.Fitness>
15.6511

> <Gold.Chemscore.DG>
-17.7394

> <Gold.Chemscore.ZeroCoef>
-5.4800

> <Gold.Chemscore.Hbond>
1.5139

> <Gold.Chemscore.Metal>
0.0000

> <Gold.Chemscore.Lipo>
98.7163

> <Gold.Chemscore.Internal_Hbond>
0.0000

> <Gold.Chemscore.DEClash>
0.9595

> <Gold.Chemscore.DEInternal>
1.1289

> <Gold.Chemscore.Rot>
1.6980

> <Gold.Chemscore.Internal.Correction>
   9.000000E+99

> <Gold.Chemscore.Hbonds>
donor molecule, donor type, donor heavy atom, donor atom, acceptor molecule, acceptor atom, score
      P1  H  7997  8010       L1    13  0.65

> <Gold.Chemscore.Hbond.Weighted>
-5.0565

> <Gold.Chemscore.Metal.Weighted>
-0.0000

> <Gold.Chemscore.Lipo.Weighted>
-11.5498

> <Gold.Chemscore.Internal_Hbond.Weighted>
0.0000

> <Gold.Chemscore.DEClash.Weighted>
0.9595

> <Gold.Chemscore.DEInternal.Weighted>
1.1289

> <Gold.Chemscore.Rot.Weighted>
4.3469

> <Gold.Chemscore.Internal.Correction.Weighted>
   9.000000E+99

> <Gold.Protein.RotatedTorsions>
[ 6907 6896 6895 6894 ] final  102.29 input  -60.11 | X-H torsion
[ 7974 7965 7964 7962 ] final  -18.67 input  175.53 | X-H torsion
[ 8008 7997 7996 7995 ] final  107.01 input   59.86 | X-H torsion
[ 10167 10162 10161 10158 ] final -165.23 input  -65.29 | X-H torsion
[ 10718 10713 10712 10709 ] final   69.79 input   66.30 | X-H torsion
[ 10763 10752 10751 10750 ] final   29.96 input  -60.55 | X-H torsion
[ 11005 11000 10999 10996 ] final  -69.32 input  -57.11 | X-H torsion

> <Gold.Protein.ActiveResidues>
 VAL166  LYS551  ARG553  GLY616  TRP617  ASP618  TYR619  PRO620  LYS621  CYS622 
 ASP623  PHE694  ASN695  SER759  ASP760  ASP761  ALA762  ILE779  LEU786  VAL792 
 PHE793  MET794  SER795  GLU796  ALA797  LYS798  CYS799  TRP800  GLU811  SER814 

> <Gold.Protein.RotatedAtoms>
  152.5327  133.9997  159.7888 H   0  0  0  0  0  0  0  0  0  0  0  0  # atno 6907 bound_to 6896
  151.0218  133.5862  159.2677 H   0  0  0  0  0  0  0  0  0  0  0  0  # atno 6908 bound_to 6896
  151.2898  135.0745  159.9253 H   0  0  0  0  0  0  0  0  0  0  0  0  # atno 6909 bound_to 6896
  146.1880  140.3954  142.8469 H   0  0  0  0  0  0  0  0  0  0  0  0  # atno 7974 bound_to 7965
  156.1789  140.3102  155.9112 H   0  0  0  0  0  0  0  0  0  0  0  0  # atno 8008 bound_to 7997
  155.3427  140.0466  157.3062 H   0  0  0  0  0  0  0  0  0  0  0  0  # atno 8009 bound_to 7997
  154.5321  140.2234  155.8797 H   0  0  0  0  0  0  0  0  0  0  0  0  # atno 8010 bound_to 7997
  139.6196  144.0651  152.1920 H   0  0  0  0  0  0  0  0  0  0  0  0  # atno 10167 bound_to 10162
  157.6365  130.9444  150.0562 H   0  0  0  0  0  0  0  0  0  0  0  0  # atno 10718 bound_to 10713
  153.0399  135.6476  154.0972 H   0  0  0  0  0  0  0  0  0  0  0  0  # atno 10763 bound_to 10752
  154.0680  135.2883  155.3315 H   0  0  0  0  0  0  0  0  0  0  0  0  # atno 10764 bound_to 10752
  154.6613  135.5390  153.8087 H   0  0  0  0  0  0  0  0  0  0  0  0  # atno 10765 bound_to 10752
  141.1551  133.6761  156.6581 H   0  0  0  0  0  0  0  0  0  0  0  0  # atno 11005 bound_to 11000
  144.8434  140.6891  143.6215 LP  0  0  0  0  0  0  0  0  0  0  0  0  # atno 17320 bound_to 7965
  145.3879  139.1623  143.4245 LP  0  0  0  0  0  0  0  0  0  0  0  0  # atno 17321 bound_to 7965
  140.0290  144.6096  150.7504 LP  0  0  0  0  0  0  0  0  0  0  0  0  # atno 17342 bound_to 10162
  140.7373  143.2764  151.3729 LP  0  0  0  0  0  0  0  0  0  0  0  0  # atno 17343 bound_to 10162
  156.1609  130.3644  149.9301 LP  0  0  0  0  0  0  0  0  0  0  0  0  # atno 17370 bound_to 10713
  156.7299  130.9039  151.3625 LP  0  0  0  0  0  0  0  0  0  0  0  0  # atno 17371 bound_to 10713
  140.3268  134.7962  157.4295 LP  0  0  0  0  0  0  0  0  0  0  0  0  # atno 17394 bound_to 11000
  140.1050  134.5422  155.8318 LP  0  0  0  0  0  0  0  0  0  0  0  0  # atno 17395 bound_to 11000

$$$$
