AV-unprocessed.smi:113|AV-procd|sdf|1101|dock5
  -GOLD-   2262018213D 1   1.00000     0.00000
 Structure written by MMmdl.
 53 56  0  0  0  0  0  0  0  0  2 V2000
  148.7057  141.7154  154.6044 C   0  0  0  0  0  0  0  0  0  0  0  0
  149.7475  141.4897  155.6794 C   0  0  0  0  0  0  0  0  0  0  0  0
  150.3206  140.2248  155.9127 C   0  0  0  0  0  0  0  0  0  0  0  0
  151.2884  140.0636  156.9350 C   0  0  0  0  0  0  0  0  0  0  0  0
  151.9253  138.6977  157.2134 C   0  0  0  0  0  0  0  0  0  0  0  0
  151.0371  137.5439  157.1912 N   0  0  0  0  0  0  0  0  0  0  0  0
  150.1423  137.3731  158.2753 C   0  0  0  0  0  0  0  0  0  0  0  0
  150.1152  138.1642  159.2205 O   0  0  0  0  0  0  0  0  0  0  0  0
  149.2830  136.1901  158.1902 C   0  0  0  0  0  0  0  0  0  0  0  0
  148.2629  135.9645  159.2953 C   0  0  0  0  0  0  0  0  0  0  0  0
  149.4136  135.3375  157.1452 C   0  0  0  0  0  0  0  0  0  0  0  0
  150.3343  135.4988  156.1243 N   0  0  0  0  0  0  0  0  0  0  0  0
  150.3739  134.4884  154.9951 C   0  0  2  0  0  0  0  0  0  0  0  0
  149.0391  134.3391  154.2553 C   0  0  0  0  0  0  0  0  0  0  0  0
  149.0543  132.8615  153.9224 C   0  0  2  0  0  0  0  0  0  0  0  0
  147.7404  132.3679  153.7597 O   0  0  0  0  0  0  0  0  0  0  0  0
  149.7612  132.2497  155.1366 C   0  0  1  0  0  0  0  0  0  0  0  0
  150.4743  130.9256  154.8226 C   0  0  0  0  0  0  0  0  0  0  0  0
  149.5663  130.0079  154.2517 O   0  0  0  0  0  0  0  0  0  0  0  0
  150.7209  133.2380  155.5140 O   0  0  0  0  0  0  0  0  0  0  0  0
  151.1641  136.6422  156.1108 C   0  0  0  0  0  0  0  0  0  0  0  0
  151.9745  136.8374  155.2031 O   0  0  0  0  0  0  0  0  0  0  0  0
  151.6568  141.2044  157.6998 C   0  0  0  0  0  0  0  0  0  0  0  0
  152.6183  141.1394  158.7367 C   0  0  0  0  0  0  0  0  0  0  0  0
  152.9536  142.2917  159.4743 C   0  0  0  0  0  0  0  0  0  0  0  0
  152.3362  143.5233  159.1871 C   0  0  0  0  0  0  0  0  0  0  0  0
  151.3797  143.6062  158.1585 C   0  0  0  0  0  0  0  0  0  0  0  0
  151.0426  142.4550  157.4196 C   0  0  0  0  0  0  0  0  0  0  0  0
  150.1246  142.5416  156.4339 N   0  3  0  0  0  0  0  0  0  0  0  0
  148.7937  140.9673  153.8159 H   0  0  0  0  0  0  0  0  0  0  0  0
  148.8221  142.7001  154.1506 H   0  0  0  0  0  0  0  0  0  0  0  0
  147.7045  141.6481  155.0304 H   0  0  0  0  0  0  0  0  0  0  0  0
  150.0071  139.3913  155.3021 H   0  0  0  0  0  0  0  0  0  0  0  0
  152.7334  138.5097  156.5050 H   0  0  0  0  0  0  0  0  0  0  0  0
  152.4187  138.7006  158.1868 H   0  0  0  0  0  0  0  0  0  0  0  0
  147.6647  135.0703  159.1192 H   0  0  0  0  0  0  0  0  0  0  0  0
  147.5803  136.8125  159.3650 H   0  0  0  0  0  0  0  0  0  0  0  0
  148.7627  135.8471  160.2575 H   0  0  0  0  0  0  0  0  0  0  0  0
  148.7617  134.4761  157.1152 H   0  0  0  0  0  0  0  0  0  0  0  0
  151.1731  134.8055  154.3248 H   0  0  0  0  0  0  0  0  0  0  0  0
  148.1975  134.5900  154.8997 H   0  0  0  0  0  0  0  0  0  0  0  0
  149.0053  134.9832  153.3763 H   0  0  0  0  0  0  0  0  0  0  0  0
  149.6348  132.6927  153.0141 H   0  0  0  0  0  0  0  0  0  0  0  0
  147.3369  132.8202  153.0344 H   0  0  0  0  0  0  0  0  0  0  0  0
  149.0439  132.1219  155.9491 H   0  0  0  0  0  0  0  0  0  0  0  0
  151.2693  131.0918  154.0949 H   0  0  0  0  0  0  0  0  0  0  0  0
  150.9352  130.5009  155.7148 H   0  0  0  0  0  0  0  0  0  0  0  0
  149.3954  129.3229  154.8801 H   0  0  0  0  0  0  0  0  0  0  0  0
  153.1136  140.2131  158.9853 H   0  0  0  0  0  0  0  0  0  0  0  0
  153.6880  142.2297  160.2643 H   0  0  0  0  0  0  0  0  0  0  0  0
  152.5970  144.4041  159.7557 H   0  0  0  0  0  0  0  0  0  0  0  0
  150.9091  144.5545  157.9419 H   0  0  0  0  0  0  0  0  0  0  0  0
  149.6954  143.4483  156.2499 H   0  0  0  0  0  0  0  0  0  0  0  0
  1  2  1  0  0  0  0
  1 30  1  0  0  0  0
  1 31  1  0  0  0  0
  1 32  1  0  0  0  0
  2 29  1  0  0  0  0
  2  3  2  0  0  0  0
  3  4  1  0  0  0  0
  3 33  1  0  0  0  0
  4  5  1  0  0  0  0
  4 23  2  0  0  0  0
  5  6  1  0  0  0  0
  5 34  1  0  0  0  0
  5 35  1  0  0  0  0
  6 21  1  0  0  0  0
  6  7  1  0  0  0  0
  7  8  2  0  0  0  0
  7  9  1  0  0  0  0
  9 10  1  0  0  0  0
  9 11  2  0  0  0  0
 10 36  1  0  0  0  0
 10 37  1  0  0  0  0
 10 38  1  0  0  0  0
 11 12  1  0  0  0  0
 11 39  1  0  0  0  0
 12 13  1  0  0  0  0
 12 21  1  0  0  0  0
 13 20  1  0  0  0  0
 13 14  1  0  0  0  0
 13 40  1  0  0  0  0
 14 15  1  0  0  0  0
 14 41  1  0  0  0  0
 14 42  1  0  0  0  0
 15 16  1  0  0  0  0
 15 17  1  0  0  0  0
 15 43  1  0  0  0  0
 16 44  1  0  0  0  0
 17 18  1  0  0  0  0
 17 20  1  0  0  0  0
 17 45  1  0  0  0  0
 18 19  1  0  0  0  0
 18 46  1  0  0  0  0
 18 47  1  0  0  0  0
 19 48  1  0  0  0  0
 21 22  2  0  0  0  0
 23 28  1  0  0  0  0
 23 24  1  0  0  0  0
 24 25  2  0  0  0  0
 24 49  1  0  0  0  0
 25 26  1  0  0  0  0
 25 50  1  0  0  0  0
 26 27  2  0  0  0  0
 26 51  1  0  0  0  0
 27 28  1  0  0  0  0
 27 52  1  0  0  0  0
 28 29  2  0  0  0  0
 29 53  1  0  0  0  0
M  CHG  1  29   1
M  END
> <s_m_source_file>
AV-unprocessed.smi

> <i_m_source_file_index>
113

> <i_lp_mmshare_version>
43012

> <i_f3d_flags>
0

> <s_epik_input>
W2NIXTFbY0hdW2NIXVtjSF1jKGMxMiluYyhbQ0gzXSlbY0hdYzJbQ0gyXW4zYyg9TyljKFtDSDNdKVtjSF1uKGMzPU8pW0NAQEhdNFtDSDJdW0NAQEhdKFtPSF0pW0NASF0oTzQpW0NIMl1bT0hd

> <s_epik_cmdline>
J2VwaWtfcHl0aG9uJywgJy1waCcsICc3LjAnLCAnLXRuJywgJzgnLCAnLW1hJywgJzIwMCcsICctbWV0YWxfYmluZGluZycsICctaW1hZScsICc8aW5maWxlLm1hZT4nLCAnLW9tYWUnLCAnPG91dGZpbGUubWFlPic=

> <r_lp_tautomer_probability>
1

> <r_epik_Ionization_Penalty>
0.705471

> <r_epik_Ionization_Penalty_Charging>
0.70547

> <r_epik_Ionization_Penalty_Neutral>
1.19947e-07

> <r_epik_State_Penalty>
0.728574

> <r_epik_Charging_Adjusted_Penalty>
1.43404

> <i_epik_Tot_Q>
1

> <i_epik_Tot_abs_Q>
1

> <r_epik_Metal_State_Penalty>
4.61665

> <b_epik_Metal_Only>
0

> <s_epik_Chemistry_Notes>
This compound contains an acetal/aminal-like group ( X-CH(R)-Y where X, Y are N, S, or O) that may be acid/base labile, releasing an aldehyde.

> <s_lp_Force_Field>
OPLS_2005

> <r_lp_Energy>
36.4748

> <b_lp_Chiralities_Consistent>
1

> <s_lp_Variant>
AV-unprocessed.smi:113-11

> <Gold.Version>
5.8.1

> <Gold.Id.Protein>
6NUR|6NUR_protein|mol2

> <Gold.PLP.Fitness>
57.5739

> <Gold.PLP.PLP>
-49.3693

> <Gold.PLP.part.hbond>
-3.0000

> <Gold.PLP.part.metal>
0.0000

> <Gold.PLP.part.buried>
-6.7088

> <Gold.PLP.part.nonpolar>
-41.0591

> <Gold.PLP.part.repulsive>
0.1799

> <Gold.PLP.ligand.clash>
0.0000

> <Gold.PLP.ligand.torsion>
0.4161

> <Gold.PLP.Chemscore.Hbond>
3.0000

> <Gold.PLP.Chemscore.CHOScore>
0.0000

> <Gold.PLP.Chemscore.Metal>
0.0000

> <Gold.Chemscore.Hbonds>
donor molecule, donor type, donor heavy atom, donor atom, acceptor molecule, acceptor atom, score
      L1  H    29    53       P1  8028  2.00
      P1  H 10752 10764       L1    22  1.00

> <Gold.PLP.Chemscore.Internal.Correction>
0.0368

> <Gold.Rescore>
     Score         DG    S(hbond)    S(metal)    S(lipo)     H(rot)  DE(clash)    DE(int)     intcor
     18.14     -18.60       1.97        0.00     121.66       3.01       0.07       0.38       ----

> <Gold.Chemscore.Fitness>
18.1440

> <Gold.Chemscore.DG>
-18.5986

> <Gold.Chemscore.ZeroCoef>
-5.4800

> <Gold.Chemscore.Hbond>
1.9744

> <Gold.Chemscore.Metal>
0.0000

> <Gold.Chemscore.Lipo>
121.6645

> <Gold.Chemscore.Internal_Hbond>
0.0000

> <Gold.Chemscore.DEClash>
0.0748

> <Gold.Chemscore.DEInternal>
0.3798

> <Gold.Chemscore.Rot>
3.0120

> <Gold.Chemscore.Internal.Correction>
   9.000000E+99

> <Gold.Chemscore.Hbonds>
donor molecule, donor type, donor heavy atom, donor atom, acceptor molecule, acceptor atom, score
      L1  H    29    53       P1  8028  0.99
      P1  H 10752 10764       L1    22  0.89

> <Gold.Chemscore.Hbond.Weighted>
-6.5946

> <Gold.Chemscore.Metal.Weighted>
-0.0000

> <Gold.Chemscore.Lipo.Weighted>
-14.2347

> <Gold.Chemscore.Internal_Hbond.Weighted>
0.0000

> <Gold.Chemscore.DEClash.Weighted>
0.0748

> <Gold.Chemscore.DEInternal.Weighted>
0.3798

> <Gold.Chemscore.Rot.Weighted>
7.7108

> <Gold.Chemscore.Internal.Correction.Weighted>
   9.000000E+99

> <Gold.Protein.RotatedTorsions>
[ 6907 6896 6895 6894 ] final   60.80 input  -60.11 | X-H torsion
[ 7974 7965 7964 7962 ] final  130.78 input  175.53 | X-H torsion
[ 8008 7997 7996 7995 ] final  146.28 input   59.86 | X-H torsion
[ 10167 10162 10161 10158 ] final  -33.67 input  -65.29 | X-H torsion
[ 10718 10713 10712 10709 ] final   87.95 input   66.30 | X-H torsion
[ 10763 10752 10751 10750 ] final  -45.81 input  -60.55 | X-H torsion
[ 11005 11000 10999 10996 ] final -120.36 input  -57.11 | X-H torsion

> <Gold.Protein.ActiveResidues>
 VAL166  LYS551  ARG553  GLY616  TRP617  ASP618  TYR619  PRO620  LYS621  CYS622 
 ASP623  PHE694  ASN695  SER759  ASP760  ASP761  ALA762  ILE779  LEU786  VAL792 
 PHE793  MET794  SER795  GLU796  ALA797  LYS798  CYS799  TRP800  GLU811  SER814 

> <Gold.Protein.RotatedAtoms>
  152.4034  134.6248  160.0059 H   0  0  0  0  0  0  0  0  0  0  0  0  # atno 6907 bound_to 6896
  151.6446  133.3318  159.3146 H   0  0  0  0  0  0  0  0  0  0  0  0  # atno 6908 bound_to 6896
  150.7932  134.7013  159.6596 H   0  0  0  0  0  0  0  0  0  0  0  0  # atno 6909 bound_to 6896
  145.0143  139.4191  143.5229 H   0  0  0  0  0  0  0  0  0  0  0  0  # atno 7974 bound_to 7965
  156.2860  140.2186  156.5351 H   0  0  0  0  0  0  0  0  0  0  0  0  # atno 8008 bound_to 7997
  154.7416  140.0487  157.0838 H   0  0  0  0  0  0  0  0  0  0  0  0  # atno 8009 bound_to 7997
  155.0223  140.3125  155.4792 H   0  0  0  0  0  0  0  0  0  0  0  0  # atno 8010 bound_to 7997
  140.7200  143.3603  151.1976 H   0  0  0  0  0  0  0  0  0  0  0  0  # atno 10167 bound_to 10162
  157.6945  131.0276  150.3201 H   0  0  0  0  0  0  0  0  0  0  0  0  # atno 10718 bound_to 10713
  154.0346  135.6652  153.4784 H   0  0  0  0  0  0  0  0  0  0  0  0  # atno 10763 bound_to 10752
  153.0526  135.5075  154.7900 H   0  0  0  0  0  0  0  0  0  0  0  0  # atno 10764 bound_to 10752
  154.6857  135.3052  154.9517 H   0  0  0  0  0  0  0  0  0  0  0  0  # atno 10765 bound_to 10752
  141.0149  134.0210  157.3363 H   0  0  0  0  0  0  0  0  0  0  0  0  # atno 11005 bound_to 11000
  146.3475  139.9605  142.8718 LP  0  0  0  0  0  0  0  0  0  0  0  0  # atno 17320 bound_to 7965
  145.1981  140.9842  143.4172 LP  0  0  0  0  0  0  0  0  0  0  0  0  # atno 17321 bound_to 7965
  139.7154  143.9309  152.2964 LP  0  0  0  0  0  0  0  0  0  0  0  0  # atno 17342 bound_to 10162
  139.9048  144.6891  150.8626 LP  0  0  0  0  0  0  0  0  0  0  0  0  # atno 17343 bound_to 10162
  156.3690  130.3860  149.7191 LP  0  0  0  0  0  0  0  0  0  0  0  0  # atno 17370 bound_to 10713
  156.4611  130.7952  151.2972 LP  0  0  0  0  0  0  0  0  0  0  0  0  # atno 17371 bound_to 10713
  139.9111  135.0190  156.7695 LP  0  0  0  0  0  0  0  0  0  0  0  0  # atno 17394 bound_to 11000
  140.6672  133.9592  155.7836 LP  0  0  0  0  0  0  0  0  0  0  0  0  # atno 17395 bound_to 11000

$$$$
