AV-unprocessed.smi:123|AV-procd|sdf|1143|dock3
  -GOLD-   2262018273D 1   1.00000     0.00000
 Structure written by MMmdl.
 43 45  0  0  0  0  0  0  0  0  1 V2000
  148.1443  131.9040  153.6908 C   0  0  0  0  0  0  0  0  0  0  0  0
  147.8806  133.2646  153.0199 C   0  0  2  0  0  0  0  0  0  0  0  0
  148.1777  134.3704  153.9319 N   0  0  0  0  0  0  0  0  0  0  0  0
  147.7514  134.5055  155.1991 C   0  0  0  0  0  0  0  0  0  0  0  0
  147.0187  133.6886  155.7590 O   0  0  0  0  0  0  0  0  0  0  0  0
  148.2290  135.7687  155.9315 C   0  0  0  0  0  0  0  0  0  0  0  0
  147.5057  136.0211  157.1973 N   0  0  0  0  0  0  0  0  0  0  0  0
  146.1612  136.4652  157.1288 C   0  0  0  0  0  0  0  0  0  0  0  0
  145.5980  136.6306  156.0456 O   0  0  0  0  0  0  0  0  0  0  0  0
  145.5118  136.7098  158.4117 C   0  0  0  0  0  0  0  0  0  0  0  0
  144.2322  137.1192  158.4435 F   0  0  0  0  0  0  0  0  0  0  0  0
  146.1771  136.5297  159.5707 C   0  0  0  0  0  0  0  0  0  0  0  0
  147.4937  136.1136  159.6220 N   0  0  0  0  0  0  0  0  0  0  0  0
  148.1864  135.9371  160.9524 C   0  0  2  0  0  0  0  0  0  0  0  0
  147.5707  134.7651  161.7281 C   0  0  0  0  0  0  0  0  0  0  0  0
  146.7346  135.4713  162.7757 C   0  0  0  0  0  0  0  0  0  0  0  0
  147.5318  136.7497  163.0007 C   0  0  0  0  0  0  0  0  0  0  0  0
  148.0024  137.1003  161.7054 O   0  0  0  0  0  0  0  0  0  0  0  0
  148.1900  135.8417  158.4238 C   0  0  0  0  0  0  0  0  0  0  0  0
  149.3606  135.4557  158.4448 O   0  0  0  0  0  0  0  0  0  0  0  0
  146.5185  133.3797  152.3995 C   0  0  0  0  0  0  0  0  0  0  0  0
  145.8837  134.3514  151.6737 C   0  0  0  0  0  0  0  0  0  0  0  0
  144.5862  133.8514  151.3764 C   0  0  0  0  0  0  0  0  0  0  0  0
  144.5203  132.6135  151.9488 C   0  0  0  0  0  0  0  0  0  0  0  0
  145.6879  132.3123  152.5786 O   0  0  0  0  0  0  0  0  0  0  0  0
  148.0591  131.0906  152.9699 H   0  0  0  0  0  0  0  0  0  0  0  0
  147.4366  131.7046  154.4961 H   0  0  0  0  0  0  0  0  0  0  0  0
  149.1489  131.8629  154.1131 H   0  0  0  0  0  0  0  0  0  0  0  0
  148.6076  133.3606  152.2129 H   0  0  0  0  0  0  0  0  0  0  0  0
  148.7704  135.1003  153.5642 H   0  0  0  0  0  0  0  0  0  0  0  0
  149.3019  135.6867  156.1137 H   0  0  0  0  0  0  0  0  0  0  0  0
  148.1425  136.6129  155.2460 H   0  0  0  0  0  0  0  0  0  0  0  0
  145.6514  136.7227  160.4938 H   0  0  0  0  0  0  0  0  0  0  0  0
  149.2512  135.8100  160.7540 H   0  0  0  0  0  0  0  0  0  0  0  0
  146.9987  134.0952  161.0843 H   0  0  0  0  0  0  0  0  0  0  0  0
  148.3763  134.2000  162.1982 H   0  0  0  0  0  0  0  0  0  0  0  0
  145.7471  135.7065  162.3772 H   0  0  0  0  0  0  0  0  0  0  0  0
  146.6044  134.8850  163.6855 H   0  0  0  0  0  0  0  0  0  0  0  0
  146.9352  137.5489  163.4408 H   0  0  0  0  0  0  0  0  0  0  0  0
  148.3856  136.5594  163.6525 H   0  0  0  0  0  0  0  0  0  0  0  0
  146.3035  135.3041  151.3868 H   0  0  0  0  0  0  0  0  0  0  0  0
  143.8005  134.3356  150.8156 H   0  0  0  0  0  0  0  0  0  0  0  0
  143.7568  131.8515  152.0024 H   0  0  0  0  0  0  0  0  0  0  0  0
  1  2  1  0  0  0  0
  1 26  1  0  0  0  0
  1 27  1  0  0  0  0
  1 28  1  0  0  0  0
  2  3  1  0  0  0  0
  2 21  1  0  0  0  0
  2 29  1  0  0  0  0
  3  4  1  0  0  0  0
  3 30  1  0  0  0  0
  4  5  2  0  0  0  0
  4  6  1  0  0  0  0
  6  7  1  0  0  0  0
  6 31  1  0  0  0  0
  6 32  1  0  0  0  0
  7 19  1  0  0  0  0
  7  8  1  0  0  0  0
  8  9  2  0  0  0  0
  8 10  1  0  0  0  0
 10 11  1  0  0  0  0
 10 12  2  0  0  0  0
 12 13  1  0  0  0  0
 12 33  1  0  0  0  0
 13 14  1  0  0  0  0
 13 19  1  0  0  0  0
 14 18  1  0  0  0  0
 14 15  1  0  0  0  0
 14 34  1  0  0  0  0
 15 16  1  0  0  0  0
 15 35  1  0  0  0  0
 15 36  1  0  0  0  0
 16 17  1  0  0  0  0
 16 37  1  0  0  0  0
 16 38  1  0  0  0  0
 17 18  1  0  0  0  0
 17 39  1  0  0  0  0
 17 40  1  0  0  0  0
 19 20  2  0  0  0  0
 21 25  1  0  0  0  0
 21 22  2  0  0  0  0
 22 23  1  0  0  0  0
 22 41  1  0  0  0  0
 23 24  2  0  0  0  0
 23 42  1  0  0  0  0
 24 25  1  0  0  0  0
 24 43  1  0  0  0  0
M  END
> <s_m_source_file>
AV-unprocessed.smi

> <i_m_source_file_index>
123

> <i_lp_mmshare_version>
43012

> <i_f3d_flags>
0

> <s_epik_input>
bzFbY0hdW2NIXVtjSF1jMVtDQEhdKFtDSDNdKVtOSF1DKD1PKVtDSDJdbjJjKD1PKWMoRilbY0hdbihjMj1PKVtDQEBIXTNbQ0gyXVtDSDJdW0NIMl1PMw==

> <s_epik_cmdline>
J2VwaWtfcHl0aG9uJywgJy1waCcsICc3LjAnLCAnLXRuJywgJzgnLCAnLW1hJywgJzIwMCcsICctbWV0YWxfYmluZGluZycsICctaW1hZScsICc8aW5maWxlLm1hZT4nLCAnLW9tYWUnLCAnPG91dGZpbGUubWFlPic=

> <r_lp_tautomer_probability>
1

> <r_epik_Ionization_Penalty>
2.31906e-08

> <r_epik_Ionization_Penalty_Charging>
3.85846e-09

> <r_epik_Ionization_Penalty_Neutral>
1.93321e-08

> <r_epik_State_Penalty>
-0

> <r_epik_Charging_Adjusted_Penalty>
3.85846e-09

> <i_epik_Tot_Q>
0

> <i_epik_Tot_abs_Q>
0

> <r_epik_Metal_State_Penalty>
-0

> <b_epik_Metal_Only>
0

> <s_epik_Chemistry_Notes>
This compound contains an acetal/aminal-like group ( X-CH(R)-Y where X, Y are N, S, or O) that may be acid/base labile, releasing an aldehyde.

> <s_lp_Force_Field>
OPLS_2005

> <r_lp_Energy>
21.3093

> <b_lp_Chiralities_Consistent>
1

> <s_lp_Variant>
AV-unprocessed.smi:123-1

> <Gold.Version>
5.8.1

> <Gold.Id.Protein>
6NUR|6NUR_protein|mol2

> <Gold.PLP.Fitness>
44.9693

> <Gold.PLP.PLP>
-35.3301

> <Gold.PLP.part.hbond>
-4.0000

> <Gold.PLP.part.metal>
0.0000

> <Gold.PLP.part.buried>
-5.5331

> <Gold.PLP.part.nonpolar>
-26.8091

> <Gold.PLP.part.repulsive>
0.1324

> <Gold.PLP.ligand.clash>
0.0000

> <Gold.PLP.ligand.torsion>
0.6069

> <Gold.PLP.Chemscore.Hbond>
3.5680

> <Gold.PLP.Chemscore.CHOScore>
0.0000

> <Gold.PLP.Chemscore.Metal>
0.0000

> <Gold.Chemscore.Hbonds>
donor molecule, donor type, donor heavy atom, donor atom, acceptor molecule, acceptor atom, score
      L1  H     3    30       P1  7948  0.78
      P1  H  6896  6907       L1    20  1.00
      P1  H  6931  6943       L1    18  1.00
      P1  H  6934  6947       L1    18  0.33

> <Gold.PLP.Chemscore.Internal.Correction>
0.1490

> <Gold.Rescore>
     Score         DG    S(hbond)    S(metal)    S(lipo)     H(rot)  DE(clash)    DE(int)     intcor
     14.68     -15.98       2.67        0.00      62.47       2.23       0.08       1.21       ----

> <Gold.Chemscore.Fitness>
14.6836

> <Gold.Chemscore.DG>
-15.9796

> <Gold.Chemscore.ZeroCoef>
-5.4800

> <Gold.Chemscore.Hbond>
2.6682

> <Gold.Chemscore.Metal>
0.0000

> <Gold.Chemscore.Lipo>
62.4654

> <Gold.Chemscore.Internal_Hbond>
0.0000

> <Gold.Chemscore.DEClash>
0.0847

> <Gold.Chemscore.DEInternal>
1.2113

> <Gold.Chemscore.Rot>
2.2347

> <Gold.Chemscore.Internal.Correction>
   9.000000E+99

> <Gold.Chemscore.Hbonds>
donor molecule, donor type, donor heavy atom, donor atom, acceptor molecule, acceptor atom, score
      L1  H     3    30       P1  7948  0.51
      P1  H  6896  6907       L1    20  0.98
      P1  H  6931  6943       L1    18  0.52
      P1  H  6934  6947       L1    18  0.28

> <Gold.Chemscore.Hbond.Weighted>
-8.9119

> <Gold.Chemscore.Metal.Weighted>
-0.0000

> <Gold.Chemscore.Lipo.Weighted>
-7.3085

> <Gold.Chemscore.Internal_Hbond.Weighted>
0.0000

> <Gold.Chemscore.DEClash.Weighted>
0.0847

> <Gold.Chemscore.DEInternal.Weighted>
1.2113

> <Gold.Chemscore.Rot.Weighted>
5.7208

> <Gold.Chemscore.Internal.Correction.Weighted>
   9.000000E+99

> <Gold.Protein.RotatedTorsions>
[ 6907 6896 6895 6894 ] final  -58.89 input  -60.11 | X-H torsion
[ 7974 7965 7964 7962 ] final  171.59 input  175.53 | X-H torsion
[ 8008 7997 7996 7995 ] final -113.97 input   59.86 | X-H torsion
[ 10167 10162 10161 10158 ] final -158.80 input  -65.29 | X-H torsion
[ 10718 10713 10712 10709 ] final -157.02 input   66.30 | X-H torsion
[ 10763 10752 10751 10750 ] final  167.28 input  -60.55 | X-H torsion
[ 11005 11000 10999 10996 ] final   45.64 input  -57.11 | X-H torsion

> <Gold.Protein.ActiveResidues>
 VAL166  LYS551  ARG553  GLY616  TRP617  ASP618  TYR619  PRO620  LYS621  CYS622 
 ASP623  PHE694  ASN695  SER759  ASP760  ASP761  ALA762  ILE779  LEU786  VAL792 
 PHE793  MET794  SER795  GLU796  ALA797  LYS798  CYS799  TRP800  GLU811  SER814 

> <Gold.Protein.RotatedAtoms>
  150.7972  134.7039  159.6565 H   0  0  0  0  0  0  0  0  0  0  0  0  # atno 6907 bound_to 6896
  152.4085  134.6162  160.0048 H   0  0  0  0  0  0  0  0  0  0  0  0  # atno 6908 bound_to 6896
  151.6412  133.3289  159.3166 H   0  0  0  0  0  0  0  0  0  0  0  0  # atno 6909 bound_to 6896
  144.7291  139.9372  143.6427 H   0  0  0  0  0  0  0  0  0  0  0  0  # atno 7974 bound_to 7965
  155.0291  140.0393  157.2467 H   0  0  0  0  0  0  0  0  0  0  0  0  # atno 8008 bound_to 7997
  154.7312  140.2731  155.6431 H   0  0  0  0  0  0  0  0  0  0  0  0  # atno 8009 bound_to 7997
  156.2842  140.2683  156.2013 H   0  0  0  0  0  0  0  0  0  0  0  0  # atno 8010 bound_to 7997
  139.6664  143.9822  152.2257 H   0  0  0  0  0  0  0  0  0  0  0  0  # atno 10167 bound_to 10162
  156.5345  130.8536  151.2728 H   0  0  0  0  0  0  0  0  0  0  0  0  # atno 10718 bound_to 10713
  154.3515  135.2753  155.2369 H   0  0  0  0  0  0  0  0  0  0  0  0  # atno 10763 bound_to 10752
  154.4596  135.5910  153.6250 H   0  0  0  0  0  0  0  0  0  0  0  0  # atno 10764 bound_to 10752
  152.9849  135.6062  154.3726 H   0  0  0  0  0  0  0  0  0  0  0  0  # atno 10765 bound_to 10752
  140.1441  134.4545  155.8428 H   0  0  0  0  0  0  0  0  0  0  0  0  # atno 11005 bound_to 11000
  146.0812  139.3800  143.0463 LP  0  0  0  0  0  0  0  0  0  0  0  0  # atno 17320 bound_to 7965
  145.7838  140.9845  143.1085 LP  0  0  0  0  0  0  0  0  0  0  0  0  # atno 17321 bound_to 7965
  139.9574  144.6580  150.8112 LP  0  0  0  0  0  0  0  0  0  0  0  0  # atno 17342 bound_to 10162
  140.7601  143.3143  151.2769 LP  0  0  0  0  0  0  0  0  0  0  0  0  # atno 17343 bound_to 10162
  157.7416  130.9873  150.2457 LP  0  0  0  0  0  0  0  0  0  0  0  0  # atno 17370 bound_to 10713
  156.3028  130.3761  149.7734 LP  0  0  0  0  0  0  0  0  0  0  0  0  # atno 17371 bound_to 10713
  141.2190  133.6845  156.7302 LP  0  0  0  0  0  0  0  0  0  0  0  0  # atno 17394 bound_to 11000
  140.2685  134.8411  157.3825 LP  0  0  0  0  0  0  0  0  0  0  0  0  # atno 17395 bound_to 11000

$$$$
