AV-unprocessed.smi:2304|AV-procd|sdf|9245|dock9
  -GOLD-   2272012463D 1   1.00000     0.00000
 Structure written by MMmdl.
 37 38  0  0  0  0  0  0  0  0  1 V2000
  151.5931  138.6272  154.4095 C   0  0  0  0  0  0  0  0  0  0  0  0
  150.8524  139.8141  154.6314 O   0  0  0  0  0  0  0  0  0  0  0  0
  149.8749  139.6630  155.6482 C   0  0  0  0  0  0  0  0  0  0  0  0
  148.8485  140.8042  155.5497 C   0  0  1  0  0  0  0  0  0  0  0  0
  149.3794  141.9956  156.2078 N   0  0  0  0  0  0  0  0  0  0  0  0
  150.0670  142.0162  157.3594 C   0  0  0  0  0  0  0  0  0  0  0  0
  150.3495  141.0059  158.0042 O   0  0  0  0  0  0  0  0  0  0  0  0
  150.3965  143.2738  157.7029 N   0  0  0  0  0  0  0  0  0  0  0  0
  151.0856  143.7153  158.8639 C   0  0  0  0  0  0  0  0  0  0  0  0
  151.2417  145.1156  158.9722 C   0  0  0  0  0  0  0  0  0  0  0  0
  151.9069  145.6543  160.0905 C   0  0  0  0  0  0  0  0  0  0  0  0
  152.3998  144.7786  161.0743 C   0  0  0  0  0  0  0  0  0  0  0  0
  152.2020  143.3959  160.8911 C   0  0  0  0  0  0  0  0  0  0  0  0
  152.7055  142.3942  161.9090 C   0  0  0  0  0  0  0  0  0  0  0  0
  151.5650  142.8791  159.8183 N   0  0  0  0  0  0  0  0  0  0  0  0
  148.4699  141.0691  154.1047 C   0  0  0  0  0  0  0  0  0  0  0  0
  147.2760  141.9252  153.7572 C   0  0  0  0  0  0  0  0  0  0  0  0
  147.2435  140.4368  153.4909 C   0  0  0  0  0  0  0  0  0  0  0  0
  152.3186  138.7915  153.6129 H   0  0  0  0  0  0  0  0  0  0  0  0
  150.9421  137.8055  154.1083 H   0  0  0  0  0  0  0  0  0  0  0  0
  152.1394  138.3310  155.3060 H   0  0  0  0  0  0  0  0  0  0  0  0
  149.3809  138.6933  155.5648 H   0  0  0  0  0  0  0  0  0  0  0  0
  150.3676  139.6933  156.6214 H   0  0  0  0  0  0  0  0  0  0  0  0
  147.9395  140.4742  156.0563 H   0  0  0  0  0  0  0  0  0  0  0  0
  149.2023  142.8771  155.7497 H   0  0  0  0  0  0  0  0  0  0  0  0
  150.1070  144.0022  157.0676 H   0  0  0  0  0  0  0  0  0  0  0  0
  150.8563  145.7750  158.2081 H   0  0  0  0  0  0  0  0  0  0  0  0
  152.0363  146.7218  160.1907 H   0  0  0  0  0  0  0  0  0  0  0  0
  152.9147  145.1606  161.9436 H   0  0  0  0  0  0  0  0  0  0  0  0
  153.0822  142.8932  162.8023 H   0  0  0  0  0  0  0  0  0  0  0  0
  153.5135  141.7989  161.4834 H   0  0  0  0  0  0  0  0  0  0  0  0
  151.9029  141.7204  162.2104 H   0  0  0  0  0  0  0  0  0  0  0  0
  149.3280  141.1649  153.4419 H   0  0  0  0  0  0  0  0  0  0  0  0
  146.6679  142.3034  154.5769 H   0  0  0  0  0  0  0  0  0  0  0  0
  147.3660  142.5878  152.8989 H   0  0  0  0  0  0  0  0  0  0  0  0
  147.3122  140.1090  152.4559 H   0  0  0  0  0  0  0  0  0  0  0  0
  146.6111  139.8265  154.1329 H   0  0  0  0  0  0  0  0  0  0  0  0
  1  2  1  0  0  0  0
  1 19  1  0  0  0  0
  1 20  1  0  0  0  0
  1 21  1  0  0  0  0
  2  3  1  0  0  0  0
  3  4  1  0  0  0  0
  3 22  1  0  0  0  0
  3 23  1  0  0  0  0
  4  5  1  0  0  0  0
  4 16  1  0  0  0  0
  4 24  1  0  0  0  0
  5  6  1  0  0  0  0
  5 25  1  0  0  0  0
  6  7  2  0  0  0  0
  6  8  1  0  0  0  0
  8  9  1  0  0  0  0
  8 26  1  0  0  0  0
  9 15  1  0  0  0  0
  9 10  2  0  0  0  0
 10 11  1  0  0  0  0
 10 27  1  0  0  0  0
 11 12  2  0  0  0  0
 11 28  1  0  0  0  0
 12 13  1  0  0  0  0
 12 29  1  0  0  0  0
 13 14  1  0  0  0  0
 13 15  2  0  0  0  0
 14 30  1  0  0  0  0
 14 31  1  0  0  0  0
 14 32  1  0  0  0  0
 16 18  1  0  0  0  0
 16 17  1  0  0  0  0
 16 33  1  0  0  0  0
 17 18  1  0  0  0  0
 17 34  1  0  0  0  0
 17 35  1  0  0  0  0
 18 36  1  0  0  0  0
 18 37  1  0  0  0  0
M  END
> <s_m_source_file>
AV-unprocessed.smi

> <i_m_source_file_index>
2304

> <i_lp_mmshare_version>
43012

> <i_f3d_flags>
0

> <s_epik_input>
W0NIM11PW0NIMl1bQ0BASF0oW0NIXTFbQ0gyXVtDSDJdMSlbTkhdQyg9TylbTkhdYzJbY0hdW2NIXVtjSF1jKG4yKVtDSDNd

> <s_epik_cmdline>
J2VwaWtfcHl0aG9uJywgJy1waCcsICc3LjAnLCAnLXRuJywgJzgnLCAnLW1hJywgJzIwMCcsICctbWV0YWxfYmluZGluZycsICctaW1hZScsICc8aW5maWxlLm1hZT4nLCAnLW9tYWUnLCAnPG91dGZpbGUubWFlPic=

> <r_lp_tautomer_probability>
1

> <r_epik_Ionization_Penalty>
8.58396e-05

> <r_epik_Ionization_Penalty_Charging>
0

> <r_epik_Ionization_Penalty_Neutral>
8.58396e-05

> <r_epik_State_Penalty>
-0

> <r_epik_Charging_Adjusted_Penalty>
0

> <i_epik_Tot_Q>
0

> <i_epik_Tot_abs_Q>
0

> <r_epik_Metal_State_Penalty>
-0

> <b_epik_Metal_Only>
0

> <s_lp_Force_Field>
OPLS_2005

> <r_lp_Energy>
16.7335

> <b_lp_Chiralities_Consistent>
1

> <s_lp_Variant>
AV-unprocessed.smi:2304-2

> <Gold.Version>
5.8.1

> <Gold.Id.Protein>
6NUR|6NUR_protein|mol2

> <Gold.PLP.Fitness>
49.0205

> <Gold.PLP.PLP>
-41.0706

> <Gold.PLP.part.hbond>
-3.0000

> <Gold.PLP.part.metal>
0.0000

> <Gold.PLP.part.buried>
-8.2353

> <Gold.PLP.part.nonpolar>
-29.5071

> <Gold.PLP.part.repulsive>
0.1934

> <Gold.PLP.ligand.clash>
0.0000

> <Gold.PLP.ligand.torsion>
1.0650

> <Gold.PLP.Chemscore.Hbond>
3.0000

> <Gold.PLP.Chemscore.CHOScore>
0.0000

> <Gold.PLP.Chemscore.Metal>
0.0000

> <Gold.Chemscore.Hbonds>
donor molecule, donor type, donor heavy atom, donor atom, acceptor molecule, acceptor atom, score
      L1  H     5    25       P1  8028  1.00
      L1  H     8    26       P1  8028  1.00
      P1  H  7989  7998       L1     2  1.00

> <Gold.PLP.Chemscore.Internal.Correction>
1.0798

> <Gold.Rescore>
     Score         DG    S(hbond)    S(metal)    S(lipo)     H(rot)  DE(clash)    DE(int)     intcor
     17.38     -22.21       2.73        0.00     100.41       1.61       0.70       4.13       ----

> <Gold.Chemscore.Fitness>
17.3776

> <Gold.Chemscore.DG>
-22.2088

> <Gold.Chemscore.ZeroCoef>
-5.4800

> <Gold.Chemscore.Hbond>
2.7287

> <Gold.Chemscore.Metal>
0.0000

> <Gold.Chemscore.Lipo>
100.4051

> <Gold.Chemscore.Internal_Hbond>
0.0000

> <Gold.Chemscore.DEClash>
0.6989

> <Gold.Chemscore.DEInternal>
4.1323

> <Gold.Chemscore.Rot>
1.6142

> <Gold.Chemscore.Internal.Correction>
   9.000000E+99

> <Gold.Chemscore.Hbonds>
donor molecule, donor type, donor heavy atom, donor atom, acceptor molecule, acceptor atom, score
      L1  H     5    25       P1  8028  0.98
      L1  H     8    26       P1  8028  0.88
      P1  H  7989  7998       L1     2  0.26

> <Gold.Chemscore.Hbond.Weighted>
-9.1137

> <Gold.Chemscore.Metal.Weighted>
-0.0000

> <Gold.Chemscore.Lipo.Weighted>
-11.7474

> <Gold.Chemscore.Internal_Hbond.Weighted>
0.0000

> <Gold.Chemscore.DEClash.Weighted>
0.6989

> <Gold.Chemscore.DEInternal.Weighted>
4.1323

> <Gold.Chemscore.Rot.Weighted>
4.1323

> <Gold.Chemscore.Internal.Correction.Weighted>
   9.000000E+99

> <Gold.Protein.RotatedTorsions>
[ 6907 6896 6895 6894 ] final   54.09 input  -60.11 | X-H torsion
[ 7974 7965 7964 7962 ] final  -76.16 input  175.53 | X-H torsion
[ 8008 7997 7996 7995 ] final   75.73 input   59.86 | X-H torsion
[ 10167 10162 10161 10158 ] final  -59.98 input  -65.29 | X-H torsion
[ 10718 10713 10712 10709 ] final -129.07 input   66.30 | X-H torsion
[ 10763 10752 10751 10750 ] final -155.41 input  -60.55 | X-H torsion
[ 11005 11000 10999 10996 ] final   48.22 input  -57.11 | X-H torsion

> <Gold.Protein.ActiveResidues>
 VAL166  LYS551  ARG553  GLY616  TRP617  ASP618  TYR619  PRO620  LYS621  CYS622 
 ASP623  PHE694  ASN695  SER759  ASP760  ASP761  ALA762  ILE779  LEU786  VAL792 
 PHE793  MET794  SER795  GLU796  ALA797  LYS798  CYS799  TRP800  GLU811  SER814 

> <Gold.Protein.RotatedAtoms>
  152.3403  134.7143  160.0265 H   0  0  0  0  0  0  0  0  0  0  0  0  # atno 6907 bound_to 6896
  151.7530  133.3323  159.3405 H   0  0  0  0  0  0  0  0  0  0  0  0  # atno 6908 bound_to 6896
  150.7475  134.6107  159.6129 H   0  0  0  0  0  0  0  0  0  0  0  0  # atno 6909 bound_to 6896
  145.6165  140.9374  143.1161 H   0  0  0  0  0  0  0  0  0  0  0  0  # atno 7974 bound_to 7965
  155.8172  140.3471  155.5492 H   0  0  0  0  0  0  0  0  0  0  0  0  # atno 8008 bound_to 7997
  155.8380  140.0937  157.1772 H   0  0  0  0  0  0  0  0  0  0  0  0  # atno 8009 bound_to 7997
  154.4004  140.1400  156.3681 H   0  0  0  0  0  0  0  0  0  0  0  0  # atno 8010 bound_to 7997
  140.6101  143.2384  151.5730 H   0  0  0  0  0  0  0  0  0  0  0  0  # atno 10167 bound_to 10162
  156.2011  130.6858  151.0540 H   0  0  0  0  0  0  0  0  0  0  0  0  # atno 10718 bound_to 10713
  154.7789  135.3168  154.8032 H   0  0  0  0  0  0  0  0  0  0  0  0  # atno 10763 bound_to 10752
  153.8748  135.6840  153.4775 H   0  0  0  0  0  0  0  0  0  0  0  0  # atno 10764 bound_to 10752
  153.1420  135.4735  154.9447 H   0  0  0  0  0  0  0  0  0  0  0  0  # atno 10765 bound_to 10752
  140.1210  134.4829  155.8597 H   0  0  0  0  0  0  0  0  0  0  0  0  # atno 11005 bound_to 11000
  144.7248  139.7910  143.7369 LP  0  0  0  0  0  0  0  0  0  0  0  0  # atno 17320 bound_to 7965
  146.1464  139.4535  143.0076 LP  0  0  0  0  0  0  0  0  0  0  0  0  # atno 17321 bound_to 7965
  139.5354  144.2795  152.1240 LP  0  0  0  0  0  0  0  0  0  0  0  0  # atno 17342 bound_to 10162
  140.1993  144.4674  150.6439 LP  0  0  0  0  0  0  0  0  0  0  0  0  # atno 17343 bound_to 10162
  157.6986  131.0784  150.6891 LP  0  0  0  0  0  0  0  0  0  0  0  0  # atno 17370 bound_to 10713
  156.6949  130.4606  149.5589 LP  0  0  0  0  0  0  0  0  0  0  0  0  # atno 17371 bound_to 10713
  141.2151  133.6760  156.6889 LP  0  0  0  0  0  0  0  0  0  0  0  0  # atno 17394 bound_to 11000
  140.2965  134.8198  157.4061 LP  0  0  0  0  0  0  0  0  0  0  0  0  # atno 17395 bound_to 11000

$$$$
