AV-unprocessed.smi:1419|AV-procd|sdf|5784|dock10
  -GOLD-   22720 5433D 1   1.00000     0.00000
 Structure written by MMmdl.
 41 42  0  0  0  0  0  0  0  0  1 V2000
  149.8597  138.5838  157.4110 C   0  0  0  0  0  0  0  0  0  0  0  0
  149.7547  139.9413  156.7028 C   0  0  2  0  0  0  0  0  0  0  0  0
  149.9887  139.7982  155.1837 C   0  0  0  0  0  0  0  0  0  0  0  0
  148.8342  140.1883  154.3945 N   0  0  0  0  0  0  0  0  0  0  0  0
  148.1176  139.3974  153.5057 C   0  0  0  0  0  0  0  0  0  0  0  0
  147.1110  140.1878  152.9993 C   0  0  0  0  0  0  0  0  0  0  0  0
  147.1990  141.4662  153.5453 N   0  0  0  0  0  0  0  0  0  0  0  0
  148.2466  141.3919  154.3555 C   0  0  0  0  0  0  0  0  0  0  0  0
  150.7250  140.8604  157.2963 N   0  0  0  0  0  0  0  0  0  0  0  0
  150.5032  142.1468  157.6199 C   0  0  0  0  0  0  0  0  0  0  0  0
  149.4118  142.6906  157.4465 O   0  0  0  0  0  0  0  0  0  0  0  0
  151.5820  142.7963  158.1223 N   0  0  0  0  0  0  0  0  0  0  0  0
  151.7402  144.2460  158.3012 C   0  0  0  0  0  0  0  0  0  0  0  0
  151.7943  144.5650  159.8096 C   0  0  1  0  0  0  0  0  0  0  0  0
  150.4478  144.3865  160.5327 C   0  0  0  0  0  0  0  0  0  0  0  0
  152.8271  143.7919  160.4300 O   0  0  0  0  0  0  0  0  0  0  0  0
  152.7653  142.3800  160.2090 C   0  0  2  0  0  0  0  0  0  0  0  0
  153.9806  141.7413  160.8899 C   0  0  0  0  0  0  0  0  0  0  0  0
  152.7327  142.0952  158.6947 C   0  0  0  0  0  0  0  0  0  0  0  0
  149.1288  137.8783  157.0151 H   0  0  0  0  0  0  0  0  0  0  0  0
  149.6742  138.6824  158.4812 H   0  0  0  0  0  0  0  0  0  0  0  0
  150.8493  138.1434  157.2830 H   0  0  0  0  0  0  0  0  0  0  0  0
  148.7420  140.3120  156.8698 H   0  0  0  0  0  0  0  0  0  0  0  0
  150.8484  140.3937  154.8720 H   0  0  0  0  0  0  0  0  0  0  0  0
  150.2214  138.7615  154.9370 H   0  0  0  0  0  0  0  0  0  0  0  0
  148.3691  138.3634  153.3215 H   0  0  0  0  0  0  0  0  0  0  0  0
  146.3391  139.9379  152.2865 H   0  0  0  0  0  0  0  0  0  0  0  0
  148.5916  142.2329  154.9385 H   0  0  0  0  0  0  0  0  0  0  0  0
  151.6498  140.4922  157.4645 H   0  0  0  0  0  0  0  0  0  0  0  0
  152.6737  144.5544  157.8284 H   0  0  0  0  0  0  0  0  0  0  0  0
  150.9661  144.8432  157.8195 H   0  0  0  0  0  0  0  0  0  0  0  0
  152.0828  145.6105  159.9214 H   0  0  0  0  0  0  0  0  0  0  0  0
  149.6871  145.0386  160.1029 H   0  0  0  0  0  0  0  0  0  0  0  0
  150.5390  144.6369  161.5897 H   0  0  0  0  0  0  0  0  0  0  0  0
  150.0762  143.3653  160.4652 H   0  0  0  0  0  0  0  0  0  0  0  0
  151.8656  141.9769  160.6754 H   0  0  0  0  0  0  0  0  0  0  0  0
  153.9794  140.6588  160.7601 H   0  0  0  0  0  0  0  0  0  0  0  0
  153.9797  141.9473  161.9605 H   0  0  0  0  0  0  0  0  0  0  0  0
  154.9128  142.1274  160.4768 H   0  0  0  0  0  0  0  0  0  0  0  0
  152.7008  141.0188  158.5202 H   0  0  0  0  0  0  0  0  0  0  0  0
  153.6486  142.4494  158.2191 H   0  0  0  0  0  0  0  0  0  0  0  0
  1  2  1  0  0  0  0
  1 20  1  0  0  0  0
  1 21  1  0  0  0  0
  1 22  1  0  0  0  0
  2  3  1  0  0  0  0
  2  9  1  0  0  0  0
  2 23  1  0  0  0  0
  3  4  1  0  0  0  0
  3 24  1  0  0  0  0
  3 25  1  0  0  0  0
  4  8  1  0  0  0  0
  4  5  1  0  0  0  0
  5  6  2  0  0  0  0
  5 26  1  0  0  0  0
  6  7  1  0  0  0  0
  6 27  1  0  0  0  0
  7  8  2  0  0  0  0
  8 28  1  0  0  0  0
  9 10  1  0  0  0  0
  9 29  1  0  0  0  0
 10 11  2  0  0  0  0
 10 12  1  0  0  0  0
 12 19  1  0  0  0  0
 12 13  1  0  0  0  0
 13 14  1  0  0  0  0
 13 30  1  0  0  0  0
 13 31  1  0  0  0  0
 14 15  1  0  0  0  0
 14 16  1  0  0  0  0
 14 32  1  0  0  0  0
 15 33  1  0  0  0  0
 15 34  1  0  0  0  0
 15 35  1  0  0  0  0
 16 17  1  0  0  0  0
 17 18  1  0  0  0  0
 17 19  1  0  0  0  0
 17 36  1  0  0  0  0
 18 37  1  0  0  0  0
 18 38  1  0  0  0  0
 18 39  1  0  0  0  0
 19 40  1  0  0  0  0
 19 41  1  0  0  0  0
M  END
> <s_m_source_file>
AV-unprocessed.smi

> <i_m_source_file_index>
1419

> <i_lp_mmshare_version>
43012

> <i_f3d_flags>
0

> <s_epik_input>
W2NIXTFuW2NIXVtjSF1uMVtDSDJdW0NAQEhdKFtDSDNdKVtOSF1DKD1PKU4yW0NIMl1bQ0BASF0oW0NIM10pT1tDQEBIXShbQ0gzXSlbQ0gyXTI=

> <s_epik_cmdline>
J2VwaWtfcHl0aG9uJywgJy1waCcsICc3LjAnLCAnLXRuJywgJzgnLCAnLW1hJywgJzIwMCcsICctbWV0YWxfYmluZGluZycsICctaW1hZScsICc8aW5maWxlLm1hZT4nLCAnLW9tYWUnLCAnPG91dGZpbGUubWFlPic=

> <r_lp_tautomer_probability>
1

> <r_epik_Ionization_Penalty>
0.625124

> <r_epik_Ionization_Penalty_Charging>
0.625093

> <r_epik_Ionization_Penalty_Neutral>
3.17415e-05

> <r_epik_State_Penalty>
0.641455

> <r_epik_Charging_Adjusted_Penalty>
1.26655

> <i_epik_Tot_Q>
0

> <i_epik_Tot_abs_Q>
0

> <r_epik_Metal_State_Penalty>
0.307717

> <b_epik_Metal_Only>
0

> <s_lp_Force_Field>
OPLS_2005

> <r_lp_Energy>
30.2714

> <b_lp_Chiralities_Consistent>
1

> <s_lp_Variant>
AV-unprocessed.smi:1419-11

> <Gold.Version>
5.8.1

> <Gold.Id.Protein>
6NUR|6NUR_protein|mol2

> <Gold.PLP.Fitness>
37.9698

> <Gold.PLP.PLP>
-33.1889

> <Gold.PLP.part.hbond>
0.0000

> <Gold.PLP.part.metal>
0.0000

> <Gold.PLP.part.buried>
-2.2243

> <Gold.PLP.part.nonpolar>
-33.8245

> <Gold.PLP.part.repulsive>
3.0740

> <Gold.PLP.ligand.clash>
0.3405

> <Gold.PLP.ligand.torsion>
1.1129

> <Gold.PLP.Chemscore.Hbond>
0.0000

> <Gold.PLP.Chemscore.CHOScore>
2.4436

> <Gold.PLP.Chemscore.Metal>
0.0000

> <Gold.Chemscore.Hbonds>
donor molecule, donor type, donor heavy atom, donor atom, acceptor molecule, acceptor atom, score
      L1  C     5    26       P1  7948  0.75
      L1  C     6    27       P1 10175  0.54
      L1  C     8    28       P1  8028  0.85

> <Gold.PLP.Chemscore.Internal.Correction>
0.0165

> <Gold.Rescore>
     Score         DG    S(hbond)    S(metal)    S(lipo)     H(rot)  DE(clash)    DE(int)     intcor
      9.73     -11.85       0.00        0.00      88.97       1.58       1.14       0.98       ----

> <Gold.Chemscore.Fitness>
9.7322

> <Gold.Chemscore.DG>
-11.8532

> <Gold.Chemscore.ZeroCoef>
-5.4800

> <Gold.Chemscore.Hbond>
0.0000

> <Gold.Chemscore.Metal>
0.0000

> <Gold.Chemscore.Lipo>
88.9749

> <Gold.Chemscore.Internal_Hbond>
0.0000

> <Gold.Chemscore.DEClash>
1.1411

> <Gold.Chemscore.DEInternal>
0.9799

> <Gold.Chemscore.Rot>
1.5769

> <Gold.Chemscore.Internal.Correction>
   9.000000E+99

> <Gold.Chemscore.Hbond.Weighted>
-0.0000

> <Gold.Chemscore.Metal.Weighted>
-0.0000

> <Gold.Chemscore.Lipo.Weighted>
-10.4101

> <Gold.Chemscore.Internal_Hbond.Weighted>
0.0000

> <Gold.Chemscore.DEClash.Weighted>
1.1411

> <Gold.Chemscore.DEInternal.Weighted>
0.9799

> <Gold.Chemscore.Rot.Weighted>
4.0369

> <Gold.Chemscore.Internal.Correction.Weighted>
   9.000000E+99

> <Gold.Protein.RotatedTorsions>
[ 6907 6896 6895 6894 ] final  177.80 input  -60.11 | X-H torsion
[ 7974 7965 7964 7962 ] final -127.70 input  175.53 | X-H torsion
[ 8008 7997 7996 7995 ] final  -61.07 input   59.86 | X-H torsion
[ 10167 10162 10161 10158 ] final  159.77 input  -65.29 | X-H torsion
[ 10718 10713 10712 10709 ] final  172.48 input   66.30 | X-H torsion
[ 10763 10752 10751 10750 ] final  -15.31 input  -60.55 | X-H torsion
[ 11005 11000 10999 10996 ] final   99.21 input  -57.11 | X-H torsion

> <Gold.Protein.ActiveResidues>
 VAL166  LYS551  ARG553  GLY616  TRP617  ASP618  TYR619  PRO620  LYS621  CYS622 
 ASP623  PHE694  ASN695  SER759  ASP760  ASP761  ALA762  ILE779  LEU786  VAL792 
 PHE793  MET794  SER795  GLU796  ALA797  LYS798  CYS799  TRP800  GLU811  SER814 

> <Gold.Protein.RotatedAtoms>
  151.6981  133.3311  159.3259 H   0  0  0  0  0  0  0  0  0  0  0  0  # atno 6907 bound_to 6896
  150.7748  134.6640  159.6364 H   0  0  0  0  0  0  0  0  0  0  0  0  # atno 6908 bound_to 6896
  152.3786  134.6627  160.0203 H   0  0  0  0  0  0  0  0  0  0  0  0  # atno 6909 bound_to 6896
  144.9744  140.7578  143.4650 H   0  0  0  0  0  0  0  0  0  0  0  0  # atno 7974 bound_to 7965
  154.4430  140.1025  156.6373 H   0  0  0  0  0  0  0  0  0  0  0  0  # atno 8008 bound_to 7997
  155.5539  140.3486  155.4456 H   0  0  0  0  0  0  0  0  0  0  0  0  # atno 8009 bound_to 7997
  156.0509  140.1303  157.0041 H   0  0  0  0  0  0  0  0  0  0  0  0  # atno 8010 bound_to 7997
  139.4835  144.4698  151.8592 H   0  0  0  0  0  0  0  0  0  0  0  0  # atno 10167 bound_to 10162
  156.9783  131.0111  151.2888 H   0  0  0  0  0  0  0  0  0  0  0  0  # atno 10718 bound_to 10713
  153.5414  135.7013  153.5635 H   0  0  0  0  0  0  0  0  0  0  0  0  # atno 10763 bound_to 10752
  153.3599  135.3972  155.1710 H   0  0  0  0  0  0  0  0  0  0  0  0  # atno 10764 bound_to 10752
  154.8673  135.3786  154.4918 H   0  0  0  0  0  0  0  0  0  0  0  0  # atno 10765 bound_to 10752
  139.8771  134.9085  156.4571 H   0  0  0  0  0  0  0  0  0  0  0  0  # atno 11005 bound_to 11000
  145.2511  139.2031  143.4941 LP  0  0  0  0  0  0  0  0  0  0  0  0  # atno 17320 bound_to 7965
  146.3391  140.2425  142.8596 LP  0  0  0  0  0  0  0  0  0  0  0  0  # atno 17321 bound_to 7965
  140.4166  144.2299  150.5887 LP  0  0  0  0  0  0  0  0  0  0  0  0  # atno 17342 bound_to 10162
  140.4915  143.2346  151.8812 LP  0  0  0  0  0  0  0  0  0  0  0  0  # atno 17343 bound_to 10162
  157.5544  130.8204  149.8186 LP  0  0  0  0  0  0  0  0  0  0  0  0  # atno 17370 bound_to 10713
  156.0255  130.3781  150.1837 LP  0  0  0  0  0  0  0  0  0  0  0  0  # atno 17371 bound_to 10713
  140.8890  133.7862  155.9551 LP  0  0  0  0  0  0  0  0  0  0  0  0  # atno 17394 bound_to 11000
  140.8774  134.2653  157.5161 LP  0  0  0  0  0  0  0  0  0  0  0  0  # atno 17395 bound_to 11000

$$$$
