AV-unprocessed.smi:1696|AV-procd|sdf|6801|dock8
  -GOLD-   22720 7573D 1   1.00000     0.00000
 Structure written by MMmdl.
 38 39  0  0  0  0  0  0  0  0  3 V2000
  151.8635  137.6323  154.3870 C   0  0  0  0  0  0  0  0  0  0  0  0
  150.3878  138.0619  154.3987 C   0  0  0  0  0  0  0  0  0  0  0  0
  149.4556  137.1692  155.2626 C   0  0  2  0  0  0  0  0  0  0  0  0
  150.0526  136.8786  156.6667 C   0  0  0  0  0  0  0  0  0  0  0  0
  149.1354  137.2145  157.7508 N   0  0  0  0  0  0  0  0  0  0  0  0
  148.7004  136.3679  158.6945 C   0  0  0  0  0  0  0  0  0  0  0  0
  149.0917  135.1984  158.6977 O   0  0  0  0  0  0  0  0  0  0  0  0
  147.8352  136.9273  159.5690 N   0  5  0  0  0  0  0  0  0  0  0  0
  147.6083  136.3417  160.7560 C   0  0  0  0  0  0  0  0  0  0  0  0
  147.5963  137.0152  161.9119 N   0  0  0  0  0  0  0  0  0  0  0  0
  147.3354  136.2090  163.0215 C   0  0  0  0  0  0  0  0  0  0  0  0
  147.1352  134.8923  162.7016 C   0  0  0  0  0  0  0  0  0  0  0  0
  147.2701  134.6240  160.9872 S   0  0  0  0  0  0  0  0  0  0  0  0
  149.0831  135.9044  154.5641 N   0  3  0  0  0  0  0  0  0  0  0  0
  150.1047  134.8275  154.6166 C   0  0  0  0  0  0  0  0  0  0  0  0
  149.3559  133.4908  154.7173 C   0  0  0  0  0  0  0  0  0  0  0  0
  147.8884  133.8446  154.5040 C   0  0  0  0  0  0  0  0  0  0  0  0
  147.8062  135.2881  154.9856 C   0  0  0  0  0  0  0  0  0  0  0  0
  152.4450  138.2803  153.7308 H   0  0  0  0  0  0  0  0  0  0  0  0
  151.9826  136.6100  154.0284 H   0  0  0  0  0  0  0  0  0  0  0  0
  152.3080  137.6958  155.3801 H   0  0  0  0  0  0  0  0  0  0  0  0
  150.3313  139.0931  154.7479 H   0  0  0  0  0  0  0  0  0  0  0  0
  150.0220  138.1057  153.3730 H   0  0  0  0  0  0  0  0  0  0  0  0
  148.5282  137.7269  155.4028 H   0  0  0  0  0  0  0  0  0  0  0  0
  150.3332  135.8303  156.7738 H   0  0  0  0  0  0  0  0  0  0  0  0
  150.9713  137.4463  156.8133 H   0  0  0  0  0  0  0  0  0  0  0  0
  148.7950  138.1643  157.7876 H   0  0  0  0  0  0  0  0  0  0  0  0
  147.3092  136.6578  164.0033 H   0  0  0  0  0  0  0  0  0  0  0  0
  146.9172  134.0689  163.3647 H   0  0  0  0  0  0  0  0  0  0  0  0
  150.7248  134.8715  153.7208 H   0  0  0  0  0  0  0  0  0  0  0  0
  150.7605  134.9407  155.4815 H   0  0  0  0  0  0  0  0  0  0  0  0
  149.7128  132.7558  153.9949 H   0  0  0  0  0  0  0  0  0  0  0  0
  149.4921  133.0679  155.7137 H   0  0  0  0  0  0  0  0  0  0  0  0
  147.6455  133.7951  153.4416 H   0  0  0  0  0  0  0  0  0  0  0  0
  147.2083  133.1796  155.0372 H   0  0  0  0  0  0  0  0  0  0  0  0
  147.7278  135.3100  156.0740 H   0  0  0  0  0  0  0  0  0  0  0  0
  146.9416  135.8054  154.5691 H   0  0  0  0  0  0  0  0  0  0  0  0
  148.9686  136.1322  153.5869 H   0  0  0  0  0  0  0  0  0  0  0  0
  1  2  1  0  0  0  0
  1 19  1  0  0  0  0
  1 20  1  0  0  0  0
  1 21  1  0  0  0  0
  2  3  1  0  0  0  0
  2 22  1  0  0  0  0
  2 23  1  0  0  0  0
  3  4  1  0  0  0  0
  3 14  1  0  0  0  0
  3 24  1  0  0  0  0
  4  5  1  0  0  0  0
  4 25  1  0  0  0  0
  4 26  1  0  0  0  0
  5  6  1  0  0  0  0
  5 27  1  0  0  0  0
  6  7  2  0  0  0  0
  6  8  1  0  0  0  0
  8  9  1  0  0  0  0
  9 13  1  0  0  0  0
  9 10  2  0  0  0  0
 10 11  1  0  0  0  0
 11 12  2  0  0  0  0
 11 28  1  0  0  0  0
 12 13  1  0  0  0  0
 12 29  1  0  0  0  0
 14 18  1  0  0  0  0
 14 15  1  0  0  0  0
 14 38  1  0  0  0  0
 15 16  1  0  0  0  0
 15 30  1  0  0  0  0
 15 31  1  0  0  0  0
 16 17  1  0  0  0  0
 16 32  1  0  0  0  0
 16 33  1  0  0  0  0
 17 18  1  0  0  0  0
 17 34  1  0  0  0  0
 17 35  1  0  0  0  0
 18 36  1  0  0  0  0
 18 37  1  0  0  0  0
M  CHG  1   8  -1
M  CHG  1  14   1
M  END
> <s_m_source_file>
AV-unprocessed.smi

> <i_m_source_file_index>
1696

> <i_lp_mmshare_version>
43012

> <i_f3d_flags>
0

> <s_epik_input>
W0NIMl0xW0NIMl1bQ0gyXVtDSDJdTjFbQ0BIXShbQ0gyXVtDSDNdKVtDSDJdW05IXUMoPU8pW05IXWMybltjSF1bY0hdczI=

> <s_epik_cmdline>
J2VwaWtfcHl0aG9uJywgJy1waCcsICc3LjAnLCAnLXRuJywgJzgnLCAnLW1hJywgJzIwMCcsICctbWV0YWxfYmluZGluZycsICctaW1hZScsICc8aW5maWxlLm1hZT4nLCAnLW9tYWUnLCAnPG91dGZpbGUubWFlPic=

> <r_lp_tautomer_probability>
1

> <r_epik_Ionization_Penalty>
7.71903

> <r_epik_Ionization_Penalty_Charging>
6.3282

> <r_epik_Ionization_Penalty_Neutral>
1.39083

> <r_epik_State_Penalty>
6.32705

> <r_epik_Charging_Adjusted_Penalty>
12.6552

> <i_epik_Tot_Q>
0

> <i_epik_Tot_abs_Q>
2

> <r_epik_Metal_State_Penalty>
2.26116

> <b_epik_Metal_Only>
1

> <s_lp_Force_Field>
OPLS_2005

> <r_lp_Energy>
21.91

> <b_lp_Chiralities_Consistent>
1

> <s_lp_Variant>
AV-unprocessed.smi:1696-3

> <Gold.Version>
5.8.1

> <Gold.Id.Protein>
6NUR|6NUR_protein|mol2

> <Gold.PLP.Fitness>
43.4889

> <Gold.PLP.PLP>
-33.5142

> <Gold.PLP.part.hbond>
-4.2504

> <Gold.PLP.part.metal>
0.0000

> <Gold.PLP.part.buried>
-4.7289

> <Gold.PLP.part.nonpolar>
-24.8463

> <Gold.PLP.part.repulsive>
0.0821

> <Gold.PLP.ligand.clash>
0.0000

> <Gold.PLP.ligand.torsion>
1.6789

> <Gold.PLP.Chemscore.Hbond>
4.3941

> <Gold.PLP.Chemscore.CHOScore>
0.0000

> <Gold.PLP.Chemscore.Metal>
0.0000

> <Gold.Chemscore.Hbonds>
donor molecule, donor type, donor heavy atom, donor atom, acceptor molecule, acceptor atom, score
      L1  H    14    38       P1  7948  2.00
      P1  H  6896  6909       L1     7  1.00
      P1  H  6931  6943       L1    10  1.00
      P1  H  6934  6947       L1    10  0.23

> <Gold.PLP.Chemscore.Internal.Correction>
0.1503

> <Gold.Rescore>
     Score         DG    S(hbond)    S(metal)    S(lipo)     H(rot)  DE(clash)    DE(int)     intcor
     17.25     -18.82       2.93        0.00      68.25       1.73       0.00       1.57       ----

> <Gold.Chemscore.Fitness>
17.2453

> <Gold.Chemscore.DG>
-18.8174

> <Gold.Chemscore.ZeroCoef>
-5.4800

> <Gold.Chemscore.Hbond>
2.9261

> <Gold.Chemscore.Metal>
0.0000

> <Gold.Chemscore.Lipo>
68.2513

> <Gold.Chemscore.Internal_Hbond>
0.0000

> <Gold.Chemscore.DEClash>
0.0045

> <Gold.Chemscore.DEInternal>
1.5676

> <Gold.Chemscore.Rot>
1.7270

> <Gold.Chemscore.Internal.Correction>
   9.000000E+99

> <Gold.Chemscore.Hbonds>
donor molecule, donor type, donor heavy atom, donor atom, acceptor molecule, acceptor atom, score
      L1  H    14    38       P1  7948  0.98
      P1  H  6896  6909       L1     7  1.00
      P1  H  6931  6943       L1    10  0.67
      P1  H  6934  6947       L1    10  0.03

> <Gold.Chemscore.Hbond.Weighted>
-9.7732

> <Gold.Chemscore.Metal.Weighted>
-0.0000

> <Gold.Chemscore.Lipo.Weighted>
-7.9854

> <Gold.Chemscore.Internal_Hbond.Weighted>
0.0000

> <Gold.Chemscore.DEClash.Weighted>
0.0045

> <Gold.Chemscore.DEInternal.Weighted>
1.5676

> <Gold.Chemscore.Rot.Weighted>
4.4212

> <Gold.Chemscore.Internal.Correction.Weighted>
   9.000000E+99

> <Gold.Protein.RotatedTorsions>
[ 6907 6896 6895 6894 ] final   42.40 input  -60.11 | X-H torsion
[ 7974 7965 7964 7962 ] final -119.28 input  175.53 | X-H torsion
[ 8008 7997 7996 7995 ] final -136.55 input   59.86 | X-H torsion
[ 10167 10162 10161 10158 ] final  -47.92 input  -65.29 | X-H torsion
[ 10718 10713 10712 10709 ] final  125.58 input   66.30 | X-H torsion
[ 10763 10752 10751 10750 ] final    3.32 input  -60.55 | X-H torsion
[ 11005 11000 10999 10996 ] final  160.92 input  -57.11 | X-H torsion

> <Gold.Protein.ActiveResidues>
 VAL166  LYS551  ARG553  GLY616  TRP617  ASP618  TYR619  PRO620  LYS621  CYS622 
 ASP623  PHE694  ASN695  SER759  ASP760  ASP761  ALA762  ILE779  LEU786  VAL792 
 PHE793  MET794  SER795  GLU796  ALA797  LYS798  CYS799  TRP800  GLU811  SER814 

> <Gold.Protein.RotatedAtoms>
  152.2074  134.8533  160.0501 H   0  0  0  0  0  0  0  0  0  0  0  0  # atno 6907 bound_to 6896
  151.9364  133.3620  159.3957 H   0  0  0  0  0  0  0  0  0  0  0  0  # atno 6908 bound_to 6896
  150.6968  134.4409  159.5335 H   0  0  0  0  0  0  0  0  0  0  0  0  # atno 6909 bound_to 6896
  145.0643  140.8313  143.4134 H   0  0  0  0  0  0  0  0  0  0  0  0  # atno 7974 bound_to 7965
  155.3970  140.0503  157.3038 H   0  0  0  0  0  0  0  0  0  0  0  0  # atno 8008 bound_to 7997
  154.5008  140.2156  155.9311 H   0  0  0  0  0  0  0  0  0  0  0  0  # atno 8009 bound_to 7997
  156.1465  140.3144  155.8584 H   0  0  0  0  0  0  0  0  0  0  0  0  # atno 8010 bound_to 7997
  140.6754  143.2763  151.3997 H   0  0  0  0  0  0  0  0  0  0  0  0  # atno 10167 bound_to 10162
  157.5491  131.1094  150.8732 H   0  0  0  0  0  0  0  0  0  0  0  0  # atno 10718 bound_to 10713
  153.2847  135.6943  153.7351 H   0  0  0  0  0  0  0  0  0  0  0  0  # atno 10763 bound_to 10752
  153.6324  135.3408  155.3047 H   0  0  0  0  0  0  0  0  0  0  0  0  # atno 10764 bound_to 10752
  154.8506  135.4412  154.1912 H   0  0  0  0  0  0  0  0  0  0  0  0  # atno 10765 bound_to 10752
  140.2107  134.8270  157.3117 H   0  0  0  0  0  0  0  0  0  0  0  0  # atno 11005 bound_to 11000
  145.1371  139.2595  143.5509 LP  0  0  0  0  0  0  0  0  0  0  0  0  # atno 17320 bound_to 7965
  146.3526  140.1037  142.8607 LP  0  0  0  0  0  0  0  0  0  0  0  0  # atno 17321 bound_to 7965
  139.6043  144.1230  152.2232 LP  0  0  0  0  0  0  0  0  0  0  0  0  # atno 17342 bound_to 10162
  140.0624  144.5846  150.7253 LP  0  0  0  0  0  0  0  0  0  0  0  0  # atno 17343 bound_to 10162
  156.9262  130.5333  149.5279 LP  0  0  0  0  0  0  0  0  0  0  0  0  # atno 17370 bound_to 10713
  156.0561  130.5622  150.9094 LP  0  0  0  0  0  0  0  0  0  0  0  0  # atno 17371 bound_to 10713
  140.1954  134.4320  155.7692 LP  0  0  0  0  0  0  0  0  0  0  0  0  # atno 17394 bound_to 11000
  141.2226  133.7047  156.8097 LP  0  0  0  0  0  0  0  0  0  0  0  0  # atno 17395 bound_to 11000

$$$$
