AV-unprocessed.smi:1810|AV-procd|sdf|7333|dock1
  -GOLD-   22720 8593D 1   1.00000     0.00000
 Structure written by MMmdl.
 40 41  0  0  0  0  0  0  0  0  1 V2000
  151.0847  144.9325  159.9677 C   0  0  0  0  0  0  0  0  0  0  0  0
  151.5931  143.5930  159.5066 C   0  0  0  0  0  0  0  0  0  0  0  0
  151.2707  143.2303  158.3085 N   0  0  0  0  0  0  0  0  0  0  0  0
  151.6860  142.0210  157.7871 N   0  0  0  0  0  0  0  0  0  0  0  0
  151.2173  141.7671  156.4205 C   0  0  0  0  0  0  0  0  0  0  0  0
  150.3842  140.4788  156.3400 C   0  0  0  0  0  0  0  0  0  0  0  0
  149.5673  140.5377  155.1788 O   0  0  0  0  0  0  0  0  0  0  0  0
  148.3644  141.2061  155.2609 C   0  0  0  0  0  0  0  0  0  0  0  0
  147.7170  141.5352  156.4797 C   0  0  0  0  0  0  0  0  0  0  0  0
  146.4860  142.2194  156.4717 C   0  0  0  0  0  0  0  0  0  0  0  0
  145.8944  142.5806  155.2467 C   0  0  0  0  0  0  0  0  0  0  0  0
  144.3303  143.4483  155.2520 S   0  0  0  0  0  0  0  0  0  0  0  0
  143.2086  142.1657  155.0138 N   0  0  0  0  0  0  0  0  0  0  0  0
  144.1046  143.9883  156.6014 O   0  0  0  0  0  0  0  0  0  0  0  0
  144.2621  144.3223  154.0706 O   0  0  0  0  0  0  0  0  0  0  0  0
  146.5248  142.2614  154.0288 C   0  0  0  0  0  0  0  0  0  0  0  0
  147.7550  141.5762  154.0432 C   0  0  0  0  0  0  0  0  0  0  0  0
  152.4510  141.1095  158.4525 C   0  0  0  0  0  0  0  0  0  0  0  0
  152.7945  140.0390  157.9489 O   0  0  0  0  0  0  0  0  0  0  0  0
  152.8125  141.5262  159.8094 C   0  0  0  0  0  0  0  0  0  0  0  0
  153.6128  140.5994  160.5429 C   0  0  0  0  0  0  0  0  0  0  0  0
  154.2476  139.8480  161.1530 N   0  0  0  0  0  0  0  0  0  0  0  0
  152.4114  142.7117  160.3333 C   0  0  0  0  0  0  0  0  0  0  0  0
  152.7591  143.1912  161.7361 C   0  0  0  0  0  0  0  0  0  0  0  0
  151.9122  145.5904  160.2338 H   0  0  0  0  0  0  0  0  0  0  0  0
  150.4442  144.8226  160.8428 H   0  0  0  0  0  0  0  0  0  0  0  0
  150.5014  145.4346  159.1943 H   0  0  0  0  0  0  0  0  0  0  0  0
  150.6151  142.6082  156.0717 H   0  0  0  0  0  0  0  0  0  0  0  0
  152.0623  141.7106  155.7320 H   0  0  0  0  0  0  0  0  0  0  0  0
  151.0430  139.6104  156.2917 H   0  0  0  0  0  0  0  0  0  0  0  0
  149.7618  140.3867  157.2315 H   0  0  0  0  0  0  0  0  0  0  0  0
  148.1437  141.2729  157.4357 H   0  0  0  0  0  0  0  0  0  0  0  0
  145.9999  142.4646  157.4046 H   0  0  0  0  0  0  0  0  0  0  0  0
  143.4509  141.5844  154.2120 H   0  0  0  0  0  0  0  0  0  0  0  0
  142.2437  142.4950  154.9966 H   0  0  0  0  0  0  0  0  0  0  0  0
  146.0749  142.5354  153.0861 H   0  0  0  0  0  0  0  0  0  0  0  0
  148.2375  141.3319  153.1081 H   0  0  0  0  0  0  0  0  0  0  0  0
  153.3631  142.4674  162.2825 H   0  0  0  0  0  0  0  0  0  0  0  0
  151.8527  143.3651  162.3171 H   0  0  0  0  0  0  0  0  0  0  0  0
  153.3248  144.1224  161.6924 H   0  0  0  0  0  0  0  0  0  0  0  0
  1  2  1  0  0  0  0
  1 25  1  0  0  0  0
  1 26  1  0  0  0  0
  1 27  1  0  0  0  0
  2 23  1  0  0  0  0
  2  3  2  0  0  0  0
  3  4  1  0  0  0  0
  4  5  1  0  0  0  0
  4 18  1  0  0  0  0
  5  6  1  0  0  0  0
  5 28  1  0  0  0  0
  5 29  1  0  0  0  0
  6  7  1  0  0  0  0
  6 30  1  0  0  0  0
  6 31  1  0  0  0  0
  7  8  1  0  0  0  0
  8 17  1  0  0  0  0
  8  9  2  0  0  0  0
  9 10  1  0  0  0  0
  9 32  1  0  0  0  0
 10 11  2  0  0  0  0
 10 33  1  0  0  0  0
 11 12  1  0  0  0  0
 11 16  1  0  0  0  0
 12 13  1  0  0  0  0
 12 14  2  0  0  0  0
 12 15  2  0  0  0  0
 13 34  1  0  0  0  0
 13 35  1  0  0  0  0
 16 17  2  0  0  0  0
 16 36  1  0  0  0  0
 17 37  1  0  0  0  0
 18 19  2  0  0  0  0
 18 20  1  0  0  0  0
 20 21  1  0  0  0  0
 20 23  2  0  0  0  0
 21 22  3  0  0  0  0
 23 24  1  0  0  0  0
 24 38  1  0  0  0  0
 24 39  1  0  0  0  0
 24 40  1  0  0  0  0
M  END
> <s_m_source_file>
AV-unprocessed.smi

> <i_m_source_file_index>
1810

> <i_lp_mmshare_version>
43012

> <i_f3d_flags>
0

> <s_epik_input>
TiNDYyhjMVtDSDNdKWMoPU8pbihuYzFbQ0gzXSlbQ0gyXVtDSDJdT2MyW2NIXVtjSF1jKFMoPU8pKD1PKVtOSDJdKVtjSF1bY0hdMg==

> <s_epik_cmdline>
J2VwaWtfcHl0aG9uJywgJy1waCcsICc3LjAnLCAnLXRuJywgJzgnLCAnLW1hJywgJzIwMCcsICctbWV0YWxfYmluZGluZycsICctaW1hZScsICc8aW5maWxlLm1hZT4nLCAnLW9tYWUnLCAnPG91dGZpbGUubWFlPic=

> <r_lp_tautomer_probability>
1

> <r_epik_Ionization_Penalty>
0.000347403

> <r_epik_Ionization_Penalty_Charging>
5.27838e-11

> <r_epik_Ionization_Penalty_Neutral>
0.000347403

> <r_epik_State_Penalty>
0.00021091

> <r_epik_Charging_Adjusted_Penalty>
0.000210911

> <i_epik_Tot_Q>
0

> <i_epik_Tot_abs_Q>
0

> <r_epik_Metal_State_Penalty>
0.18648

> <b_epik_Metal_Only>
0

> <s_lp_Force_Field>
OPLS_2005

> <r_lp_Energy>
32.1268

> <b_lp_Chiralities_Consistent>
1

> <s_lp_Variant>
AV-unprocessed.smi:1810-1

> <Gold.Version>
5.8.1

> <Gold.Id.Protein>
6NUR|6NUR_protein|mol2

> <Gold.PLP.Fitness>
50.5584

> <Gold.PLP.PLP>
-46.4984

> <Gold.PLP.part.hbond>
-2.9571

> <Gold.PLP.part.metal>
0.0000

> <Gold.PLP.part.buried>
-8.8289

> <Gold.PLP.part.nonpolar>
-34.8335

> <Gold.PLP.part.repulsive>
0.3686

> <Gold.PLP.ligand.clash>
0.0000

> <Gold.PLP.ligand.torsion>
1.4622

> <Gold.PLP.Chemscore.Hbond>
1.6338

> <Gold.PLP.Chemscore.CHOScore>
0.0000

> <Gold.PLP.Chemscore.Metal>
0.0000

> <Gold.Chemscore.Hbonds>
donor molecule, donor type, donor heavy atom, donor atom, acceptor molecule, acceptor atom, score
      L1  H    13    34       P1 10175  0.70
      P1  H  7997  8009       L1    19  1.00

> <Gold.PLP.Chemscore.Internal.Correction>
2.0832

> <Gold.Rescore>
     Score         DG    S(hbond)    S(metal)    S(lipo)     H(rot)  DE(clash)    DE(int)     intcor
     12.90     -17.61       1.82        0.00      95.32       1.99       1.95       2.77       ----

> <Gold.Chemscore.Fitness>
12.8961

> <Gold.Chemscore.DG>
-17.6113

> <Gold.Chemscore.ZeroCoef>
-5.4800

> <Gold.Chemscore.Hbond>
1.8201

> <Gold.Chemscore.Metal>
0.0000

> <Gold.Chemscore.Lipo>
95.3244

> <Gold.Chemscore.Internal_Hbond>
0.0000

> <Gold.Chemscore.DEClash>
1.9490

> <Gold.Chemscore.DEInternal>
2.7662

> <Gold.Chemscore.Rot>
1.9925

> <Gold.Chemscore.Internal.Correction>
   9.000000E+99

> <Gold.Chemscore.Hbonds>
donor molecule, donor type, donor heavy atom, donor atom, acceptor molecule, acceptor atom, score
      L1  H    13    34       P1 10175  0.07
      P1  H  7997  8009       L1    19  0.86

> <Gold.Chemscore.Hbond.Weighted>
-6.0791

> <Gold.Chemscore.Metal.Weighted>
-0.0000

> <Gold.Chemscore.Lipo.Weighted>
-11.1530

> <Gold.Chemscore.Internal_Hbond.Weighted>
0.0000

> <Gold.Chemscore.DEClash.Weighted>
1.9490

> <Gold.Chemscore.DEInternal.Weighted>
2.7662

> <Gold.Chemscore.Rot.Weighted>
5.1007

> <Gold.Chemscore.Internal.Correction.Weighted>
   9.000000E+99

> <Gold.Protein.RotatedTorsions>
[ 6907 6896 6895 6894 ] final  170.90 input  -60.11 | X-H torsion
[ 7974 7965 7964 7962 ] final   34.92 input  175.53 | X-H torsion
[ 8008 7997 7996 7995 ] final  170.56 input   59.86 | X-H torsion
[ 10167 10162 10161 10158 ] final   18.30 input  -65.29 | X-H torsion
[ 10718 10713 10712 10709 ] final  102.91 input   66.30 | X-H torsion
[ 10763 10752 10751 10750 ] final  -17.23 input  -60.55 | X-H torsion
[ 11005 11000 10999 10996 ] final  108.01 input  -57.11 | X-H torsion

> <Gold.Protein.ActiveResidues>
 VAL166  LYS551  ARG553  GLY616  TRP617  ASP618  TYR619  PRO620  LYS621  CYS622 
 ASP623  PHE694  ASN695  SER759  ASP760  ASP761  ALA762  ILE779  LEU786  VAL792 
 PHE793  MET794  SER795  GLU796  ALA797  LYS798  CYS799  TRP800  GLU811  SER814 

> <Gold.Protein.RotatedAtoms>
  151.8088  133.3379  159.3548 H   0  0  0  0  0  0  0  0  0  0  0  0  # atno 6907 bound_to 6896
  150.7333  134.5684  159.5887 H   0  0  0  0  0  0  0  0  0  0  0  0  # atno 6908 bound_to 6896
  152.3090  134.7521  160.0392 H   0  0  0  0  0  0  0  0  0  0  0  0  # atno 6909 bound_to 6896
  146.1319  139.6208  142.9221 H   0  0  0  0  0  0  0  0  0  0  0  0  # atno 7974 bound_to 7965
  156.1354  140.1535  156.9002 H   0  0  0  0  0  0  0  0  0  0  0  0  # atno 8008 bound_to 7997
  154.4943  140.0842  156.7701 H   0  0  0  0  0  0  0  0  0  0  0  0  # atno 8009 bound_to 7997
  155.4179  140.3421  155.4271 H   0  0  0  0  0  0  0  0  0  0  0  0  # atno 8010 bound_to 7997
  140.5663  143.9244  150.6679 H   0  0  0  0  0  0  0  0  0  0  0  0  # atno 10167 bound_to 10162
  157.6788  131.0765  150.5476 H   0  0  0  0  0  0  0  0  0  0  0  0  # atno 10718 bound_to 10713
  153.5707  135.7007  153.5506 H   0  0  0  0  0  0  0  0  0  0  0  0  # atno 10763 bound_to 10752
  153.3347  135.4037  155.1524 H   0  0  0  0  0  0  0  0  0  0  0  0  # atno 10764 bound_to 10752
  154.8633  135.3727  154.5229 H   0  0  0  0  0  0  0  0  0  0  0  0  # atno 10765 bound_to 10752
  139.8837  134.9418  156.5907 H   0  0  0  0  0  0  0  0  0  0  0  0  # atno 11005 bound_to 11000
  145.5241  141.0430  143.2419 LP  0  0  0  0  0  0  0  0  0  0  0  0  # atno 17320 bound_to 7965
  144.7699  139.6758  143.7199 LP  0  0  0  0  0  0  0  0  0  0  0  0  # atno 17321 bound_to 7965
  140.2708  143.3457  152.1239 LP  0  0  0  0  0  0  0  0  0  0  0  0  # atno 17342 bound_to 10162
  139.5095  144.6867  151.5867 LP  0  0  0  0  0  0  0  0  0  0  0  0  # atno 17343 bound_to 10162
  156.5781  130.4297  149.5989 LP  0  0  0  0  0  0  0  0  0  0  0  0  # atno 17370 bound_to 10713
  156.2684  130.7003  151.1793 LP  0  0  0  0  0  0  0  0  0  0  0  0  # atno 17371 bound_to 10713
  140.7958  133.8545  155.8684 LP  0  0  0  0  0  0  0  0  0  0  0  0  # atno 17394 bound_to 11000
  140.9637  134.1622  157.4633 LP  0  0  0  0  0  0  0  0  0  0  0  0  # atno 17395 bound_to 11000

$$$$
