AV-unprocessed.smi:459|AV-procd|sdf|2625|dock3
  -GOLD-   2262023 23D 1   1.00000     0.00000
 Structure written by MMmdl.
 44 46  0  0  0  0  0  0  0  0  2 V2000
  149.6805  131.9792  154.2488 C   0  0  0  0  0  0  0  0  0  0  0  0
  148.9997  133.2212  154.3505 O   0  0  0  0  0  0  0  0  0  0  0  0
  149.5878  134.2242  155.0909 C   0  0  0  0  0  0  0  0  0  0  0  0
  150.8210  134.0921  155.7746 C   0  0  0  0  0  0  0  0  0  0  0  0
  151.3499  135.1736  156.5051 C   0  0  0  0  0  0  0  0  0  0  0  0
  150.6704  136.4061  156.5706 C   0  0  0  0  0  0  0  0  0  0  0  0
  151.2653  137.4123  157.3009 O   0  0  0  0  0  0  0  0  0  0  0  0
  150.7489  138.7294  157.1746 C   0  0  0  0  0  0  0  0  0  0  0  0
  151.8423  139.7210  157.5897 C   0  0  0  0  0  0  0  0  0  0  0  0
  151.4297  141.1141  157.3737 N   0  0  0  0  0  0  0  0  0  0  0  0
  150.6545  141.6628  156.3942 C   0  0  0  0  0  0  0  0  0  0  0  0
  150.0146  140.9479  155.2485 C   0  0  0  0  0  0  0  0  0  0  0  0
  148.5135  141.2542  155.1612 C   0  0  0  0  0  0  0  0  0  0  0  0
  148.2929  142.3257  154.2698 O   0  0  0  0  0  0  0  0  0  0  0  0
  150.5815  143.0015  156.6407 N   0  3  0  0  0  0  0  0  0  0  0  0
  151.3031  143.3098  157.7947 C   0  0  0  0  0  0  0  0  0  0  0  0
  151.5157  144.5246  158.4392 C   0  0  0  0  0  0  0  0  0  0  0  0
  152.3032  144.4905  159.6089 C   0  0  0  0  0  0  0  0  0  0  0  0
  152.8433  143.2822  160.0959 C   0  0  0  0  0  0  0  0  0  0  0  0
  152.6224  142.0570  159.4325 C   0  0  0  0  0  0  0  0  0  0  0  0
  151.8460  142.1002  158.2748 C   0  0  0  0  0  0  0  0  0  0  0  0
  149.4345  136.5366  155.8911 C   0  0  0  0  0  0  0  0  0  0  0  0
  148.9050  135.4544  155.1619 C   0  0  0  0  0  0  0  0  0  0  0  0
  149.0990  131.3005  153.6251 H   0  0  0  0  0  0  0  0  0  0  0  0
  149.7998  131.5084  155.2256 H   0  0  0  0  0  0  0  0  0  0  0  0
  150.6594  132.0981  153.7823 H   0  0  0  0  0  0  0  0  0  0  0  0
  151.3829  133.1707  155.7545 H   0  0  0  0  0  0  0  0  0  0  0  0
  152.2926  135.0555  157.0189 H   0  0  0  0  0  0  0  0  0  0  0  0
  150.4542  138.9219  156.1416 H   0  0  0  0  0  0  0  0  0  0  0  0
  149.8707  138.8533  157.8100 H   0  0  0  0  0  0  0  0  0  0  0  0
  152.1210  139.5879  158.6353 H   0  0  0  0  0  0  0  0  0  0  0  0
  152.7465  139.5472  157.0057 H   0  0  0  0  0  0  0  0  0  0  0  0
  150.5166  141.2344  154.3237 H   0  0  0  0  0  0  0  0  0  0  0  0
  150.1730  139.8756  155.3700 H   0  0  0  0  0  0  0  0  0  0  0  0
  147.9636  140.3819  154.8065 H   0  0  0  0  0  0  0  0  0  0  0  0
  148.1121  141.5175  156.1403 H   0  0  0  0  0  0  0  0  0  0  0  0
  148.4294  143.1384  154.7327 H   0  0  0  0  0  0  0  0  0  0  0  0
  151.1009  145.4511  158.0696 H   0  0  0  0  0  0  0  0  0  0  0  0
  152.4952  145.4091  160.1444 H   0  0  0  0  0  0  0  0  0  0  0  0
  153.4391  143.2952  160.9972 H   0  0  0  0  0  0  0  0  0  0  0  0
  153.0391  141.1368  159.8152 H   0  0  0  0  0  0  0  0  0  0  0  0
  148.8716  137.4571  155.9122 H   0  0  0  0  0  0  0  0  0  0  0  0
  147.9623  135.5712  154.6478 H   0  0  0  0  0  0  0  0  0  0  0  0
  150.0705  143.6548  156.0608 H   0  0  0  0  0  0  0  0  0  0  0  0
  1  2  1  0  0  0  0
  1 24  1  0  0  0  0
  1 25  1  0  0  0  0
  1 26  1  0  0  0  0
  2  3  1  0  0  0  0
  3 23  1  0  0  0  0
  3  4  2  0  0  0  0
  4  5  1  0  0  0  0
  4 27  1  0  0  0  0
  5  6  2  0  0  0  0
  5 28  1  0  0  0  0
  6  7  1  0  0  0  0
  6 22  1  0  0  0  0
  7  8  1  0  0  0  0
  8  9  1  0  0  0  0
  8 29  1  0  0  0  0
  8 30  1  0  0  0  0
  9 10  1  0  0  0  0
  9 31  1  0  0  0  0
  9 32  1  0  0  0  0
 10 21  1  0  0  0  0
 10 11  1  0  0  0  0
 11 12  1  0  0  0  0
 11 15  2  0  0  0  0
 12 13  1  0  0  0  0
 12 33  1  0  0  0  0
 12 34  1  0  0  0  0
 13 14  1  0  0  0  0
 13 35  1  0  0  0  0
 13 36  1  0  0  0  0
 14 37  1  0  0  0  0
 15 16  1  0  0  0  0
 15 44  1  0  0  0  0
 16 21  2  0  0  0  0
 16 17  1  0  0  0  0
 17 18  2  0  0  0  0
 17 38  1  0  0  0  0
 18 19  1  0  0  0  0
 18 39  1  0  0  0  0
 19 20  2  0  0  0  0
 19 40  1  0  0  0  0
 20 21  1  0  0  0  0
 20 41  1  0  0  0  0
 22 23  2  0  0  0  0
 22 42  1  0  0  0  0
 23 43  1  0  0  0  0
M  CHG  1  15   1
M  END
> <s_m_source_file>
AV-unprocessed.smi

> <i_m_source_file_index>
459

> <i_lp_mmshare_version>
43012

> <i_f3d_flags>
0

> <s_epik_input>
W0NIM11PYzFbY0hdW2NIXWMoW2NIXVtjSF0xKU9bQ0gyXVtDSDJdbihjKG4yKVtDSDJdW0NIMl1bT0hdKWMoYzIzKVtjSF1bY0hdW2NIXVtjSF0z

> <s_epik_cmdline>
J2VwaWtfcHl0aG9uJywgJy1waCcsICc3LjAnLCAnLXRuJywgJzgnLCAnLW1hJywgJzIwMCcsICctbWV0YWxfYmluZGluZycsICctaW1hZScsICc8aW5maWxlLm1hZT4nLCAnLW9tYWUnLCAnPG91dGZpbGUubWFlPic=

> <r_lp_tautomer_probability>
1

> <r_epik_Ionization_Penalty>
0.723344

> <r_epik_Ionization_Penalty_Charging>
0.723344

> <r_epik_Ionization_Penalty_Neutral>
5.89567e-08

> <r_epik_State_Penalty>
0.747968

> <r_epik_Charging_Adjusted_Penalty>
1.47131

> <i_epik_Tot_Q>
1

> <i_epik_Tot_abs_Q>
1

> <r_epik_Metal_State_Penalty>
4.64387

> <b_epik_Metal_Only>
0

> <s_lp_Force_Field>
OPLS_2005

> <r_lp_Energy>
25.798

> <b_lp_Chiralities_Consistent>
1

> <s_lp_Variant>
AV-unprocessed.smi:459-2

> <Gold.Version>
5.8.1

> <Gold.Id.Protein>
6NUR|6NUR_protein|mol2

> <Gold.PLP.Fitness>
54.2746

> <Gold.PLP.PLP>
-46.6208

> <Gold.PLP.part.hbond>
-3.2363

> <Gold.PLP.part.metal>
0.0000

> <Gold.PLP.part.buried>
-4.8133

> <Gold.PLP.part.nonpolar>
-37.8776

> <Gold.PLP.part.repulsive>
0.1862

> <Gold.PLP.ligand.clash>
0.0000

> <Gold.PLP.ligand.torsion>
0.8794

> <Gold.PLP.Chemscore.Hbond>
3.0828

> <Gold.PLP.Chemscore.CHOScore>
0.0000

> <Gold.PLP.Chemscore.Metal>
0.0000

> <Gold.Chemscore.Hbonds>
donor molecule, donor type, donor heavy atom, donor atom, acceptor molecule, acceptor atom, score
      L1  H    14    37       P1  8028  1.00
      L1  H    15    44       P1  8028  2.00

> <Gold.PLP.Chemscore.Internal.Correction>
0.1643

> <Gold.Rescore>
     Score         DG    S(hbond)    S(metal)    S(lipo)     H(rot)  DE(clash)    DE(int)     intcor
     17.77     -19.47       1.98        0.00     121.63       2.68       0.05       1.65       ----

> <Gold.Chemscore.Fitness>
17.7700

> <Gold.Chemscore.DG>
-19.4666

> <Gold.Chemscore.ZeroCoef>
-5.4800

> <Gold.Chemscore.Hbond>
1.9840

> <Gold.Chemscore.Metal>
0.0000

> <Gold.Chemscore.Lipo>
121.6323

> <Gold.Chemscore.Internal_Hbond>
0.0000

> <Gold.Chemscore.DEClash>
0.0509

> <Gold.Chemscore.DEInternal>
1.6457

> <Gold.Chemscore.Rot>
2.6840

> <Gold.Chemscore.Internal.Correction>
   9.000000E+99

> <Gold.Chemscore.Hbonds>
donor molecule, donor type, donor heavy atom, donor atom, acceptor molecule, acceptor atom, score
      L1  H    14    37       P1  8028  1.00
      L1  H    15    44       P1  8028  0.99
      P1  H  8011  8017       L1    14  0.01

> <Gold.Chemscore.Hbond.Weighted>
-6.6266

> <Gold.Chemscore.Metal.Weighted>
-0.0000

> <Gold.Chemscore.Lipo.Weighted>
-14.2310

> <Gold.Chemscore.Internal_Hbond.Weighted>
0.0000

> <Gold.Chemscore.DEClash.Weighted>
0.0509

> <Gold.Chemscore.DEInternal.Weighted>
1.6457

> <Gold.Chemscore.Rot.Weighted>
6.8710

> <Gold.Chemscore.Internal.Correction.Weighted>
   9.000000E+99

> <Gold.Protein.RotatedTorsions>
[ 6907 6896 6895 6894 ] final   50.38 input  -60.11 | X-H torsion
[ 7974 7965 7964 7962 ] final  170.50 input  175.53 | X-H torsion
[ 8008 7997 7996 7995 ] final -104.30 input   59.86 | X-H torsion
[ 10167 10162 10161 10158 ] final  162.59 input  -65.29 | X-H torsion
[ 10718 10713 10712 10709 ] final   66.26 input   66.30 | X-H torsion
[ 10763 10752 10751 10750 ] final -144.70 input  -60.55 | X-H torsion
[ 11005 11000 10999 10996 ] final -154.67 input  -57.11 | X-H torsion

> <Gold.Protein.ActiveResidues>
 VAL166  LYS551  ARG553  GLY616  TRP617  ASP618  TYR619  PRO620  LYS621  CYS622 
 ASP623  PHE694  ASN695  SER759  ASP760  ASP761  ALA762  ILE779  LEU786  VAL792 
 PHE793  MET794  SER795  GLU796  ALA797  LYS798  CYS799  TRP800  GLU811  SER814 

> <Gold.Protein.RotatedAtoms>
  152.3012  134.7608  160.0357 H   0  0  0  0  0  0  0  0  0  0  0  0  # atno 6907 bound_to 6896
  151.8121  133.3378  159.3566 H   0  0  0  0  0  0  0  0  0  0  0  0  # atno 6908 bound_to 6896
  150.7275  134.5584  159.5874 H   0  0  0  0  0  0  0  0  0  0  0  0  # atno 6909 bound_to 6896
  144.7322  139.9211  143.6420 H   0  0  0  0  0  0  0  0  0  0  0  0  # atno 7974 bound_to 7965
  154.8833  140.0418  157.1795 H   0  0  0  0  0  0  0  0  0  0  0  0  # atno 8008 bound_to 7997
  154.8617  140.2945  155.5514 H   0  0  0  0  0  0  0  0  0  0  0  0  # atno 8009 bound_to 7997
  156.2998  140.2445  156.3592 H   0  0  0  0  0  0  0  0  0  0  0  0  # atno 8010 bound_to 7997
  139.4862  144.4422  151.8937 H   0  0  0  0  0  0  0  0  0  0  0  0  # atno 10167 bound_to 10162
  157.6157  130.9258  150.0085 H   0  0  0  0  0  0  0  0  0  0  0  0  # atno 10718 bound_to 10713
  154.8416  135.3433  154.6388 H   0  0  0  0  0  0  0  0  0  0  0  0  # atno 10763 bound_to 10752
  153.6998  135.6970  153.5071 H   0  0  0  0  0  0  0  0  0  0  0  0  # atno 10764 bound_to 10752
  153.2531  135.4347  155.0772 H   0  0  0  0  0  0  0  0  0  0  0  0  # atno 10765 bound_to 10752
  140.6948  134.4002  157.5216 H   0  0  0  0  0  0  0  0  0  0  0  0  # atno 11005 bound_to 11000
  146.0929  139.3920  143.0394 LP  0  0  0  0  0  0  0  0  0  0  0  0  # atno 17320 bound_to 7965
  145.7686  140.9906  143.1161 LP  0  0  0  0  0  0  0  0  0  0  0  0  # atno 17321 bound_to 7965
  140.3875  144.2658  150.5902 LP  0  0  0  0  0  0  0  0  0  0  0  0  # atno 17342 bound_to 10162
  140.5177  143.2274  151.8438 LP  0  0  0  0  0  0  0  0  0  0  0  0  # atno 17343 bound_to 10162
  156.1279  130.3644  149.9780 LP  0  0  0  0  0  0  0  0  0  0  0  0  # atno 17370 bound_to 10713
  156.7847  130.9234  151.3646 LP  0  0  0  0  0  0  0  0  0  0  0  0  # atno 17371 bound_to 10713
  139.8913  134.8783  156.2326 LP  0  0  0  0  0  0  0  0  0  0  0  0  # atno 17394 bound_to 11000
  141.0212  133.7040  156.1271 LP  0  0  0  0  0  0  0  0  0  0  0  0  # atno 17395 bound_to 11000

$$$$
