AV-unprocessed.smi:3276|AV-procd|sdf|12535|dock5
  -GOLD-   2272018453D 1   1.00000     0.00000
 Structure written by MMmdl.
 39 40  0  0  0  0  0  0  0  0  1 V2000
  151.3691  144.9235  160.5491 C   0  0  0  0  0  0  0  0  0  0  0  0
  152.1443  143.6543  160.8311 C   0  0  0  0  0  0  0  0  0  0  0  0
  152.7074  143.3977  162.0991 C   0  0  0  0  0  0  0  0  0  0  0  0
  153.4019  142.2667  162.3487 N   0  0  0  0  0  0  0  0  0  0  0  0
  153.5328  141.3918  161.3247 C   0  0  0  0  0  0  0  0  0  0  0  0
  154.3221  140.1291  161.6211 C   0  0  0  0  0  0  0  0  0  0  0  0
  152.9709  141.6444  160.0472 C   0  0  0  0  0  0  0  0  0  0  0  0
  153.1271  140.7125  159.0089 N   0  0  0  0  0  0  0  0  0  0  0  0
  151.9686  140.0880  158.3807 C   0  0  0  0  0  0  0  0  0  0  0  0
  151.8938  140.3794  156.8749 C   0  0  0  0  0  0  0  0  0  0  0  0
  150.6235  139.9738  156.3951 O   0  0  0  0  0  0  0  0  0  0  0  0
  150.4332  140.2633  155.0199 C   0  0  0  0  0  0  0  0  0  0  0  0
  148.9333  140.4032  154.7253 C   0  0  1  0  0  0  0  0  0  0  0  0
  148.0643  140.7677  155.9327 C   0  0  0  0  0  0  0  0  0  0  0  0
  146.9285  141.5196  155.2764 C   0  0  0  0  0  0  0  0  0  0  0  0
  147.6624  142.2801  154.1769 C   0  0  0  0  0  0  0  0  0  0  0  0
  148.6993  141.4075  153.7403 O   0  0  0  0  0  0  0  0  0  0  0  0
  152.2734  142.7820  159.8074 N   0  0  0  0  0  0  0  0  0  0  0  0
  151.1702  145.4746  161.4686 H   0  0  0  0  0  0  0  0  0  0  0  0
  150.4130  144.6907  160.0792 H   0  0  0  0  0  0  0  0  0  0  0  0
  151.9349  145.5703  159.8780 H   0  0  0  0  0  0  0  0  0  0  0  0
  152.6027  144.0981  162.9146 H   0  0  0  0  0  0  0  0  0  0  0  0
  155.1858  140.0587  160.9591 H   0  0  0  0  0  0  0  0  0  0  0  0
  153.6982  139.2478  161.4704 H   0  0  0  0  0  0  0  0  0  0  0  0
  154.6834  140.1154  162.6502 H   0  0  0  0  0  0  0  0  0  0  0  0
  153.9898  140.7248  158.4842 H   0  0  0  0  0  0  0  0  0  0  0  0
  152.0277  139.0117  158.5435 H   0  0  0  0  0  0  0  0  0  0  0  0
  151.0557  140.4204  158.8759 H   0  0  0  0  0  0  0  0  0  0  0  0
  152.0221  141.4489  156.7024 H   0  0  0  0  0  0  0  0  0  0  0  0
  152.6926  139.8659  156.3375 H   0  0  0  0  0  0  0  0  0  0  0  0
  150.9562  141.1827  154.7524 H   0  0  0  0  0  0  0  0  0  0  0  0
  150.8504  139.4598  154.4112 H   0  0  0  0  0  0  0  0  0  0  0  0
  148.5664  139.4665  154.3036 H   0  0  0  0  0  0  0  0  0  0  0  0
  147.7319  139.8954  156.4959 H   0  0  0  0  0  0  0  0  0  0  0  0
  148.5940  141.4314  156.6174 H   0  0  0  0  0  0  0  0  0  0  0  0
  146.2151  140.8193  154.8396 H   0  0  0  0  0  0  0  0  0  0  0  0
  146.3927  142.1747  155.9639 H   0  0  0  0  0  0  0  0  0  0  0  0
  147.0075  142.5675  153.3539 H   0  0  0  0  0  0  0  0  0  0  0  0
  148.1174  143.1849  154.5818 H   0  0  0  0  0  0  0  0  0  0  0  0
  1  2  1  0  0  0  0
  1 19  1  0  0  0  0
  1 20  1  0  0  0  0
  1 21  1  0  0  0  0
  2 18  1  0  0  0  0
  2  3  2  0  0  0  0
  3  4  1  0  0  0  0
  3 22  1  0  0  0  0
  4  5  2  0  0  0  0
  5  6  1  0  0  0  0
  5  7  1  0  0  0  0
  6 23  1  0  0  0  0
  6 24  1  0  0  0  0
  6 25  1  0  0  0  0
  7  8  1  0  0  0  0
  7 18  2  0  0  0  0
  8  9  1  0  0  0  0
  8 26  1  0  0  0  0
  9 10  1  0  0  0  0
  9 27  1  0  0  0  0
  9 28  1  0  0  0  0
 10 11  1  0  0  0  0
 10 29  1  0  0  0  0
 10 30  1  0  0  0  0
 11 12  1  0  0  0  0
 12 13  1  0  0  0  0
 12 31  1  0  0  0  0
 12 32  1  0  0  0  0
 13 17  1  0  0  0  0
 13 14  1  0  0  0  0
 13 33  1  0  0  0  0
 14 15  1  0  0  0  0
 14 34  1  0  0  0  0
 14 35  1  0  0  0  0
 15 16  1  0  0  0  0
 15 36  1  0  0  0  0
 15 37  1  0  0  0  0
 16 17  1  0  0  0  0
 16 38  1  0  0  0  0
 16 39  1  0  0  0  0
M  END
> <s_m_source_file>
AV-unprocessed.smi

> <i_m_source_file_index>
3276

> <i_lp_mmshare_version>
43012

> <i_f3d_flags>
0

> <s_epik_input>
W0NIM11jMVtjSF1uYyhbQ0gzXSljKG4xKVtOSF1bQ0gyXVtDSDJdT1tDSDJdW0NAQEhdMltDSDJdW0NIMl1bQ0gyXU8y

> <s_epik_cmdline>
J2VwaWtfcHl0aG9uJywgJy1waCcsICc3LjAnLCAnLXRuJywgJzgnLCAnLW1hJywgJzIwMCcsICctbWV0YWxfYmluZGluZycsICctaW1hZScsICc8aW5maWxlLm1hZT4nLCAnLW9tYWUnLCAnPG91dGZpbGUubWFlPic=

> <r_lp_tautomer_probability>
1

> <r_epik_Ionization_Penalty>
0.000506

> <r_epik_Ionization_Penalty_Charging>
0

> <r_epik_Ionization_Penalty_Neutral>
0.000506

> <r_epik_State_Penalty>
-0

> <r_epik_Charging_Adjusted_Penalty>
0

> <i_epik_Tot_Q>
0

> <i_epik_Tot_abs_Q>
0

> <r_epik_Metal_State_Penalty>
-0

> <b_epik_Metal_Only>
0

> <s_lp_Force_Field>
OPLS_2005

> <r_lp_Energy>
26.2022

> <b_lp_Chiralities_Consistent>
1

> <s_lp_Variant>
AV-unprocessed.smi:3276-2

> <Gold.Version>
5.8.1

> <Gold.Id.Protein>
6NUR|6NUR_protein|mol2

> <Gold.PLP.Fitness>
36.0696

> <Gold.PLP.PLP>
-36.0811

> <Gold.PLP.part.hbond>
-1.0000

> <Gold.PLP.part.metal>
0.0000

> <Gold.PLP.part.buried>
-4.3373

> <Gold.PLP.part.nonpolar>
-30.7065

> <Gold.PLP.part.repulsive>
1.2158

> <Gold.PLP.ligand.clash>
0.0000

> <Gold.PLP.ligand.torsion>
1.2344

> <Gold.PLP.Chemscore.Hbond>
0.8000

> <Gold.PLP.Chemscore.CHOScore>
0.0000

> <Gold.PLP.Chemscore.Metal>
0.0000

> <Gold.Chemscore.Hbonds>
donor molecule, donor type, donor heavy atom, donor atom, acceptor molecule, acceptor atom, score
      P1  H  8011  8017       L1    17  0.74

> <Gold.PLP.Chemscore.Internal.Correction>
0.0573

> <Gold.Rescore>
     Score         DG    S(hbond)    S(metal)    S(lipo)     H(rot)  DE(clash)    DE(int)     intcor
     12.08     -13.51       0.50        0.00      91.23       1.68       0.17       1.26       ----

> <Gold.Chemscore.Fitness>
12.0833

> <Gold.Chemscore.DG>
-13.5136

> <Gold.Chemscore.ZeroCoef>
-5.4800

> <Gold.Chemscore.Hbond>
0.4986

> <Gold.Chemscore.Metal>
0.0000

> <Gold.Chemscore.Lipo>
91.2310

> <Gold.Chemscore.Internal_Hbond>
0.0000

> <Gold.Chemscore.DEClash>
0.1740

> <Gold.Chemscore.DEInternal>
1.2562

> <Gold.Chemscore.Rot>
1.6820

> <Gold.Chemscore.Internal.Correction>
   9.000000E+99

> <Gold.Chemscore.Hbonds>
donor molecule, donor type, donor heavy atom, donor atom, acceptor molecule, acceptor atom, score
      P1  H  8011  8017       L1    17  0.42

> <Gold.Chemscore.Hbond.Weighted>
-1.6654

> <Gold.Chemscore.Metal.Weighted>
-0.0000

> <Gold.Chemscore.Lipo.Weighted>
-10.6740

> <Gold.Chemscore.Internal_Hbond.Weighted>
0.0000

> <Gold.Chemscore.DEClash.Weighted>
0.1740

> <Gold.Chemscore.DEInternal.Weighted>
1.2562

> <Gold.Chemscore.Rot.Weighted>
4.3058

> <Gold.Chemscore.Internal.Correction.Weighted>
   9.000000E+99

> <Gold.Protein.RotatedTorsions>
[ 6907 6896 6895 6894 ] final -126.62 input  -60.11 | X-H torsion
[ 7974 7965 7964 7962 ] final  126.76 input  175.53 | X-H torsion
[ 8008 7997 7996 7995 ] final  -48.14 input   59.86 | X-H torsion
[ 10167 10162 10161 10158 ] final   15.08 input  -65.29 | X-H torsion
[ 10718 10713 10712 10709 ] final  151.58 input   66.30 | X-H torsion
[ 10763 10752 10751 10750 ] final -142.56 input  -60.55 | X-H torsion
[ 11005 11000 10999 10996 ] final   75.70 input  -57.11 | X-H torsion

> <Gold.Protein.ActiveResidues>
 VAL166  LYS551  ARG553  GLY616  TRP617  ASP618  TYR619  PRO620  LYS621  CYS622 
 ASP623  PHE694  ASN695  SER759  ASP760  ASP761  ALA762  ILE779  LEU786  VAL792 
 PHE793  MET794  SER795  GLU796  ALA797  LYS798  CYS799  TRP800  GLU811  SER814 

> <Gold.Protein.RotatedAtoms>
  150.8988  133.7145  159.2884 H   0  0  0  0  0  0  0  0  0  0  0  0  # atno 6907 bound_to 6896
  151.4671  135.1041  159.9750 H   0  0  0  0  0  0  0  0  0  0  0  0  # atno 6908 bound_to 6896
  152.4864  133.8337  159.7172 H   0  0  0  0  0  0  0  0  0  0  0  0  # atno 6909 bound_to 6896
  145.0581  139.3827  143.5020 H   0  0  0  0  0  0  0  0  0  0  0  0  # atno 7974 bound_to 7965
  154.4025  140.1329  156.4291 H   0  0  0  0  0  0  0  0  0  0  0  0  # atno 8008 bound_to 7997
  155.7569  140.3487  155.5158 H   0  0  0  0  0  0  0  0  0  0  0  0  # atno 8009 bound_to 7997
  155.8896  140.1001  157.1418 H   0  0  0  0  0  0  0  0  0  0  0  0  # atno 8010 bound_to 7997
  140.5891  143.8830  150.6857 H   0  0  0  0  0  0  0  0  0  0  0  0  # atno 10167 bound_to 10162
  157.2689  131.0813  151.1614 H   0  0  0  0  0  0  0  0  0  0  0  0  # atno 10718 bound_to 10713
  154.8504  135.3492  154.6047 H   0  0  0  0  0  0  0  0  0  0  0  0  # atno 10763 bound_to 10752
  153.6656  135.6987  153.5168 H   0  0  0  0  0  0  0  0  0  0  0  0  # atno 10764 bound_to 10752
  153.2783  135.4271  155.1011 H   0  0  0  0  0  0  0  0  0  0  0  0  # atno 10765 bound_to 10752
  139.9332  134.7539  156.1303 H   0  0  0  0  0  0  0  0  0  0  0  0  # atno 11005 bound_to 11000
  146.3522  140.0266  142.8654 LP  0  0  0  0  0  0  0  0  0  0  0  0  # atno 17320 bound_to 7965
  145.1443  140.9588  143.4470 LP  0  0  0  0  0  0  0  0  0  0  0  0  # atno 17321 bound_to 7965
  140.2349  143.3708  152.1535 LP  0  0  0  0  0  0  0  0  0  0  0  0  # atno 17342 bound_to 10162
  139.5216  144.7048  151.5386 LP  0  0  0  0  0  0  0  0  0  0  0  0  # atno 17343 bound_to 10162
  157.3093  130.6882  149.6207 LP  0  0  0  0  0  0  0  0  0  0  0  0  # atno 17370 bound_to 10713
  155.9663  130.4368  150.5150 LP  0  0  0  0  0  0  0  0  0  0  0  0  # atno 17371 bound_to 10713
  141.0932  133.6706  156.2586 LP  0  0  0  0  0  0  0  0  0  0  0  0  # atno 17394 bound_to 11000
  140.6146  134.5423  157.5539 LP  0  0  0  0  0  0  0  0  0  0  0  0  # atno 17395 bound_to 11000

$$$$
