AV-unprocessed.smi:1709|AV-procd|sdf|6894|dock10
  -GOLD-   22720 8103D 1   1.00000     0.00000
 Structure written by MMmdl.
 43 45  0  0  0  0  0  0  0  0  2 V2000
  151.0125  137.5265  154.5278 C   0  0  0  0  0  0  0  0  0  0  0  0
  150.3198  138.8495  154.8144 C   0  0  0  0  0  0  0  0  0  0  0  0
  151.0549  139.8939  155.4143 C   0  0  0  0  0  0  0  0  0  0  0  0
  150.4176  141.1181  155.6775 C   0  0  0  0  0  0  0  0  0  0  0  0
  149.0642  141.2472  155.3250 C   0  0  0  0  0  0  0  0  0  0  0  0
  148.3544  140.2543  154.7508 N   0  0  0  0  0  0  0  0  0  0  0  0
  148.9515  139.0613  154.4943 C   0  0  0  0  0  0  0  0  0  0  0  0
  148.2784  137.9616  153.8768 N   0  0  0  0  0  0  0  0  0  0  0  0
  147.0100  137.5122  153.9856 C   0  0  0  0  0  0  0  0  0  0  0  0
  146.1977  138.0719  154.7196 O   0  0  0  0  0  0  0  0  0  0  0  0
  146.6992  136.4312  153.2511 N   0  0  0  0  0  0  0  0  0  0  0  0
  145.4052  135.7535  153.2292 C   0  0  1  0  0  0  0  0  0  0  0  0
  144.2971  136.6089  152.5843 C   0  0  0  0  0  0  0  0  0  0  0  0
  143.5113  135.6320  151.7039 C   0  0  0  0  0  0  0  0  0  0  0  0
  144.5408  134.6825  151.2659 N   0  3  2  0  0  0  0  0  0  0  0  0
  144.1125  133.4397  150.5926 C   0  0  0  0  0  0  0  0  0  0  0  0
  145.3687  132.7076  150.0734 C   0  0  0  0  0  0  0  0  0  0  0  0
  146.4253  132.5007  151.1821 C   0  0  0  0  0  0  0  0  0  0  0  0
  146.7336  133.8142  151.9322 C   0  0  0  0  0  0  0  0  0  0  0  0
  145.4126  134.4315  152.4263 C   0  0  1  0  0  0  0  0  0  0  0  0
  152.0462  137.5360  154.8745 H   0  0  0  0  0  0  0  0  0  0  0  0
  151.0197  137.3245  153.4564 H   0  0  0  0  0  0  0  0  0  0  0  0
  150.4987  136.7076  155.0323 H   0  0  0  0  0  0  0  0  0  0  0  0
  152.0957  139.7617  155.6709 H   0  0  0  0  0  0  0  0  0  0  0  0
  150.9530  141.9363  156.1362 H   0  0  0  0  0  0  0  0  0  0  0  0
  148.5360  142.1712  155.5078 H   0  0  0  0  0  0  0  0  0  0  0  0
  148.8387  137.4629  153.2010 H   0  0  0  0  0  0  0  0  0  0  0  0
  147.4303  136.0381  152.6747 H   0  0  0  0  0  0  0  0  0  0  0  0
  145.1031  135.5308  154.2546 H   0  0  0  0  0  0  0  0  0  0  0  0
  143.6652  137.1038  153.3224 H   0  0  0  0  0  0  0  0  0  0  0  0
  144.7357  137.3849  151.9548 H   0  0  0  0  0  0  0  0  0  0  0  0
  142.7529  135.1102  152.2897 H   0  0  0  0  0  0  0  0  0  0  0  0
  143.0230  136.1226  150.8614 H   0  0  0  0  0  0  0  0  0  0  0  0
  143.5527  132.8100  151.2858 H   0  0  0  0  0  0  0  0  0  0  0  0
  143.4476  133.6802  149.7625 H   0  0  0  0  0  0  0  0  0  0  0  0
  145.0898  131.7473  149.6387 H   0  0  0  0  0  0  0  0  0  0  0  0
  145.8128  133.2910  149.2659 H   0  0  0  0  0  0  0  0  0  0  0  0
  146.0578  131.7590  151.8925 H   0  0  0  0  0  0  0  0  0  0  0  0
  147.3403  132.0894  150.7552 H   0  0  0  0  0  0  0  0  0  0  0  0
  147.3998  133.6111  152.7710 H   0  0  0  0  0  0  0  0  0  0  0  0
  147.2551  134.5082  151.2714 H   0  0  0  0  0  0  0  0  0  0  0  0
  144.9137  133.6909  153.0554 H   0  0  0  0  0  0  0  0  0  0  0  0
  145.1058  135.1890  150.5992 H   0  0  0  0  0  0  0  0  0  0  0  0
  1  2  1  0  0  0  0
  1 21  1  0  0  0  0
  1 22  1  0  0  0  0
  1 23  1  0  0  0  0
  2  7  1  0  0  0  0
  2  3  2  0  0  0  0
  3  4  1  0  0  0  0
  3 24  1  0  0  0  0
  4  5  2  0  0  0  0
  4 25  1  0  0  0  0
  5  6  1  0  0  0  0
  5 26  1  0  0  0  0
  6  7  2  0  0  0  0
  7  8  1  0  0  0  0
  8  9  1  0  0  0  0
  8 27  1  0  0  0  0
  9 10  2  0  0  0  0
  9 11  1  0  0  0  0
 11 12  1  0  0  0  0
 11 28  1  0  0  0  0
 12 20  1  0  0  0  0
 12 13  1  0  0  0  0
 12 29  1  0  0  0  0
 13 14  1  0  0  0  0
 13 30  1  0  0  0  0
 13 31  1  0  0  0  0
 14 15  1  0  0  0  0
 14 32  1  0  0  0  0
 14 33  1  0  0  0  0
 15 20  1  0  0  0  0
 15 16  1  0  0  0  0
 15 43  1  0  0  0  0
 16 17  1  0  0  0  0
 16 34  1  0  0  0  0
 16 35  1  0  0  0  0
 17 18  1  0  0  0  0
 17 36  1  0  0  0  0
 17 37  1  0  0  0  0
 18 19  1  0  0  0  0
 18 38  1  0  0  0  0
 18 39  1  0  0  0  0
 19 20  1  0  0  0  0
 19 40  1  0  0  0  0
 19 41  1  0  0  0  0
 20 42  1  0  0  0  0
M  CHG  1  15   1
M  END
> <s_m_source_file>
AV-unprocessed.smi

> <i_m_source_file_index>
1709

> <i_lp_mmshare_version>
43012

> <i_f3d_flags>
0

> <s_epik_input>
W0NIM11jMVtjSF1bY0hdW2NIXW5jMVtOSF1DKD1PKVtOSF1bQ0BIXShbQ0gyXVtDSDJdMilbQ0BASF0oTjIzKVtDSDJdW0NIMl1bQ0gyXVtDSDJdMw==

> <s_epik_cmdline>
J2VwaWtfcHl0aG9uJywgJy1waCcsICc3LjAnLCAnLXRuJywgJzgnLCAnLW1hJywgJzIwMCcsICctbWV0YWxfYmluZGluZycsICctaW1hZScsICc8aW5maWxlLm1hZT4nLCAnLW9tYWUnLCAnPG91dGZpbGUubWFlPic=

> <r_epik_Ionization_Penalty>
0.00101524

> <r_epik_Ionization_Penalty_Charging>
0.000974069

> <r_epik_Ionization_Penalty_Neutral>
4.11757e-05

> <r_epik_State_Penalty>
0.000633842

> <r_epik_Charging_Adjusted_Penalty>
0.00160791

> <i_epik_Tot_Q>
1

> <i_epik_Tot_abs_Q>
1

> <r_epik_Metal_State_Penalty>
-0

> <b_epik_Metal_Only>
0

> <s_lp_Force_Field>
OPLS_2005

> <r_lp_Energy>
46.0591

> <b_lp_Chiralities_Consistent>
1

> <s_lp_Variant>
AV-unprocessed.smi:1709-4

> <Gold.Version>
5.8.1

> <Gold.Id.Protein>
6NUR|6NUR_protein|mol2

> <Gold.PLP.Fitness>
39.9570

> <Gold.PLP.PLP>
-31.5988

> <Gold.PLP.part.hbond>
-2.0000

> <Gold.PLP.part.metal>
0.0000

> <Gold.PLP.part.buried>
-2.0067

> <Gold.PLP.part.nonpolar>
-27.3401

> <Gold.PLP.part.repulsive>
0.1790

> <Gold.PLP.ligand.clash>
0.0000

> <Gold.PLP.ligand.torsion>
0.3212

> <Gold.PLP.Chemscore.Hbond>
2.0000

> <Gold.PLP.Chemscore.CHOScore>
1.0000

> <Gold.PLP.Chemscore.Metal>
0.0000

> <Gold.Chemscore.Hbonds>
donor molecule, donor type, donor heavy atom, donor atom, acceptor molecule, acceptor atom, score
      L1  H     8    27       P1  7948  1.00
      L1  H    11    28       P1  7948  1.00
      L1  C     5    26       P1  8028  0.91

> <Gold.PLP.Chemscore.Internal.Correction>
0.0005

> <Gold.Rescore>
     Score         DG    S(hbond)    S(metal)    S(lipo)     H(rot)  DE(clash)    DE(int)     intcor
     18.13     -18.55       1.88        0.00      80.01       1.00       0.08       0.34       ----

> <Gold.Chemscore.Fitness>
18.1296

> <Gold.Chemscore.DG>
-18.5528

> <Gold.Chemscore.ZeroCoef>
-5.4800

> <Gold.Chemscore.Hbond>
1.8778

> <Gold.Chemscore.Metal>
0.0000

> <Gold.Chemscore.Lipo>
80.0089

> <Gold.Chemscore.Internal_Hbond>
0.0000

> <Gold.Chemscore.DEClash>
0.0830

> <Gold.Chemscore.DEInternal>
0.3402

> <Gold.Chemscore.Rot>
1.0000

> <Gold.Chemscore.Internal.Correction>
   9.000000E+99

> <Gold.Chemscore.Hbonds>
donor molecule, donor type, donor heavy atom, donor atom, acceptor molecule, acceptor atom, score
      L1  H     8    27       P1  7948  0.95
      L1  H    11    28       P1  7948  0.94

> <Gold.Chemscore.Hbond.Weighted>
-6.2718

> <Gold.Chemscore.Metal.Weighted>
-0.0000

> <Gold.Chemscore.Lipo.Weighted>
-9.3610

> <Gold.Chemscore.Internal_Hbond.Weighted>
0.0000

> <Gold.Chemscore.DEClash.Weighted>
0.0830

> <Gold.Chemscore.DEInternal.Weighted>
0.3402

> <Gold.Chemscore.Rot.Weighted>
2.5600

> <Gold.Chemscore.Internal.Correction.Weighted>
   9.000000E+99

> <Gold.Protein.RotatedTorsions>
[ 6907 6896 6895 6894 ] final  150.30 input  -60.11 | X-H torsion
[ 7974 7965 7964 7962 ] final   50.92 input  175.53 | X-H torsion
[ 8008 7997 7996 7995 ] final -130.79 input   59.86 | X-H torsion
[ 10167 10162 10161 10158 ] final   64.12 input  -65.29 | X-H torsion
[ 10718 10713 10712 10709 ] final   -4.98 input   66.30 | X-H torsion
[ 10763 10752 10751 10750 ] final  147.88 input  -60.55 | X-H torsion
[ 11005 11000 10999 10996 ] final   84.16 input  -57.11 | X-H torsion

> <Gold.Protein.ActiveResidues>
 VAL166  LYS551  ARG553  GLY616  TRP617  ASP618  TYR619  PRO620  LYS621  CYS622 
 ASP623  PHE694  ASN695  SER759  ASP760  ASP761  ALA762  ILE779  LEU786  VAL792 
 PHE793  MET794  SER795  GLU796  ALA797  LYS798  CYS799  TRP800  GLU811  SER814 

> <Gold.Protein.RotatedAtoms>
  152.1163  133.4328  159.4654 H   0  0  0  0  0  0  0  0  0  0  0  0  # atno 6907 bound_to 6896
  150.6869  134.2588  159.4550 H   0  0  0  0  0  0  0  0  0  0  0  0  # atno 6908 bound_to 6896
  152.0461  134.9682  160.0625 H   0  0  0  0  0  0  0  0  0  0  0  0  # atno 6909 bound_to 6896
  145.9965  139.4393  143.0041 H   0  0  0  0  0  0  0  0  0  0  0  0  # atno 7974 bound_to 7965
  155.3016  140.0453  157.3030 H   0  0  0  0  0  0  0  0  0  0  0  0  # atno 8008 bound_to 7997
  154.5483  140.2309  155.8493 H   0  0  0  0  0  0  0  0  0  0  0  0  # atno 8009 bound_to 7997
  156.1944  140.3042  155.9405 H   0  0  0  0  0  0  0  0  0  0  0  0  # atno 8010 bound_to 7997
  140.1257  144.4690  150.6894 H   0  0  0  0  0  0  0  0  0  0  0  0  # atno 10167 bound_to 10162
  156.7533  130.5246  149.5799 H   0  0  0  0  0  0  0  0  0  0  0  0  # atno 10718 bound_to 10713
  154.0456  135.2886  155.3348 H   0  0  0  0  0  0  0  0  0  0  0  0  # atno 10763 bound_to 10752
  154.6902  135.5229  153.8384 H   0  0  0  0  0  0  0  0  0  0  0  0  # atno 10764 bound_to 10752
  153.0582  135.6603  154.0656 H   0  0  0  0  0  0  0  0  0  0  0  0  # atno 10765 bound_to 10752
  139.9009  134.8197  156.2407 H   0  0  0  0  0  0  0  0  0  0  0  0  # atno 11005 bound_to 11000
  145.7552  140.9957  143.1229 LP  0  0  0  0  0  0  0  0  0  0  0  0  # atno 17320 bound_to 7965
  144.6905  139.9263  143.7470 LP  0  0  0  0  0  0  0  0  0  0  0  0  # atno 17321 bound_to 7965
  140.6846  143.2343  151.5293 LP  0  0  0  0  0  0  0  0  0  0  0  0  # atno 17342 bound_to 10162
  139.5545  144.2309  152.1589 LP  0  0  0  0  0  0  0  0  0  0  0  0  # atno 17343 bound_to 10162
  156.1387  130.6229  151.0436 LP  0  0  0  0  0  0  0  0  0  0  0  0  # atno 17370 bound_to 10713
  157.6767  131.0848  150.7476 LP  0  0  0  0  0  0  0  0  0  0  0  0  # atno 17371 bound_to 10713
  141.0286  133.7001  156.1391 LP  0  0  0  0  0  0  0  0  0  0  0  0  # atno 17394 bound_to 11000
  140.7129  134.4442  157.5580 LP  0  0  0  0  0  0  0  0  0  0  0  0  # atno 17395 bound_to 11000

$$$$
