AV-unprocessed.smi:255|AV-procd|sdf|1950|dock6
  -GOLD-   2262021 83D 1   1.00000     0.00000
 Structure written by MMmdl.
 44 47  0  0  0  0  0  0  0  0  1 V2000
  150.2620  144.1663  158.3273 O   0  0  0  0  0  0  0  0  0  0  0  0
  151.6121  144.1633  157.9164 C   0  0  0  0  0  0  0  0  0  0  0  0
  152.3404  142.9353  158.4928 C   0  0  1  0  0  0  0  0  0  0  0  0
  152.7523  143.0778  159.9586 C   0  0  0  0  0  0  0  0  0  0  0  0
  152.9872  141.6262  160.3735 C   0  0  2  0  0  0  0  0  0  0  0  0
  154.2384  141.2747  160.0740 F   0  0  0  0  0  0  0  0  0  0  0  0
  152.0161  140.8197  159.4991 C   0  0  0  0  0  0  0  0  0  0  0  0
  151.5090  141.7376  158.4832 N   0  0  0  0  0  0  0  0  0  0  0  0
  151.2817  141.1807  157.2736 C   0  0  0  0  0  0  0  0  0  0  0  0
  152.2498  140.4493  156.6617 N   0  0  0  0  0  0  0  0  0  0  0  0
  152.0127  139.9003  155.4663 C   0  0  0  0  0  0  0  0  0  0  0  0
  150.9041  139.9609  154.7243 N   0  0  0  0  0  0  0  0  0  0  0  0
  149.9363  140.7047  155.3345 C   0  0  0  0  0  0  0  0  0  0  0  0
  150.0415  141.3381  156.6036 C   0  0  0  0  0  0  0  0  0  0  0  0
  148.8567  141.9914  156.9136 N   0  0  0  0  0  0  0  0  0  0  0  0
  148.0894  141.7524  155.8855 C   0  0  0  0  0  0  0  0  0  0  0  0
  148.6636  141.0064  154.8790 N   0  0  0  0  0  0  0  0  0  0  0  0
  148.0338  140.5911  153.6332 C   0  0  0  0  0  0  0  0  0  0  0  0
  147.7354  139.0731  153.5175 C   0  0  1  0  0  0  0  0  0  0  0  0
  148.9839  138.4316  153.3296 O   0  0  0  0  0  0  0  0  0  0  0  0
  147.0654  138.4426  154.7389 C   0  0  0  0  0  0  0  0  0  0  0  0
  146.2601  137.3003  154.1349 C   0  0  0  0  0  0  0  0  0  0  0  0
  145.7646  137.8774  152.9401 O   0  0  0  0  0  0  0  0  0  0  0  0
  146.8036  138.6565  152.3576 C   0  0  0  0  0  0  0  0  0  0  0  0
  153.2367  142.7451  157.8992 H   0  0  0  0  0  0  0  0  0  0  0  0
  152.8458  141.4563  161.4411 H   0  0  0  0  0  0  0  0  0  0  0  0
  150.0720  145.0010  158.7269 H   0  0  0  0  0  0  0  0  0  0  0  0
  151.6614  144.1721  156.8270 H   0  0  0  0  0  0  0  0  0  0  0  0
  152.0741  145.0866  158.2673 H   0  0  0  0  0  0  0  0  0  0  0  0
  153.6288  143.7110  160.0996 H   0  0  0  0  0  0  0  0  0  0  0  0
  151.9322  143.4993  160.5421 H   0  0  0  0  0  0  0  0  0  0  0  0
  152.4989  139.9372  159.0757 H   0  0  0  0  0  0  0  0  0  0  0  0
  151.1709  140.4746  160.0952 H   0  0  0  0  0  0  0  0  0  0  0  0
  152.8275  139.3314  155.0437 H   0  0  0  0  0  0  0  0  0  0  0  0
  147.0748  142.1200  155.8327 H   0  0  0  0  0  0  0  0  0  0  0  0
  147.1092  141.1589  153.5196 H   0  0  0  0  0  0  0  0  0  0  0  0
  148.6811  140.9043  152.8129 H   0  0  0  0  0  0  0  0  0  0  0  0
  148.9202  137.8673  152.5744 H   0  0  0  0  0  0  0  0  0  0  0  0
  147.7681  138.1132  155.5054 H   0  0  0  0  0  0  0  0  0  0  0  0
  146.3672  139.1311  155.2099 H   0  0  0  0  0  0  0  0  0  0  0  0
  146.8984  136.4473  153.8989 H   0  0  0  0  0  0  0  0  0  0  0  0
  145.4525  136.9621  154.7842 H   0  0  0  0  0  0  0  0  0  0  0  0
  146.3624  139.4991  151.8308 H   0  0  0  0  0  0  0  0  0  0  0  0
  147.3261  138.0550  151.6118 H   0  0  0  0  0  0  0  0  0  0  0  0
  1  2  1  0  0  0  0
  1 27  1  0  0  0  0
  2  3  1  0  0  0  0
  2 28  1  0  0  0  0
  2 29  1  0  0  0  0
  3 25  1  0  0  0  0
  3  8  1  0  0  0  0
  3  4  1  0  0  0  0
  4  5  1  0  0  0  0
  4 30  1  0  0  0  0
  4 31  1  0  0  0  0
  5 26  1  0  0  0  0
  5  6  1  0  0  0  0
  5  7  1  0  0  0  0
  7  8  1  0  0  0  0
  7 32  1  0  0  0  0
  7 33  1  0  0  0  0
  8  9  1  0  0  0  0
  9 14  1  0  0  0  0
  9 10  2  0  0  0  0
 10 11  1  0  0  0  0
 11 12  2  0  0  0  0
 11 34  1  0  0  0  0
 12 13  1  0  0  0  0
 13 17  1  0  0  0  0
 13 14  2  0  0  0  0
 14 15  1  0  0  0  0
 15 16  2  0  0  0  0
 16 17  1  0  0  0  0
 16 35  1  0  0  0  0
 17 18  1  0  0  0  0
 18 19  1  0  0  0  0
 18 36  1  0  0  0  0
 18 37  1  0  0  0  0
 19 24  1  0  0  0  0
 19 20  1  0  0  0  0
 19 21  1  0  0  0  0
 20 38  1  0  0  0  0
 21 22  1  0  0  0  0
 21 39  1  0  0  0  0
 21 40  1  0  0  0  0
 22 23  1  0  0  0  0
 22 41  1  0  0  0  0
 22 42  1  0  0  0  0
 23 24  1  0  0  0  0
 24 43  1  0  0  0  0
 24 44  1  0  0  0  0
M  END
> <s_m_source_file>
AV-unprocessed.smi

> <i_m_source_file_index>
255

> <i_lp_mmshare_version>
43012

> <i_f3d_flags>
0

> <s_epik_input>
W09IXVtDSDJdW0NAQEhdMVtDSDJdW0NASF0oRilbQ0gyXU4xYyhuW2NIXW4yKWMoYzIzKW5bY0hdbjNbQ0gyXVtDQEBdNChbT0hdKVtDSDJdW0NIMl1PW0NIMl00

> <s_epik_cmdline>
J2VwaWtfcHl0aG9uJywgJy1waCcsICc3LjAnLCAnLXRuJywgJzgnLCAnLW1hJywgJzIwMCcsICctbWV0YWxfYmluZGluZycsICctaW1hZScsICc8aW5maWxlLm1hZT4nLCAnLW9tYWUnLCAnPG91dGZpbGUubWFlPic=

> <r_lp_tautomer_probability>
1

> <r_epik_Ionization_Penalty>
0.0058098

> <r_epik_Ionization_Penalty_Charging>
0

> <r_epik_Ionization_Penalty_Neutral>
0.0058098

> <r_epik_State_Penalty>
0.00411166

> <r_epik_Charging_Adjusted_Penalty>
0.00411166

> <i_epik_Tot_Q>
0

> <i_epik_Tot_abs_Q>
0

> <r_epik_Metal_State_Penalty>
-0

> <b_epik_Metal_Only>
0

> <s_lp_Force_Field>
OPLS_2005

> <r_lp_Energy>
51.0345

> <b_lp_Chiralities_Consistent>
1

> <s_lp_Variant>
AV-unprocessed.smi:255-2

> <Gold.Version>
5.8.1

> <Gold.Id.Protein>
6NUR|6NUR_protein|mol2

> <Gold.PLP.Fitness>
50.1013

> <Gold.PLP.PLP>
-44.5808

> <Gold.PLP.part.hbond>
-5.6301

> <Gold.PLP.part.metal>
0.0000

> <Gold.PLP.part.buried>
0.0500

> <Gold.PLP.part.nonpolar>
-40.1484

> <Gold.PLP.part.repulsive>
1.5131

> <Gold.PLP.ligand.clash>
0.0000

> <Gold.PLP.ligand.torsion>
0.6636

> <Gold.PLP.Chemscore.Hbond>
2.2590

> <Gold.PLP.Chemscore.CHOScore>
0.0000

> <Gold.PLP.Chemscore.Metal>
0.0000

> <Gold.Chemscore.Hbonds>
donor molecule, donor type, donor heavy atom, donor atom, acceptor molecule, acceptor atom, score
      L1  H    20    38       P1  7948  1.00
      P1  H  7989  7998       L1    12  0.70
      P1  H  7997  8008       L1    10  0.50

> <Gold.PLP.Chemscore.Internal.Correction>
0.0709

> <Gold.Rescore>
     Score         DG    S(hbond)    S(metal)    S(lipo)     H(rot)  DE(clash)    DE(int)     intcor
      9.70     -10.41       1.17        0.00      81.63       3.33       0.27       0.44       ----

> <Gold.Chemscore.Fitness>
9.6974

> <Gold.Chemscore.DG>
-10.4110

> <Gold.Chemscore.ZeroCoef>
-5.4800

> <Gold.Chemscore.Hbond>
1.1673

> <Gold.Chemscore.Metal>
0.0000

> <Gold.Chemscore.Lipo>
81.6265

> <Gold.Chemscore.Internal_Hbond>
0.0000

> <Gold.Chemscore.DEClash>
0.2738

> <Gold.Chemscore.DEInternal>
0.4399

> <Gold.Chemscore.Rot>
3.3273

> <Gold.Chemscore.Internal.Correction>
   9.000000E+99

> <Gold.Chemscore.Hbonds>
donor molecule, donor type, donor heavy atom, donor atom, acceptor molecule, acceptor atom, score
      L1  H    20    38       P1  7948  0.95
      P1  H  7989  7998       L1    12  0.05
      P1  H  7997  8008       L1    10  0.06

> <Gold.Chemscore.Hbond.Weighted>
-3.8987

> <Gold.Chemscore.Metal.Weighted>
-0.0000

> <Gold.Chemscore.Lipo.Weighted>
-9.5503

> <Gold.Chemscore.Internal_Hbond.Weighted>
0.0000

> <Gold.Chemscore.DEClash.Weighted>
0.2738

> <Gold.Chemscore.DEInternal.Weighted>
0.4399

> <Gold.Chemscore.Rot.Weighted>
8.5179

> <Gold.Chemscore.Internal.Correction.Weighted>
   9.000000E+99

> <Gold.Protein.RotatedTorsions>
[ 6907 6896 6895 6894 ] final   38.70 input  -60.11 | X-H torsion
[ 7974 7965 7964 7962 ] final    7.66 input  175.53 | X-H torsion
[ 8008 7997 7996 7995 ] final  -57.86 input   59.86 | X-H torsion
[ 10167 10162 10161 10158 ] final  130.10 input  -65.29 | X-H torsion
[ 10718 10713 10712 10709 ] final  -34.34 input   66.30 | X-H torsion
[ 10763 10752 10751 10750 ] final   33.52 input  -60.55 | X-H torsion
[ 11005 11000 10999 10996 ] final -174.60 input  -57.11 | X-H torsion

> <Gold.Protein.ActiveResidues>
 VAL166  LYS551  ARG553  GLY616  TRP617  ASP618  TYR619  PRO620  LYS621  CYS622 
 ASP623  PHE694  ASN695  SER759  ASP760  ASP761  ALA762  ILE779  LEU786  VAL792 
 PHE793  MET794  SER795  GLU796  ALA797  LYS798  CYS799  TRP800  GLU811  SER814 

> <Gold.Protein.RotatedAtoms>
  152.1599  134.8920  160.0542 H   0  0  0  0  0  0  0  0  0  0  0  0  # atno 6907 bound_to 6896
  151.9920  133.3789  159.4156 H   0  0  0  0  0  0  0  0  0  0  0  0  # atno 6908 bound_to 6896
  150.6886  134.3849  159.5094 H   0  0  0  0  0  0  0  0  0  0  0  0  # atno 6909 bound_to 6896
  146.2424  140.0049  142.8412 H   0  0  0  0  0  0  0  0  0  0  0  0  # atno 7974 bound_to 7965
  154.4285  140.1097  156.5865 H   0  0  0  0  0  0  0  0  0  0  0  0  # atno 8008 bound_to 7997
  155.6057  140.3494  155.4588 H   0  0  0  0  0  0  0  0  0  0  0  0  # atno 8009 bound_to 7997
  156.0139  140.1225  157.0416 H   0  0  0  0  0  0  0  0  0  0  0  0  # atno 8010 bound_to 7997
  139.5446  144.6762  151.4514 H   0  0  0  0  0  0  0  0  0  0  0  0  # atno 10167 bound_to 10162
  156.3517  130.4309  149.7698 H   0  0  0  0  0  0  0  0  0  0  0  0  # atno 10718 bound_to 10713
  153.0208  135.6385  154.1524 H   0  0  0  0  0  0  0  0  0  0  0  0  # atno 10763 bound_to 10752
  154.1259  135.2843  155.3199 H   0  0  0  0  0  0  0  0  0  0  0  0  # atno 10764 bound_to 10752
  154.6230  135.5518  153.7658 H   0  0  0  0  0  0  0  0  0  0  0  0  # atno 10765 bound_to 10752
  140.4727  134.6150  157.4888 H   0  0  0  0  0  0  0  0  0  0  0  0  # atno 11005 bound_to 11000
  145.1381  140.9556  143.4505 LP  0  0  0  0  0  0  0  0  0  0  0  0  # atno 17320 bound_to 7965
  145.0323  139.3331  143.6018 LP  0  0  0  0  0  0  0  0  0  0  0  0  # atno 17321 bound_to 7965
  140.6689  143.8337  150.6975 LP  0  0  0  0  0  0  0  0  0  0  0  0  # atno 17342 bound_to 10162
  140.1755  143.4159  152.1971 LP  0  0  0  0  0  0  0  0  0  0  0  0  # atno 17343 bound_to 10162
  156.4896  130.8079  151.3089 LP  0  0  0  0  0  0  0  0  0  0  0  0  # atno 17370 bound_to 10713
  157.7462  130.9979  150.2835 LP  0  0  0  0  0  0  0  0  0  0  0  0  # atno 17371 bound_to 10713
  139.9875  134.7038  155.9748 LP  0  0  0  0  0  0  0  0  0  0  0  0  # atno 17394 bound_to 11000
  141.1569  133.6542  156.4191 LP  0  0  0  0  0  0  0  0  0  0  0  0  # atno 17395 bound_to 11000

$$$$
