AV-unprocessed.smi:1056|AV-procd|sdf|4634|dock10
  -GOLD-   22720 3143D 1   1.00000     0.00000
 Structure written by MMmdl.
 46 48  0  0  0  0  0  0  0  0  3 V2000
  152.5089  143.2100  160.7865 C   0  0  0  0  0  0  0  0  0  0  0  0
  152.1291  142.3646  159.5826 C   0  0  0  0  0  0  0  0  0  0  0  0
  151.2311  142.9055  158.6354 C   0  0  0  0  0  0  0  0  0  0  0  0
  150.9079  142.1114  157.5415 C   0  0  0  0  0  0  0  0  0  0  0  0
  150.0689  142.3551  156.4527 N   0  3  0  0  0  0  0  0  0  0  0  0
  150.0709  141.2737  155.6256 C   0  0  0  0  0  0  0  0  0  0  0  0
  150.8977  140.3400  156.1709 N   0  0  0  0  0  0  0  0  0  0  0  0
  151.2612  139.0040  155.6749 C   0  0  0  0  0  0  0  0  0  0  0  0
  150.3312  138.5039  154.5492 C   0  0  2  0  0  0  0  0  0  0  0  0
  150.5145  139.2967  153.3937 O   0  0  0  0  0  0  0  0  0  0  0  0
  148.8389  138.5790  154.9325 C   0  0  0  0  0  0  0  0  0  0  0  0
  147.9329  138.2936  153.7914 N   0  3  2  0  0  0  0  0  0  0  0  0
  147.5378  139.5007  153.0271 C   0  0  0  0  0  0  0  0  0  0  0  0
  146.7788  139.0970  151.7502 C   0  0  0  0  0  0  0  0  0  0  0  0
  145.8041  138.0322  151.9755 N   0  0  0  0  0  0  0  0  0  0  0  0
  145.7409  137.2528  153.0673 C   0  0  0  0  0  0  0  0  0  0  0  0
  144.8983  136.3669  153.1819 O   0  0  0  0  0  0  0  0  0  0  0  0
  146.7536  137.4880  154.1984 C   0  0  0  0  0  0  0  0  0  0  0  0
  151.4428  140.8194  157.3696 C   0  0  0  0  0  0  0  0  0  0  0  0
  152.3242  140.2692  158.2982 C   0  0  0  0  0  0  0  0  0  0  0  0
  152.6674  141.0623  159.4167 C   0  0  0  0  0  0  0  0  0  0  0  0
  153.6307  140.4898  160.4427 C   0  0  0  0  0  0  0  0  0  0  0  0
  152.0182  144.1834  160.7615 H   0  0  0  0  0  0  0  0  0  0  0  0
  153.5853  143.3818  160.8098 H   0  0  0  0  0  0  0  0  0  0  0  0
  152.2162  142.7136  161.7119 H   0  0  0  0  0  0  0  0  0  0  0  0
  150.8161  143.8957  158.7560 H   0  0  0  0  0  0  0  0  0  0  0  0
  149.5184  141.1778  154.7020 H   0  0  0  0  0  0  0  0  0  0  0  0
  152.2867  139.0714  155.3098 H   0  0  0  0  0  0  0  0  0  0  0  0
  151.2841  138.3028  156.5093 H   0  0  0  0  0  0  0  0  0  0  0  0
  150.6034  137.4838  154.2794 H   0  0  0  0  0  0  0  0  0  0  0  0
  149.6658  139.5205  153.0423 H   0  0  0  0  0  0  0  0  0  0  0  0
  148.6540  137.8574  155.7301 H   0  0  0  0  0  0  0  0  0  0  0  0
  148.5941  139.5584  155.3474 H   0  0  0  0  0  0  0  0  0  0  0  0
  146.9055  140.1299  153.6556 H   0  0  0  0  0  0  0  0  0  0  0  0
  148.4067  140.0989  152.7553 H   0  0  0  0  0  0  0  0  0  0  0  0
  146.2756  139.9622  151.3179 H   0  0  0  0  0  0  0  0  0  0  0  0
  147.4869  138.7401  151.0016 H   0  0  0  0  0  0  0  0  0  0  0  0
  145.1275  137.8700  151.2425 H   0  0  0  0  0  0  0  0  0  0  0  0
  147.0896  136.5216  154.5765 H   0  0  0  0  0  0  0  0  0  0  0  0
  146.2355  137.9909  155.0165 H   0  0  0  0  0  0  0  0  0  0  0  0
  152.7338  139.2771  158.1787 H   0  0  0  0  0  0  0  0  0  0  0  0
  153.9390  139.4772  160.1808 H   0  0  0  0  0  0  0  0  0  0  0  0
  153.1643  140.4510  161.4275 H   0  0  0  0  0  0  0  0  0  0  0  0
  154.5286  141.1046  160.5085 H   0  0  0  0  0  0  0  0  0  0  0  0
  148.4532  137.7090  153.1531 H   0  0  0  0  0  0  0  0  0  0  0  0
  149.5365  143.1991  156.2827 H   0  0  0  0  0  0  0  0  0  0  0  0
  1  2  1  0  0  0  0
  1 23  1  0  0  0  0
  1 24  1  0  0  0  0
  1 25  1  0  0  0  0
  2 21  1  0  0  0  0
  2  3  2  0  0  0  0
  3  4  1  0  0  0  0
  3 26  1  0  0  0  0
  4 19  2  0  0  0  0
  4  5  1  0  0  0  0
  5  6  2  0  0  0  0
  5 46  1  0  0  0  0
  6  7  1  0  0  0  0
  6 27  1  0  0  0  0
  7  8  1  0  0  0  0
  7 19  1  0  0  0  0
  8  9  1  0  0  0  0
  8 28  1  0  0  0  0
  8 29  1  0  0  0  0
  9 10  1  0  0  0  0
  9 11  1  0  0  0  0
  9 30  1  0  0  0  0
 10 31  1  0  0  0  0
 11 12  1  0  0  0  0
 11 32  1  0  0  0  0
 11 33  1  0  0  0  0
 12 18  1  0  0  0  0
 12 13  1  0  0  0  0
 12 45  1  0  0  0  0
 13 14  1  0  0  0  0
 13 34  1  0  0  0  0
 13 35  1  0  0  0  0
 14 15  1  0  0  0  0
 14 36  1  0  0  0  0
 14 37  1  0  0  0  0
 15 16  1  0  0  0  0
 15 38  1  0  0  0  0
 16 17  2  0  0  0  0
 16 18  1  0  0  0  0
 18 39  1  0  0  0  0
 18 40  1  0  0  0  0
 19 20  1  0  0  0  0
 20 21  2  0  0  0  0
 20 41  1  0  0  0  0
 21 22  1  0  0  0  0
 22 42  1  0  0  0  0
 22 43  1  0  0  0  0
 22 44  1  0  0  0  0
M  CHG  1   5   1
M  CHG  1  12   1
M  END
> <s_m_source_file>
AV-unprocessed.smi

> <i_m_source_file_index>
1056

> <i_lp_mmshare_version>
43012

> <i_f3d_flags>
0

> <s_epik_input>
W0NIM11jKFtjSF0xKWMoW0NIM10pW2NIXWMoYzEyKW4oW2NIXW4yKVtDSDJdW0NASF0oW09IXSlbQ0gyXU4zW0NIMl1bQ0gyXVtOSF1DKD1PKVtDSDJdMw==

> <s_epik_cmdline>
J2VwaWtfcHl0aG9uJywgJy1waCcsICc3LjAnLCAnLXRuJywgJzgnLCAnLW1hJywgJzIwMCcsICctbWV0YWxfYmluZGluZycsICctaW1hZScsICc8aW5maWxlLm1hZT4nLCAnLW9tYWUnLCAnPG91dGZpbGUubWFlPic=

> <r_epik_Ionization_Penalty>
1.262

> <r_epik_Ionization_Penalty_Charging>
1.26188

> <r_epik_Ionization_Penalty_Neutral>
0.000125436

> <r_epik_State_Penalty>
1.3387

> <r_epik_Charging_Adjusted_Penalty>
2.60058

> <i_epik_Tot_Q>
2

> <i_epik_Tot_abs_Q>
2

> <r_epik_Metal_State_Penalty>
1.58938

> <b_epik_Metal_Only>
0

> <s_lp_Force_Field>
OPLS_2005

> <r_lp_Energy>
36.1571

> <b_lp_Chiralities_Consistent>
1

> <s_lp_Variant>
AV-unprocessed.smi:1056-5

> <Gold.Version>
5.8.1

> <Gold.Id.Protein>
6NUR|6NUR_protein|mol2

> <Gold.PLP.Fitness>
55.8228

> <Gold.PLP.PLP>
-38.8689

> <Gold.PLP.part.hbond>
-5.3217

> <Gold.PLP.part.metal>
0.0000

> <Gold.PLP.part.buried>
3.2312

> <Gold.PLP.part.nonpolar>
-36.3957

> <Gold.PLP.part.repulsive>
0.2459

> <Gold.PLP.ligand.clash>
0.0000

> <Gold.PLP.ligand.torsion>
0.7113

> <Gold.PLP.Chemscore.Hbond>
6.1185

> <Gold.PLP.Chemscore.CHOScore>
0.0000

> <Gold.PLP.Chemscore.Metal>
0.0000

> <Gold.Chemscore.Hbonds>
donor molecule, donor type, donor heavy atom, donor atom, acceptor molecule, acceptor atom, score
      L1  H     5    46       P1  8028  2.00
      L1  H    10    31       P1  7957  0.32
      L1  H    12    45       P1  7948  2.00
      L1  H    15    38       P1 10171  0.98
      P1  H  7989  7998       L1    10  0.78

> <Gold.PLP.Chemscore.Internal.Correction>
0.0210

> <Gold.Rescore>
     Score         DG    S(hbond)    S(metal)    S(lipo)     H(rot)  DE(clash)    DE(int)     intcor
     20.63     -24.56       3.81        0.00     107.51       2.44       1.97       1.96       ----

> <Gold.Chemscore.Fitness>
20.6282

> <Gold.Chemscore.DG>
-24.5577

> <Gold.Chemscore.ZeroCoef>
-5.4800

> <Gold.Chemscore.Hbond>
3.8129

> <Gold.Chemscore.Metal>
0.0000

> <Gold.Chemscore.Lipo>
107.5052

> <Gold.Chemscore.Internal_Hbond>
0.0000

> <Gold.Chemscore.DEClash>
1.9708

> <Gold.Chemscore.DEInternal>
1.9588

> <Gold.Chemscore.Rot>
2.4357

> <Gold.Chemscore.Internal.Correction>
   9.000000E+99

> <Gold.Chemscore.Hbonds>
donor molecule, donor type, donor heavy atom, donor atom, acceptor molecule, acceptor atom, score
      L1  H     5    46       P1  8028  1.00
      L1  H    10    31       P1  7957  0.32
      L1  H    12    45       P1  7948  0.95
      L1  H    15    38       P1 10171  0.87
      P1  H  7989  7998       L1    10  0.57

> <Gold.Chemscore.Hbond.Weighted>
-12.7350

> <Gold.Chemscore.Metal.Weighted>
-0.0000

> <Gold.Chemscore.Lipo.Weighted>
-12.5781

> <Gold.Chemscore.Internal_Hbond.Weighted>
0.0000

> <Gold.Chemscore.DEClash.Weighted>
1.9708

> <Gold.Chemscore.DEInternal.Weighted>
1.9588

> <Gold.Chemscore.Rot.Weighted>
6.2353

> <Gold.Chemscore.Internal.Correction.Weighted>
   9.000000E+99

> <Gold.Protein.RotatedTorsions>
[ 6907 6896 6895 6894 ] final  144.20 input  -60.11 | X-H torsion
[ 7974 7965 7964 7962 ] final  -71.12 input  175.53 | X-H torsion
[ 8008 7997 7996 7995 ] final   80.36 input   59.86 | X-H torsion
[ 10167 10162 10161 10158 ] final  -28.04 input  -65.29 | X-H torsion
[ 10718 10713 10712 10709 ] final -160.70 input   66.30 | X-H torsion
[ 10763 10752 10751 10750 ] final   23.43 input  -60.55 | X-H torsion
[ 11005 11000 10999 10996 ] final  -14.93 input  -57.11 | X-H torsion

> <Gold.Protein.ActiveResidues>
 VAL166  LYS551  ARG553  GLY616  TRP617  ASP618  TYR619  PRO620  LYS621  CYS622 
 ASP623  PHE694  ASN695  SER759  ASP760  ASP761  ALA762  ILE779  LEU786  VAL792 
 PHE793  MET794  SER795  GLU796  ALA797  LYS798  CYS799  TRP800  GLU811  SER814 

> <Gold.Protein.RotatedAtoms>
  152.1967  133.4812  159.5036 H   0  0  0  0  0  0  0  0  0  0  0  0  # atno 6907 bound_to 6896
  150.6961  134.1643  159.4197 H   0  0  0  0  0  0  0  0  0  0  0  0  # atno 6908 bound_to 6896
  151.9559  135.0146  160.0595 H   0  0  0  0  0  0  0  0  0  0  0  0  # atno 6909 bound_to 6896
  145.6822  140.9184  143.0826 H   0  0  0  0  0  0  0  0  0  0  0  0  # atno 7974 bound_to 7965
  155.8825  140.3443  155.5898 H   0  0  0  0  0  0  0  0  0  0  0  0  # atno 8008 bound_to 7997
  155.7704  140.0844  157.2130 H   0  0  0  0  0  0  0  0  0  0  0  0  # atno 8009 bound_to 7997
  154.4026  140.1519  156.2922 H   0  0  0  0  0  0  0  0  0  0  0  0  # atno 8010 bound_to 7997
  140.7273  143.4043  151.1211 H   0  0  0  0  0  0  0  0  0  0  0  0  # atno 10167 bound_to 10162
  156.5858  130.8749  151.2877 H   0  0  0  0  0  0  0  0  0  0  0  0  # atno 10718 bound_to 10713
  153.0839  135.6627  153.9989 H   0  0  0  0  0  0  0  0  0  0  0  0  # atno 10763 bound_to 10752
  153.9603  135.2975  155.3435 H   0  0  0  0  0  0  0  0  0  0  0  0  # atno 10764 bound_to 10752
  154.7244  135.5151  153.8934 H   0  0  0  0  0  0  0  0  0  0  0  0  # atno 10765 bound_to 10752
  140.7915  133.8284  155.9384 H   0  0  0  0  0  0  0  0  0  0  0  0  # atno 11005 bound_to 11000
  144.7022  139.8711  143.7440 LP  0  0  0  0  0  0  0  0  0  0  0  0  # atno 17320 bound_to 7965
  146.0954  139.3946  143.0380 LP  0  0  0  0  0  0  0  0  0  0  0  0  # atno 17321 bound_to 7965
  139.7668  143.8554  152.3112 LP  0  0  0  0  0  0  0  0  0  0  0  0  # atno 17342 bound_to 10162
  139.8458  144.7188  150.9274 LP  0  0  0  0  0  0  0  0  0  0  0  0  # atno 17343 bound_to 10162
  157.7315  130.9702  150.1886 LP  0  0  0  0  0  0  0  0  0  0  0  0  # atno 17370 bound_to 10713
  156.2592  130.3709  149.8149 LP  0  0  0  0  0  0  0  0  0  0  0  0  # atno 17371 bound_to 10713
  140.9385  134.1931  157.4814 LP  0  0  0  0  0  0  0  0  0  0  0  0  # atno 17394 bound_to 11000
  139.8731  134.9862  156.5314 LP  0  0  0  0  0  0  0  0  0  0  0  0  # atno 17395 bound_to 11000

$$$$
