AV-unprocessed.smi:559|AV-procd|sdf|2925|dock4
  -GOLD-   2262023413D 1   1.00000     0.00000
 Structure written by MMmdl.
 41 42  0  0  0  0  0  0  0  0  1 V2000
  148.7808  137.8407  158.6827 C   0  0  0  0  0  0  0  0  0  0  0  0
  148.2722  136.8853  159.7240 C   0  0  0  0  0  0  0  0  0  0  0  0
  148.2996  137.2380  160.9979 N   0  0  0  0  0  0  0  0  0  0  0  0
  147.7860  136.1828  161.6604 N   0  0  0  0  0  0  0  0  0  0  0  0
  147.6773  136.2579  163.1049 C   0  0  0  0  0  0  0  0  0  0  0  0
  147.4296  135.1595  160.8008 C   0  0  0  0  0  0  0  0  0  0  0  0
  146.8355  133.8747  161.2830 C   0  0  0  0  0  0  0  0  0  0  0  0
  147.7318  135.5802  159.5322 C   0  0  0  0  0  0  0  0  0  0  0  0
  147.5468  134.8539  158.2229 C   0  0  0  0  0  0  0  0  0  0  0  0
  148.9029  134.6222  157.5546 C   0  0  0  0  0  0  0  0  0  0  0  0
  149.7122  133.8447  158.0590 O   0  0  0  0  0  0  0  0  0  0  0  0
  149.1404  135.3104  156.4266 N   0  0  0  0  0  0  0  0  0  0  0  0
  150.3563  135.2357  155.6234 C   0  0  0  0  0  0  0  0  0  0  0  0
  151.0182  136.6155  155.4425 C   0  0  1  0  0  0  0  0  0  0  0  0
  150.1143  137.6587  154.7508 C   0  0  0  0  0  0  0  0  0  0  0  0
  150.7581  139.0414  154.8939 C   0  0  0  0  0  0  0  0  0  0  0  0
  151.6110  139.0251  156.5138 S   0  0  0  0  0  0  0  0  0  0  0  0
  153.0214  139.3917  156.3154 O   0  0  0  0  0  0  0  0  0  0  0  0
  150.7822  139.7159  157.5133 O   0  0  0  0  0  0  0  0  0  0  0  0
  151.4796  137.2163  156.7796 C   0  0  0  0  0  0  0  0  0  0  0  0
  149.4512  137.3380  157.9858 H   0  0  0  0  0  0  0  0  0  0  0  0
  149.3317  138.6698  159.1282 H   0  0  0  0  0  0  0  0  0  0  0  0
  147.9569  138.2609  158.1059 H   0  0  0  0  0  0  0  0  0  0  0  0
  147.3930  135.2931  163.5238 H   0  0  0  0  0  0  0  0  0  0  0  0
  146.9231  136.9967  163.3769 H   0  0  0  0  0  0  0  0  0  0  0  0
  148.6359  136.5538  163.5326 H   0  0  0  0  0  0  0  0  0  0  0  0
  146.6377  133.1927  160.4567 H   0  0  0  0  0  0  0  0  0  0  0  0
  145.8929  134.0537  161.8005 H   0  0  0  0  0  0  0  0  0  0  0  0
  147.5120  133.3699  161.9730 H   0  0  0  0  0  0  0  0  0  0  0  0
  147.0504  133.8929  158.3594 H   0  0  0  0  0  0  0  0  0  0  0  0
  146.9099  135.4239  157.5454 H   0  0  0  0  0  0  0  0  0  0  0  0
  148.4127  135.9244  156.0906 H   0  0  0  0  0  0  0  0  0  0  0  0
  151.0646  134.5234  156.0503 H   0  0  0  0  0  0  0  0  0  0  0  0
  150.0770  134.8361  154.6481 H   0  0  0  0  0  0  0  0  0  0  0  0
  151.9068  136.4932  154.8210 H   0  0  0  0  0  0  0  0  0  0  0  0
  149.9386  137.4169  153.7024 H   0  0  0  0  0  0  0  0  0  0  0  0
  149.1406  137.6700  155.2423 H   0  0  0  0  0  0  0  0  0  0  0  0
  151.5082  139.2014  154.1192 H   0  0  0  0  0  0  0  0  0  0  0  0
  150.0346  139.8558  154.8546 H   0  0  0  0  0  0  0  0  0  0  0  0
  150.7383  137.0501  157.5620 H   0  0  0  0  0  0  0  0  0  0  0  0
  152.4353  136.8160  157.1182 H   0  0  0  0  0  0  0  0  0  0  0  0
  1  2  1  0  0  0  0
  1 21  1  0  0  0  0
  1 22  1  0  0  0  0
  1 23  1  0  0  0  0
  2  8  1  0  0  0  0
  2  3  2  0  0  0  0
  3  4  1  0  0  0  0
  4  5  1  0  0  0  0
  4  6  1  0  0  0  0
  5 24  1  0  0  0  0
  5 25  1  0  0  0  0
  5 26  1  0  0  0  0
  6  7  1  0  0  0  0
  6  8  2  0  0  0  0
  7 27  1  0  0  0  0
  7 28  1  0  0  0  0
  7 29  1  0  0  0  0
  8  9  1  0  0  0  0
  9 10  1  0  0  0  0
  9 30  1  0  0  0  0
  9 31  1  0  0  0  0
 10 11  2  0  0  0  0
 10 12  1  0  0  0  0
 12 13  1  0  0  0  0
 12 32  1  0  0  0  0
 13 14  1  0  0  0  0
 13 33  1  0  0  0  0
 13 34  1  0  0  0  0
 14 20  1  0  0  0  0
 14 15  1  0  0  0  0
 14 35  1  0  0  0  0
 15 16  1  0  0  0  0
 15 36  1  0  0  0  0
 15 37  1  0  0  0  0
 16 17  1  0  0  0  0
 16 38  1  0  0  0  0
 16 39  1  0  0  0  0
 17 18  2  0  0  0  0
 17 19  2  0  0  0  0
 17 20  1  0  0  0  0
 20 40  1  0  0  0  0
 20 41  1  0  0  0  0
M  END
> <s_m_source_file>
AV-unprocessed.smi

> <i_m_source_file_index>
559

> <i_lp_mmshare_version>
43012

> <i_f3d_flags>
0

> <s_epik_input>
W0NIM11jMW5uKFtDSDNdKWMoW0NIM10pYzFbQ0gyXUMoPU8pW05IXVtDSDJdW0NAQEhdKFtDSDJdMilbQ0gyXVtDSDJdUzIoPU8pPU8=

> <s_epik_cmdline>
J2VwaWtfcHl0aG9uJywgJy1waCcsICc3LjAnLCAnLXRuJywgJzgnLCAnLW1hJywgJzIwMCcsICctbWV0YWxfYmluZGluZycsICctaW1hZScsICc8aW5maWxlLm1hZT4nLCAnLW9tYWUnLCAnPG91dGZpbGUubWFlPic=

> <r_lp_tautomer_probability>
1

> <r_epik_Ionization_Penalty>
0.00301269

> <r_epik_Ionization_Penalty_Charging>
0

> <r_epik_Ionization_Penalty_Neutral>
0.00301269

> <r_epik_State_Penalty>
0.00211587

> <r_epik_Charging_Adjusted_Penalty>
0.00211587

> <i_epik_Tot_Q>
0

> <i_epik_Tot_abs_Q>
0

> <r_epik_Metal_State_Penalty>
-0

> <b_epik_Metal_Only>
0

> <s_lp_Force_Field>
OPLS_2005

> <r_lp_Energy>
-1.18315

> <b_lp_Chiralities_Consistent>
1

> <s_lp_Variant>
AV-unprocessed.smi:559-2

> <Gold.Version>
5.8.1

> <Gold.Id.Protein>
6NUR|6NUR_protein|mol2

> <Gold.PLP.Fitness>
40.1052

> <Gold.PLP.PLP>
-30.0214

> <Gold.PLP.part.hbond>
-3.9371

> <Gold.PLP.part.metal>
0.0000

> <Gold.PLP.part.buried>
-4.2562

> <Gold.PLP.part.nonpolar>
-22.9101

> <Gold.PLP.part.repulsive>
0.0305

> <Gold.PLP.ligand.clash>
0.0000

> <Gold.PLP.ligand.torsion>
0.0822

> <Gold.PLP.Chemscore.Hbond>
3.4145

> <Gold.PLP.Chemscore.CHOScore>
0.0000

> <Gold.PLP.Chemscore.Metal>
0.0000

> <Gold.Chemscore.Hbonds>
donor molecule, donor type, donor heavy atom, donor atom, acceptor molecule, acceptor atom, score
      P1  H  6896  6909       L1    11  0.99
      P1  H  6931  6943       L1     3  0.94
      P1  H  6934  6947       L1     3  0.48
      P1  H  7997  8010       L1    18  1.00

> <Gold.PLP.Chemscore.Internal.Correction>
0.0047

> <Gold.Rescore>
     Score         DG    S(hbond)    S(metal)    S(lipo)     H(rot)  DE(clash)    DE(int)     intcor
     18.44     -18.57       3.05        0.00      60.78       1.64       0.00       0.13       ----

> <Gold.Chemscore.Fitness>
18.4407

> <Gold.Chemscore.DG>
-18.5726

> <Gold.Chemscore.ZeroCoef>
-5.4800

> <Gold.Chemscore.Hbond>
3.0475

> <Gold.Chemscore.Metal>
0.0000

> <Gold.Chemscore.Lipo>
60.7810

> <Gold.Chemscore.Internal_Hbond>
0.0000

> <Gold.Chemscore.DEClash>
0.0000

> <Gold.Chemscore.DEInternal>
0.1319

> <Gold.Chemscore.Rot>
1.6396

> <Gold.Chemscore.Internal.Correction>
   9.000000E+99

> <Gold.Chemscore.Hbonds>
donor molecule, donor type, donor heavy atom, donor atom, acceptor molecule, acceptor atom, score
      P1  H  6896  6909       L1    11  0.94
      P1  H  6931  6943       L1     3  0.79
      P1  H  6934  6947       L1     3  0.14
      P1  H  7997  8010       L1    18  0.94

> <Gold.Chemscore.Hbond.Weighted>
-10.1786

> <Gold.Chemscore.Metal.Weighted>
-0.0000

> <Gold.Chemscore.Lipo.Weighted>
-7.1114

> <Gold.Chemscore.Internal_Hbond.Weighted>
0.0000

> <Gold.Chemscore.DEClash.Weighted>
0.0000

> <Gold.Chemscore.DEInternal.Weighted>
0.1319

> <Gold.Chemscore.Rot.Weighted>
4.1974

> <Gold.Chemscore.Internal.Correction.Weighted>
   9.000000E+99

> <Gold.Protein.RotatedTorsions>
[ 6907 6896 6895 6894 ] final   -9.68 input  -60.11 | X-H torsion
[ 7974 7965 7964 7962 ] final  155.44 input  175.53 | X-H torsion
[ 8008 7997 7996 7995 ] final   58.29 input   59.86 | X-H torsion
[ 10167 10162 10161 10158 ] final   25.44 input  -65.29 | X-H torsion
[ 10718 10713 10712 10709 ] final -169.66 input   66.30 | X-H torsion
[ 10763 10752 10751 10750 ] final -140.11 input  -60.55 | X-H torsion
[ 11005 11000 10999 10996 ] final  -11.38 input  -57.11 | X-H torsion

> <Gold.Protein.ActiveResidues>
 VAL166  LYS551  ARG553  GLY616  TRP617  ASP618  TYR619  PRO620  LYS621  CYS622 
 ASP623  PHE694  ASN695  SER759  ASP760  ASP761  ALA762  ILE779  LEU786  VAL792 
 PHE793  MET794  SER795  GLU796  ALA797  LYS798  CYS799  TRP800  GLU811  SER814 

> <Gold.Protein.RotatedAtoms>
  151.4139  135.0989  159.9593 H   0  0  0  0  0  0  0  0  0  0  0  0  # atno 6907 bound_to 6896
  152.5011  133.8771  159.7338 H   0  0  0  0  0  0  0  0  0  0  0  0  # atno 6908 bound_to 6896
  150.9272  133.6753  159.2847 H   0  0  0  0  0  0  0  0  0  0  0  0  # atno 6909 bound_to 6896
  144.8024  139.7069  143.6176 H   0  0  0  0  0  0  0  0  0  0  0  0  # atno 7974 bound_to 7965
  155.5477  140.3485  155.4461 H   0  0  0  0  0  0  0  0  0  0  0  0  # atno 8008 bound_to 7997
  156.0606  140.1339  156.9972 H   0  0  0  0  0  0  0  0  0  0  0  0  # atno 8009 bound_to 7997
  154.4478  140.0986  156.6496 H   0  0  0  0  0  0  0  0  0  0  0  0  # atno 8010 bound_to 7997
  140.5106  144.0166  150.6371 H   0  0  0  0  0  0  0  0  0  0  0  0  # atno 10167 bound_to 10162
  156.7148  130.9247  151.3092 H   0  0  0  0  0  0  0  0  0  0  0  0  # atno 10718 bound_to 10713
  154.8589  135.3563  154.5655 H   0  0  0  0  0  0  0  0  0  0  0  0  # atno 10763 bound_to 10752
  153.6269  135.7004  153.5294 H   0  0  0  0  0  0  0  0  0  0  0  0  # atno 10764 bound_to 10752
  153.3082  135.4186  155.1272 H   0  0  0  0  0  0  0  0  0  0  0  0  # atno 10765 bound_to 10752
  140.7546  133.8564  155.9073 H   0  0  0  0  0  0  0  0  0  0  0  0  # atno 11005 bound_to 11000
  146.2309  139.5811  142.9556 LP  0  0  0  0  0  0  0  0  0  0  0  0  # atno 17320 bound_to 7965
  145.5519  141.0412  143.2273 LP  0  0  0  0  0  0  0  0  0  0  0  0  # atno 17321 bound_to 7965
  140.3488  143.2975  152.0509 LP  0  0  0  0  0  0  0  0  0  0  0  0  # atno 17342 bound_to 10162
  139.4895  144.6389  151.6918 LP  0  0  0  0  0  0  0  0  0  0  0  0  # atno 17343 bound_to 10162
  157.6922  130.9245  150.0544 LP  0  0  0  0  0  0  0  0  0  0  0  0  # atno 17370 bound_to 10713
  156.1636  130.3644  149.9264 LP  0  0  0  0  0  0  0  0  0  0  0  0  # atno 17371 bound_to 10713
  140.9719  134.1520  157.4569 LP  0  0  0  0  0  0  0  0  0  0  0  0  # atno 17394 bound_to 11000
  139.8781  134.9981  156.5884 LP  0  0  0  0  0  0  0  0  0  0  0  0  # atno 17395 bound_to 11000

$$$$
