AV-unprocessed.smi:33|AV-procd|sdf|199|dock6
  -GOLD-   2262015473D 1   1.00000     0.00000
 Structure written by MMmdl.
 67 72  0  0  0  0  0  0  0  0  1 V2000
  153.7093  138.9769  158.2625 O   0  0  0  0  0  0  0  0  0  0  0  0
  153.0364  140.0091  158.2973 C   0  0  0  0  0  0  0  0  0  0  0  0
  152.1628  140.3619  157.3363 O   0  0  0  0  0  0  0  0  0  0  0  0
  152.1778  139.7028  156.0811 C   0  0  0  0  0  0  0  0  0  0  0  0
  150.9764  138.7547  156.0186 C   0  0  2  0  0  0  0  0  0  0  0  0
  151.2196  137.6807  155.1202 O   0  0  0  0  0  0  0  0  0  0  0  0
  150.0027  137.0773  154.7978 C   0  0  1  0  0  0  0  0  0  0  0  0
  149.8359  135.8597  155.6585 N   0  0  0  0  0  0  0  0  0  0  0  0
  149.9347  135.7312  157.0293 C   0  0  0  0  0  0  0  0  0  0  0  0
  149.7409  134.5257  157.4926 N   0  0  0  0  0  0  0  0  0  0  0  0
  149.5016  133.7641  156.3565 C   0  0  0  0  0  0  0  0  0  0  0  0
  149.2184  132.3914  156.1256 C   0  0  0  0  0  0  0  0  0  0  0  0
  149.1140  131.4856  157.1258 N   0  0  0  0  0  0  0  0  0  0  0  0
  148.2848  131.8595  158.2808 C   0  0  0  0  0  0  0  0  0  0  0  0
  147.3778  132.6818  158.1378 O   0  0  0  0  0  0  0  0  0  0  0  0
  148.5071  131.2136  159.6188 C   0  0  0  0  0  0  0  0  0  0  0  0
  147.4847  131.2330  160.5926 C   0  0  0  0  0  0  0  0  0  0  0  0
  147.6943  130.6421  161.8539 C   0  0  0  0  0  0  0  0  0  0  0  0
  148.9329  130.0446  162.1553 C   0  0  0  0  0  0  0  0  0  0  0  0
  149.9662  130.0477  161.1993 C   0  0  0  0  0  0  0  0  0  0  0  0
  149.7577  130.6382  159.9380 C   0  0  0  0  0  0  0  0  0  0  0  0
  149.8393  130.2164  156.9671 C   0  0  0  0  0  0  0  0  0  0  0  0
  149.4502  129.2146  157.5706 O   0  0  0  0  0  0  0  0  0  0  0  0
  151.0129  130.1206  156.0340 C   0  0  0  0  0  0  0  0  0  0  0  0
  150.9912  129.1989  154.9643 C   0  0  0  0  0  0  0  0  0  0  0  0
  152.0930  129.0962  154.0933 C   0  0  0  0  0  0  0  0  0  0  0  0
  153.2306  129.8997  154.2980 C   0  0  0  0  0  0  0  0  0  0  0  0
  153.2702  130.8002  155.3795 C   0  0  0  0  0  0  0  0  0  0  0  0
  152.1682  130.9052  156.2497 C   0  0  0  0  0  0  0  0  0  0  0  0
  149.0452  131.9835  154.8413 N   0  0  0  0  0  0  0  0  0  0  0  0
  149.1413  132.8689  153.8445 C   0  0  0  0  0  0  0  0  0  0  0  0
  149.3946  134.1786  153.9112 N   0  0  0  0  0  0  0  0  0  0  0  0
  149.5706  134.5878  155.2010 C   0  0  0  0  0  0  0  0  0  0  0  0
  148.8972  138.1372  155.0406 C   0  0  1  0  0  0  0  0  0  0  0  0
  147.9700  137.8095  156.0614 O   0  0  0  0  0  0  0  0  0  0  0  0
  149.7006  139.3661  155.4441 C   0  0  2  0  0  0  0  0  0  0  0  0
  149.9773  140.0931  154.3594 F   0  0  0  0  0  0  0  0  0  0  0  0
  153.1035  141.0001  159.4100 C   0  0  0  0  0  0  0  0  0  0  0  0
  152.4229  142.2333  159.2821 C   0  0  0  0  0  0  0  0  0  0  0  0
  152.4687  143.1886  160.3160 C   0  0  0  0  0  0  0  0  0  0  0  0
  153.1962  142.9226  161.4906 C   0  0  0  0  0  0  0  0  0  0  0  0
  153.8783  141.6999  161.6298 C   0  0  0  0  0  0  0  0  0  0  0  0
  153.8333  140.7429  160.5972 C   0  0  0  0  0  0  0  0  0  0  0  0
  152.1069  140.4471  155.2868 H   0  0  0  0  0  0  0  0  0  0  0  0
  153.1109  139.1547  155.9429 H   0  0  0  0  0  0  0  0  0  0  0  0
  150.7613  138.3626  157.0140 H   0  0  0  0  0  0  0  0  0  0  0  0
  150.0271  136.6898  153.7787 H   0  0  0  0  0  0  0  0  0  0  0  0
  150.1574  136.5591  157.6865 H   0  0  0  0  0  0  0  0  0  0  0  0
  146.5305  131.6892  160.3723 H   0  0  0  0  0  0  0  0  0  0  0  0
  146.9047  130.6484  162.5906 H   0  0  0  0  0  0  0  0  0  0  0  0
  149.0929  129.5908  163.1222 H   0  0  0  0  0  0  0  0  0  0  0  0
  150.9203  129.5989  161.4337 H   0  0  0  0  0  0  0  0  0  0  0  0
  150.5600  130.6404  159.2141 H   0  0  0  0  0  0  0  0  0  0  0  0
  150.1228  128.5778  154.7974 H   0  0  0  0  0  0  0  0  0  0  0  0
  152.0647  128.4001  153.2680 H   0  0  0  0  0  0  0  0  0  0  0  0
  154.0752  129.8208  153.6293 H   0  0  0  0  0  0  0  0  0  0  0  0
  154.1462  131.4102  155.5430 H   0  0  0  0  0  0  0  0  0  0  0  0
  152.2114  131.5969  157.0789 H   0  0  0  0  0  0  0  0  0  0  0  0
  148.9923  132.4715  152.8514 H   0  0  0  0  0  0  0  0  0  0  0  0
  148.3466  138.3060  154.1145 H   0  0  0  0  0  0  0  0  0  0  0  0
  147.2106  137.4159  155.6589 H   0  0  0  0  0  0  0  0  0  0  0  0
  149.1830  140.0213  156.1461 H   0  0  0  0  0  0  0  0  0  0  0  0
  151.8583  142.4604  158.3891 H   0  0  0  0  0  0  0  0  0  0  0  0
  151.9448  144.1267  160.2068 H   0  0  0  0  0  0  0  0  0  0  0  0
  153.2314  143.6553  162.2833 H   0  0  0  0  0  0  0  0  0  0  0  0
  154.4377  141.4947  162.5306 H   0  0  0  0  0  0  0  0  0  0  0  0
  154.3685  139.8151  160.7369 H   0  0  0  0  0  0  0  0  0  0  0  0
  1  2  2  0  0  0  0
  2  3  1  0  0  0  0
  2 38  1  0  0  0  0
  3  4  1  0  0  0  0
  4  5  1  0  0  0  0
  4 44  1  0  0  0  0
  4 45  1  0  0  0  0
  5 36  1  0  0  0  0
  5  6  1  0  0  0  0
  5 46  1  0  0  0  0
  6  7  1  0  0  0  0
  7  8  1  0  0  0  0
  7 34  1  0  0  0  0
  7 47  1  0  0  0  0
  8 33  1  0  0  0  0
  8  9  1  0  0  0  0
  9 10  2  0  0  0  0
  9 48  1  0  0  0  0
 10 11  1  0  0  0  0
 11 33  2  0  0  0  0
 11 12  1  0  0  0  0
 12 13  1  0  0  0  0
 12 30  2  0  0  0  0
 13 14  1  0  0  0  0
 13 22  1  0  0  0  0
 14 15  2  0  0  0  0
 14 16  1  0  0  0  0
 16 21  1  0  0  0  0
 16 17  2  0  0  0  0
 17 18  1  0  0  0  0
 17 49  1  0  0  0  0
 18 19  2  0  0  0  0
 18 50  1  0  0  0  0
 19 20  1  0  0  0  0
 19 51  1  0  0  0  0
 20 21  2  0  0  0  0
 20 52  1  0  0  0  0
 21 53  1  0  0  0  0
 22 23  2  0  0  0  0
 22 24  1  0  0  0  0
 24 29  1  0  0  0  0
 24 25  2  0  0  0  0
 25 26  1  0  0  0  0
 25 54  1  0  0  0  0
 26 27  2  0  0  0  0
 26 55  1  0  0  0  0
 27 28  1  0  0  0  0
 27 56  1  0  0  0  0
 28 29  2  0  0  0  0
 28 57  1  0  0  0  0
 29 58  1  0  0  0  0
 30 31  1  0  0  0  0
 31 32  2  0  0  0  0
 31 59  1  0  0  0  0
 32 33  1  0  0  0  0
 34 35  1  0  0  0  0
 34 36  1  0  0  0  0
 34 60  1  0  0  0  0
 35 61  1  0  0  0  0
 36 37  1  0  0  0  0
 36 62  1  0  0  0  0
 38 43  1  0  0  0  0
 38 39  2  0  0  0  0
 39 40  1  0  0  0  0
 39 63  1  0  0  0  0
 40 41  2  0  0  0  0
 40 64  1  0  0  0  0
 41 42  1  0  0  0  0
 41 65  1  0  0  0  0
 42 43  2  0  0  0  0
 42 66  1  0  0  0  0
 43 67  1  0  0  0  0
M  END
> <s_m_source_file>
AV-unprocessed.smi

> <i_m_source_file_index>
33

> <i_lp_mmshare_version>
43012

> <i_f3d_flags>
0

> <s_epik_input>
W2NIXTFbY0hdW2NIXVtjSF1bY0hdYzFDKD1PKU9bQ0gyXVtDQEBIXTJPW0NASF0oW0NAQEhdKFtPSF0pW0NAQEhdMkYpbihbY0hdbjMpYyhjMzQpbltjSF1uYzROKEMoPU8pYzVbY0hdW2NIXVtjSF1bY0hdW2NIXTUpQyg9TyljNltjSF1bY0hdW2NIXVtjSF1bY0hdNg==

> <s_epik_cmdline>
J2VwaWtfcHl0aG9uJywgJy1waCcsICc3LjAnLCAnLXRuJywgJzgnLCAnLW1hJywgJzIwMCcsICctbWV0YWxfYmluZGluZycsICctaW1hZScsICc8aW5maWxlLm1hZT4nLCAnLW9tYWUnLCAnPG91dGZpbGUubWFlPic=

> <r_lp_tautomer_probability>
1

> <r_epik_Ionization_Penalty>
0.00067664

> <r_epik_Ionization_Penalty_Charging>
0

> <r_epik_Ionization_Penalty_Neutral>
0.00067664

> <r_epik_State_Penalty>
0.000428095

> <r_epik_Charging_Adjusted_Penalty>
0.000428095

> <i_epik_Tot_Q>
0

> <i_epik_Tot_abs_Q>
0

> <r_epik_Metal_State_Penalty>
-0

> <b_epik_Metal_Only>
0

> <s_epik_Chemistry_Notes>
This compound has an ester and may undergo hydrolysis at high or low pH. This compound contains an acetal/aminal-like group ( X-CH(R)-Y where X, Y are N, S, or O) that may be acid/base labile, releasing an aldehyde.

> <s_lp_Force_Field>
OPLS_2005

> <r_lp_Energy>
71.8737

> <b_lp_Chiralities_Consistent>
1

> <s_lp_Variant>
AV-unprocessed.smi:33-1

> <Gold.Version>
5.8.1

> <Gold.Id.Protein>
6NUR|6NUR_protein|mol2

> <Gold.PLP.Fitness>
59.5659

> <Gold.PLP.PLP>
-56.2823

> <Gold.PLP.part.hbond>
-2.0000

> <Gold.PLP.part.metal>
0.0000

> <Gold.PLP.part.buried>
-5.0661

> <Gold.PLP.part.nonpolar>
-49.1247

> <Gold.PLP.part.repulsive>
0.2486

> <Gold.PLP.ligand.clash>
0.0000

> <Gold.PLP.ligand.torsion>
3.5275

> <Gold.PLP.Chemscore.Hbond>
1.6800

> <Gold.PLP.Chemscore.CHOScore>
0.0000

> <Gold.PLP.Chemscore.Metal>
0.0000

> <Gold.Chemscore.Hbonds>
donor molecule, donor type, donor heavy atom, donor atom, acceptor molecule, acceptor atom, score
      P1  H  6896  6907       L1    10  0.78
      P1  H  7997  8008       L1     1  0.33

> <Gold.PLP.Chemscore.Internal.Correction>
5.2986

> <Gold.Rescore>
     Score         DG    S(hbond)    S(metal)    S(lipo)     H(rot)  DE(clash)    DE(int)     intcor
     10.31     -18.08       0.89        0.00     137.64       2.52       0.14       7.63       ----

> <Gold.Chemscore.Fitness>
10.3058

> <Gold.Chemscore.DG>
-18.0827

> <Gold.Chemscore.ZeroCoef>
-5.4800

> <Gold.Chemscore.Hbond>
0.8870

> <Gold.Chemscore.Metal>
0.0000

> <Gold.Chemscore.Lipo>
137.6364

> <Gold.Chemscore.Internal_Hbond>
0.0000

> <Gold.Chemscore.DEClash>
0.1423

> <Gold.Chemscore.DEInternal>
7.6346

> <Gold.Chemscore.Rot>
2.5247

> <Gold.Chemscore.Internal.Correction>
   9.000000E+99

> <Gold.Chemscore.Hbonds>
donor molecule, donor type, donor heavy atom, donor atom, acceptor molecule, acceptor atom, score
      P1  H  6896  6907       L1    10  0.69
      P1  H  7997  8008       L1     1  0.01

> <Gold.Chemscore.Hbond.Weighted>
-2.9625

> <Gold.Chemscore.Metal.Weighted>
-0.0000

> <Gold.Chemscore.Lipo.Weighted>
-16.1035

> <Gold.Chemscore.Internal_Hbond.Weighted>
0.0000

> <Gold.Chemscore.DEClash.Weighted>
0.1423

> <Gold.Chemscore.DEInternal.Weighted>
7.6346

> <Gold.Chemscore.Rot.Weighted>
6.4633

> <Gold.Chemscore.Internal.Correction.Weighted>
   9.000000E+99

> <Gold.Protein.RotatedTorsions>
[ 6907 6896 6895 6894 ] final -104.62 input  -60.11 | X-H torsion
[ 7974 7965 7964 7962 ] final -163.39 input  175.53 | X-H torsion
[ 8008 7997 7996 7995 ] final -122.90 input   59.86 | X-H torsion
[ 10167 10162 10161 10158 ] final -151.13 input  -65.29 | X-H torsion
[ 10718 10713 10712 10709 ] final    6.11 input   66.30 | X-H torsion
[ 10763 10752 10751 10750 ] final  160.65 input  -60.55 | X-H torsion
[ 11005 11000 10999 10996 ] final -150.65 input  -57.11 | X-H torsion

> <Gold.Protein.ActiveResidues>
 VAL166  LYS551  ARG553  GLY616  TRP617  ASP618  TYR619  PRO620  LYS621  CYS622 
 ASP623  PHE694  ASN695  SER759  ASP760  ASP761  ALA762  ILE779  LEU786  VAL792 
 PHE793  MET794  SER795  GLU796  ALA797  LYS798  CYS799  TRP800  GLU811  SER814 

> <Gold.Protein.RotatedAtoms>
  150.7296  134.0250  159.3713 H   0  0  0  0  0  0  0  0  0  0  0  0  # atno 6907 bound_to 6896
  151.8216  135.0647  160.0435 H   0  0  0  0  0  0  0  0  0  0  0  0  # atno 6908 bound_to 6896
  152.2999  133.5609  159.5648 H   0  0  0  0  0  0  0  0  0  0  0  0  # atno 6909 bound_to 6896
  144.7327  140.3114  143.6187 H   0  0  0  0  0  0  0  0  0  0  0  0  # atno 7974 bound_to 7965
  155.1717  140.0408  157.2864 H   0  0  0  0  0  0  0  0  0  0  0  0  # atno 8008 bound_to 7997
  154.6264  140.2513  155.7459 H   0  0  0  0  0  0  0  0  0  0  0  0  # atno 8009 bound_to 7997
  156.2462  140.2884  156.0596 H   0  0  0  0  0  0  0  0  0  0  0  0  # atno 8010 bound_to 7997
  139.7294  143.8833  152.2529 H   0  0  0  0  0  0  0  0  0  0  0  0  # atno 10167 bound_to 10162
  156.9174  130.5778  149.5647 H   0  0  0  0  0  0  0  0  0  0  0  0  # atno 10718 bound_to 10713
  154.2507  135.2771  155.2817 H   0  0  0  0  0  0  0  0  0  0  0  0  # atno 10763 bound_to 10752
  154.5467  135.5687  153.6889 H   0  0  0  0  0  0  0  0  0  0  0  0  # atno 10764 bound_to 10752
  152.9981  135.6264  154.2654 H   0  0  0  0  0  0  0  0  0  0  0  0  # atno 10765 bound_to 10752
  140.7380  134.3546  157.5153 H   0  0  0  0  0  0  0  0  0  0  0  0  # atno 11005 bound_to 11000
  145.7661  139.1841  143.2239 LP  0  0  0  0  0  0  0  0  0  0  0  0  # atno 17320 bound_to 7965
  146.0948  140.7613  142.9578 LP  0  0  0  0  0  0  0  0  0  0  0  0  # atno 17321 bound_to 7965
  139.8751  144.7047  150.8942 LP  0  0  0  0  0  0  0  0  0  0  0  0  # atno 17342 bound_to 10162
  140.7768  143.3706  151.1656 LP  0  0  0  0  0  0  0  0  0  0  0  0  # atno 17343 bound_to 10162
  156.0507  130.5577  150.8983 LP  0  0  0  0  0  0  0  0  0  0  0  0  # atno 17370 bound_to 10713
  157.5929  131.0944  150.9088 LP  0  0  0  0  0  0  0  0  0  0  0  0  # atno 17371 bound_to 10713
  139.8812  134.9062  156.2917 LP  0  0  0  0  0  0  0  0  0  0  0  0  # atno 17394 bound_to 11000
  140.9862  133.7237  156.0745 LP  0  0  0  0  0  0  0  0  0  0  0  0  # atno 17395 bound_to 11000

$$$$
