AV-unprocessed.smi:2280|AV-procd|sdf|9192|dock5
  -GOLD-   2272012413D 1   1.00000     0.00000
 Structure written by MMmdl.
 41 42  0  0  0  0  0  0  0  0  1 V2000
  146.7196  137.1365  154.5425 C   0  0  0  0  0  0  0  0  0  0  0  0
  148.1612  137.6137  154.5435 C   0  0  0  0  0  0  0  0  0  0  0  0
  149.1212  136.6339  154.8128 N   0  0  0  0  0  0  0  0  0  0  0  0
  150.3752  136.9485  154.8334 C   0  0  0  0  0  0  0  0  0  0  0  0
  150.8113  138.2603  154.5857 N   0  0  0  0  0  0  0  0  0  0  0  0
  152.2658  138.4857  154.6394 C   0  0  0  0  0  0  0  0  0  0  0  0
  152.7924  138.5411  156.0919 C   0  0  1  0  0  0  0  0  0  0  0  0
  154.1971  138.6976  156.0382 O   0  0  0  0  0  0  0  0  0  0  0  0
  152.2311  139.7486  156.8619 C   0  0  0  0  0  0  0  0  0  0  0  0
  153.0323  139.9642  158.0159 O   0  0  0  0  0  0  0  0  0  0  0  0
  152.7773  141.0673  158.8047 C   0  0  0  0  0  0  0  0  0  0  0  0
  151.9332  142.1354  158.4060 C   0  0  0  0  0  0  0  0  0  0  0  0
  151.7145  143.2328  159.2590 C   0  0  0  0  0  0  0  0  0  0  0  0
  152.3338  143.2785  160.5196 C   0  0  0  0  0  0  0  0  0  0  0  0
  153.1720  142.2251  160.9267 C   0  0  0  0  0  0  0  0  0  0  0  0
  153.3988  141.1182  160.0773 C   0  0  0  0  0  0  0  0  0  0  0  0
  154.3085  139.9787  160.5264 C   0  0  0  0  0  0  0  0  0  0  0  0
  154.6049  140.0586  161.8243 F   0  0  0  0  0  0  0  0  0  0  0  0
  153.7069  138.8089  160.3090 F   0  0  0  0  0  0  0  0  0  0  0  0
  155.4496  140.0123  159.8378 F   0  0  0  0  0  0  0  0  0  0  0  0
  149.9409  139.2782  154.3237 C   0  0  0  0  0  0  0  0  0  0  0  0
  150.3337  140.4289  154.1213 O   0  0  0  0  0  0  0  0  0  0  0  0
  148.5172  138.9052  154.3031 C   0  0  0  0  0  0  0  0  0  0  0  0
  147.5163  140.0145  154.0049 C   0  0  0  0  0  0  0  0  0  0  0  0
  146.2532  137.3288  153.5758 H   0  0  0  0  0  0  0  0  0  0  0  0
  146.1472  137.6505  155.3154 H   0  0  0  0  0  0  0  0  0  0  0  0
  146.6556  136.0649  154.7367 H   0  0  0  0  0  0  0  0  0  0  0  0
  151.1629  136.2235  155.0453 H   0  0  0  0  0  0  0  0  0  0  0  0
  152.8197  137.7463  154.0565 H   0  0  0  0  0  0  0  0  0  0  0  0
  152.4791  139.4306  154.1363 H   0  0  0  0  0  0  0  0  0  0  0  0
  152.5405  137.6231  156.6249 H   0  0  0  0  0  0  0  0  0  0  0  0
  154.5758  138.2806  156.7968 H   0  0  0  0  0  0  0  0  0  0  0  0
  152.1919  140.6334  156.2239 H   0  0  0  0  0  0  0  0  0  0  0  0
  151.2148  139.5288  157.1928 H   0  0  0  0  0  0  0  0  0  0  0  0
  151.4376  142.1382  157.4474 H   0  0  0  0  0  0  0  0  0  0  0  0
  151.0701  144.0404  158.9446 H   0  0  0  0  0  0  0  0  0  0  0  0
  152.1659  144.1206  161.1747 H   0  0  0  0  0  0  0  0  0  0  0  0
  153.6382  142.2777  161.8992 H   0  0  0  0  0  0  0  0  0  0  0  0
  147.6175  140.8189  154.7342 H   0  0  0  0  0  0  0  0  0  0  0  0
  146.4812  139.6781  154.0311 H   0  0  0  0  0  0  0  0  0  0  0  0
  147.7023  140.4306  153.0140 H   0  0  0  0  0  0  0  0  0  0  0  0
  1  2  1  0  0  0  0
  1 25  1  0  0  0  0
  1 26  1  0  0  0  0
  1 27  1  0  0  0  0
  2 23  2  0  0  0  0
  2  3  1  0  0  0  0
  3  4  2  0  0  0  0
  4  5  1  0  0  0  0
  4 28  1  0  0  0  0
  5  6  1  0  0  0  0
  5 21  1  0  0  0  0
  6  7  1  0  0  0  0
  6 29  1  0  0  0  0
  6 30  1  0  0  0  0
  7  8  1  0  0  0  0
  7  9  1  0  0  0  0
  7 31  1  0  0  0  0
  8 32  1  0  0  0  0
  9 10  1  0  0  0  0
  9 33  1  0  0  0  0
  9 34  1  0  0  0  0
 10 11  1  0  0  0  0
 11 16  1  0  0  0  0
 11 12  2  0  0  0  0
 12 13  1  0  0  0  0
 12 35  1  0  0  0  0
 13 14  2  0  0  0  0
 13 36  1  0  0  0  0
 14 15  1  0  0  0  0
 14 37  1  0  0  0  0
 15 16  2  0  0  0  0
 15 38  1  0  0  0  0
 16 17  1  0  0  0  0
 17 18  1  0  0  0  0
 17 19  1  0  0  0  0
 17 20  1  0  0  0  0
 21 22  2  0  0  0  0
 21 23  1  0  0  0  0
 23 24  1  0  0  0  0
 24 39  1  0  0  0  0
 24 40  1  0  0  0  0
 24 41  1  0  0  0  0
M  END
> <s_m_source_file>
AV-unprocessed.smi

> <i_m_source_file_index>
2280

> <i_lp_mmshare_version>
43012

> <i_f3d_flags>
0

> <s_epik_input>
W0NIM11jMW5bY0hdbihjKD1PKWMxW0NIM10pW0NIMl1bQ0BIXShbT0hdKVtDSDJdT2MyW2NIXVtjSF1bY0hdW2NIXWMyQyhGKShGKUY=

> <s_epik_cmdline>
J2VwaWtfcHl0aG9uJywgJy1waCcsICc3LjAnLCAnLXRuJywgJzgnLCAnLW1hJywgJzIwMCcsICctbWV0YWxfYmluZGluZycsICctaW1hZScsICc8aW5maWxlLm1hZT4nLCAnLW9tYWUnLCAnPG91dGZpbGUubWFlPic=

> <r_lp_tautomer_probability>
1

> <r_epik_Ionization_Penalty>
3.7476e-05

> <r_epik_Ionization_Penalty_Charging>
8.44705e-08

> <r_epik_Ionization_Penalty_Neutral>
3.73915e-05

> <r_epik_State_Penalty>
-0

> <r_epik_Charging_Adjusted_Penalty>
8.44705e-08

> <i_epik_Tot_Q>
0

> <i_epik_Tot_abs_Q>
0

> <r_epik_Metal_State_Penalty>
-0

> <b_epik_Metal_Only>
0

> <s_lp_Force_Field>
OPLS_2005

> <r_lp_Energy>
26.5065

> <b_lp_Chiralities_Consistent>
1

> <s_lp_Variant>
AV-unprocessed.smi:2280-2

> <Gold.Version>
5.8.1

> <Gold.Id.Protein>
6NUR|6NUR_protein|mol2

> <Gold.PLP.Fitness>
48.3822

> <Gold.PLP.PLP>
-44.0414

> <Gold.PLP.part.hbond>
-2.2680

> <Gold.PLP.part.metal>
0.0000

> <Gold.PLP.part.buried>
-5.9388

> <Gold.PLP.part.nonpolar>
-37.1838

> <Gold.PLP.part.repulsive>
0.8370

> <Gold.PLP.ligand.clash>
0.0666

> <Gold.PLP.ligand.torsion>
0.8715

> <Gold.PLP.Chemscore.Hbond>
1.8704

> <Gold.PLP.Chemscore.CHOScore>
0.0000

> <Gold.PLP.Chemscore.Metal>
0.0000

> <Gold.Chemscore.Hbonds>
donor molecule, donor type, donor heavy atom, donor atom, acceptor molecule, acceptor atom, score
      P1  H  7989  7998       L1    22  0.82
      P1  H  7997  8008       L1    10  0.79

> <Gold.PLP.Chemscore.Internal.Correction>
0.5393

> <Gold.Rescore>
     Score         DG    S(hbond)    S(metal)    S(lipo)     H(rot)  DE(clash)    DE(int)     intcor
     10.77     -14.20       1.17        0.00     100.85       2.73       0.15       3.28       ----

> <Gold.Chemscore.Fitness>
10.7720

> <Gold.Chemscore.DG>
-14.1996

> <Gold.Chemscore.ZeroCoef>
-5.4800

> <Gold.Chemscore.Hbond>
1.1704

> <Gold.Chemscore.Metal>
0.0000

> <Gold.Chemscore.Lipo>
100.8480

> <Gold.Chemscore.Internal_Hbond>
0.0000

> <Gold.Chemscore.DEClash>
0.1477

> <Gold.Chemscore.DEInternal>
3.2799

> <Gold.Chemscore.Rot>
2.7300

> <Gold.Chemscore.Internal.Correction>
   9.000000E+99

> <Gold.Chemscore.Hbonds>
donor molecule, donor type, donor heavy atom, donor atom, acceptor molecule, acceptor atom, score
      P1  H  7989  7998       L1    22  0.78
      P1  H  7997  8008       L1    10  0.10
      P1  H  7997  8009       L1     8  0.01

> <Gold.Chemscore.Hbond.Weighted>
-3.9091

> <Gold.Chemscore.Metal.Weighted>
-0.0000

> <Gold.Chemscore.Lipo.Weighted>
-11.7992

> <Gold.Chemscore.Internal_Hbond.Weighted>
0.0000

> <Gold.Chemscore.DEClash.Weighted>
0.1477

> <Gold.Chemscore.DEInternal.Weighted>
3.2799

> <Gold.Chemscore.Rot.Weighted>
6.9888

> <Gold.Chemscore.Internal.Correction.Weighted>
   9.000000E+99

> <Gold.Protein.RotatedTorsions>
[ 6907 6896 6895 6894 ] final   65.54 input  -60.11 | X-H torsion
[ 7974 7965 7964 7962 ] final   16.23 input  175.53 | X-H torsion
[ 8008 7997 7996 7995 ] final  -91.93 input   59.86 | X-H torsion
[ 10167 10162 10161 10158 ] final   90.48 input  -65.29 | X-H torsion
[ 10718 10713 10712 10709 ] final -136.64 input   66.30 | X-H torsion
[ 10763 10752 10751 10750 ] final  142.64 input  -60.55 | X-H torsion
[ 11005 11000 10999 10996 ] final  175.79 input  -57.11 | X-H torsion

> <Gold.Protein.ActiveResidues>
 VAL166  LYS551  ARG553  GLY616  TRP617  ASP618  TYR619  PRO620  LYS621  CYS622 
 ASP623  PHE694  ASN695  SER759  ASP760  ASP761  ALA762  ILE779  LEU786  VAL792 
 PHE793  MET794  SER795  GLU796  ALA797  LYS798  CYS799  TRP800  GLU811  SER814 

> <Gold.Protein.RotatedAtoms>
  152.4415  134.5581  159.9885 H   0  0  0  0  0  0  0  0  0  0  0  0  # atno 6907 bound_to 6896
  151.5677  133.3388  159.2991 H   0  0  0  0  0  0  0  0  0  0  0  0  # atno 6908 bound_to 6896
  150.8322  134.7614  159.6927 H   0  0  0  0  0  0  0  0  0  0  0  0  # atno 6909 bound_to 6896
  146.2255  139.8778  142.8576 H   0  0  0  0  0  0  0  0  0  0  0  0  # atno 7974 bound_to 7965
  154.7168  140.0514  157.0602 H   0  0  0  0  0  0  0  0  0  0  0  0  # atno 8008 bound_to 7997
  155.0481  140.3176  155.4682 H   0  0  0  0  0  0  0  0  0  0  0  0  # atno 8009 bound_to 7997
  156.2805  140.2121  156.5606 H   0  0  0  0  0  0  0  0  0  0  0  0  # atno 8010 bound_to 7997
  139.8469  144.6613  150.9215 H   0  0  0  0  0  0  0  0  0  0  0  0  # atno 10167 bound_to 10162
  156.2792  130.7311  151.1303 H   0  0  0  0  0  0  0  0  0  0  0  0  # atno 10718 bound_to 10713
  153.9591  135.2962  155.3434 H   0  0  0  0  0  0  0  0  0  0  0  0  # atno 10763 bound_to 10752
  154.7384  135.5036  153.9084 H   0  0  0  0  0  0  0  0  0  0  0  0  # atno 10764 bound_to 10752
  153.0955  135.6720  153.9881 H   0  0  0  0  0  0  0  0  0  0  0  0  # atno 10765 bound_to 10752
  140.3660  134.7071  157.4362 H   0  0  0  0  0  0  0  0  0  0  0  0  # atno 11005 bound_to 11000
  145.2543  141.0055  143.3863 LP  0  0  0  0  0  0  0  0  0  0  0  0  # atno 17320 bound_to 7965
  144.9349  139.4255  143.6477 LP  0  0  0  0  0  0  0  0  0  0  0  0  # atno 17321 bound_to 7965
  140.7792  143.3862  151.1390 LP  0  0  0  0  0  0  0  0  0  0  0  0  # atno 17342 bound_to 10162
  139.7503  143.8789  152.3075 LP  0  0  0  0  0  0  0  0  0  0  0  0  # atno 17343 bound_to 10162
  157.7309  131.0612  150.5704 LP  0  0  0  0  0  0  0  0  0  0  0  0  # atno 17370 bound_to 10713
  156.5808  130.4304  149.5978 LP  0  0  0  0  0  0  0  0  0  0  0  0  # atno 17371 bound_to 10713
  140.0589  134.6024  155.8772 LP  0  0  0  0  0  0  0  0  0  0  0  0  # atno 17394 bound_to 11000
  141.1969  133.6594  156.5716 LP  0  0  0  0  0  0  0  0  0  0  0  0  # atno 17395 bound_to 11000

$$$$
