AV-unprocessed.smi:1774|AV-procd|sdf|7165|dock6
  -GOLD-   22720 8403D 1   1.00000     0.00000
 Structure written by MMmdl.
 45 46  0  0  0  0  0  0  0  0  1 V2000
  145.8362  135.5223  150.7810 C   0  0  0  0  0  0  0  0  0  0  0  0
  145.6424  134.0532  151.1202 C   0  0  0  0  0  0  0  0  0  0  0  0
  144.6501  133.3135  150.4426 C   0  0  0  0  0  0  0  0  0  0  0  0
  144.4724  131.9553  150.7564 C   0  0  0  0  0  0  0  0  0  0  0  0
  145.3005  131.3905  151.7414 C   0  0  0  0  0  0  0  0  0  0  0  0
  146.2508  132.0897  152.3944 N   0  0  0  0  0  0  0  0  0  0  0  0
  146.4351  133.4024  152.1037 C   0  0  0  0  0  0  0  0  0  0  0  0
  147.4211  134.2011  152.7489 N   0  0  0  0  0  0  0  0  0  0  0  0
  147.8335  134.1507  154.0278 C   0  0  0  0  0  0  0  0  0  0  0  0
  147.3787  133.4031  154.8942 O   0  0  0  0  0  0  0  0  0  0  0  0
  148.8234  135.0281  154.2505 N   0  0  0  0  0  0  0  0  0  0  0  0
  149.5400  135.1916  155.5119 C   0  0  0  0  0  0  0  0  0  0  0  0
  150.9385  135.8014  155.2911 C   0  0  0  0  0  0  0  0  0  0  0  0
  150.9939  137.2626  155.3024 N   0  0  0  0  0  0  0  0  0  0  0  0
  150.0637  137.8711  154.3570 C   0  0  0  0  0  0  0  0  0  0  0  0
  150.1034  139.4078  154.4295 C   0  0  2  0  0  0  0  0  0  0  0  0
  149.1929  140.0582  153.3833 C   0  0  0  0  0  0  0  0  0  0  0  0
  151.4377  139.8597  154.2017 O   0  0  0  0  0  0  0  0  0  0  0  0
  152.4289  139.2876  155.0571 C   0  0  1  0  0  0  0  0  0  0  0  0
  152.3574  139.8671  156.4805 C   0  0  0  0  0  0  0  0  0  0  0  0
  152.3393  137.7488  155.0215 C   0  0  0  0  0  0  0  0  0  0  0  0
  145.1455  135.8445  150.0013 H   0  0  0  0  0  0  0  0  0  0  0  0
  146.8508  135.7013  150.4239 H   0  0  0  0  0  0  0  0  0  0  0  0
  145.6630  136.1432  151.6602 H   0  0  0  0  0  0  0  0  0  0  0  0
  144.0305  133.7783  149.6897 H   0  0  0  0  0  0  0  0  0  0  0  0
  143.7217  131.3624  150.2553 H   0  0  0  0  0  0  0  0  0  0  0  0
  145.1984  130.3500  152.0125 H   0  0  0  0  0  0  0  0  0  0  0  0
  147.8817  134.8774  152.1585 H   0  0  0  0  0  0  0  0  0  0  0  0
  149.1292  135.6034  153.4795 H   0  0  0  0  0  0  0  0  0  0  0  0
  148.9537  135.8711  156.1304 H   0  0  0  0  0  0  0  0  0  0  0  0
  149.5867  134.2548  156.0678 H   0  0  0  0  0  0  0  0  0  0  0  0
  151.5933  135.4138  156.0729 H   0  0  0  0  0  0  0  0  0  0  0  0
  151.3489  135.4300  154.3512 H   0  0  0  0  0  0  0  0  0  0  0  0
  150.3016  137.5449  153.3430 H   0  0  0  0  0  0  0  0  0  0  0  0
  149.0455  137.5407  154.5579 H   0  0  0  0  0  0  0  0  0  0  0  0
  149.7747  139.7320  155.4174 H   0  0  0  0  0  0  0  0  0  0  0  0
  148.1557  139.7527  153.5230 H   0  0  0  0  0  0  0  0  0  0  0  0
  149.4915  139.7802  152.3720 H   0  0  0  0  0  0  0  0  0  0  0  0
  149.2316  141.1455  153.4559 H   0  0  0  0  0  0  0  0  0  0  0  0
  153.3949  139.5773  154.6431 H   0  0  0  0  0  0  0  0  0  0  0  0
  153.1865  139.5039  157.0881 H   0  0  0  0  0  0  0  0  0  0  0  0
  151.4354  139.5897  156.9913 H   0  0  0  0  0  0  0  0  0  0  0  0
  152.4144  140.9555  156.4602 H   0  0  0  0  0  0  0  0  0  0  0  0
  153.0467  137.3274  155.7369 H   0  0  0  0  0  0  0  0  0  0  0  0
  152.6532  137.3979  154.0370 H   0  0  0  0  0  0  0  0  0  0  0  0
  1  2  1  0  0  0  0
  1 22  1  0  0  0  0
  1 23  1  0  0  0  0
  1 24  1  0  0  0  0
  2  7  1  0  0  0  0
  2  3  2  0  0  0  0
  3  4  1  0  0  0  0
  3 25  1  0  0  0  0
  4  5  2  0  0  0  0
  4 26  1  0  0  0  0
  5  6  1  0  0  0  0
  5 27  1  0  0  0  0
  6  7  2  0  0  0  0
  7  8  1  0  0  0  0
  8  9  1  0  0  0  0
  8 28  1  0  0  0  0
  9 10  2  0  0  0  0
  9 11  1  0  0  0  0
 11 12  1  0  0  0  0
 11 29  1  0  0  0  0
 12 13  1  0  0  0  0
 12 30  1  0  0  0  0
 12 31  1  0  0  0  0
 13 14  1  0  0  0  0
 13 32  1  0  0  0  0
 13 33  1  0  0  0  0
 14 21  1  0  0  0  0
 14 15  1  0  0  0  0
 15 16  1  0  0  0  0
 15 34  1  0  0  0  0
 15 35  1  0  0  0  0
 16 17  1  0  0  0  0
 16 18  1  0  0  0  0
 16 36  1  0  0  0  0
 17 37  1  0  0  0  0
 17 38  1  0  0  0  0
 17 39  1  0  0  0  0
 18 19  1  0  0  0  0
 19 20  1  0  0  0  0
 19 21  1  0  0  0  0
 19 40  1  0  0  0  0
 20 41  1  0  0  0  0
 20 42  1  0  0  0  0
 20 43  1  0  0  0  0
 21 44  1  0  0  0  0
 21 45  1  0  0  0  0
M  END
> <s_m_source_file>
AV-unprocessed.smi

> <i_m_source_file_index>
1774

> <i_lp_mmshare_version>
43012

> <i_f3d_flags>
0

> <s_epik_input>
W0NIM11jMVtjSF1bY0hdW2NIXW5jMVtOSF1DKD1PKVtOSF1bQ0gyXVtDSDJdTjJbQ0gyXVtDQEBIXShbQ0gzXSlPW0NAQEhdKFtDSDNdKVtDSDJdMg==

> <s_epik_cmdline>
J2VwaWtfcHl0aG9uJywgJy1waCcsICc3LjAnLCAnLXRuJywgJzgnLCAnLW1hJywgJzIwMCcsICctbWV0YWxfYmluZGluZycsICctaW1hZScsICc8aW5maWxlLm1hZT4nLCAnLW9tYWUnLCAnPG91dGZpbGUubWFlPic=

> <r_epik_Ionization_Penalty>
0.266047

> <r_epik_Ionization_Penalty_Charging>
0

> <r_epik_Ionization_Penalty_Neutral>
0.266047

> <r_epik_State_Penalty>
0.257924

> <r_epik_Charging_Adjusted_Penalty>
0.257924

> <i_epik_Tot_Q>
0

> <i_epik_Tot_abs_Q>
0

> <r_epik_Metal_State_Penalty>
0.257922

> <b_epik_Metal_Only>
0

> <s_lp_Force_Field>
OPLS_2005

> <r_lp_Energy>
29.5878

> <b_lp_Chiralities_Consistent>
1

> <s_lp_Variant>
AV-unprocessed.smi:1774-2

> <Gold.Version>
5.8.1

> <Gold.Id.Protein>
6NUR|6NUR_protein|mol2

> <Gold.PLP.Fitness>
42.8757

> <Gold.PLP.PLP>
-35.1011

> <Gold.PLP.part.hbond>
-3.0000

> <Gold.PLP.part.metal>
0.0000

> <Gold.PLP.part.buried>
-2.8502

> <Gold.PLP.part.nonpolar>
-29.3336

> <Gold.PLP.part.repulsive>
0.3084

> <Gold.PLP.ligand.clash>
0.0000

> <Gold.PLP.ligand.torsion>
0.6096

> <Gold.PLP.Chemscore.Hbond>
2.9920

> <Gold.PLP.Chemscore.CHOScore>
0.0000

> <Gold.PLP.Chemscore.Metal>
0.0000

> <Gold.Chemscore.Hbonds>
donor molecule, donor type, donor heavy atom, donor atom, acceptor molecule, acceptor atom, score
      L1  H     8    28       P1  7948  1.00
      L1  H    11    29       P1  7948  1.00
      P1  H  7989  7998       L1    18  0.28

> <Gold.PLP.Chemscore.Internal.Correction>
0.0177

> <Gold.Rescore>
     Score         DG    S(hbond)    S(metal)    S(lipo)     H(rot)  DE(clash)    DE(int)     intcor
     19.30     -20.00       2.70        0.00      78.88       1.46       0.04       0.65       ----

> <Gold.Chemscore.Fitness>
19.3048

> <Gold.Chemscore.DG>
-19.9955

> <Gold.Chemscore.ZeroCoef>
-5.4800

> <Gold.Chemscore.Hbond>
2.6989

> <Gold.Chemscore.Metal>
0.0000

> <Gold.Chemscore.Lipo>
78.8812

> <Gold.Chemscore.Internal_Hbond>
0.0000

> <Gold.Chemscore.DEClash>
0.0398

> <Gold.Chemscore.DEInternal>
0.6509

> <Gold.Chemscore.Rot>
1.4562

> <Gold.Chemscore.Internal.Correction>
   9.000000E+99

> <Gold.Chemscore.Hbonds>
donor molecule, donor type, donor heavy atom, donor atom, acceptor molecule, acceptor atom, score
      L1  H     8    28       P1  7948  0.64
      L1  H    11    29       P1  7948  0.63
      P1  H  7989  7998       L1    18  0.26

> <Gold.Chemscore.Hbond.Weighted>
-9.0142

> <Gold.Chemscore.Metal.Weighted>
-0.0000

> <Gold.Chemscore.Lipo.Weighted>
-9.2291

> <Gold.Chemscore.Internal_Hbond.Weighted>
0.0000

> <Gold.Chemscore.DEClash.Weighted>
0.0398

> <Gold.Chemscore.DEInternal.Weighted>
0.6509

> <Gold.Chemscore.Rot.Weighted>
3.7278

> <Gold.Chemscore.Internal.Correction.Weighted>
   9.000000E+99

> <Gold.Protein.RotatedTorsions>
[ 6907 6896 6895 6894 ] final   75.48 input  -60.11 | X-H torsion
[ 7974 7965 7964 7962 ] final  121.49 input  175.53 | X-H torsion
[ 8008 7997 7996 7995 ] final  130.62 input   59.86 | X-H torsion
[ 10167 10162 10161 10158 ] final  -12.10 input  -65.29 | X-H torsion
[ 10718 10713 10712 10709 ] final    3.10 input   66.30 | X-H torsion
[ 10763 10752 10751 10750 ] final  166.76 input  -60.55 | X-H torsion
[ 11005 11000 10999 10996 ] final   71.77 input  -57.11 | X-H torsion

> <Gold.Protein.ActiveResidues>
 VAL166  LYS551  ARG553  GLY616  TRP617  ASP618  TYR619  PRO620  LYS621  CYS622 
 ASP623  PHE694  ASN695  SER759  ASP760  ASP761  ALA762  ILE779  LEU786  VAL792 
 PHE793  MET794  SER795  GLU796  ALA797  LYS798  CYS799  TRP800  GLU811  SER814 

> <Gold.Protein.RotatedAtoms>
  152.5028  134.4114  159.9449 H   0  0  0  0  0  0  0  0  0  0  0  0  # atno 6907 bound_to 6896
  151.4082  133.3729  159.2748 H   0  0  0  0  0  0  0  0  0  0  0  0  # atno 6908 bound_to 6896
  150.9311  134.8747  159.7611 H   0  0  0  0  0  0  0  0  0  0  0  0  # atno 6909 bound_to 6896
  145.1187  139.3403  143.4725 H   0  0  0  0  0  0  0  0  0  0  0  0  # atno 7974 bound_to 7965
  156.2957  140.2591  156.2792 H   0  0  0  0  0  0  0  0  0  0  0  0  # atno 8008 bound_to 7997
  154.9618  140.0392  157.2212 H   0  0  0  0  0  0  0  0  0  0  0  0  # atno 8009 bound_to 7997
  154.7939  140.2816  155.5975 H   0  0  0  0  0  0  0  0  0  0  0  0  # atno 8010 bound_to 7997
  140.7154  143.5568  150.9239 H   0  0  0  0  0  0  0  0  0  0  0  0  # atno 10167 bound_to 10162
  156.8728  130.5626  149.5656 H   0  0  0  0  0  0  0  0  0  0  0  0  # atno 10718 bound_to 10713
  154.3437  135.2753  155.2409 H   0  0  0  0  0  0  0  0  0  0  0  0  # atno 10763 bound_to 10752
  154.4668  135.5893  153.6297 H   0  0  0  0  0  0  0  0  0  0  0  0  # atno 10764 bound_to 10752
  152.9855  135.6078  154.3641 H   0  0  0  0  0  0  0  0  0  0  0  0  # atno 10765 bound_to 10752
  139.9525  134.7201  156.0828 H   0  0  0  0  0  0  0  0  0  0  0  0  # atno 11005 bound_to 11000
  146.3522  140.1137  142.8603 LP  0  0  0  0  0  0  0  0  0  0  0  0  # atno 17320 bound_to 7965
  145.0765  140.9191  143.4851 LP  0  0  0  0  0  0  0  0  0  0  0  0  # atno 17321 bound_to 7965
  139.9293  143.6512  152.3080 LP  0  0  0  0  0  0  0  0  0  0  0  0  # atno 17342 bound_to 10162
  139.6957  144.7641  151.1360 LP  0  0  0  0  0  0  0  0  0  0  0  0  # atno 17343 bound_to 10162
  156.0717  130.5748  150.9396 LP  0  0  0  0  0  0  0  0  0  0  0  0  # atno 17370 bound_to 10713
  157.6185  131.0931  150.8665 LP  0  0  0  0  0  0  0  0  0  0  0  0  # atno 17371 bound_to 10713
  141.1191  133.6618  156.3169 LP  0  0  0  0  0  0  0  0  0  0  0  0  # atno 17394 bound_to 11000
  140.5684  134.5864  157.5451 LP  0  0  0  0  0  0  0  0  0  0  0  0  # atno 17395 bound_to 11000

$$$$
