AV-unprocessed.smi:2114|AV-procd|sdf|8621|dock6
  -GOLD-   2272011363D 1   1.00000     0.00000
 Structure written by MMmdl.
 47 48  0  0  0  0  0  0  0  0  1 V2000
  151.3762  144.4367  160.5290 C   0  0  0  0  0  0  0  0  0  0  0  0
  151.5340  143.0329  160.6339 O   0  0  0  0  0  0  0  0  0  0  0  0
  152.7243  142.6683  161.3144 C   0  0  0  0  0  0  0  0  0  0  0  0
  153.6335  141.8697  160.3665 C   0  0  2  0  0  0  0  0  0  0  0  0
  153.0773  141.8416  158.9363 C   0  0  0  0  0  0  0  0  0  0  0  0
  153.7748  140.4994  160.8537 N   0  0  0  0  0  0  0  0  0  0  0  0
  154.5348  139.5415  160.2972 C   0  0  0  0  0  0  0  0  0  0  0  0
  155.1768  139.6925  159.2578 O   0  0  0  0  0  0  0  0  0  0  0  0
  154.5150  138.2154  160.9999 C   0  0  0  0  0  0  0  0  0  0  0  0
  153.9384  138.0645  162.2810 C   0  0  0  0  0  0  0  0  0  0  0  0
  153.9769  136.8024  162.9039 C   0  0  0  0  0  0  0  0  0  0  0  0
  154.5951  135.7304  162.2281 C   0  0  0  0  0  0  0  0  0  0  0  0
  154.6454  134.4745  162.8489 N   0  0  0  0  0  0  0  0  0  0  0  0
  155.4197  133.4825  162.1158 C   0  0  0  0  0  0  0  0  0  0  0  0
  155.2704  132.1025  162.7817 C   0  0  1  0  0  0  0  0  0  0  0  0
  156.1531  131.0439  162.1122 C   0  0  0  0  0  0  0  0  0  0  0  0
  155.6518  132.1936  164.1551 O   0  0  0  0  0  0  0  0  0  0  0  0
  154.9247  133.1603  164.9189 C   0  0  2  0  0  0  0  0  0  0  0  0
  153.4760  132.7167  165.1898 C   0  0  0  0  0  0  0  0  0  0  0  0
  155.0262  134.5471  164.2535 C   0  0  0  0  0  0  0  0  0  0  0  0
  155.1582  135.8679  161.0043 N   0  0  0  0  0  0  0  0  0  0  0  0
  155.1214  137.0821  160.4145 C   0  0  0  0  0  0  0  0  0  0  0  0
  150.4511  144.6629  159.9989 H   0  0  0  0  0  0  0  0  0  0  0  0
  152.2005  144.8849  159.9727 H   0  0  0  0  0  0  0  0  0  0  0  0
  151.3230  144.9029  161.5136 H   0  0  0  0  0  0  0  0  0  0  0  0
  153.2417  143.5575  161.6788 H   0  0  0  0  0  0  0  0  0  0  0  0
  152.4690  142.0605  162.1838 H   0  0  0  0  0  0  0  0  0  0  0  0
  154.6062  142.3632  160.3285 H   0  0  0  0  0  0  0  0  0  0  0  0
  152.9701  142.8507  158.5375 H   0  0  0  0  0  0  0  0  0  0  0  0
  152.0980  141.3632  158.8988 H   0  0  0  0  0  0  0  0  0  0  0  0
  153.7424  141.2935  158.2681 H   0  0  0  0  0  0  0  0  0  0  0  0
  153.2667  140.2657  161.6942 H   0  0  0  0  0  0  0  0  0  0  0  0
  153.4773  138.8983  162.7905 H   0  0  0  0  0  0  0  0  0  0  0  0
  153.5433  136.6634  163.8837 H   0  0  0  0  0  0  0  0  0  0  0  0
  155.0764  133.4398  161.0812 H   0  0  0  0  0  0  0  0  0  0  0  0
  156.4703  133.7763  162.0959 H   0  0  0  0  0  0  0  0  0  0  0  0
  154.2340  131.7716  162.7103 H   0  0  0  0  0  0  0  0  0  0  0  0
  155.8917  130.9221  161.0607 H   0  0  0  0  0  0  0  0  0  0  0  0
  156.0343  130.0749  162.5977 H   0  0  0  0  0  0  0  0  0  0  0  0
  157.2074  131.3167  162.1665 H   0  0  0  0  0  0  0  0  0  0  0  0
  155.4225  133.2200  165.8872 H   0  0  0  0  0  0  0  0  0  0  0  0
  152.9821  133.4091  165.8720 H   0  0  0  0  0  0  0  0  0  0  0  0
  153.4514  131.7285  165.6491 H   0  0  0  0  0  0  0  0  0  0  0  0
  152.8773  132.6790  164.2801 H   0  0  0  0  0  0  0  0  0  0  0  0
  156.0525  134.9105  164.3270 H   0  0  0  0  0  0  0  0  0  0  0  0
  154.3960  135.2670  164.7777 H   0  0  0  0  0  0  0  0  0  0  0  0
  155.5876  137.1430  159.4418 H   0  0  0  0  0  0  0  0  0  0  0  0
  1  2  1  0  0  0  0
  1 23  1  0  0  0  0
  1 24  1  0  0  0  0
  1 25  1  0  0  0  0
  2  3  1  0  0  0  0
  3  4  1  0  0  0  0
  3 26  1  0  0  0  0
  3 27  1  0  0  0  0
  4  5  1  0  0  0  0
  4  6  1  0  0  0  0
  4 28  1  0  0  0  0
  5 29  1  0  0  0  0
  5 30  1  0  0  0  0
  5 31  1  0  0  0  0
  6  7  1  0  0  0  0
  6 32  1  0  0  0  0
  7  8  2  0  0  0  0
  7  9  1  0  0  0  0
  9 22  1  0  0  0  0
  9 10  2  0  0  0  0
 10 11  1  0  0  0  0
 10 33  1  0  0  0  0
 11 12  2  0  0  0  0
 11 34  1  0  0  0  0
 12 13  1  0  0  0  0
 12 21  1  0  0  0  0
 13 20  1  0  0  0  0
 13 14  1  0  0  0  0
 14 15  1  0  0  0  0
 14 35  1  0  0  0  0
 14 36  1  0  0  0  0
 15 16  1  0  0  0  0
 15 17  1  0  0  0  0
 15 37  1  0  0  0  0
 16 38  1  0  0  0  0
 16 39  1  0  0  0  0
 16 40  1  0  0  0  0
 17 18  1  0  0  0  0
 18 19  1  0  0  0  0
 18 20  1  0  0  0  0
 18 41  1  0  0  0  0
 19 42  1  0  0  0  0
 19 43  1  0  0  0  0
 19 44  1  0  0  0  0
 20 45  1  0  0  0  0
 20 46  1  0  0  0  0
 21 22  2  0  0  0  0
 22 47  1  0  0  0  0
M  END
> <s_m_source_file>
AV-unprocessed.smi

> <i_m_source_file_index>
2114

> <i_lp_mmshare_version>
43012

> <i_f3d_flags>
0

> <s_epik_input>
W0NIM11PW0NIMl1bQ0BIXShbQ0gzXSlbTkhdQyg9TyljMVtjSF1bY0hdYyhuW2NIXTEpTjJbQ0gyXVtDQEBIXShbQ0gzXSlPW0NAQEhdKFtDSDNdKVtDSDJdMg==

> <s_epik_cmdline>
J2VwaWtfcHl0aG9uJywgJy1waCcsICc3LjAnLCAnLXRuJywgJzgnLCAnLW1hJywgJzIwMCcsICctbWV0YWxfYmluZGluZycsICctaW1hZScsICc8aW5maWxlLm1hZT4nLCAnLW9tYWUnLCAnPG91dGZpbGUubWFlPic=

> <r_lp_tautomer_probability>
1

> <r_epik_Ionization_Penalty>
1.92915e-05

> <r_epik_Ionization_Penalty_Charging>
0

> <r_epik_Ionization_Penalty_Neutral>
1.92915e-05

> <r_epik_State_Penalty>
-0

> <r_epik_Charging_Adjusted_Penalty>
0

> <i_epik_Tot_Q>
0

> <i_epik_Tot_abs_Q>
0

> <r_epik_Metal_State_Penalty>
-0

> <b_epik_Metal_Only>
0

> <s_lp_Force_Field>
OPLS_2005

> <r_lp_Energy>
24.3529

> <b_lp_Chiralities_Consistent>
1

> <s_lp_Variant>
AV-unprocessed.smi:2114-5

> <Gold.Version>
5.8.1

> <Gold.Id.Protein>
6NUR|6NUR_protein|mol2

> <Gold.PLP.Fitness>
37.3102

> <Gold.PLP.PLP>
-36.9164

> <Gold.PLP.part.hbond>
-1.6698

> <Gold.PLP.part.metal>
0.0000

> <Gold.PLP.part.buried>
-5.2815

> <Gold.PLP.part.nonpolar>
-29.4793

> <Gold.PLP.part.repulsive>
0.1262

> <Gold.PLP.ligand.clash>
0.0000

> <Gold.PLP.ligand.torsion>
1.3613

> <Gold.PLP.Chemscore.Hbond>
1.0000

> <Gold.PLP.Chemscore.CHOScore>
0.0000

> <Gold.PLP.Chemscore.Metal>
0.0000

> <Gold.Chemscore.Hbonds>
donor molecule, donor type, donor heavy atom, donor atom, acceptor molecule, acceptor atom, score
      P1  H  7997  8008       L1     8  1.00

> <Gold.PLP.Chemscore.Internal.Correction>
0.1165

> <Gold.Rescore>
     Score         DG    S(hbond)    S(metal)    S(lipo)     H(rot)  DE(clash)    DE(int)     intcor
     15.69     -17.13       1.00        0.00     104.45       1.52       0.02       1.42       ----

> <Gold.Chemscore.Fitness>
15.6874

> <Gold.Chemscore.DG>
-17.1338

> <Gold.Chemscore.ZeroCoef>
-5.4800

> <Gold.Chemscore.Hbond>
0.9974

> <Gold.Chemscore.Metal>
0.0000

> <Gold.Chemscore.Lipo>
104.4499

> <Gold.Chemscore.Internal_Hbond>
0.0000

> <Gold.Chemscore.DEClash>
0.0215

> <Gold.Chemscore.DEInternal>
1.4250

> <Gold.Chemscore.Rot>
1.5226

> <Gold.Chemscore.Internal.Correction>
   9.000000E+99

> <Gold.Chemscore.Hbonds>
donor molecule, donor type, donor heavy atom, donor atom, acceptor molecule, acceptor atom, score
      P1  H  7997  8008       L1     8  0.99

> <Gold.Chemscore.Hbond.Weighted>
-3.3312

> <Gold.Chemscore.Metal.Weighted>
-0.0000

> <Gold.Chemscore.Lipo.Weighted>
-12.2206

> <Gold.Chemscore.Internal_Hbond.Weighted>
0.0000

> <Gold.Chemscore.DEClash.Weighted>
0.0215

> <Gold.Chemscore.DEInternal.Weighted>
1.4250

> <Gold.Chemscore.Rot.Weighted>
3.8980

> <Gold.Chemscore.Internal.Correction.Weighted>
   9.000000E+99

> <Gold.Protein.RotatedTorsions>
[ 6907 6896 6895 6894 ] final   73.68 input  -60.11 | X-H torsion
[ 7974 7965 7964 7962 ] final -162.35 input  175.53 | X-H torsion
[ 8008 7997 7996 7995 ] final -133.78 input   59.86 | X-H torsion
[ 10167 10162 10161 10158 ] final  170.13 input  -65.29 | X-H torsion
[ 10718 10713 10712 10709 ] final -139.02 input   66.30 | X-H torsion
[ 10763 10752 10751 10750 ] final  -95.00 input  -60.55 | X-H torsion
[ 11005 11000 10999 10996 ] final -127.08 input  -57.11 | X-H torsion

> <Gold.Protein.ActiveResidues>
 VAL166  LYS551  ARG553  GLY616  TRP617  ASP618  TYR619  PRO620  LYS621  CYS622 
 ASP623  PHE694  ASN695  SER759  ASP760  ASP761  ALA762  ILE779  LEU786  VAL792 
 PHE793  MET794  SER795  GLU796  ALA797  LYS798  CYS799  TRP800  GLU811  SER814 

> <Gold.Protein.RotatedAtoms>
  152.4936  134.4386  159.9535 H   0  0  0  0  0  0  0  0  0  0  0  0  # atno 6907 bound_to 6896
  151.4368  133.3648  159.2784 H   0  0  0  0  0  0  0  0  0  0  0  0  # atno 6908 bound_to 6896
  150.9115  134.8556  159.7488 H   0  0  0  0  0  0  0  0  0  0  0  0  # atno 6909 bound_to 6896
  144.7360  140.3265  143.6161 H   0  0  0  0  0  0  0  0  0  0  0  0  # atno 7974 bound_to 7965
  155.3512  140.0477  157.3046 H   0  0  0  0  0  0  0  0  0  0  0  0  # atno 8008 bound_to 7997
  154.5226  140.2230  155.8912 H   0  0  0  0  0  0  0  0  0  0  0  0  # atno 8009 bound_to 7997
  156.1705  140.3097  155.8972 H   0  0  0  0  0  0  0  0  0  0  0  0  # atno 8010 bound_to 7997
  139.5010  144.3631  151.9804 H   0  0  0  0  0  0  0  0  0  0  0  0  # atno 10167 bound_to 10162
  156.3060  130.7455  151.1519 H   0  0  0  0  0  0  0  0  0  0  0  0  # atno 10718 bound_to 10713
  154.7108  135.5137  153.8663 H   0  0  0  0  0  0  0  0  0  0  0  0  # atno 10763 bound_to 10752
  153.0779  135.6622  154.0116 H   0  0  0  0  0  0  0  0  0  0  0  0  # atno 10764 bound_to 10752
  153.9958  135.3015  155.3387 H   0  0  0  0  0  0  0  0  0  0  0  0  # atno 10765 bound_to 10752
  140.9629  134.0911  157.3950 H   0  0  0  0  0  0  0  0  0  0  0  0  # atno 11005 bound_to 11000
  145.7515  139.1795  143.2318 LP  0  0  0  0  0  0  0  0  0  0  0  0  # atno 17320 bound_to 7965
  146.1057  140.7490  142.9527 LP  0  0  0  0  0  0  0  0  0  0  0  0  # atno 17321 bound_to 7965
  140.3067  144.3585  150.6045 LP  0  0  0  0  0  0  0  0  0  0  0  0  # atno 17342 bound_to 10162
  140.5831  143.2171  151.7392 LP  0  0  0  0  0  0  0  0  0  0  0  0  # atno 17343 bound_to 10162
  157.7380  131.0546  150.5323 LP  0  0  0  0  0  0  0  0  0  0  0  0  # atno 17370 bound_to 10713
  156.5457  130.4219  149.6132 LP  0  0  0  0  0  0  0  0  0  0  0  0  # atno 17371 bound_to 10713
  139.8884  135.0097  156.6620 LP  0  0  0  0  0  0  0  0  0  0  0  0  # atno 17394 bound_to 11000
  140.7441  133.8952  155.8299 LP  0  0  0  0  0  0  0  0  0  0  0  0  # atno 17395 bound_to 11000

$$$$
