AV-unprocessed.smi:21|AV-procd|sdf|141|dock9
  -GOLD-   2262015343D 1   1.00000     0.00000
 Structure written by MMmdl.
 62 65  0  0  0  0  0  0  0  0  2 V2000
  145.8592  131.8997  148.8713 C   0  0  0  0  0  0  0  0  0  0  0  0
  144.6027  132.2164  149.4485 O   0  0  0  0  0  0  0  0  0  0  0  0
  144.6164  132.2257  150.8681 C   0  0  1  0  0  0  0  0  0  0  0  0
  145.8814  132.8438  151.4549 C   0  0  0  0  0  0  0  0  0  0  0  0
  145.4493  133.2813  152.8614 C   0  0  1  0  0  0  0  0  0  0  0  0
  146.3196  134.4142  153.4598 C   0  0  0  0  0  0  0  0  0  0  0  0
  147.5561  133.9095  154.0653 N   0  0  0  0  0  0  0  0  0  0  0  0
  147.8835  132.5028  153.8650 C   0  0  0  0  0  0  0  0  0  0  0  0
  148.4806  134.7606  154.6018 C   0  0  0  0  0  0  0  0  0  0  0  0
  149.7830  134.3686  154.6221 N   0  0  0  0  0  0  0  0  0  0  0  0
  150.7329  135.1557  155.1316 C   0  0  0  0  0  0  0  0  0  0  0  0
  150.6077  136.3685  155.6673 N   0  0  0  0  0  0  0  0  0  0  0  0
  149.3098  136.7831  155.6538 C   0  0  0  0  0  0  0  0  0  0  0  0
  148.1931  136.0504  155.1515 C   0  0  0  0  0  0  0  0  0  0  0  0
  147.0366  136.8012  155.3360 N   0  0  0  0  0  0  0  0  0  0  0  0
  147.4434  137.9032  155.9011 C   0  0  0  0  0  0  0  0  0  0  0  0
  148.7996  137.9863  156.1134 N   0  0  0  0  0  0  0  0  0  0  0  0
  149.5238  139.0957  156.7200 C   0  0  0  0  0  0  0  0  0  0  0  0
  149.9454  140.2109  155.7233 C   0  0  1  0  0  0  0  0  0  0  0  0
  148.8560  140.4827  154.6592 C   0  0  0  0  0  0  0  0  0  0  0  0
  149.4295  140.9866  153.4711 O   0  0  0  0  0  0  0  0  0  0  0  0
  150.3745  141.5174  156.4427 C   0  0  2  0  0  0  0  0  0  0  0  0
  151.5752  141.3823  157.3649 C   0  0  0  0  0  0  0  0  0  0  0  0
  151.4524  142.6153  158.2556 C   0  0  0  0  0  0  0  0  0  0  0  0
  150.0626  142.9166  158.3174 O   0  0  0  0  0  0  0  0  0  0  0  0
  149.3430  142.0612  157.4374 C   0  0  0  0  0  0  0  0  0  0  0  0
  143.9863  133.5639  152.7622 N   0  3  1  0  0  0  0  0  0  0  0  0
  143.5150  134.9141  153.1514 C   0  0  0  0  0  0  0  0  0  0  0  0
  143.5356  133.1576  151.4112 C   0  0  0  0  0  0  0  0  0  0  0  0
  144.4621  131.2215  151.2683 H   0  0  0  0  0  0  0  0  0  0  0  0
  145.5231  132.4114  153.5158 H   0  0  0  0  0  0  0  0  0  0  0  0
  145.7648  131.8737  147.7858 H   0  0  0  0  0  0  0  0  0  0  0  0
  146.2095  130.9205  149.2001 H   0  0  0  0  0  0  0  0  0  0  0  0
  146.6152  132.6446  149.1212 H   0  0  0  0  0  0  0  0  0  0  0  0
  146.7261  132.1544  151.4705 H   0  0  0  0  0  0  0  0  0  0  0  0
  146.1677  133.7135  150.8619 H   0  0  0  0  0  0  0  0  0  0  0  0
  146.5150  135.1854  152.7154 H   0  0  0  0  0  0  0  0  0  0  0  0
  145.7664  134.9169  154.2533 H   0  0  0  0  0  0  0  0  0  0  0  0
  148.6560  132.3919  153.1037 H   0  0  0  0  0  0  0  0  0  0  0  0
  147.0098  131.9406  153.5349 H   0  0  0  0  0  0  0  0  0  0  0  0
  148.2315  132.0496  154.7935 H   0  0  0  0  0  0  0  0  0  0  0  0
  151.7366  134.7578  155.1042 H   0  0  0  0  0  0  0  0  0  0  0  0
  146.7567  138.6897  156.1753 H   0  0  0  0  0  0  0  0  0  0  0  0
  148.9044  139.5107  157.5155 H   0  0  0  0  0  0  0  0  0  0  0  0
  150.4035  138.6927  157.2229 H   0  0  0  0  0  0  0  0  0  0  0  0
  150.8230  139.8409  155.1908 H   0  0  0  0  0  0  0  0  0  0  0  0
  148.2808  139.5837  154.4378 H   0  0  0  0  0  0  0  0  0  0  0  0
  148.1457  141.2317  155.0067 H   0  0  0  0  0  0  0  0  0  0  0  0
  149.3518  140.3291  152.7967 H   0  0  0  0  0  0  0  0  0  0  0  0
  150.6019  142.2900  155.7072 H   0  0  0  0  0  0  0  0  0  0  0  0
  151.4921  140.4770  157.9682 H   0  0  0  0  0  0  0  0  0  0  0  0
  152.5275  141.3528  156.8348 H   0  0  0  0  0  0  0  0  0  0  0  0
  151.8685  142.4505  159.2496 H   0  0  0  0  0  0  0  0  0  0  0  0
  151.9704  143.4640  157.8077 H   0  0  0  0  0  0  0  0  0  0  0  0
  148.5258  142.5980  156.9577 H   0  0  0  0  0  0  0  0  0  0  0  0
  148.9102  141.2505  158.0255 H   0  0  0  0  0  0  0  0  0  0  0  0
  143.9630  135.6894  152.5287 H   0  0  0  0  0  0  0  0  0  0  0  0
  143.7417  135.1255  154.1964 H   0  0  0  0  0  0  0  0  0  0  0  0
  142.4323  134.9783  153.0375 H   0  0  0  0  0  0  0  0  0  0  0  0
  143.4657  134.0391  150.7708 H   0  0  0  0  0  0  0  0  0  0  0  0
  142.5518  132.6881  151.4384 H   0  0  0  0  0  0  0  0  0  0  0  0
  143.5489  132.9209  153.4072 H   0  0  0  0  0  0  0  0  0  0  0  0
  1  2  1  0  0  0  0
  1 32  1  0  0  0  0
  1 33  1  0  0  0  0
  1 34  1  0  0  0  0
  2  3  1  0  0  0  0
  3 30  1  0  0  0  0
  3 29  1  0  0  0  0
  3  4  1  0  0  0  0
  4  5  1  0  0  0  0
  4 35  1  0  0  0  0
  4 36  1  0  0  0  0
  5 31  1  0  0  0  0
  5  6  1  0  0  0  0
  5 27  1  0  0  0  0
  6  7  1  0  0  0  0
  6 37  1  0  0  0  0
  6 38  1  0  0  0  0
  7  8  1  0  0  0  0
  7  9  1  0  0  0  0
  8 39  1  0  0  0  0
  8 40  1  0  0  0  0
  8 41  1  0  0  0  0
  9 14  1  0  0  0  0
  9 10  2  0  0  0  0
 10 11  1  0  0  0  0
 11 12  2  0  0  0  0
 11 42  1  0  0  0  0
 12 13  1  0  0  0  0
 13 17  1  0  0  0  0
 13 14  2  0  0  0  0
 14 15  1  0  0  0  0
 15 16  2  0  0  0  0
 16 17  1  0  0  0  0
 16 43  1  0  0  0  0
 17 18  1  0  0  0  0
 18 19  1  0  0  0  0
 18 44  1  0  0  0  0
 18 45  1  0  0  0  0
 19 20  1  0  0  0  0
 19 22  1  0  0  0  0
 19 46  1  0  0  0  0
 20 21  1  0  0  0  0
 20 47  1  0  0  0  0
 20 48  1  0  0  0  0
 21 49  1  0  0  0  0
 22 26  1  0  0  0  0
 22 23  1  0  0  0  0
 22 50  1  0  0  0  0
 23 24  1  0  0  0  0
 23 51  1  0  0  0  0
 23 52  1  0  0  0  0
 24 25  1  0  0  0  0
 24 53  1  0  0  0  0
 24 54  1  0  0  0  0
 25 26  1  0  0  0  0
 26 55  1  0  0  0  0
 26 56  1  0  0  0  0
 27 28  1  0  0  0  0
 27 29  1  0  0  0  0
 27 62  1  0  0  0  0
 28 57  1  0  0  0  0
 28 58  1  0  0  0  0
 28 59  1  0  0  0  0
 29 60  1  0  0  0  0
 29 61  1  0  0  0  0
M  CHG  1  27   1
M  END
> <s_m_source_file>
AV-unprocessed.smi

> <i_m_source_file_index>
21

> <i_lp_mmshare_version>
43012

> <i_f3d_flags>
0

> <s_epik_input>
W0NIM11PW0NASF0xW0NIMl1bQ0BIXShOKFtDSDNdKVtDSDJdMSlbQ0gyXU4oW0NIM10pYyhuW2NIXW4yKWMoYzIzKW5bY0hdbjNbQ0gyXVtDQEhdKFtDSDJdW09IXSlbQ0BASF00W0NIMl1bQ0gyXU9bQ0gyXTQ=

> <s_epik_cmdline>
J2VwaWtfcHl0aG9uJywgJy1waCcsICc3LjAnLCAnLXRuJywgJzgnLCAnLW1hJywgJzIwMCcsICctbWV0YWxfYmluZGluZycsICctaW1hZScsICc8aW5maWxlLm1hZT4nLCAnLW9tYWUnLCAnPG91dGZpbGUubWFlPic=

> <r_lp_tautomer_probability>
1

> <r_epik_Ionization_Penalty>
0.0157465

> <r_epik_Ionization_Penalty_Charging>
0.015354

> <r_epik_Ionization_Penalty_Neutral>
0.000392529

> <r_epik_State_Penalty>
0.0120612

> <r_epik_Charging_Adjusted_Penalty>
0.0274152

> <i_epik_Tot_Q>
1

> <i_epik_Tot_abs_Q>
1

> <r_epik_Metal_State_Penalty>
0.0121253

> <b_epik_Metal_Only>
0

> <s_lp_Force_Field>
OPLS_2005

> <r_lp_Energy>
60.5885

> <b_lp_Chiralities_Consistent>
1

> <s_lp_Variant>
AV-unprocessed.smi:21-21

> <Gold.Version>
5.8.1

> <Gold.Id.Protein>
6NUR|6NUR_protein|mol2

> <Gold.PLP.Fitness>
47.8420

> <Gold.PLP.PLP>
-38.8027

> <Gold.PLP.part.hbond>
-3.8728

> <Gold.PLP.part.metal>
0.0000

> <Gold.PLP.part.buried>
-6.2441

> <Gold.PLP.part.nonpolar>
-27.9784

> <Gold.PLP.part.repulsive>
0.5822

> <Gold.PLP.ligand.clash>
0.1568

> <Gold.PLP.ligand.torsion>
1.6041

> <Gold.PLP.Chemscore.Hbond>
3.9956

> <Gold.PLP.Chemscore.CHOScore>
0.0000

> <Gold.PLP.Chemscore.Metal>
0.0000

> <Gold.Chemscore.Hbonds>
donor molecule, donor type, donor heavy atom, donor atom, acceptor molecule, acceptor atom, score
      L1  H    21    49       P1  7957  0.86
      L1  H    27    62       P1 10957  2.00
      P1  H  7989  7998       L1    21  0.11
      P1  H  8011  8017       L1    21  0.80

> <Gold.PLP.Chemscore.Internal.Correction>
0.4176

> <Gold.Rescore>
     Score         DG    S(hbond)    S(metal)    S(lipo)     H(rot)  DE(clash)    DE(int)     intcor
     14.54     -16.51       2.38        0.00      93.69       3.08       0.27       1.70       ----

> <Gold.Chemscore.Fitness>
14.5397

> <Gold.Chemscore.DG>
-16.5058

> <Gold.Chemscore.ZeroCoef>
-5.4800

> <Gold.Chemscore.Hbond>
2.3766

> <Gold.Chemscore.Metal>
0.0000

> <Gold.Chemscore.Lipo>
93.6925

> <Gold.Chemscore.Internal_Hbond>
0.0000

> <Gold.Chemscore.DEClash>
0.2699

> <Gold.Chemscore.DEInternal>
1.6962

> <Gold.Chemscore.Rot>
3.0758

> <Gold.Chemscore.Internal.Correction>
   9.000000E+99

> <Gold.Chemscore.Hbonds>
donor molecule, donor type, donor heavy atom, donor atom, acceptor molecule, acceptor atom, score
      L1  H    21    49       P1  7957  0.85
      L1  H    27    62       P1 10957  0.72
      P1  H  7989  7998       L1    21  0.01
      P1  H  8011  8017       L1    21  0.12

> <Gold.Chemscore.Hbond.Weighted>
-7.9379

> <Gold.Chemscore.Metal.Weighted>
-0.0000

> <Gold.Chemscore.Lipo.Weighted>
-10.9620

> <Gold.Chemscore.Internal_Hbond.Weighted>
0.0000

> <Gold.Chemscore.DEClash.Weighted>
0.2699

> <Gold.Chemscore.DEInternal.Weighted>
1.6962

> <Gold.Chemscore.Rot.Weighted>
7.8741

> <Gold.Chemscore.Internal.Correction.Weighted>
   9.000000E+99

> <Gold.Protein.RotatedTorsions>
[ 6907 6896 6895 6894 ] final -102.73 input  -60.11 | X-H torsion
[ 7974 7965 7964 7962 ] final  151.52 input  175.53 | X-H torsion
[ 8008 7997 7996 7995 ] final  -59.17 input   59.86 | X-H torsion
[ 10167 10162 10161 10158 ] final   79.85 input  -65.29 | X-H torsion
[ 10718 10713 10712 10709 ] final   51.10 input   66.30 | X-H torsion
[ 10763 10752 10751 10750 ] final   85.43 input  -60.55 | X-H torsion
[ 11005 11000 10999 10996 ] final -131.73 input  -57.11 | X-H torsion

> <Gold.Protein.ActiveResidues>
 VAL166  LYS551  ARG553  GLY616  TRP617  ASP618  TYR619  PRO620  LYS621  CYS622 
 ASP623  PHE694  ASN695  SER759  ASP760  ASP761  ALA762  ILE779  LEU786  VAL792 
 PHE793  MET794  SER795  GLU796  ALA797  LYS798  CYS799  TRP800  GLU811  SER814 

> <Gold.Protein.RotatedAtoms>
  150.7209  134.0537  159.3806 H   0  0  0  0  0  0  0  0  0  0  0  0  # atno 6907 bound_to 6896
  151.8515  135.0554  160.0469 H   0  0  0  0  0  0  0  0  0  0  0  0  # atno 6908 bound_to 6896
  152.2787  133.5414  159.5520 H   0  0  0  0  0  0  0  0  0  0  0  0  # atno 6909 bound_to 6896
  144.8286  139.6549  143.6068 H   0  0  0  0  0  0  0  0  0  0  0  0  # atno 7974 bound_to 7965
  154.4341  140.1067  156.6074 H   0  0  0  0  0  0  0  0  0  0  0  0  # atno 8008 bound_to 7997
  155.5846  140.3491  155.4531 H   0  0  0  0  0  0  0  0  0  0  0  0  # atno 8009 bound_to 7997
  156.0292  140.1257  157.0265 H   0  0  0  0  0  0  0  0  0  0  0  0  # atno 8010 bound_to 7997
  139.9560  144.5994  150.8116 H   0  0  0  0  0  0  0  0  0  0  0  0  # atno 10167 bound_to 10162
  157.4948  130.8399  149.8245 H   0  0  0  0  0  0  0  0  0  0  0  0  # atno 10718 bound_to 10713
  153.1474  135.4617  154.9586 H   0  0  0  0  0  0  0  0  0  0  0  0  # atno 10763 bound_to 10752
  154.7797  135.3184  154.8019 H   0  0  0  0  0  0  0  0  0  0  0  0  # atno 10764 bound_to 10752
  153.8530  135.6919  153.4844 H   0  0  0  0  0  0  0  0  0  0  0  0  # atno 10765 bound_to 10752
  140.9233  134.1416  157.4296 H   0  0  0  0  0  0  0  0  0  0  0  0  # atno 11005 bound_to 11000
  146.2591  139.6368  142.9375 LP  0  0  0  0  0  0  0  0  0  0  0  0  # atno 17320 bound_to 7965
  145.4944  141.0438  143.2575 LP  0  0  0  0  0  0  0  0  0  0  0  0  # atno 17321 bound_to 7965
  140.7568  143.3074  151.2929 LP  0  0  0  0  0  0  0  0  0  0  0  0  # atno 17342 bound_to 10162
  139.6591  144.0222  152.2680 LP  0  0  0  0  0  0  0  0  0  0  0  0  # atno 17343 bound_to 10162
  156.0194  130.3801  150.2009 LP  0  0  0  0  0  0  0  0  0  0  0  0  # atno 17370 bound_to 10713
  157.0198  130.9976  151.3343 LP  0  0  0  0  0  0  0  0  0  0  0  0  # atno 17371 bound_to 10713
  139.8780  134.9979  156.5872 LP  0  0  0  0  0  0  0  0  0  0  0  0  # atno 17394 bound_to 11000
  140.7959  133.8544  155.8685 LP  0  0  0  0  0  0  0  0  0  0  0  0  # atno 17395 bound_to 11000

$$$$
