AV-unprocessed.smi:1|AV-procd|sdf|9|dock4
  -GOLD-   2262015 93D 1   1.00000     0.00000
 Structure written by MMmdl.
 57 62  0  0  0  0  0  0  0  0  1 V2000
  149.7649  130.6514  154.9445 O   0  0  0  0  0  0  0  0  0  0  0  0
  148.8297  131.0500  154.2450 C   0  0  0  0  0  0  0  0  0  0  0  0
  148.3283  132.3379  154.1124 N   0  0  0  0  0  0  0  0  0  0  0  0
  148.8449  133.3129  154.7969 C   0  0  0  0  0  0  0  0  0  0  0  0
  149.8971  133.3686  155.7205 N   0  0  0  0  0  0  0  0  0  0  0  0
  150.3543  134.5211  156.3788 C   0  0  0  0  0  0  0  0  0  0  0  0
  149.8553  135.7184  156.2232 N   0  0  0  0  0  0  0  0  0  0  0  0
  148.8053  135.7168  155.3160 C   0  0  0  0  0  0  0  0  0  0  0  0
  148.2684  134.6616  154.6113 C   0  0  0  0  0  0  0  0  0  0  0  0
  147.2206  135.0895  153.8035 N   0  0  0  0  0  0  0  0  0  0  0  0
  147.1739  136.3953  154.0546 C   0  0  0  0  0  0  0  0  0  0  0  0
  148.0901  136.8476  154.9345 N   0  0  0  0  0  0  0  0  0  0  0  0
  148.3035  138.2514  155.4196 C   0  0  2  0  0  0  0  0  0  0  0  0
  149.6449  138.5905  155.2343 O   0  0  0  0  0  0  0  0  0  0  0  0
  150.3531  138.4352  156.4577 C   0  0  1  0  0  0  0  0  0  0  0  0
  151.6472  139.2530  156.4296 C   0  0  0  0  0  0  0  0  0  0  0  0
  151.8950  139.7576  157.7313 O   0  0  0  0  0  0  0  0  0  0  0  0
  152.8360  139.1898  158.5088 C   0  0  0  0  0  0  0  0  0  0  0  0
  153.4467  138.1638  158.2022 O   0  0  0  0  0  0  0  0  0  0  0  0
  153.0598  139.9326  159.7828 C   0  0  0  0  0  0  0  0  0  0  0  0
  152.5656  141.2516  159.9119 C   0  0  0  0  0  0  0  0  0  0  0  0
  152.7628  141.9783  161.1022 C   0  0  0  0  0  0  0  0  0  0  0  0
  153.4560  141.3944  162.1785 C   0  0  0  0  0  0  0  0  0  0  0  0
  153.9517  140.0827  162.0630 C   0  0  0  0  0  0  0  0  0  0  0  0
  153.7562  139.3546  160.8732 C   0  0  0  0  0  0  0  0  0  0  0  0
  149.3367  138.9246  157.4883 C   0  0  2  0  0  0  0  0  0  0  0  0
  149.5646  138.3628  158.7688 O   0  0  0  0  0  0  0  0  0  0  0  0
  148.6342  136.9843  158.9283 S   0  0  0  0  0  0  0  0  0  0  0  0
  149.5130  135.8138  158.7835 O   0  0  0  0  0  0  0  0  0  0  0  0
  147.7376  137.1647  160.0800 O   0  0  0  0  0  0  0  0  0  0  0  0
  147.7307  137.1306  157.5326 O   0  0  0  0  0  0  0  0  0  0  0  0
  148.0112  138.3855  156.9292 C   0  0  2  0  0  0  0  0  0  0  0  0
  148.1195  130.0521  153.3900 C   0  0  0  0  0  0  0  0  0  0  0  0
  148.4567  128.6844  153.4720 C   0  0  0  0  0  0  0  0  0  0  0  0
  147.7976  127.7442  152.6562 C   0  0  0  0  0  0  0  0  0  0  0  0
  146.8017  128.1685  151.7552 C   0  0  0  0  0  0  0  0  0  0  0  0
  146.4646  129.5333  151.6698 C   0  0  0  0  0  0  0  0  0  0  0  0
  147.1230  130.4750  152.4849 C   0  0  0  0  0  0  0  0  0  0  0  0
  151.1896  134.3418  157.0575 H   0  0  0  0  0  0  0  0  0  0  0  0
  146.4484  137.0378  153.5787 H   0  0  0  0  0  0  0  0  0  0  0  0
  147.6599  138.8624  154.7858 H   0  0  0  0  0  0  0  0  0  0  0  0
  150.5707  137.3788  156.6233 H   0  0  0  0  0  0  0  0  0  0  0  0
  152.4802  138.6400  156.0824 H   0  0  0  0  0  0  0  0  0  0  0  0
  151.5428  140.0920  155.7404 H   0  0  0  0  0  0  0  0  0  0  0  0
  152.0305  141.7209  159.0989 H   0  0  0  0  0  0  0  0  0  0  0  0
  152.3816  142.9851  161.1886 H   0  0  0  0  0  0  0  0  0  0  0  0
  153.6070  141.9512  163.0915 H   0  0  0  0  0  0  0  0  0  0  0  0
  154.4837  139.6334  162.8887 H   0  0  0  0  0  0  0  0  0  0  0  0
  154.1500  138.3501  160.8180 H   0  0  0  0  0  0  0  0  0  0  0  0
  149.3183  140.0142  157.5334 H   0  0  0  0  0  0  0  0  0  0  0  0
  147.1821  139.0732  157.0983 H   0  0  0  0  0  0  0  0  0  0  0  0
  149.2221  128.3522  154.1585 H   0  0  0  0  0  0  0  0  0  0  0  0
  148.0577  126.6981  152.7201 H   0  0  0  0  0  0  0  0  0  0  0  0
  146.2979  127.4471  151.1289 H   0  0  0  0  0  0  0  0  0  0  0  0
  145.7023  129.8586  150.9773 H   0  0  0  0  0  0  0  0  0  0  0  0
  146.8615  131.5208  152.4111 H   0  0  0  0  0  0  0  0  0  0  0  0
  150.3701  132.5010  155.9283 H   0  0  0  0  0  0  0  0  0  0  0  0
  1  2  2  0  0  0  0
  2  3  1  0  0  0  0
  2 33  1  0  0  0  0
  3  4  2  0  0  0  0
  4  9  1  0  0  0  0
  4  5  1  0  0  0  0
  5  6  1  0  0  0  0
  5 57  1  0  0  0  0
  6  7  2  0  0  0  0
  6 39  1  0  0  0  0
  7  8  1  0  0  0  0
  8 12  1  0  0  0  0
  8  9  2  0  0  0  0
  9 10  1  0  0  0  0
 10 11  2  0  0  0  0
 11 12  1  0  0  0  0
 11 40  1  0  0  0  0
 12 13  1  0  0  0  0
 13 32  1  0  0  0  0
 13 14  1  0  0  0  0
 13 41  1  0  0  0  0
 14 15  1  0  0  0  0
 15 16  1  0  0  0  0
 15 26  1  0  0  0  0
 15 42  1  0  0  0  0
 16 17  1  0  0  0  0
 16 43  1  0  0  0  0
 16 44  1  0  0  0  0
 17 18  1  0  0  0  0
 18 19  2  0  0  0  0
 18 20  1  0  0  0  0
 20 25  1  0  0  0  0
 20 21  2  0  0  0  0
 21 22  1  0  0  0  0
 21 45  1  0  0  0  0
 22 23  2  0  0  0  0
 22 46  1  0  0  0  0
 23 24  1  0  0  0  0
 23 47  1  0  0  0  0
 24 25  2  0  0  0  0
 24 48  1  0  0  0  0
 25 49  1  0  0  0  0
 26 32  1  0  0  0  0
 26 27  1  0  0  0  0
 26 50  1  0  0  0  0
 27 28  1  0  0  0  0
 28 29  2  0  0  0  0
 28 30  2  0  0  0  0
 28 31  1  0  0  0  0
 31 32  1  0  0  0  0
 32 51  1  0  0  0  0
 33 38  1  0  0  0  0
 33 34  2  0  0  0  0
 34 35  1  0  0  0  0
 34 52  1  0  0  0  0
 35 36  2  0  0  0  0
 35 53  1  0  0  0  0
 36 37  1  0  0  0  0
 36 54  1  0  0  0  0
 37 38  2  0  0  0  0
 37 55  1  0  0  0  0
 38 56  1  0  0  0  0
M  END
> <s_m_source_file>
AV-unprocessed.smi

> <i_m_source_file_index>
1

> <i_lp_mmshare_version>
43012

> <i_f3d_flags>
0

> <s_epik_input>
W2NIXTFbY0hdW2NIXVtjSF1bY0hdYzFDKD1PKVtOSF1jKG5bY0hdbjIpYyhjMjMpbltjSF1uM1tDQEBIXShbQ0BIXShbQ0BIXTQ1KU9TKE81KSg9Tyk9TylPW0NASF00W0NIMl1PQyg9TyljNltjSF1bY0hdW2NIXVtjSF1bY0hdNg==

> <s_epik_cmdline>
J2VwaWtfcHl0aG9uJywgJy1waCcsICc3LjAnLCAnLXRuJywgJzgnLCAnLW1hJywgJzIwMCcsICctbWV0YWxfYmluZGluZycsICctaW1hZScsICc8aW5maWxlLm1hZT4nLCAnLW9tYWUnLCAnPG91dGZpbGUubWFlPic=

> <r_epik_Ionization_Penalty>
0.122545

> <r_epik_Ionization_Penalty_Charging>
0.122545

> <r_epik_Ionization_Penalty_Neutral>
7.8935e-16

> <r_epik_State_Penalty>
2.69178

> <r_epik_Charging_Adjusted_Penalty>
2.81433

> <i_epik_Tot_Q>
0

> <i_epik_Tot_abs_Q>
0

> <r_epik_Metal_State_Penalty>
3.02665

> <b_epik_Metal_Only>
0

> <s_epik_Chemistry_Notes>
This compound has an ester and may undergo hydrolysis at high or low pH. This compound contains an acetal/aminal-like group ( X-CH(R)-Y where X, Y are N, S, or O) that may be acid/base labile, releasing an aldehyde.

> <s_lp_Force_Field>
OPLS_2005

> <r_lp_Energy>
57.7872

> <b_lp_Chiralities_Consistent>
1

> <s_lp_Variant>
AV-unprocessed.smi:1-9

> <Gold.Version>
5.8.1

> <Gold.Id.Protein>
6NUR|6NUR_protein|mol2

> <Gold.PLP.Fitness>
59.0826

> <Gold.PLP.PLP>
-50.5900

> <Gold.PLP.part.hbond>
-5.4251

> <Gold.PLP.part.metal>
0.0000

> <Gold.PLP.part.buried>
-5.1442

> <Gold.PLP.part.nonpolar>
-39.8633

> <Gold.PLP.part.repulsive>
0.3121

> <Gold.PLP.ligand.clash>
0.0000

> <Gold.PLP.ligand.torsion>
0.9493

> <Gold.PLP.Chemscore.Hbond>
3.3721

> <Gold.PLP.Chemscore.CHOScore>
0.0000

> <Gold.PLP.Chemscore.Metal>
0.0000

> <Gold.Chemscore.Hbonds>
donor molecule, donor type, donor heavy atom, donor atom, acceptor molecule, acceptor atom, score
      P1  H  6896  6907       L1    29  1.00
      P1  H  6934  6947       L1    30  0.69

> <Gold.PLP.Chemscore.Internal.Correction>
0.2749

> <Gold.Rescore>
     Score         DG    S(hbond)    S(metal)    S(lipo)     H(rot)  DE(clash)    DE(int)     intcor
     12.55     -21.41       2.74        0.00     104.45       2.13       1.48       7.37       ----

> <Gold.Chemscore.Fitness>
12.5535

> <Gold.Chemscore.DG>
-21.4077

> <Gold.Chemscore.ZeroCoef>
-5.4800

> <Gold.Chemscore.Hbond>
2.7449

> <Gold.Chemscore.Metal>
0.0000

> <Gold.Chemscore.Lipo>
104.4545

> <Gold.Chemscore.Internal_Hbond>
0.0000

> <Gold.Chemscore.DEClash>
1.4848

> <Gold.Chemscore.DEInternal>
7.3694

> <Gold.Chemscore.Rot>
2.1333

> <Gold.Chemscore.Internal.Correction>
   9.000000E+99

> <Gold.Chemscore.Hbonds>
donor molecule, donor type, donor heavy atom, donor atom, acceptor molecule, acceptor atom, score
      P1  H  6896  6907       L1    29  1.00
      P1  H  6931  6943       L1    30  0.01
      P1  H  6934  6947       L1    30  0.67

> <Gold.Chemscore.Hbond.Weighted>
-9.1679

> <Gold.Chemscore.Metal.Weighted>
-0.0000

> <Gold.Chemscore.Lipo.Weighted>
-12.2212

> <Gold.Chemscore.Internal_Hbond.Weighted>
0.0000

> <Gold.Chemscore.DEClash.Weighted>
1.4848

> <Gold.Chemscore.DEInternal.Weighted>
7.3694

> <Gold.Chemscore.Rot.Weighted>
5.4614

> <Gold.Chemscore.Internal.Correction.Weighted>
   9.000000E+99

> <Gold.Protein.RotatedTorsions>
[ 6907 6896 6895 6894 ] final  -70.24 input  -60.11 | X-H torsion
[ 7974 7965 7964 7962 ] final  -29.79 input  175.53 | X-H torsion
[ 8008 7997 7996 7995 ] final  -56.16 input   59.86 | X-H torsion
[ 10167 10162 10161 10158 ] final   98.53 input  -65.29 | X-H torsion
[ 10718 10713 10712 10709 ] final  137.66 input   66.30 | X-H torsion
[ 10763 10752 10751 10750 ] final   29.42 input  -60.55 | X-H torsion
[ 11005 11000 10999 10996 ] final   54.81 input  -57.11 | X-H torsion

> <Gold.Protein.ActiveResidues>
 VAL166  LYS551  ARG553  GLY616  TRP617  ASP618  TYR619  PRO620  LYS621  CYS622 
 ASP623  PHE694  ASN695  SER759  ASP760  ASP761  ALA762  ILE779  LEU786  VAL792 
 PHE793  MET794  SER795  GLU796  ALA797  LYS798  CYS799  TRP800  GLU811  SER814 

> <Gold.Protein.RotatedAtoms>
  150.7267  134.5481  159.5780 H   0  0  0  0  0  0  0  0  0  0  0  0  # atno 6907 bound_to 6896
  152.2975  134.7647  160.0374 H   0  0  0  0  0  0  0  0  0  0  0  0  # atno 6908 bound_to 6896
  151.8239  133.3363  159.3629 H   0  0  0  0  0  0  0  0  0  0  0  0  # atno 6909 bound_to 6896
  146.1190  140.5458  142.8744 H   0  0  0  0  0  0  0  0  0  0  0  0  # atno 7974 bound_to 7965
  154.4220  140.1136  156.5593 H   0  0  0  0  0  0  0  0  0  0  0  0  # atno 8008 bound_to 7997
  155.6328  140.3496  155.4669 H   0  0  0  0  0  0  0  0  0  0  0  0  # atno 8009 bound_to 7997
  155.9934  140.1184  157.0606 H   0  0  0  0  0  0  0  0  0  0  0  0  # atno 8010 bound_to 7997
  139.7700  144.6925  151.0169 H   0  0  0  0  0  0  0  0  0  0  0  0  # atno 10167 bound_to 10162
  157.4337  131.1051  151.0222 H   0  0  0  0  0  0  0  0  0  0  0  0  # atno 10718 bound_to 10713
  153.0431  135.6489  154.0888 H   0  0  0  0  0  0  0  0  0  0  0  0  # atno 10763 bound_to 10752
  154.0591  135.2889  155.3329 H   0  0  0  0  0  0  0  0  0  0  0  0  # atno 10764 bound_to 10752
  154.6669  135.5370  153.8154 H   0  0  0  0  0  0  0  0  0  0  0  0  # atno 10765 bound_to 10752
  140.0657  134.5540  155.9102 H   0  0  0  0  0  0  0  0  0  0  0  0  # atno 11005 bound_to 11000
  144.7580  140.5353  143.6755 LP  0  0  0  0  0  0  0  0  0  0  0  0  # atno 17320 bound_to 7965
  145.5505  139.1476  143.3396 LP  0  0  0  0  0  0  0  0  0  0  0  0  # atno 17321 bound_to 7965
  140.7813  143.4599  151.0292 LP  0  0  0  0  0  0  0  0  0  0  0  0  # atno 17342 bound_to 10162
  139.8283  143.7725  152.3179 LP  0  0  0  0  0  0  0  0  0  0  0  0  # atno 17343 bound_to 10162
  157.1109  130.6021  149.5482 LP  0  0  0  0  0  0  0  0  0  0  0  0  # atno 17370 bound_to 10713
  155.9922  130.4980  150.7332 LP  0  0  0  0  0  0  0  0  0  0  0  0  # atno 17371 bound_to 10713
  141.1991  133.6605  156.5829 LP  0  0  0  0  0  0  0  0  0  0  0  0  # atno 17394 bound_to 11000
  140.3703  134.7611  157.4594 LP  0  0  0  0  0  0  0  0  0  0  0  0  # atno 17395 bound_to 11000

$$$$
