AV-unprocessed.smi:3116|AV-procd|sdf|11872|dock10
  -GOLD-   2272017253D 1   1.00000     0.00000
 Structure written by MMmdl.
 33 33  0  0  0  0  0  0  0  0  1 V2000
  148.6070  141.4923  154.5519 C   0  0  0  0  0  0  0  0  0  0  0  0
  149.3439  140.3067  155.1937 C   0  0  2  0  0  0  0  0  0  0  0  0
  150.5373  140.7937  155.9062 N   0  0  0  0  0  0  0  0  0  0  0  0
  150.2766  141.7090  157.0184 C   0  0  1  0  0  0  0  0  0  0  0  0
  149.1172  141.1338  157.8514 C   0  0  0  0  0  0  0  0  0  0  0  0
  151.5679  141.9319  157.8503 C   0  0  2  0  0  0  0  0  0  0  0  0
  151.9239  140.7336  158.7493 C   0  0  0  0  0  0  0  0  0  0  0  0
  151.5621  143.1828  158.6045 N   0  0  0  0  0  0  0  0  0  0  0  0
  151.2852  144.4629  158.1649 C   0  0  0  0  0  0  0  0  0  0  0  0
  151.4294  145.3037  159.2306 C   0  0  0  0  0  0  0  0  0  0  0  0
  151.8065  144.4379  160.2939 C   0  0  0  0  0  0  0  0  0  0  0  0
  151.8881  143.1728  159.9166 N   0  0  0  0  0  0  0  0  0  0  0  0
  149.6683  139.2399  154.1354 C   0  0  0  0  0  0  0  0  0  0  0  0
  148.6366  138.6513  153.5253 N   0  0  0  0  0  0  0  0  0  0  0  0
  150.8343  138.9407  153.8845 O   0  0  0  0  0  0  0  0  0  0  0  0
  147.7044  141.1652  154.0341 H   0  0  0  0  0  0  0  0  0  0  0  0
  149.2355  142.0138  153.8286 H   0  0  0  0  0  0  0  0  0  0  0  0
  148.3039  142.2175  155.3078 H   0  0  0  0  0  0  0  0  0  0  0  0
  148.6712  139.8673  155.9325 H   0  0  0  0  0  0  0  0  0  0  0  0
  151.1281  140.0338  156.2130 H   0  0  0  0  0  0  0  0  0  0  0  0
  149.9678  142.6863  156.6448 H   0  0  0  0  0  0  0  0  0  0  0  0
  148.9087  141.7657  158.7150 H   0  0  0  0  0  0  0  0  0  0  0  0
  149.3390  140.1317  158.2205 H   0  0  0  0  0  0  0  0  0  0  0  0
  148.1997  141.0720  157.2659 H   0  0  0  0  0  0  0  0  0  0  0  0
  152.3841  142.0070  157.1293 H   0  0  0  0  0  0  0  0  0  0  0  0
  152.0117  139.8185  158.1632 H   0  0  0  0  0  0  0  0  0  0  0  0
  151.1696  140.5616  159.5173 H   0  0  0  0  0  0  0  0  0  0  0  0
  152.8778  140.8940  159.2527 H   0  0  0  0  0  0  0  0  0  0  0  0
  151.0131  144.6681  157.1401 H   0  0  0  0  0  0  0  0  0  0  0  0
  151.2896  146.3743  159.2476 H   0  0  0  0  0  0  0  0  0  0  0  0
  152.0239  144.6895  161.3214 H   0  0  0  0  0  0  0  0  0  0  0  0
  148.8013  137.9441  152.8239 H   0  0  0  0  0  0  0  0  0  0  0  0
  147.6935  138.9166  153.7698 H   0  0  0  0  0  0  0  0  0  0  0  0
  1  2  1  0  0  0  0
  1 16  1  0  0  0  0
  1 17  1  0  0  0  0
  1 18  1  0  0  0  0
  2  3  1  0  0  0  0
  2 13  1  0  0  0  0
  2 19  1  0  0  0  0
  3  4  1  0  0  0  0
  3 20  1  0  0  0  0
  4  5  1  0  0  0  0
  4  6  1  0  0  0  0
  4 21  1  0  0  0  0
  5 22  1  0  0  0  0
  5 23  1  0  0  0  0
  5 24  1  0  0  0  0
  6  7  1  0  0  0  0
  6  8  1  0  0  0  0
  6 25  1  0  0  0  0
  7 26  1  0  0  0  0
  7 27  1  0  0  0  0
  7 28  1  0  0  0  0
  8 12  1  0  0  0  0
  8  9  1  0  0  0  0
  9 10  2  0  0  0  0
  9 29  1  0  0  0  0
 10 11  1  0  0  0  0
 10 30  1  0  0  0  0
 11 12  2  0  0  0  0
 11 31  1  0  0  0  0
 13 14  1  0  0  0  0
 13 15  2  0  0  0  0
 14 32  1  0  0  0  0
 14 33  1  0  0  0  0
M  END
> <s_m_source_file>
AV-unprocessed.smi

> <i_m_source_file_index>
3116

> <i_lp_mmshare_version>
43012

> <i_f3d_flags>
0

> <s_epik_input>
W05IMl1DKD1PKVtDQEhdKFtDSDNdKVtOSF1bQ0BIXShbQ0gzXSlbQ0BIXShbQ0gzXSluMVtjSF1bY0hdW2NIXW4x

> <s_epik_cmdline>
J2VwaWtfcHl0aG9uJywgJy1waCcsICc3LjAnLCAnLXRuJywgJzgnLCAnLW1hJywgJzIwMCcsICctbWV0YWxfYmluZGluZycsICctaW1hZScsICc8aW5maWxlLm1hZT4nLCAnLW9tYWUnLCAnPG91dGZpbGUubWFlPic=

> <r_lp_tautomer_probability>
1

> <r_epik_Ionization_Penalty>
0.865977

> <r_epik_Ionization_Penalty_Charging>
0

> <r_epik_Ionization_Penalty_Neutral>
0.865977

> <r_epik_State_Penalty>
0.901888

> <r_epik_Charging_Adjusted_Penalty>
0.901888

> <i_epik_Tot_Q>
0

> <i_epik_Tot_abs_Q>
0

> <r_epik_Metal_State_Penalty>
0.901181

> <b_epik_Metal_Only>
0

> <s_lp_Force_Field>
OPLS_2005

> <r_lp_Energy>
10.1697

> <b_lp_Chiralities_Consistent>
1

> <s_lp_Variant>
AV-unprocessed.smi:3116-11

> <Gold.Version>
5.8.1

> <Gold.Id.Protein>
6NUR|6NUR_protein|mol2

> <Gold.PLP.Fitness>
38.6367

> <Gold.PLP.PLP>
-30.6265

> <Gold.PLP.part.hbond>
-3.0000

> <Gold.PLP.part.metal>
0.0000

> <Gold.PLP.part.buried>
-2.2424

> <Gold.PLP.part.nonpolar>
-26.0774

> <Gold.PLP.part.repulsive>
0.4821

> <Gold.PLP.ligand.clash>
0.0000

> <Gold.PLP.ligand.torsion>
0.5710

> <Gold.PLP.Chemscore.Hbond>
1.9913

> <Gold.PLP.Chemscore.CHOScore>
0.9992

> <Gold.PLP.Chemscore.Metal>
0.0000

> <Gold.Chemscore.Hbonds>
donor molecule, donor type, donor heavy atom, donor atom, acceptor molecule, acceptor atom, score
      L1  H    14    32       P1  7948  1.00
      P1  H  7989  7998       L1    15  0.81
      L1  C     9    29       P1  8028  0.94

> <Gold.PLP.Chemscore.Internal.Correction>
0.1807

> <Gold.Rescore>
     Score         DG    S(hbond)    S(metal)    S(lipo)     H(rot)  DE(clash)    DE(int)     intcor
     11.65     -12.39       1.39        0.00      71.57       2.38       0.18       0.56       ----

> <Gold.Chemscore.Fitness>
11.6512

> <Gold.Chemscore.DG>
-12.3950

> <Gold.Chemscore.ZeroCoef>
-5.4800

> <Gold.Chemscore.Hbond>
1.3901

> <Gold.Chemscore.Metal>
0.0000

> <Gold.Chemscore.Lipo>
71.5720

> <Gold.Chemscore.Internal_Hbond>
0.0000

> <Gold.Chemscore.DEClash>
0.1848

> <Gold.Chemscore.DEInternal>
0.5590

> <Gold.Chemscore.Rot>
2.3836

> <Gold.Chemscore.Internal.Correction>
   9.000000E+99

> <Gold.Chemscore.Hbonds>
donor molecule, donor type, donor heavy atom, donor atom, acceptor molecule, acceptor atom, score
      L1  H    14    32       P1  7948  0.99
      P1  H  7989  7998       L1    15  0.23

> <Gold.Chemscore.Hbond.Weighted>
-4.6430

> <Gold.Chemscore.Metal.Weighted>
-0.0000

> <Gold.Chemscore.Lipo.Weighted>
-8.3739

> <Gold.Chemscore.Internal_Hbond.Weighted>
0.0000

> <Gold.Chemscore.DEClash.Weighted>
0.1848

> <Gold.Chemscore.DEInternal.Weighted>
0.5590

> <Gold.Chemscore.Rot.Weighted>
6.1020

> <Gold.Chemscore.Internal.Correction.Weighted>
   9.000000E+99

> <Gold.Protein.RotatedTorsions>
[ 6907 6896 6895 6894 ] final   19.22 input  -60.11 | X-H torsion
[ 7974 7965 7964 7962 ] final  159.61 input  175.53 | X-H torsion
[ 8008 7997 7996 7995 ] final   99.08 input   59.86 | X-H torsion
[ 10167 10162 10161 10158 ] final   65.37 input  -65.29 | X-H torsion
[ 10718 10713 10712 10709 ] final  -83.18 input   66.30 | X-H torsion
[ 10763 10752 10751 10750 ] final  -20.99 input  -60.55 | X-H torsion
[ 11005 11000 10999 10996 ] final  133.26 input  -57.11 | X-H torsion

> <Gold.Protein.ActiveResidues>
 VAL166  LYS551  ARG553  GLY616  TRP617  ASP618  TYR619  PRO620  LYS621  CYS622 
 ASP623  PHE694  ASN695  SER759  ASP760  ASP761  ALA762  ILE779  LEU786  VAL792 
 PHE793  MET794  SER795  GLU796  ALA797  LYS798  CYS799  TRP800  GLU811  SER814 

> <Gold.Protein.RotatedAtoms>
  151.8775  135.0466  160.0485 H   0  0  0  0  0  0  0  0  0  0  0  0  # atno 6907 bound_to 6896
  152.2539  133.5234  159.5350 H   0  0  0  0  0  0  0  0  0  0  0  0  # atno 6908 bound_to 6896
  150.7093  134.0839  159.3950 H   0  0  0  0  0  0  0  0  0  0  0  0  # atno 6909 bound_to 6896
  144.7781  139.7642  143.6271 H   0  0  0  0  0  0  0  0  0  0  0  0  # atno 7974 bound_to 7965
  156.1069  140.3234  155.8019 H   0  0  0  0  0  0  0  0  0  0  0  0  # atno 8008 bound_to 7997
  155.4740  140.0549  157.2993 H   0  0  0  0  0  0  0  0  0  0  0  0  # atno 8009 bound_to 7997
  154.4734  140.2021  155.9953 H   0  0  0  0  0  0  0  0  0  0  0  0  # atno 8010 bound_to 7997
  140.1120  144.4809  150.6972 H   0  0  0  0  0  0  0  0  0  0  0  0  # atno 10167 bound_to 10162
  156.0022  130.4657  150.4219 H   0  0  0  0  0  0  0  0  0  0  0  0  # atno 10718 bound_to 10713
  153.6290  135.6990  153.5282 H   0  0  0  0  0  0  0  0  0  0  0  0  # atno 10763 bound_to 10752
  153.2875  135.4167  155.1135 H   0  0  0  0  0  0  0  0  0  0  0  0  # atno 10764 bound_to 10752
  154.8526  135.3617  154.5833 H   0  0  0  0  0  0  0  0  0  0  0  0  # atno 10765 bound_to 10752
  139.9841  134.9538  156.9700 H   0  0  0  0  0  0  0  0  0  0  0  0  # atno 11005 bound_to 11000
  146.1972  139.5246  142.9766 LP  0  0  0  0  0  0  0  0  0  0  0  0  # atno 17320 bound_to 7965
  145.6129  141.0336  143.1957 LP  0  0  0  0  0  0  0  0  0  0  0  0  # atno 17321 bound_to 7965
  140.6920  143.2381  151.5104 LP  0  0  0  0  0  0  0  0  0  0  0  0  # atno 17342 bound_to 10162
  139.5614  144.2147  152.1697 LP  0  0  0  0  0  0  0  0  0  0  0  0  # atno 17343 bound_to 10162
  157.2274  131.0496  151.2512 LP  0  0  0  0  0  0  0  0  0  0  0  0  # atno 17370 bound_to 10713
  157.3743  130.7198  149.6586 LP  0  0  0  0  0  0  0  0  0  0  0  0  # atno 17371 bound_to 10713
  140.5038  134.1070  155.7256 LP  0  0  0  0  0  0  0  0  0  0  0  0  # atno 17394 bound_to 11000
  141.1508  133.8971  157.2101 LP  0  0  0  0  0  0  0  0  0  0  0  0  # atno 17395 bound_to 11000

$$$$
