AV-unprocessed.smi:3303|AV-procd|sdf|12679|dock1
  -GOLD-   2272019 13D 1   1.00000     0.00000
 Structure written by MMmdl.
 44 45  0  0  0  0  0  0  0  0  2 V2000
  148.4273  141.6506  154.0446 C   0  0  0  0  0  0  0  0  0  0  0  0
  149.5081  140.7954  154.7268 C   0  0  2  0  0  0  0  0  0  0  0  0
  148.9613  139.4283  155.1840 C   0  0  0  0  0  0  0  0  0  0  0  0
  150.0509  138.6013  155.7038 N   0  0  0  0  0  0  0  0  0  0  0  0
  149.5942  137.2367  155.9368 C   0  0  0  0  0  0  0  0  0  0  0  0
  150.7262  139.1870  156.8718 C   0  0  2  0  0  0  0  0  0  0  0  0
  149.8792  139.1856  158.1659 C   0  0  0  0  0  0  0  0  0  0  0  0
  151.2784  140.5834  156.4990 C   0  0  0  0  0  0  0  0  0  0  0  0
  150.2250  141.5298  155.8801 C   0  0  2  0  0  0  0  0  0  0  0  0
  149.2590  142.0404  156.8823 N   0  3  0  0  0  0  0  0  0  0  0  0
  149.8101  142.2845  158.2311 C   0  0  0  0  0  0  0  0  0  0  0  0
  151.1173  143.0840  158.1527 C   0  0  0  0  0  0  0  0  0  0  0  0
  151.9302  142.9744  159.4284 C   0  0  0  0  0  0  0  0  0  0  0  0
  153.1056  142.1947  159.4712 C   0  0  0  0  0  0  0  0  0  0  0  0
  153.8156  142.1182  160.6853 C   0  0  0  0  0  0  0  0  0  0  0  0
  153.3242  142.8192  161.8033 C   0  0  0  0  0  0  0  0  0  0  0  0
  152.1407  143.5698  161.6573 C   0  0  0  0  0  0  0  0  0  0  0  0
  151.4520  143.6492  160.4980 N   0  0  0  0  0  0  0  0  0  0  0  0
  147.5913  141.8574  154.7134 H   0  0  0  0  0  0  0  0  0  0  0  0
  148.0253  141.1414  153.1682 H   0  0  0  0  0  0  0  0  0  0  0  0
  148.8343  142.6054  153.7104 H   0  0  0  0  0  0  0  0  0  0  0  0
  150.2618  140.5949  153.9628 H   0  0  0  0  0  0  0  0  0  0  0  0
  148.1722  139.5464  155.9267 H   0  0  0  0  0  0  0  0  0  0  0  0
  148.5118  138.9212  154.3291 H   0  0  0  0  0  0  0  0  0  0  0  0
  150.4083  136.6177  156.3149 H   0  0  0  0  0  0  0  0  0  0  0  0
  149.2458  136.7907  155.0045 H   0  0  0  0  0  0  0  0  0  0  0  0
  148.7714  137.2021  156.6514 H   0  0  0  0  0  0  0  0  0  0  0  0
  151.5935  138.5573  157.0749 H   0  0  0  0  0  0  0  0  0  0  0  0
  150.4043  139.7042  158.9688 H   0  0  0  0  0  0  0  0  0  0  0  0
  149.6941  138.1717  158.5208 H   0  0  0  0  0  0  0  0  0  0  0  0
  148.9115  139.6692  158.0440 H   0  0  0  0  0  0  0  0  0  0  0  0
  151.7711  141.0385  157.3574 H   0  0  0  0  0  0  0  0  0  0  0  0
  152.0721  140.4417  155.7637 H   0  0  0  0  0  0  0  0  0  0  0  0
  150.7393  142.3946  155.4581 H   0  0  0  0  0  0  0  0  0  0  0  0
  148.9023  142.9206  156.5389 H   0  0  0  0  0  0  0  0  0  0  0  0
  149.0844  142.8308  158.8334 H   0  0  0  0  0  0  0  0  0  0  0  0
  149.9901  141.3295  158.7264 H   0  0  0  0  0  0  0  0  0  0  0  0
  151.7190  142.7367  157.3117 H   0  0  0  0  0  0  0  0  0  0  0  0
  150.9017  144.1366  157.9618 H   0  0  0  0  0  0  0  0  0  0  0  0
  153.4573  141.6658  158.5975 H   0  0  0  0  0  0  0  0  0  0  0  0
  154.7200  141.5321  160.7576 H   0  0  0  0  0  0  0  0  0  0  0  0
  153.8419  142.7831  162.7504 H   0  0  0  0  0  0  0  0  0  0  0  0
  151.7360  144.1194  162.4942 H   0  0  0  0  0  0  0  0  0  0  0  0
  148.4901  141.3889  156.9509 H   0  0  0  0  0  0  0  0  0  0  0  0
  1  2  1  0  0  0  0
  1 19  1  0  0  0  0
  1 20  1  0  0  0  0
  1 21  1  0  0  0  0
  2  9  1  0  0  0  0
  2  3  1  0  0  0  0
  2 22  1  0  0  0  0
  3  4  1  0  0  0  0
  3 23  1  0  0  0  0
  3 24  1  0  0  0  0
  4  5  1  0  0  0  0
  4  6  1  0  0  0  0
  5 25  1  0  0  0  0
  5 26  1  0  0  0  0
  5 27  1  0  0  0  0
  6  7  1  0  0  0  0
  6  8  1  0  0  0  0
  6 28  1  0  0  0  0
  7 29  1  0  0  0  0
  7 30  1  0  0  0  0
  7 31  1  0  0  0  0
  8  9  1  0  0  0  0
  8 32  1  0  0  0  0
  8 33  1  0  0  0  0
  9 10  1  0  0  0  0
  9 34  1  0  0  0  0
 10 11  1  0  0  0  0
 10 35  1  0  0  0  0
 10 44  1  0  0  0  0
 11 12  1  0  0  0  0
 11 36  1  0  0  0  0
 11 37  1  0  0  0  0
 12 13  1  0  0  0  0
 12 38  1  0  0  0  0
 12 39  1  0  0  0  0
 13 18  1  0  0  0  0
 13 14  2  0  0  0  0
 14 15  1  0  0  0  0
 14 40  1  0  0  0  0
 15 16  2  0  0  0  0
 15 41  1  0  0  0  0
 16 17  1  0  0  0  0
 16 42  1  0  0  0  0
 17 18  2  0  0  0  0
 17 43  1  0  0  0  0
M  CHG  1  10   1
M  END
> <s_m_source_file>
AV-unprocessed.smi

> <i_m_source_file_index>
3303

> <i_lp_mmshare_version>
43012

> <i_f3d_flags>
0

> <s_epik_input>
W0NIM11bQ0BASF0xW0NIMl1OKFtDSDNdKVtDQEBIXShbQ0gzXSlbQ0gyXVtDQEhdMVtOSF1bQ0gyXVtDSDJdYzJbY0hdW2NIXVtjSF1bY0hdbjI=

> <s_epik_cmdline>
J2VwaWtfcHl0aG9uJywgJy1waCcsICc3LjAnLCAnLXRuJywgJzgnLCAnLW1hJywgJzIwMCcsICctbWV0YWxfYmluZGluZycsICctaW1hZScsICc8aW5maWxlLm1hZT4nLCAnLW9tYWUnLCAnPG91dGZpbGUubWFlPic=

> <r_epik_Ionization_Penalty>
1.37325

> <r_epik_Ionization_Penalty_Charging>
0.000251572

> <r_epik_Ionization_Penalty_Neutral>
1.373

> <r_epik_State_Penalty>
1.46343

> <r_epik_Charging_Adjusted_Penalty>
1.46368

> <i_epik_Tot_Q>
1

> <i_epik_Tot_abs_Q>
1

> <r_epik_Metal_State_Penalty>
1.46331

> <b_epik_Metal_Only>
0

> <s_lp_Force_Field>
OPLS_2005

> <r_lp_Energy>
24.8082

> <b_lp_Chiralities_Consistent>
1

> <s_lp_Variant>
AV-unprocessed.smi:3303-23

> <Gold.Version>
5.8.1

> <Gold.Id.Protein>
6NUR|6NUR_protein|mol2

> <Gold.PLP.Fitness>
41.6588

> <Gold.PLP.PLP>
-36.6972

> <Gold.PLP.part.hbond>
-1.1763

> <Gold.PLP.part.metal>
0.0000

> <Gold.PLP.part.buried>
-3.6047

> <Gold.PLP.part.nonpolar>
-31.3228

> <Gold.PLP.part.repulsive>
0.1291

> <Gold.PLP.ligand.clash>
0.0000

> <Gold.PLP.ligand.torsion>
0.5243

> <Gold.PLP.Chemscore.Hbond>
2.0000

> <Gold.PLP.Chemscore.CHOScore>
0.0000

> <Gold.PLP.Chemscore.Metal>
0.0000

> <Gold.Chemscore.Hbonds>
donor molecule, donor type, donor heavy atom, donor atom, acceptor molecule, acceptor atom, score
      L1  H    10    35       P1  8028  2.00

> <Gold.PLP.Chemscore.Internal.Correction>
0.0100

> <Gold.Rescore>
     Score         DG    S(hbond)    S(metal)    S(lipo)     H(rot)  DE(clash)    DE(int)     intcor
     17.42     -18.14       0.99        0.00     108.94       1.33       0.37       0.35       ----

> <Gold.Chemscore.Fitness>
17.4200

> <Gold.Chemscore.DG>
-18.1358

> <Gold.Chemscore.ZeroCoef>
-5.4800

> <Gold.Chemscore.Hbond>
0.9922

> <Gold.Chemscore.Metal>
0.0000

> <Gold.Chemscore.Lipo>
108.9408

> <Gold.Chemscore.Internal_Hbond>
0.0000

> <Gold.Chemscore.DEClash>
0.3659

> <Gold.Chemscore.DEInternal>
0.3499

> <Gold.Chemscore.Rot>
1.3298

> <Gold.Chemscore.Internal.Correction>
   9.000000E+99

> <Gold.Chemscore.Hbonds>
donor molecule, donor type, donor heavy atom, donor atom, acceptor molecule, acceptor atom, score
      L1  H    10    35       P1  8028  0.94

> <Gold.Chemscore.Hbond.Weighted>
-3.3140

> <Gold.Chemscore.Metal.Weighted>
-0.0000

> <Gold.Chemscore.Lipo.Weighted>
-12.7461

> <Gold.Chemscore.Internal_Hbond.Weighted>
0.0000

> <Gold.Chemscore.DEClash.Weighted>
0.3659

> <Gold.Chemscore.DEInternal.Weighted>
0.3499

> <Gold.Chemscore.Rot.Weighted>
3.4043

> <Gold.Chemscore.Internal.Correction.Weighted>
   9.000000E+99

> <Gold.Protein.RotatedTorsions>
[ 6907 6896 6895 6894 ] final -152.10 input  -60.11 | X-H torsion
[ 7974 7965 7964 7962 ] final   52.80 input  175.53 | X-H torsion
[ 8008 7997 7996 7995 ] final -161.60 input   59.86 | X-H torsion
[ 10167 10162 10161 10158 ] final -157.06 input  -65.29 | X-H torsion
[ 10718 10713 10712 10709 ] final  163.17 input   66.30 | X-H torsion
[ 10763 10752 10751 10750 ] final  124.18 input  -60.55 | X-H torsion
[ 11005 11000 10999 10996 ] final  -34.24 input  -57.11 | X-H torsion

> <Gold.Protein.ActiveResidues>
 VAL166  LYS551  ARG553  GLY616  TRP617  ASP618  TYR619  PRO620  LYS621  CYS622 
 ASP623  PHE694  ASN695  SER759  ASP760  ASP761  ALA762  ILE779  LEU786  VAL792 
 PHE793  MET794  SER795  GLU796  ALA797  LYS798  CYS799  TRP800  GLU811  SER814 

> <Gold.Protein.RotatedAtoms>
  151.2228  133.4493  159.2600 H   0  0  0  0  0  0  0  0  0  0  0  0  # atno 6907 bound_to 6896
  151.0869  134.9892  159.8393 H   0  0  0  0  0  0  0  0  0  0  0  0  # atno 6908 bound_to 6896
  152.5430  134.2164  159.8823 H   0  0  0  0  0  0  0  0  0  0  0  0  # atno 6909 bound_to 6896
  145.9777  139.4211  143.0151 H   0  0  0  0  0  0  0  0  0  0  0  0  # atno 7974 bound_to 7965
  155.7945  140.0883  157.1991 H   0  0  0  0  0  0  0  0  0  0  0  0  # atno 8008 bound_to 7997
  154.3984  140.1484  156.3261 H   0  0  0  0  0  0  0  0  0  0  0  0  # atno 8009 bound_to 7997
  155.8525  140.3434  155.5705 H   0  0  0  0  0  0  0  0  0  0  0  0  # atno 8010 bound_to 7997
  139.6801  143.9596  152.2332 H   0  0  0  0  0  0  0  0  0  0  0  0  # atno 10167 bound_to 10162
  157.1123  131.0471  151.2452 H   0  0  0  0  0  0  0  0  0  0  0  0  # atno 10718 bound_to 10713
  153.6573  135.3352  155.3117 H   0  0  0  0  0  0  0  0  0  0  0  0  # atno 10763 bound_to 10752
  154.8523  135.4355  154.1841 H   0  0  0  0  0  0  0  0  0  0  0  0  # atno 10764 bound_to 10752
  153.2799  135.7008  153.7471 H   0  0  0  0  0  0  0  0  0  0  0  0  # atno 10765 bound_to 10752
  140.9700  133.7115  156.1508 H   0  0  0  0  0  0  0  0  0  0  0  0  # atno 11005 bound_to 11000
  145.7815  140.9854  143.1097 LP  0  0  0  0  0  0  0  0  0  0  0  0  # atno 17320 bound_to 7965
  144.6853  139.9570  143.7479 LP  0  0  0  0  0  0  0  0  0  0  0  0  # atno 17321 bound_to 7965
  139.9384  144.6697  150.8291 LP  0  0  0  0  0  0  0  0  0  0  0  0  # atno 17342 bound_to 10162
  140.7649  143.3261  151.2513 LP  0  0  0  0  0  0  0  0  0  0  0  0  # atno 17343 bound_to 10162
  157.4549  130.7619  149.7184 LP  0  0  0  0  0  0  0  0  0  0  0  0  # atno 17370 bound_to 10713
  155.9847  130.3989  150.3296 LP  0  0  0  0  0  0  0  0  0  0  0  0  # atno 17371 bound_to 10713
  140.7343  134.4220  157.5562 LP  0  0  0  0  0  0  0  0  0  0  0  0  # atno 17394 bound_to 11000
  139.8908  134.8794  156.2349 LP  0  0  0  0  0  0  0  0  0  0  0  0  # atno 17395 bound_to 11000

$$$$
