AV-unprocessed.smi:750|AV-procd|sdf|3588|dock7
  -GOLD-   22720 0583D 1   1.00000     0.00000
 Structure written by MMmdl.
 23 24  0  0  0  0  0  0  0  0  1 V2000
  147.2326  137.5021  155.4671 C   0  0  0  0  0  0  0  0  0  0  0  0
  147.5095  138.7347  154.5830 C   0  0  1  0  0  0  0  0  0  0  0  0
  148.6470  139.6084  155.1346 C   0  0  0  0  0  0  0  0  0  0  0  0
  148.5027  140.2810  156.3707 C   0  0  0  0  0  0  0  0  0  0  0  0
  149.5596  141.0740  156.8556 C   0  0  0  0  0  0  0  0  0  0  0  0
  150.7336  141.1681  156.0853 C   0  0  0  0  0  0  0  0  0  0  0  0
  150.8941  140.5351  154.9050 N   0  0  0  0  0  0  0  0  0  0  0  0
  149.8744  139.7772  154.4473 C   0  0  0  0  0  0  0  0  0  0  0  0
  147.7030  138.3165  153.1998 N   0  0  0  0  0  0  0  0  0  0  0  0
  146.7979  138.8389  152.3611 C   0  0  0  0  0  0  0  0  0  0  0  0
  146.7502  138.6615  151.1464 O   0  0  0  0  0  0  0  0  0  0  0  0
  145.9517  139.5788  153.0824 N   0  0  0  0  0  0  0  0  0  0  0  0
  146.2504  139.5740  154.3802 C   0  0  0  0  0  0  0  0  0  0  0  0
  145.6260  140.1393  155.2768 O   0  0  0  0  0  0  0  0  0  0  0  0
  146.9536  137.7821  156.4832 H   0  0  0  0  0  0  0  0  0  0  0  0
  148.1139  136.8634  155.5326 H   0  0  0  0  0  0  0  0  0  0  0  0
  146.4190  136.8958  155.0661 H   0  0  0  0  0  0  0  0  0  0  0  0
  147.5912  140.1980  156.9435 H   0  0  0  0  0  0  0  0  0  0  0  0
  149.4711  141.5987  157.7952 H   0  0  0  0  0  0  0  0  0  0  0  0
  151.5647  141.7680  156.4254 H   0  0  0  0  0  0  0  0  0  0  0  0
  150.0606  139.2960  153.4990 H   0  0  0  0  0  0  0  0  0  0  0  0
  148.4576  137.7099  152.9134 H   0  0  0  0  0  0  0  0  0  0  0  0
  145.1634  140.0727  152.6900 H   0  0  0  0  0  0  0  0  0  0  0  0
  1  2  1  0  0  0  0
  1 15  1  0  0  0  0
  1 16  1  0  0  0  0
  1 17  1  0  0  0  0
  2 13  1  0  0  0  0
  2  3  1  0  0  0  0
  2  9  1  0  0  0  0
  3  8  1  0  0  0  0
  3  4  2  0  0  0  0
  4  5  1  0  0  0  0
  4 18  1  0  0  0  0
  5  6  2  0  0  0  0
  5 19  1  0  0  0  0
  6  7  1  0  0  0  0
  6 20  1  0  0  0  0
  7  8  2  0  0  0  0
  8 21  1  0  0  0  0
  9 10  1  0  0  0  0
  9 22  1  0  0  0  0
 10 11  2  0  0  0  0
 10 12  1  0  0  0  0
 12 13  1  0  0  0  0
 12 23  1  0  0  0  0
 13 14  2  0  0  0  0
M  END
> <s_m_source_file>
AV-unprocessed.smi

> <i_m_source_file_index>
750

> <i_lp_mmshare_version>
43012

> <i_f3d_flags>
0

> <s_epik_input>
Tz1DMVtOSF1DKD1PKVtOSF1bQ0BAXTEoW0NIM10pYzJbY0hdW2NIXVtjSF1uW2NIXTI=

> <s_epik_cmdline>
J2VwaWtfcHl0aG9uJywgJy1waCcsICc3LjAnLCAnLXRuJywgJzgnLCAnLW1hJywgJzIwMCcsICctbWV0YWxfYmluZGluZycsICctaW1hZScsICc8aW5maWxlLm1hZT4nLCAnLW9tYWUnLCAnPG91dGZpbGUubWFlPic=

> <r_lp_tautomer_probability>
1

> <r_epik_Ionization_Penalty>
0.0296909

> <r_epik_Ionization_Penalty_Charging>
0

> <r_epik_Ionization_Penalty_Neutral>
0.0296909

> <r_epik_State_Penalty>
0.022996

> <r_epik_Charging_Adjusted_Penalty>
0.022996

> <i_epik_Tot_Q>
0

> <i_epik_Tot_abs_Q>
0

> <r_epik_Metal_State_Penalty>
0.427807

> <b_epik_Metal_Only>
0

> <s_lp_Force_Field>
OPLS_2005

> <r_lp_Energy>
18.5111

> <b_lp_Chiralities_Consistent>
1

> <s_lp_Variant>
AV-unprocessed.smi:750-1

> <Gold.Version>
5.8.1

> <Gold.Id.Protein>
6NUR|6NUR_protein|mol2

> <Gold.PLP.Fitness>
32.3380

> <Gold.PLP.PLP>
-17.6955

> <Gold.PLP.part.hbond>
-4.2258

> <Gold.PLP.part.metal>
0.0000

> <Gold.PLP.part.buried>
-2.5138

> <Gold.PLP.part.nonpolar>
-11.7397

> <Gold.PLP.part.repulsive>
0.9744

> <Gold.PLP.ligand.clash>
0.0000

> <Gold.PLP.ligand.torsion>
0.1412

> <Gold.PLP.Chemscore.Hbond>
3.9360

> <Gold.PLP.Chemscore.CHOScore>
0.9996

> <Gold.PLP.Chemscore.Metal>
0.0000

> <Gold.Chemscore.Hbonds>
donor molecule, donor type, donor heavy atom, donor atom, acceptor molecule, acceptor atom, score
      L1  H     9    22       P1  7948  0.93
      L1  H    12    23       P1 10175  1.00
      P1  H  7954  7966       L1    11  0.96
      P1  H  7989  7998       L1     7  1.00
      L1  C     8    21       P1  7957  1.00

> <Gold.PLP.Chemscore.Internal.Correction>
0.1182

> <Gold.Rescore>
     Score         DG    S(hbond)    S(metal)    S(lipo)     H(rot)  DE(clash)    DE(int)     intcor
     17.17     -17.49       3.37        0.00      28.46       1.00       0.26       0.06       ----

> <Gold.Chemscore.Fitness>
17.1682

> <Gold.Chemscore.DG>
-17.4899

> <Gold.Chemscore.ZeroCoef>
-5.4800

> <Gold.Chemscore.Hbond>
3.3654

> <Gold.Chemscore.Metal>
0.0000

> <Gold.Chemscore.Lipo>
28.4572

> <Gold.Chemscore.Internal_Hbond>
0.0000

> <Gold.Chemscore.DEClash>
0.2615

> <Gold.Chemscore.DEInternal>
0.0602

> <Gold.Chemscore.Rot>
1.0000

> <Gold.Chemscore.Internal.Correction>
   9.000000E+99

> <Gold.Chemscore.Hbonds>
donor molecule, donor type, donor heavy atom, donor atom, acceptor molecule, acceptor atom, score
      L1  H     9    22       P1  7948  0.91
      L1  H    12    23       P1 10175  0.93
      P1  H  7954  7966       L1    11  0.86
      P1  H  7989  7998       L1     7  0.24

> <Gold.Chemscore.Hbond.Weighted>
-11.2404

> <Gold.Chemscore.Metal.Weighted>
-0.0000

> <Gold.Chemscore.Lipo.Weighted>
-3.3295

> <Gold.Chemscore.Internal_Hbond.Weighted>
0.0000

> <Gold.Chemscore.DEClash.Weighted>
0.2615

> <Gold.Chemscore.DEInternal.Weighted>
0.0602

> <Gold.Chemscore.Rot.Weighted>
2.5600

> <Gold.Chemscore.Internal.Correction.Weighted>
   9.000000E+99

> <Gold.Protein.RotatedTorsions>
[ 6907 6896 6895 6894 ] final   -6.75 input  -60.11 | X-H torsion
[ 7974 7965 7964 7962 ] final   23.15 input  175.53 | X-H torsion
[ 8008 7997 7996 7995 ] final -171.34 input   59.86 | X-H torsion
[ 10167 10162 10161 10158 ] final  162.76 input  -65.29 | X-H torsion
[ 10718 10713 10712 10709 ] final -141.39 input   66.30 | X-H torsion
[ 10763 10752 10751 10750 ] final  116.29 input  -60.55 | X-H torsion
[ 11005 11000 10999 10996 ] final   78.16 input  -57.11 | X-H torsion

> <Gold.Protein.ActiveResidues>
 VAL166  LYS551  ARG553  GLY616  TRP617  ASP618  TYR619  PRO620  LYS621  CYS622 
 ASP623  PHE694  ASN695  SER759  ASP760  ASP761  ALA762  ILE779  LEU786  VAL792 
 PHE793  MET794  SER795  GLU796  ALA797  LYS798  CYS799  TRP800  GLU811  SER814 

> <Gold.Protein.RotatedAtoms>
  151.4606  135.1038  159.9723 H   0  0  0  0  0  0  0  0  0  0  0  0  # atno 6907 bound_to 6896
  152.4854  133.8356  159.7136 H   0  0  0  0  0  0  0  0  0  0  0  0  # atno 6908 bound_to 6896
  150.8960  133.7121  159.2919 H   0  0  0  0  0  0  0  0  0  0  0  0  # atno 6909 bound_to 6896
  146.1997  139.7785  142.8770 H   0  0  0  0  0  0  0  0  0  0  0  0  # atno 7974 bound_to 7965
  155.9302  140.1090  157.1138 H   0  0  0  0  0  0  0  0  0  0  0  0  # atno 8008 bound_to 7997
  154.4069  140.1239  156.4859 H   0  0  0  0  0  0  0  0  0  0  0  0  # atno 8009 bound_to 7997
  155.7089  140.3471  155.4967 H   0  0  0  0  0  0  0  0  0  0  0  0  # atno 8010 bound_to 7997
  139.4865  144.4405  151.8958 H   0  0  0  0  0  0  0  0  0  0  0  0  # atno 10167 bound_to 10162
  156.3334  130.7598  151.1721 H   0  0  0  0  0  0  0  0  0  0  0  0  # atno 10718 bound_to 10713
  153.5350  135.3570  155.2693 H   0  0  0  0  0  0  0  0  0  0  0  0  # atno 10763 bound_to 10752
  154.8723  135.4077  154.3108 H   0  0  0  0  0  0  0  0  0  0  0  0  # atno 10764 bound_to 10752
  153.3804  135.7068  153.6638 H   0  0  0  0  0  0  0  0  0  0  0  0  # atno 10765 bound_to 10752
  139.9224  134.7741  156.1613 H   0  0  0  0  0  0  0  0  0  0  0  0  # atno 11005 bound_to 11000
  145.3525  141.0310  143.3331 LP  0  0  0  0  0  0  0  0  0  0  0  0  # atno 17320 bound_to 7965
  144.8657  139.5112  143.6791 LP  0  0  0  0  0  0  0  0  0  0  0  0  # atno 17321 bound_to 7965
  140.3857  144.2680  150.5904 LP  0  0  0  0  0  0  0  0  0  0  0  0  # atno 17342 bound_to 10162
  140.5193  143.2270  151.8414 LP  0  0  0  0  0  0  0  0  0  0  0  0  # atno 17343 bound_to 10162
  157.7434  131.0475  150.4946 LP  0  0  0  0  0  0  0  0  0  0  0  0  # atno 17370 bound_to 10713
  156.5115  130.4140  149.6298 LP  0  0  0  0  0  0  0  0  0  0  0  0  # atno 17371 bound_to 10713
  141.0756  133.6777  156.2229 LP  0  0  0  0  0  0  0  0  0  0  0  0  # atno 17394 bound_to 11000
  140.6434  134.5142  157.5571 LP  0  0  0  0  0  0  0  0  0  0  0  0  # atno 17395 bound_to 11000

$$$$
