AV-unprocessed.smi:1575|AV-procd|sdf|6342|dock1
  -GOLD-   22720 6563D 1   1.00000     0.00000
 Structure written by MMmdl.
 40 40  0  0  0  0  0  0  0  0  2 V2000
  145.6015  137.2038  151.9757 C   0  0  0  0  0  0  0  0  0  0  0  0
  146.2376  135.9009  152.0919 N   0  0  0  0  0  0  0  0  0  0  0  0
  145.6289  134.8045  152.5661 C   0  0  0  0  0  0  0  0  0  0  0  0
  144.4642  134.8037  152.9682 O   0  0  0  0  0  0  0  0  0  0  0  0
  146.4751  133.5210  152.6118 C   0  0  1  0  0  0  0  0  0  0  0  0
  146.7262  133.0666  151.1540 C   0  0  0  0  0  0  0  0  0  0  0  0
  145.5917  132.2288  150.5202 C   0  0  0  0  0  0  0  0  0  0  0  0
  145.3147  130.9733  151.3611 C   0  0  0  0  0  0  0  0  0  0  0  0
  145.8897  131.8409  149.0622 C   0  0  0  0  0  0  0  0  0  0  0  0
  147.7624  133.8025  153.2466 N   0  0  0  0  0  0  0  0  0  0  0  0
  148.3542  133.0332  154.1733 C   0  0  0  0  0  0  0  0  0  0  0  0
  147.8816  131.9653  154.5652 O   0  0  0  0  0  0  0  0  0  0  0  0
  149.6967  133.5426  154.7142 C   0  0  0  0  0  0  0  0  0  0  0  0
  150.2827  132.6503  155.7273 N   0  0  0  0  0  0  0  0  0  0  0  0
  150.4949  131.3064  155.3730 C   0  0  0  0  0  0  0  0  0  0  0  0
  151.0236  130.4189  156.2368 C   0  0  0  0  0  0  0  0  0  0  0  0
  151.3798  130.8829  157.5718 C   0  0  0  0  0  0  0  0  0  0  0  0
  151.8690  130.0877  158.3719 O   0  0  0  0  0  0  0  0  0  0  0  0
  151.1496  132.1951  157.8698 N   0  5  0  0  0  0  0  0  0  0  0  0
  150.6092  133.0862  156.9817 C   0  0  0  0  0  0  0  0  0  0  0  0
  150.4085  134.2660  157.2720 O   0  0  0  0  0  0  0  0  0  0  0  0
  146.3036  137.9245  151.5573 H   0  0  0  0  0  0  0  0  0  0  0  0
  145.2799  137.5677  152.9520 H   0  0  0  0  0  0  0  0  0  0  0  0
  144.7323  137.1535  151.3188 H   0  0  0  0  0  0  0  0  0  0  0  0
  147.1960  135.8236  151.7840 H   0  0  0  0  0  0  0  0  0  0  0  0
  145.9368  132.7490  153.1638 H   0  0  0  0  0  0  0  0  0  0  0  0
  146.9031  133.9419  150.5266 H   0  0  0  0  0  0  0  0  0  0  0  0
  147.6499  132.4858  151.1159 H   0  0  0  0  0  0  0  0  0  0  0  0
  144.6756  132.8201  150.5260 H   0  0  0  0  0  0  0  0  0  0  0  0
  146.1882  130.3216  151.3991 H   0  0  0  0  0  0  0  0  0  0  0  0
  144.4867  130.3967  150.9476 H   0  0  0  0  0  0  0  0  0  0  0  0
  145.0498  131.2355  152.3859 H   0  0  0  0  0  0  0  0  0  0  0  0
  146.8236  131.2841  148.9825 H   0  0  0  0  0  0  0  0  0  0  0  0
  145.9655  132.7179  148.4200 H   0  0  0  0  0  0  0  0  0  0  0  0
  145.0952  131.2156  148.6537 H   0  0  0  0  0  0  0  0  0  0  0  0
  148.2186  134.6649  152.9871 H   0  0  0  0  0  0  0  0  0  0  0  0
  150.3773  133.6634  153.8705 H   0  0  0  0  0  0  0  0  0  0  0  0
  149.5728  134.5450  155.1284 H   0  0  0  0  0  0  0  0  0  0  0  0
  150.1985  131.0428  154.3683 H   0  0  0  0  0  0  0  0  0  0  0  0
  151.1773  129.3891  155.9502 H   0  0  0  0  0  0  0  0  0  0  0  0
  1  2  1  0  0  0  0
  1 22  1  0  0  0  0
  1 23  1  0  0  0  0
  1 24  1  0  0  0  0
  2  3  1  0  0  0  0
  2 25  1  0  0  0  0
  3  4  2  0  0  0  0
  3  5  1  0  0  0  0
  5  6  1  0  0  0  0
  5 10  1  0  0  0  0
  5 26  1  0  0  0  0
  6  7  1  0  0  0  0
  6 27  1  0  0  0  0
  6 28  1  0  0  0  0
  7  8  1  0  0  0  0
  7  9  1  0  0  0  0
  7 29  1  0  0  0  0
  8 30  1  0  0  0  0
  8 31  1  0  0  0  0
  8 32  1  0  0  0  0
  9 33  1  0  0  0  0
  9 34  1  0  0  0  0
  9 35  1  0  0  0  0
 10 11  1  0  0  0  0
 10 36  1  0  0  0  0
 11 12  2  0  0  0  0
 11 13  1  0  0  0  0
 13 14  1  0  0  0  0
 13 37  1  0  0  0  0
 13 38  1  0  0  0  0
 14 20  1  0  0  0  0
 14 15  1  0  0  0  0
 15 16  2  0  0  0  0
 15 39  1  0  0  0  0
 16 17  1  0  0  0  0
 16 40  1  0  0  0  0
 17 18  2  0  0  0  0
 17 19  1  0  0  0  0
 19 20  1  0  0  0  0
 20 21  2  0  0  0  0
M  CHG  1  19  -1
M  END
> <s_m_source_file>
AV-unprocessed.smi

> <i_m_source_file_index>
1575

> <i_lp_mmshare_version>
43012

> <i_f3d_flags>
0

> <s_epik_input>
W0NIM11bTkhdQyg9TylbQ0BIXShbQ0gyXVtDSF0oW0NIM10pW0NIM10pW05IXUMoPU8pW0NIMl1uMVtjSF1bY0hdYyg9TylbbkhdYzE9Tw==

> <s_epik_cmdline>
J2VwaWtfcHl0aG9uJywgJy1waCcsICc3LjAnLCAnLXRuJywgJzgnLCAnLW1hJywgJzIwMCcsICctbWV0YWxfYmluZGluZycsICctaW1hZScsICc8aW5maWxlLm1hZT4nLCAnLW9tYWUnLCAnPG91dGZpbGUubWFlPic=

> <r_lp_tautomer_probability>
0.999537

> <r_epik_Ionization_Penalty>
3.03017

> <r_epik_Ionization_Penalty_Charging>
2.35557e-08

> <r_epik_Ionization_Penalty_Neutral>
3.03017

> <r_epik_State_Penalty>
3.02913

> <r_epik_Charging_Adjusted_Penalty>
3.02913

> <i_epik_Tot_Q>
-1

> <i_epik_Tot_abs_Q>
1

> <r_epik_Metal_State_Penalty>
0.455824

> <b_epik_Metal_Only>
1

> <s_lp_Force_Field>
OPLS_2005

> <r_lp_Energy>
14.624

> <b_lp_Chiralities_Consistent>
1

> <s_lp_Variant>
AV-unprocessed.smi:1575-4

> <Gold.Version>
5.8.1

> <Gold.Id.Protein>
6NUR|6NUR_protein|mol2

> <Gold.PLP.Fitness>
44.2177

> <Gold.PLP.PLP>
-33.1699

> <Gold.PLP.part.hbond>
-4.0000

> <Gold.PLP.part.metal>
0.0000

> <Gold.PLP.part.buried>
-3.1556

> <Gold.PLP.part.nonpolar>
-27.2446

> <Gold.PLP.part.repulsive>
0.1380

> <Gold.PLP.ligand.clash>
0.0000

> <Gold.PLP.ligand.torsion>
0.6063

> <Gold.PLP.Chemscore.Hbond>
4.0000

> <Gold.PLP.Chemscore.CHOScore>
0.0000

> <Gold.PLP.Chemscore.Metal>
0.0000

> <Gold.Chemscore.Hbonds>
donor molecule, donor type, donor heavy atom, donor atom, acceptor molecule, acceptor atom, score
      L1  H     2    25       P1  7948  1.00
      L1  H    10    36       P1  7948  1.00
      P1  H  6896  6907       L1    19  2.00
      P1  H  6896  6908       L1    21  0.04

> <Gold.PLP.Chemscore.Internal.Correction>
0.2602

> <Gold.Rescore>
     Score         DG    S(hbond)    S(metal)    S(lipo)     H(rot)  DE(clash)    DE(int)     intcor
     11.87     -14.47       2.50        0.00      65.45       2.74       0.03       2.57       ----

> <Gold.Chemscore.Fitness>
11.8729

> <Gold.Chemscore.DG>
-14.4711

> <Gold.Chemscore.ZeroCoef>
-5.4800

> <Gold.Chemscore.Hbond>
2.5020

> <Gold.Chemscore.Metal>
0.0000

> <Gold.Chemscore.Lipo>
65.4514

> <Gold.Chemscore.Internal_Hbond>
0.0000

> <Gold.Chemscore.DEClash>
0.0310

> <Gold.Chemscore.DEInternal>
2.5672

> <Gold.Chemscore.Rot>
2.7435

> <Gold.Chemscore.Internal.Correction>
   9.000000E+99

> <Gold.Chemscore.Hbonds>
donor molecule, donor type, donor heavy atom, donor atom, acceptor molecule, acceptor atom, score
      L1  H     2    25       P1  7948  0.98
      L1  H    10    36       P1  7948  0.61
      P1  H  6896  6907       L1    19  0.38
      P1  H  6896  6908       L1    21  0.03

> <Gold.Chemscore.Hbond.Weighted>
-8.3566

> <Gold.Chemscore.Metal.Weighted>
-0.0000

> <Gold.Chemscore.Lipo.Weighted>
-7.6578

> <Gold.Chemscore.Internal_Hbond.Weighted>
0.0000

> <Gold.Chemscore.DEClash.Weighted>
0.0310

> <Gold.Chemscore.DEInternal.Weighted>
2.5672

> <Gold.Chemscore.Rot.Weighted>
7.0233

> <Gold.Chemscore.Internal.Correction.Weighted>
   9.000000E+99

> <Gold.Protein.RotatedTorsions>
[ 6907 6896 6895 6894 ] final  177.60 input  -60.11 | X-H torsion
[ 7974 7965 7964 7962 ] final  131.16 input  175.53 | X-H torsion
[ 8008 7997 7996 7995 ] final   24.31 input   59.86 | X-H torsion
[ 10167 10162 10161 10158 ] final  115.96 input  -65.29 | X-H torsion
[ 10718 10713 10712 10709 ] final   10.50 input   66.30 | X-H torsion
[ 10763 10752 10751 10750 ] final  138.73 input  -60.55 | X-H torsion
[ 11005 11000 10999 10996 ] final  168.83 input  -57.11 | X-H torsion

> <Gold.Protein.ActiveResidues>
 VAL166  LYS551  ARG553  GLY616  TRP617  ASP618  TYR619  PRO620  LYS621  CYS622 
 ASP623  PHE694  ASN695  SER759  ASP760  ASP761  ALA762  ILE779  LEU786  VAL792 
 PHE793  MET794  SER795  GLU796  ALA797  LYS798  CYS799  TRP800  GLU811  SER814 

> <Gold.Protein.RotatedAtoms>
  151.7013  133.3311  159.3267 H   0  0  0  0  0  0  0  0  0  0  0  0  # atno 6907 bound_to 6896
  150.7735  134.6613  159.6350 H   0  0  0  0  0  0  0  0  0  0  0  0  # atno 6908 bound_to 6896
  152.3768  134.6654  160.0209 H   0  0  0  0  0  0  0  0  0  0  0  0  # atno 6909 bound_to 6896
  145.0103  139.4227  143.5248 H   0  0  0  0  0  0  0  0  0  0  0  0  # atno 7974 bound_to 7965
  154.9943  140.3117  155.4893 H   0  0  0  0  0  0  0  0  0  0  0  0  # atno 8008 bound_to 7997
  156.2935  140.2243  156.4990 H   0  0  0  0  0  0  0  0  0  0  0  0  # atno 8009 bound_to 7997
  154.7675  140.0454  157.1012 H   0  0  0  0  0  0  0  0  0  0  0  0  # atno 8010 bound_to 7997
  139.6281  144.7111  151.2491 H   0  0  0  0  0  0  0  0  0  0  0  0  # atno 10167 bound_to 10162
  156.9819  130.6009  149.5677 H   0  0  0  0  0  0  0  0  0  0  0  0  # atno 10718 bound_to 10713
  153.8944  135.3029  155.3448 H   0  0  0  0  0  0  0  0  0  0  0  0  # atno 10763 bound_to 10752
  154.7701  135.4890  153.9634 H   0  0  0  0  0  0  0  0  0  0  0  0  # atno 10764 bound_to 10752
  153.1280  135.6797  153.9325 H   0  0  0  0  0  0  0  0  0  0  0  0  # atno 10765 bound_to 10752
  140.2914  134.7670  157.3841 H   0  0  0  0  0  0  0  0  0  0  0  0  # atno 11005 bound_to 11000
  146.3468  139.9542  142.8725 LP  0  0  0  0  0  0  0  0  0  0  0  0  # atno 17320 bound_to 7965
  145.2033  140.9864  143.4143 LP  0  0  0  0  0  0  0  0  0  0  0  0  # atno 17321 bound_to 7965
  140.7423  143.6531  150.8231 LP  0  0  0  0  0  0  0  0  0  0  0  0  # atno 17342 bound_to 10162
  140.0152  143.5600  152.2823 LP  0  0  0  0  0  0  0  0  0  0  0  0  # atno 17343 bound_to 10162
  156.0241  130.5335  150.8357 LP  0  0  0  0  0  0  0  0  0  0  0  0  # atno 17370 bound_to 10713
  157.5520  131.0944  150.9682 LP  0  0  0  0  0  0  0  0  0  0  0  0  # atno 17371 bound_to 10713
  140.1192  134.5242  155.8198 LP  0  0  0  0  0  0  0  0  0  0  0  0  # atno 17394 bound_to 11000
  141.2145  133.6750  156.6834 LP  0  0  0  0  0  0  0  0  0  0  0  0  # atno 17395 bound_to 11000

$$$$
