AV-unprocessed.smi:740|AV-procd|sdf|3548|dock4
  -GOLD-   22720 0543D 1   1.00000     0.00000
 Structure written by MMmdl.
 44 46  0  0  0  0  0  0  0  0  1 V2000
  151.8870  145.5099  159.1942 C   0  0  0  0  0  0  0  0  0  0  0  0
  151.7619  144.0205  158.9251 C   0  0  0  0  0  0  0  0  0  0  0  0
  151.2711  143.5875  157.6729 C   0  0  0  0  0  0  0  0  0  0  0  0
  151.1365  142.2119  157.3838 C   0  0  0  0  0  0  0  0  0  0  0  0
  150.6823  141.5742  156.2420 N   0  0  0  0  0  0  0  0  0  0  0  0
  150.7929  140.2950  156.5883 C   0  0  0  0  0  0  0  0  0  0  0  0
  151.2678  140.0280  157.8200 N   0  0  0  0  0  0  0  0  0  0  0  0
  151.4695  138.7166  158.4100 C   0  0  0  0  0  0  0  0  0  0  0  0
  150.1649  138.1169  158.9689 C   0  0  2  0  0  0  0  0  0  0  0  0
  150.4816  136.9522  159.7071 O   0  0  0  0  0  0  0  0  0  0  0  0
  149.1812  137.7391  157.8421 C   0  0  0  0  0  0  0  0  0  0  0  0
  148.2811  136.6520  158.2432 N   0  0  0  0  0  0  0  0  0  0  0  0
  147.5110  136.6812  159.3396 C   0  0  0  0  0  0  0  0  0  0  0  0
  147.4300  137.6053  160.1484 O   0  0  0  0  0  0  0  0  0  0  0  0
  146.7203  135.3888  159.4864 C   0  0  0  0  0  0  0  0  0  0  0  0
  147.1664  134.5620  158.2710 C   0  0  2  0  0  0  0  0  0  0  0  0
  147.8070  133.2138  158.6402 C   0  0  0  0  0  0  0  0  0  0  0  0
  148.1614  135.4929  157.5805 C   0  0  0  0  0  0  0  0  0  0  0  0
  148.7591  135.1812  156.5504 O   0  0  0  0  0  0  0  0  0  0  0  0
  151.5116  141.2734  158.3891 C   0  0  0  0  0  0  0  0  0  0  0  0
  152.0021  141.6919  159.6388 C   0  0  0  0  0  0  0  0  0  0  0  0
  152.1280  143.0701  159.9119 C   0  0  0  0  0  0  0  0  0  0  0  0
  152.6544  143.5119  161.2658 C   0  0  0  0  0  0  0  0  0  0  0  0
  151.5994  146.0979  158.3222 H   0  0  0  0  0  0  0  0  0  0  0  0
  152.9154  145.7689  159.4469 H   0  0  0  0  0  0  0  0  0  0  0  0
  151.2420  145.8024  160.0231 H   0  0  0  0  0  0  0  0  0  0  0  0
  150.9910  144.3109  156.9214 H   0  0  0  0  0  0  0  0  0  0  0  0
  150.5110  139.5045  155.9081 H   0  0  0  0  0  0  0  0  0  0  0  0
  151.8839  138.0622  157.6419 H   0  0  0  0  0  0  0  0  0  0  0  0
  152.2256  138.7942  159.1924 H   0  0  0  0  0  0  0  0  0  0  0  0
  149.7063  138.8426  159.6421 H   0  0  0  0  0  0  0  0  0  0  0  0
  150.3084  137.1179  160.6211 H   0  0  0  0  0  0  0  0  0  0  0  0
  148.5686  138.6062  157.5884 H   0  0  0  0  0  0  0  0  0  0  0  0
  149.7193  137.4940  156.9244 H   0  0  0  0  0  0  0  0  0  0  0  0
  146.9645  134.9063  160.4334 H   0  0  0  0  0  0  0  0  0  0  0  0
  145.6493  135.5931  159.4669 H   0  0  0  0  0  0  0  0  0  0  0  0
  146.3213  134.3976  157.6013 H   0  0  0  0  0  0  0  0  0  0  0  0
  148.1184  132.6667  157.7498 H   0  0  0  0  0  0  0  0  0  0  0  0
  147.1001  132.5842  159.1808 H   0  0  0  0  0  0  0  0  0  0  0  0
  148.6847  133.3467  159.2743 H   0  0  0  0  0  0  0  0  0  0  0  0
  152.2754  140.9577  160.3820 H   0  0  0  0  0  0  0  0  0  0  0  0
  152.8669  142.6566  161.9080 H   0  0  0  0  0  0  0  0  0  0  0  0
  151.9219  144.1383  161.7754 H   0  0  0  0  0  0  0  0  0  0  0  0
  153.5771  144.0807  161.1496 H   0  0  0  0  0  0  0  0  0  0  0  0
  1  2  1  0  0  0  0
  1 24  1  0  0  0  0
  1 25  1  0  0  0  0
  1 26  1  0  0  0  0
  2 22  1  0  0  0  0
  2  3  2  0  0  0  0
  3  4  1  0  0  0  0
  3 27  1  0  0  0  0
  4 20  2  0  0  0  0
  4  5  1  0  0  0  0
  5  6  2  0  0  0  0
  6  7  1  0  0  0  0
  6 28  1  0  0  0  0
  7  8  1  0  0  0  0
  7 20  1  0  0  0  0
  8  9  1  0  0  0  0
  8 29  1  0  0  0  0
  8 30  1  0  0  0  0
  9 10  1  0  0  0  0
  9 11  1  0  0  0  0
  9 31  1  0  0  0  0
 10 32  1  0  0  0  0
 11 12  1  0  0  0  0
 11 33  1  0  0  0  0
 11 34  1  0  0  0  0
 12 18  1  0  0  0  0
 12 13  1  0  0  0  0
 13 14  2  0  0  0  0
 13 15  1  0  0  0  0
 15 16  1  0  0  0  0
 15 35  1  0  0  0  0
 15 36  1  0  0  0  0
 16 17  1  0  0  0  0
 16 18  1  0  0  0  0
 16 37  1  0  0  0  0
 17 38  1  0  0  0  0
 17 39  1  0  0  0  0
 17 40  1  0  0  0  0
 18 19  2  0  0  0  0
 20 21  1  0  0  0  0
 21 22  2  0  0  0  0
 21 41  1  0  0  0  0
 22 23  1  0  0  0  0
 23 42  1  0  0  0  0
 23 43  1  0  0  0  0
 23 44  1  0  0  0  0
M  END
> <s_m_source_file>
AV-unprocessed.smi

> <i_m_source_file_index>
740

> <i_lp_mmshare_version>
43012

> <i_f3d_flags>
0

> <s_epik_input>
W0NIM11jKFtjSF0xKWMoW0NIM10pW2NIXWMoYzEyKW4oW2NIXW4yKVtDSDJdW0NASF0oW09IXSlbQ0gyXU4zQyg9TylbQ0gyXVtDQEBIXShbQ0gzXSlDMz1P

> <s_epik_cmdline>
J2VwaWtfcHl0aG9uJywgJy1waCcsICc3LjAnLCAnLXRuJywgJzgnLCAnLW1hJywgJzIwMCcsICctbWV0YWxfYmluZGluZycsICctaW1hZScsICc8aW5maWxlLm1hZT4nLCAnLW9tYWUnLCAnPG91dGZpbGUubWFlPic=

> <r_lp_tautomer_probability>
1

> <r_epik_Ionization_Penalty>
0.104021

> <r_epik_Ionization_Penalty_Charging>
0

> <r_epik_Ionization_Penalty_Neutral>
0.104021

> <r_epik_State_Penalty>
0.0939354

> <r_epik_Charging_Adjusted_Penalty>
0.0939354

> <i_epik_Tot_Q>
0

> <i_epik_Tot_abs_Q>
0

> <r_epik_Metal_State_Penalty>
0.000101783

> <b_epik_Metal_Only>
0

> <s_lp_Force_Field>
OPLS_2005

> <r_lp_Energy>
16.7866

> <b_lp_Chiralities_Consistent>
1

> <s_lp_Variant>
AV-unprocessed.smi:740-3

> <Gold.Version>
5.8.1

> <Gold.Id.Protein>
6NUR|6NUR_protein|mol2

> <Gold.PLP.Fitness>
45.6515

> <Gold.PLP.PLP>
-39.7633

> <Gold.PLP.part.hbond>
-3.0000

> <Gold.PLP.part.metal>
0.0000

> <Gold.PLP.part.buried>
-3.9875

> <Gold.PLP.part.nonpolar>
-33.3446

> <Gold.PLP.part.repulsive>
0.0624

> <Gold.PLP.ligand.clash>
0.0000

> <Gold.PLP.ligand.torsion>
0.6732

> <Gold.PLP.Chemscore.Hbond>
2.4072

> <Gold.PLP.Chemscore.CHOScore>
0.0000

> <Gold.PLP.Chemscore.Metal>
0.0000

> <Gold.Chemscore.Hbonds>
donor molecule, donor type, donor heavy atom, donor atom, acceptor molecule, acceptor atom, score
      P1  H  6896  6909       L1    10  0.95
      P1  H  6934  6947       L1    14  0.93

> <Gold.PLP.Chemscore.Internal.Correction>
0.0130

> <Gold.Rescore>
     Score         DG    S(hbond)    S(metal)    S(lipo)     H(rot)  DE(clash)    DE(int)     intcor
     16.76     -18.40       2.00        0.00     103.99       2.31       1.05       0.59       ----

> <Gold.Chemscore.Fitness>
16.7556

> <Gold.Chemscore.DG>
-18.3981

> <Gold.Chemscore.ZeroCoef>
-5.4800

> <Gold.Chemscore.Hbond>
1.9990

> <Gold.Chemscore.Metal>
0.0000

> <Gold.Chemscore.Lipo>
103.9905

> <Gold.Chemscore.Internal_Hbond>
0.0000

> <Gold.Chemscore.DEClash>
1.0543

> <Gold.Chemscore.DEInternal>
0.5883

> <Gold.Chemscore.Rot>
2.3147

> <Gold.Chemscore.Internal.Correction>
   9.000000E+99

> <Gold.Chemscore.Hbonds>
donor molecule, donor type, donor heavy atom, donor atom, acceptor molecule, acceptor atom, score
      P1  H  6896  6909       L1    10  0.21
      P1  H  6931  6943       L1    14  0.02
      P1  H  6934  6947       L1    14  0.90

> <Gold.Chemscore.Hbond.Weighted>
-6.6768

> <Gold.Chemscore.Metal.Weighted>
-0.0000

> <Gold.Chemscore.Lipo.Weighted>
-12.1669

> <Gold.Chemscore.Internal_Hbond.Weighted>
0.0000

> <Gold.Chemscore.DEClash.Weighted>
1.0543

> <Gold.Chemscore.DEInternal.Weighted>
0.5883

> <Gold.Chemscore.Rot.Weighted>
5.9256

> <Gold.Chemscore.Internal.Correction.Weighted>
   9.000000E+99

> <Gold.Protein.RotatedTorsions>
[ 6907 6896 6895 6894 ] final   92.28 input  -60.11 | X-H torsion
[ 7974 7965 7964 7962 ] final   34.76 input  175.53 | X-H torsion
[ 8008 7997 7996 7995 ] final  -69.33 input   59.86 | X-H torsion
[ 10167 10162 10161 10158 ] final   54.98 input  -65.29 | X-H torsion
[ 10718 10713 10712 10709 ] final  -59.96 input   66.30 | X-H torsion
[ 10763 10752 10751 10750 ] final  162.73 input  -60.55 | X-H torsion
[ 11005 11000 10999 10996 ] final  -38.22 input  -57.11 | X-H torsion

> <Gold.Protein.ActiveResidues>
 VAL166  LYS551  ARG553  GLY616  TRP617  ASP618  TYR619  PRO620  LYS621  CYS622 
 ASP623  PHE694  ASN695  SER759  ASP760  ASP761  ALA762  ILE779  LEU786  VAL792 
 PHE793  MET794  SER795  GLU796  ALA797  LYS798  CYS799  TRP800  GLU811  SER814 

> <Gold.Protein.RotatedAtoms>
  152.5452  134.1527  159.8524 H   0  0  0  0  0  0  0  0  0  0  0  0  # atno 6907 bound_to 6896
  151.1552  133.4874  159.2602 H   0  0  0  0  0  0  0  0  0  0  0  0  # atno 6908 bound_to 6896
  151.1430  135.0200  159.8689 H   0  0  0  0  0  0  0  0  0  0  0  0  # atno 6909 bound_to 6896
  146.1331  139.6228  142.9213 H   0  0  0  0  0  0  0  0  0  0  0  0  # atno 7974 bound_to 7965
  154.4931  140.0855  156.7638 H   0  0  0  0  0  0  0  0  0  0  0  0  # atno 8008 bound_to 7997
  155.4182  140.3444  155.4251 H   0  0  0  0  0  0  0  0  0  0  0  0  # atno 8009 bound_to 7997
  156.1357  140.1514  156.8986 H   0  0  0  0  0  0  0  0  0  0  0  0  # atno 8010 bound_to 7997
  140.2243  144.3755  150.6438 H   0  0  0  0  0  0  0  0  0  0  0  0  # atno 10167 bound_to 10162
  156.1024  130.4184  150.0787 H   0  0  0  0  0  0  0  0  0  0  0  0  # atno 10718 bound_to 10713
  154.2828  135.2763  155.2689 H   0  0  0  0  0  0  0  0  0  0  0  0  # atno 10763 bound_to 10752
  154.5203  135.5758  153.6678 H   0  0  0  0  0  0  0  0  0  0  0  0  # atno 10764 bound_to 10752
  152.9926  135.6202  154.2989 H   0  0  0  0  0  0  0  0  0  0  0  0  # atno 10765 bound_to 10752
  141.0011  133.6955  156.2025 H   0  0  0  0  0  0  0  0  0  0  0  0  # atno 11005 bound_to 11000
  145.5217  141.0431  143.2431 LP  0  0  0  0  0  0  0  0  0  0  0  0  # atno 17320 bound_to 7965
  144.7711  139.6734  143.7194 LP  0  0  0  0  0  0  0  0  0  0  0  0  # atno 17321 bound_to 7965
  140.6232  143.2178  151.6651 LP  0  0  0  0  0  0  0  0  0  0  0  0  # atno 17342 bound_to 10162
  139.5133  144.3448  152.0706 LP  0  0  0  0  0  0  0  0  0  0  0  0  # atno 17343 bound_to 10162
  156.8771  130.9544  151.3603 LP  0  0  0  0  0  0  0  0  0  0  0  0  # atno 17370 bound_to 10713
  157.6197  130.8645  149.9087 LP  0  0  0  0  0  0  0  0  0  0  0  0  # atno 17371 bound_to 10713
  140.6887  134.4689  157.5589 LP  0  0  0  0  0  0  0  0  0  0  0  0  # atno 17394 bound_to 11000
  139.9039  134.8492  156.1782 LP  0  0  0  0  0  0  0  0  0  0  0  0  # atno 17395 bound_to 11000

$$$$
