AV-unprocessed.smi:2718|AV-procd|sdf|10491|dock8
  -GOLD-   2272014543D 1   1.00000     0.00000
 Structure written by MMmdl.
 47 48  0  0  0  0  0  0  0  0  1 V2000
  147.4167  134.7308  162.9872 C   0  0  0  0  0  0  0  0  0  0  0  0
  146.7113  134.8869  161.6547 C   0  0  0  0  0  0  0  0  0  0  0  0
  145.2262  134.5699  161.6829 C   0  0  0  0  0  0  0  0  0  0  0  0
  147.3708  135.2781  160.5473 C   0  0  0  0  0  0  0  0  0  0  0  0
  146.7899  135.4602  159.1844 C   0  0  1  0  0  0  0  0  0  0  0  0
  147.5946  135.9304  157.9785 C   0  0  1  0  0  0  0  0  0  0  0  0
  149.0662  136.1757  158.0909 C   0  0  0  0  0  0  0  0  0  0  0  0
  149.8774  135.2685  158.2770 O   0  0  0  0  0  0  0  0  0  0  0  0
  149.4298  137.4515  157.8912 N   0  0  0  0  0  0  0  0  0  0  0  0
  150.8018  137.9465  157.9179 C   0  0  0  0  0  0  0  0  0  0  0  0
  150.8759  139.4850  157.8262 C   0  0  1  0  0  0  0  0  0  0  0  0
  152.2643  140.0439  158.1845 C   0  0  0  0  0  0  0  0  0  0  0  0
  150.4259  139.9662  156.4749 C   0  0  0  0  0  0  0  0  0  0  0  0
  150.2421  139.1564  155.4232 N   0  0  0  0  0  0  0  0  0  0  0  0
  149.8175  139.9705  154.3927 N   0  0  0  0  0  0  0  0  0  0  0  0
  149.7809  141.1912  154.9243 C   0  0  0  0  0  0  0  0  0  0  0  0
  150.1432  141.2604  156.2139 N   0  0  0  0  0  0  0  0  0  0  0  0
  150.2007  142.4277  157.0713 C   0  0  0  0  0  0  0  0  0  0  0  0
  147.0681  134.4982  158.0419 C   0  0  0  0  0  0  0  0  0  0  0  0
  147.9741  133.2860  158.2494 C   0  0  0  0  0  0  0  0  0  0  0  0
  145.9302  134.1150  157.1119 C   0  0  0  0  0  0  0  0  0  0  0  0
  147.3219  133.7059  163.3467 H   0  0  0  0  0  0  0  0  0  0  0  0
  146.9752  135.3969  163.7285 H   0  0  0  0  0  0  0  0  0  0  0  0
  148.4785  134.9662  162.9100 H   0  0  0  0  0  0  0  0  0  0  0  0
  144.7201  135.2119  162.4046 H   0  0  0  0  0  0  0  0  0  0  0  0
  145.0699  133.5331  161.9812 H   0  0  0  0  0  0  0  0  0  0  0  0
  144.7479  134.7168  160.7149 H   0  0  0  0  0  0  0  0  0  0  0  0
  148.4289  135.4756  160.6343 H   0  0  0  0  0  0  0  0  0  0  0  0
  145.7753  135.8491  159.2503 H   0  0  0  0  0  0  0  0  0  0  0  0
  147.0886  136.5854  157.2718 H   0  0  0  0  0  0  0  0  0  0  0  0
  148.7024  138.1309  157.7201 H   0  0  0  0  0  0  0  0  0  0  0  0
  151.2705  137.6006  158.8397 H   0  0  0  0  0  0  0  0  0  0  0  0
  151.3656  137.4929  157.1007 H   0  0  0  0  0  0  0  0  0  0  0  0
  150.1867  139.8840  158.5697 H   0  0  0  0  0  0  0  0  0  0  0  0
  152.2674  141.1335  158.1426 H   0  0  0  0  0  0  0  0  0  0  0  0
  153.0282  139.6824  157.4954 H   0  0  0  0  0  0  0  0  0  0  0  0
  152.5647  139.7573  159.1924 H   0  0  0  0  0  0  0  0  0  0  0  0
  149.4779  142.0587  154.3565 H   0  0  0  0  0  0  0  0  0  0  0  0
  149.8839  143.3140  156.5212 H   0  0  0  0  0  0  0  0  0  0  0  0
  151.2218  142.5764  157.4235 H   0  0  0  0  0  0  0  0  0  0  0  0
  149.5405  142.2883  157.9279 H   0  0  0  0  0  0  0  0  0  0  0  0
  148.3921  132.9609  157.2963 H   0  0  0  0  0  0  0  0  0  0  0  0
  147.4058  132.4590  158.6760 H   0  0  0  0  0  0  0  0  0  0  0  0
  148.8034  133.5035  158.9222 H   0  0  0  0  0  0  0  0  0  0  0  0
  146.3210  133.7892  156.1476 H   0  0  0  0  0  0  0  0  0  0  0  0
  145.2655  134.9626  156.9425 H   0  0  0  0  0  0  0  0  0  0  0  0
  145.3434  133.3035  157.5433 H   0  0  0  0  0  0  0  0  0  0  0  0
  1  2  1  0  0  0  0
  1 22  1  0  0  0  0
  1 23  1  0  0  0  0
  1 24  1  0  0  0  0
  2  3  1  0  0  0  0
  2  4  2  0  0  0  0
  3 25  1  0  0  0  0
  3 26  1  0  0  0  0
  3 27  1  0  0  0  0
  4  5  1  0  0  0  0
  4 28  1  0  0  0  0
  5 19  1  0  0  0  0
  5  6  1  0  0  0  0
  5 29  1  0  0  0  0
  6  7  1  0  0  0  0
  6 19  1  0  0  0  0
  6 30  1  0  0  0  0
  7  8  2  0  0  0  0
  7  9  1  0  0  0  0
  9 10  1  0  0  0  0
  9 31  1  0  0  0  0
 10 11  1  0  0  0  0
 10 32  1  0  0  0  0
 10 33  1  0  0  0  0
 11 12  1  0  0  0  0
 11 13  1  0  0  0  0
 11 34  1  0  0  0  0
 12 35  1  0  0  0  0
 12 36  1  0  0  0  0
 12 37  1  0  0  0  0
 13 17  1  0  0  0  0
 13 14  2  0  0  0  0
 14 15  1  0  0  0  0
 15 16  2  0  0  0  0
 16 17  1  0  0  0  0
 16 38  1  0  0  0  0
 17 18  1  0  0  0  0
 18 39  1  0  0  0  0
 18 40  1  0  0  0  0
 18 41  1  0  0  0  0
 19 20  1  0  0  0  0
 19 21  1  0  0  0  0
 20 42  1  0  0  0  0
 20 43  1  0  0  0  0
 20 44  1  0  0  0  0
 21 45  1  0  0  0  0
 21 46  1  0  0  0  0
 21 47  1  0  0  0  0
M  END
> <s_m_source_file>
AV-unprocessed.smi

> <i_m_source_file_index>
2718

> <i_lp_mmshare_version>
43012

> <i_f3d_flags>
0

> <s_epik_input>
W0NIM11DKFtDSDNdKT1bQ0hdW0NAQEhdKEMxKFtDSDNdKVtDSDNdKVtDQEhdMUMoPU8pW05IXVtDSDJdW0NASF0oW0NIM10pYzJubltjSF1uMltDSDNd

> <s_epik_cmdline>
J2VwaWtfcHl0aG9uJywgJy1waCcsICc3LjAnLCAnLXRuJywgJzgnLCAnLW1hJywgJzIwMCcsICctbWV0YWxfYmluZGluZycsICctaW1hZScsICc8aW5maWxlLm1hZT4nLCAnLW9tYWUnLCAnPG91dGZpbGUubWFlPic=

> <r_lp_tautomer_probability>
1

> <r_epik_Ionization_Penalty>
0.000449586

> <r_epik_Ionization_Penalty_Charging>
0

> <r_epik_Ionization_Penalty_Neutral>
0.000449586

> <r_epik_State_Penalty>
0.000243372

> <r_epik_Charging_Adjusted_Penalty>
0.000243372

> <i_epik_Tot_Q>
0

> <i_epik_Tot_abs_Q>
0

> <r_epik_Metal_State_Penalty>
-0

> <b_epik_Metal_Only>
0

> <s_lp_Force_Field>
OPLS_2005

> <r_lp_Energy>
17.9129

> <b_lp_Chiralities_Consistent>
1

> <s_lp_Variant>
AV-unprocessed.smi:2718-6

> <Gold.Version>
5.8.1

> <Gold.Id.Protein>
6NUR|6NUR_protein|mol2

> <Gold.PLP.Fitness>
36.3722

> <Gold.PLP.PLP>
-28.0832

> <Gold.PLP.part.hbond>
-2.0000

> <Gold.PLP.part.metal>
0.0000

> <Gold.PLP.part.buried>
-4.8162

> <Gold.PLP.part.nonpolar>
-21.3645

> <Gold.PLP.part.repulsive>
0.2106

> <Gold.PLP.ligand.clash>
0.0575

> <Gold.PLP.ligand.torsion>
0.3968

> <Gold.PLP.Chemscore.Hbond>
1.9440

> <Gold.PLP.Chemscore.CHOScore>
1.0000

> <Gold.PLP.Chemscore.Metal>
0.0000

> <Gold.Chemscore.Hbonds>
donor molecule, donor type, donor heavy atom, donor atom, acceptor molecule, acceptor atom, score
      P1  H  6896  6907       L1     8  1.00

> <Gold.PLP.Chemscore.Internal.Correction>
0.3081

> <Gold.Rescore>
     Score         DG    S(hbond)    S(metal)    S(lipo)     H(rot)  DE(clash)    DE(int)     intcor
     11.49     -13.44       1.64        0.00      64.04       1.95       0.00       1.94       ----

> <Gold.Chemscore.Fitness>
11.4925

> <Gold.Chemscore.DG>
-13.4409

> <Gold.Chemscore.ZeroCoef>
-5.4800

> <Gold.Chemscore.Hbond>
1.6373

> <Gold.Chemscore.Metal>
0.0000

> <Gold.Chemscore.Lipo>
64.0415

> <Gold.Chemscore.Internal_Hbond>
0.0000

> <Gold.Chemscore.DEClash>
0.0044

> <Gold.Chemscore.DEInternal>
1.9440

> <Gold.Chemscore.Rot>
1.9533

> <Gold.Chemscore.Internal.Correction>
   9.000000E+99

> <Gold.Chemscore.Hbonds>
donor molecule, donor type, donor heavy atom, donor atom, acceptor molecule, acceptor atom, score
      P1  H  6896  6907       L1     8  0.96

> <Gold.Chemscore.Hbond.Weighted>
-5.4686

> <Gold.Chemscore.Metal.Weighted>
-0.0000

> <Gold.Chemscore.Lipo.Weighted>
-7.4929

> <Gold.Chemscore.Internal_Hbond.Weighted>
0.0000

> <Gold.Chemscore.DEClash.Weighted>
0.0044

> <Gold.Chemscore.DEInternal.Weighted>
1.9440

> <Gold.Chemscore.Rot.Weighted>
5.0005

> <Gold.Chemscore.Internal.Correction.Weighted>
   9.000000E+99

> <Gold.Protein.RotatedTorsions>
[ 6907 6896 6895 6894 ] final  -73.28 input  -60.11 | X-H torsion
[ 7974 7965 7964 7962 ] final -165.68 input  175.53 | X-H torsion
[ 8008 7997 7996 7995 ] final -164.74 input   59.86 | X-H torsion
[ 10167 10162 10161 10158 ] final  -69.04 input  -65.29 | X-H torsion
[ 10718 10713 10712 10709 ] final   63.49 input   66.30 | X-H torsion
[ 10763 10752 10751 10750 ] final   85.00 input  -60.55 | X-H torsion
[ 11005 11000 10999 10996 ] final   95.43 input  -57.11 | X-H torsion

> <Gold.Protein.ActiveResidues>
 VAL166  LYS551  ARG553  GLY616  TRP617  ASP618  TYR619  PRO620  LYS621  CYS622 
 ASP623  PHE694  ASN695  SER759  ASP760  ASP761  ALA762  ILE779  LEU786  VAL792 
 PHE793  MET794  SER795  GLU796  ALA797  LYS798  CYS799  TRP800  GLU811  SER814 

> <Gold.Protein.RotatedAtoms>
  150.7136  134.5039  159.5574 H   0  0  0  0  0  0  0  0  0  0  0  0  # atno 6907 bound_to 6896
  152.2630  134.8011  160.0436 H   0  0  0  0  0  0  0  0  0  0  0  0  # atno 6908 bound_to 6896
  151.8718  133.3442  159.3774 H   0  0  0  0  0  0  0  0  0  0  0  0  # atno 6909 bound_to 6896
  144.7264  140.2778  143.6240 H   0  0  0  0  0  0  0  0  0  0  0  0  # atno 7974 bound_to 7965
  155.8400  140.0947  157.1740 H   0  0  0  0  0  0  0  0  0  0  0  0  # atno 8008 bound_to 7997
  154.3981  140.1403  156.3778 H   0  0  0  0  0  0  0  0  0  0  0  0  # atno 8009 bound_to 7997
  155.8075  140.3451  155.5440 H   0  0  0  0  0  0  0  0  0  0  0  0  # atno 8010 bound_to 7997
  140.5461  143.2313  151.6999 H   0  0  0  0  0  0  0  0  0  0  0  0  # atno 10167 bound_to 10162
  157.5975  130.9108  149.9723 H   0  0  0  0  0  0  0  0  0  0  0  0  # atno 10718 bound_to 10713
  153.1434  135.4633  154.9530 H   0  0  0  0  0  0  0  0  0  0  0  0  # atno 10763 bound_to 10752
  154.7766  135.3175  154.8081 H   0  0  0  0  0  0  0  0  0  0  0  0  # atno 10764 bound_to 10752
  153.8599  135.6913  153.4838 H   0  0  0  0  0  0  0  0  0  0  0  0  # atno 10765 bound_to 10752
  139.8789  134.8898  156.4010 H   0  0  0  0  0  0  0  0  0  0  0  0  # atno 11005 bound_to 11000
  145.7980  139.1953  143.2065 LP  0  0  0  0  0  0  0  0  0  0  0  0  # atno 17320 bound_to 7965
  146.0701  140.7878  142.9692 LP  0  0  0  0  0  0  0  0  0  0  0  0  # atno 17321 bound_to 7965
  139.5008  144.3892  152.0297 LP  0  0  0  0  0  0  0  0  0  0  0  0  # atno 17342 bound_to 10162
  140.3005  144.3652  150.6061 LP  0  0  0  0  0  0  0  0  0  0  0  0  # atno 17343 bound_to 10162
  156.1040  130.3654  150.0166 LP  0  0  0  0  0  0  0  0  0  0  0  0  # atno 17370 bound_to 10713
  156.8276  130.9381  151.3638 LP  0  0  0  0  0  0  0  0  0  0  0  0  # atno 17371 bound_to 10713
  140.9267  133.7607  155.9973 LP  0  0  0  0  0  0  0  0  0  0  0  0  # atno 17394 bound_to 11000
  140.8378  134.3102  157.5325 LP  0  0  0  0  0  0  0  0  0  0  0  0  # atno 17395 bound_to 11000

$$$$
