AV-unprocessed.smi:1454|AV-procd|sdf|5914|dock6
  -GOLD-   22720 6 03D 1   1.00000     0.00000
 Structure written by MMmdl.
 45 46  0  0  0  0  0  0  0  0  2 V2000
  151.5524  136.2099  155.3853 O   0  0  0  0  0  0  0  0  0  0  0  0
  150.3428  136.3898  155.2481 C   0  0  0  0  0  0  0  0  0  0  0  0
  149.3564  135.3613  155.8107 C   0  0  0  0  0  0  0  0  0  0  0  0
  147.9344  135.4673  155.2185 C   0  0  0  0  0  0  0  0  0  0  0  0
  147.7490  134.6094  154.0524 N   0  0  0  0  0  0  0  0  0  0  0  0
  147.6204  133.2748  154.0635 C   0  0  0  0  0  0  0  0  0  0  0  0
  147.6286  132.6062  155.0969 O   0  0  0  0  0  0  0  0  0  0  0  0
  147.4542  132.6059  152.6875 C   0  0  0  0  0  0  0  0  0  0  0  0
  147.1020  133.6040  151.5650 C   0  0  0  0  0  0  0  0  0  0  0  0
  145.5848  133.5034  151.3301 C   0  0  0  0  0  0  0  0  0  0  0  0
  145.0588  132.4440  152.3035 C   0  0  0  0  0  0  0  0  0  0  0  0
  146.2829  131.6134  152.6833 C   0  0  0  0  0  0  0  0  0  0  0  0
  149.8185  137.4771  154.6591 N   0  0  0  0  0  0  0  0  0  0  0  0
  150.5674  138.6607  154.2385 C   0  0  0  0  0  0  0  0  0  0  0  0
  151.6313  139.1110  155.2614 C   0  0  0  0  0  0  0  0  0  0  0  0
  151.1715  140.1273  156.2982 C   0  0  0  0  0  0  0  0  0  0  0  0
  151.3598  139.8670  157.6743 C   0  0  0  0  0  0  0  0  0  0  0  0
  150.9381  140.8163  158.6282 C   0  0  0  0  0  0  0  0  0  0  0  0
  150.3385  142.0123  158.1862 C   0  0  0  0  0  0  0  0  0  0  0  0
  150.1908  142.2390  156.8633 N   0  3  0  0  0  0  0  0  0  0  0  0
  150.5889  141.3581  155.9197 C   0  0  0  0  0  0  0  0  0  0  0  0
  149.7627  134.3795  155.5658 H   0  0  0  0  0  0  0  0  0  0  0  0
  149.3267  135.4061  156.9005 H   0  0  0  0  0  0  0  0  0  0  0  0
  147.1668  135.2620  155.9671 H   0  0  0  0  0  0  0  0  0  0  0  0
  147.7626  136.4929  154.8910 H   0  0  0  0  0  0  0  0  0  0  0  0
  147.7217  135.0726  153.1552 H   0  0  0  0  0  0  0  0  0  0  0  0
  148.3857  132.0907  152.4461 H   0  0  0  0  0  0  0  0  0  0  0  0
  147.4013  134.6274  151.7966 H   0  0  0  0  0  0  0  0  0  0  0  0
  147.6316  133.3296  150.6518 H   0  0  0  0  0  0  0  0  0  0  0  0
  145.0860  134.4606  151.4800 H   0  0  0  0  0  0  0  0  0  0  0  0
  145.3919  133.1969  150.3014 H   0  0  0  0  0  0  0  0  0  0  0  0
  144.6600  132.9245  153.1963 H   0  0  0  0  0  0  0  0  0  0  0  0
  144.2605  131.8396  151.8720 H   0  0  0  0  0  0  0  0  0  0  0  0
  146.4583  130.8481  151.9262 H   0  0  0  0  0  0  0  0  0  0  0  0
  146.1479  131.0994  153.6363 H   0  0  0  0  0  0  0  0  0  0  0  0
  148.8129  137.5285  154.5815 H   0  0  0  0  0  0  0  0  0  0  0  0
  151.0694  138.4021  153.3061 H   0  0  0  0  0  0  0  0  0  0  0  0
  149.8991  139.4853  153.9869 H   0  0  0  0  0  0  0  0  0  0  0  0
  152.0216  138.2317  155.7761 H   0  0  0  0  0  0  0  0  0  0  0  0
  152.4762  139.5465  154.7270 H   0  0  0  0  0  0  0  0  0  0  0  0
  151.8239  138.9481  158.0006 H   0  0  0  0  0  0  0  0  0  0  0  0
  151.0697  140.6281  159.6834 H   0  0  0  0  0  0  0  0  0  0  0  0
  149.9820  142.7908  158.8448 H   0  0  0  0  0  0  0  0  0  0  0  0
  150.4197  141.6653  154.8984 H   0  0  0  0  0  0  0  0  0  0  0  0
  149.7608  143.1140  156.5626 H   0  0  0  0  0  0  0  0  0  0  0  0
  1  2  2  0  0  0  0
  2  3  1  0  0  0  0
  2 13  1  0  0  0  0
  3  4  1  0  0  0  0
  3 22  1  0  0  0  0
  3 23  1  0  0  0  0
  4  5  1  0  0  0  0
  4 24  1  0  0  0  0
  4 25  1  0  0  0  0
  5  6  1  0  0  0  0
  5 26  1  0  0  0  0
  6  7  2  0  0  0  0
  6  8  1  0  0  0  0
  8 12  1  0  0  0  0
  8  9  1  0  0  0  0
  8 27  1  0  0  0  0
  9 10  1  0  0  0  0
  9 28  1  0  0  0  0
  9 29  1  0  0  0  0
 10 11  1  0  0  0  0
 10 30  1  0  0  0  0
 10 31  1  0  0  0  0
 11 12  1  0  0  0  0
 11 32  1  0  0  0  0
 11 33  1  0  0  0  0
 12 34  1  0  0  0  0
 12 35  1  0  0  0  0
 13 14  1  0  0  0  0
 13 36  1  0  0  0  0
 14 15  1  0  0  0  0
 14 37  1  0  0  0  0
 14 38  1  0  0  0  0
 15 16  1  0  0  0  0
 15 39  1  0  0  0  0
 15 40  1  0  0  0  0
 16 21  1  0  0  0  0
 16 17  2  0  0  0  0
 17 18  1  0  0  0  0
 17 41  1  0  0  0  0
 18 19  2  0  0  0  0
 18 42  1  0  0  0  0
 19 20  1  0  0  0  0
 19 43  1  0  0  0  0
 20 21  2  0  0  0  0
 20 45  1  0  0  0  0
 21 44  1  0  0  0  0
M  CHG  1  20   1
M  END
> <s_m_source_file>
AV-unprocessed.smi

> <i_m_source_file_index>
1454

> <i_lp_mmshare_version>
43012

> <i_f3d_flags>
0

> <s_epik_input>
W2NIXTFuW2NIXVtjSF1bY0hdYzFbQ0gyXVtDSDJdW05IXUMoPU8pW0NIMl1bQ0gyXVtOSF1DKD1PKVtDSF0yW0NIMl1bQ0gyXVtDSDJdW0NIMl0y

> <s_epik_cmdline>
J2VwaWtfcHl0aG9uJywgJy1waCcsICc3LjAnLCAnLXRuJywgJzgnLCAnLW1hJywgJzIwMCcsICctbWV0YWxfYmluZGluZycsICctaW1hZScsICc8aW5maWxlLm1hZT4nLCAnLW9tYWUnLCAnPG91dGZpbGUubWFlPic=

> <r_epik_Ionization_Penalty>
2.25878

> <r_epik_Ionization_Penalty_Charging>
2.25878

> <r_epik_Ionization_Penalty_Neutral>
5.05393e-08

> <r_epik_State_Penalty>
2.40647

> <r_epik_Charging_Adjusted_Penalty>
4.66526

> <i_epik_Tot_Q>
1

> <i_epik_Tot_abs_Q>
1

> <r_epik_Metal_State_Penalty>
2.41947

> <b_epik_Metal_Only>
0

> <s_lp_Force_Field>
OPLS_2005

> <r_lp_Energy>
23.282

> <b_lp_Chiralities_Consistent>
1

> <s_lp_Variant>
AV-unprocessed.smi:1454-2

> <Gold.Version>
5.8.1

> <Gold.Id.Protein>
6NUR|6NUR_protein|mol2

> <Gold.PLP.Fitness>
43.5544

> <Gold.PLP.PLP>
-34.7679

> <Gold.PLP.part.hbond>
-4.0000

> <Gold.PLP.part.metal>
0.0000

> <Gold.PLP.part.buried>
-3.0266

> <Gold.PLP.part.nonpolar>
-26.8166

> <Gold.PLP.part.repulsive>
0.1833

> <Gold.PLP.ligand.clash>
0.0000

> <Gold.PLP.ligand.torsion>
1.2099

> <Gold.PLP.Chemscore.Hbond>
3.6880

> <Gold.PLP.Chemscore.CHOScore>
0.0000

> <Gold.PLP.Chemscore.Metal>
0.0000

> <Gold.Chemscore.Hbonds>
donor molecule, donor type, donor heavy atom, donor atom, acceptor molecule, acceptor atom, score
      L1  H     5    26       P1  7948  0.66
      L1  H    20    45       P1  8028  1.95
      P1  H 10752 10764       L1     1  1.00

> <Gold.PLP.Chemscore.Internal.Correction>
0.1423

> <Gold.Rescore>
     Score         DG    S(hbond)    S(metal)    S(lipo)     H(rot)  DE(clash)    DE(int)     intcor
     15.62     -17.99       2.66        0.00      79.85       2.23       0.11       2.26       ----

> <Gold.Chemscore.Fitness>
15.6198

> <Gold.Chemscore.DG>
-17.9919

> <Gold.Chemscore.ZeroCoef>
-5.4800

> <Gold.Chemscore.Hbond>
2.6618

> <Gold.Chemscore.Metal>
0.0000

> <Gold.Chemscore.Lipo>
79.8507

> <Gold.Chemscore.Internal_Hbond>
0.0000

> <Gold.Chemscore.DEClash>
0.1081

> <Gold.Chemscore.DEInternal>
2.2640

> <Gold.Chemscore.Rot>
2.2348

> <Gold.Chemscore.Internal.Correction>
   9.000000E+99

> <Gold.Chemscore.Hbonds>
donor molecule, donor type, donor heavy atom, donor atom, acceptor molecule, acceptor atom, score
      L1  H     5    26       P1  7948  0.64
      L1  H    20    45       P1  8028  0.92
      P1  H 10752 10764       L1     1  1.00

> <Gold.Chemscore.Hbond.Weighted>
-8.8906

> <Gold.Chemscore.Metal.Weighted>
-0.0000

> <Gold.Chemscore.Lipo.Weighted>
-9.3425

> <Gold.Chemscore.Internal_Hbond.Weighted>
0.0000

> <Gold.Chemscore.DEClash.Weighted>
0.1081

> <Gold.Chemscore.DEInternal.Weighted>
2.2640

> <Gold.Chemscore.Rot.Weighted>
5.7212

> <Gold.Chemscore.Internal.Correction.Weighted>
   9.000000E+99

> <Gold.Protein.RotatedTorsions>
[ 6907 6896 6895 6894 ] final -117.16 input  -60.11 | X-H torsion
[ 7974 7965 7964 7962 ] final  172.11 input  175.53 | X-H torsion
[ 8008 7997 7996 7995 ] final  168.00 input   59.86 | X-H torsion
[ 10167 10162 10161 10158 ] final  142.75 input  -65.29 | X-H torsion
[ 10718 10713 10712 10709 ] final   -2.66 input   66.30 | X-H torsion
[ 10763 10752 10751 10750 ] final  -50.11 input  -60.55 | X-H torsion
[ 11005 11000 10999 10996 ] final   62.67 input  -57.11 | X-H torsion

> <Gold.Protein.ActiveResidues>
 VAL166  LYS551  ARG553  GLY616  TRP617  ASP618  TYR619  PRO620  LYS621  CYS622 
 ASP623  PHE694  ASN695  SER759  ASP760  ASP761  ALA762  ILE779  LEU786  VAL792 
 PHE793  MET794  SER795  GLU796  ALA797  LYS798  CYS799  TRP800  GLU811  SER814 

> <Gold.Protein.RotatedAtoms>
  150.8114  133.8415  159.3180 H   0  0  0  0  0  0  0  0  0  0  0  0  # atno 6907 bound_to 6896
  151.6200  135.1031  160.0109 H   0  0  0  0  0  0  0  0  0  0  0  0  # atno 6908 bound_to 6896
  152.4206  133.7069  159.6513 H   0  0  0  0  0  0  0  0  0  0  0  0  # atno 6909 bound_to 6896
  144.7277  139.9449  143.6430 H   0  0  0  0  0  0  0  0  0  0  0  0  # atno 7974 bound_to 7965
  156.1585  140.1602  156.8651 H   0  0  0  0  0  0  0  0  0  0  0  0  # atno 8008 bound_to 7997
  154.5138  140.0794  156.8077 H   0  0  0  0  0  0  0  0  0  0  0  0  # atno 8009 bound_to 7997
  155.3754  140.3402  155.4247 H   0  0  0  0  0  0  0  0  0  0  0  0  # atno 8010 bound_to 7997
  139.4986  144.6086  151.6323 H   0  0  0  0  0  0  0  0  0  0  0  0  # atno 10167 bound_to 10162
  156.7876  130.5351  149.5741 H   0  0  0  0  0  0  0  0  0  0  0  0  # atno 10718 bound_to 10713
  154.1051  135.6557  153.4875 H   0  0  0  0  0  0  0  0  0  0  0  0  # atno 10763 bound_to 10752
  153.0275  135.5234  154.7248 H   0  0  0  0  0  0  0  0  0  0  0  0  # atno 10764 bound_to 10752
  154.6411  135.2988  155.0071 H   0  0  0  0  0  0  0  0  0  0  0  0  # atno 10765 bound_to 10752
  140.0076  134.6345  155.9831 H   0  0  0  0  0  0  0  0  0  0  0  0  # atno 11005 bound_to 11000
  146.0756  139.3744  143.0496 LP  0  0  0  0  0  0  0  0  0  0  0  0  # atno 17320 bound_to 7965
  145.7910  140.9814  143.1049 LP  0  0  0  0  0  0  0  0  0  0  0  0  # atno 17321 bound_to 7965
  140.5754  144.0037  150.6239 LP  0  0  0  0  0  0  0  0  0  0  0  0  # atno 17342 bound_to 10162
  140.3168  143.3162  152.0824 LP  0  0  0  0  0  0  0  0  0  0  0  0  # atno 17343 bound_to 10162
  156.1179  130.6088  151.0149 LP  0  0  0  0  0  0  0  0  0  0  0  0  # atno 17370 bound_to 10713
  157.6616  131.0879  150.7824 LP  0  0  0  0  0  0  0  0  0  0  0  0  # atno 17371 bound_to 10713
  141.1688  133.6537  156.4576 LP  0  0  0  0  0  0  0  0  0  0  0  0  # atno 17394 bound_to 11000
  140.4613  134.6839  157.5086 LP  0  0  0  0  0  0  0  0  0  0  0  0  # atno 17395 bound_to 11000

$$$$
