AV-unprocessed.smi:3335|AV-procd|sdf|12849|dock6
  -GOLD-   2272019243D 1   1.00000     0.00000
 Structure written by MMmdl.
 46 47  0  0  0  0  0  0  0  0  1 V2000
  151.1698  142.7076  157.1113 C   0  0  0  0  0  0  0  0  0  0  0  0
  150.6599  141.6214  156.2085 C   0  0  0  0  0  0  0  0  0  0  0  0
  151.3111  140.4070  155.8516 C   0  0  0  0  0  0  0  0  0  0  0  0
  150.5908  139.6586  155.0328 N   0  0  0  0  0  0  0  0  0  0  0  0
  149.4558  140.3663  154.8350 N   0  0  0  0  0  0  0  0  0  0  0  0
  148.4067  139.8480  153.9656 C   0  0  2  0  0  0  0  0  0  0  0  0
  147.3664  140.9491  153.6826 C   0  0  0  0  0  0  0  0  0  0  0  0
  147.7724  138.5479  154.5319 C   0  0  2  0  0  0  0  0  0  0  0  0
  148.8114  137.5277  155.0354 C   0  0  0  0  0  0  0  0  0  0  0  0
  147.0009  137.8905  153.4763 N   0  0  0  0  0  0  0  0  0  0  0  0
  146.2184  136.7223  153.9216 C   0  0  1  0  0  0  0  0  0  0  0  0
  145.5706  137.0236  155.2813 C   0  0  0  0  0  0  0  0  0  0  0  0
  145.1339  136.2986  152.9054 C   0  0  0  0  0  0  0  0  0  0  0  0
  144.1739  137.0481  152.7181 O   0  0  0  0  0  0  0  0  0  0  0  0
  145.2584  135.1256  152.2470 N   0  0  0  0  0  0  0  0  0  0  0  0
  146.3705  134.2017  152.4659 C   0  0  0  0  0  0  0  0  0  0  0  0
  146.0038  132.9217  151.7151 C   0  0  0  0  0  0  0  0  0  0  0  0
  145.0641  133.3942  150.6157 C   0  0  0  0  0  0  0  0  0  0  0  0
  144.3507  134.5998  151.2275 C   0  0  0  0  0  0  0  0  0  0  0  0
  149.4727  141.5541  155.5360 C   0  0  0  0  0  0  0  0  0  0  0  0
  151.3505  142.3382  158.1208 H   0  0  0  0  0  0  0  0  0  0  0  0
  150.4628  143.5335  157.1936 H   0  0  0  0  0  0  0  0  0  0  0  0
  152.1093  143.1242  156.7476 H   0  0  0  0  0  0  0  0  0  0  0  0
  152.2817  140.0490  156.1623 H   0  0  0  0  0  0  0  0  0  0  0  0
  148.8885  139.6026  153.0174 H   0  0  0  0  0  0  0  0  0  0  0  0
  146.6633  140.6426  152.9084 H   0  0  0  0  0  0  0  0  0  0  0  0
  147.8482  141.8631  153.3341 H   0  0  0  0  0  0  0  0  0  0  0  0
  146.7909  141.1960  154.5757 H   0  0  0  0  0  0  0  0  0  0  0  0
  147.1367  138.8153  155.3777 H   0  0  0  0  0  0  0  0  0  0  0  0
  149.3760  137.9138  155.8840 H   0  0  0  0  0  0  0  0  0  0  0  0
  149.5249  137.2664  154.2531 H   0  0  0  0  0  0  0  0  0  0  0  0
  148.3325  136.6069  155.3696 H   0  0  0  0  0  0  0  0  0  0  0  0
  147.6076  137.6543  152.7039 H   0  0  0  0  0  0  0  0  0  0  0  0
  146.9264  135.9094  154.0732 H   0  0  0  0  0  0  0  0  0  0  0  0
  145.0155  136.1625  155.6556 H   0  0  0  0  0  0  0  0  0  0  0  0
  144.8784  137.8646  155.2190 H   0  0  0  0  0  0  0  0  0  0  0  0
  146.3268  137.2720  156.0269 H   0  0  0  0  0  0  0  0  0  0  0  0
  147.2816  134.6391  152.0549 H   0  0  0  0  0  0  0  0  0  0  0  0
  146.5375  134.0041  153.5260 H   0  0  0  0  0  0  0  0  0  0  0  0
  146.8757  132.3925  151.3294 H   0  0  0  0  0  0  0  0  0  0  0  0
  145.4704  132.2452  152.3841 H   0  0  0  0  0  0  0  0  0  0  0  0
  145.6468  133.7141  149.7509 H   0  0  0  0  0  0  0  0  0  0  0  0
  144.3740  132.6173  150.2849 H   0  0  0  0  0  0  0  0  0  0  0  0
  143.4208  134.2881  151.7055 H   0  0  0  0  0  0  0  0  0  0  0  0
  144.1135  135.3406  150.4627 H   0  0  0  0  0  0  0  0  0  0  0  0
  148.6463  142.2487  155.4971 H   0  0  0  0  0  0  0  0  0  0  0  0
  1  2  1  0  0  0  0
  1 21  1  0  0  0  0
  1 22  1  0  0  0  0
  1 23  1  0  0  0  0
  2 20  2  0  0  0  0
  2  3  1  0  0  0  0
  3  4  2  0  0  0  0
  3 24  1  0  0  0  0
  4  5  1  0  0  0  0
  5  6  1  0  0  0  0
  5 20  1  0  0  0  0
  6  7  1  0  0  0  0
  6  8  1  0  0  0  0
  6 25  1  0  0  0  0
  7 26  1  0  0  0  0
  7 27  1  0  0  0  0
  7 28  1  0  0  0  0
  8  9  1  0  0  0  0
  8 10  1  0  0  0  0
  8 29  1  0  0  0  0
  9 30  1  0  0  0  0
  9 31  1  0  0  0  0
  9 32  1  0  0  0  0
 10 11  1  0  0  0  0
 10 33  1  0  0  0  0
 11 12  1  0  0  0  0
 11 13  1  0  0  0  0
 11 34  1  0  0  0  0
 12 35  1  0  0  0  0
 12 36  1  0  0  0  0
 12 37  1  0  0  0  0
 13 14  2  0  0  0  0
 13 15  1  0  0  0  0
 15 19  1  0  0  0  0
 15 16  1  0  0  0  0
 16 17  1  0  0  0  0
 16 38  1  0  0  0  0
 16 39  1  0  0  0  0
 17 18  1  0  0  0  0
 17 40  1  0  0  0  0
 17 41  1  0  0  0  0
 18 19  1  0  0  0  0
 18 42  1  0  0  0  0
 18 43  1  0  0  0  0
 19 44  1  0  0  0  0
 19 45  1  0  0  0  0
 20 46  1  0  0  0  0
M  END
> <s_m_source_file>
AV-unprocessed.smi

> <i_m_source_file_index>
3335

> <i_lp_mmshare_version>
43012

> <i_f3d_flags>
0

> <s_epik_input>
W0NIM11jMVtjSF1ubihbY0hdMSlbQ0BIXShbQ0gzXSlbQ0BIXShbQ0gzXSlbTkhdW0NASF0oW0NIM10pQyg9TylOMltDSDJdW0NIMl1bQ0gyXVtDSDJdMg==

> <s_epik_cmdline>
J2VwaWtfcHl0aG9uJywgJy1waCcsICc3LjAnLCAnLXRuJywgJzgnLCAnLW1hJywgJzIwMCcsICctbWV0YWxfYmluZGluZycsICctaW1hZScsICc8aW5maWxlLm1hZT4nLCAnLW9tYWUnLCAnPG91dGZpbGUubWFlPic=

> <r_lp_tautomer_probability>
1

> <r_epik_Ionization_Penalty>
0.918803

> <r_epik_Ionization_Penalty_Charging>
0

> <r_epik_Ionization_Penalty_Neutral>
0.918803

> <r_epik_State_Penalty>
0.958258

> <r_epik_Charging_Adjusted_Penalty>
0.958258

> <i_epik_Tot_Q>
0

> <i_epik_Tot_abs_Q>
0

> <r_epik_Metal_State_Penalty>
0.956786

> <b_epik_Metal_Only>
0

> <s_lp_Force_Field>
OPLS_2005

> <r_lp_Energy>
37.1763

> <b_lp_Chiralities_Consistent>
1

> <s_lp_Variant>
AV-unprocessed.smi:3335-13

> <Gold.Version>
5.8.1

> <Gold.Id.Protein>
6NUR|6NUR_protein|mol2

> <Gold.PLP.Fitness>
35.8323

> <Gold.PLP.PLP>
-30.9042

> <Gold.PLP.part.hbond>
-1.4356

> <Gold.PLP.part.metal>
0.0000

> <Gold.PLP.part.buried>
-2.4723

> <Gold.PLP.part.nonpolar>
-27.7916

> <Gold.PLP.part.repulsive>
0.3727

> <Gold.PLP.ligand.clash>
0.0000

> <Gold.PLP.ligand.torsion>
0.5527

> <Gold.PLP.Chemscore.Hbond>
0.9893

> <Gold.PLP.Chemscore.CHOScore>
0.9967

> <Gold.PLP.Chemscore.Metal>
0.0000

> <Gold.Chemscore.Hbonds>
donor molecule, donor type, donor heavy atom, donor atom, acceptor molecule, acceptor atom, score
      L1  H    10    33       P1  7948  0.75
      P1  H  7989  7998       L1     4  0.03
      L1  C    20    46       P1  8028  0.90

> <Gold.PLP.Chemscore.Internal.Correction>
0.0756

> <Gold.Rescore>
     Score         DG    S(hbond)    S(metal)    S(lipo)     H(rot)  DE(clash)    DE(int)     intcor
     11.08     -13.20       0.94        0.00      74.53       1.62       0.20       1.92       ----

> <Gold.Chemscore.Fitness>
11.0831

> <Gold.Chemscore.DG>
-13.2030

> <Gold.Chemscore.ZeroCoef>
-5.4800

> <Gold.Chemscore.Hbond>
0.9436

> <Gold.Chemscore.Metal>
0.0000

> <Gold.Chemscore.Lipo>
74.5265

> <Gold.Chemscore.Internal_Hbond>
0.0000

> <Gold.Chemscore.DEClash>
0.2015

> <Gold.Chemscore.DEInternal>
1.9185

> <Gold.Chemscore.Rot>
1.6204

> <Gold.Chemscore.Internal.Correction>
   9.000000E+99

> <Gold.Chemscore.Hbonds>
donor molecule, donor type, donor heavy atom, donor atom, acceptor molecule, acceptor atom, score
      L1  H    10    33       P1  7948  0.71

> <Gold.Chemscore.Hbond.Weighted>
-3.1516

> <Gold.Chemscore.Metal.Weighted>
-0.0000

> <Gold.Chemscore.Lipo.Weighted>
-8.7196

> <Gold.Chemscore.Internal_Hbond.Weighted>
0.0000

> <Gold.Chemscore.DEClash.Weighted>
0.2015

> <Gold.Chemscore.DEInternal.Weighted>
1.9185

> <Gold.Chemscore.Rot.Weighted>
4.1482

> <Gold.Chemscore.Internal.Correction.Weighted>
   9.000000E+99

> <Gold.Protein.RotatedTorsions>
[ 6907 6896 6895 6894 ] final  132.44 input  -60.11 | X-H torsion
[ 7974 7965 7964 7962 ] final   -0.71 input  175.53 | X-H torsion
[ 8008 7997 7996 7995 ] final  140.76 input   59.86 | X-H torsion
[ 10167 10162 10161 10158 ] final    6.84 input  -65.29 | X-H torsion
[ 10718 10713 10712 10709 ] final -133.51 input   66.30 | X-H torsion
[ 10763 10752 10751 10750 ] final -137.19 input  -60.55 | X-H torsion
[ 11005 11000 10999 10996 ] final  -53.59 input  -57.11 | X-H torsion

> <Gold.Protein.ActiveResidues>
 VAL166  LYS551  ARG553  GLY616  TRP617  ASP618  TYR619  PRO620  LYS621  CYS622 
 ASP623  PHE694  ASN695  SER759  ASP760  ASP761  ALA762  ILE779  LEU786  VAL792 
 PHE793  MET794  SER795  GLU796  ALA797  LYS798  CYS799  TRP800  GLU811  SER814 

> <Gold.Protein.RotatedAtoms>
  152.3324  133.5973  159.5818 H   0  0  0  0  0  0  0  0  0  0  0  0  # atno 6907 bound_to 6896
  150.7431  133.9847  159.3596 H   0  0  0  0  0  0  0  0  0  0  0  0  # atno 6908 bound_to 6896
  151.7721  135.0784  160.0412 H   0  0  0  0  0  0  0  0  0  0  0  0  # atno 6909 bound_to 6896
  146.2424  140.1310  142.8338 H   0  0  0  0  0  0  0  0  0  0  0  0  # atno 7974 bound_to 7965
  156.2975  140.2333  156.4453 H   0  0  0  0  0  0  0  0  0  0  0  0  # atno 8008 bound_to 7997
  154.8149  140.0441  157.1390 H   0  0  0  0  0  0  0  0  0  0  0  0  # atno 8009 bound_to 7997
  154.9380  140.3025  155.5138 H   0  0  0  0  0  0  0  0  0  0  0  0  # atno 8010 bound_to 7997
  140.6405  143.7785  150.7421 H   0  0  0  0  0  0  0  0  0  0  0  0  # atno 10167 bound_to 10162
  156.2456  130.7122  151.1001 H   0  0  0  0  0  0  0  0  0  0  0  0  # atno 10718 bound_to 10713
  154.8667  135.3649  154.5183 H   0  0  0  0  0  0  0  0  0  0  0  0  # atno 10763 bound_to 10752
  153.5814  135.7018  153.5466 H   0  0  0  0  0  0  0  0  0  0  0  0  # atno 10764 bound_to 10752
  153.3453  135.4086  155.1567 H   0  0  0  0  0  0  0  0  0  0  0  0  # atno 10765 bound_to 10752
  141.0984  133.6621  156.4195 H   0  0  0  0  0  0  0  0  0  0  0  0  # atno 11005 bound_to 11000
  145.0326  140.8882  143.5100 LP  0  0  0  0  0  0  0  0  0  0  0  0  # atno 17320 bound_to 7965
  145.1377  139.2592  143.5506 LP  0  0  0  0  0  0  0  0  0  0  0  0  # atno 17321 bound_to 7965
  140.1416  143.4436  152.2190 LP  0  0  0  0  0  0  0  0  0  0  0  0  # atno 17342 bound_to 10162
  139.5614  144.7408  151.4144 LP  0  0  0  0  0  0  0  0  0  0  0  0  # atno 17343 bound_to 10162
  157.7194  131.0691  150.6199 LP  0  0  0  0  0  0  0  0  0  0  0  0  # atno 17370 bound_to 10713
  156.6275  130.4423  149.5799 LP  0  0  0  0  0  0  0  0  0  0  0  0  # atno 17371 bound_to 10713
  140.5084  134.6419  157.5275 LP  0  0  0  0  0  0  0  0  0  0  0  0  # atno 17394 bound_to 11000
  139.9827  134.7111  155.9830 LP  0  0  0  0  0  0  0  0  0  0  0  0  # atno 17395 bound_to 11000

$$$$
