AV-unprocessed.smi:102|AV-procd|sdf|957|dock5
  -GOLD-   2262017493D 1   1.00000     0.00000
 Structure written by MMmdl.
 44 45  0  0  0  0  0  0  0  0  1 V2000
  152.1510  139.0666  159.2457 C   0  0  0  0  0  0  0  0  0  0  0  0
  151.1049  137.9708  159.0847 C   0  0  0  0  0  0  0  0  0  0  0  0
  151.0205  137.0427  159.8892 O   0  0  0  0  0  0  0  0  0  0  0  0
  150.3329  138.1483  158.0017 O   0  0  0  0  0  0  0  0  0  0  0  0
  149.2838  137.2337  157.7334 C   0  0  0  0  0  0  0  0  0  0  0  0
  148.5919  137.6259  156.4135 C   0  0  2  0  0  0  0  0  0  0  0  0
  147.3947  136.8690  156.2675 O   0  0  0  0  0  0  0  0  0  0  0  0
  147.6957  135.6335  155.6930 C   0  0  1  0  0  0  0  0  0  0  0  0
  146.5441  135.2112  154.8103 N   0  0  0  0  0  0  0  0  0  0  0  0
  146.3480  135.8216  153.5788 C   0  0  0  0  0  0  0  0  0  0  0  0
  145.3560  135.4668  152.7282 C   0  0  0  0  0  0  0  0  0  0  0  0
  145.2264  136.1089  151.5547 F   0  0  0  0  0  0  0  0  0  0  0  0
  144.4306  134.3911  153.0711 C   0  0  0  0  0  0  0  0  0  0  0  0
  143.4993  134.0006  152.3698 O   0  0  0  0  0  0  0  0  0  0  0  0
  144.6786  133.7906  154.3088 N   0  0  0  0  0  0  0  0  0  0  0  0
  145.6998  134.1436  155.1927 C   0  0  0  0  0  0  0  0  0  0  0  0
  145.8341  133.5275  156.2482 O   0  0  0  0  0  0  0  0  0  0  0  0
  149.0239  135.7793  154.9202 C   0  0  2  0  0  0  0  0  0  0  0  0
  150.0087  134.9149  155.4791 O   0  0  0  0  0  0  0  0  0  0  0  0
  149.9195  133.5857  155.2998 C   0  0  0  0  0  0  0  0  0  0  0  0
  151.0561  132.8280  155.9733 C   0  0  0  0  0  0  0  0  0  0  0  0
  149.0339  132.9971  154.6798 O   0  0  0  0  0  0  0  0  0  0  0  0
  149.3741  137.2496  155.1507 C   0  0  2  0  0  0  0  0  0  0  0  0
  150.7701  137.5101  155.2623 O   0  0  0  0  0  0  0  0  0  0  0  0
  151.2564  138.7335  154.9902 C   0  0  0  0  0  0  0  0  0  0  0  0
  152.7770  138.7808  155.0555 C   0  0  0  0  0  0  0  0  0  0  0  0
  150.5925  139.7316  154.7105 O   0  0  0  0  0  0  0  0  0  0  0  0
  144.0715  133.0321  154.5835 H   0  0  0  0  0  0  0  0  0  0  0  0
  152.0529  139.8193  158.4629 H   0  0  0  0  0  0  0  0  0  0  0  0
  153.1527  138.6404  159.1899 H   0  0  0  0  0  0  0  0  0  0  0  0
  152.0376  139.5573  160.2124 H   0  0  0  0  0  0  0  0  0  0  0  0
  149.7153  136.2356  157.6480 H   0  0  0  0  0  0  0  0  0  0  0  0
  148.5733  137.2112  158.5606 H   0  0  0  0  0  0  0  0  0  0  0  0
  148.3704  138.6938  156.4173 H   0  0  0  0  0  0  0  0  0  0  0  0
  147.7542  134.8905  156.4904 H   0  0  0  0  0  0  0  0  0  0  0  0
  147.0057  136.6229  153.2733 H   0  0  0  0  0  0  0  0  0  0  0  0
  148.8923  135.5795  153.8557 H   0  0  0  0  0  0  0  0  0  0  0  0
  150.7249  132.4272  156.9313 H   0  0  0  0  0  0  0  0  0  0  0  0
  151.9097  133.4834  156.1481 H   0  0  0  0  0  0  0  0  0  0  0  0
  151.3826  131.9986  155.3458 H   0  0  0  0  0  0  0  0  0  0  0  0
  148.9623  137.8389  154.3306 H   0  0  0  0  0  0  0  0  0  0  0  0
  153.2072  137.9140  154.5532 H   0  0  0  0  0  0  0  0  0  0  0  0
  153.1105  138.7816  156.0934 H   0  0  0  0  0  0  0  0  0  0  0  0
  153.1529  139.6818  154.5705 H   0  0  0  0  0  0  0  0  0  0  0  0
  1  2  1  0  0  0  0
  1 29  1  0  0  0  0
  1 30  1  0  0  0  0
  1 31  1  0  0  0  0
  2  3  2  0  0  0  0
  2  4  1  0  0  0  0
  4  5  1  0  0  0  0
  5  6  1  0  0  0  0
  5 32  1  0  0  0  0
  5 33  1  0  0  0  0
  6 23  1  0  0  0  0
  6  7  1  0  0  0  0
  6 34  1  0  0  0  0
  7  8  1  0  0  0  0
  8  9  1  0  0  0  0
  8 18  1  0  0  0  0
  8 35  1  0  0  0  0
  9 16  1  0  0  0  0
  9 10  1  0  0  0  0
 10 11  2  0  0  0  0
 10 36  1  0  0  0  0
 11 12  1  0  0  0  0
 11 13  1  0  0  0  0
 13 14  2  0  0  0  0
 13 15  1  0  0  0  0
 15 28  1  0  0  0  0
 15 16  1  0  0  0  0
 16 17  2  0  0  0  0
 18 19  1  0  0  0  0
 18 23  1  0  0  0  0
 18 37  1  0  0  0  0
 19 20  1  0  0  0  0
 20 21  1  0  0  0  0
 20 22  2  0  0  0  0
 21 38  1  0  0  0  0
 21 39  1  0  0  0  0
 21 40  1  0  0  0  0
 23 24  1  0  0  0  0
 23 41  1  0  0  0  0
 24 25  1  0  0  0  0
 25 26  1  0  0  0  0
 25 27  2  0  0  0  0
 26 42  1  0  0  0  0
 26 43  1  0  0  0  0
 26 44  1  0  0  0  0
M  END
> <s_m_source_file>
AV-unprocessed.smi

> <i_m_source_file_index>
102

> <i_lp_mmshare_version>
43012

> <i_f3d_flags>
0

> <s_epik_input>
W0NIM11DKD1PKU9bQ0gyXVtDQEBIXTFPW0NASF0oW0NAQEhdKE9DKD1PKVtDSDNdKVtDQEhdMU9DKD1PKVtDSDNdKW4yW2NIXWMoRiljKD1PKVtuSF1jMj1P

> <s_epik_cmdline>
J2VwaWtfcHl0aG9uJywgJy1waCcsICc3LjAnLCAnLXRuJywgJzgnLCAnLW1hJywgJzIwMCcsICctbWV0YWxfYmluZGluZycsICctaW1hZScsICc8aW5maWxlLm1hZT4nLCAnLW9tYWUnLCAnPG91dGZpbGUubWFlPic=

> <r_lp_tautomer_probability>
0.999537

> <r_epik_Ionization_Penalty>
0.058267

> <r_epik_Ionization_Penalty_Charging>
0.058267

> <r_epik_Ionization_Penalty_Neutral>
6.57791e-16

> <r_epik_State_Penalty>
0.0503774

> <r_epik_Charging_Adjusted_Penalty>
0.108644

> <i_epik_Tot_Q>
0

> <i_epik_Tot_abs_Q>
0

> <r_epik_Metal_State_Penalty>
2.6644

> <b_epik_Metal_Only>
0

> <s_epik_Chemistry_Notes>
This compound has an ester and may undergo hydrolysis at high or low pH. This compound contains an acetal/aminal-like group ( X-CH(R)-Y where X, Y are N, S, or O) that may be acid/base labile, releasing an aldehyde.

> <s_lp_Force_Field>
OPLS_2005

> <r_lp_Energy>
12.818

> <b_lp_Chiralities_Consistent>
1

> <s_lp_Variant>
AV-unprocessed.smi:102-13

> <Gold.Version>
5.8.1

> <Gold.Id.Protein>
6NUR|6NUR_protein|mol2

> <Gold.PLP.Fitness>
36.3150

> <Gold.PLP.PLP>
-25.6980

> <Gold.PLP.part.hbond>
-2.9833

> <Gold.PLP.part.metal>
0.0000

> <Gold.PLP.part.buried>
-3.4541

> <Gold.PLP.part.nonpolar>
-19.6887

> <Gold.PLP.part.repulsive>
0.6289

> <Gold.PLP.ligand.clash>
0.0000

> <Gold.PLP.ligand.torsion>
0.7194

> <Gold.PLP.Chemscore.Hbond>
3.0000

> <Gold.PLP.Chemscore.CHOScore>
0.9677

> <Gold.PLP.Chemscore.Metal>
0.0000

> <Gold.Chemscore.Hbonds>
donor molecule, donor type, donor heavy atom, donor atom, acceptor molecule, acceptor atom, score
      L1  H    15    28       P1 10957  1.00
      P1  H  6896  6907       L1     3  1.00
      P1  H  7989  7998       L1    27  1.00
      L1  C    10    36       P1  7948  0.84

> <Gold.PLP.Chemscore.Internal.Correction>
0.1527

> <Gold.Rescore>
     Score         DG    S(hbond)    S(metal)    S(lipo)     H(rot)  DE(clash)    DE(int)     intcor
      8.00      -8.95       2.94        0.00      34.48       4.05       0.08       0.86       ----

> <Gold.Chemscore.Fitness>
8.0034

> <Gold.Chemscore.DG>
-8.9452

> <Gold.Chemscore.ZeroCoef>
-5.4800

> <Gold.Chemscore.Hbond>
2.9355

> <Gold.Chemscore.Metal>
0.0000

> <Gold.Chemscore.Lipo>
34.4771

> <Gold.Chemscore.Internal_Hbond>
0.0000

> <Gold.Chemscore.DEClash>
0.0833

> <Gold.Chemscore.DEInternal>
0.8584

> <Gold.Chemscore.Rot>
4.0520

> <Gold.Chemscore.Internal.Correction>
   9.000000E+99

> <Gold.Chemscore.Hbonds>
donor molecule, donor type, donor heavy atom, donor atom, acceptor molecule, acceptor atom, score
      L1  H    15    28       P1 10957  1.00
      P1  H  6896  6907       L1     3  1.00
      P1  H  7989  7998       L1    27  0.69

> <Gold.Chemscore.Hbond.Weighted>
-9.8045

> <Gold.Chemscore.Metal.Weighted>
-0.0000

> <Gold.Chemscore.Lipo.Weighted>
-4.0338

> <Gold.Chemscore.Internal_Hbond.Weighted>
0.0000

> <Gold.Chemscore.DEClash.Weighted>
0.0833

> <Gold.Chemscore.DEInternal.Weighted>
0.8584

> <Gold.Chemscore.Rot.Weighted>
10.3732

> <Gold.Chemscore.Internal.Correction.Weighted>
   9.000000E+99

> <Gold.Protein.RotatedTorsions>
[ 6907 6896 6895 6894 ] final  -14.80 input  -60.11 | X-H torsion
[ 7974 7965 7964 7962 ] final  -26.82 input  175.53 | X-H torsion
[ 8008 7997 7996 7995 ] final -158.58 input   59.86 | X-H torsion
[ 10167 10162 10161 10158 ] final  174.51 input  -65.29 | X-H torsion
[ 10718 10713 10712 10709 ] final -146.33 input   66.30 | X-H torsion
[ 10763 10752 10751 10750 ] final  153.51 input  -60.55 | X-H torsion
[ 11005 11000 10999 10996 ] final  137.93 input  -57.11 | X-H torsion

> <Gold.Protein.ActiveResidues>
 VAL166  LYS551  ARG553  GLY616  TRP617  ASP618  TYR619  PRO620  LYS621  CYS622 
 ASP623  PHE694  ASN695  SER759  ASP760  ASP761  ALA762  ILE779  LEU786  VAL792 
 PHE793  MET794  SER795  GLU796  ALA797  LYS798  CYS799  TRP800  GLU811  SER814 

> <Gold.Protein.RotatedAtoms>
  151.3338  135.0848  159.9347 H   0  0  0  0  0  0  0  0  0  0  0  0  # atno 6907 bound_to 6896
  152.5228  133.9516  159.7685 H   0  0  0  0  0  0  0  0  0  0  0  0  # atno 6908 bound_to 6896
  150.9859  133.6145  159.2745 H   0  0  0  0  0  0  0  0  0  0  0  0  # atno 6909 bound_to 6896
  146.1400  140.5070  142.8656 H   0  0  0  0  0  0  0  0  0  0  0  0  # atno 7974 bound_to 7965
  155.7496  140.0825  157.2207 H   0  0  0  0  0  0  0  0  0  0  0  0  # atno 8008 bound_to 7997
  154.4013  140.1563  156.2765 H   0  0  0  0  0  0  0  0  0  0  0  0  # atno 8009 bound_to 7997
  155.8943  140.3413  155.5982 H   0  0  0  0  0  0  0  0  0  0  0  0  # atno 8010 bound_to 7997
  139.5144  144.3139  152.0266 H   0  0  0  0  0  0  0  0  0  0  0  0  # atno 10167 bound_to 10162
  156.3936  130.7898  151.2102 H   0  0  0  0  0  0  0  0  0  0  0  0  # atno 10718 bound_to 10713
  154.1374  135.2823  155.3169 H   0  0  0  0  0  0  0  0  0  0  0  0  # atno 10763 bound_to 10752
  154.6311  135.5435  153.7685 H   0  0  0  0  0  0  0  0  0  0  0  0  # atno 10764 bound_to 10752
  153.0261  135.6463  154.1522 H   0  0  0  0  0  0  0  0  0  0  0  0  # atno 10765 bound_to 10752
  140.0148  134.9423  157.0353 H   0  0  0  0  0  0  0  0  0  0  0  0  # atno 11005 bound_to 11000
  144.7782  140.5784  143.6624 LP  0  0  0  0  0  0  0  0  0  0  0  0  # atno 17320 bound_to 7965
  145.5069  139.1481  143.3626 LP  0  0  0  0  0  0  0  0  0  0  0  0  # atno 17321 bound_to 7965
  140.2582  144.4095  150.6195 LP  0  0  0  0  0  0  0  0  0  0  0  0  # atno 17342 bound_to 10162
  140.6176  143.2173  151.6760 LP  0  0  0  0  0  0  0  0  0  0  0  0  # atno 17343 bound_to 10162
  157.7500  131.0308  150.4154 LP  0  0  0  0  0  0  0  0  0  0  0  0  # atno 17370 bound_to 10713
  156.4420  130.3993  149.6691 LP  0  0  0  0  0  0  0  0  0  0  0  0  # atno 17371 bound_to 10713
  140.4491  134.1601  155.7180 LP  0  0  0  0  0  0  0  0  0  0  0  0  # atno 17394 bound_to 11000
  141.1735  133.8561  157.1495 LP  0  0  0  0  0  0  0  0  0  0  0  0  # atno 17395 bound_to 11000

$$$$
