AV-unprocessed.smi:1196|AV-procd|sdf|5006|dock10
  -GOLD-   22720 4 23D 1   1.00000     0.00000
 Structure written by MMmdl.
 36 37  0  0  0  0  0  0  0  0  2 V2000
  146.2886  128.7150  151.6152 C   0  0  0  0  0  0  0  0  0  0  0  0
  145.8651  130.1157  152.0773 C   0  0  2  0  0  0  0  0  0  0  0  0
  144.9555  130.8000  151.0344 C   0  0  0  0  0  0  0  0  0  0  0  0
  145.0730  132.2479  151.0521 N   0  0  0  0  0  0  0  0  0  0  0  0
  144.7273  133.1235  152.0598 C   0  0  0  0  0  0  0  0  0  0  0  0
  145.0388  134.3814  151.6295 C   0  0  0  0  0  0  0  0  0  0  0  0
  145.5760  134.1703  150.3288 C   0  0  0  0  0  0  0  0  0  0  0  0
  145.5887  132.8933  149.9833 N   0  0  0  0  0  0  0  0  0  0  0  0
  147.0640  130.9146  152.3293 N   0  0  0  0  0  0  0  0  0  0  0  0
  147.2934  131.6602  153.4222 C   0  0  0  0  0  0  0  0  0  0  0  0
  146.5153  131.7288  154.3739 O   0  0  0  0  0  0  0  0  0  0  0  0
  148.5988  132.4562  153.4409 C   0  0  0  0  0  0  0  0  0  0  0  0
  149.0539  132.7826  154.8751 C   0  0  0  0  0  0  0  0  0  0  0  0
  150.1271  133.8878  154.9272 C   0  0  1  0  0  0  0  0  0  0  0  0
  149.6314  135.1281  154.3701 N   0  0  0  0  0  0  0  0  0  0  0  0
  149.7098  136.1221  155.2525 C   0  0  0  0  0  0  0  0  0  0  0  0
  149.3636  137.2668  154.9689 O   0  0  0  0  0  0  0  0  0  0  0  0
  150.1979  135.6667  156.4226 N   0  5  0  0  0  0  0  0  0  0  0  0
  150.4693  134.3459  156.3447 C   0  0  0  0  0  0  0  0  0  0  0  0
  150.9169  133.5744  157.1918 O   0  0  0  0  0  0  0  0  0  0  0  0
  145.4199  128.0775  151.4499 H   0  0  0  0  0  0  0  0  0  0  0  0
  146.9161  128.2274  152.3620 H   0  0  0  0  0  0  0  0  0  0  0  0
  146.8523  128.7575  150.6824 H   0  0  0  0  0  0  0  0  0  0  0  0
  145.3004  129.9917  153.0031 H   0  0  0  0  0  0  0  0  0  0  0  0
  145.1789  130.4340  150.0307 H   0  0  0  0  0  0  0  0  0  0  0  0
  143.9119  130.5500  151.2296 H   0  0  0  0  0  0  0  0  0  0  0  0
  144.3002  132.7813  152.9909 H   0  0  0  0  0  0  0  0  0  0  0  0
  144.9071  135.3105  152.1636 H   0  0  0  0  0  0  0  0  0  0  0  0
  145.9525  134.9019  149.6292 H   0  0  0  0  0  0  0  0  0  0  0  0
  147.7611  130.9275  151.5990 H   0  0  0  0  0  0  0  0  0  0  0  0
  149.3649  131.8700  152.9324 H   0  0  0  0  0  0  0  0  0  0  0  0
  148.4776  133.3756  152.8665 H   0  0  0  0  0  0  0  0  0  0  0  0
  148.1924  133.0704  155.4811 H   0  0  0  0  0  0  0  0  0  0  0  0
  149.4582  131.8797  155.3355 H   0  0  0  0  0  0  0  0  0  0  0  0
  151.0380  133.5815  154.4109 H   0  0  0  0  0  0  0  0  0  0  0  0
  149.2980  135.2209  153.4221 H   0  0  0  0  0  0  0  0  0  0  0  0
  1  2  1  0  0  0  0
  1 21  1  0  0  0  0
  1 22  1  0  0  0  0
  1 23  1  0  0  0  0
  2  3  1  0  0  0  0
  2  9  1  0  0  0  0
  2 24  1  0  0  0  0
  3  4  1  0  0  0  0
  3 25  1  0  0  0  0
  3 26  1  0  0  0  0
  4  8  1  0  0  0  0
  4  5  1  0  0  0  0
  5  6  2  0  0  0  0
  5 27  1  0  0  0  0
  6  7  1  0  0  0  0
  6 28  1  0  0  0  0
  7  8  2  0  0  0  0
  7 29  1  0  0  0  0
  9 10  1  0  0  0  0
  9 30  1  0  0  0  0
 10 11  2  0  0  0  0
 10 12  1  0  0  0  0
 12 13  1  0  0  0  0
 12 31  1  0  0  0  0
 12 32  1  0  0  0  0
 13 14  1  0  0  0  0
 13 33  1  0  0  0  0
 13 34  1  0  0  0  0
 14 19  1  0  0  0  0
 14 15  1  0  0  0  0
 14 35  1  0  0  0  0
 15 16  1  0  0  0  0
 15 36  1  0  0  0  0
 16 17  2  0  0  0  0
 16 18  1  0  0  0  0
 18 19  1  0  0  0  0
 19 20  2  0  0  0  0
M  CHG  1  18  -1
M  END
> <s_m_source_file>
AV-unprocessed.smi

> <i_m_source_file_index>
1196

> <i_lp_mmshare_version>
43012

> <i_f3d_flags>
0

> <s_epik_input>
bjFbY0hdW2NIXVtjSF1uMVtDSDJdW0NAQEhdKFtDSDNdKVtOSF1DKD1PKVtDSDJdW0NIMl1bQ0BASF0yW05IXUMoPU8pW05IXUMyPU8=

> <s_epik_cmdline>
J2VwaWtfcHl0aG9uJywgJy1waCcsICc3LjAnLCAnLXRuJywgJzgnLCAnLW1hJywgJzIwMCcsICctbWV0YWxfYmluZGluZycsICctaW1hZScsICc8aW5maWxlLm1hZT4nLCAnLW9tYWUnLCAnPG91dGZpbGUubWFlPic=

> <r_lp_tautomer_probability>
1

> <r_epik_Ionization_Penalty>
2.57056

> <r_epik_Ionization_Penalty_Charging>
2.57023

> <r_epik_Ionization_Penalty_Neutral>
0.000331301

> <r_epik_State_Penalty>
2.56828

> <r_epik_Charging_Adjusted_Penalty>
5.13851

> <i_epik_Tot_Q>
-1

> <i_epik_Tot_abs_Q>
1

> <r_epik_Metal_State_Penalty>
0.444883

> <b_epik_Metal_Only>
1

> <s_lp_Force_Field>
OPLS_2005

> <r_lp_Energy>
7.37265

> <b_lp_Chiralities_Consistent>
1

> <s_lp_Variant>
AV-unprocessed.smi:1196-11

> <Gold.Version>
5.8.1

> <Gold.Id.Protein>
6NUR|6NUR_protein|mol2

> <Gold.PLP.Fitness>
42.8855

> <Gold.PLP.PLP>
-30.6755

> <Gold.PLP.part.hbond>
-3.0000

> <Gold.PLP.part.metal>
0.0000

> <Gold.PLP.part.buried>
-4.8628

> <Gold.PLP.part.nonpolar>
-23.6570

> <Gold.PLP.part.repulsive>
0.4466

> <Gold.PLP.ligand.clash>
0.0000

> <Gold.PLP.ligand.torsion>
0.9717

> <Gold.PLP.Chemscore.Hbond>
2.6880

> <Gold.PLP.Chemscore.CHOScore>
1.9985

> <Gold.PLP.Chemscore.Metal>
0.0000

> <Gold.Chemscore.Hbonds>
donor molecule, donor type, donor heavy atom, donor atom, acceptor molecule, acceptor atom, score
      L1  H     9    30       P1 10747  1.00
      L1  H    15    36       P1  7948  0.85
      P1  H  6896  6907       L1    20  0.72
      L1  C     5    27       P1 10957  0.79
      L1  C     7    29       P1  7921  0.92

> <Gold.PLP.Chemscore.Internal.Correction>
0.0941

> <Gold.Rescore>
     Score         DG    S(hbond)    S(metal)    S(lipo)     H(rot)  DE(clash)    DE(int)     intcor
     12.70     -14.39       2.65        0.00      63.86       2.89       0.38       1.31       ----

> <Gold.Chemscore.Fitness>
12.6958

> <Gold.Chemscore.DG>
-14.3861

> <Gold.Chemscore.ZeroCoef>
-5.4800

> <Gold.Chemscore.Hbond>
2.6479

> <Gold.Chemscore.Metal>
0.0000

> <Gold.Chemscore.Lipo>
63.8646

> <Gold.Chemscore.Internal_Hbond>
0.0000

> <Gold.Chemscore.DEClash>
0.3834

> <Gold.Chemscore.DEInternal>
1.3069

> <Gold.Chemscore.Rot>
2.8946

> <Gold.Chemscore.Internal.Correction>
   9.000000E+99

> <Gold.Chemscore.Hbonds>
donor molecule, donor type, donor heavy atom, donor atom, acceptor molecule, acceptor atom, score
      L1  H     9    30       P1 10747  1.00
      L1  H    15    36       P1  7948  0.14
      P1  H  6896  6907       L1    20  0.69

> <Gold.Chemscore.Hbond.Weighted>
-8.8441

> <Gold.Chemscore.Metal.Weighted>
-0.0000

> <Gold.Chemscore.Lipo.Weighted>
-7.4722

> <Gold.Chemscore.Internal_Hbond.Weighted>
0.0000

> <Gold.Chemscore.DEClash.Weighted>
0.3834

> <Gold.Chemscore.DEInternal.Weighted>
1.3069

> <Gold.Chemscore.Rot.Weighted>
7.4101

> <Gold.Chemscore.Internal.Correction.Weighted>
   9.000000E+99

> <Gold.Protein.RotatedTorsions>
[ 6907 6896 6895 6894 ] final -146.44 input  -60.11 | X-H torsion
[ 7974 7965 7964 7962 ] final  109.70 input  175.53 | X-H torsion
[ 8008 7997 7996 7995 ] final -121.54 input   59.86 | X-H torsion
[ 10167 10162 10161 10158 ] final -142.35 input  -65.29 | X-H torsion
[ 10718 10713 10712 10709 ] final  168.86 input   66.30 | X-H torsion
[ 10763 10752 10751 10750 ] final  -17.37 input  -60.55 | X-H torsion
[ 11005 11000 10999 10996 ] final  154.64 input  -57.11 | X-H torsion

> <Gold.Protein.ActiveResidues>
 VAL166  LYS551  ARG553  GLY616  TRP617  ASP618  TYR619  PRO620  LYS621  CYS622 
 ASP623  PHE694  ASN695  SER759  ASP760  ASP761  ALA762  ILE779  LEU786  VAL792 
 PHE793  MET794  SER795  GLU796  ALA797  LYS798  CYS799  TRP800  GLU811  SER814 

> <Gold.Protein.RotatedAtoms>
  151.1417  133.4967  159.2596 H   0  0  0  0  0  0  0  0  0  0  0  0  # atno 6907 bound_to 6896
  151.1648  135.0290  159.8736 H   0  0  0  0  0  0  0  0  0  0  0  0  # atno 6908 bound_to 6896
  152.5462  134.1287  159.8483 H   0  0  0  0  0  0  0  0  0  0  0  0  # atno 6909 bound_to 6896
  145.2644  139.2690  143.3999 H   0  0  0  0  0  0  0  0  0  0  0  0  # atno 7974 bound_to 7965
  155.1497  140.0403  157.2818 H   0  0  0  0  0  0  0  0  0  0  0  0  # atno 8008 bound_to 7997
  154.6413  140.2547  155.7292 H   0  0  0  0  0  0  0  0  0  0  0  0  # atno 8009 bound_to 7997
  156.2534  140.2855  156.0808 H   0  0  0  0  0  0  0  0  0  0  0  0  # atno 8010 bound_to 7997
  139.8097  143.7720  152.2663 H   0  0  0  0  0  0  0  0  0  0  0  0  # atno 10167 bound_to 10162
  157.0309  131.0259  151.2745 H   0  0  0  0  0  0  0  0  0  0  0  0  # atno 10718 bound_to 10713
  153.5728  135.7007  153.5497 H   0  0  0  0  0  0  0  0  0  0  0  0  # atno 10763 bound_to 10752
  153.3329  135.4042  155.1510 H   0  0  0  0  0  0  0  0  0  0  0  0  # atno 10764 bound_to 10752
  154.8630  135.3723  154.5252 H   0  0  0  0  0  0  0  0  0  0  0  0  # atno 10765 bound_to 10752
  140.1507  134.8676  157.2451 H   0  0  0  0  0  0  0  0  0  0  0  0  # atno 11005 bound_to 11000
  146.3265  140.3070  142.8624 LP  0  0  0  0  0  0  0  0  0  0  0  0  # atno 17320 bound_to 7965
  144.9390  140.8057  143.5642 LP  0  0  0  0  0  0  0  0  0  0  0  0  # atno 17321 bound_to 7965
  139.7865  144.7426  151.0015 LP  0  0  0  0  0  0  0  0  0  0  0  0  # atno 17342 bound_to 10162
  140.7818  143.4487  151.0445 LP  0  0  0  0  0  0  0  0  0  0  0  0  # atno 17343 bound_to 10162
  157.5178  130.7979  149.7775 LP  0  0  0  0  0  0  0  0  0  0  0  0  # atno 17370 bound_to 10713
  156.0070  130.3851  150.2397 LP  0  0  0  0  0  0  0  0  0  0  0  0  # atno 17371 bound_to 10713
  140.2608  134.3574  155.7407 LP  0  0  0  0  0  0  0  0  0  0  0  0  # atno 17394 bound_to 11000
  141.2198  133.7368  156.9077 LP  0  0  0  0  0  0  0  0  0  0  0  0  # atno 17395 bound_to 11000

$$$$
