AV-unprocessed.smi:1634|AV-procd|sdf|6538|dock5
  -GOLD-   22720 7223D 1   1.00000     0.00000
 Structure written by MMmdl.
 37 37  0  0  0  0  0  0  0  0  2 V2000
  146.0238  140.8078  155.3047 C   0  0  0  0  0  0  0  0  0  0  0  0
  147.0912  141.8466  154.9302 C   0  0  0  0  0  0  0  0  0  0  0  0
  146.4988  142.9340  154.0199 C   0  0  0  0  0  0  0  0  0  0  0  0
  148.3112  141.1728  154.2821 C   0  0  0  0  0  0  0  0  0  0  0  0
  148.4400  139.8482  154.7881 O   0  0  0  0  0  0  0  0  0  0  0  0
  149.7488  139.2883  154.7167 C   0  0  2  0  0  0  0  0  0  0  0  0
  149.6647  137.8460  155.2379 C   0  0  0  0  0  0  0  0  0  0  0  0
  150.7338  140.1270  155.5473 C   0  0  0  0  0  0  0  0  0  0  0  0
  151.7626  140.5477  155.0187 O   0  0  0  0  0  0  0  0  0  0  0  0
  150.3862  140.3083  156.8366 N   0  0  0  0  0  0  0  0  0  0  0  0
  151.0509  140.9996  157.8643 C   0  0  0  0  0  0  0  0  0  0  0  0
  150.8647  142.3132  158.1736 C   0  0  0  0  0  0  0  0  0  0  0  0
  151.5865  142.9672  159.2586 C   0  0  0  0  0  0  0  0  0  0  0  0
  151.4379  144.4323  159.6255 C   0  0  0  0  0  0  0  0  0  0  0  0
  151.9670  145.2000  158.6735 F   0  0  0  0  0  0  0  0  0  0  0  0
  150.1491  144.7509  159.7428 F   0  0  0  0  0  0  0  0  0  0  0  0
  152.0474  144.7112  160.7779 F   0  0  0  0  0  0  0  0  0  0  0  0
  152.4462  142.1074  159.9121 C   0  0  0  0  0  0  0  0  0  0  0  0
  152.6787  140.7973  159.6795 N   0  5  0  0  0  0  0  0  0  0  0  0
  152.0029  140.1961  158.6599 C   0  0  0  0  0  0  0  0  0  0  0  0
  152.1688  139.0056  158.3920 O   0  0  0  0  0  0  0  0  0  0  0  0
  145.6501  140.2885  154.4216 H   0  0  0  0  0  0  0  0  0  0  0  0
  145.1734  141.2776  155.7998 H   0  0  0  0  0  0  0  0  0  0  0  0
  146.4263  140.0575  155.9860 H   0  0  0  0  0  0  0  0  0  0  0  0
  147.4227  142.3240  155.8531 H   0  0  0  0  0  0  0  0  0  0  0  0
  146.1542  142.5143  153.0744 H   0  0  0  0  0  0  0  0  0  0  0  0
  147.2353  143.7049  153.7912 H   0  0  0  0  0  0  0  0  0  0  0  0
  145.6495  143.4254  154.4953 H   0  0  0  0  0  0  0  0  0  0  0  0
  148.1811  141.1305  153.1998 H   0  0  0  0  0  0  0  0  0  0  0  0
  149.2062  141.7648  154.4783 H   0  0  0  0  0  0  0  0  0  0  0  0
  150.0725  139.2556  153.6743 H   0  0  0  0  0  0  0  0  0  0  0  0
  150.6433  137.3649  155.2319 H   0  0  0  0  0  0  0  0  0  0  0  0
  149.0010  137.2485  154.6126 H   0  0  0  0  0  0  0  0  0  0  0  0
  149.2779  137.8088  156.2572 H   0  0  0  0  0  0  0  0  0  0  0  0
  149.5343  139.8538  157.1327 H   0  0  0  0  0  0  0  0  0  0  0  0
  150.1600  142.9169  157.6277 H   0  0  0  0  0  0  0  0  0  0  0  0
  153.0370  142.5411  160.7472 H   0  0  0  0  0  0  0  0  0  0  0  0
  1  2  1  0  0  0  0
  1 22  1  0  0  0  0
  1 23  1  0  0  0  0
  1 24  1  0  0  0  0
  2  3  1  0  0  0  0
  2  4  1  0  0  0  0
  2 25  1  0  0  0  0
  3 26  1  0  0  0  0
  3 27  1  0  0  0  0
  3 28  1  0  0  0  0
  4  5  1  0  0  0  0
  4 29  1  0  0  0  0
  4 30  1  0  0  0  0
  5  6  1  0  0  0  0
  6  7  1  0  0  0  0
  6  8  1  0  0  0  0
  6 31  1  0  0  0  0
  7 32  1  0  0  0  0
  7 33  1  0  0  0  0
  7 34  1  0  0  0  0
  8  9  2  0  0  0  0
  8 10  1  0  0  0  0
 10 11  1  0  0  0  0
 10 35  1  0  0  0  0
 11 20  1  0  0  0  0
 11 12  2  0  0  0  0
 12 13  1  0  0  0  0
 12 36  1  0  0  0  0
 13 14  1  0  0  0  0
 13 18  2  0  0  0  0
 14 15  1  0  0  0  0
 14 16  1  0  0  0  0
 14 17  1  0  0  0  0
 18 19  1  0  0  0  0
 18 37  1  0  0  0  0
 19 20  1  0  0  0  0
 20 21  2  0  0  0  0
M  CHG  1  19  -1
M  END
> <s_m_source_file>
AV-unprocessed.smi

> <i_m_source_file_index>
1634

> <i_lp_mmshare_version>
43012

> <i_f3d_flags>
0

> <s_epik_input>
W0NIM11bQ0hdKFtDSDNdKVtDSDJdT1tDQEhdKFtDSDNdKUMoPU8pW05IXWMxW2NIXWMoQyhGKShGKUYpW2NIXVtuSF1jMT1P

> <s_epik_cmdline>
J2VwaWtfcHl0aG9uJywgJy1waCcsICc3LjAnLCAnLXRuJywgJzgnLCAnLW1hJywgJzIwMCcsICctbWV0YWxfYmluZGluZycsICctaW1hZScsICc8aW5maWxlLm1hZT4nLCAnLW9tYWUnLCAnPG91dGZpbGUubWFlPic=

> <r_epik_Ionization_Penalty>
2.55349

> <r_epik_Ionization_Penalty_Charging>
0.0582825

> <r_epik_Ionization_Penalty_Neutral>
2.49521

> <r_epik_State_Penalty>
2.65983

> <r_epik_Charging_Adjusted_Penalty>
2.71812

> <i_epik_Tot_Q>
-1

> <i_epik_Tot_abs_Q>
1

> <r_epik_Metal_State_Penalty>
0.516727

> <b_epik_Metal_Only>
0

> <s_lp_Force_Field>
OPLS_2005

> <r_lp_Energy>
22.0513

> <b_lp_Chiralities_Consistent>
1

> <s_lp_Variant>
AV-unprocessed.smi:1634-3

> <Gold.Version>
5.8.1

> <Gold.Id.Protein>
6NUR|6NUR_protein|mol2

> <Gold.PLP.Fitness>
42.5087

> <Gold.PLP.PLP>
-43.1557

> <Gold.PLP.part.hbond>
-0.8072

> <Gold.PLP.part.metal>
0.0000

> <Gold.PLP.part.buried>
-6.8739

> <Gold.PLP.part.nonpolar>
-35.5471

> <Gold.PLP.part.repulsive>
0.1719

> <Gold.PLP.ligand.clash>
0.0000

> <Gold.PLP.ligand.torsion>
1.6026

> <Gold.PLP.Chemscore.Hbond>
0.8160

> <Gold.PLP.Chemscore.CHOScore>
0.0000

> <Gold.PLP.Chemscore.Metal>
0.0000

> <Gold.Chemscore.Hbonds>
donor molecule, donor type, donor heavy atom, donor atom, acceptor molecule, acceptor atom, score
      P1  H  7989  7998       L1     9  0.75

> <Gold.PLP.Chemscore.Internal.Correction>
0.1102

> <Gold.Rescore>
     Score         DG    S(hbond)    S(metal)    S(lipo)     H(rot)  DE(clash)    DE(int)     intcor
     11.23     -12.70       0.93        0.00      73.51       1.75       0.03       1.44       ----

> <Gold.Chemscore.Fitness>
11.2280

> <Gold.Chemscore.DG>
-12.7009

> <Gold.Chemscore.ZeroCoef>
-5.4800

> <Gold.Chemscore.Hbond>
0.9311

> <Gold.Chemscore.Metal>
0.0000

> <Gold.Chemscore.Lipo>
73.5103

> <Gold.Chemscore.Internal_Hbond>
0.0000

> <Gold.Chemscore.DEClash>
0.0289

> <Gold.Chemscore.DEInternal>
1.4439

> <Gold.Chemscore.Rot>
1.7538

> <Gold.Chemscore.Internal.Correction>
   9.000000E+99

> <Gold.Chemscore.Hbonds>
donor molecule, donor type, donor heavy atom, donor atom, acceptor molecule, acceptor atom, score
      P1  H  7989  7998       L1     9  0.65

> <Gold.Chemscore.Hbond.Weighted>
-3.1099

> <Gold.Chemscore.Metal.Weighted>
-0.0000

> <Gold.Chemscore.Lipo.Weighted>
-8.6007

> <Gold.Chemscore.Internal_Hbond.Weighted>
0.0000

> <Gold.Chemscore.DEClash.Weighted>
0.0289

> <Gold.Chemscore.DEInternal.Weighted>
1.4439

> <Gold.Chemscore.Rot.Weighted>
4.4898

> <Gold.Chemscore.Internal.Correction.Weighted>
   9.000000E+99

> <Gold.Protein.RotatedTorsions>
[ 6907 6896 6895 6894 ] final  177.18 input  -60.11 | X-H torsion
[ 7974 7965 7964 7962 ] final -135.68 input  175.53 | X-H torsion
[ 8008 7997 7996 7995 ] final -154.54 input   59.86 | X-H torsion
[ 10167 10162 10161 10158 ] final   92.61 input  -65.29 | X-H torsion
[ 10718 10713 10712 10709 ] final  122.71 input   66.30 | X-H torsion
[ 10763 10752 10751 10750 ] final   11.40 input  -60.55 | X-H torsion
[ 11005 11000 10999 10996 ] final  104.18 input  -57.11 | X-H torsion

> <Gold.Protein.ActiveResidues>
 VAL166  LYS551  ARG553  GLY616  TRP617  ASP618  TYR619  PRO620  LYS621  CYS622 
 ASP623  PHE694  ASN695  SER759  ASP760  ASP761  ALA762  ILE779  LEU786  VAL792 
 PHE793  MET794  SER795  GLU796  ALA797  LYS798  CYS799  TRP800  GLU811  SER814 

> <Gold.Protein.RotatedAtoms>
  151.7081  133.3312  159.3283 H   0  0  0  0  0  0  0  0  0  0  0  0  # atno 6907 bound_to 6896
  150.7706  134.6556  159.6321 H   0  0  0  0  0  0  0  0  0  0  0  0  # atno 6908 bound_to 6896
  152.3728  134.6711  160.0222 H   0  0  0  0  0  0  0  0  0  0  0  0  # atno 6909 bound_to 6896
  144.8993  140.6749  143.5095 H   0  0  0  0  0  0  0  0  0  0  0  0  # atno 7974 bound_to 7965
  155.6880  140.0752  157.2459 H   0  0  0  0  0  0  0  0  0  0  0  0  # atno 8008 bound_to 7997
  154.4093  140.1670  156.2107 H   0  0  0  0  0  0  0  0  0  0  0  0  # atno 8009 bound_to 7997
  155.9477  140.3379  155.6384 H   0  0  0  0  0  0  0  0  0  0  0  0  # atno 8010 bound_to 7997
  139.8259  144.6709  150.9460 H   0  0  0  0  0  0  0  0  0  0  0  0  # atno 10167 bound_to 10162
  157.5721  131.1082  150.8347 H   0  0  0  0  0  0  0  0  0  0  0  0  # atno 10718 bound_to 10713
  153.1930  135.6845  153.8328 H   0  0  0  0  0  0  0  0  0  0  0  0  # atno 10763 bound_to 10752
  153.7620  135.3208  155.3340 H   0  0  0  0  0  0  0  0  0  0  0  0  # atno 10764 bound_to 10752
  154.8128  135.4706  154.0662 H   0  0  0  0  0  0  0  0  0  0  0  0  # atno 10765 bound_to 10752
  139.8789  134.9291  156.5322 H   0  0  0  0  0  0  0  0  0  0  0  0  # atno 11005 bound_to 11000
  145.3645  139.1673  143.4365 LP  0  0  0  0  0  0  0  0  0  0  0  0  # atno 17320 bound_to 7965
  146.3099  140.3711  142.8674 LP  0  0  0  0  0  0  0  0  0  0  0  0  # atno 17321 bound_to 7965
  140.7810  143.4046  151.1092 LP  0  0  0  0  0  0  0  0  0  0  0  0  # atno 17342 bound_to 10162
  139.7703  143.8503  152.3119 LP  0  0  0  0  0  0  0  0  0  0  0  0  # atno 17343 bound_to 10162
  156.8816  130.5181  149.5290 LP  0  0  0  0  0  0  0  0  0  0  0  0  # atno 17370 bound_to 10713
  156.0766  130.5787  150.9485 LP  0  0  0  0  0  0  0  0  0  0  0  0  # atno 17371 bound_to 10713
  140.8372  133.8233  155.9040 LP  0  0  0  0  0  0  0  0  0  0  0  0  # atno 17394 bound_to 11000
  140.9272  134.2068  157.4888 LP  0  0  0  0  0  0  0  0  0  0  0  0  # atno 17395 bound_to 11000

$$$$
