AV-unprocessed.smi:1513|AV-procd|sdf|6108|dock7
  -GOLD-   22720 6243D 1   1.00000     0.00000
 Structure written by MMmdl.
 34 35  0  0  0  0  0  0  0  0  1 V2000
  155.1490  136.8324  158.5721 N   0  0  0  0  0  0  0  0  0  0  0  0
  153.4668  136.9794  158.8901 S   0  0  0  0  0  0  0  0  0  0  0  0
  152.7165  136.4045  157.7637 O   0  0  0  0  0  0  0  0  0  0  0  0
  153.2092  136.5670  160.2780 O   0  0  0  0  0  0  0  0  0  0  0  0
  153.3362  138.6931  158.8028 N   0  0  0  0  0  0  0  0  0  0  0  0
  152.0216  139.3243  158.9046 C   0  0  0  0  0  0  0  0  0  0  0  0
  152.1010  140.8419  158.8441 C   0  0  0  0  0  0  0  0  0  0  0  0
  152.6920  141.5559  159.9077 C   0  0  0  0  0  0  0  0  0  0  0  0
  152.7492  142.9602  159.8416 C   0  0  0  0  0  0  0  0  0  0  0  0
  152.2091  143.5981  158.7094 C   0  0  0  0  0  0  0  0  0  0  0  0
  151.6402  142.9291  157.6847 N   0  0  0  0  0  0  0  0  0  0  0  0
  151.5840  141.5765  157.7458 C   0  0  0  0  0  0  0  0  0  0  0  0
  150.9999  140.9018  156.6616 N   0  0  0  0  0  0  0  0  0  0  0  0
  150.2382  141.7356  155.7407 C   0  0  0  0  0  0  0  0  0  0  0  0
  149.5077  140.8453  154.7217 C   0  0  0  0  0  0  0  0  0  0  0  0
  150.4542  140.0208  154.0468 O   0  0  0  0  0  0  0  0  0  0  0  0
  151.1523  139.1593  154.9426 C   0  0  0  0  0  0  0  0  0  0  0  0
  151.9169  139.9975  155.9820 C   0  0  0  0  0  0  0  0  0  0  0  0
  155.3589  136.0484  157.9545 H   0  0  0  0  0  0  0  0  0  0  0  0
  155.7068  136.8401  159.4258 H   0  0  0  0  0  0  0  0  0  0  0  0
  154.0833  139.1912  159.2858 H   0  0  0  0  0  0  0  0  0  0  0  0
  151.3840  138.9405  158.1078 H   0  0  0  0  0  0  0  0  0  0  0  0
  151.5506  139.0334  159.8442 H   0  0  0  0  0  0  0  0  0  0  0  0
  153.0947  141.0373  160.7652 H   0  0  0  0  0  0  0  0  0  0  0  0
  153.1953  143.5343  160.6404 H   0  0  0  0  0  0  0  0  0  0  0  0
  152.2350  144.6743  158.6236 H   0  0  0  0  0  0  0  0  0  0  0  0
  149.5200  142.3395  156.2967 H   0  0  0  0  0  0  0  0  0  0  0  0
  150.9076  142.4213  155.2195 H   0  0  0  0  0  0  0  0  0  0  0  0
  148.7550  140.2269  155.2137 H   0  0  0  0  0  0  0  0  0  0  0  0
  148.9858  141.4611  153.9895 H   0  0  0  0  0  0  0  0  0  0  0  0
  150.4506  138.4815  155.4305 H   0  0  0  0  0  0  0  0  0  0  0  0
  151.8467  138.5414  154.3735 H   0  0  0  0  0  0  0  0  0  0  0  0
  152.7011  140.5765  155.4918 H   0  0  0  0  0  0  0  0  0  0  0  0
  152.4028  139.3435  156.7070 H   0  0  0  0  0  0  0  0  0  0  0  0
  1  2  1  0  0  0  0
  1 19  1  0  0  0  0
  1 20  1  0  0  0  0
  2  3  2  0  0  0  0
  2  4  2  0  0  0  0
  2  5  1  0  0  0  0
  5  6  1  0  0  0  0
  5 21  1  0  0  0  0
  6  7  1  0  0  0  0
  6 22  1  0  0  0  0
  6 23  1  0  0  0  0
  7 12  1  0  0  0  0
  7  8  2  0  0  0  0
  8  9  1  0  0  0  0
  8 24  1  0  0  0  0
  9 10  2  0  0  0  0
  9 25  1  0  0  0  0
 10 11  1  0  0  0  0
 10 26  1  0  0  0  0
 11 12  2  0  0  0  0
 12 13  1  0  0  0  0
 13 18  1  0  0  0  0
 13 14  1  0  0  0  0
 14 15  1  0  0  0  0
 14 27  1  0  0  0  0
 14 28  1  0  0  0  0
 15 16  1  0  0  0  0
 15 29  1  0  0  0  0
 15 30  1  0  0  0  0
 16 17  1  0  0  0  0
 17 18  1  0  0  0  0
 17 31  1  0  0  0  0
 17 32  1  0  0  0  0
 18 33  1  0  0  0  0
 18 34  1  0  0  0  0
M  END
> <s_m_source_file>
AV-unprocessed.smi

> <i_m_source_file_index>
1513

> <i_lp_mmshare_version>
43012

> <i_f3d_flags>
0

> <s_epik_input>
W05IMl1TKD1PKSg9TylbTkhdW0NIMl1jMVtjSF1bY0hdW2NIXW5jMU4yW0NIMl1bQ0gyXU9bQ0gyXVtDSDJdMg==

> <s_epik_cmdline>
J2VwaWtfcHl0aG9uJywgJy1waCcsICc3LjAnLCAnLXRuJywgJzgnLCAnLW1hJywgJzIwMCcsICctbWV0YWxfYmluZGluZycsICctaW1hZScsICc8aW5maWxlLm1hZT4nLCAnLW9tYWUnLCAnPG91dGZpbGUubWFlPic=

> <r_lp_tautomer_probability>
1

> <r_epik_Ionization_Penalty>
0.193648

> <r_epik_Ionization_Penalty_Charging>
0

> <r_epik_Ionization_Penalty_Neutral>
0.193648

> <r_epik_State_Penalty>
0.187016

> <r_epik_Charging_Adjusted_Penalty>
0.187016

> <i_epik_Tot_Q>
0

> <i_epik_Tot_abs_Q>
0

> <r_epik_Metal_State_Penalty>
0.77957

> <b_epik_Metal_Only>
0

> <s_lp_Force_Field>
OPLS_2005

> <r_lp_Energy>
22.2983

> <b_lp_Chiralities_Consistent>
1

> <s_lp_Variant>
AV-unprocessed.smi:1513-1

> <Gold.Version>
5.8.1

> <Gold.Id.Protein>
6NUR|6NUR_protein|mol2

> <Gold.PLP.Fitness>
38.7898

> <Gold.PLP.PLP>
-33.1650

> <Gold.PLP.part.hbond>
-1.9438

> <Gold.PLP.part.metal>
0.0000

> <Gold.PLP.part.buried>
-4.6447

> <Gold.PLP.part.nonpolar>
-26.4718

> <Gold.PLP.part.repulsive>
0.7819

> <Gold.PLP.ligand.clash>
0.0000

> <Gold.PLP.ligand.torsion>
0.3045

> <Gold.PLP.Chemscore.Hbond>
1.9913

> <Gold.PLP.Chemscore.CHOScore>
0.0000

> <Gold.PLP.Chemscore.Metal>
0.0000

> <Gold.Chemscore.Hbonds>
donor molecule, donor type, donor heavy atom, donor atom, acceptor molecule, acceptor atom, score
      P1  H  6896  6909       L1     4  1.00
      P1  H  7989  7998       L1    16  1.00

> <Gold.PLP.Chemscore.Internal.Correction>
0.2601

> <Gold.Rescore>
     Score         DG    S(hbond)    S(metal)    S(lipo)     H(rot)  DE(clash)    DE(int)     intcor
     12.47     -13.99       1.90        0.00      72.43       2.47       0.12       1.40       ----

> <Gold.Chemscore.Fitness>
12.4673

> <Gold.Chemscore.DG>
-13.9868

> <Gold.Chemscore.ZeroCoef>
-5.4800

> <Gold.Chemscore.Hbond>
1.9007

> <Gold.Chemscore.Metal>
0.0000

> <Gold.Chemscore.Lipo>
72.4300

> <Gold.Chemscore.Internal_Hbond>
0.0000

> <Gold.Chemscore.DEClash>
0.1214

> <Gold.Chemscore.DEInternal>
1.3981

> <Gold.Chemscore.Rot>
2.4671

> <Gold.Chemscore.Internal.Correction>
   9.000000E+99

> <Gold.Chemscore.Hbonds>
donor molecule, donor type, donor heavy atom, donor atom, acceptor molecule, acceptor atom, score
      P1  H  6896  6909       L1     4  0.40
      P1  H  7989  7998       L1    16  0.22

> <Gold.Chemscore.Hbond.Weighted>
-6.3482

> <Gold.Chemscore.Metal.Weighted>
-0.0000

> <Gold.Chemscore.Lipo.Weighted>
-8.4743

> <Gold.Chemscore.Internal_Hbond.Weighted>
0.0000

> <Gold.Chemscore.DEClash.Weighted>
0.1214

> <Gold.Chemscore.DEInternal.Weighted>
1.3981

> <Gold.Chemscore.Rot.Weighted>
6.3157

> <Gold.Chemscore.Internal.Correction.Weighted>
   9.000000E+99

> <Gold.Protein.RotatedTorsions>
[ 6907 6896 6895 6894 ] final  156.22 input  -60.11 | X-H torsion
[ 7974 7965 7964 7962 ] final  179.94 input  175.53 | X-H torsion
[ 8008 7997 7996 7995 ] final  107.44 input   59.86 | X-H torsion
[ 10167 10162 10161 10158 ] final   20.37 input  -65.29 | X-H torsion
[ 10718 10713 10712 10709 ] final  -46.82 input   66.30 | X-H torsion
[ 10763 10752 10751 10750 ] final   90.20 input  -60.55 | X-H torsion
[ 11005 11000 10999 10996 ] final   78.30 input  -57.11 | X-H torsion

> <Gold.Protein.ActiveResidues>
 VAL166  LYS551  ARG553  GLY616  TRP617  ASP618  TYR619  PRO620  LYS621  CYS622 
 ASP623  PHE694  ASN695  SER759  ASP760  ASP761  ALA762  ILE779  LEU786  VAL792 
 PHE793  MET794  SER795  GLU796  ALA797  LYS798  CYS799  TRP800  GLU811  SER814 

> <Gold.Protein.RotatedAtoms>
  152.0328  133.3944  159.4304 H   0  0  0  0  0  0  0  0  0  0  0  0  # atno 6907 bound_to 6896
  150.6881  134.3501  159.4915 H   0  0  0  0  0  0  0  0  0  0  0  0  # atno 6908 bound_to 6896
  152.1290  134.9149  160.0610 H   0  0  0  0  0  0  0  0  0  0  0  0  # atno 6909 bound_to 6896
  144.7141  140.0623  143.6432 H   0  0  0  0  0  0  0  0  0  0  0  0  # atno 7974 bound_to 7965
  156.1824  140.3095  155.9173 H   0  0  0  0  0  0  0  0  0  0  0  0  # atno 8008 bound_to 7997
  155.3355  140.0463  157.3061 H   0  0  0  0  0  0  0  0  0  0  0  0  # atno 8009 bound_to 7997
  154.5357  140.2245  155.8736 H   0  0  0  0  0  0  0  0  0  0  0  0  # atno 8010 bound_to 7997
  140.5509  143.9511  150.6577 H   0  0  0  0  0  0  0  0  0  0  0  0  # atno 10167 bound_to 10162
  156.2145  130.4162  149.9071 H   0  0  0  0  0  0  0  0  0  0  0  0  # atno 10718 bound_to 10713
  153.1951  135.4442  155.0197 H   0  0  0  0  0  0  0  0  0  0  0  0  # atno 10763 bound_to 10752
  154.8114  135.3296  154.7298 H   0  0  0  0  0  0  0  0  0  0  0  0  # atno 10764 bound_to 10752
  153.7748  135.6982  153.4955 H   0  0  0  0  0  0  0  0  0  0  0  0  # atno 10765 bound_to 10752
  139.9218  134.7752  156.1632 H   0  0  0  0  0  0  0  0  0  0  0  0  # atno 11005 bound_to 11000
  145.9853  139.2973  143.1017 LP  0  0  0  0  0  0  0  0  0  0  0  0  # atno 17320 bound_to 7965
  145.8964  140.9271  143.0525 LP  0  0  0  0  0  0  0  0  0  0  0  0  # atno 17321 bound_to 7965
  140.2936  143.3307  152.1038 LP  0  0  0  0  0  0  0  0  0  0  0  0  # atno 17342 bound_to 10162
  139.5027  144.6740  151.6174 LP  0  0  0  0  0  0  0  0  0  0  0  0  # atno 17343 bound_to 10162
  156.6738  130.8831  151.3566 LP  0  0  0  0  0  0  0  0  0  0  0  0  # atno 17370 bound_to 10713
  157.7056  130.9381  150.0921 LP  0  0  0  0  0  0  0  0  0  0  0  0  # atno 17371 bound_to 10713
  141.0745  133.6781  156.2209 LP  0  0  0  0  0  0  0  0  0  0  0  0  # atno 17394 bound_to 11000
  140.6451  134.5125  157.5573 LP  0  0  0  0  0  0  0  0  0  0  0  0  # atno 17395 bound_to 11000

$$$$
