AV-unprocessed.smi:3187|AV-procd|sdf|12181|dock6
  -GOLD-   2272018 23D 1   1.00000     0.00000
 Structure written by MMmdl.
 42 43  0  0  0  0  0  0  0  0  3 V2000
  153.8363  140.4254  159.5009 C   0  0  0  0  0  0  0  0  0  0  0  0
  153.0879  141.6829  159.9115 C   0  0  0  0  0  0  0  0  0  0  0  0
  153.2640  142.1919  161.1460 C   0  0  0  0  0  0  0  0  0  0  0  0
  152.6327  143.4739  161.6376 C   0  0  0  0  0  0  0  0  0  0  0  0
  152.2063  144.3604  160.4653 C   0  0  0  0  0  0  0  0  0  0  0  0
  151.3842  143.5702  159.4340 C   0  0  1  0  0  0  0  0  0  0  0  0
  150.9004  144.5253  158.3256 C   0  0  0  0  0  0  0  0  0  0  0  0
  152.1634  142.3428  158.8674 C   0  0  2  0  0  0  0  0  0  0  0  0
  151.1745  141.3371  158.2200 C   0  0  0  0  0  0  0  0  0  0  0  0
  150.5563  141.8511  156.9800 N   0  3  0  0  0  0  0  0  0  0  0  0
  149.7740  140.8445  156.2358 C   0  0  0  0  0  0  0  0  0  0  0  0
  149.4790  141.3189  154.8058 C   0  0  0  0  0  0  0  0  0  0  0  0
  148.0611  141.6370  154.6193 N   0  0  0  0  0  0  0  0  0  0  0  0
  147.3184  142.5601  155.3102 C   0  0  0  0  0  0  0  0  0  0  0  0
  146.0492  142.5061  154.7939 C   0  0  0  0  0  0  0  0  0  0  0  0
  146.0706  141.5539  153.8105 N   0  3  0  0  0  0  0  0  0  0  0  0
  147.2947  141.0263  153.7057 C   0  0  0  0  0  0  0  0  0  0  0  0
  154.3555  140.5812  158.5550 H   0  0  0  0  0  0  0  0  0  0  0  0
  153.1550  139.5812  159.3991 H   0  0  0  0  0  0  0  0  0  0  0  0
  154.5842  140.1492  160.2450 H   0  0  0  0  0  0  0  0  0  0  0  0
  153.9037  141.6838  161.8530 H   0  0  0  0  0  0  0  0  0  0  0  0
  151.7785  143.2242  162.2675 H   0  0  0  0  0  0  0  0  0  0  0  0
  153.3478  144.0091  162.2628 H   0  0  0  0  0  0  0  0  0  0  0  0
  151.6332  145.2076  160.8439 H   0  0  0  0  0  0  0  0  0  0  0  0
  153.0916  144.7786  159.9836 H   0  0  0  0  0  0  0  0  0  0  0  0
  150.5016  143.1975  159.9569 H   0  0  0  0  0  0  0  0  0  0  0  0
  151.7393  144.9254  157.7551 H   0  0  0  0  0  0  0  0  0  0  0  0
  150.3607  145.3724  158.7504 H   0  0  0  0  0  0  0  0  0  0  0  0
  150.2236  144.0418  157.6231 H   0  0  0  0  0  0  0  0  0  0  0  0
  152.8290  142.7174  158.0882 H   0  0  0  0  0  0  0  0  0  0  0  0
  151.6893  140.3978  158.0117 H   0  0  0  0  0  0  0  0  0  0  0  0
  150.3606  141.0936  158.9007 H   0  0  0  0  0  0  0  0  0  0  0  0
  149.9506  142.6228  157.2207 H   0  0  0  0  0  0  0  0  0  0  0  0
  150.3311  139.9067  156.2101 H   0  0  0  0  0  0  0  0  0  0  0  0
  148.8403  140.6518  156.7662 H   0  0  0  0  0  0  0  0  0  0  0  0
  150.0548  142.2151  154.5695 H   0  0  0  0  0  0  0  0  0  0  0  0
  149.7581  140.5558  154.0775 H   0  0  0  0  0  0  0  0  0  0  0  0
  147.7351  143.1720  156.0973 H   0  0  0  0  0  0  0  0  0  0  0  0
  145.1558  143.0597  155.0456 H   0  0  0  0  0  0  0  0  0  0  0  0
  147.6008  140.2589  153.0171 H   0  0  0  0  0  0  0  0  0  0  0  0
  151.2926  142.1947  156.3797 H   0  0  0  0  0  0  0  0  0  0  0  0
  145.2764  141.2872  153.2417 H   0  0  0  0  0  0  0  0  0  0  0  0
  1  2  1  0  0  0  0
  1 18  1  0  0  0  0
  1 19  1  0  0  0  0
  1 20  1  0  0  0  0
  2  8  1  0  0  0  0
  2  3  2  0  0  0  0
  3  4  1  0  0  0  0
  3 21  1  0  0  0  0
  4  5  1  0  0  0  0
  4 22  1  0  0  0  0
  4 23  1  0  0  0  0
  5  6  1  0  0  0  0
  5 24  1  0  0  0  0
  5 25  1  0  0  0  0
  6  7  1  0  0  0  0
  6  8  1  0  0  0  0
  6 26  1  0  0  0  0
  7 27  1  0  0  0  0
  7 28  1  0  0  0  0
  7 29  1  0  0  0  0
  8  9  1  0  0  0  0
  8 30  1  0  0  0  0
  9 10  1  0  0  0  0
  9 31  1  0  0  0  0
  9 32  1  0  0  0  0
 10 11  1  0  0  0  0
 10 33  1  0  0  0  0
 10 41  1  0  0  0  0
 11 12  1  0  0  0  0
 11 34  1  0  0  0  0
 11 35  1  0  0  0  0
 12 13  1  0  0  0  0
 12 36  1  0  0  0  0
 12 37  1  0  0  0  0
 13 17  1  0  0  0  0
 13 14  1  0  0  0  0
 14 15  2  0  0  0  0
 14 38  1  0  0  0  0
 15 16  1  0  0  0  0
 15 39  1  0  0  0  0
 16 17  2  0  0  0  0
 16 42  1  0  0  0  0
 17 40  1  0  0  0  0
M  CHG  1  10   1
M  CHG  1  16   1
M  END
> <s_m_source_file>
AV-unprocessed.smi

> <i_m_source_file_index>
3187

> <i_lp_mmshare_version>
43012

> <i_f3d_flags>
0

> <s_epik_input>
W0NIM11DMT1bQ0hdW0NIMl1bQ0gyXVtDQEBIXShbQ0gzXSlbQ0BIXTFbQ0gyXVtOSF1bQ0gyXVtDSDJdbjJbY0hdW2NIXW5bY0hdMg==

> <s_epik_cmdline>
J2VwaWtfcHl0aG9uJywgJy1waCcsICc3LjAnLCAnLXRuJywgJzgnLCAnLW1hJywgJzIwMCcsICctbWV0YWxfYmluZGluZycsICctaW1hZScsICc8aW5maWxlLm1hZT4nLCAnLW9tYWUnLCAnPG91dGZpbGUubWFlPic=

> <r_lp_tautomer_probability>
1

> <r_epik_Ionization_Penalty>
1.51066

> <r_epik_Ionization_Penalty_Charging>
0.0026721

> <r_epik_Ionization_Penalty_Neutral>
1.50798

> <r_epik_State_Penalty>
1.12593

> <r_epik_Charging_Adjusted_Penalty>
1.12861

> <i_epik_Tot_Q>
2

> <i_epik_Tot_abs_Q>
2

> <r_epik_Metal_State_Penalty>
5.12155

> <b_epik_Metal_Only>
0

> <s_lp_Force_Field>
OPLS_2005

> <r_lp_Energy>
24.2978

> <b_lp_Chiralities_Consistent>
1

> <s_lp_Variant>
AV-unprocessed.smi:3187-7

> <Gold.Version>
5.8.1

> <Gold.Id.Protein>
6NUR|6NUR_protein|mol2

> <Gold.PLP.Fitness>
51.8950

> <Gold.PLP.PLP>
-41.0545

> <Gold.PLP.part.hbond>
-1.0000

> <Gold.PLP.part.metal>
0.0000

> <Gold.PLP.part.buried>
-0.9969

> <Gold.PLP.part.nonpolar>
-39.6645

> <Gold.PLP.part.repulsive>
0.0734

> <Gold.PLP.ligand.clash>
0.0000

> <Gold.PLP.ligand.torsion>
0.5067

> <Gold.PLP.Chemscore.Hbond>
2.0000

> <Gold.PLP.Chemscore.CHOScore>
1.9061

> <Gold.PLP.Chemscore.Metal>
0.0000

> <Gold.Chemscore.Hbonds>
donor molecule, donor type, donor heavy atom, donor atom, acceptor molecule, acceptor atom, score
      L1  H    16    42       P1 10175  1.70
      L1  C    14    38       P1  8028  0.56
      L1  C    17    40       P1  7957  0.50

> <Gold.PLP.Chemscore.Internal.Correction>
0.1358

> <Gold.Rescore>
     Score         DG    S(hbond)    S(metal)    S(lipo)     H(rot)  DE(clash)    DE(int)     intcor
     14.77     -16.85       0.97        0.00     112.54       1.97       0.54       1.54       ----

> <Gold.Chemscore.Fitness>
14.7701

> <Gold.Chemscore.DG>
-16.8511

> <Gold.Chemscore.ZeroCoef>
-5.4800

> <Gold.Chemscore.Hbond>
0.9746

> <Gold.Chemscore.Metal>
0.0000

> <Gold.Chemscore.Lipo>
112.5419

> <Gold.Chemscore.Internal_Hbond>
0.0000

> <Gold.Chemscore.DEClash>
0.5385

> <Gold.Chemscore.DEInternal>
1.5425

> <Gold.Chemscore.Rot>
1.9732

> <Gold.Chemscore.Internal.Correction>
   9.000000E+99

> <Gold.Chemscore.Hbonds>
donor molecule, donor type, donor heavy atom, donor atom, acceptor molecule, acceptor atom, score
      L1  H    16    42       P1 10175  0.15

> <Gold.Chemscore.Hbond.Weighted>
-3.2551

> <Gold.Chemscore.Metal.Weighted>
-0.0000

> <Gold.Chemscore.Lipo.Weighted>
-13.1674

> <Gold.Chemscore.Internal_Hbond.Weighted>
0.0000

> <Gold.Chemscore.DEClash.Weighted>
0.5385

> <Gold.Chemscore.DEInternal.Weighted>
1.5425

> <Gold.Chemscore.Rot.Weighted>
5.0514

> <Gold.Chemscore.Internal.Correction.Weighted>
   9.000000E+99

> <Gold.Protein.RotatedTorsions>
[ 6907 6896 6895 6894 ] final  -27.15 input  -60.11 | X-H torsion
[ 7974 7965 7964 7962 ] final -127.17 input  175.53 | X-H torsion
[ 8008 7997 7996 7995 ] final   79.02 input   59.86 | X-H torsion
[ 10167 10162 10161 10158 ] final  133.43 input  -65.29 | X-H torsion
[ 10718 10713 10712 10709 ] final -146.39 input   66.30 | X-H torsion
[ 10763 10752 10751 10750 ] final   80.40 input  -60.55 | X-H torsion
[ 11005 11000 10999 10996 ] final  152.95 input  -57.11 | X-H torsion

> <Gold.Protein.ActiveResidues>
 VAL166  LYS551  ARG553  GLY616  TRP617  ASP618  TYR619  PRO620  LYS621  CYS622 
 ASP623  PHE694  ASN695  SER759  ASP760  ASP761  ALA762  ILE779  LEU786  VAL792 
 PHE793  MET794  SER795  GLU796  ALA797  LYS798  CYS799  TRP800  GLU811  SER814 

> <Gold.Protein.RotatedAtoms>
  151.1509  135.0227  159.8667 H   0  0  0  0  0  0  0  0  0  0  0  0  # atno 6907 bound_to 6896
  152.5452  134.1390  159.8481 H   0  0  0  0  0  0  0  0  0  0  0  0  # atno 6908 bound_to 6896
  151.1475  133.4884  159.2628 H   0  0  0  0  0  0  0  0  0  0  0  0  # atno 6909 bound_to 6896
  144.9798  140.7629  143.4619 H   0  0  0  0  0  0  0  0  0  0  0  0  # atno 7974 bound_to 7965
  155.8639  140.3452  155.5775 H   0  0  0  0  0  0  0  0  0  0  0  0  # atno 8008 bound_to 7997
  155.7903  140.0870  157.2032 H   0  0  0  0  0  0  0  0  0  0  0  0  # atno 8009 bound_to 7997
  154.4013  140.1484  156.3142 H   0  0  0  0  0  0  0  0  0  0  0  0  # atno 8010 bound_to 7997
  139.5297  144.6616  151.4994 H   0  0  0  0  0  0  0  0  0  0  0  0  # atno 10167 bound_to 10162
  156.3944  130.7902  151.2107 H   0  0  0  0  0  0  0  0  0  0  0  0  # atno 10718 bound_to 10713
  153.1030  135.4804  154.8901 H   0  0  0  0  0  0  0  0  0  0  0  0  # atno 10763 bound_to 10752
  154.7400  135.3080  154.8747 H   0  0  0  0  0  0  0  0  0  0  0  0  # atno 10764 bound_to 10752
  153.9358  135.6839  153.4798 H   0  0  0  0  0  0  0  0  0  0  0  0  # atno 10765 bound_to 10752
  140.1354  134.8774  157.2260 H   0  0  0  0  0  0  0  0  0  0  0  0  # atno 11005 bound_to 11000
  145.2437  139.2061  143.4979 LP  0  0  0  0  0  0  0  0  0  0  0  0  # atno 17320 bound_to 7965
  146.3405  140.2337  142.8594 LP  0  0  0  0  0  0  0  0  0  0  0  0  # atno 17321 bound_to 7965
  140.6467  143.8780  150.6744 LP  0  0  0  0  0  0  0  0  0  0  0  0  # atno 17342 bound_to 10162
  140.2132  143.3867  152.1702 LP  0  0  0  0  0  0  0  0  0  0  0  0  # atno 17343 bound_to 10162
  157.7501  131.0306  150.4144 LP  0  0  0  0  0  0  0  0  0  0  0  0  # atno 17370 bound_to 10713
  156.4411  130.3992  149.6696 LP  0  0  0  0  0  0  0  0  0  0  0  0  # atno 17371 bound_to 10713
  140.2789  134.3373  155.7349 LP  0  0  0  0  0  0  0  0  0  0  0  0  # atno 17394 bound_to 11000
  141.2177  133.7466  156.9334 LP  0  0  0  0  0  0  0  0  0  0  0  0  # atno 17395 bound_to 11000

$$$$
