AV-unprocessed.smi:2636|AV-procd|sdf|10260|dock2
  -GOLD-   2272014273D 1   1.00000     0.00000
 Structure written by MMmdl.
 35 36  0  0  0  0  0  0  0  0  2 V2000
  147.6053  142.0514  154.0825 C   0  0  0  0  0  0  0  0  0  0  0  0
  148.7520  141.1160  154.4181 C   0  0  0  0  0  0  0  0  0  0  0  0
  149.8037  141.4927  155.1740 C   0  0  0  0  0  0  0  0  0  0  0  0
  150.8650  140.6203  155.4690 N   0  0  0  0  0  0  0  0  0  0  0  0
  151.9472  141.0919  156.3254 C   0  0  0  0  0  0  0  0  0  0  0  0
  152.4091  140.0841  157.1811 O   0  0  0  0  0  0  0  0  0  0  0  0
  152.0610  140.1948  158.5583 C   0  0  0  0  0  0  0  0  0  0  0  0
  153.2837  140.3888  159.4406 C   0  0  0  0  0  0  0  0  0  0  0  0
  153.7343  141.5278  160.0029 C   0  0  0  0  0  0  0  0  0  0  0  0
  153.1318  142.8720  159.9839 C   0  0  0  0  0  0  0  0  0  0  0  0
  153.0084  143.6372  158.8019 C   0  0  0  0  0  0  0  0  0  0  0  0
  152.4454  144.9277  158.8393 C   0  0  0  0  0  0  0  0  0  0  0  0
  151.9926  145.4643  160.0587 C   0  0  0  0  0  0  0  0  0  0  0  0
  152.1023  144.7072  161.2397 C   0  0  0  0  0  0  0  0  0  0  0  0
  152.6714  143.4196  161.2007 C   0  0  0  0  0  0  0  0  0  0  0  0
  150.8524  139.3371  155.0006 C   0  0  0  0  0  0  0  0  0  0  0  0
  151.7877  138.5858  155.2790 O   0  0  0  0  0  0  0  0  0  0  0  0
  149.7941  138.9328  154.2337 N   0  5  0  0  0  0  0  0  0  0  0  0
  148.7419  139.7412  153.9124 C   0  0  0  0  0  0  0  0  0  0  0  0
  147.8005  139.3531  153.2212 O   0  0  0  0  0  0  0  0  0  0  0  0
  147.7632  143.0382  154.5183 H   0  0  0  0  0  0  0  0  0  0  0  0
  146.6649  141.6553  154.4667 H   0  0  0  0  0  0  0  0  0  0  0  0
  147.5142  142.1698  153.0026 H   0  0  0  0  0  0  0  0  0  0  0  0
  149.8949  142.4823  155.5969 H   0  0  0  0  0  0  0  0  0  0  0  0
  152.7713  141.4190  155.6893 H   0  0  0  0  0  0  0  0  0  0  0  0
  151.6179  141.9589  156.8992 H   0  0  0  0  0  0  0  0  0  0  0  0
  151.3186  140.9778  158.6911 H   0  0  0  0  0  0  0  0  0  0  0  0
  151.5817  139.2619  158.8544 H   0  0  0  0  0  0  0  0  0  0  0  0
  153.8563  139.4887  159.6098 H   0  0  0  0  0  0  0  0  0  0  0  0
  154.6489  141.4547  160.5735 H   0  0  0  0  0  0  0  0  0  0  0  0
  153.3262  143.2362  157.8514 H   0  0  0  0  0  0  0  0  0  0  0  0
  152.3573  145.5039  157.9300 H   0  0  0  0  0  0  0  0  0  0  0  0
  151.5616  146.4542  160.0877 H   0  0  0  0  0  0  0  0  0  0  0  0
  151.7576  145.1166  162.1776 H   0  0  0  0  0  0  0  0  0  0  0  0
  152.7595  142.8526  162.1161 H   0  0  0  0  0  0  0  0  0  0  0  0
  1  2  1  0  0  0  0
  1 21  1  0  0  0  0
  1 22  1  0  0  0  0
  1 23  1  0  0  0  0
  2 19  1  0  0  0  0
  2  3  2  0  0  0  0
  3  4  1  0  0  0  0
  3 24  1  0  0  0  0
  4  5  1  0  0  0  0
  4 16  1  0  0  0  0
  5  6  1  0  0  0  0
  5 25  1  0  0  0  0
  5 26  1  0  0  0  0
  6  7  1  0  0  0  0
  7  8  1  0  0  0  0
  7 27  1  0  0  0  0
  7 28  1  0  0  0  0
  8  9  2  0  0  0  0
  8 29  1  0  0  0  0
  9 10  1  0  0  0  0
  9 30  1  0  0  0  0
 10 15  1  0  0  0  0
 10 11  2  0  0  0  0
 11 12  1  0  0  0  0
 11 31  1  0  0  0  0
 12 13  2  0  0  0  0
 12 32  1  0  0  0  0
 13 14  1  0  0  0  0
 13 33  1  0  0  0  0
 14 15  2  0  0  0  0
 14 34  1  0  0  0  0
 15 35  1  0  0  0  0
 16 17  2  0  0  0  0
 16 18  1  0  0  0  0
 18 19  1  0  0  0  0
 19 20  2  0  0  0  0
M  CHG  1  18  -1
M  END
> <s_m_source_file>
AV-unprocessed.smi

> <i_m_source_file_index>
2636

> <i_lp_mmshare_version>
43012

> <i_f3d_flags>
0

> <s_epik_input>
Tz1jMVtuSF1jKD1PKW4oW2NIXWMxW0NIM10pW0NIMl1PW0NIMl0vW0NIXT1bQ0hdL2MyW2NIXVtjSF1bY0hdW2NIXVtjSF0y

> <s_epik_cmdline>
J2VwaWtfcHl0aG9uJywgJy1waCcsICc3LjAnLCAnLXRuJywgJzgnLCAnLW1hJywgJzIwMCcsICctbWV0YWxfYmluZGluZycsICctaW1hZScsICc8aW5maWxlLm1hZT4nLCAnLW9tYWUnLCAnPG91dGZpbGUubWFlPic=

> <r_lp_tautomer_probability>
0.999537

> <r_epik_Ionization_Penalty>
3.43625

> <r_epik_Ionization_Penalty_Charging>
7.29021e-08

> <r_epik_Ionization_Penalty_Neutral>
3.43625

> <r_epik_State_Penalty>
3.43567

> <r_epik_Charging_Adjusted_Penalty>
3.43567

> <i_epik_Tot_Q>
-1

> <i_epik_Tot_abs_Q>
1

> <r_epik_Metal_State_Penalty>
0.168611

> <b_epik_Metal_Only>
1

> <s_epik_Chemistry_Notes>
This compound contains an acetal/aminal-like group ( X-CH(R)-Y where X, Y are N, S, or O) that may be acid/base labile, releasing an aldehyde.

> <s_lp_Force_Field>
OPLS_2005

> <r_lp_Energy>
10.6813

> <b_lp_Chiralities_Consistent>
1

> <s_lp_Variant>
AV-unprocessed.smi:2636-4

> <Gold.Version>
5.8.1

> <Gold.Id.Protein>
6NUR|6NUR_protein|mol2

> <Gold.PLP.Fitness>
51.5385

> <Gold.PLP.PLP>
-49.5019

> <Gold.PLP.part.hbond>
-1.0000

> <Gold.PLP.part.metal>
0.0000

> <Gold.PLP.part.buried>
-3.3702

> <Gold.PLP.part.nonpolar>
-45.9522

> <Gold.PLP.part.repulsive>
1.3614

> <Gold.PLP.ligand.clash>
0.0074

> <Gold.PLP.ligand.torsion>
1.7892

> <Gold.PLP.Chemscore.Hbond>
0.8613

> <Gold.PLP.Chemscore.CHOScore>
1.0000

> <Gold.PLP.Chemscore.Metal>
0.0000

> <Gold.Chemscore.Hbonds>
donor molecule, donor type, donor heavy atom, donor atom, acceptor molecule, acceptor atom, score
      P1  H  7997  8009       L1     6  0.96
      L1  C     3    24       P1  8028  1.00

> <Gold.PLP.Chemscore.Internal.Correction>
0.0386

> <Gold.Rescore>
     Score         DG    S(hbond)    S(metal)    S(lipo)     H(rot)  DE(clash)    DE(int)     intcor
     12.06     -15.60       0.23        0.00     121.17       1.88       0.02       3.52       ----

> <Gold.Chemscore.Fitness>
12.0582

> <Gold.Chemscore.DG>
-15.6041

> <Gold.Chemscore.ZeroCoef>
-5.4800

> <Gold.Chemscore.Hbond>
0.2276

> <Gold.Chemscore.Metal>
0.0000

> <Gold.Chemscore.Lipo>
121.1675

> <Gold.Chemscore.Internal_Hbond>
0.0000

> <Gold.Chemscore.DEClash>
0.0227

> <Gold.Chemscore.DEInternal>
3.5232

> <Gold.Chemscore.Rot>
1.8800

> <Gold.Chemscore.Internal.Correction>
   9.000000E+99

> <Gold.Chemscore.Hbonds>
donor molecule, donor type, donor heavy atom, donor atom, acceptor molecule, acceptor atom, score
      P1  H  7997  8009       L1     6  0.25

> <Gold.Chemscore.Hbond.Weighted>
-0.7603

> <Gold.Chemscore.Metal.Weighted>
-0.0000

> <Gold.Chemscore.Lipo.Weighted>
-14.1766

> <Gold.Chemscore.Internal_Hbond.Weighted>
0.0000

> <Gold.Chemscore.DEClash.Weighted>
0.0227

> <Gold.Chemscore.DEInternal.Weighted>
3.5232

> <Gold.Chemscore.Rot.Weighted>
4.8129

> <Gold.Chemscore.Internal.Correction.Weighted>
   9.000000E+99

> <Gold.Protein.RotatedTorsions>
[ 6907 6896 6895 6894 ] final  117.51 input  -60.11 | X-H torsion
[ 7974 7965 7964 7962 ] final  -13.76 input  175.53 | X-H torsion
[ 8008 7997 7996 7995 ] final  173.55 input   59.86 | X-H torsion
[ 10167 10162 10161 10158 ] final   12.52 input  -65.29 | X-H torsion
[ 10718 10713 10712 10709 ] final  157.75 input   66.30 | X-H torsion
[ 10763 10752 10751 10750 ] final -123.08 input  -60.55 | X-H torsion
[ 11005 11000 10999 10996 ] final -141.96 input  -57.11 | X-H torsion

> <Gold.Protein.ActiveResidues>
 VAL166  LYS551  ARG553  GLY616  TRP617  ASP618  TYR619  PRO620  LYS621  CYS622 
 ASP623  PHE694  ASN695  SER759  ASP760  ASP761  ALA762  ILE779  LEU786  VAL792 
 PHE793  MET794  SER795  GLU796  ALA797  LYS798  CYS799  TRP800  GLU811  SER814 

> <Gold.Protein.RotatedAtoms>
  152.4607  133.7816  159.6853 H   0  0  0  0  0  0  0  0  0  0  0  0  # atno 6907 bound_to 6896
  150.8550  133.7719  159.3018 H   0  0  0  0  0  0  0  0  0  0  0  0  # atno 6908 bound_to 6896
  151.5303  135.1071  159.9953 H   0  0  0  0  0  0  0  0  0  0  0  0  # atno 6909 bound_to 6896
  146.2101  140.3250  142.8394 H   0  0  0  0  0  0  0  0  0  0  0  0  # atno 7974 bound_to 7965
  156.1064  140.1457  156.9398 H   0  0  0  0  0  0  0  0  0  0  0  0  # atno 8008 bound_to 7997
  154.4737  140.0901  156.7253 H   0  0  0  0  0  0  0  0  0  0  0  0  # atno 8009 bound_to 7997
  155.4671  140.3440  155.4323 H   0  0  0  0  0  0  0  0  0  0  0  0  # atno 8010 bound_to 7997
  140.6062  143.8502  150.7016 H   0  0  0  0  0  0  0  0  0  0  0  0  # atno 10167 bound_to 10162
  157.1873  131.0646  151.2099 H   0  0  0  0  0  0  0  0  0  0  0  0  # atno 10718 bound_to 10713
  154.8701  135.4111  154.2885 H   0  0  0  0  0  0  0  0  0  0  0  0  # atno 10763 bound_to 10752
  153.3765  135.7010  153.6603 H   0  0  0  0  0  0  0  0  0  0  0  0  # atno 10764 bound_to 10752
  153.5443  135.3641  155.2704 H   0  0  0  0  0  0  0  0  0  0  0  0  # atno 10765 bound_to 10752
  140.8272  134.2560  157.4873 H   0  0  0  0  0  0  0  0  0  0  0  0  # atno 11005 bound_to 11000
  144.8893  140.7502  143.5937 LP  0  0  0  0  0  0  0  0  0  0  0  0  # atno 17320 bound_to 7965
  145.3172  139.1799  143.4607 LP  0  0  0  0  0  0  0  0  0  0  0  0  # atno 17321 bound_to 7965
  140.2060  143.3921  152.1755 LP  0  0  0  0  0  0  0  0  0  0  0  0  # atno 17342 bound_to 10162
  139.5327  144.7176  151.5000 LP  0  0  0  0  0  0  0  0  0  0  0  0  # atno 17343 bound_to 10162
  157.3895  130.7274  149.6687 LP  0  0  0  0  0  0  0  0  0  0  0  0  # atno 17370 bound_to 10713
  155.9716  130.4150  150.4162 LP  0  0  0  0  0  0  0  0  0  0  0  0  # atno 17371 bound_to 10713
  139.8706  134.9567  156.4245 LP  0  0  0  0  0  0  0  0  0  0  0  0  # atno 17394 bound_to 11000
  140.9036  133.7761  155.9709 LP  0  0  0  0  0  0  0  0  0  0  0  0  # atno 17395 bound_to 11000

$$$$
