AV-unprocessed.smi:234|AV-procd|sdf|1796|dock4
  -GOLD-   2262020363D 1   1.00000     0.00000
 Structure written by MMmdl.
 59 62  0  0  0  0  0  0  0  0  1 V2000
  152.4394  143.7674  160.6506 C   0  0  0  0  0  0  0  0  0  0  0  0
  151.5040  144.1345  159.4965 C   0  0  0  0  0  0  0  0  0  0  0  0
  150.8664  142.9557  159.0328 O   0  0  0  0  0  0  0  0  0  0  0  0
  151.6383  142.2340  158.0795 C   0  0  1  0  0  0  0  0  0  0  0  0
  152.4837  141.1836  158.8009 C   0  0  0  0  0  0  0  0  0  0  0  0
  151.3007  140.2286  158.6133 C   0  0  2  0  0  0  0  0  0  0  0  0
  151.7100  138.8486  158.3288 N   0  0  0  0  0  0  0  0  0  0  0  0
  152.9720  138.3896  158.9016 C   0  0  0  0  0  0  0  0  0  0  0  0
  150.7607  137.8832  158.4015 C   0  0  0  0  0  0  0  0  0  0  0  0
  150.1555  137.6055  159.5865 N   0  0  0  0  0  0  0  0  0  0  0  0
  149.2292  136.6454  159.6591 C   0  0  0  0  0  0  0  0  0  0  0  0
  148.7754  135.8487  158.6895 N   0  0  0  0  0  0  0  0  0  0  0  0
  149.3935  136.1108  157.5023 C   0  0  0  0  0  0  0  0  0  0  0  0
  150.3864  137.1040  157.2729 C   0  0  0  0  0  0  0  0  0  0  0  0
  150.7727  137.0914  155.9387 N   0  0  0  0  0  0  0  0  0  0  0  0
  150.0521  136.1407  155.4097 C   0  0  0  0  0  0  0  0  0  0  0  0
  149.2084  135.4868  156.2802 N   0  0  0  0  0  0  0  0  0  0  0  0
  148.3063  134.3911  155.9580 C   0  0  0  0  0  0  0  0  0  0  0  0
  148.3902  133.8776  154.4937 C   0  0  1  0  0  0  0  0  0  0  0  0
  147.9227  134.9356  153.6774 O   0  0  0  0  0  0  0  0  0  0  0  0
  149.7977  133.4782  154.0554 C   0  0  0  0  0  0  0  0  0  0  0  0
  149.8549  131.9633  154.2758 C   0  0  0  0  0  0  0  0  0  0  0  0
  148.5277  131.5486  154.5863 O   0  0  0  0  0  0  0  0  0  0  0  0
  147.6024  132.5745  154.2474 C   0  0  2  0  0  0  0  0  0  0  0  0
  147.1454  132.3348  152.7948 C   0  0  0  0  0  0  0  0  0  0  0  0
  150.8781  141.0760  157.3759 C   0  0  0  0  0  0  0  0  0  0  0  0
  149.3763  141.2832  157.1583 C   0  0  0  0  0  0  0  0  0  0  0  0
  151.4649  140.6843  156.0091 C   0  0  0  0  0  0  0  0  0  0  0  0
  152.9485  144.6508  161.0361 H   0  0  0  0  0  0  0  0  0  0  0  0
  153.2004  143.0569  160.3270 H   0  0  0  0  0  0  0  0  0  0  0  0
  151.8858  143.3143  161.4734 H   0  0  0  0  0  0  0  0  0  0  0  0
  150.7684  144.8652  159.8330 H   0  0  0  0  0  0  0  0  0  0  0  0
  152.0737  144.5921  158.6864 H   0  0  0  0  0  0  0  0  0  0  0  0
  152.2323  142.8678  157.4184 H   0  0  0  0  0  0  0  0  0  0  0  0
  153.3765  140.8976  158.2421 H   0  0  0  0  0  0  0  0  0  0  0  0
  152.7192  141.4189  159.8394 H   0  0  0  0  0  0  0  0  0  0  0  0
  150.5897  140.3156  159.4372 H   0  0  0  0  0  0  0  0  0  0  0  0
  152.8178  137.6401  159.6799 H   0  0  0  0  0  0  0  0  0  0  0  0
  153.5312  139.2115  159.3486 H   0  0  0  0  0  0  0  0  0  0  0  0
  153.5941  137.9478  158.1230 H   0  0  0  0  0  0  0  0  0  0  0  0
  148.7905  136.4931  160.6341 H   0  0  0  0  0  0  0  0  0  0  0  0
  150.1242  135.8824  154.3631 H   0  0  0  0  0  0  0  0  0  0  0  0
  148.5047  133.5733  156.6521 H   0  0  0  0  0  0  0  0  0  0  0  0
  147.2910  134.7275  156.1737 H   0  0  0  0  0  0  0  0  0  0  0  0
  148.5765  135.1179  153.0199 H   0  0  0  0  0  0  0  0  0  0  0  0
  149.9388  133.6802  152.9923 H   0  0  0  0  0  0  0  0  0  0  0  0
  150.5829  134.0160  154.5866 H   0  0  0  0  0  0  0  0  0  0  0  0
  150.2089  131.4511  153.3806 H   0  0  0  0  0  0  0  0  0  0  0  0
  150.5190  131.6978  155.0985 H   0  0  0  0  0  0  0  0  0  0  0  0
  146.7255  132.5140  154.8914 H   0  0  0  0  0  0  0  0  0  0  0  0
  146.4034  133.0711  152.4854 H   0  0  0  0  0  0  0  0  0  0  0  0
  146.6861  131.3513  152.6948 H   0  0  0  0  0  0  0  0  0  0  0  0
  147.9769  132.3829  152.0916 H   0  0  0  0  0  0  0  0  0  0  0  0
  148.9049  140.4042  156.7192 H   0  0  0  0  0  0  0  0  0  0  0  0
  149.1819  142.1183  156.4855 H   0  0  0  0  0  0  0  0  0  0  0  0
  148.8583  141.4898  158.0951 H   0  0  0  0  0  0  0  0  0  0  0  0
  150.9818  139.7964  155.6003 H   0  0  0  0  0  0  0  0  0  0  0  0
  152.5321  140.4701  156.0657 H   0  0  0  0  0  0  0  0  0  0  0  0
  151.3394  141.4853  155.2798 H   0  0  0  0  0  0  0  0  0  0  0  0
  1  2  1  0  0  0  0
  1 29  1  0  0  0  0
  1 30  1  0  0  0  0
  1 31  1  0  0  0  0
  2  3  1  0  0  0  0
  2 32  1  0  0  0  0
  2 33  1  0  0  0  0
  3  4  1  0  0  0  0
  4 26  1  0  0  0  0
  4  5  1  0  0  0  0
  4 34  1  0  0  0  0
  5  6  1  0  0  0  0
  5 35  1  0  0  0  0
  5 36  1  0  0  0  0
  6  7  1  0  0  0  0
  6 26  1  0  0  0  0
  6 37  1  0  0  0  0
  7  8  1  0  0  0  0
  7  9  1  0  0  0  0
  8 38  1  0  0  0  0
  8 39  1  0  0  0  0
  8 40  1  0  0  0  0
  9 14  1  0  0  0  0
  9 10  2  0  0  0  0
 10 11  1  0  0  0  0
 11 12  2  0  0  0  0
 11 41  1  0  0  0  0
 12 13  1  0  0  0  0
 13 17  1  0  0  0  0
 13 14  2  0  0  0  0
 14 15  1  0  0  0  0
 15 16  2  0  0  0  0
 16 17  1  0  0  0  0
 16 42  1  0  0  0  0
 17 18  1  0  0  0  0
 18 19  1  0  0  0  0
 18 43  1  0  0  0  0
 18 44  1  0  0  0  0
 19 24  1  0  0  0  0
 19 20  1  0  0  0  0
 19 21  1  0  0  0  0
 20 45  1  0  0  0  0
 21 22  1  0  0  0  0
 21 46  1  0  0  0  0
 21 47  1  0  0  0  0
 22 23  1  0  0  0  0
 22 48  1  0  0  0  0
 22 49  1  0  0  0  0
 23 24  1  0  0  0  0
 24 25  1  0  0  0  0
 24 50  1  0  0  0  0
 25 51  1  0  0  0  0
 25 52  1  0  0  0  0
 25 53  1  0  0  0  0
 26 27  1  0  0  0  0
 26 28  1  0  0  0  0
 27 54  1  0  0  0  0
 27 55  1  0  0  0  0
 27 56  1  0  0  0  0
 28 57  1  0  0  0  0
 28 58  1  0  0  0  0
 28 59  1  0  0  0  0
M  END
> <s_m_source_file>
AV-unprocessed.smi

> <i_m_source_file_index>
234

> <i_lp_mmshare_version>
43012

> <i_f3d_flags>
0

> <s_epik_input>
W0NIM11bQ0gyXU9bQ0BASF0oQzEoW0NIM10pW0NIM10pW0NIMl1bQ0BIXTFOKFtDSDNdKWMobltjSF1uMiljKGMyMyluW2NIXW4zW0NIMl1bQ0BAXTQoW09IXSlbQ0gyXVtDSDJdT1tDQEhdNFtDSDNd

> <s_epik_cmdline>
J2VwaWtfcHl0aG9uJywgJy1waCcsICc3LjAnLCAnLXRuJywgJzgnLCAnLW1hJywgJzIwMCcsICctbWV0YWxfYmluZGluZycsICctaW1hZScsICc8aW5maWxlLm1hZT4nLCAnLW9tYWUnLCAnPG91dGZpbGUubWFlPic=

> <r_lp_tautomer_probability>
1

> <r_epik_Ionization_Penalty>
0.00349132

> <r_epik_Ionization_Penalty_Charging>
0

> <r_epik_Ionization_Penalty_Neutral>
0.00349132

> <r_epik_State_Penalty>
0.00242418

> <r_epik_Charging_Adjusted_Penalty>
0.00242418

> <i_epik_Tot_Q>
0

> <i_epik_Tot_abs_Q>
0

> <r_epik_Metal_State_Penalty>
-0

> <b_epik_Metal_Only>
0

> <s_lp_Force_Field>
OPLS_2005

> <r_lp_Energy>
50.3749

> <b_lp_Chiralities_Consistent>
1

> <s_lp_Variant>
AV-unprocessed.smi:234-12

> <Gold.Version>
5.8.1

> <Gold.Id.Protein>
6NUR|6NUR_protein|mol2

> <Gold.PLP.Fitness>
42.5824

> <Gold.PLP.PLP>
-38.6795

> <Gold.PLP.part.hbond>
-1.5749

> <Gold.PLP.part.metal>
0.0000

> <Gold.PLP.part.buried>
-7.5613

> <Gold.PLP.part.nonpolar>
-29.2322

> <Gold.PLP.part.repulsive>
0.1460

> <Gold.PLP.ligand.clash>
0.1385

> <Gold.PLP.ligand.torsion>
1.4329

> <Gold.PLP.Chemscore.Hbond>
1.0000

> <Gold.PLP.Chemscore.CHOScore>
0.9934

> <Gold.PLP.Chemscore.Metal>
0.0000

> <Gold.Chemscore.Hbonds>
donor molecule, donor type, donor heavy atom, donor atom, acceptor molecule, acceptor atom, score
      L1  H    20    45       P1  7948  0.86
      L1  C    16    42       P1  7948  0.39

> <Gold.PLP.Chemscore.Internal.Correction>
0.9270

> <Gold.Rescore>
     Score         DG    S(hbond)    S(metal)    S(lipo)     H(rot)  DE(clash)    DE(int)     intcor
      9.71     -13.26       1.00        0.00      95.39       2.62       0.05       3.50       ----

> <Gold.Chemscore.Fitness>
9.7066

> <Gold.Chemscore.DG>
-13.2559

> <Gold.Chemscore.ZeroCoef>
-5.4800

> <Gold.Chemscore.Hbond>
0.9964

> <Gold.Chemscore.Metal>
0.0000

> <Gold.Chemscore.Lipo>
95.3854

> <Gold.Chemscore.Internal_Hbond>
0.0000

> <Gold.Chemscore.DEClash>
0.0515

> <Gold.Chemscore.DEInternal>
3.4977

> <Gold.Chemscore.Rot>
2.6219

> <Gold.Chemscore.Internal.Correction>
   9.000000E+99

> <Gold.Chemscore.Hbonds>
donor molecule, donor type, donor heavy atom, donor atom, acceptor molecule, acceptor atom, score
      L1  H    20    45       P1  7948  0.59

> <Gold.Chemscore.Hbond.Weighted>
-3.3279

> <Gold.Chemscore.Metal.Weighted>
-0.0000

> <Gold.Chemscore.Lipo.Weighted>
-11.1601

> <Gold.Chemscore.Internal_Hbond.Weighted>
0.0000

> <Gold.Chemscore.DEClash.Weighted>
0.0515

> <Gold.Chemscore.DEInternal.Weighted>
3.4977

> <Gold.Chemscore.Rot.Weighted>
6.7121

> <Gold.Chemscore.Internal.Correction.Weighted>
   9.000000E+99

> <Gold.Protein.RotatedTorsions>
[ 6907 6896 6895 6894 ] final -164.51 input  -60.11 | X-H torsion
[ 7974 7965 7964 7962 ] final  -34.85 input  175.53 | X-H torsion
[ 8008 7997 7996 7995 ] final -109.22 input   59.86 | X-H torsion
[ 10167 10162 10161 10158 ] final -112.90 input  -65.29 | X-H torsion
[ 10718 10713 10712 10709 ] final  159.23 input   66.30 | X-H torsion
[ 10763 10752 10751 10750 ] final -140.47 input  -60.55 | X-H torsion
[ 11005 11000 10999 10996 ] final   42.61 input  -57.11 | X-H torsion

> <Gold.Protein.ActiveResidues>
 VAL166  LYS551  ARG553  GLY616  TRP617  ASP618  TYR619  PRO620  LYS621  CYS622 
 ASP623  PHE694  ASN695  SER759  ASP760  ASP761  ALA762  ILE779  LEU786  VAL792 
 PHE793  MET794  SER795  GLU796  ALA797  LYS798  CYS799  TRP800  GLU811  SER814 

> <Gold.Protein.RotatedAtoms>
  151.4129  133.3722  159.2745 H   0  0  0  0  0  0  0  0  0  0  0  0  # atno 6907 bound_to 6896
  150.9350  134.8764  159.7586 H   0  0  0  0  0  0  0  0  0  0  0  0  # atno 6908 bound_to 6896
  152.5045  134.4076  159.9490 H   0  0  0  0  0  0  0  0  0  0  0  0  # atno 6909 bound_to 6896
  146.0795  140.6089  142.8915 H   0  0  0  0  0  0  0  0  0  0  0  0  # atno 7974 bound_to 7965
  154.9561  140.0400  157.2167 H   0  0  0  0  0  0  0  0  0  0  0  0  # atno 8008 bound_to 7997
  154.7933  140.2839  155.5953 H   0  0  0  0  0  0  0  0  0  0  0  0  # atno 8009 bound_to 7997
  156.2952  140.2569  156.2785 H   0  0  0  0  0  0  0  0  0  0  0  0  # atno 8010 bound_to 7997
  140.1177  143.4471  152.1711 H   0  0  0  0  0  0  0  0  0  0  0  0  # atno 10167 bound_to 10162
  157.1670  131.0601  151.2203 H   0  0  0  0  0  0  0  0  0  0  0  0  # atno 10718 bound_to 10713
  154.8577  135.3552  154.5713 H   0  0  0  0  0  0  0  0  0  0  0  0  # atno 10763 bound_to 10752
  153.6326  135.7001  153.5275 H   0  0  0  0  0  0  0  0  0  0  0  0  # atno 10764 bound_to 10752
  153.3037  135.4199  155.1234 H   0  0  0  0  0  0  0  0  0  0  0  0  # atno 10765 bound_to 10752
  140.1723  134.4206  155.8249 H   0  0  0  0  0  0  0  0  0  0  0  0  # atno 11005 bound_to 11000
  144.7284  140.4595  143.6956 LP  0  0  0  0  0  0  0  0  0  0  0  0  # atno 17320 bound_to 7965
  145.6244  139.1528  143.3004 LP  0  0  0  0  0  0  0  0  0  0  0  0  # atno 17321 bound_to 7965
  139.5585  144.7389  151.4224 LP  0  0  0  0  0  0  0  0  0  0  0  0  # atno 17342 bound_to 10162
  140.6890  143.7907  150.7227 LP  0  0  0  0  0  0  0  0  0  0  0  0  # atno 17343 bound_to 10162
  157.4079  130.7369  149.6816 LP  0  0  0  0  0  0  0  0  0  0  0  0  # atno 17370 bound_to 10713
  155.9744  130.4103  150.3923 LP  0  0  0  0  0  0  0  0  0  0  0  0  # atno 17371 bound_to 10713
  141.2218  133.6962  156.7785 LP  0  0  0  0  0  0  0  0  0  0  0  0  # atno 17394 bound_to 11000
  140.2363  134.8648  157.3528 LP  0  0  0  0  0  0  0  0  0  0  0  0  # atno 17395 bound_to 11000

$$$$
