AV-unprocessed.smi:1504|AV-procd|sdf|6074|dock3
  -GOLD-   22720 6193D 1   1.00000     0.00000
 Structure written by MMmdl.
 40 41  0  0  0  0  0  0  0  0  2 V2000
  144.7622  137.3594  153.5684 O   0  0  0  0  0  0  0  0  0  0  0  0
  145.8344  136.9985  153.0829 C   0  0  0  0  0  0  0  0  0  0  0  0
  146.1822  135.7161  152.9064 N   0  0  0  0  0  0  0  0  0  0  0  0
  145.3519  134.5722  153.2651 C   0  0  0  0  0  0  0  0  0  0  0  0
  144.1550  134.4202  152.3111 C   0  0  0  0  0  0  0  0  0  0  0  0
  144.5031  133.6117  151.0766 C   0  0  0  0  0  0  0  0  0  0  0  0
  145.7622  132.9937  150.9155 C   0  0  0  0  0  0  0  0  0  0  0  0
  146.0202  132.2501  149.7450 C   0  0  0  0  0  0  0  0  0  0  0  0
  145.0145  132.1388  148.7624 C   0  0  0  0  0  0  0  0  0  0  0  0
  143.7742  132.7745  148.9759 C   0  0  0  0  0  0  0  0  0  0  0  0
  143.5657  133.4784  150.1103 N   0  3  0  0  0  0  0  0  0  0  0  0
  146.7967  137.8356  152.6739 N   0  0  0  0  0  0  0  0  0  0  0  0
  146.7317  139.2908  152.7542 C   0  0  0  0  0  0  0  0  0  0  0  0
  148.0800  139.8776  153.2056 C   0  0  1  0  0  0  0  0  0  0  0  0
  147.9315  141.2752  153.8376 C   0  0  0  0  0  0  0  0  0  0  0  0
  149.2599  141.6551  154.4986 C   0  0  0  0  0  0  0  0  0  0  0  0
  149.9510  140.0887  155.1479 S   0  0  0  0  0  0  0  0  0  0  0  0
  151.3260  139.9286  154.6511 O   0  0  0  0  0  0  0  0  0  0  0  0
  149.6456  139.9751  156.5819 O   0  0  0  0  0  0  0  0  0  0  0  0
  148.8266  138.9835  154.2119 C   0  0  0  0  0  0  0  0  0  0  0  0
  147.0834  135.5178  152.4963 H   0  0  0  0  0  0  0  0  0  0  0  0
  145.9549  133.6623  153.2696 H   0  0  0  0  0  0  0  0  0  0  0  0
  145.0002  134.7167  154.2869 H   0  0  0  0  0  0  0  0  0  0  0  0
  143.3234  133.9387  152.8275 H   0  0  0  0  0  0  0  0  0  0  0  0
  143.7938  135.4006  151.9973 H   0  0  0  0  0  0  0  0  0  0  0  0
  146.5214  133.0858  151.6787 H   0  0  0  0  0  0  0  0  0  0  0  0
  146.9776  131.7700  149.6035 H   0  0  0  0  0  0  0  0  0  0  0  0
  145.1921  131.5737  147.8589 H   0  0  0  0  0  0  0  0  0  0  0  0
  142.9491  132.7413  148.2795 H   0  0  0  0  0  0  0  0  0  0  0  0
  147.6407  137.4391  152.2868 H   0  0  0  0  0  0  0  0  0  0  0  0
  146.4638  139.6792  151.7710 H   0  0  0  0  0  0  0  0  0  0  0  0
  145.9462  139.6074  153.4431 H   0  0  0  0  0  0  0  0  0  0  0  0
  148.7201  139.9895  152.3288 H   0  0  0  0  0  0  0  0  0  0  0  0
  147.6250  142.0209  153.1035 H   0  0  0  0  0  0  0  0  0  0  0  0
  147.1545  141.2435  154.6028 H   0  0  0  0  0  0  0  0  0  0  0  0
  149.9585  142.0520  153.7619 H   0  0  0  0  0  0  0  0  0  0  0  0
  149.1473  142.3824  155.3025 H   0  0  0  0  0  0  0  0  0  0  0  0
  148.1352  138.5336  154.9253 H   0  0  0  0  0  0  0  0  0  0  0  0
  149.3966  138.1870  153.7336 H   0  0  0  0  0  0  0  0  0  0  0  0
  142.6606  133.9300  150.2437 H   0  0  0  0  0  0  0  0  0  0  0  0
  1  2  2  0  0  0  0
  2  3  1  0  0  0  0
  2 12  1  0  0  0  0
  3  4  1  0  0  0  0
  3 21  1  0  0  0  0
  4  5  1  0  0  0  0
  4 22  1  0  0  0  0
  4 23  1  0  0  0  0
  5  6  1  0  0  0  0
  5 24  1  0  0  0  0
  5 25  1  0  0  0  0
  6 11  1  0  0  0  0
  6  7  2  0  0  0  0
  7  8  1  0  0  0  0
  7 26  1  0  0  0  0
  8  9  2  0  0  0  0
  8 27  1  0  0  0  0
  9 10  1  0  0  0  0
  9 28  1  0  0  0  0
 10 11  2  0  0  0  0
 10 29  1  0  0  0  0
 11 40  1  0  0  0  0
 12 13  1  0  0  0  0
 12 30  1  0  0  0  0
 13 14  1  0  0  0  0
 13 31  1  0  0  0  0
 13 32  1  0  0  0  0
 14 20  1  0  0  0  0
 14 15  1  0  0  0  0
 14 33  1  0  0  0  0
 15 16  1  0  0  0  0
 15 34  1  0  0  0  0
 15 35  1  0  0  0  0
 16 17  1  0  0  0  0
 16 36  1  0  0  0  0
 16 37  1  0  0  0  0
 17 18  2  0  0  0  0
 17 19  2  0  0  0  0
 17 20  1  0  0  0  0
 20 38  1  0  0  0  0
 20 39  1  0  0  0  0
M  CHG  1  11   1
M  END
> <s_m_source_file>
AV-unprocessed.smi

> <i_m_source_file_index>
1504

> <i_lp_mmshare_version>
43012

> <i_f3d_flags>
0

> <s_epik_input>
Tz1TMSg9TylbQ0gyXVtDSDJdW0NASF0oW0NIMl0xKVtDSDJdW05IXUMoPU8pW05IXVtDSDJdW0NIMl1jMltjSF1bY0hdW2NIXVtjSF1uMg==

> <s_epik_cmdline>
J2VwaWtfcHl0aG9uJywgJy1waCcsICc3LjAnLCAnLXRuJywgJzgnLCAnLW1hJywgJzIwMCcsICctbWV0YWxfYmluZGluZycsICctaW1hZScsICc8aW5maWxlLm1hZT4nLCAnLW9tYWUnLCAnPG91dGZpbGUubWFlPic=

> <r_epik_Ionization_Penalty>
1.57393

> <r_epik_Ionization_Penalty_Charging>
1.57388

> <r_epik_Ionization_Penalty_Neutral>
4.82054e-05

> <r_epik_State_Penalty>
1.66991

> <r_epik_Charging_Adjusted_Penalty>
3.24379

> <i_epik_Tot_Q>
1

> <i_epik_Tot_abs_Q>
1

> <r_epik_Metal_State_Penalty>
1.71052

> <b_epik_Metal_Only>
0

> <s_lp_Force_Field>
OPLS_2005

> <r_lp_Energy>
6.78157

> <b_lp_Chiralities_Consistent>
1

> <s_lp_Variant>
AV-unprocessed.smi:1504-4

> <Gold.Version>
5.8.1

> <Gold.Id.Protein>
6NUR|6NUR_protein|mol2

> <Gold.PLP.Fitness>
46.7490

> <Gold.PLP.PLP>
-33.5696

> <Gold.PLP.part.hbond>
-4.0000

> <Gold.PLP.part.metal>
0.0000

> <Gold.PLP.part.buried>
2.2318

> <Gold.PLP.part.nonpolar>
-31.8188

> <Gold.PLP.part.repulsive>
0.3022

> <Gold.PLP.ligand.clash>
0.0000

> <Gold.PLP.ligand.torsion>
0.6283

> <Gold.PLP.Chemscore.Hbond>
4.8089

> <Gold.PLP.Chemscore.CHOScore>
0.0000

> <Gold.PLP.Chemscore.Metal>
0.0000

> <Gold.Chemscore.Hbonds>
donor molecule, donor type, donor heavy atom, donor atom, acceptor molecule, acceptor atom, score
      L1  H     3    21       P1  7948  0.87
      L1  H    11    40       P1 10186  1.98
      L1  H    12    30       P1  7948  1.00
      P1  H  7989  7998       L1    18  0.96

> <Gold.PLP.Chemscore.Internal.Correction>
0.0095

> <Gold.Rescore>
     Score         DG    S(hbond)    S(metal)    S(lipo)     H(rot)  DE(clash)    DE(int)     intcor
     21.79     -23.68       3.67        0.00      94.81       2.01       1.34       0.56       ----

> <Gold.Chemscore.Fitness>
21.7852

> <Gold.Chemscore.DG>
-23.6826

> <Gold.Chemscore.ZeroCoef>
-5.4800

> <Gold.Chemscore.Hbond>
3.6728

> <Gold.Chemscore.Metal>
0.0000

> <Gold.Chemscore.Lipo>
94.8092

> <Gold.Chemscore.Internal_Hbond>
0.0000

> <Gold.Chemscore.DEClash>
1.3389

> <Gold.Chemscore.DEInternal>
0.5585

> <Gold.Chemscore.Rot>
2.0146

> <Gold.Chemscore.Internal.Correction>
   9.000000E+99

> <Gold.Chemscore.Hbonds>
donor molecule, donor type, donor heavy atom, donor atom, acceptor molecule, acceptor atom, score
      L1  H     3    21       P1  7948  0.80
      L1  H    11    40       P1 10186  0.92
      L1  H    12    30       P1  7948  1.00
      P1  H  7989  7998       L1    18  0.78

> <Gold.Chemscore.Hbond.Weighted>
-12.2672

> <Gold.Chemscore.Metal.Weighted>
-0.0000

> <Gold.Chemscore.Lipo.Weighted>
-11.0927

> <Gold.Chemscore.Internal_Hbond.Weighted>
0.0000

> <Gold.Chemscore.DEClash.Weighted>
1.3389

> <Gold.Chemscore.DEInternal.Weighted>
0.5585

> <Gold.Chemscore.Rot.Weighted>
5.1573

> <Gold.Chemscore.Internal.Correction.Weighted>
   9.000000E+99

> <Gold.Protein.RotatedTorsions>
[ 6907 6896 6895 6894 ] final  144.28 input  -60.11 | X-H torsion
[ 7974 7965 7964 7962 ] final -177.10 input  175.53 | X-H torsion
[ 8008 7997 7996 7995 ] final   -2.92 input   59.86 | X-H torsion
[ 10167 10162 10161 10158 ] final -108.20 input  -65.29 | X-H torsion
[ 10718 10713 10712 10709 ] final  103.75 input   66.30 | X-H torsion
[ 10763 10752 10751 10750 ] final  -48.40 input  -60.55 | X-H torsion
[ 11005 11000 10999 10996 ] final   -9.68 input  -57.11 | X-H torsion

> <Gold.Protein.ActiveResidues>
 VAL166  LYS551  ARG553  GLY616  TRP617  ASP618  TYR619  PRO620  LYS621  CYS622 
 ASP623  PHE694  ASN695  SER759  ASP760  ASP761  ALA762  ILE779  LEU786  VAL792 
 PHE793  MET794  SER795  GLU796  ALA797  LYS798  CYS799  TRP800  GLU811  SER814 

> <Gold.Protein.RotatedAtoms>
  152.1957  133.4805  159.5031 H   0  0  0  0  0  0  0  0  0  0  0  0  # atno 6907 bound_to 6896
  150.6959  134.1655  159.4201 H   0  0  0  0  0  0  0  0  0  0  0  0  # atno 6908 bound_to 6896
  151.9571  135.0141  160.0596 H   0  0  0  0  0  0  0  0  0  0  0  0  # atno 6909 bound_to 6896
  144.7127  140.1070  143.6413 H   0  0  0  0  0  0  0  0  0  0  0  0  # atno 7974 bound_to 7965
  154.6305  140.2522  155.7439 H   0  0  0  0  0  0  0  0  0  0  0  0  # atno 8008 bound_to 7997
  156.2477  140.2908  156.0574 H   0  0  0  0  0  0  0  0  0  0  0  0  # atno 8009 bound_to 7997
  155.1752  140.0387  157.2861 H   0  0  0  0  0  0  0  0  0  0  0  0  # atno 8010 bound_to 7997
  140.1688  143.4060  152.1370 H   0  0  0  0  0  0  0  0  0  0  0  0  # atno 10167 bound_to 10162
  157.6763  131.0786  150.5602 H   0  0  0  0  0  0  0  0  0  0  0  0  # atno 10718 bound_to 10713
  154.0771  135.6596  153.4832 H   0  0  0  0  0  0  0  0  0  0  0  0  # atno 10763 bound_to 10752
  153.0369  135.5171  154.7510 H   0  0  0  0  0  0  0  0  0  0  0  0  # atno 10764 bound_to 10752
  154.6594  135.3012  154.9854 H   0  0  0  0  0  0  0  0  0  0  0  0  # atno 10765 bound_to 10752
  140.7367  133.8704  155.8935 H   0  0  0  0  0  0  0  0  0  0  0  0  # atno 11005 bound_to 11000
  145.9488  139.2719  143.1225 LP  0  0  0  0  0  0  0  0  0  0  0  0  # atno 17320 bound_to 7965
  145.9345  140.9024  143.0339 LP  0  0  0  0  0  0  0  0  0  0  0  0  # atno 17321 bound_to 7965
  139.5347  144.7197  151.4933 LP  0  0  0  0  0  0  0  0  0  0  0  0  # atno 17342 bound_to 10162
  140.6596  143.8527  150.6873 LP  0  0  0  0  0  0  0  0  0  0  0  0  # atno 17343 bound_to 10162
  156.5905  130.4328  149.5939 LP  0  0  0  0  0  0  0  0  0  0  0  0  # atno 17370 bound_to 10713
  156.2588  130.6950  151.1712 LP  0  0  0  0  0  0  0  0  0  0  0  0  # atno 17371 bound_to 10713
  140.9873  134.1325  157.4440 LP  0  0  0  0  0  0  0  0  0  0  0  0  # atno 17394 bound_to 11000
  139.8814  135.0029  156.6157 LP  0  0  0  0  0  0  0  0  0  0  0  0  # atno 17395 bound_to 11000

$$$$
