AV-unprocessed.smi:2810|AV-procd|sdf|10827|dock9
  -GOLD-   2272015263D 1   1.00000     0.00000
 Structure written by MMmdl.
 39 40  0  0  0  0  0  0  0  0  1 V2000
  153.9674  138.0319  160.1351 C   0  0  0  0  0  0  0  0  0  0  0  0
  153.1910  139.1928  159.5509 C   0  0  0  0  0  0  0  0  0  0  0  0
  152.5178  139.0820  158.3169 C   0  0  0  0  0  0  0  0  0  0  0  0
  151.8339  140.2356  157.8617 C   0  0  0  0  0  0  0  0  0  0  0  0
  151.1161  140.2756  156.6491 N   0  0  0  0  0  0  0  0  0  0  0  0
  149.7456  140.7417  156.8496 C   0  0  0  0  0  0  0  0  0  0  0  0
  149.0566  140.9992  155.5018 C   0  0  0  0  0  0  0  0  0  0  0  0
  149.1212  139.8201  154.7110 O   0  0  0  0  0  0  0  0  0  0  0  0
  150.4663  139.4633  154.4164 C   0  0  0  0  0  0  0  0  0  0  0  0
  151.2412  139.1454  155.7169 C   0  0  1  0  0  0  0  0  0  0  0  0
  152.6868  138.7768  155.3347 C   0  0  0  0  0  0  0  0  0  0  0  0
  153.1476  137.6018  155.7705 N   0  0  0  0  0  0  0  0  0  0  0  0
  153.3721  139.5331  154.6487 O   0  0  0  0  0  0  0  0  0  0  0  0
  151.8257  141.3688  158.6002 N   0  0  0  0  0  0  0  0  0  0  0  0
  152.4973  141.3640  159.7565 C   0  0  0  0  0  0  0  0  0  0  0  0
  152.4843  142.6533  160.5671 C   0  0  0  0  0  0  0  0  0  0  0  0
  152.7655  143.8848  159.6925 C   0  0  0  0  0  0  0  0  0  0  0  0
  153.4008  142.5676  161.7973 C   0  0  0  0  0  0  0  0  0  0  0  0
  153.1799  140.3358  160.2690 N   0  0  0  0  0  0  0  0  0  0  0  0
  153.7854  137.1149  159.5743 H   0  0  0  0  0  0  0  0  0  0  0  0
  153.6763  137.8598  161.1716 H   0  0  0  0  0  0  0  0  0  0  0  0
  155.0367  138.2429  160.1075 H   0  0  0  0  0  0  0  0  0  0  0  0
  152.5323  138.1583  157.7587 H   0  0  0  0  0  0  0  0  0  0  0  0
  149.1905  139.9898  157.4129 H   0  0  0  0  0  0  0  0  0  0  0  0
  149.7267  141.6590  157.4400 H   0  0  0  0  0  0  0  0  0  0  0  0
  148.0110  141.2650  155.6586 H   0  0  0  0  0  0  0  0  0  0  0  0
  149.5229  141.8346  154.9767 H   0  0  0  0  0  0  0  0  0  0  0  0
  150.4506  138.5922  153.7599 H   0  0  0  0  0  0  0  0  0  0  0  0
  150.9441  140.2698  153.8562 H   0  0  0  0  0  0  0  0  0  0  0  0
  150.7680  138.2774  156.1792 H   0  0  0  0  0  0  0  0  0  0  0  0
  154.0882  137.3130  155.5449 H   0  0  0  0  0  0  0  0  0  0  0  0
  152.5502  137.0046  156.3235 H   0  0  0  0  0  0  0  0  0  0  0  0
  151.4709  142.7800  160.9524 H   0  0  0  0  0  0  0  0  0  0  0  0
  152.0501  143.9533  158.8726 H   0  0  0  0  0  0  0  0  0  0  0  0
  153.7658  143.8470  159.2599 H   0  0  0  0  0  0  0  0  0  0  0  0
  152.6909  144.8037  160.2742 H   0  0  0  0  0  0  0  0  0  0  0  0
  153.1242  141.7261  162.4334 H   0  0  0  0  0  0  0  0  0  0  0  0
  153.3341  143.4735  162.4002 H   0  0  0  0  0  0  0  0  0  0  0  0
  154.4444  142.4384  161.5086 H   0  0  0  0  0  0  0  0  0  0  0  0
  1  2  1  0  0  0  0
  1 20  1  0  0  0  0
  1 21  1  0  0  0  0
  1 22  1  0  0  0  0
  2 19  1  0  0  0  0
  2  3  2  0  0  0  0
  3  4  1  0  0  0  0
  3 23  1  0  0  0  0
  4  5  1  0  0  0  0
  4 14  2  0  0  0  0
  5 10  1  0  0  0  0
  5  6  1  0  0  0  0
  6  7  1  0  0  0  0
  6 24  1  0  0  0  0
  6 25  1  0  0  0  0
  7  8  1  0  0  0  0
  7 26  1  0  0  0  0
  7 27  1  0  0  0  0
  8  9  1  0  0  0  0
  9 10  1  0  0  0  0
  9 28  1  0  0  0  0
  9 29  1  0  0  0  0
 10 11  1  0  0  0  0
 10 30  1  0  0  0  0
 11 12  1  0  0  0  0
 11 13  2  0  0  0  0
 12 31  1  0  0  0  0
 12 32  1  0  0  0  0
 14 15  1  0  0  0  0
 15 16  1  0  0  0  0
 15 19  2  0  0  0  0
 16 17  1  0  0  0  0
 16 18  1  0  0  0  0
 16 33  1  0  0  0  0
 17 34  1  0  0  0  0
 17 35  1  0  0  0  0
 17 36  1  0  0  0  0
 18 37  1  0  0  0  0
 18 38  1  0  0  0  0
 18 39  1  0  0  0  0
M  END
> <s_m_source_file>
AV-unprocessed.smi

> <i_m_source_file_index>
2810

> <i_lp_mmshare_version>
43012

> <i_f3d_flags>
0

> <s_epik_input>
W0NIM11bQ0hdKFtDSDNdKWMobjEpbmMoW2NIXWMxW0NIM10pTjJbQ0gyXVtDSDJdT1tDSDJdW0NASF0yQyg9TylbTkgyXQ==

> <s_epik_cmdline>
J2VwaWtfcHl0aG9uJywgJy1waCcsICc3LjAnLCAnLXRuJywgJzgnLCAnLW1hJywgJzIwMCcsICctbWV0YWxfYmluZGluZycsICctaW1hZScsICc8aW5maWxlLm1hZT4nLCAnLW9tYWUnLCAnPG91dGZpbGUubWFlPic=

> <r_lp_tautomer_probability>
1

> <r_epik_Ionization_Penalty>
0.00607782

> <r_epik_Ionization_Penalty_Charging>
0

> <r_epik_Ionization_Penalty_Neutral>
0.00607782

> <r_epik_State_Penalty>
0.00441345

> <r_epik_Charging_Adjusted_Penalty>
0.00441345

> <i_epik_Tot_Q>
0

> <i_epik_Tot_abs_Q>
0

> <r_epik_Metal_State_Penalty>
-0

> <b_epik_Metal_Only>
0

> <s_lp_Force_Field>
OPLS_2005

> <r_lp_Energy>
6.57668

> <b_lp_Chiralities_Consistent>
1

> <s_lp_Variant>
AV-unprocessed.smi:2810-1

> <Gold.Version>
5.8.1

> <Gold.Id.Protein>
6NUR|6NUR_protein|mol2

> <Gold.PLP.Fitness>
33.8621

> <Gold.PLP.PLP>
-31.3124

> <Gold.PLP.part.hbond>
-2.0000

> <Gold.PLP.part.metal>
0.0000

> <Gold.PLP.part.buried>
-2.9461

> <Gold.PLP.part.nonpolar>
-26.7684

> <Gold.PLP.part.repulsive>
1.8384

> <Gold.PLP.ligand.clash>
0.0000

> <Gold.PLP.ligand.torsion>
0.4140

> <Gold.PLP.Chemscore.Hbond>
1.0156

> <Gold.PLP.Chemscore.CHOScore>
0.0000

> <Gold.PLP.Chemscore.Metal>
0.0000

> <Gold.Chemscore.Hbonds>
donor molecule, donor type, donor heavy atom, donor atom, acceptor molecule, acceptor atom, score
      P1  H  7997  8009       L1    13  1.00

> <Gold.PLP.Chemscore.Internal.Correction>
0.3308

> <Gold.Rescore>
     Score         DG    S(hbond)    S(metal)    S(lipo)     H(rot)  DE(clash)    DE(int)     intcor
     10.46     -13.41       0.96        0.00      77.78       1.71       1.65       1.30       ----

> <Gold.Chemscore.Fitness>
10.4612

> <Gold.Chemscore.DG>
-13.4100

> <Gold.Chemscore.ZeroCoef>
-5.4800

> <Gold.Chemscore.Hbond>
0.9617

> <Gold.Chemscore.Metal>
0.0000

> <Gold.Chemscore.Lipo>
77.7771

> <Gold.Chemscore.Internal_Hbond>
0.0000

> <Gold.Chemscore.DEClash>
1.6479

> <Gold.Chemscore.DEInternal>
1.3009

> <Gold.Chemscore.Rot>
1.7117

> <Gold.Chemscore.Internal.Correction>
   9.000000E+99

> <Gold.Chemscore.Hbonds>
donor molecule, donor type, donor heavy atom, donor atom, acceptor molecule, acceptor atom, score
      P1  H  7989  7998       L1    13  0.01
      P1  H  7997  8009       L1    13  0.85

> <Gold.Chemscore.Hbond.Weighted>
-3.2120

> <Gold.Chemscore.Metal.Weighted>
-0.0000

> <Gold.Chemscore.Lipo.Weighted>
-9.0999

> <Gold.Chemscore.Internal_Hbond.Weighted>
0.0000

> <Gold.Chemscore.DEClash.Weighted>
1.6479

> <Gold.Chemscore.DEInternal.Weighted>
1.3009

> <Gold.Chemscore.Rot.Weighted>
4.3820

> <Gold.Chemscore.Internal.Correction.Weighted>
   9.000000E+99

> <Gold.Protein.RotatedTorsions>
[ 6907 6896 6895 6894 ] final  136.17 input  -60.11 | X-H torsion
[ 7974 7965 7964 7962 ] final  139.35 input  175.53 | X-H torsion
[ 8008 7997 7996 7995 ] final -105.95 input   59.86 | X-H torsion
[ 10167 10162 10161 10158 ] final  112.65 input  -65.29 | X-H torsion
[ 10718 10713 10712 10709 ] final -163.83 input   66.30 | X-H torsion
[ 10763 10752 10751 10750 ] final  -92.16 input  -60.55 | X-H torsion
[ 11005 11000 10999 10996 ] final   99.64 input  -57.11 | X-H torsion

> <Gold.Protein.ActiveResidues>
 VAL166  LYS551  ARG553  GLY616  TRP617  ASP618  TYR619  PRO620  LYS621  CYS622 
 ASP623  PHE694  ASN695  SER759  ASP760  ASP761  ALA762  ILE779  LEU786  VAL792 
 PHE793  MET794  SER795  GLU796  ALA797  LYS798  CYS799  TRP800  GLU811  SER814 

> <Gold.Protein.RotatedAtoms>
  152.2923  133.5573  159.5565 H   0  0  0  0  0  0  0  0  0  0  0  0  # atno 6907 bound_to 6896
  150.7241  134.0411  159.3775 H   0  0  0  0  0  0  0  0  0  0  0  0  # atno 6908 bound_to 6896
  151.8316  135.0620  160.0488 H   0  0  0  0  0  0  0  0  0  0  0  0  # atno 6909 bound_to 6896
  144.9287  139.5074  143.5628 H   0  0  0  0  0  0  0  0  0  0  0  0  # atno 7974 bound_to 7965
  154.9074  140.0411  157.1927 H   0  0  0  0  0  0  0  0  0  0  0  0  # atno 8008 bound_to 7997
  154.8383  140.2910  155.5655 H   0  0  0  0  0  0  0  0  0  0  0  0  # atno 8009 bound_to 7997
  156.2991  140.2487  156.3320 H   0  0  0  0  0  0  0  0  0  0  0  0  # atno 8010 bound_to 7997
  139.6520  144.7128  151.2030 H   0  0  0  0  0  0  0  0  0  0  0  0  # atno 10167 bound_to 10162
  156.6303  130.8927  151.2976 H   0  0  0  0  0  0  0  0  0  0  0  0  # atno 10718 bound_to 10713
  154.6833  135.5241  153.8293 H   0  0  0  0  0  0  0  0  0  0  0  0  # atno 10763 bound_to 10752
  153.0580  135.6558  154.0540 H   0  0  0  0  0  0  0  0  0  0  0  0  # atno 10764 bound_to 10752
  154.0424  135.2976  155.3333 H   0  0  0  0  0  0  0  0  0  0  0  0  # atno 10765 bound_to 10752
  139.8770  134.9104  156.4636 H   0  0  0  0  0  0  0  0  0  0  0  0  # atno 11005 bound_to 11000
  146.3237  139.8221  142.8924 LP  0  0  0  0  0  0  0  0  0  0  0  0  # atno 17320 bound_to 7965
  145.3177  141.0236  143.3518 LP  0  0  0  0  0  0  0  0  0  0  0  0  # atno 17321 bound_to 7965
  140.7542  143.6135  150.8582 LP  0  0  0  0  0  0  0  0  0  0  0  0  # atno 17342 bound_to 10162
  139.9784  143.5979  152.2951 LP  0  0  0  0  0  0  0  0  0  0  0  0  # atno 17343 bound_to 10162
  157.7202  130.9548  150.1408 LP  0  0  0  0  0  0  0  0  0  0  0  0  # atno 17370 bound_to 10713
  156.2240  130.3676  149.8522 LP  0  0  0  0  0  0  0  0  0  0  0  0  # atno 17371 bound_to 10713
  140.8846  133.7892  155.9504 LP  0  0  0  0  0  0  0  0  0  0  0  0  # atno 17394 bound_to 11000
  140.8818  134.2602  157.5140 LP  0  0  0  0  0  0  0  0  0  0  0  0  # atno 17395 bound_to 11000

$$$$
