AV-unprocessed.smi:3336|AV-procd|sdf|12858|dock8
  -GOLD-   2272019253D 1   1.00000     0.00000
 Structure written by MMmdl.
 41 42  0  0  0  0  0  0  0  0  1 V2000
  145.4124  134.5688  154.5805 C   0  0  0  0  0  0  0  0  0  0  0  0
  146.1787  135.4302  153.5634 C   0  0  1  0  0  0  0  0  0  0  0  0
  145.4435  135.5915  152.2177 C   0  0  0  0  0  0  0  0  0  0  0  0
  145.3588  134.3472  151.4743 N   0  0  0  0  0  0  0  0  0  0  0  0
  144.2605  133.8060  150.8401 C   0  0  0  0  0  0  0  0  0  0  0  0
  144.6559  132.6264  150.2777 C   0  0  0  0  0  0  0  0  0  0  0  0
  146.0319  132.5299  150.6274 C   0  0  0  0  0  0  0  0  0  0  0  0
  146.4493  133.5601  151.3454 N   0  0  0  0  0  0  0  0  0  0  0  0
  146.3659  136.7600  154.1357 N   0  0  0  0  0  0  0  0  0  0  0  0
  147.6986  136.9792  154.7268 C   0  0  2  0  0  0  0  0  0  0  0  0
  147.8705  136.1363  156.0074 C   0  0  0  0  0  0  0  0  0  0  0  0
  147.9240  138.4735  155.0457 C   0  0  0  0  0  0  0  0  0  0  0  0
  147.0799  139.0589  155.7279 O   0  0  0  0  0  0  0  0  0  0  0  0
  149.0283  139.1116  154.5800 N   0  0  0  0  0  0  0  0  0  0  0  0
  150.1593  138.5099  153.8624 C   0  0  0  0  0  0  0  0  0  0  0  0
  151.4277  138.6745  154.7197 C   0  0  0  0  0  0  0  0  0  0  0  0
  151.6511  140.0544  154.9946 O   0  0  0  0  0  0  0  0  0  0  0  0
  150.5606  140.6675  155.6760 C   0  0  0  0  0  0  0  0  0  0  0  0
  149.2851  140.5354  154.8258 C   0  0  0  0  0  0  0  0  0  0  0  0
  145.2924  133.5458  154.2231 H   0  0  0  0  0  0  0  0  0  0  0  0
  144.4175  134.9715  154.7742 H   0  0  0  0  0  0  0  0  0  0  0  0
  145.9427  134.5169  155.5321 H   0  0  0  0  0  0  0  0  0  0  0  0
  147.1395  134.9505  153.3702 H   0  0  0  0  0  0  0  0  0  0  0  0
  144.4353  135.9796  152.3752 H   0  0  0  0  0  0  0  0  0  0  0  0
  145.9612  136.3197  151.5918 H   0  0  0  0  0  0  0  0  0  0  0  0
  143.3004  134.3010  150.8419 H   0  0  0  0  0  0  0  0  0  0  0  0
  144.0542  131.9371  149.7041 H   0  0  0  0  0  0  0  0  0  0  0  0
  146.7343  131.7466  150.3833 H   0  0  0  0  0  0  0  0  0  0  0  0
  145.6264  136.9638  154.7930 H   0  0  0  0  0  0  0  0  0  0  0  0
  148.4283  136.6813  153.9748 H   0  0  0  0  0  0  0  0  0  0  0  0
  148.8330  136.3163  156.4859 H   0  0  0  0  0  0  0  0  0  0  0  0
  147.8172  135.0682  155.7976 H   0  0  0  0  0  0  0  0  0  0  0  0
  147.0944  136.3654  156.7390 H   0  0  0  0  0  0  0  0  0  0  0  0
  150.0342  137.4558  153.6279 H   0  0  0  0  0  0  0  0  0  0  0  0
  150.2859  139.0160  152.9043 H   0  0  0  0  0  0  0  0  0  0  0  0
  151.3402  138.1193  155.6549 H   0  0  0  0  0  0  0  0  0  0  0  0
  152.2942  138.2754  154.1924 H   0  0  0  0  0  0  0  0  0  0  0  0
  150.4249  140.2082  156.6564 H   0  0  0  0  0  0  0  0  0  0  0  0
  150.7960  141.7185  155.8437 H   0  0  0  0  0  0  0  0  0  0  0  0
  149.4162  141.0476  153.8715 H   0  0  0  0  0  0  0  0  0  0  0  0
  148.4585  141.0417  155.3253 H   0  0  0  0  0  0  0  0  0  0  0  0
  1  2  1  0  0  0  0
  1 20  1  0  0  0  0
  1 21  1  0  0  0  0
  1 22  1  0  0  0  0
  2  3  1  0  0  0  0
  2  9  1  0  0  0  0
  2 23  1  0  0  0  0
  3  4  1  0  0  0  0
  3 24  1  0  0  0  0
  3 25  1  0  0  0  0
  4  8  1  0  0  0  0
  4  5  1  0  0  0  0
  5  6  2  0  0  0  0
  5 26  1  0  0  0  0
  6  7  1  0  0  0  0
  6 27  1  0  0  0  0
  7  8  2  0  0  0  0
  7 28  1  0  0  0  0
  9 10  1  0  0  0  0
  9 29  1  0  0  0  0
 10 11  1  0  0  0  0
 10 12  1  0  0  0  0
 10 30  1  0  0  0  0
 11 31  1  0  0  0  0
 11 32  1  0  0  0  0
 11 33  1  0  0  0  0
 12 13  2  0  0  0  0
 12 14  1  0  0  0  0
 14 19  1  0  0  0  0
 14 15  1  0  0  0  0
 15 16  1  0  0  0  0
 15 34  1  0  0  0  0
 15 35  1  0  0  0  0
 16 17  1  0  0  0  0
 16 36  1  0  0  0  0
 16 37  1  0  0  0  0
 17 18  1  0  0  0  0
 18 19  1  0  0  0  0
 18 38  1  0  0  0  0
 18 39  1  0  0  0  0
 19 40  1  0  0  0  0
 19 41  1  0  0  0  0
M  END
> <s_m_source_file>
AV-unprocessed.smi

> <i_m_source_file_index>
3336

> <i_lp_mmshare_version>
43012

> <i_f3d_flags>
0

> <s_epik_input>
bjFbY0hdW2NIXVtjSF1uMVtDSDJdW0NAQEhdKFtDSDNdKVtOSF1bQ0BIXShbQ0gzXSlDKD1PKU4yW0NIMl1bQ0gyXU9bQ0gyXVtDSDJdMg==

> <s_epik_cmdline>
J2VwaWtfcHl0aG9uJywgJy1waCcsICc3LjAnLCAnLXRuJywgJzgnLCAnLW1hJywgJzIwMCcsICctbWV0YWxfYmluZGluZycsICctaW1hZScsICc8aW5maWxlLm1hZT4nLCAnLW9tYWUnLCAnPG91dGZpbGUubWFlPic=

> <r_lp_tautomer_probability>
1

> <r_epik_Ionization_Penalty>
0.739958

> <r_epik_Ionization_Penalty_Charging>
0

> <r_epik_Ionization_Penalty_Neutral>
0.739958

> <r_epik_State_Penalty>
0.765967

> <r_epik_Charging_Adjusted_Penalty>
0.765967

> <i_epik_Tot_Q>
0

> <i_epik_Tot_abs_Q>
0

> <r_epik_Metal_State_Penalty>
0.765947

> <b_epik_Metal_Only>
0

> <s_lp_Force_Field>
OPLS_2005

> <r_lp_Energy>
30.7433

> <b_lp_Chiralities_Consistent>
1

> <s_lp_Variant>
AV-unprocessed.smi:3336-6

> <Gold.Version>
5.8.1

> <Gold.Id.Protein>
6NUR|6NUR_protein|mol2

> <Gold.PLP.Fitness>
34.8179

> <Gold.PLP.PLP>
-27.7111

> <Gold.PLP.part.hbond>
-1.0000

> <Gold.PLP.part.metal>
0.0000

> <Gold.PLP.part.buried>
-1.0976

> <Gold.PLP.part.nonpolar>
-25.1336

> <Gold.PLP.part.repulsive>
0.2677

> <Gold.PLP.ligand.clash>
0.0000

> <Gold.PLP.ligand.torsion>
0.9803

> <Gold.PLP.Chemscore.Hbond>
0.9920

> <Gold.PLP.Chemscore.CHOScore>
2.0000

> <Gold.PLP.Chemscore.Metal>
0.0000

> <Gold.Chemscore.Hbonds>
donor molecule, donor type, donor heavy atom, donor atom, acceptor molecule, acceptor atom, score
      P1  H  7989  7998       L1    17  1.00
      L1  C     5    26       P1 10186  0.76
      L1  C     7    28       P1 10747  1.00

> <Gold.PLP.Chemscore.Internal.Correction>
0.0915

> <Gold.Rescore>
     Score         DG    S(hbond)    S(metal)    S(lipo)     H(rot)  DE(clash)    DE(int)     intcor
      8.84     -10.45       0.58        0.00      65.19       1.79       0.74       0.87       ----

> <Gold.Chemscore.Fitness>
8.8402

> <Gold.Chemscore.DG>
-10.4472

> <Gold.Chemscore.ZeroCoef>
-5.4800

> <Gold.Chemscore.Hbond>
0.5783

> <Gold.Chemscore.Metal>
0.0000

> <Gold.Chemscore.Lipo>
65.1877

> <Gold.Chemscore.Internal_Hbond>
0.0000

> <Gold.Chemscore.DEClash>
0.7374

> <Gold.Chemscore.DEInternal>
0.8696

> <Gold.Chemscore.Rot>
1.7935

> <Gold.Chemscore.Internal.Correction>
   9.000000E+99

> <Gold.Chemscore.Hbonds>
donor molecule, donor type, donor heavy atom, donor atom, acceptor molecule, acceptor atom, score
      P1  H  7989  7998       L1    17  0.23

> <Gold.Chemscore.Hbond.Weighted>
-1.9315

> <Gold.Chemscore.Metal.Weighted>
-0.0000

> <Gold.Chemscore.Lipo.Weighted>
-7.6270

> <Gold.Chemscore.Internal_Hbond.Weighted>
0.0000

> <Gold.Chemscore.DEClash.Weighted>
0.7374

> <Gold.Chemscore.DEInternal.Weighted>
0.8696

> <Gold.Chemscore.Rot.Weighted>
4.5912

> <Gold.Chemscore.Internal.Correction.Weighted>
   9.000000E+99

> <Gold.Protein.RotatedTorsions>
[ 6907 6896 6895 6894 ] final  150.99 input  -60.11 | X-H torsion
[ 7974 7965 7964 7962 ] final  -74.65 input  175.53 | X-H torsion
[ 8008 7997 7996 7995 ] final   71.75 input   59.86 | X-H torsion
[ 10167 10162 10161 10158 ] final  168.34 input  -65.29 | X-H torsion
[ 10718 10713 10712 10709 ] final   70.44 input   66.30 | X-H torsion
[ 10763 10752 10751 10750 ] final   77.46 input  -60.55 | X-H torsion
[ 11005 11000 10999 10996 ] final   10.17 input  -57.11 | X-H torsion

> <Gold.Protein.ActiveResidues>
 VAL166  LYS551  ARG553  GLY616  TRP617  ASP618  TYR619  PRO620  LYS621  CYS622 
 ASP623  PHE694  ASN695  SER759  ASP760  ASP761  ALA762  ILE779  LEU786  VAL792 
 PHE793  MET794  SER795  GLU796  ALA797  LYS798  CYS799  TRP800  GLU811  SER814 

> <Gold.Protein.RotatedAtoms>
  152.1068  133.4279  159.4612 H   0  0  0  0  0  0  0  0  0  0  0  0  # atno 6907 bound_to 6896
  150.6866  134.2696  159.4592 H   0  0  0  0  0  0  0  0  0  0  0  0  # atno 6908 bound_to 6896
  152.0561  134.9623  160.0625 H   0  0  0  0  0  0  0  0  0  0  0  0  # atno 6909 bound_to 6896
  145.6363  140.9324  143.1060 H   0  0  0  0  0  0  0  0  0  0  0  0  # atno 7974 bound_to 7965
  155.7586  140.3487  155.5186 H   0  0  0  0  0  0  0  0  0  0  0  0  # atno 8008 bound_to 7997
  155.8935  140.1022  157.1422 H   0  0  0  0  0  0  0  0  0  0  0  0  # atno 8009 bound_to 7997
  154.4036  140.1299  156.4333 H   0  0  0  0  0  0  0  0  0  0  0  0  # atno 8010 bound_to 7997
  139.4966  144.3825  151.9607 H   0  0  0  0  0  0  0  0  0  0  0  0  # atno 10167 bound_to 10162
  157.6400  130.9477  150.0651 H   0  0  0  0  0  0  0  0  0  0  0  0  # atno 10718 bound_to 10713
  153.0801  135.4913  154.8484 H   0  0  0  0  0  0  0  0  0  0  0  0  # atno 10763 bound_to 10752
  154.7139  135.3025  154.9157 H   0  0  0  0  0  0  0  0  0  0  0  0  # atno 10764 bound_to 10752
  153.9842  135.6786  153.4804 H   0  0  0  0  0  0  0  0  0  0  0  0  # atno 10765 bound_to 10752
  140.5175  134.0592  155.7835 H   0  0  0  0  0  0  0  0  0  0  0  0  # atno 11005 bound_to 11000
  144.7174  139.8148  143.7394 LP  0  0  0  0  0  0  0  0  0  0  0  0  # atno 17320 bound_to 7965
  146.1317  139.4353  143.0165 LP  0  0  0  0  0  0  0  0  0  0  0  0  # atno 17321 bound_to 7965
  140.3261  144.3371  150.5998 LP  0  0  0  0  0  0  0  0  0  0  0  0  # atno 17342 bound_to 10162
  140.5683  143.2183  151.7644 LP  0  0  0  0  0  0  0  0  0  0  0  0  # atno 17343 bound_to 10162
  156.1672  130.3645  149.9216 LP  0  0  0  0  0  0  0  0  0  0  0  0  # atno 17370 bound_to 10713
  156.7200  130.9003  151.3617 LP  0  0  0  0  0  0  0  0  0  0  0  0  # atno 17371 bound_to 10713
  141.1352  133.9233  157.2449 LP  0  0  0  0  0  0  0  0  0  0  0  0  # atno 17394 bound_to 11000
  139.9624  135.0151  156.9297 LP  0  0  0  0  0  0  0  0  0  0  0  0  # atno 17395 bound_to 11000

$$$$
