AV-unprocessed.smi:209|AV-procd|sdf|1610|dock1
  -GOLD-   2262019533D 1   1.00000     0.00000
 Structure written by MMmdl.
 48 52  0  0  0  0  0  0  0  0  1 V2000
  151.1090  139.1932  154.3501 O   0  0  0  0  0  0  0  0  0  0  0  0
  150.5716  138.1290  154.6495 C   0  0  0  0  0  0  0  0  0  0  0  0
  150.7554  136.9601  154.0380 N   0  0  0  0  0  0  0  0  0  0  0  0
  149.9126  135.9008  154.5667 C   0  0  0  0  0  0  0  0  0  0  0  0
  148.8782  136.6334  155.4570 C   0  0  1  0  0  0  0  0  0  0  0  0
  149.6094  137.9505  155.8153 C   0  0  2  0  0  0  0  0  0  0  0  0
  148.6965  139.1513  156.1416 C   0  0  0  0  0  0  0  0  0  0  0  0
  147.5009  139.2446  155.1898 C   0  0  0  0  0  0  0  0  0  0  0  0
  146.7444  137.9133  155.1774 C   0  0  0  0  0  0  0  0  0  0  0  0
  147.6190  136.8385  154.7167 N   0  0  0  0  0  0  0  0  0  0  0  0
  146.9169  135.7366  154.3464 C   0  0  0  0  0  0  0  0  0  0  0  0
  146.9711  134.6064  155.1009 N   0  0  0  0  0  0  0  0  0  0  0  0
  146.2697  133.5257  154.7468 C   0  0  0  0  0  0  0  0  0  0  0  0
  145.4650  133.3611  153.6952 N   0  0  0  0  0  0  0  0  0  0  0  0
  145.4117  134.4896  152.9311 C   0  0  0  0  0  0  0  0  0  0  0  0
  146.0990  135.7100  153.1826 C   0  0  0  0  0  0  0  0  0  0  0  0
  145.8054  136.6329  152.1867 N   0  0  0  0  0  0  0  0  0  0  0  0
  144.9848  135.9969  151.3955 C   0  0  0  0  0  0  0  0  0  0  0  0
  144.7003  134.7000  151.7621 N   0  0  0  0  0  0  0  0  0  0  0  0
  143.8175  133.7690  151.0741 C   0  0  0  0  0  0  0  0  0  0  0  0
  144.5385  132.7694  150.1470 C   0  0  0  0  0  0  0  0  0  0  0  0
  143.8957  132.8377  148.7470 C   0  0  0  0  0  0  0  0  0  0  0  0
  142.6273  132.2155  148.6975 O   0  0  0  0  0  0  0  0  0  0  0  0
  146.0708  132.8596  150.2171 C   0  0  0  0  0  0  0  0  0  0  0  0
  146.1662  131.6486  150.9987 O   0  0  0  0  0  0  0  0  0  0  0  0
  144.7736  131.3694  150.7342 C   0  0  0  0  0  0  0  0  0  0  0  0
  148.6758  136.0656  156.3661 H   0  0  0  0  0  0  0  0  0  0  0  0
  150.2467  137.7698  156.6822 H   0  0  0  0  0  0  0  0  0  0  0  0
  151.3576  136.8285  153.2382 H   0  0  0  0  0  0  0  0  0  0  0  0
  149.4765  135.3094  153.7612 H   0  0  0  0  0  0  0  0  0  0  0  0
  150.5322  135.2355  155.1688 H   0  0  0  0  0  0  0  0  0  0  0  0
  148.3267  139.0433  157.1619 H   0  0  0  0  0  0  0  0  0  0  0  0
  149.2617  140.0838  156.1264 H   0  0  0  0  0  0  0  0  0  0  0  0
  146.8364  140.0492  155.5059 H   0  0  0  0  0  0  0  0  0  0  0  0
  147.8373  139.4928  154.1823 H   0  0  0  0  0  0  0  0  0  0  0  0
  146.3797  137.6756  156.1778 H   0  0  0  0  0  0  0  0  0  0  0  0
  145.8672  138.0089  154.5371 H   0  0  0  0  0  0  0  0  0  0  0  0
  146.3667  132.6709  155.3995 H   0  0  0  0  0  0  0  0  0  0  0  0
  144.5602  136.4639  150.5189 H   0  0  0  0  0  0  0  0  0  0  0  0
  143.2328  133.2356  151.8247 H   0  0  0  0  0  0  0  0  0  0  0  0
  143.0949  134.3583  150.5075 H   0  0  0  0  0  0  0  0  0  0  0  0
  143.7562  133.8704  148.4274 H   0  0  0  0  0  0  0  0  0  0  0  0
  144.5344  132.3583  148.0046 H   0  0  0  0  0  0  0  0  0  0  0  0
  141.9761  132.8366  148.9860 H   0  0  0  0  0  0  0  0  0  0  0  0
  146.5820  132.7630  149.2586 H   0  0  0  0  0  0  0  0  0  0  0  0
  146.4385  133.7327  150.7576 H   0  0  0  0  0  0  0  0  0  0  0  0
  144.2154  131.1612  151.6461 H   0  0  0  0  0  0  0  0  0  0  0  0
  144.6542  130.5546  150.0187 H   0  0  0  0  0  0  0  0  0  0  0  0
  1  2  2  0  0  0  0
  2  6  1  0  0  0  0
  2  3  1  0  0  0  0
  3  4  1  0  0  0  0
  3 29  1  0  0  0  0
  4  5  1  0  0  0  0
  4 30  1  0  0  0  0
  4 31  1  0  0  0  0
  5 27  1  0  0  0  0
  5 10  1  0  0  0  0
  5  6  1  0  0  0  0
  6 28  1  0  0  0  0
  6  7  1  0  0  0  0
  7  8  1  0  0  0  0
  7 32  1  0  0  0  0
  7 33  1  0  0  0  0
  8  9  1  0  0  0  0
  8 34  1  0  0  0  0
  8 35  1  0  0  0  0
  9 10  1  0  0  0  0
  9 36  1  0  0  0  0
  9 37  1  0  0  0  0
 10 11  1  0  0  0  0
 11 16  1  0  0  0  0
 11 12  2  0  0  0  0
 12 13  1  0  0  0  0
 13 14  2  0  0  0  0
 13 38  1  0  0  0  0
 14 15  1  0  0  0  0
 15 19  1  0  0  0  0
 15 16  2  0  0  0  0
 16 17  1  0  0  0  0
 17 18  2  0  0  0  0
 18 19  1  0  0  0  0
 18 39  1  0  0  0  0
 19 20  1  0  0  0  0
 20 21  1  0  0  0  0
 20 40  1  0  0  0  0
 20 41  1  0  0  0  0
 21 26  1  0  0  0  0
 21 22  1  0  0  0  0
 21 24  1  0  0  0  0
 22 23  1  0  0  0  0
 22 42  1  0  0  0  0
 22 43  1  0  0  0  0
 23 44  1  0  0  0  0
 24 25  1  0  0  0  0
 24 45  1  0  0  0  0
 24 46  1  0  0  0  0
 25 26  1  0  0  0  0
 26 47  1  0  0  0  0
 26 48  1  0  0  0  0
M  END
> <s_m_source_file>
AV-unprocessed.smi

> <i_m_source_file_index>
209

> <i_lp_mmshare_version>
43012

> <i_f3d_flags>
0

> <s_epik_input>
W0NIMl0xW05IXUMoPU8pW0NAQEhdKFtDQEBIXTEyKVtDSDJdW0NIMl1bQ0gyXU4yYyhuW2NIXW4zKWMoYzM0KW5bY0hdbjRbQ0gyXUM1KFtDSDJdW09IXSlbQ0gyXU9bQ0gyXTU=

> <s_epik_cmdline>
J2VwaWtfcHl0aG9uJywgJy1waCcsICc3LjAnLCAnLXRuJywgJzgnLCAnLW1hJywgJzIwMCcsICctbWV0YWxfYmluZGluZycsICctaW1hZScsICc8aW5maWxlLm1hZT4nLCAnLW9tYWUnLCAnPG91dGZpbGUubWFlPic=

> <r_lp_tautomer_probability>
1

> <r_epik_Ionization_Penalty>
0.00113306

> <r_epik_Ionization_Penalty_Charging>
0

> <r_epik_Ionization_Penalty_Neutral>
0.00113306

> <r_epik_State_Penalty>
0.000624042

> <r_epik_Charging_Adjusted_Penalty>
0.000624042

> <i_epik_Tot_Q>
0

> <i_epik_Tot_abs_Q>
0

> <r_epik_Metal_State_Penalty>
-0

> <b_epik_Metal_Only>
0

> <s_lp_Force_Field>
OPLS_2005

> <r_lp_Energy>
50.5129

> <b_lp_Chiralities_Consistent>
1

> <s_lp_Variant>
AV-unprocessed.smi:209-4

> <Gold.Version>
5.8.1

> <Gold.Id.Protein>
6NUR|6NUR_protein|mol2

> <Gold.PLP.Fitness>
43.4736

> <Gold.PLP.PLP>
-32.5388

> <Gold.PLP.part.hbond>
-6.0000

> <Gold.PLP.part.metal>
0.0000

> <Gold.PLP.part.buried>
-4.2024

> <Gold.PLP.part.nonpolar>
-23.1293

> <Gold.PLP.part.repulsive>
0.9820

> <Gold.PLP.ligand.clash>
0.0000

> <Gold.PLP.ligand.torsion>
1.9759

> <Gold.PLP.Chemscore.Hbond>
3.7176

> <Gold.PLP.Chemscore.CHOScore>
1.0000

> <Gold.PLP.Chemscore.Metal>
0.0000

> <Gold.Chemscore.Hbonds>
donor molecule, donor type, donor heavy atom, donor atom, acceptor molecule, acceptor atom, score
      L1  H     3    29       P1  7949  0.70
      L1  H    23    44       P1 10186  1.00
      P1  H  7989  7998       L1     1  1.00
      P1  H 10785 10796       L1    23  0.71
      L1  C    18    39       P1 10171  1.00

> <Gold.PLP.Chemscore.Internal.Correction>
0.7339

> <Gold.Rescore>
     Score         DG    S(hbond)    S(metal)    S(lipo)     H(rot)  DE(clash)    DE(int)     intcor
     12.77     -15.53       2.84        0.00      63.05       2.66       0.74       2.02       ----

> <Gold.Chemscore.Fitness>
12.7709

> <Gold.Chemscore.DG>
-15.5317

> <Gold.Chemscore.ZeroCoef>
-5.4800

> <Gold.Chemscore.Hbond>
2.8412

> <Gold.Chemscore.Metal>
0.0000

> <Gold.Chemscore.Lipo>
63.0512

> <Gold.Chemscore.Internal_Hbond>
0.0000

> <Gold.Chemscore.DEClash>
0.7400

> <Gold.Chemscore.DEInternal>
2.0208

> <Gold.Chemscore.Rot>
2.6620

> <Gold.Chemscore.Internal.Correction>
   9.000000E+99

> <Gold.Chemscore.Hbonds>
donor molecule, donor type, donor heavy atom, donor atom, acceptor molecule, acceptor atom, score
      L1  H     3    29       P1  7949  0.51
      L1  H    23    44       P1 10186  1.00
      P1  H  7989  7998       L1     1  0.99
      P1  H 10785 10796       L1    23  0.20

> <Gold.Chemscore.Hbond.Weighted>
-9.4895

> <Gold.Chemscore.Metal.Weighted>
-0.0000

> <Gold.Chemscore.Lipo.Weighted>
-7.3770

> <Gold.Chemscore.Internal_Hbond.Weighted>
0.0000

> <Gold.Chemscore.DEClash.Weighted>
0.7400

> <Gold.Chemscore.DEInternal.Weighted>
2.0208

> <Gold.Chemscore.Rot.Weighted>
6.8148

> <Gold.Chemscore.Internal.Correction.Weighted>
   9.000000E+99

> <Gold.Protein.RotatedTorsions>
[ 6907 6896 6895 6894 ] final  169.66 input  -60.11 | X-H torsion
[ 7974 7965 7964 7962 ] final  -62.20 input  175.53 | X-H torsion
[ 8008 7997 7996 7995 ] final  123.49 input   59.86 | X-H torsion
[ 10167 10162 10161 10158 ] final  -50.06 input  -65.29 | X-H torsion
[ 10718 10713 10712 10709 ] final  139.68 input   66.30 | X-H torsion
[ 10763 10752 10751 10750 ] final  -52.96 input  -60.55 | X-H torsion
[ 11005 11000 10999 10996 ] final -176.46 input  -57.11 | X-H torsion

> <Gold.Protein.ActiveResidues>
 VAL166  LYS551  ARG553  GLY616  TRP617  ASP618  TYR619  PRO620  LYS621  CYS622 
 ASP623  PHE694  ASN695  SER759  ASP760  ASP761  ALA762  ILE779  LEU786  VAL792 
 PHE793  MET794  SER795  GLU796  ALA797  LYS798  CYS799  TRP800  GLU811  SER814 

> <Gold.Protein.RotatedAtoms>
  151.8284  133.3405  159.3605 H   0  0  0  0  0  0  0  0  0  0  0  0  # atno 6907 bound_to 6896
  150.7272  134.5506  159.5802 H   0  0  0  0  0  0  0  0  0  0  0  0  # atno 6908 bound_to 6896
  152.2954  134.7674  160.0420 H   0  0  0  0  0  0  0  0  0  0  0  0  # atno 6909 bound_to 6896
  145.7941  140.8692  143.0265 H   0  0  0  0  0  0  0  0  0  0  0  0  # atno 7974 bound_to 7965
  156.2767  140.2761  156.1635 H   0  0  0  0  0  0  0  0  0  0  0  0  # atno 8008 bound_to 7997
  155.0728  140.0387  157.2632 H   0  0  0  0  0  0  0  0  0  0  0  0  # atno 8009 bound_to 7997
  154.7026  140.2652  155.6710 H   0  0  0  0  0  0  0  0  0  0  0  0  # atno 8010 bound_to 7997
  140.6656  143.2672  151.4305 H   0  0  0  0  0  0  0  0  0  0  0  0  # atno 10167 bound_to 10162
  157.4116  131.1028  151.0447 H   0  0  0  0  0  0  0  0  0  0  0  0  # atno 10718 bound_to 10713
  154.1511  135.6490  153.4964 H   0  0  0  0  0  0  0  0  0  0  0  0  # atno 10763 bound_to 10752
  153.0137  135.5338  154.6807 H   0  0  0  0  0  0  0  0  0  0  0  0  # atno 10764 bound_to 10752
  154.6095  135.2952  155.0419 H   0  0  0  0  0  0  0  0  0  0  0  0  # atno 10765 bound_to 10752
  140.4519  134.6336  157.4805 H   0  0  0  0  0  0  0  0  0  0  0  0  # atno 11005 bound_to 11000
  144.6777  140.0166  143.7484 LP  0  0  0  0  0  0  0  0  0  0  0  0  # atno 17320 bound_to 7965
  145.9946  139.3042  143.0964 LP  0  0  0  0  0  0  0  0  0  0  0  0  # atno 17321 bound_to 7965
  139.5903  144.1513  152.2080 LP  0  0  0  0  0  0  0  0  0  0  0  0  # atno 17342 bound_to 10162
  140.0866  144.5656  150.7084 LP  0  0  0  0  0  0  0  0  0  0  0  0  # atno 17343 bound_to 10162
  157.1410  130.6143  149.5555 LP  0  0  0  0  0  0  0  0  0  0  0  0  # atno 17370 bound_to 10713
  155.9852  130.4881  150.7022 LP  0  0  0  0  0  0  0  0  0  0  0  0  # atno 17371 bound_to 10713
  140.0001  134.6849  155.9544 LP  0  0  0  0  0  0  0  0  0  0  0  0  # atno 17394 bound_to 11000
  141.1660  133.6537  156.4483 LP  0  0  0  0  0  0  0  0  0  0  0  0  # atno 17395 bound_to 11000

$$$$
