AV-unprocessed.smi:623|AV-procd|sdf|3093|dock10
  -GOLD-   22720 0 13D 1   1.00000     0.00000
 Structure written by MMmdl.
 45 47  0  0  0  0  0  0  0  0  1 V2000
  152.9930  142.3363  159.3619 C   0  0  0  0  0  0  0  0  0  0  0  0
  152.4041  143.7416  159.6738 C   0  0  0  0  0  0  0  0  0  0  0  0
  152.8458  144.0516  161.1322 C   0  0  0  0  0  0  0  0  0  0  0  0
  152.7850  144.8304  158.6504 C   0  0  2  0  0  0  0  0  0  0  0  0
  151.9953  146.0698  159.1295 C   0  0  0  0  0  0  0  0  0  0  0  0
  150.6856  145.4487  159.6580 C   0  0  0  0  0  0  0  0  0  0  0  0
  150.8887  143.9359  159.3832 C   0  0  2  0  0  0  0  0  0  0  0  0
  149.9268  143.0530  160.2027 C   0  0  0  0  0  0  0  0  0  0  0  0
  150.7650  143.7927  157.8343 C   0  0  2  0  0  0  0  0  0  0  0  0
  150.5434  142.4153  157.4035 N   0  0  0  0  0  0  0  0  0  0  0  0
  150.4616  141.9575  156.1439 C   0  0  0  0  0  0  0  0  0  0  0  0
  150.6132  142.6737  155.1554 O   0  0  0  0  0  0  0  0  0  0  0  0
  150.1362  140.4660  155.9517 C   0  0  0  0  0  0  0  0  0  0  0  0
  149.1782  140.1944  154.8660 N   0  0  0  0  0  0  0  0  0  0  0  0
  148.1207  141.0648  154.6410 C   0  0  0  0  0  0  0  0  0  0  0  0
  147.1732  140.8588  153.6963 C   0  0  0  0  0  0  0  0  0  0  0  0
  147.2235  139.6744  152.8463 C   0  0  0  0  0  0  0  0  0  0  0  0
  146.4116  139.3982  151.9663 O   0  0  0  0  0  0  0  0  0  0  0  0
  148.3020  138.8237  153.1023 N   0  0  0  0  0  0  0  0  0  0  0  0
  149.2816  139.0294  154.0748 C   0  0  0  0  0  0  0  0  0  0  0  0
  150.1826  138.2061  154.2279 O   0  0  0  0  0  0  0  0  0  0  0  0
  152.1159  144.3555  157.3399 C   0  0  0  0  0  0  0  0  0  0  0  0
  148.3774  137.9889  152.5393 H   0  0  0  0  0  0  0  0  0  0  0  0
  154.0677  142.3220  159.5459 H   0  0  0  0  0  0  0  0  0  0  0  0
  152.8662  141.9930  158.3393 H   0  0  0  0  0  0  0  0  0  0  0  0
  152.5500  141.5763  160.0060 H   0  0  0  0  0  0  0  0  0  0  0  0
  152.5130  145.0097  161.5245 H   0  0  0  0  0  0  0  0  0  0  0  0
  153.9334  144.0500  161.2123 H   0  0  0  0  0  0  0  0  0  0  0  0
  152.4740  143.2901  161.8183 H   0  0  0  0  0  0  0  0  0  0  0  0
  153.8550  145.0123  158.5474 H   0  0  0  0  0  0  0  0  0  0  0  0
  152.5259  146.6056  159.9167 H   0  0  0  0  0  0  0  0  0  0  0  0
  151.8156  146.7824  158.3236 H   0  0  0  0  0  0  0  0  0  0  0  0
  150.5542  145.6562  160.7202 H   0  0  0  0  0  0  0  0  0  0  0  0
  149.8070  145.8553  159.1554 H   0  0  0  0  0  0  0  0  0  0  0  0
  148.8914  143.2380  159.9163 H   0  0  0  0  0  0  0  0  0  0  0  0
  150.0146  143.2565  161.2700 H   0  0  0  0  0  0  0  0  0  0  0  0
  150.1254  141.9911  160.0566 H   0  0  0  0  0  0  0  0  0  0  0  0
  149.9531  144.4168  157.4573 H   0  0  0  0  0  0  0  0  0  0  0  0
  150.4069  141.7408  158.1423 H   0  0  0  0  0  0  0  0  0  0  0  0
  151.0703  139.9383  155.7531 H   0  0  0  0  0  0  0  0  0  0  0  0
  149.7781  140.0609  156.8998 H   0  0  0  0  0  0  0  0  0  0  0  0
  148.0396  141.9508  155.2548 H   0  0  0  0  0  0  0  0  0  0  0  0
  146.3715  141.5722  153.5711 H   0  0  0  0  0  0  0  0  0  0  0  0
  151.9795  145.1706  156.6281 H   0  0  0  0  0  0  0  0  0  0  0  0
  152.7198  143.6010  156.8352 H   0  0  0  0  0  0  0  0  0  0  0  0
  1  2  1  0  0  0  0
  1 24  1  0  0  0  0
  1 25  1  0  0  0  0
  1 26  1  0  0  0  0
  2  7  1  0  0  0  0
  2  3  1  0  0  0  0
  2  4  1  0  0  0  0
  3 27  1  0  0  0  0
  3 28  1  0  0  0  0
  3 29  1  0  0  0  0
  4 22  1  0  0  0  0
  4  5  1  0  0  0  0
  4 30  1  0  0  0  0
  5  6  1  0  0  0  0
  5 31  1  0  0  0  0
  5 32  1  0  0  0  0
  6  7  1  0  0  0  0
  6 33  1  0  0  0  0
  6 34  1  0  0  0  0
  7  8  1  0  0  0  0
  7  9  1  0  0  0  0
  8 35  1  0  0  0  0
  8 36  1  0  0  0  0
  8 37  1  0  0  0  0
  9 10  1  0  0  0  0
  9 22  1  0  0  0  0
  9 38  1  0  0  0  0
 10 11  1  0  0  0  0
 10 39  1  0  0  0  0
 11 12  2  0  0  0  0
 11 13  1  0  0  0  0
 13 14  1  0  0  0  0
 13 40  1  0  0  0  0
 13 41  1  0  0  0  0
 14 20  1  0  0  0  0
 14 15  1  0  0  0  0
 15 16  2  0  0  0  0
 15 42  1  0  0  0  0
 16 17  1  0  0  0  0
 16 43  1  0  0  0  0
 17 18  2  0  0  0  0
 17 19  1  0  0  0  0
 19 23  1  0  0  0  0
 19 20  1  0  0  0  0
 20 21  2  0  0  0  0
 22 44  1  0  0  0  0
 22 45  1  0  0  0  0
M  END
> <s_m_source_file>
AV-unprocessed.smi

> <i_m_source_file_index>
623

> <i_lp_mmshare_version>
43012

> <i_f3d_flags>
0

> <s_epik_input>
W0NIM11bQ0BdMTJDKFtDSDNdKShbQ0gzXSlbQ0BIXShbQ0gyXVtDSDJdMSlbQ0gyXVtDQEBIXTJbTkhdQyg9TylbQ0gyXW4zW2NIXVtjSF1jKD1PKVtuSF1jMz1P

> <s_epik_cmdline>
J2VwaWtfcHl0aG9uJywgJy1waCcsICc3LjAnLCAnLXRuJywgJzgnLCAnLW1hJywgJzIwMCcsICctbWV0YWxfYmluZGluZycsICctaW1hZScsICc8aW5maWxlLm1hZT4nLCAnLW9tYWUnLCAnPG91dGZpbGUubWFlPic=

> <r_lp_tautomer_probability>
0.999537

> <r_epik_Ionization_Penalty>
0.00303563

> <r_epik_Ionization_Penalty_Charging>
0.00303561

> <r_epik_Ionization_Penalty_Neutral>
2.03238e-08

> <r_epik_State_Penalty>
0.00213308

> <r_epik_Charging_Adjusted_Penalty>
0.00516869

> <i_epik_Tot_Q>
0

> <i_epik_Tot_abs_Q>
0

> <r_epik_Metal_State_Penalty>
0.361714

> <b_epik_Metal_Only>
0

> <s_lp_Force_Field>
OPLS_2005

> <r_lp_Energy>
55.1954

> <b_lp_Chiralities_Consistent>
1

> <s_lp_Variant>
AV-unprocessed.smi:623-3

> <Gold.Version>
5.8.1

> <Gold.Id.Protein>
6NUR|6NUR_protein|mol2

> <Gold.PLP.Fitness>
34.7915

> <Gold.PLP.PLP>
-31.6381

> <Gold.PLP.part.hbond>
-3.0000

> <Gold.PLP.part.metal>
0.0000

> <Gold.PLP.part.buried>
7.2204

> <Gold.PLP.part.nonpolar>
-37.8636

> <Gold.PLP.part.repulsive>
1.7246

> <Gold.PLP.ligand.clash>
0.0000

> <Gold.PLP.ligand.torsion>
0.6066

> <Gold.PLP.Chemscore.Hbond>
1.0000

> <Gold.PLP.Chemscore.CHOScore>
0.4504

> <Gold.PLP.Chemscore.Metal>
0.0000

> <Gold.Chemscore.Hbonds>
donor molecule, donor type, donor heavy atom, donor atom, acceptor molecule, acceptor atom, score
      L1  H    19    23       P1  7948  1.00
      L1  C    15    42       P1  8028  0.06

> <Gold.PLP.Chemscore.Internal.Correction>
0.0155

> <Gold.Rescore>
     Score         DG    S(hbond)    S(metal)    S(lipo)     H(rot)  DE(clash)    DE(int)     intcor
     14.56     -18.59       0.97        0.00     120.83       1.66       3.56       0.47       ----

> <Gold.Chemscore.Fitness>
14.5585

> <Gold.Chemscore.DG>
-18.5861

> <Gold.Chemscore.ZeroCoef>
-5.4800

> <Gold.Chemscore.Hbond>
0.9674

> <Gold.Chemscore.Metal>
0.0000

> <Gold.Chemscore.Lipo>
120.8276

> <Gold.Chemscore.Internal_Hbond>
0.0000

> <Gold.Chemscore.DEClash>
3.5619

> <Gold.Chemscore.DEInternal>
0.4656

> <Gold.Chemscore.Rot>
1.6647

> <Gold.Chemscore.Internal.Correction>
   9.000000E+99

> <Gold.Chemscore.Hbonds>
donor molecule, donor type, donor heavy atom, donor atom, acceptor molecule, acceptor atom, score
      L1  H    19    23       P1  7948  0.99

> <Gold.Chemscore.Hbond.Weighted>
-3.2310

> <Gold.Chemscore.Metal.Weighted>
-0.0000

> <Gold.Chemscore.Lipo.Weighted>
-14.1368

> <Gold.Chemscore.Internal_Hbond.Weighted>
0.0000

> <Gold.Chemscore.DEClash.Weighted>
3.5619

> <Gold.Chemscore.DEInternal.Weighted>
0.4656

> <Gold.Chemscore.Rot.Weighted>
4.2617

> <Gold.Chemscore.Internal.Correction.Weighted>
   9.000000E+99

> <Gold.Protein.RotatedTorsions>
[ 6907 6896 6895 6894 ] final -150.37 input  -60.11 | X-H torsion
[ 7974 7965 7964 7962 ] final  147.13 input  175.53 | X-H torsion
[ 8008 7997 7996 7995 ] final  -98.63 input   59.86 | X-H torsion
[ 10167 10162 10161 10158 ] final  -18.62 input  -65.29 | X-H torsion
[ 10718 10713 10712 10709 ] final   11.54 input   66.30 | X-H torsion
[ 10763 10752 10751 10750 ] final  -11.95 input  -60.55 | X-H torsion
[ 11005 11000 10999 10996 ] final  -82.94 input  -57.11 | X-H torsion

> <Gold.Protein.ActiveResidues>
 VAL166  LYS551  ARG553  GLY616  TRP617  ASP618  TYR619  PRO620  LYS621  CYS622 
 ASP623  PHE694  ASN695  SER759  ASP760  ASP761  ALA762  ILE779  LEU786  VAL792 
 PHE793  MET794  SER795  GLU796  ALA797  LYS798  CYS799  TRP800  GLU811  SER814 

> <Gold.Protein.RotatedAtoms>
  151.1975  133.4630  159.2595 H   0  0  0  0  0  0  0  0  0  0  0  0  # atno 6907 bound_to 6896
  151.1102  135.0022  159.8500 H   0  0  0  0  0  0  0  0  0  0  0  0  # atno 6908 bound_to 6896
  152.5450  134.1895  159.8721 H   0  0  0  0  0  0  0  0  0  0  0  0  # atno 6909 bound_to 6896
  144.8616  139.5990  143.5928 H   0  0  0  0  0  0  0  0  0  0  0  0  # atno 7974 bound_to 7965
  154.8038  140.0454  157.1292 H   0  0  0  0  0  0  0  0  0  0  0  0  # atno 8008 bound_to 7997
  154.9448  140.3057  155.5083 H   0  0  0  0  0  0  0  0  0  0  0  0  # atno 8009 bound_to 7997
  156.2964  140.2299  156.4520 H   0  0  0  0  0  0  0  0  0  0  0  0  # atno 8010 bound_to 7997
  140.7260  143.4899  151.0006 H   0  0  0  0  0  0  0  0  0  0  0  0  # atno 10167 bound_to 10162
  156.9971  130.6065  149.5692 H   0  0  0  0  0  0  0  0  0  0  0  0  # atno 10718 bound_to 10713
  153.4913  135.7017  153.5882 H   0  0  0  0  0  0  0  0  0  0  0  0  # atno 10763 bound_to 10752
  153.4054  135.3862  155.2015 H   0  0  0  0  0  0  0  0  0  0  0  0  # atno 10764 bound_to 10752
  154.8716  135.3891  154.4374 H   0  0  0  0  0  0  0  0  0  0  0  0  # atno 10765 bound_to 10752
  141.1660  133.7269  156.8647 H   0  0  0  0  0  0  0  0  0  0  0  0  # atno 11005 bound_to 11000
  146.2865  139.7018  142.9192 LP  0  0  0  0  0  0  0  0  0  0  0  0  # atno 17320 bound_to 7965
  145.4301  141.0414  143.2915 LP  0  0  0  0  0  0  0  0  0  0  0  0  # atno 17321 bound_to 7965
  139.8602  143.7324  152.3174 LP  0  0  0  0  0  0  0  0  0  0  0  0  # atno 17342 bound_to 10162
  139.7537  144.7527  151.0468 LP  0  0  0  0  0  0  0  0  0  0  0  0  # atno 17343 bound_to 10162
  156.0185  130.5280  150.8206 LP  0  0  0  0  0  0  0  0  0  0  0  0  # atno 17370 bound_to 10713
  157.5417  131.0941  150.9818 LP  0  0  0  0  0  0  0  0  0  0  0  0  # atno 17371 bound_to 10713
  140.1824  134.9024  157.2964 LP  0  0  0  0  0  0  0  0  0  0  0  0  # atno 17394 bound_to 11000
  140.2380  134.3829  155.7492 LP  0  0  0  0  0  0  0  0  0  0  0  0  # atno 17395 bound_to 11000

$$$$
