AV-unprocessed.smi:1987|AV-procd|sdf|8055|dock10
  -GOLD-   2272010263D 1   1.00000     0.00000
 Structure written by MMmdl.
 37 39  0  0  0  0  0  0  0  0  2 V2000
  148.9293  135.2544  156.2997 O   0  0  0  0  0  0  0  0  0  0  0  0
  149.2167  135.7444  155.2082 C   0  0  0  0  0  0  0  0  0  0  0  0
  150.6600  136.1423  154.9025 C   0  0  0  0  0  0  0  0  0  0  0  0
  150.7910  137.5871  154.8811 N   0  0  0  0  0  0  0  0  0  0  0  0
  150.3006  138.4996  154.0394 C   0  0  0  0  0  0  0  0  0  0  0  0
  150.6928  139.7226  154.3625 N   0  0  0  0  0  0  0  0  0  0  0  0
  151.4757  139.5161  155.4863 N   0  0  0  0  0  0  0  0  0  0  0  0
  151.5387  138.2510  155.7984 N   0  0  0  0  0  0  0  0  0  0  0  0
  148.3146  135.9911  154.2459 N   0  0  0  0  0  0  0  0  0  0  0  0
  146.8739  135.8139  154.3810 C   0  0  0  0  0  0  0  0  0  0  0  0
  146.3292  134.7946  153.3612 C   0  0  1  0  0  0  0  0  0  0  0  0
  146.7032  133.3400  153.6417 C   0  0  0  0  0  0  0  0  0  0  0  0
  145.6752  132.5715  152.8162 C   0  0  0  0  0  0  0  0  0  0  0  0
  144.4305  133.3676  152.8908 N   0  3  2  0  0  0  0  0  0  0  0  0
  143.5927  133.2811  151.6756 C   0  0  0  0  0  0  0  0  0  0  0  0
  143.7859  132.0001  150.8997 C   0  0  0  0  0  0  0  0  0  0  0  0
  144.3872  133.2926  150.3915 C   0  0  0  0  0  0  0  0  0  0  0  0
  144.7981  134.7516  153.2744 C   0  0  0  0  0  0  0  0  0  0  0  0
  151.3312  135.7389  155.6619 H   0  0  0  0  0  0  0  0  0  0  0  0
  150.9723  135.7324  153.9406 H   0  0  0  0  0  0  0  0  0  0  0  0
  149.6718  138.2688  153.1922 H   0  0  0  0  0  0  0  0  0  0  0  0
  148.6461  136.3879  153.3780 H   0  0  0  0  0  0  0  0  0  0  0  0
  146.6720  135.4736  155.3970 H   0  0  0  0  0  0  0  0  0  0  0  0
  146.3671  136.7739  154.2689 H   0  0  0  0  0  0  0  0  0  0  0  0
  146.7078  135.0480  152.3693 H   0  0  0  0  0  0  0  0  0  0  0  0
  147.7302  133.1022  153.3614 H   0  0  0  0  0  0  0  0  0  0  0  0
  146.5789  133.1120  154.7014 H   0  0  0  0  0  0  0  0  0  0  0  0
  146.0161  132.5114  151.7810 H   0  0  0  0  0  0  0  0  0  0  0  0
  145.5222  131.5543  153.1773 H   0  0  0  0  0  0  0  0  0  0  0  0
  142.6135  133.7545  151.7255 H   0  0  0  0  0  0  0  0  0  0  0  0
  144.4670  131.2520  151.3017 H   0  0  0  0  0  0  0  0  0  0  0  0
  142.9269  131.6048  150.3614 H   0  0  0  0  0  0  0  0  0  0  0  0
  143.9238  133.7482  149.5186 H   0  0  0  0  0  0  0  0  0  0  0  0
  145.4682  133.4036  150.4549 H   0  0  0  0  0  0  0  0  0  0  0  0
  144.3475  134.9577  154.2460 H   0  0  0  0  0  0  0  0  0  0  0  0
  144.4183  135.4970  152.5740 H   0  0  0  0  0  0  0  0  0  0  0  0
  143.8891  132.9948  153.6577 H   0  0  0  0  0  0  0  0  0  0  0  0
  1  2  2  0  0  0  0
  2  3  1  0  0  0  0
  2  9  1  0  0  0  0
  3  4  1  0  0  0  0
  3 19  1  0  0  0  0
  3 20  1  0  0  0  0
  4  8  1  0  0  0  0
  4  5  1  0  0  0  0
  5  6  2  0  0  0  0
  5 21  1  0  0  0  0
  6  7  1  0  0  0  0
  7  8  2  0  0  0  0
  9 10  1  0  0  0  0
  9 22  1  0  0  0  0
 10 11  1  0  0  0  0
 10 23  1  0  0  0  0
 10 24  1  0  0  0  0
 11 18  1  0  0  0  0
 11 12  1  0  0  0  0
 11 25  1  0  0  0  0
 12 13  1  0  0  0  0
 12 26  1  0  0  0  0
 12 27  1  0  0  0  0
 13 14  1  0  0  0  0
 13 28  1  0  0  0  0
 13 29  1  0  0  0  0
 14 15  1  0  0  0  0
 14 18  1  0  0  0  0
 14 37  1  0  0  0  0
 15 17  1  0  0  0  0
 15 16  1  0  0  0  0
 15 30  1  0  0  0  0
 16 17  1  0  0  0  0
 16 31  1  0  0  0  0
 16 32  1  0  0  0  0
 17 33  1  0  0  0  0
 17 34  1  0  0  0  0
 18 35  1  0  0  0  0
 18 36  1  0  0  0  0
M  CHG  1  14   1
M  END
> <s_m_source_file>
AV-unprocessed.smi

> <i_m_source_file_index>
1987

> <i_lp_mmshare_version>
43012

> <i_f3d_flags>
0

> <s_epik_input>
bjFubltjSF1uMVtDSDJdQyg9TylbTkhdW0NIMl1bQ0BASF0yW0NIMl1bQ0gyXU4oW0NIMl0yKVtDSF0zW0NIMl1bQ0gyXTM=

> <s_epik_cmdline>
J2VwaWtfcHl0aG9uJywgJy1waCcsICc3LjAnLCAnLXRuJywgJzgnLCAnLW1hJywgJzIwMCcsICctbWV0YWxfYmluZGluZycsICctaW1hZScsICc8aW5maWxlLm1hZT4nLCAnLW9tYWUnLCAnPG91dGZpbGUubWFlPic=

> <r_lp_tautomer_probability>
1

> <r_epik_Ionization_Penalty>
0.000242849

> <r_epik_Ionization_Penalty_Charging>
0.000241326

> <r_epik_Ionization_Penalty_Neutral>
1.52322e-06

> <r_epik_State_Penalty>
-0

> <r_epik_Charging_Adjusted_Penalty>
0.000241326

> <i_epik_Tot_Q>
1

> <i_epik_Tot_abs_Q>
1

> <r_epik_Metal_State_Penalty>
-0

> <b_epik_Metal_Only>
0

> <s_lp_Force_Field>
OPLS_2005

> <r_lp_Energy>
38.094

> <b_lp_Chiralities_Consistent>
1

> <s_lp_Variant>
AV-unprocessed.smi:1987-2

> <Gold.Version>
5.8.1

> <Gold.Id.Protein>
6NUR|6NUR_protein|mol2

> <Gold.PLP.Fitness>
40.3148

> <Gold.PLP.PLP>
-24.5535

> <Gold.PLP.part.hbond>
-2.8181

> <Gold.PLP.part.metal>
0.0000

> <Gold.PLP.part.buried>
-5.6886

> <Gold.PLP.part.nonpolar>
-17.4120

> <Gold.PLP.part.repulsive>
0.1608

> <Gold.PLP.ligand.clash>
0.0000

> <Gold.PLP.ligand.torsion>
0.8432

> <Gold.PLP.Chemscore.Hbond>
3.9420

> <Gold.PLP.Chemscore.CHOScore>
1.4499

> <Gold.PLP.Chemscore.Metal>
0.0000

> <Gold.Chemscore.Hbonds>
donor molecule, donor type, donor heavy atom, donor atom, acceptor molecule, acceptor atom, score
      L1  H     9    22       P1  7948  0.99
      L1  H    14    37       P1 10957  1.85
      P1  H  7989  7998       L1     6  1.00
      L1  C     5    21       P1  7948  1.00
      L1  C     5    21       P1  7957  0.48

> <Gold.PLP.Chemscore.Internal.Correction>
1.2719

> <Gold.Rescore>
     Score         DG    S(hbond)    S(metal)    S(lipo)     H(rot)  DE(clash)    DE(int)     intcor
     12.30     -13.22       2.84        0.00      42.50       2.62       0.04       0.89       ----

> <Gold.Chemscore.Fitness>
12.2980

> <Gold.Chemscore.DG>
-13.2189

> <Gold.Chemscore.ZeroCoef>
-5.4800

> <Gold.Chemscore.Hbond>
2.8399

> <Gold.Chemscore.Metal>
0.0000

> <Gold.Chemscore.Lipo>
42.4957

> <Gold.Chemscore.Internal_Hbond>
0.0000

> <Gold.Chemscore.DEClash>
0.0354

> <Gold.Chemscore.DEInternal>
0.8855

> <Gold.Chemscore.Rot>
2.6244

> <Gold.Chemscore.Internal.Correction>
   9.000000E+99

> <Gold.Chemscore.Hbonds>
donor molecule, donor type, donor heavy atom, donor atom, acceptor molecule, acceptor atom, score
      L1  H     9    22       P1  7948  0.90
      L1  H    14    37       P1 10957  0.80
      P1  H  7989  7998       L1     6  0.35

> <Gold.Chemscore.Hbond.Weighted>
-9.4854

> <Gold.Chemscore.Metal.Weighted>
-0.0000

> <Gold.Chemscore.Lipo.Weighted>
-4.9720

> <Gold.Chemscore.Internal_Hbond.Weighted>
0.0000

> <Gold.Chemscore.DEClash.Weighted>
0.0354

> <Gold.Chemscore.DEInternal.Weighted>
0.8855

> <Gold.Chemscore.Rot.Weighted>
6.7186

> <Gold.Chemscore.Internal.Correction.Weighted>
   9.000000E+99

> <Gold.Protein.RotatedTorsions>
[ 6907 6896 6895 6894 ] final  -78.29 input  -60.11 | X-H torsion
[ 7974 7965 7964 7962 ] final  -65.40 input  175.53 | X-H torsion
[ 8008 7997 7996 7995 ] final  176.05 input   59.86 | X-H torsion
[ 10167 10162 10161 10158 ] final    8.72 input  -65.29 | X-H torsion
[ 10718 10713 10712 10709 ] final  160.03 input   66.30 | X-H torsion
[ 10763 10752 10751 10750 ] final  -92.00 input  -60.55 | X-H torsion
[ 11005 11000 10999 10996 ] final -163.57 input  -57.11 | X-H torsion

> <Gold.Protein.ActiveResidues>
 VAL166  LYS551  ARG553  GLY616  TRP617  ASP618  TYR619  PRO620  LYS621  CYS622 
 ASP623  PHE694  ASN695  SER759  ASP760  ASP761  ALA762  ILE779  LEU786  VAL792 
 PHE793  MET794  SER795  GLU796  ALA797  LYS798  CYS799  TRP800  GLU811  SER814 

> <Gold.Protein.RotatedAtoms>
  150.6976  134.4294  159.5240 H   0  0  0  0  0  0  0  0  0  0  0  0  # atno 6907 bound_to 6896
  152.2023  134.8574  160.0515 H   0  0  0  0  0  0  0  0  0  0  0  0  # atno 6908 bound_to 6896
  151.9490  133.3625  159.4029 H   0  0  0  0  0  0  0  0  0  0  0  0  # atno 6909 bound_to 6896
  145.7548  140.8891  143.0461 H   0  0  0  0  0  0  0  0  0  0  0  0  # atno 7974 bound_to 7965
  156.0806  140.1393  156.9717 H   0  0  0  0  0  0  0  0  0  0  0  0  # atno 8008 bound_to 7997
  154.4583  140.0953  156.6870 H   0  0  0  0  0  0  0  0  0  0  0  0  # atno 8009 bound_to 7997
  155.5081  140.3453  155.4385 H   0  0  0  0  0  0  0  0  0  0  0  0  # atno 8010 bound_to 7997
  140.6298  143.8020  150.7280 H   0  0  0  0  0  0  0  0  0  0  0  0  # atno 10167 bound_to 10162
  157.1560  131.0575  151.2256 H   0  0  0  0  0  0  0  0  0  0  0  0  # atno 10718 bound_to 10713
  154.6817  135.5247  153.8271 H   0  0  0  0  0  0  0  0  0  0  0  0  # atno 10763 bound_to 10752
  153.0569  135.6554  154.0565 H   0  0  0  0  0  0  0  0  0  0  0  0  # atno 10764 bound_to 10752
  154.0452  135.2974  155.3329 H   0  0  0  0  0  0  0  0  0  0  0  0  # atno 10765 bound_to 10752
  140.5966  134.4990  157.5200 H   0  0  0  0  0  0  0  0  0  0  0  0  # atno 11005 bound_to 11000
  144.6842  139.9641  143.7481 LP  0  0  0  0  0  0  0  0  0  0  0  0  # atno 17320 bound_to 7965
  146.0322  139.3345  143.0748 LP  0  0  0  0  0  0  0  0  0  0  0  0  # atno 17321 bound_to 7965
  140.1629  143.4260  152.2055 LP  0  0  0  0  0  0  0  0  0  0  0  0  # atno 17342 bound_to 10162
  139.5513  144.7340  151.4426 LP  0  0  0  0  0  0  0  0  0  0  0  0  # atno 17343 bound_to 10162
  157.4177  130.7420  149.6888 LP  0  0  0  0  0  0  0  0  0  0  0  0  # atno 17370 bound_to 10713
  155.9762  130.4079  150.3796 LP  0  0  0  0  0  0  0  0  0  0  0  0  # atno 17371 bound_to 10713
  139.9250  134.8073  156.1095 LP  0  0  0  0  0  0  0  0  0  0  0  0  # atno 17394 bound_to 11000
  141.0900  133.6718  156.2519 LP  0  0  0  0  0  0  0  0  0  0  0  0  # atno 17395 bound_to 11000

$$$$
