AV-unprocessed.smi:2654|AV-procd|sdf|10297|dock3
  -GOLD-   2272014313D 1   1.00000     0.00000
 Structure written by MMmdl.
 35 37  0  0  0  0  0  0  0  0  1 V2000
  145.6332  138.5672  153.5659 O   0  0  0  0  0  0  0  0  0  0  0  0
  146.5749  138.0115  153.0004 C   0  0  0  0  0  0  0  0  0  0  0  0
  147.8609  138.3963  153.0699 N   0  0  0  0  0  0  0  0  0  0  0  0
  148.4266  139.4857  153.7865 C   0  0  0  0  0  0  0  0  0  0  0  0
  147.7478  140.6899  154.0840 C   0  0  0  0  0  0  0  0  0  0  0  0
  148.4213  141.6881  154.8143 C   0  0  0  0  0  0  0  0  0  0  0  0
  149.7492  141.4659  155.2399 C   0  0  0  0  0  0  0  0  0  0  0  0
  150.3378  142.5385  155.9616 N   0  0  0  0  0  0  0  0  0  0  0  0
  151.2167  142.4779  156.9796 C   0  0  0  0  0  0  0  0  0  0  0  0
  151.6445  141.4307  157.4678 O   0  0  0  0  0  0  0  0  0  0  0  0
  151.6341  143.8230  157.4796 C   0  0  0  0  0  0  0  0  0  0  0  0
  152.6909  143.8724  158.5648 C   0  0  0  0  0  0  0  0  0  0  0  0
  151.2563  144.1955  158.8990 C   0  0  0  0  0  0  0  0  0  0  0  0
  150.3890  140.3035  154.9638 N   0  0  0  0  0  0  0  0  0  0  0  0
  149.7443  139.3472  154.2642 C   0  0  0  0  0  0  0  0  0  0  0  0
  146.4362  136.9376  152.2112 N   0  0  0  0  0  0  0  0  0  0  0  0
  145.2036  136.2845  151.9093 C   0  0  0  0  0  0  0  0  0  0  0  0
  145.0866  134.8130  152.2442 C   0  0  0  0  0  0  0  0  0  0  0  0
  145.2114  135.2451  150.8092 C   0  0  0  0  0  0  0  0  0  0  0  0
  148.5083  137.8798  152.4925 H   0  0  0  0  0  0  0  0  0  0  0  0
  146.7277  140.8667  153.7817 H   0  0  0  0  0  0  0  0  0  0  0  0
  147.9154  142.6143  155.0456 H   0  0  0  0  0  0  0  0  0  0  0  0
  150.0607  143.4635  155.6672 H   0  0  0  0  0  0  0  0  0  0  0  0
  151.6460  144.6317  156.7502 H   0  0  0  0  0  0  0  0  0  0  0  0
  153.0933  142.9343  158.9434 H   0  0  0  0  0  0  0  0  0  0  0  0
  153.4032  144.6937  158.5232 H   0  0  0  0  0  0  0  0  0  0  0  0
  150.9973  145.2358  159.0840 H   0  0  0  0  0  0  0  0  0  0  0  0
  150.7076  143.4718  159.4994 H   0  0  0  0  0  0  0  0  0  0  0  0
  150.3041  138.4425  154.0758 H   0  0  0  0  0  0  0  0  0  0  0  0
  147.2669  136.5530  151.7855 H   0  0  0  0  0  0  0  0  0  0  0  0
  144.2904  136.8704  152.0050 H   0  0  0  0  0  0  0  0  0  0  0  0
  145.9463  134.3232  152.6976 H   0  0  0  0  0  0  0  0  0  0  0  0
  144.1160  134.4510  152.5773 H   0  0  0  0  0  0  0  0  0  0  0  0
  144.3241  135.1707  150.1836 H   0  0  0  0  0  0  0  0  0  0  0  0
  146.1545  135.0435  150.3045 H   0  0  0  0  0  0  0  0  0  0  0  0
  1  2  2  0  0  0  0
  2  3  1  0  0  0  0
  2 16  1  0  0  0  0
  3  4  1  0  0  0  0
  3 20  1  0  0  0  0
  4 15  1  0  0  0  0
  4  5  2  0  0  0  0
  5  6  1  0  0  0  0
  5 21  1  0  0  0  0
  6  7  2  0  0  0  0
  6 22  1  0  0  0  0
  7  8  1  0  0  0  0
  7 14  1  0  0  0  0
  8  9  1  0  0  0  0
  8 23  1  0  0  0  0
  9 10  2  0  0  0  0
  9 11  1  0  0  0  0
 11 13  1  0  0  0  0
 11 12  1  0  0  0  0
 11 24  1  0  0  0  0
 12 13  1  0  0  0  0
 12 25  1  0  0  0  0
 12 26  1  0  0  0  0
 13 27  1  0  0  0  0
 13 28  1  0  0  0  0
 14 15  2  0  0  0  0
 15 29  1  0  0  0  0
 16 17  1  0  0  0  0
 16 30  1  0  0  0  0
 17 19  1  0  0  0  0
 17 18  1  0  0  0  0
 17 31  1  0  0  0  0
 18 19  1  0  0  0  0
 18 32  1  0  0  0  0
 18 33  1  0  0  0  0
 19 34  1  0  0  0  0
 19 35  1  0  0  0  0
M  END
> <s_m_source_file>
AV-unprocessed.smi

> <i_m_source_file_index>
2654

> <i_lp_mmshare_version>
43012

> <i_f3d_flags>
0

> <s_epik_input>
W0NIMl0xW0NIMl1bQ0hdMVtOSF1DKD1PKVtOSF1jMltjSF1bY0hdYyhuW2NIXTIpW05IXUMoPU8pW0NIXTNbQ0gyXVtDSDJdMw==

> <s_epik_cmdline>
J2VwaWtfcHl0aG9uJywgJy1waCcsICc3LjAnLCAnLXRuJywgJzgnLCAnLW1hJywgJzIwMCcsICctbWV0YWxfYmluZGluZycsICctaW1hZScsICc8aW5maWxlLm1hZT4nLCAnLW9tYWUnLCAnPG91dGZpbGUubWFlPic=

> <r_lp_tautomer_probability>
1

> <r_epik_Ionization_Penalty>
0.00116413

> <r_epik_Ionization_Penalty_Charging>
0

> <r_epik_Ionization_Penalty_Neutral>
0.00116413

> <r_epik_State_Penalty>
-0

> <r_epik_Charging_Adjusted_Penalty>
0

> <i_epik_Tot_Q>
0

> <i_epik_Tot_abs_Q>
0

> <r_epik_Metal_State_Penalty>
-0

> <b_epik_Metal_Only>
0

> <s_lp_Force_Field>
OPLS_2005

> <r_lp_Energy>
24.5982

> <b_lp_Chiralities_Consistent>
1

> <s_lp_Variant>
AV-unprocessed.smi:2654-1

> <Gold.Version>
5.8.1

> <Gold.Id.Protein>
6NUR|6NUR_protein|mol2

> <Gold.PLP.Fitness>
46.9174

> <Gold.PLP.PLP>
-36.4514

> <Gold.PLP.part.hbond>
-4.9210

> <Gold.PLP.part.metal>
0.0000

> <Gold.PLP.part.buried>
-2.3756

> <Gold.PLP.part.nonpolar>
-31.5452

> <Gold.PLP.part.repulsive>
1.7863

> <Gold.PLP.ligand.clash>
0.0000

> <Gold.PLP.ligand.torsion>
0.5195

> <Gold.PLP.Chemscore.Hbond>
3.7940

> <Gold.PLP.Chemscore.CHOScore>
0.0000

> <Gold.PLP.Chemscore.Metal>
0.0000

> <Gold.Chemscore.Hbonds>
donor molecule, donor type, donor heavy atom, donor atom, acceptor molecule, acceptor atom, score
      L1  H     3    20       P1  7948  0.93
      L1  H     8    23       P1  8028  1.00
      L1  H    16    30       P1  7948  1.00
      P1  H  7989  7998       L1    14  0.85

> <Gold.PLP.Chemscore.Internal.Correction>
0.1231

> <Gold.Rescore>
     Score         DG    S(hbond)    S(metal)    S(lipo)     H(rot)  DE(clash)    DE(int)     intcor
     18.74     -21.17       2.97        0.00      75.97       1.22       0.07       2.37       ----

> <Gold.Chemscore.Fitness>
18.7374

> <Gold.Chemscore.DG>
-21.1700

> <Gold.Chemscore.ZeroCoef>
-5.4800

> <Gold.Chemscore.Hbond>
2.9733

> <Gold.Chemscore.Metal>
0.0000

> <Gold.Chemscore.Lipo>
75.9662

> <Gold.Chemscore.Internal_Hbond>
0.0000

> <Gold.Chemscore.DEClash>
0.0658

> <Gold.Chemscore.DEInternal>
2.3668

> <Gold.Chemscore.Rot>
1.2222

> <Gold.Chemscore.Internal.Correction>
   9.000000E+99

> <Gold.Chemscore.Hbonds>
donor molecule, donor type, donor heavy atom, donor atom, acceptor molecule, acceptor atom, score
      L1  H     3    20       P1  7948  0.91
      L1  H     8    23       P1  8028  0.94
      L1  H    16    30       P1  7948  0.95
      P1  H  7989  7998       L1    14  0.04

> <Gold.Chemscore.Hbond.Weighted>
-9.9308

> <Gold.Chemscore.Metal.Weighted>
-0.0000

> <Gold.Chemscore.Lipo.Weighted>
-8.8880

> <Gold.Chemscore.Internal_Hbond.Weighted>
0.0000

> <Gold.Chemscore.DEClash.Weighted>
0.0658

> <Gold.Chemscore.DEInternal.Weighted>
2.3668

> <Gold.Chemscore.Rot.Weighted>
3.1289

> <Gold.Chemscore.Internal.Correction.Weighted>
   9.000000E+99

> <Gold.Protein.RotatedTorsions>
[ 6907 6896 6895 6894 ] final  -98.03 input  -60.11 | X-H torsion
[ 7974 7965 7964 7962 ] final  -30.02 input  175.53 | X-H torsion
[ 8008 7997 7996 7995 ] final   86.78 input   59.86 | X-H torsion
[ 10167 10162 10161 10158 ] final   -5.81 input  -65.29 | X-H torsion
[ 10718 10713 10712 10709 ] final  122.82 input   66.30 | X-H torsion
[ 10763 10752 10751 10750 ] final   -4.04 input  -60.55 | X-H torsion
[ 11005 11000 10999 10996 ] final   64.37 input  -57.11 | X-H torsion

> <Gold.Protein.ActiveResidues>
 VAL166  LYS551  ARG553  GLY616  TRP617  ASP618  TYR619  PRO620  LYS621  CYS622 
 ASP623  PHE694  ASN695  SER759  ASP760  ASP761  ALA762  ILE779  LEU786  VAL792 
 PHE793  MET794  SER795  GLU796  ALA797  LYS798  CYS799  TRP800  GLU811  SER814 

> <Gold.Protein.RotatedAtoms>
  150.7034  134.1257  159.4051 H   0  0  0  0  0  0  0  0  0  0  0  0  # atno 6907 bound_to 6896
  151.9244  135.0282  160.0534 H   0  0  0  0  0  0  0  0  0  0  0  0  # atno 6908 bound_to 6896
  152.2229  133.4962  159.5209 H   0  0  0  0  0  0  0  0  0  0  0  0  # atno 6909 bound_to 6896
  146.1174  140.5487  142.8751 H   0  0  0  0  0  0  0  0  0  0  0  0  # atno 7974 bound_to 7965
  155.9671  140.3388  155.6542 H   0  0  0  0  0  0  0  0  0  0  0  0  # atno 8008 bound_to 7997
  155.6723  140.0728  157.2534 H   0  0  0  0  0  0  0  0  0  0  0  0  # atno 8009 bound_to 7997
  154.4157  140.1689  156.1880 H   0  0  0  0  0  0  0  0  0  0  0  0  # atno 8010 bound_to 7997
  140.6976  143.6266  150.8562 H   0  0  0  0  0  0  0  0  0  0  0  0  # atno 10167 bound_to 10162
  157.5713  131.1083  150.8362 H   0  0  0  0  0  0  0  0  0  0  0  0  # atno 10718 bound_to 10713
  153.3795  135.6998  153.6576 H   0  0  0  0  0  0  0  0  0  0  0  0  # atno 10763 bound_to 10752
  153.5193  135.3615  155.2624 H   0  0  0  0  0  0  0  0  0  0  0  0  # atno 10764 bound_to 10752
  154.8691  135.4154  154.3090 H   0  0  0  0  0  0  0  0  0  0  0  0  # atno 10765 bound_to 10752
  139.9963  134.6512  156.0004 H   0  0  0  0  0  0  0  0  0  0  0  0  # atno 11005 bound_to 11000
  144.7565  140.5320  143.6765 LP  0  0  0  0  0  0  0  0  0  0  0  0  # atno 17320 bound_to 7965
  145.5538  139.1477  143.3379 LP  0  0  0  0  0  0  0  0  0  0  0  0  # atno 17321 bound_to 7965
  139.9985  143.5770  152.2884 LP  0  0  0  0  0  0  0  0  0  0  0  0  # atno 17342 bound_to 10162
  139.6451  144.7657  151.2261 LP  0  0  0  0  0  0  0  0  0  0  0  0  # atno 17343 bound_to 10162
  156.8833  130.5187  149.5290 LP  0  0  0  0  0  0  0  0  0  0  0  0  # atno 17370 bound_to 10713
  156.0758  130.5781  150.9471 LP  0  0  0  0  0  0  0  0  0  0  0  0  # atno 17371 bound_to 10713
  141.1607  133.6539  156.4309 LP  0  0  0  0  0  0  0  0  0  0  0  0  # atno 17394 bound_to 11000
  140.4812  134.6663  157.5171 LP  0  0  0  0  0  0  0  0  0  0  0  0  # atno 17395 bound_to 11000

$$$$
