AV-unprocessed.smi:1257|AV-procd|sdf|5285|dock2
  -GOLD-   22720 4403D 1   1.00000     0.00000
 Structure written by MMmdl.
 47 48  0  0  0  0  0  0  0  0  1 V2000
  155.0815  140.2524  171.0947 C   0  0  0  0  0  0  0  0  0  0  0  0
  155.2877  141.6258  170.4421 C   0  0  0  0  0  0  0  0  0  0  0  0
  155.8514  141.5054  169.1026 N   0  0  0  0  0  0  0  0  0  0  0  0
  155.2495  141.9097  167.9740 C   0  0  0  0  0  0  0  0  0  0  0  0
  154.1292  142.4220  167.9531 O   0  0  0  0  0  0  0  0  0  0  0  0
  156.0292  141.6740  166.6744 C   0  0  0  0  0  0  0  0  0  0  0  0
  155.2284  141.9307  165.4802 N   0  0  0  0  0  0  0  0  0  0  0  0
  155.2159  141.1632  164.3774 C   0  0  0  0  0  0  0  0  0  0  0  0
  155.8856  140.1369  164.2566 O   0  0  0  0  0  0  0  0  0  0  0  0
  154.3771  141.6726  163.2411 C   0  0  0  0  0  0  0  0  0  0  0  0
  153.5909  142.8351  163.3938 C   0  0  0  0  0  0  0  0  0  0  0  0
  152.8300  143.2961  162.3024 C   0  0  0  0  0  0  0  0  0  0  0  0
  152.8822  142.5811  161.0884 C   0  0  0  0  0  0  0  0  0  0  0  0
  152.1231  143.0335  160.0005 N   0  0  0  0  0  0  0  0  0  0  0  0
  152.4305  144.4048  159.6160 C   0  0  0  0  0  0  0  0  0  0  0  0
  151.4700  144.8915  158.5125 C   0  0  2  0  0  0  0  0  0  0  0  0
  150.0549  145.2115  159.0265 C   0  0  0  0  0  0  0  0  0  0  0  0
  151.4509  143.9577  157.4288 O   0  0  0  0  0  0  0  0  0  0  0  0
  151.1285  142.6159  157.7971 C   0  0  1  0  0  0  0  0  0  0  0  0
  151.1708  141.7509  156.5333 C   0  0  0  0  0  0  0  0  0  0  0  0
  152.1257  142.1256  158.8620 C   0  0  0  0  0  0  0  0  0  0  0  0
  153.6439  141.4731  160.9272 N   0  0  0  0  0  0  0  0  0  0  0  0
  154.3733  141.0387  161.9770 C   0  0  0  0  0  0  0  0  0  0  0  0
  154.6919  140.3605  172.1070 H   0  0  0  0  0  0  0  0  0  0  0  0
  156.0198  139.7005  171.1572 H   0  0  0  0  0  0  0  0  0  0  0  0
  154.3718  139.6463  170.5307 H   0  0  0  0  0  0  0  0  0  0  0  0
  154.3456  142.1756  170.4082 H   0  0  0  0  0  0  0  0  0  0  0  0
  155.9721  142.2208  171.0471 H   0  0  0  0  0  0  0  0  0  0  0  0
  156.7687  141.0895  169.0292 H   0  0  0  0  0  0  0  0  0  0  0  0
  156.9327  142.2867  166.6612 H   0  0  0  0  0  0  0  0  0  0  0  0
  156.3553  140.6341  166.6509 H   0  0  0  0  0  0  0  0  0  0  0  0
  154.6714  142.7727  165.4794 H   0  0  0  0  0  0  0  0  0  0  0  0
  153.5619  143.3691  164.3327 H   0  0  0  0  0  0  0  0  0  0  0  0
  152.2172  144.1806  162.3984 H   0  0  0  0  0  0  0  0  0  0  0  0
  152.3747  145.0607  160.4857 H   0  0  0  0  0  0  0  0  0  0  0  0
  153.4570  144.4508  159.2487 H   0  0  0  0  0  0  0  0  0  0  0  0
  151.8741  145.8196  158.1078 H   0  0  0  0  0  0  0  0  0  0  0  0
  150.0846  146.0147  159.7631 H   0  0  0  0  0  0  0  0  0  0  0  0
  149.5833  144.3530  159.5039 H   0  0  0  0  0  0  0  0  0  0  0  0
  149.4102  145.5374  158.2097 H   0  0  0  0  0  0  0  0  0  0  0  0
  150.1154  142.5785  158.1985 H   0  0  0  0  0  0  0  0  0  0  0  0
  150.9197  140.7141  156.7586 H   0  0  0  0  0  0  0  0  0  0  0  0
  152.1618  141.7644  156.0787 H   0  0  0  0  0  0  0  0  0  0  0  0
  150.4583  142.1112  155.7909 H   0  0  0  0  0  0  0  0  0  0  0  0
  153.1288  142.0719  158.4362 H   0  0  0  0  0  0  0  0  0  0  0  0
  151.8599  141.1204  159.1921 H   0  0  0  0  0  0  0  0  0  0  0  0
  154.9707  140.1580  161.7914 H   0  0  0  0  0  0  0  0  0  0  0  0
  1  2  1  0  0  0  0
  1 24  1  0  0  0  0
  1 25  1  0  0  0  0
  1 26  1  0  0  0  0
  2  3  1  0  0  0  0
  2 27  1  0  0  0  0
  2 28  1  0  0  0  0
  3  4  1  0  0  0  0
  3 29  1  0  0  0  0
  4  5  2  0  0  0  0
  4  6  1  0  0  0  0
  6  7  1  0  0  0  0
  6 30  1  0  0  0  0
  6 31  1  0  0  0  0
  7  8  1  0  0  0  0
  7 32  1  0  0  0  0
  8  9  2  0  0  0  0
  8 10  1  0  0  0  0
 10 23  1  0  0  0  0
 10 11  2  0  0  0  0
 11 12  1  0  0  0  0
 11 33  1  0  0  0  0
 12 13  2  0  0  0  0
 12 34  1  0  0  0  0
 13 14  1  0  0  0  0
 13 22  1  0  0  0  0
 14 21  1  0  0  0  0
 14 15  1  0  0  0  0
 15 16  1  0  0  0  0
 15 35  1  0  0  0  0
 15 36  1  0  0  0  0
 16 17  1  0  0  0  0
 16 18  1  0  0  0  0
 16 37  1  0  0  0  0
 17 38  1  0  0  0  0
 17 39  1  0  0  0  0
 17 40  1  0  0  0  0
 18 19  1  0  0  0  0
 19 20  1  0  0  0  0
 19 21  1  0  0  0  0
 19 41  1  0  0  0  0
 20 42  1  0  0  0  0
 20 43  1  0  0  0  0
 20 44  1  0  0  0  0
 21 45  1  0  0  0  0
 21 46  1  0  0  0  0
 22 23  2  0  0  0  0
 23 47  1  0  0  0  0
M  END
> <s_m_source_file>
AV-unprocessed.smi

> <i_m_source_file_index>
1257

> <i_lp_mmshare_version>
43012

> <i_f3d_flags>
0

> <s_epik_input>
W0NIM11bQ0gyXVtOSF1DKD1PKVtDSDJdW05IXUMoPU8pYzFbY0hdW2NIXWMobltjSF0xKU4yW0NIMl1bQ0BASF0oW0NIM10pT1tDQEBIXShbQ0gzXSlbQ0gyXTI=

> <s_epik_cmdline>
J2VwaWtfcHl0aG9uJywgJy1waCcsICc3LjAnLCAnLXRuJywgJzgnLCAnLW1hJywgJzIwMCcsICctbWV0YWxfYmluZGluZycsICctaW1hZScsICc8aW5maWxlLm1hZT4nLCAnLW9tYWUnLCAnPG91dGZpbGUubWFlPic=

> <r_lp_tautomer_probability>
1

> <r_epik_Ionization_Penalty>
1.15681e-05

> <r_epik_Ionization_Penalty_Charging>
0

> <r_epik_Ionization_Penalty_Neutral>
1.15681e-05

> <r_epik_State_Penalty>
-0

> <r_epik_Charging_Adjusted_Penalty>
0

> <i_epik_Tot_Q>
0

> <i_epik_Tot_abs_Q>
0

> <r_epik_Metal_State_Penalty>
-0

> <b_epik_Metal_Only>
0

> <s_lp_Force_Field>
OPLS_2005

> <r_lp_Energy>
18.6065

> <b_lp_Chiralities_Consistent>
1

> <s_lp_Variant>
AV-unprocessed.smi:1257-2

> <Gold.Version>
5.8.1

> <Gold.Id.Protein>
6NUR|6NUR_protein|mol2

> <Gold.PLP.Fitness>
43.6123

> <Gold.PLP.PLP>
-44.0039

> <Gold.PLP.part.hbond>
-1.0000

> <Gold.PLP.part.metal>
0.0000

> <Gold.PLP.part.buried>
-5.2942

> <Gold.PLP.part.nonpolar>
-37.3177

> <Gold.PLP.part.repulsive>
0.7279

> <Gold.PLP.ligand.clash>
0.0000

> <Gold.PLP.ligand.torsion>
0.2657

> <Gold.PLP.Chemscore.Hbond>
0.0000

> <Gold.PLP.Chemscore.CHOScore>
0.0000

> <Gold.PLP.Chemscore.Metal>
0.0000

> <Gold.PLP.Chemscore.Internal.Correction>
0.1397

> <Gold.Rescore>
     Score         DG    S(hbond)    S(metal)    S(lipo)     H(rot)  DE(clash)    DE(int)     intcor
     13.90     -14.92       0.00        0.00     118.03       1.71       0.58       0.44       ----

> <Gold.Chemscore.Fitness>
13.9005

> <Gold.Chemscore.DG>
-14.9208

> <Gold.Chemscore.ZeroCoef>
-5.4800

> <Gold.Chemscore.Hbond>
0.0000

> <Gold.Chemscore.Metal>
0.0000

> <Gold.Chemscore.Lipo>
118.0323

> <Gold.Chemscore.Internal_Hbond>
0.0000

> <Gold.Chemscore.DEClash>
0.5804

> <Gold.Chemscore.DEInternal>
0.4399

> <Gold.Chemscore.Rot>
1.7066

> <Gold.Chemscore.Internal.Correction>
   9.000000E+99

> <Gold.Chemscore.Hbond.Weighted>
-0.0000

> <Gold.Chemscore.Metal.Weighted>
-0.0000

> <Gold.Chemscore.Lipo.Weighted>
-13.8098

> <Gold.Chemscore.Internal_Hbond.Weighted>
0.0000

> <Gold.Chemscore.DEClash.Weighted>
0.5804

> <Gold.Chemscore.DEInternal.Weighted>
0.4399

> <Gold.Chemscore.Rot.Weighted>
4.3690

> <Gold.Chemscore.Internal.Correction.Weighted>
   9.000000E+99

> <Gold.Protein.RotatedTorsions>
[ 6907 6896 6895 6894 ] final   70.78 input  -60.11 | X-H torsion
[ 7974 7965 7964 7962 ] final  123.85 input  175.53 | X-H torsion
[ 8008 7997 7996 7995 ] final   -5.73 input   59.86 | X-H torsion
[ 10167 10162 10161 10158 ] final  -69.62 input  -65.29 | X-H torsion
[ 10718 10713 10712 10709 ] final  -41.96 input   66.30 | X-H torsion
[ 10763 10752 10751 10750 ] final  -49.10 input  -60.55 | X-H torsion
[ 11005 11000 10999 10996 ] final   60.50 input  -57.11 | X-H torsion

> <Gold.Protein.ActiveResidues>
 VAL166  LYS551  ARG553  GLY616  TRP617  ASP618  TYR619  PRO620  LYS621  CYS622 
 ASP623  PHE694  ASN695  SER759  ASP760  ASP761  ALA762  ILE779  LEU786  VAL792 
 PHE793  MET794  SER795  GLU796  ALA797  LYS798  CYS799  TRP800  GLU811  SER814 

> <Gold.Protein.RotatedAtoms>
  152.4770  134.4818  159.9667 H   0  0  0  0  0  0  0  0  0  0  0  0  # atno 6907 bound_to 6896
  151.4832  133.3535  159.2849 H   0  0  0  0  0  0  0  0  0  0  0  0  # atno 6908 bound_to 6896
  150.8815  134.8234  159.7290 H   0  0  0  0  0  0  0  0  0  0  0  0  # atno 6909 bound_to 6896
  145.0911  139.3586  143.4860 H   0  0  0  0  0  0  0  0  0  0  0  0  # atno 7974 bound_to 7965
  154.6009  140.2451  155.7793 H   0  0  0  0  0  0  0  0  0  0  0  0  # atno 8008 bound_to 7997
  156.2310  140.2966  156.0141 H   0  0  0  0  0  0  0  0  0  0  0  0  # atno 8009 bound_to 7997
  155.2212  140.0400  157.2939 H   0  0  0  0  0  0  0  0  0  0  0  0  # atno 8010 bound_to 7997
  140.5416  143.2315  151.7079 H   0  0  0  0  0  0  0  0  0  0  0  0  # atno 10167 bound_to 10162
  156.2647  130.4200  149.8503 H   0  0  0  0  0  0  0  0  0  0  0  0  # atno 10718 bound_to 10713
  154.0885  135.6581  153.4849 H   0  0  0  0  0  0  0  0  0  0  0  0  # atno 10763 bound_to 10752
  153.0330  135.5197  154.7404 H   0  0  0  0  0  0  0  0  0  0  0  0  # atno 10764 bound_to 10752
  154.6520  135.3002  154.9943 H   0  0  0  0  0  0  0  0  0  0  0  0  # atno 10765 bound_to 10752
  140.0228  134.6128  155.9616 H   0  0  0  0  0  0  0  0  0  0  0  0  # atno 11005 bound_to 11000
  146.3531  140.0746  142.8621 LP  0  0  0  0  0  0  0  0  0  0  0  0  # atno 17320 bound_to 7965
  145.1065  140.9378  143.4682 LP  0  0  0  0  0  0  0  0  0  0  0  0  # atno 17321 bound_to 7965
  139.4991  144.3960  152.0231 LP  0  0  0  0  0  0  0  0  0  0  0  0  # atno 17342 bound_to 10162
  140.3069  144.3582  150.6044 LP  0  0  0  0  0  0  0  0  0  0  0  0  # atno 17343 bound_to 10162
  156.6006  130.8545  151.3431 LP  0  0  0  0  0  0  0  0  0  0  0  0  # atno 17370 bound_to 10713
  157.7263  130.9627  150.1651 LP  0  0  0  0  0  0  0  0  0  0  0  0  # atno 17371 bound_to 10713
  141.1784  133.6543  156.4920 LP  0  0  0  0  0  0  0  0  0  0  0  0  # atno 17394 bound_to 11000
  140.4359  134.7060  157.4966 LP  0  0  0  0  0  0  0  0  0  0  0  0  # atno 17395 bound_to 11000

$$$$
