AV-unprocessed.smi:20|AV-procd|sdf|116|dock2
  -GOLD-   2262015283D 1   1.00000     0.00000
 Structure written by MMmdl.
 57 61  0  0  0  0  0  0  0  0  1 V2000
  146.3607  133.2443  151.7046 O   0  0  0  0  0  0  0  0  0  0  0  0
  146.0202  134.4159  151.5595 C   0  0  0  0  0  0  0  0  0  0  0  0
  145.8736  135.4009  152.7067 C   0  0  0  0  0  0  0  0  0  0  0  0
  145.0838  136.5729  152.0756 C   0  0  1  0  0  0  0  0  0  0  0  0
  143.5562  136.4353  152.3167 C   0  0  0  0  0  0  0  0  0  0  0  0
  143.1677  136.7364  153.7752 C   0  0  0  0  0  0  0  0  0  0  0  0
  143.7216  138.0947  154.2287 C   0  0  0  0  0  0  0  0  0  0  0  0
  145.1606  138.1744  153.9790 N   0  0  0  0  0  0  0  0  0  0  0  0
  145.8679  139.1322  154.6309 C   0  0  0  0  0  0  0  0  0  0  0  0
  145.2163  140.0836  155.3526 N   0  0  0  0  0  0  0  0  0  0  0  0
  145.9024  141.0370  155.9893 C   0  0  0  0  0  0  0  0  0  0  0  0
  147.2225  141.2222  156.0399 N   0  0  0  0  0  0  0  0  0  0  0  0
  147.8834  140.2666  155.3263 C   0  0  0  0  0  0  0  0  0  0  0  0
  147.2901  139.1960  154.5990 C   0  0  0  0  0  0  0  0  0  0  0  0
  148.2814  138.4203  154.0088 N   0  0  0  0  0  0  0  0  0  0  0  0
  149.3947  139.0044  154.3583 C   0  0  0  0  0  0  0  0  0  0  0  0
  149.2492  140.1119  155.1628 N   0  0  0  0  0  0  0  0  0  0  0  0
  150.3142  140.9497  155.6873 C   0  0  0  0  0  0  0  0  0  0  0  0
  151.2135  140.2538  156.7415 C   0  0  1  0  0  0  0  0  0  0  0  0
  152.1740  139.2719  156.0306 C   0  0  0  0  0  0  0  0  0  0  0  0
  152.7960  139.8681  154.9102 O   0  0  0  0  0  0  0  0  0  0  0  0
  151.9650  141.2389  157.6837 C   0  0  2  0  0  0  0  0  0  0  0  0
  152.7015  140.5758  158.8371 C   0  0  0  0  0  0  0  0  0  0  0  0
  152.9188  141.7409  159.7908 C   0  0  0  0  0  0  0  0  0  0  0  0
  151.7228  142.4991  159.6975 O   0  0  0  0  0  0  0  0  0  0  0  0
  151.0853  142.2409  158.4493 C   0  0  0  0  0  0  0  0  0  0  0  0
  145.5573  137.9515  152.5888 C   0  0  0  0  0  0  0  0  0  0  0  0
  145.3879  136.4086  150.5673 C   0  0  0  0  0  0  0  0  0  0  0  0
  145.7298  135.0090  150.4044 N   0  0  0  0  0  0  0  0  0  0  0  0
  145.3751  134.9438  153.5608 H   0  0  0  0  0  0  0  0  0  0  0  0
  146.8700  135.7110  153.0241 H   0  0  0  0  0  0  0  0  0  0  0  0
  143.0237  137.1352  151.6714 H   0  0  0  0  0  0  0  0  0  0  0  0
  143.2068  135.4406  152.0372 H   0  0  0  0  0  0  0  0  0  0  0  0
  142.0827  136.7267  153.8803 H   0  0  0  0  0  0  0  0  0  0  0  0
  143.5421  135.9534  154.4344 H   0  0  0  0  0  0  0  0  0  0  0  0
  143.2191  138.9004  153.6915 H   0  0  0  0  0  0  0  0  0  0  0  0
  143.5116  138.2330  155.2903 H   0  0  0  0  0  0  0  0  0  0  0  0
  145.3085  141.7540  156.5370 H   0  0  0  0  0  0  0  0  0  0  0  0
  150.3602  138.6367  154.0429 H   0  0  0  0  0  0  0  0  0  0  0  0
  150.9164  141.2673  154.8354 H   0  0  0  0  0  0  0  0  0  0  0  0
  149.8782  141.8578  156.1049 H   0  0  0  0  0  0  0  0  0  0  0  0
  150.5680  139.6341  157.3653 H   0  0  0  0  0  0  0  0  0  0  0  0
  152.9453  138.9133  156.7119 H   0  0  0  0  0  0  0  0  0  0  0  0
  151.6329  138.3863  155.6960 H   0  0  0  0  0  0  0  0  0  0  0  0
  152.4029  139.5179  154.1253 H   0  0  0  0  0  0  0  0  0  0  0  0
  152.6961  141.8029  157.1018 H   0  0  0  0  0  0  0  0  0  0  0  0
  152.0733  139.8190  159.3095 H   0  0  0  0  0  0  0  0  0  0  0  0
  153.6391  140.1067  158.5369 H   0  0  0  0  0  0  0  0  0  0  0  0
  153.1128  141.4192  160.8141 H   0  0  0  0  0  0  0  0  0  0  0  0
  153.7567  142.3558  159.4591 H   0  0  0  0  0  0  0  0  0  0  0  0
  150.9545  143.1721  157.8994 H   0  0  0  0  0  0  0  0  0  0  0  0
  150.0979  141.8272  158.6561 H   0  0  0  0  0  0  0  0  0  0  0  0
  146.6354  138.0415  152.4592 H   0  0  0  0  0  0  0  0  0  0  0  0
  145.1129  138.7407  151.9809 H   0  0  0  0  0  0  0  0  0  0  0  0
  144.5497  136.6873  149.9279 H   0  0  0  0  0  0  0  0  0  0  0  0
  146.2490  137.0064  150.2646 H   0  0  0  0  0  0  0  0  0  0  0  0
  145.7595  134.5519  149.5044 H   0  0  0  0  0  0  0  0  0  0  0  0
  1  2  2  0  0  0  0
  2 29  1  0  0  0  0
  2  3  1  0  0  0  0
  3  4  1  0  0  0  0
  3 30  1  0  0  0  0
  3 31  1  0  0  0  0
  4 27  1  0  0  0  0
  4  5  1  0  0  0  0
  4 28  1  0  0  0  0
  5  6  1  0  0  0  0
  5 32  1  0  0  0  0
  5 33  1  0  0  0  0
  6  7  1  0  0  0  0
  6 34  1  0  0  0  0
  6 35  1  0  0  0  0
  7  8  1  0  0  0  0
  7 36  1  0  0  0  0
  7 37  1  0  0  0  0
  8  9  1  0  0  0  0
  8 27  1  0  0  0  0
  9 14  1  0  0  0  0
  9 10  2  0  0  0  0
 10 11  1  0  0  0  0
 11 12  2  0  0  0  0
 11 38  1  0  0  0  0
 12 13  1  0  0  0  0
 13 17  1  0  0  0  0
 13 14  2  0  0  0  0
 14 15  1  0  0  0  0
 15 16  2  0  0  0  0
 16 17  1  0  0  0  0
 16 39  1  0  0  0  0
 17 18  1  0  0  0  0
 18 19  1  0  0  0  0
 18 40  1  0  0  0  0
 18 41  1  0  0  0  0
 19 20  1  0  0  0  0
 19 22  1  0  0  0  0
 19 42  1  0  0  0  0
 20 21  1  0  0  0  0
 20 43  1  0  0  0  0
 20 44  1  0  0  0  0
 21 45  1  0  0  0  0
 22 26  1  0  0  0  0
 22 23  1  0  0  0  0
 22 46  1  0  0  0  0
 23 24  1  0  0  0  0
 23 47  1  0  0  0  0
 23 48  1  0  0  0  0
 24 25  1  0  0  0  0
 24 49  1  0  0  0  0
 24 50  1  0  0  0  0
 25 26  1  0  0  0  0
 26 51  1  0  0  0  0
 26 52  1  0  0  0  0
 27 53  1  0  0  0  0
 27 54  1  0  0  0  0
 28 29  1  0  0  0  0
 28 55  1  0  0  0  0
 28 56  1  0  0  0  0
 29 57  1  0  0  0  0
M  END
> <s_m_source_file>
AV-unprocessed.smi

> <i_m_source_file_index>
20

> <i_lp_mmshare_version>
43012

> <i_f3d_flags>
0

> <s_epik_input>
W0NIMl0xW05IXUMoPU8pW0NIMl1bQ0BAXTEyW0NIMl1bQ0gyXVtDSDJdTihbQ0gyXTIpYyhuW2NIXW4zKWMoYzM0KW5bY0hdbjRbQ0gyXVtDQEhdKFtDSDJdW09IXSlbQ0BASF01W0NIMl1bQ0gyXU9bQ0gyXTU=

> <s_epik_cmdline>
J2VwaWtfcHl0aG9uJywgJy1waCcsICc3LjAnLCAnLXRuJywgJzgnLCAnLW1hJywgJzIwMCcsICctbWV0YWxfYmluZGluZycsICctaW1hZScsICc8aW5maWxlLm1hZT4nLCAnLW9tYWUnLCAnPG91dGZpbGUubWFlPic=

> <r_lp_tautomer_probability>
1

> <r_epik_Ionization_Penalty>
0.0019697

> <r_epik_Ionization_Penalty_Charging>
0

> <r_epik_Ionization_Penalty_Neutral>
0.0019697

> <r_epik_State_Penalty>
0.00113613

> <r_epik_Charging_Adjusted_Penalty>
0.00113613

> <i_epik_Tot_Q>
0

> <i_epik_Tot_abs_Q>
0

> <r_epik_Metal_State_Penalty>
-0

> <b_epik_Metal_Only>
0

> <s_lp_Force_Field>
OPLS_2005

> <r_lp_Energy>
60.744

> <b_lp_Chiralities_Consistent>
1

> <s_lp_Variant>
AV-unprocessed.smi:20-4

> <Gold.Version>
5.8.1

> <Gold.Id.Protein>
6NUR|6NUR_protein|mol2

> <Gold.PLP.Fitness>
40.5666

> <Gold.PLP.PLP>
-36.0088

> <Gold.PLP.part.hbond>
-3.0000

> <Gold.PLP.part.metal>
0.0000

> <Gold.PLP.part.buried>
-3.5620

> <Gold.PLP.part.nonpolar>
-29.8362

> <Gold.PLP.part.repulsive>
1.3819

> <Gold.PLP.ligand.clash>
0.0000

> <Gold.PLP.ligand.torsion>
0.5933

> <Gold.PLP.Chemscore.Hbond>
1.7137

> <Gold.PLP.Chemscore.CHOScore>
0.0000

> <Gold.PLP.Chemscore.Metal>
0.0000

> <Gold.Chemscore.Hbonds>
donor molecule, donor type, donor heavy atom, donor atom, acceptor molecule, acceptor atom, score
      L1  H    29    57       P1  7921  0.88
      P1  H  7997  8010       L1    21  1.00

> <Gold.PLP.Chemscore.Internal.Correction>
0.6033

> <Gold.Rescore>
     Score         DG    S(hbond)    S(metal)    S(lipo)     H(rot)  DE(clash)    DE(int)     intcor
     12.06     -14.15       1.84        0.00      81.59       2.74       1.63       0.46       ----

> <Gold.Chemscore.Fitness>
12.0646

> <Gold.Chemscore.DG>
-14.1482

> <Gold.Chemscore.ZeroCoef>
-5.4800

> <Gold.Chemscore.Hbond>
1.8385

> <Gold.Chemscore.Metal>
0.0000

> <Gold.Chemscore.Lipo>
81.5883

> <Gold.Chemscore.Internal_Hbond>
0.0000

> <Gold.Chemscore.DEClash>
1.6283

> <Gold.Chemscore.DEInternal>
0.4553

> <Gold.Chemscore.Rot>
2.7415

> <Gold.Chemscore.Internal.Correction>
   9.000000E+99

> <Gold.Chemscore.Hbonds>
donor molecule, donor type, donor heavy atom, donor atom, acceptor molecule, acceptor atom, score
      L1  H    29    57       P1  7921  0.71
      P1  H  7997  8010       L1    21  0.24

> <Gold.Chemscore.Hbond.Weighted>
-6.1406

> <Gold.Chemscore.Metal.Weighted>
-0.0000

> <Gold.Chemscore.Lipo.Weighted>
-9.5458

> <Gold.Chemscore.Internal_Hbond.Weighted>
0.0000

> <Gold.Chemscore.DEClash.Weighted>
1.6283

> <Gold.Chemscore.DEInternal.Weighted>
0.4553

> <Gold.Chemscore.Rot.Weighted>
7.0182

> <Gold.Chemscore.Internal.Correction.Weighted>
   9.000000E+99

> <Gold.Protein.RotatedTorsions>
[ 6907 6896 6895 6894 ] final -110.55 input  -60.11 | X-H torsion
[ 7974 7965 7964 7962 ] final   21.50 input  175.53 | X-H torsion
[ 8008 7997 7996 7995 ] final  119.85 input   59.86 | X-H torsion
[ 10167 10162 10161 10158 ] final  -47.82 input  -65.29 | X-H torsion
[ 10718 10713 10712 10709 ] final -116.57 input   66.30 | X-H torsion
[ 10763 10752 10751 10750 ] final  -93.29 input  -60.55 | X-H torsion
[ 11005 11000 10999 10996 ] final  -26.08 input  -57.11 | X-H torsion

> <Gold.Protein.ActiveResidues>
 VAL166  LYS551  ARG553  GLY616  TRP617  ASP618  TYR619  PRO620  LYS621  CYS622 
 ASP623  PHE694  ASN695  SER759  ASP760  ASP761  ALA762  ILE779  LEU786  VAL792 
 PHE793  MET794  SER795  GLU796  ALA797  LYS798  CYS799  TRP800  GLU811  SER814 

> <Gold.Protein.RotatedAtoms>
  150.7632  133.9365  159.3442 H   0  0  0  0  0  0  0  0  0  0  0  0  # atno 6907 bound_to 6896
  151.7269  135.0881  160.0303 H   0  0  0  0  0  0  0  0  0  0  0  0  # atno 6908 bound_to 6896
  152.3615  133.6265  159.6054 H   0  0  0  0  0  0  0  0  0  0  0  0  # atno 6909 bound_to 6896
  146.2068  139.8018  142.8719 H   0  0  0  0  0  0  0  0  0  0  0  0  # atno 7974 bound_to 7965
  156.2615  140.2844  156.1057 H   0  0  0  0  0  0  0  0  0  0  0  0  # atno 8008 bound_to 7997
  155.1311  140.0394  157.2792 H   0  0  0  0  0  0  0  0  0  0  0  0  # atno 8009 bound_to 7997
  154.6599  140.2564  155.7127 H   0  0  0  0  0  0  0  0  0  0  0  0  # atno 8010 bound_to 7997
  140.6758  143.2767  151.3982 H   0  0  0  0  0  0  0  0  0  0  0  0  # atno 10167 bound_to 10162
  156.0973  130.6143  150.9053 H   0  0  0  0  0  0  0  0  0  0  0  0  # atno 10718 bound_to 10713
  154.6944  135.5200  153.8438 H   0  0  0  0  0  0  0  0  0  0  0  0  # atno 10763 bound_to 10752
  153.0656  135.6584  154.0371 H   0  0  0  0  0  0  0  0  0  0  0  0  # atno 10764 bound_to 10752
  154.0240  135.2991  155.3357 H   0  0  0  0  0  0  0  0  0  0  0  0  # atno 10765 bound_to 10752
  140.8996  133.7533  156.0527 H   0  0  0  0  0  0  0  0  0  0  0  0  # atno 11005 bound_to 11000
  145.3288  141.0261  143.3458 LP  0  0  0  0  0  0  0  0  0  0  0  0  # atno 17320 bound_to 7965
  144.8813  139.4899  143.6721 LP  0  0  0  0  0  0  0  0  0  0  0  0  # atno 17321 bound_to 7965
  139.6050  144.1216  152.2239 LP  0  0  0  0  0  0  0  0  0  0  0  0  # atno 17342 bound_to 10162
  140.0612  144.5855  150.7261 LP  0  0  0  0  0  0  0  0  0  0  0  0  # atno 17343 bound_to 10162
  157.6136  131.0935  150.8750 LP  0  0  0  0  0  0  0  0  0  0  0  0  # atno 17370 bound_to 10713
  156.8885  130.5204  149.5287 LP  0  0  0  0  0  0  0  0  0  0  0  0  # atno 17371 bound_to 10713
  140.8246  134.3250  157.5370 LP  0  0  0  0  0  0  0  0  0  0  0  0  # atno 17394 bound_to 11000
  139.8740  134.9328  156.3565 LP  0  0  0  0  0  0  0  0  0  0  0  0  # atno 17395 bound_to 11000

$$$$
