AV-unprocessed.smi:534|AV-procd|sdf|2857|dock4
  -GOLD-   2262023343D 1   1.00000     0.00000
 Structure written by MMmdl.
 39 40  0  0  0  0  0  0  0  0  2 V2000
  144.2938  132.2940  149.2836 C   0  0  0  0  0  0  0  0  0  0  0  0
  145.6708  132.4431  149.5800 O   0  0  0  0  0  0  0  0  0  0  0  0
  146.0273  131.8513  150.8187 C   0  0  0  0  0  0  0  0  0  0  0  0
  147.0912  132.7205  151.4997 C   0  0  0  0  0  0  0  0  0  0  0  0
  147.6333  132.0688  152.6761 N   0  0  0  0  0  0  0  0  0  0  0  0
  148.4792  132.5225  153.6806 C   0  0  0  0  0  0  0  0  0  0  0  0
  149.0083  133.7460  153.7278 N   0  0  0  0  0  0  0  0  0  0  0  0
  149.7878  133.6943  154.8756 C   0  0  0  0  0  0  0  0  0  0  0  0
  149.7133  132.4718  155.4685 C   0  0  0  0  0  0  0  0  0  0  0  0
  150.4544  132.1014  156.6931 C   0  0  0  0  0  0  0  0  0  0  0  0
  150.3615  130.9734  157.1737 O   0  0  0  0  0  0  0  0  0  0  0  0
  151.2134  133.1385  157.1699 N   0  5  0  0  0  0  0  0  0  0  0  0
  151.3167  134.3927  156.6065 C   0  0  0  0  0  0  0  0  0  0  0  0
  152.0290  135.2693  157.0982 O   0  0  0  0  0  0  0  0  0  0  0  0
  150.6149  134.6881  155.4667 N   0  0  0  0  0  0  0  0  0  0  0  0
  150.7083  136.0116  154.8437 C   0  0  0  0  0  0  0  0  0  0  0  0
  148.8460  131.6988  154.6929 N   0  0  0  0  0  0  0  0  0  0  0  0
  148.4425  130.3107  154.8987 C   0  0  0  0  0  0  0  0  0  0  0  0
  148.8369  129.4189  153.7124 C   0  0  0  0  0  0  0  0  0  0  0  0
  147.7355  129.2895  152.8269 O   0  0  0  0  0  0  0  0  0  0  0  0
  147.7395  128.0590  152.1266 C   0  0  0  0  0  0  0  0  0  0  0  0
  144.0767  132.7471  148.3165 H   0  0  0  0  0  0  0  0  0  0  0  0
  143.6752  132.7893  150.0332 H   0  0  0  0  0  0  0  0  0  0  0  0
  144.0112  131.2418  149.2348 H   0  0  0  0  0  0  0  0  0  0  0  0
  145.1541  131.7383  151.4640 H   0  0  0  0  0  0  0  0  0  0  0  0
  146.4299  130.8537  150.6382 H   0  0  0  0  0  0  0  0  0  0  0  0
  147.9106  132.9137  150.8068 H   0  0  0  0  0  0  0  0  0  0  0  0
  146.6748  133.6882  151.7797 H   0  0  0  0  0  0  0  0  0  0  0  0
  147.4639  131.0735  152.6965 H   0  0  0  0  0  0  0  0  0  0  0  0
  150.4413  136.7924  155.5571 H   0  0  0  0  0  0  0  0  0  0  0  0
  150.0452  136.1195  153.9857 H   0  0  0  0  0  0  0  0  0  0  0  0
  151.7257  136.1976  154.4980 H   0  0  0  0  0  0  0  0  0  0  0  0
  148.8847  129.9405  155.8226 H   0  0  0  0  0  0  0  0  0  0  0  0
  147.3648  130.2663  155.0566 H   0  0  0  0  0  0  0  0  0  0  0  0
  149.6902  129.8517  153.1879 H   0  0  0  0  0  0  0  0  0  0  0  0
  149.1407  128.4354  154.0732 H   0  0  0  0  0  0  0  0  0  0  0  0
  146.8722  128.0104  151.4684 H   0  0  0  0  0  0  0  0  0  0  0  0
  147.6896  127.2136  152.8139 H   0  0  0  0  0  0  0  0  0  0  0  0
  148.6345  127.9592  151.5112 H   0  0  0  0  0  0  0  0  0  0  0  0
  1  2  1  0  0  0  0
  1 22  1  0  0  0  0
  1 23  1  0  0  0  0
  1 24  1  0  0  0  0
  2  3  1  0  0  0  0
  3  4  1  0  0  0  0
  3 25  1  0  0  0  0
  3 26  1  0  0  0  0
  4  5  1  0  0  0  0
  4 27  1  0  0  0  0
  4 28  1  0  0  0  0
  5  6  1  0  0  0  0
  5 29  1  0  0  0  0
  6 17  1  0  0  0  0
  6  7  2  0  0  0  0
  7  8  1  0  0  0  0
  8 15  1  0  0  0  0
  8  9  2  0  0  0  0
  9 10  1  0  0  0  0
  9 17  1  0  0  0  0
 10 11  2  0  0  0  0
 10 12  1  0  0  0  0
 12 13  1  0  0  0  0
 13 14  2  0  0  0  0
 13 15  1  0  0  0  0
 15 16  1  0  0  0  0
 16 30  1  0  0  0  0
 16 31  1  0  0  0  0
 16 32  1  0  0  0  0
 17 18  1  0  0  0  0
 18 19  1  0  0  0  0
 18 33  1  0  0  0  0
 18 34  1  0  0  0  0
 19 20  1  0  0  0  0
 19 35  1  0  0  0  0
 19 36  1  0  0  0  0
 20 21  1  0  0  0  0
 21 37  1  0  0  0  0
 21 38  1  0  0  0  0
 21 39  1  0  0  0  0
M  CHG  1  12  -1
M  END
> <s_m_source_file>
AV-unprocessed.smi

> <i_m_source_file_index>
534

> <i_lp_mmshare_version>
43012

> <i_f3d_flags>
0

> <s_epik_input>
W0NIM11PW0NIMl1bQ0gyXVtOSF1jKG4xKW4oW0NIMl1bQ0gyXU9bQ0gzXSljKGMxMiljKD1PKVtuSF1jKD1PKW4yW0NIM10=

> <s_epik_cmdline>
J2VwaWtfcHl0aG9uJywgJy1waCcsICc3LjAnLCAnLXRuJywgJzgnLCAnLW1hJywgJzIwMCcsICctbWV0YWxfYmluZGluZycsICctaW1hZScsICc8aW5maWxlLm1hZT4nLCAnLW9tYWUnLCAnPG91dGZpbGUubWFlPic=

> <r_lp_tautomer_probability>
1

> <r_epik_Ionization_Penalty>
5.88862

> <r_epik_Ionization_Penalty_Charging>
1.42184e-08

> <r_epik_Ionization_Penalty_Neutral>
5.88862

> <r_epik_State_Penalty>
5.88846

> <r_epik_Charging_Adjusted_Penalty>
5.88846

> <i_epik_Tot_Q>
-1

> <i_epik_Tot_abs_Q>
1

> <r_epik_Metal_State_Penalty>
1.85033

> <b_epik_Metal_Only>
1

> <s_lp_Force_Field>
OPLS_2005

> <r_lp_Energy>
24.5539

> <b_lp_Chiralities_Consistent>
1

> <s_lp_Variant>
AV-unprocessed.smi:534-2

> <Gold.Version>
5.8.1

> <Gold.Id.Protein>
6NUR|6NUR_protein|mol2

> <Gold.PLP.Fitness>
36.8297

> <Gold.PLP.PLP>
-34.1781

> <Gold.PLP.part.hbond>
-2.9623

> <Gold.PLP.part.metal>
0.0000

> <Gold.PLP.part.buried>
-5.3106

> <Gold.PLP.part.nonpolar>
-28.4629

> <Gold.PLP.part.repulsive>
1.4673

> <Gold.PLP.ligand.clash>
0.0000

> <Gold.PLP.ligand.torsion>
0.7297

> <Gold.PLP.Chemscore.Hbond>
1.3559

> <Gold.PLP.Chemscore.CHOScore>
0.0000

> <Gold.PLP.Chemscore.Metal>
0.0000

> <Gold.Chemscore.Hbonds>
donor molecule, donor type, donor heavy atom, donor atom, acceptor molecule, acceptor atom, score
      P1  H  6896  6907       L1    12  1.60
      P1  H 10752 10763       L1    14  0.15

> <Gold.PLP.Chemscore.Internal.Correction>
0.0434

> <Gold.Rescore>
     Score         DG    S(hbond)    S(metal)    S(lipo)     H(rot)  DE(clash)    DE(int)     intcor
      6.12      -7.06       0.42        0.00      54.20       2.40       0.06       0.88       ----

> <Gold.Chemscore.Fitness>
6.1221

> <Gold.Chemscore.DG>
-7.0637

> <Gold.Chemscore.ZeroCoef>
-5.4800

> <Gold.Chemscore.Hbond>
0.4162

> <Gold.Chemscore.Metal>
0.0000

> <Gold.Chemscore.Lipo>
54.2024

> <Gold.Chemscore.Internal_Hbond>
0.0000

> <Gold.Chemscore.DEClash>
0.0648

> <Gold.Chemscore.DEInternal>
0.8769

> <Gold.Chemscore.Rot>
2.4016

> <Gold.Chemscore.Internal.Correction>
   9.000000E+99

> <Gold.Chemscore.Hbonds>
donor molecule, donor type, donor heavy atom, donor atom, acceptor molecule, acceptor atom, score
      P1  H  6896  6907       L1    12  0.43
      P1  H 10752 10763       L1    14  0.01

> <Gold.Chemscore.Hbond.Weighted>
-1.3901

> <Gold.Chemscore.Metal.Weighted>
-0.0000

> <Gold.Chemscore.Lipo.Weighted>
-6.3417

> <Gold.Chemscore.Internal_Hbond.Weighted>
0.0000

> <Gold.Chemscore.DEClash.Weighted>
0.0648

> <Gold.Chemscore.DEInternal.Weighted>
0.8769

> <Gold.Chemscore.Rot.Weighted>
6.1481

> <Gold.Chemscore.Internal.Correction.Weighted>
   9.000000E+99

> <Gold.Protein.RotatedTorsions>
[ 6907 6896 6895 6894 ] final -159.83 input  -60.11 | X-H torsion
[ 7974 7965 7964 7962 ] final  -21.35 input  175.53 | X-H torsion
[ 8008 7997 7996 7995 ] final  -49.88 input   59.86 | X-H torsion
[ 10167 10162 10161 10158 ] final -149.23 input  -65.29 | X-H torsion
[ 10718 10713 10712 10709 ] final  -15.97 input   66.30 | X-H torsion
[ 10763 10752 10751 10750 ] final   93.16 input  -60.55 | X-H torsion
[ 11005 11000 10999 10996 ] final   18.70 input  -57.11 | X-H torsion

> <Gold.Protein.ActiveResidues>
 VAL166  LYS551  ARG553  GLY616  TRP617  ASP618  TYR619  PRO620  LYS621  CYS622 
 ASP623  PHE694  ASN695  SER759  ASP760  ASP761  ALA762  ILE779  LEU786  VAL792 
 PHE793  MET794  SER795  GLU796  ALA797  LYS798  CYS799  TRP800  GLU811  SER814 

> <Gold.Protein.RotatedAtoms>
  151.3396  133.3968  159.2669 H   0  0  0  0  0  0  0  0  0  0  0  0  # atno 6907 bound_to 6896
  150.9889  134.9229  159.7898 H   0  0  0  0  0  0  0  0  0  0  0  0  # atno 6908 bound_to 6896
  152.5241  134.3360  159.9252 H   0  0  0  0  0  0  0  0  0  0  0  0  # atno 6909 bound_to 6896
  146.1738  140.4329  142.8522 H   0  0  0  0  0  0  0  0  0  0  0  0  # atno 7974 bound_to 7965
  154.4052  140.1286  156.4575 H   0  0  0  0  0  0  0  0  0  0  0  0  # atno 8008 bound_to 7997
  155.7306  140.3491  155.5038 H   0  0  0  0  0  0  0  0  0  0  0  0  # atno 8009 bound_to 7997
  155.9131  140.1039  157.1254 H   0  0  0  0  0  0  0  0  0  0  0  0  # atno 8010 bound_to 7997
  139.7460  143.8589  152.2575 H   0  0  0  0  0  0  0  0  0  0  0  0  # atno 10167 bound_to 10162
  156.5942  130.4807  149.6266 H   0  0  0  0  0  0  0  0  0  0  0  0  # atno 10718 bound_to 10713
  153.2271  135.4335  155.0554 H   0  0  0  0  0  0  0  0  0  0  0  0  # atno 10763 bound_to 10752
  154.8279  135.3370  154.6841 H   0  0  0  0  0  0  0  0  0  0  0  0  # atno 10764 bound_to 10752
  153.7270  135.7013  153.5055 H   0  0  0  0  0  0  0  0  0  0  0  0  # atno 10765 bound_to 10752
  140.4218  134.1510  155.7673 H   0  0  0  0  0  0  0  0  0  0  0  0  # atno 11005 bound_to 11000
  144.8204  140.6539  143.6357 LP  0  0  0  0  0  0  0  0  0  0  0  0  # atno 17320 bound_to 7965
  145.4268  139.1555  143.4044 LP  0  0  0  0  0  0  0  0  0  0  0  0  # atno 17321 bound_to 7965
  139.8554  144.7144  150.9164 LP  0  0  0  0  0  0  0  0  0  0  0  0  # atno 17342 bound_to 10162
  140.7792  143.3863  151.1387 LP  0  0  0  0  0  0  0  0  0  0  0  0  # atno 17343 bound_to 10162
  156.2524  130.6914  151.1656 LP  0  0  0  0  0  0  0  0  0  0  0  0  # atno 17370 bound_to 10713
  157.7296  131.0623  150.5767 LP  0  0  0  0  0  0  0  0  0  0  0  0  # atno 17371 bound_to 10713
  141.1781  133.8472  157.1353 LP  0  0  0  0  0  0  0  0  0  0  0  0  # atno 17394 bound_to 11000
  140.0194  134.9952  157.0561 LP  0  0  0  0  0  0  0  0  0  0  0  0  # atno 17395 bound_to 11000

$$$$
