AV-unprocessed.smi:113|AV-procd|sdf|1103|dock4
  -GOLD-   2262018213D 1   1.00000     0.00000
 Structure written by MMmdl.
 53 56  0  0  0  0  0  0  0  0  2 V2000
  153.5888  138.6168  159.4654 C   0  0  0  0  0  0  0  0  0  0  0  0
  153.0226  140.0196  159.4044 C   0  0  0  0  0  0  0  0  0  0  0  0
  152.3690  140.5183  158.2608 C   0  0  0  0  0  0  0  0  0  0  0  0
  151.8581  141.8401  158.2580 C   0  0  0  0  0  0  0  0  0  0  0  0
  151.1469  142.4115  157.0268 C   0  0  0  0  0  0  0  0  0  0  0  0
  149.9266  141.7414  156.5997 N   0  0  0  0  0  0  0  0  0  0  0  0
  150.0331  140.7664  155.5782 C   0  0  0  0  0  0  0  0  0  0  0  0
  151.1189  140.4879  155.0648 O   0  0  0  0  0  0  0  0  0  0  0  0
  148.7757  140.1122  155.2090 C   0  0  0  0  0  0  0  0  0  0  0  0
  148.8134  139.0471  154.1244 C   0  0  0  0  0  0  0  0  0  0  0  0
  147.6270  140.4598  155.8374 C   0  0  0  0  0  0  0  0  0  0  0  0
  147.5489  141.4227  156.8284 N   0  0  0  0  0  0  0  0  0  0  0  0
  146.2215  141.6927  157.5038 C   0  0  2  0  0  0  0  0  0  0  0  0
  145.6083  140.4506  158.1724 C   0  0  0  0  0  0  0  0  0  0  0  0
  144.2712  140.3000  157.4613 C   0  0  1  0  0  0  0  0  0  0  0  0
  143.2636  139.9054  158.3699 O   0  0  0  0  0  0  0  0  0  0  0  0
  144.0193  141.6983  156.8862 C   0  0  2  0  0  0  0  0  0  0  0  0
  143.1276  141.7282  155.6354 C   0  0  0  0  0  0  0  0  0  0  0  0
  143.3416  140.5777  154.8457 O   0  0  0  0  0  0  0  0  0  0  0  0
  145.3220  142.1499  156.5430 O   0  0  0  0  0  0  0  0  0  0  0  0
  148.7243  142.0728  157.2638 C   0  0  0  0  0  0  0  0  0  0  0  0
  148.7020  142.8796  158.1956 O   0  0  0  0  0  0  0  0  0  0  0  0
  152.0210  142.6282  159.4306 C   0  0  0  0  0  0  0  0  0  0  0  0
  151.5382  143.9558  159.5205 C   0  0  0  0  0  0  0  0  0  0  0  0
  151.7211  144.7055  160.6993 C   0  0  0  0  0  0  0  0  0  0  0  0
  152.3869  144.1413  161.8032 C   0  0  0  0  0  0  0  0  0  0  0  0
  152.8727  142.8226  161.7316 C   0  0  0  0  0  0  0  0  0  0  0  0
  152.6903  142.0708  160.5537 C   0  0  0  0  0  0  0  0  0  0  0  0
  153.1564  140.8056  160.4918 N   0  3  0  0  0  0  0  0  0  0  0  0
  153.4920  138.1112  158.5043 H   0  0  0  0  0  0  0  0  0  0  0  0
  153.0606  138.0276  160.2155 H   0  0  0  0  0  0  0  0  0  0  0  0
  154.6462  138.6440  159.7301 H   0  0  0  0  0  0  0  0  0  0  0  0
  152.2678  139.8781  157.3971 H   0  0  0  0  0  0  0  0  0  0  0  0
  150.9042  143.4629  157.1884 H   0  0  0  0  0  0  0  0  0  0  0  0
  151.8237  142.4210  156.1710 H   0  0  0  0  0  0  0  0  0  0  0  0
  147.8224  138.6421  153.9183 H   0  0  0  0  0  0  0  0  0  0  0  0
  149.4563  138.2192  154.4256 H   0  0  0  0  0  0  0  0  0  0  0  0
  149.2028  139.4631  153.1944 H   0  0  0  0  0  0  0  0  0  0  0  0
  146.7190  139.9523  155.5440 H   0  0  0  0  0  0  0  0  0  0  0  0
  146.4019  142.4883  158.2274 H   0  0  0  0  0  0  0  0  0  0  0  0
  146.2421  139.5682  158.0795 H   0  0  0  0  0  0  0  0  0  0  0  0
  145.4809  140.6687  159.2339 H   0  0  0  0  0  0  0  0  0  0  0  0
  144.3537  139.5642  156.6612 H   0  0  0  0  0  0  0  0  0  0  0  0
  142.5384  139.5520  157.8765 H   0  0  0  0  0  0  0  0  0  0  0  0
  143.6290  142.3665  157.6565 H   0  0  0  0  0  0  0  0  0  0  0  0
  142.0772  141.7520  155.9265 H   0  0  0  0  0  0  0  0  0  0  0  0
  143.3171  142.6225  155.0409 H   0  0  0  0  0  0  0  0  0  0  0  0
  143.3737  140.8382  153.9375 H   0  0  0  0  0  0  0  0  0  0  0  0
  151.0219  144.4224  158.6952 H   0  0  0  0  0  0  0  0  0  0  0  0
  151.3488  145.7181  160.7562 H   0  0  0  0  0  0  0  0  0  0  0  0
  152.5241  144.7206  162.7047 H   0  0  0  0  0  0  0  0  0  0  0  0
  153.3831  142.3945  162.5824 H   0  0  0  0  0  0  0  0  0  0  0  0
  153.6331  140.4244  161.3088 H   0  0  0  0  0  0  0  0  0  0  0  0
  1  2  1  0  0  0  0
  1 30  1  0  0  0  0
  1 31  1  0  0  0  0
  1 32  1  0  0  0  0
  2 29  1  0  0  0  0
  2  3  2  0  0  0  0
  3  4  1  0  0  0  0
  3 33  1  0  0  0  0
  4  5  1  0  0  0  0
  4 23  2  0  0  0  0
  5  6  1  0  0  0  0
  5 34  1  0  0  0  0
  5 35  1  0  0  0  0
  6 21  1  0  0  0  0
  6  7  1  0  0  0  0
  7  8  2  0  0  0  0
  7  9  1  0  0  0  0
  9 10  1  0  0  0  0
  9 11  2  0  0  0  0
 10 36  1  0  0  0  0
 10 37  1  0  0  0  0
 10 38  1  0  0  0  0
 11 12  1  0  0  0  0
 11 39  1  0  0  0  0
 12 13  1  0  0  0  0
 12 21  1  0  0  0  0
 13 20  1  0  0  0  0
 13 14  1  0  0  0  0
 13 40  1  0  0  0  0
 14 15  1  0  0  0  0
 14 41  1  0  0  0  0
 14 42  1  0  0  0  0
 15 16  1  0  0  0  0
 15 17  1  0  0  0  0
 15 43  1  0  0  0  0
 16 44  1  0  0  0  0
 17 18  1  0  0  0  0
 17 20  1  0  0  0  0
 17 45  1  0  0  0  0
 18 19  1  0  0  0  0
 18 46  1  0  0  0  0
 18 47  1  0  0  0  0
 19 48  1  0  0  0  0
 21 22  2  0  0  0  0
 23 28  1  0  0  0  0
 23 24  1  0  0  0  0
 24 25  2  0  0  0  0
 24 49  1  0  0  0  0
 25 26  1  0  0  0  0
 25 50  1  0  0  0  0
 26 27  2  0  0  0  0
 26 51  1  0  0  0  0
 27 28  1  0  0  0  0
 27 52  1  0  0  0  0
 28 29  2  0  0  0  0
 29 53  1  0  0  0  0
M  CHG  1  29   1
M  END
> <s_m_source_file>
AV-unprocessed.smi

> <i_m_source_file_index>
113

> <i_lp_mmshare_version>
43012

> <i_f3d_flags>
0

> <s_epik_input>
W2NIXTFbY0hdW2NIXVtjSF1jKGMxMiluYyhbQ0gzXSlbY0hdYzJbQ0gyXW4zYyg9TyljKFtDSDNdKVtjSF1uKGMzPU8pW0NAQEhdNFtDSDJdW0NAQEhdKFtPSF0pW0NASF0oTzQpW0NIMl1bT0hd

> <s_epik_cmdline>
J2VwaWtfcHl0aG9uJywgJy1waCcsICc3LjAnLCAnLXRuJywgJzgnLCAnLW1hJywgJzIwMCcsICctbWV0YWxfYmluZGluZycsICctaW1hZScsICc8aW5maWxlLm1hZT4nLCAnLW9tYWUnLCAnPG91dGZpbGUubWFlPic=

> <r_lp_tautomer_probability>
1

> <r_epik_Ionization_Penalty>
0.705471

> <r_epik_Ionization_Penalty_Charging>
0.70547

> <r_epik_Ionization_Penalty_Neutral>
1.19947e-07

> <r_epik_State_Penalty>
0.728574

> <r_epik_Charging_Adjusted_Penalty>
1.43404

> <i_epik_Tot_Q>
1

> <i_epik_Tot_abs_Q>
1

> <r_epik_Metal_State_Penalty>
4.61665

> <b_epik_Metal_Only>
0

> <s_epik_Chemistry_Notes>
This compound contains an acetal/aminal-like group ( X-CH(R)-Y where X, Y are N, S, or O) that may be acid/base labile, releasing an aldehyde.

> <s_lp_Force_Field>
OPLS_2005

> <r_lp_Energy>
37.5737

> <b_lp_Chiralities_Consistent>
1

> <s_lp_Variant>
AV-unprocessed.smi:113-13

> <Gold.Version>
5.8.1

> <Gold.Id.Protein>
6NUR|6NUR_protein|mol2

> <Gold.PLP.Fitness>
48.4950

> <Gold.PLP.PLP>
-43.6668

> <Gold.PLP.part.hbond>
-1.9770

> <Gold.PLP.part.metal>
0.0000

> <Gold.PLP.part.buried>
-5.6657

> <Gold.PLP.part.nonpolar>
-35.2518

> <Gold.PLP.part.repulsive>
0.3726

> <Gold.PLP.ligand.clash>
0.0000

> <Gold.PLP.ligand.torsion>
0.6009

> <Gold.PLP.Chemscore.Hbond>
2.0000

> <Gold.PLP.Chemscore.CHOScore>
0.0000

> <Gold.PLP.Chemscore.Metal>
0.0000

> <Gold.Chemscore.Hbonds>
donor molecule, donor type, donor heavy atom, donor atom, acceptor molecule, acceptor atom, score
      L1  H    19    48       P1 10175  0.88
      P1  H  7989  7998       L1     8  0.99

> <Gold.PLP.Chemscore.Internal.Correction>
0.0301

> <Gold.Rescore>
     Score         DG    S(hbond)    S(metal)    S(lipo)     H(rot)  DE(clash)    DE(int)     intcor
     17.46     -18.24       1.97        0.00     118.62       3.01       0.16       0.62       ----

> <Gold.Chemscore.Fitness>
17.4628

> <Gold.Chemscore.DG>
-18.2426

> <Gold.Chemscore.ZeroCoef>
-5.4800

> <Gold.Chemscore.Hbond>
1.9746

> <Gold.Chemscore.Metal>
0.0000

> <Gold.Chemscore.Lipo>
118.6166

> <Gold.Chemscore.Internal_Hbond>
0.0000

> <Gold.Chemscore.DEClash>
0.1618

> <Gold.Chemscore.DEInternal>
0.6180

> <Gold.Chemscore.Rot>
3.0120

> <Gold.Chemscore.Internal.Correction>
   9.000000E+99

> <Gold.Chemscore.Hbonds>
donor molecule, donor type, donor heavy atom, donor atom, acceptor molecule, acceptor atom, score
      L1  H    19    48       P1 10175  0.61
      P1  H  7989  7998       L1     8  0.94

> <Gold.Chemscore.Hbond.Weighted>
-6.5952

> <Gold.Chemscore.Metal.Weighted>
-0.0000

> <Gold.Chemscore.Lipo.Weighted>
-13.8781

> <Gold.Chemscore.Internal_Hbond.Weighted>
0.0000

> <Gold.Chemscore.DEClash.Weighted>
0.1618

> <Gold.Chemscore.DEInternal.Weighted>
0.6180

> <Gold.Chemscore.Rot.Weighted>
7.7108

> <Gold.Chemscore.Internal.Correction.Weighted>
   9.000000E+99

> <Gold.Protein.RotatedTorsions>
[ 6907 6896 6895 6894 ] final   99.54 input  -60.11 | X-H torsion
[ 7974 7965 7964 7962 ] final  116.66 input  175.53 | X-H torsion
[ 8008 7997 7996 7995 ] final  -50.62 input   59.86 | X-H torsion
[ 10167 10162 10161 10158 ] final  137.04 input  -65.29 | X-H torsion
[ 10718 10713 10712 10709 ] final -141.26 input   66.30 | X-H torsion
[ 10763 10752 10751 10750 ] final  157.58 input  -60.55 | X-H torsion
[ 11005 11000 10999 10996 ] final   53.07 input  -57.11 | X-H torsion

> <Gold.Protein.ActiveResidues>
 VAL166  LYS551  ARG553  GLY616  TRP617  ASP618  TYR619  PRO620  LYS621  CYS622 
 ASP623  PHE694  ASN695  SER759  ASP760  ASP761  ALA762  ILE779  LEU786  VAL792 
 PHE793  MET794  SER795  GLU796  ALA797  LYS798  CYS799  TRP800  GLU811  SER814 

> <Gold.Protein.RotatedAtoms>
  152.5390  134.0413  159.8068 H   0  0  0  0  0  0  0  0  0  0  0  0  # atno 6907 bound_to 6896
  151.0568  133.5570  159.2645 H   0  0  0  0  0  0  0  0  0  0  0  0  # atno 6908 bound_to 6896
  151.2483  135.0621  159.9106 H   0  0  0  0  0  0  0  0  0  0  0  0  # atno 6909 bound_to 6896
  145.1769  139.3071  143.4438 H   0  0  0  0  0  0  0  0  0  0  0  0  # atno 7974 bound_to 7965
  154.4066  140.1268  156.4696 H   0  0  0  0  0  0  0  0  0  0  0  0  # atno 8008 bound_to 7997
  155.7193  140.3493  155.4989 H   0  0  0  0  0  0  0  0  0  0  0  0  # atno 8009 bound_to 7997
  155.9229  140.1056  157.1183 H   0  0  0  0  0  0  0  0  0  0  0  0  # atno 8010 bound_to 7997
  139.5158  144.6432  151.5513 H   0  0  0  0  0  0  0  0  0  0  0  0  # atno 10167 bound_to 10162
  156.3320  130.7591  151.1711 H   0  0  0  0  0  0  0  0  0  0  0  0  # atno 10718 bound_to 10713
  154.2025  135.2789  155.2986 H   0  0  0  0  0  0  0  0  0  0  0  0  # atno 10763 bound_to 10752
  154.5843  135.5580  153.7219 H   0  0  0  0  0  0  0  0  0  0  0  0  # atno 10764 bound_to 10752
  153.0084  135.6352  154.2164 H   0  0  0  0  0  0  0  0  0  0  0  0  # atno 10765 bound_to 10752
  140.0797  134.5355  155.8959 H   0  0  0  0  0  0  0  0  0  0  0  0  # atno 11005 bound_to 11000
  146.3459  140.1934  142.8589 LP  0  0  0  0  0  0  0  0  0  0  0  0  # atno 17320 bound_to 7965
  145.0176  140.8766  143.5186 LP  0  0  0  0  0  0  0  0  0  0  0  0  # atno 17321 bound_to 7965
  140.6206  143.9265  150.6523 LP  0  0  0  0  0  0  0  0  0  0  0  0  # atno 17342 bound_to 10162
  140.2537  143.3574  152.1383 LP  0  0  0  0  0  0  0  0  0  0  0  0  # atno 17343 bound_to 10162
  157.7432  131.0478  150.4965 LP  0  0  0  0  0  0  0  0  0  0  0  0  # atno 17370 bound_to 10713
  156.5133  130.4144  149.6289 LP  0  0  0  0  0  0  0  0  0  0  0  0  # atno 17371 bound_to 10713
  141.2042  133.6637  156.6108 LP  0  0  0  0  0  0  0  0  0  0  0  0  # atno 17394 bound_to 11000
  140.3505  134.7772  157.4464 LP  0  0  0  0  0  0  0  0  0  0  0  0  # atno 17395 bound_to 11000

$$$$
