AV-unprocessed.smi:3057|AV-procd|sdf|11663|dock1
  -GOLD-   2272017 63D 1   1.00000     0.00000
 Structure written by MMmdl.
 40 42  0  0  0  0  0  0  0  0  1 V2000
  147.3916  136.0770  154.5992 C   0  0  0  0  0  0  0  0  0  0  0  0
  148.2436  136.8789  155.6051 C   0  0  1  0  0  0  0  0  0  0  0  0
  148.8438  135.9629  156.6833 C   0  0  0  0  0  0  0  0  0  0  0  0
  150.2072  135.5530  156.1043 C   0  0  0  0  0  0  0  0  0  0  0  0
  150.5091  136.6880  155.1361 C   0  0  0  0  0  0  0  0  0  0  0  0
  151.6244  136.8871  154.6573 O   0  0  0  0  0  0  0  0  0  0  0  0
  149.4136  137.4431  154.9579 N   0  0  0  0  0  0  0  0  0  0  0  0
  149.2851  138.8103  154.4304 C   0  0  2  0  0  0  0  0  0  0  0  0
  150.3415  139.7949  154.9682 C   0  0  0  0  0  0  0  0  0  0  0  0
  151.5330  139.6553  154.6886 O   0  0  0  0  0  0  0  0  0  0  0  0
  149.8867  140.7648  155.7761 N   0  0  0  0  0  0  0  0  0  0  0  0
  150.7091  141.7840  156.4222 C   0  0  0  0  0  0  0  0  0  0  0  0
  150.7275  141.6760  157.9620 C   0  0  0  0  0  0  0  0  0  0  0  0
  151.3725  142.8645  158.6553 C   0  0  0  0  0  0  0  0  0  0  0  0
  151.9385  143.9158  157.9020 C   0  0  0  0  0  0  0  0  0  0  0  0
  152.5382  144.9879  158.5896 C   0  0  0  0  0  0  0  0  0  0  0  0
  152.5461  144.9697  159.9975 C   0  0  0  0  0  0  0  0  0  0  0  0
  151.9501  143.8761  160.6573 C   0  0  0  0  0  0  0  0  0  0  0  0
  151.3734  142.8419  160.0073 N   0  0  0  0  0  0  0  0  0  0  0  0
  147.8504  139.2759  154.7622 C   0  0  0  0  0  0  0  0  0  0  0  0
  147.3495  138.3211  156.2199 S   0  0  0  0  0  0  0  0  0  0  0  0
  147.9493  135.2391  154.1796 H   0  0  0  0  0  0  0  0  0  0  0  0
  147.0578  136.6931  153.7643 H   0  0  0  0  0  0  0  0  0  0  0  0
  146.5021  135.6703  155.0807 H   0  0  0  0  0  0  0  0  0  0  0  0
  148.9940  136.5136  157.6134 H   0  0  0  0  0  0  0  0  0  0  0  0
  148.2105  135.1041  156.9088 H   0  0  0  0  0  0  0  0  0  0  0  0
  150.9731  135.4599  156.8745 H   0  0  0  0  0  0  0  0  0  0  0  0
  150.1428  134.6147  155.5525 H   0  0  0  0  0  0  0  0  0  0  0  0
  149.3976  138.7568  153.3463 H   0  0  0  0  0  0  0  0  0  0  0  0
  148.8947  140.7986  155.9620 H   0  0  0  0  0  0  0  0  0  0  0  0
  151.7251  141.7538  156.0261 H   0  0  0  0  0  0  0  0  0  0  0  0
  150.2972  142.7522  156.1363 H   0  0  0  0  0  0  0  0  0  0  0  0
  149.7079  141.5655  158.3327 H   0  0  0  0  0  0  0  0  0  0  0  0
  151.2495  140.7656  158.2590 H   0  0  0  0  0  0  0  0  0  0  0  0
  151.9233  143.8970  156.8220 H   0  0  0  0  0  0  0  0  0  0  0  0
  152.9857  145.8073  158.0465 H   0  0  0  0  0  0  0  0  0  0  0  0
  152.9976  145.7744  160.5584 H   0  0  0  0  0  0  0  0  0  0  0  0
  151.9376  143.8304  161.7363 H   0  0  0  0  0  0  0  0  0  0  0  0
  147.7683  140.3468  154.9493 H   0  0  0  0  0  0  0  0  0  0  0  0
  147.1761  139.0383  153.9395 H   0  0  0  0  0  0  0  0  0  0  0  0
  1  2  1  0  0  0  0
  1 22  1  0  0  0  0
  1 23  1  0  0  0  0
  1 24  1  0  0  0  0
  2  7  1  0  0  0  0
  2 21  1  0  0  0  0
  2  3  1  0  0  0  0
  3  4  1  0  0  0  0
  3 25  1  0  0  0  0
  3 26  1  0  0  0  0
  4  5  1  0  0  0  0
  4 27  1  0  0  0  0
  4 28  1  0  0  0  0
  5  6  2  0  0  0  0
  5  7  1  0  0  0  0
  7  8  1  0  0  0  0
  8  9  1  0  0  0  0
  8 20  1  0  0  0  0
  8 29  1  0  0  0  0
  9 10  2  0  0  0  0
  9 11  1  0  0  0  0
 11 12  1  0  0  0  0
 11 30  1  0  0  0  0
 12 13  1  0  0  0  0
 12 31  1  0  0  0  0
 12 32  1  0  0  0  0
 13 14  1  0  0  0  0
 13 33  1  0  0  0  0
 13 34  1  0  0  0  0
 14 19  1  0  0  0  0
 14 15  2  0  0  0  0
 15 16  1  0  0  0  0
 15 35  1  0  0  0  0
 16 17  2  0  0  0  0
 16 36  1  0  0  0  0
 17 18  1  0  0  0  0
 17 37  1  0  0  0  0
 18 19  2  0  0  0  0
 18 38  1  0  0  0  0
 20 21  1  0  0  0  0
 20 39  1  0  0  0  0
 20 40  1  0  0  0  0
M  END
> <s_m_source_file>
AV-unprocessed.smi

> <i_m_source_file_index>
3057

> <i_lp_mmshare_version>
43012

> <i_f3d_flags>
0

> <s_epik_input>
W0NIMl0xW0NIMl1DKD1PKU4oW0NAQF0xMltDSDNdKVtDQEhdKFtDSDJdUzIpQyg9TylbTkhdW0NIMl1bQ0gyXWMzW2NIXVtjSF1bY0hdW2NIXW4z

> <s_epik_cmdline>
J2VwaWtfcHl0aG9uJywgJy1waCcsICc3LjAnLCAnLXRuJywgJzgnLCAnLW1hJywgJzIwMCcsICctbWV0YWxfYmluZGluZycsICctaW1hZScsICc8aW5maWxlLm1hZT4nLCAnLW9tYWUnLCAnPG91dGZpbGUubWFlPic=

> <r_epik_Ionization_Penalty>
0.0249631

> <r_epik_Ionization_Penalty_Charging>
0

> <r_epik_Ionization_Penalty_Neutral>
0.0249631

> <r_epik_State_Penalty>
0.0202943

> <r_epik_Charging_Adjusted_Penalty>
0.0202943

> <i_epik_Tot_Q>
0

> <i_epik_Tot_abs_Q>
0

> <r_epik_Metal_State_Penalty>
0.0194661

> <b_epik_Metal_Only>
0

> <s_lp_Force_Field>
OPLS_2005

> <r_lp_Energy>
26.5663

> <b_lp_Chiralities_Consistent>
1

> <s_lp_Variant>
AV-unprocessed.smi:3057-3

> <Gold.Version>
5.8.1

> <Gold.Id.Protein>
6NUR|6NUR_protein|mol2

> <Gold.PLP.Fitness>
40.6770

> <Gold.PLP.PLP>
-36.1185

> <Gold.PLP.part.hbond>
-3.0000

> <Gold.PLP.part.metal>
0.0000

> <Gold.PLP.part.buried>
-5.3945

> <Gold.PLP.part.nonpolar>
-27.7789

> <Gold.PLP.part.repulsive>
0.3032

> <Gold.PLP.ligand.clash>
1.1326

> <Gold.PLP.ligand.torsion>
0.1590

> <Gold.PLP.Chemscore.Hbond>
2.0000

> <Gold.PLP.Chemscore.CHOScore>
0.0000

> <Gold.PLP.Chemscore.Metal>
0.0000

> <Gold.Chemscore.Hbonds>
donor molecule, donor type, donor heavy atom, donor atom, acceptor molecule, acceptor atom, score
      P1  H  7989  7998       L1    10  0.95
      P1  H 10752 10765       L1     6  1.00

> <Gold.PLP.Chemscore.Internal.Correction>
0.0091

> <Gold.Rescore>
     Score         DG    S(hbond)    S(metal)    S(lipo)     H(rot)  DE(clash)    DE(int)     intcor
     16.53     -18.15       1.92        0.00      86.94       1.53       0.02       1.60       ----

> <Gold.Chemscore.Fitness>
16.5321

> <Gold.Chemscore.DG>
-18.1520

> <Gold.Chemscore.ZeroCoef>
-5.4800

> <Gold.Chemscore.Hbond>
1.9241

> <Gold.Chemscore.Metal>
0.0000

> <Gold.Chemscore.Lipo>
86.9417

> <Gold.Chemscore.Internal_Hbond>
0.0000

> <Gold.Chemscore.DEClash>
0.0202

> <Gold.Chemscore.DEInternal>
1.5997

> <Gold.Chemscore.Rot>
1.5339

> <Gold.Chemscore.Internal.Correction>
   9.000000E+99

> <Gold.Chemscore.Hbonds>
donor molecule, donor type, donor heavy atom, donor atom, acceptor molecule, acceptor atom, score
      P1  H  7989  7998       L1    10  0.21
      P1  H 10752 10765       L1     6  1.00

> <Gold.Chemscore.Hbond.Weighted>
-6.4266

> <Gold.Chemscore.Metal.Weighted>
-0.0000

> <Gold.Chemscore.Lipo.Weighted>
-10.1722

> <Gold.Chemscore.Internal_Hbond.Weighted>
0.0000

> <Gold.Chemscore.DEClash.Weighted>
0.0202

> <Gold.Chemscore.DEInternal.Weighted>
1.5997

> <Gold.Chemscore.Rot.Weighted>
3.9267

> <Gold.Chemscore.Internal.Correction.Weighted>
   9.000000E+99

> <Gold.Protein.RotatedTorsions>
[ 6907 6896 6895 6894 ] final    3.23 input  -60.11 | X-H torsion
[ 7974 7965 7964 7962 ] final  -46.54 input  175.53 | X-H torsion
[ 8008 7997 7996 7995 ] final -129.36 input   59.86 | X-H torsion
[ 10167 10162 10161 10158 ] final -168.19 input  -65.29 | X-H torsion
[ 10718 10713 10712 10709 ] final  143.55 input   66.30 | X-H torsion
[ 10763 10752 10751 10750 ] final  164.35 input  -60.55 | X-H torsion
[ 11005 11000 10999 10996 ] final    0.54 input  -57.11 | X-H torsion

> <Gold.Protein.ActiveResidues>
 VAL166  LYS551  ARG553  GLY616  TRP617  ASP618  TYR619  PRO620  LYS621  CYS622 
 ASP623  PHE694  ASN695  SER759  ASP760  ASP761  ALA762  ILE779  LEU786  VAL792 
 PHE793  MET794  SER795  GLU796  ALA797  LYS798  CYS799  TRP800  GLU811  SER814 

> <Gold.Protein.RotatedAtoms>
  151.6218  135.1031  160.0102 H   0  0  0  0  0  0  0  0  0  0  0  0  # atno 6907 bound_to 6896
  152.4154  133.7025  159.6443 H   0  0  0  0  0  0  0  0  0  0  0  0  # atno 6908 bound_to 6896
  150.8042  133.8467  159.3235 H   0  0  0  0  0  0  0  0  0  0  0  0  # atno 6909 bound_to 6896
  145.9709  140.7384  142.9411 H   0  0  0  0  0  0  0  0  0  0  0  0  # atno 7974 bound_to 7965
  155.2779  140.0443  157.3013 H   0  0  0  0  0  0  0  0  0  0  0  0  # atno 8008 bound_to 7997
  154.5614  140.2347  155.8297 H   0  0  0  0  0  0  0  0  0  0  0  0  # atno 8009 bound_to 7997
  156.2050  140.3015  155.9616 H   0  0  0  0  0  0  0  0  0  0  0  0  # atno 8010 bound_to 7997
  139.6001  144.1029  152.1733 H   0  0  0  0  0  0  0  0  0  0  0  0  # atno 10167 bound_to 10162
  157.3676  131.0974  151.0858 H   0  0  0  0  0  0  0  0  0  0  0  0  # atno 10718 bound_to 10713
  154.3075  135.2758  155.2582 H   0  0  0  0  0  0  0  0  0  0  0  0  # atno 10763 bound_to 10752
  154.4991  135.5813  153.6521 H   0  0  0  0  0  0  0  0  0  0  0  0  # atno 10764 bound_to 10752
  152.9892  135.6153  154.3250 H   0  0  0  0  0  0  0  0  0  0  0  0  # atno 10765 bound_to 10752
  140.6254  133.9623  155.8246 H   0  0  0  0  0  0  0  0  0  0  0  0  # atno 11005 bound_to 11000
  144.6836  140.2747  143.7301 LP  0  0  0  0  0  0  0  0  0  0  0  0  # atno 17320 bound_to 7965
  145.7907  139.1926  143.2104 LP  0  0  0  0  0  0  0  0  0  0  0  0  # atno 17321 bound_to 7965
  140.0623  144.5846  150.7253 LP  0  0  0  0  0  0  0  0  0  0  0  0  # atno 17342 bound_to 10162
  140.7243  143.2620  151.4174 LP  0  0  0  0  0  0  0  0  0  0  0  0  # atno 17343 bound_to 10162
  157.1974  130.6379  149.5726 LP  0  0  0  0  0  0  0  0  0  0  0  0  # atno 17370 bound_to 10713
  155.9749  130.4702  150.6422 LP  0  0  0  0  0  0  0  0  0  0  0  0  # atno 17371 bound_to 10713
  141.0713  134.0201  157.3522 LP  0  0  0  0  0  0  0  0  0  0  0  0  # atno 17394 bound_to 11000
  139.9137  135.0194  156.7795 LP  0  0  0  0  0  0  0  0  0  0  0  0  # atno 17395 bound_to 11000

$$$$
