AV-unprocessed.smi:273|AV-procd|sdf|2056|dock4
  -GOLD-   2262021293D 1   1.00000     0.00000
 Structure written by MMmdl.
 59 62  0  0  0  0  0  0  0  0  1 V2000
  152.6909  144.7404  158.0571 C   0  0  0  0  0  0  0  0  0  0  0  0
  151.3253  144.3486  158.6297 C   0  0  0  0  0  0  0  0  0  0  0  0
  150.5549  143.6019  157.6457 N   0  0  0  0  0  0  0  0  0  0  0  0
  150.2072  142.3110  157.7659 C   0  0  0  0  0  0  0  0  0  0  0  0
  150.5165  141.6346  158.7472 O   0  0  0  0  0  0  0  0  0  0  0  0
  149.3748  141.6763  156.6339 C   0  0  0  0  0  0  0  0  0  0  0  0
  148.0745  141.0465  157.1798 C   0  0  0  0  0  0  0  0  0  0  0  0
  147.2300  140.4328  156.0515 C   0  0  0  0  0  0  0  0  0  0  0  0
  148.0144  139.4808  155.2670 N   0  0  0  0  0  0  0  0  0  0  0  0
  147.2723  138.6584  154.4826 C   0  0  0  0  0  0  0  0  0  0  0  0
  146.6111  139.1600  153.4046 N   0  0  0  0  0  0  0  0  0  0  0  0
  145.8640  138.3604  152.6378 C   0  0  0  0  0  0  0  0  0  0  0  0
  145.6427  137.0508  152.7653 N   0  0  0  0  0  0  0  0  0  0  0  0
  146.3106  136.5401  153.8386 C   0  0  0  0  0  0  0  0  0  0  0  0
  147.1409  137.2644  154.7398 C   0  0  0  0  0  0  0  0  0  0  0  0
  147.6606  136.4024  155.6991 N   0  0  0  0  0  0  0  0  0  0  0  0
  147.1581  135.2385  155.3891 C   0  0  0  0  0  0  0  0  0  0  0  0
  146.3297  135.2332  154.2899 N   0  0  0  0  0  0  0  0  0  0  0  0
  145.6323  134.0904  153.7276 C   0  0  0  0  0  0  0  0  0  0  0  0
  144.6838  134.4710  152.5637 C   0  0  2  0  0  0  0  0  0  0  0  0
  143.3858  135.1589  153.0526 C   0  0  0  0  0  0  0  0  0  0  0  0
  142.5254  134.2418  153.6969 O   0  0  0  0  0  0  0  0  0  0  0  0
  144.3999  133.2590  151.6412 C   0  0  1  0  0  0  0  0  0  0  0  0
  143.8402  133.6118  150.2740 C   0  0  0  0  0  0  0  0  0  0  0  0
  144.1222  132.3480  149.4678 C   0  0  0  0  0  0  0  0  0  0  0  0
  145.3011  131.7824  150.0301 O   0  0  0  0  0  0  0  0  0  0  0  0
  145.6453  132.4676  151.2294 C   0  0  0  0  0  0  0  0  0  0  0  0
  149.2499  140.0227  154.7007 C   0  0  0  0  0  0  0  0  0  0  0  0
  150.1417  140.6219  155.7996 C   0  0  0  0  0  0  0  0  0  0  0  0
  153.2678  145.3100  158.7859 H   0  0  0  0  0  0  0  0  0  0  0  0
  152.5826  145.3566  157.1639 H   0  0  0  0  0  0  0  0  0  0  0  0
  153.2728  143.8580  157.7891 H   0  0  0  0  0  0  0  0  0  0  0  0
  151.4603  143.7456  159.5291 H   0  0  0  0  0  0  0  0  0  0  0  0
  150.7714  145.2431  158.9191 H   0  0  0  0  0  0  0  0  0  0  0  0
  150.2650  144.0980  156.8155 H   0  0  0  0  0  0  0  0  0  0  0  0
  149.0992  142.4941  155.9665 H   0  0  0  0  0  0  0  0  0  0  0  0
  148.3160  140.2723  157.9099 H   0  0  0  0  0  0  0  0  0  0  0  0
  147.4758  141.7916  157.7055 H   0  0  0  0  0  0  0  0  0  0  0  0
  146.3464  139.9627  156.4817 H   0  0  0  0  0  0  0  0  0  0  0  0
  146.8707  141.2204  155.3877 H   0  0  0  0  0  0  0  0  0  0  0  0
  145.3704  138.8390  151.8047 H   0  0  0  0  0  0  0  0  0  0  0  0
  147.3721  134.3476  155.9618 H   0  0  0  0  0  0  0  0  0  0  0  0
  146.3860  133.3773  153.3933 H   0  0  0  0  0  0  0  0  0  0  0  0
  145.0752  133.5978  154.5253 H   0  0  0  0  0  0  0  0  0  0  0  0
  145.2096  135.2124  151.9602 H   0  0  0  0  0  0  0  0  0  0  0  0
  143.6101  135.9725  153.7423 H   0  0  0  0  0  0  0  0  0  0  0  0
  142.8504  135.6153  152.2205 H   0  0  0  0  0  0  0  0  0  0  0  0
  143.0008  133.4391  153.8485 H   0  0  0  0  0  0  0  0  0  0  0  0
  143.7051  132.5771  152.1344 H   0  0  0  0  0  0  0  0  0  0  0  0
  142.7793  133.8628  150.2935 H   0  0  0  0  0  0  0  0  0  0  0  0
  144.3833  134.4558  149.8460 H   0  0  0  0  0  0  0  0  0  0  0  0
  143.3065  131.6331  149.5822 H   0  0  0  0  0  0  0  0  0  0  0  0
  144.2466  132.5533  148.4044 H   0  0  0  0  0  0  0  0  0  0  0  0
  146.4765  133.1402  151.0123 H   0  0  0  0  0  0  0  0  0  0  0  0
  145.9708  131.7672  151.9989 H   0  0  0  0  0  0  0  0  0  0  0  0
  149.7986  139.2373  154.1790 H   0  0  0  0  0  0  0  0  0  0  0  0
  149.0036  140.7888  153.9638 H   0  0  0  0  0  0  0  0  0  0  0  0
  151.0233  141.0646  155.3343 H   0  0  0  0  0  0  0  0  0  0  0  0
  150.4974  139.8189  156.4477 H   0  0  0  0  0  0  0  0  0  0  0  0
  1  2  1  0  0  0  0
  1 30  1  0  0  0  0
  1 31  1  0  0  0  0
  1 32  1  0  0  0  0
  2  3  1  0  0  0  0
  2 33  1  0  0  0  0
  2 34  1  0  0  0  0
  3  4  1  0  0  0  0
  3 35  1  0  0  0  0
  4  5  2  0  0  0  0
  4  6  1  0  0  0  0
  6 29  1  0  0  0  0
  6  7  1  0  0  0  0
  6 36  1  0  0  0  0
  7  8  1  0  0  0  0
  7 37  1  0  0  0  0
  7 38  1  0  0  0  0
  8  9  1  0  0  0  0
  8 39  1  0  0  0  0
  8 40  1  0  0  0  0
  9 10  1  0  0  0  0
  9 28  1  0  0  0  0
 10 15  1  0  0  0  0
 10 11  2  0  0  0  0
 11 12  1  0  0  0  0
 12 13  2  0  0  0  0
 12 41  1  0  0  0  0
 13 14  1  0  0  0  0
 14 18  1  0  0  0  0
 14 15  2  0  0  0  0
 15 16  1  0  0  0  0
 16 17  2  0  0  0  0
 17 18  1  0  0  0  0
 17 42  1  0  0  0  0
 18 19  1  0  0  0  0
 19 20  1  0  0  0  0
 19 43  1  0  0  0  0
 19 44  1  0  0  0  0
 20 21  1  0  0  0  0
 20 23  1  0  0  0  0
 20 45  1  0  0  0  0
 21 22  1  0  0  0  0
 21 46  1  0  0  0  0
 21 47  1  0  0  0  0
 22 48  1  0  0  0  0
 23 27  1  0  0  0  0
 23 24  1  0  0  0  0
 23 49  1  0  0  0  0
 24 25  1  0  0  0  0
 24 50  1  0  0  0  0
 24 51  1  0  0  0  0
 25 26  1  0  0  0  0
 25 52  1  0  0  0  0
 25 53  1  0  0  0  0
 26 27  1  0  0  0  0
 27 54  1  0  0  0  0
 27 55  1  0  0  0  0
 28 29  1  0  0  0  0
 28 56  1  0  0  0  0
 28 57  1  0  0  0  0
 29 58  1  0  0  0  0
 29 59  1  0  0  0  0
M  END
> <s_m_source_file>
AV-unprocessed.smi

> <i_m_source_file_index>
273

> <i_lp_mmshare_version>
43012

> <i_f3d_flags>
0

> <s_epik_input>
W0NIM11bQ0gyXVtOSF1DKD1PKVtDSF0xW0NIMl1bQ0gyXU4oW0NIMl1bQ0gyXTEpYyhuW2NIXW4yKWMoYzIzKW5bY0hdbjNbQ0gyXVtDQEhdKFtDSDJdW09IXSlbQ0BASF00W0NIMl1bQ0gyXU9bQ0gyXTQ=

> <s_epik_cmdline>
J2VwaWtfcHl0aG9uJywgJy1waCcsICc3LjAnLCAnLXRuJywgJzgnLCAnLW1hJywgJzIwMCcsICctbWV0YWxfYmluZGluZycsICctaW1hZScsICc8aW5maWxlLm1hZT4nLCAnLW9tYWUnLCAnPG91dGZpbGUubWFlPic=

> <r_lp_tautomer_probability>
1

> <r_epik_Ionization_Penalty>
0.00226556

> <r_epik_Ionization_Penalty_Charging>
0

> <r_epik_Ionization_Penalty_Neutral>
0.00226556

> <r_epik_State_Penalty>
0.00139883

> <r_epik_Charging_Adjusted_Penalty>
0.00139883

> <i_epik_Tot_Q>
0

> <i_epik_Tot_abs_Q>
0

> <r_epik_Metal_State_Penalty>
-0

> <b_epik_Metal_Only>
0

> <s_lp_Force_Field>
OPLS_2005

> <r_lp_Energy>
43.2491

> <b_lp_Chiralities_Consistent>
1

> <s_lp_Variant>
AV-unprocessed.smi:273-3

> <Gold.Version>
5.8.1

> <Gold.Id.Protein>
6NUR|6NUR_protein|mol2

> <Gold.PLP.Fitness>
46.9005

> <Gold.PLP.PLP>
-38.3523

> <Gold.PLP.part.hbond>
-2.0000

> <Gold.PLP.part.metal>
0.0000

> <Gold.PLP.part.buried>
-6.5870

> <Gold.PLP.part.nonpolar>
-31.9586

> <Gold.PLP.part.repulsive>
0.6916

> <Gold.PLP.ligand.clash>
0.0000

> <Gold.PLP.ligand.torsion>
0.6894

> <Gold.PLP.Chemscore.Hbond>
1.5532

> <Gold.PLP.Chemscore.CHOScore>
1.5509

> <Gold.PLP.Chemscore.Metal>
0.0000

> <Gold.Chemscore.Hbonds>
donor molecule, donor type, donor heavy atom, donor atom, acceptor molecule, acceptor atom, score
      L1  H     3    35       P1  8028  1.00
      L1  H    22    48       P1 10957  0.72
      L1  C    12    41       P1 10171  1.00
      L1  C    12    41       P1 10175  0.69

> <Gold.PLP.Chemscore.Internal.Correction>
0.6148

> <Gold.Rescore>
     Score         DG    S(hbond)    S(metal)    S(lipo)     H(rot)  DE(clash)    DE(int)     intcor
      9.51     -13.18       1.54        0.00      92.39       3.22       0.31       3.37       ----

> <Gold.Chemscore.Fitness>
9.5053

> <Gold.Chemscore.DG>
-13.1800

> <Gold.Chemscore.ZeroCoef>
-5.4800

> <Gold.Chemscore.Hbond>
1.5402

> <Gold.Chemscore.Metal>
0.0000

> <Gold.Chemscore.Lipo>
92.3950

> <Gold.Chemscore.Internal_Hbond>
0.0000

> <Gold.Chemscore.DEClash>
0.3092

> <Gold.Chemscore.DEInternal>
3.3654

> <Gold.Chemscore.Rot>
3.2244

> <Gold.Chemscore.Internal.Correction>
   9.000000E+99

> <Gold.Chemscore.Hbonds>
donor molecule, donor type, donor heavy atom, donor atom, acceptor molecule, acceptor atom, score
      L1  H     3    35       P1  8028  0.94
      L1  H    22    48       P1 10957  0.71

> <Gold.Chemscore.Hbond.Weighted>
-5.1443

> <Gold.Chemscore.Metal.Weighted>
-0.0000

> <Gold.Chemscore.Lipo.Weighted>
-10.8102

> <Gold.Chemscore.Internal_Hbond.Weighted>
0.0000

> <Gold.Chemscore.DEClash.Weighted>
0.3092

> <Gold.Chemscore.DEInternal.Weighted>
3.3654

> <Gold.Chemscore.Rot.Weighted>
8.2545

> <Gold.Chemscore.Internal.Correction.Weighted>
   9.000000E+99

> <Gold.Protein.RotatedTorsions>
[ 6907 6896 6895 6894 ] final  109.04 input  -60.11 | X-H torsion
[ 7974 7965 7964 7962 ] final   17.00 input  175.53 | X-H torsion
[ 8008 7997 7996 7995 ] final   -8.93 input   59.86 | X-H torsion
[ 10167 10162 10161 10158 ] final  105.68 input  -65.29 | X-H torsion
[ 10718 10713 10712 10709 ] final  -32.64 input   66.30 | X-H torsion
[ 10763 10752 10751 10750 ] final  115.83 input  -60.55 | X-H torsion
[ 11005 11000 10999 10996 ] final  158.67 input  -57.11 | X-H torsion

> <Gold.Protein.ActiveResidues>
 VAL166  LYS551  ARG553  GLY616  TRP617  ASP618  TYR619  PRO620  LYS621  CYS622 
 ASP623  PHE694  ASN695  SER759  ASP760  ASP761  ALA762  ILE779  LEU786  VAL792 
 PHE793  MET794  SER795  GLU796  ALA797  LYS798  CYS799  TRP800  GLU811  SER814 

> <Gold.Protein.RotatedAtoms>
  152.5085  133.9002  159.7437 H   0  0  0  0  0  0  0  0  0  0  0  0  # atno 6907 bound_to 6896
  150.9420  133.6637  159.2796 H   0  0  0  0  0  0  0  0  0  0  0  0  # atno 6908 bound_to 6896
  151.3946  135.0966  159.9589 H   0  0  0  0  0  0  0  0  0  0  0  0  # atno 6909 bound_to 6896
  146.2232  139.8665  142.8595 H   0  0  0  0  0  0  0  0  0  0  0  0  # atno 7974 bound_to 7965
  154.5694  140.2368  155.8214 H   0  0  0  0  0  0  0  0  0  0  0  0  # atno 8008 bound_to 7997
  156.2095  140.3030  155.9658 H   0  0  0  0  0  0  0  0  0  0  0  0  # atno 8009 bound_to 7997
  155.2740  140.0419  157.3000 H   0  0  0  0  0  0  0  0  0  0  0  0  # atno 8010 bound_to 7997
  139.7072  144.7084  151.1087 H   0  0  0  0  0  0  0  0  0  0  0  0  # atno 10167 bound_to 10162
  156.3724  130.4342  149.7534 H   0  0  0  0  0  0  0  0  0  0  0  0  # atno 10718 bound_to 10713
  153.5281  135.3584  155.2663 H   0  0  0  0  0  0  0  0  0  0  0  0  # atno 10763 bound_to 10752
  154.8729  135.4062  154.3182 H   0  0  0  0  0  0  0  0  0  0  0  0  # atno 10764 bound_to 10752
  153.3866  135.7070  153.6593 H   0  0  0  0  0  0  0  0  0  0  0  0  # atno 10765 bound_to 10752
  140.1887  134.8423  157.2888 H   0  0  0  0  0  0  0  0  0  0  0  0  # atno 11005 bound_to 11000
  145.2651  141.0090  143.3804 LP  0  0  0  0  0  0  0  0  0  0  0  0  # atno 17320 bound_to 7965
  144.9267  139.4346  143.6515 LP  0  0  0  0  0  0  0  0  0  0  0  0  # atno 17321 bound_to 7965
  140.7724  143.5342  150.9387 LP  0  0  0  0  0  0  0  0  0  0  0  0  # atno 17342 bound_to 10162
  139.9026  143.6817  152.3129 LP  0  0  0  0  0  0  0  0  0  0  0  0  # atno 17343 bound_to 10162
  156.4657  130.7973  151.2992 LP  0  0  0  0  0  0  0  0  0  0  0  0  # atno 17370 bound_to 10713
  157.7485  131.0052  150.3104 LP  0  0  0  0  0  0  0  0  0  0  0  0  # atno 17371 bound_to 10713
  140.2184  134.4054  155.7578 LP  0  0  0  0  0  0  0  0  0  0  0  0  # atno 17394 bound_to 11000
  141.2225  133.7153  156.8450 LP  0  0  0  0  0  0  0  0  0  0  0  0  # atno 17395 bound_to 11000

$$$$
