AV-unprocessed.smi:3349|AV-procd|sdf|12937|dock2
  -GOLD-   2272019373D 1   1.00000     0.00000
 Structure written by MMmdl.
 41 42  0  0  0  0  0  0  0  0  2 V2000
  148.0568  131.8659  154.1066 C   0  0  0  0  0  0  0  0  0  0  0  0
  148.5313  133.2619  153.6342 C   0  0  2  0  0  0  0  0  0  0  0  0
  148.9952  134.1114  154.8530 C   0  0  0  0  0  0  0  0  0  0  0  0
  149.2759  135.5042  154.5145 N   0  0  0  0  0  0  0  0  0  0  0  0
  149.7594  136.4217  155.3678 C   0  0  0  0  0  0  0  0  0  0  0  0
  150.0138  136.1713  156.5464 O   0  0  0  0  0  0  0  0  0  0  0  0
  149.9847  137.8307  154.7984 C   0  0  1  0  0  0  0  0  0  0  0  0
  149.0300  138.8759  155.4101 C   0  0  0  0  0  0  0  0  0  0  0  0
  151.3849  138.2117  154.9372 N   0  0  0  0  0  0  0  0  0  0  0  0
  151.9233  139.3521  155.3748 C   0  0  0  0  0  0  0  0  0  0  0  0
  153.2476  139.3777  155.3242 N   0  0  0  0  0  0  0  0  0  0  0  0
  153.4794  138.1382  154.7990 C   0  0  0  0  0  0  0  0  0  0  0  0
  152.3986  137.4036  154.5374 N   0  0  0  0  0  0  0  0  0  0  0  0
  147.4739  133.9439  152.8143 N   0  3  0  0  0  0  0  0  0  0  0  0
  147.0694  133.2009  151.5873 C   0  0  0  0  0  0  0  0  0  0  0  0
  145.9785  133.9508  150.8036 C   0  0  0  0  0  0  0  0  0  0  0  0
  144.8587  134.1869  151.6411 O   0  0  0  0  0  0  0  0  0  0  0  0
  145.2077  135.0102  152.7420 C   0  0  0  0  0  0  0  0  0  0  0  0
  146.2614  134.2979  153.6056 C   0  0  0  0  0  0  0  0  0  0  0  0
  148.7845  131.3827  154.7579 H   0  0  0  0  0  0  0  0  0  0  0  0
  147.9127  131.1730  153.2794 H   0  0  0  0  0  0  0  0  0  0  0  0
  147.1192  131.9337  154.6589 H   0  0  0  0  0  0  0  0  0  0  0  0
  149.3965  133.1190  152.9849 H   0  0  0  0  0  0  0  0  0  0  0  0
  148.2445  134.1306  155.6428 H   0  0  0  0  0  0  0  0  0  0  0  0
  149.8978  133.6806  155.2877 H   0  0  0  0  0  0  0  0  0  0  0  0
  149.0947  135.7896  153.5628 H   0  0  0  0  0  0  0  0  0  0  0  0
  149.7699  137.7898  153.7291 H   0  0  0  0  0  0  0  0  0  0  0  0
  147.9882  138.5975  155.2480 H   0  0  0  0  0  0  0  0  0  0  0  0
  149.1806  139.8537  154.9517 H   0  0  0  0  0  0  0  0  0  0  0  0
  149.1771  138.9898  156.4846 H   0  0  0  0  0  0  0  0  0  0  0  0
  151.3342  140.1830  155.7339 H   0  0  0  0  0  0  0  0  0  0  0  0
  154.4741  137.7689  154.5971 H   0  0  0  0  0  0  0  0  0  0  0  0
  147.9129  133.0766  150.9103 H   0  0  0  0  0  0  0  0  0  0  0  0
  146.7170  132.2051  151.8613 H   0  0  0  0  0  0  0  0  0  0  0  0
  146.3603  134.8938  150.4084 H   0  0  0  0  0  0  0  0  0  0  0  0
  145.6577  133.3563  149.9477 H   0  0  0  0  0  0  0  0  0  0  0  0
  145.5753  135.9767  152.3930 H   0  0  0  0  0  0  0  0  0  0  0  0
  144.3121  135.2060  153.3319 H   0  0  0  0  0  0  0  0  0  0  0  0
  145.8329  133.3934  154.0402 H   0  0  0  0  0  0  0  0  0  0  0  0
  146.5092  134.9641  154.4292 H   0  0  0  0  0  0  0  0  0  0  0  0
  147.8749  134.8141  152.4945 H   0  0  0  0  0  0  0  0  0  0  0  0
  1  2  1  0  0  0  0
  1 20  1  0  0  0  0
  1 21  1  0  0  0  0
  1 22  1  0  0  0  0
  2  3  1  0  0  0  0
  2 14  1  0  0  0  0
  2 23  1  0  0  0  0
  3  4  1  0  0  0  0
  3 24  1  0  0  0  0
  3 25  1  0  0  0  0
  4  5  1  0  0  0  0
  4 26  1  0  0  0  0
  5  6  2  0  0  0  0
  5  7  1  0  0  0  0
  7  8  1  0  0  0  0
  7  9  1  0  0  0  0
  7 27  1  0  0  0  0
  8 28  1  0  0  0  0
  8 29  1  0  0  0  0
  8 30  1  0  0  0  0
  9 13  1  0  0  0  0
  9 10  1  0  0  0  0
 10 11  2  0  0  0  0
 10 31  1  0  0  0  0
 11 12  1  0  0  0  0
 12 13  2  0  0  0  0
 12 32  1  0  0  0  0
 14 19  1  0  0  0  0
 14 15  1  0  0  0  0
 14 41  1  0  0  0  0
 15 16  1  0  0  0  0
 15 33  1  0  0  0  0
 15 34  1  0  0  0  0
 16 17  1  0  0  0  0
 16 35  1  0  0  0  0
 16 36  1  0  0  0  0
 17 18  1  0  0  0  0
 18 19  1  0  0  0  0
 18 37  1  0  0  0  0
 18 38  1  0  0  0  0
 19 39  1  0  0  0  0
 19 40  1  0  0  0  0
M  CHG  1  14   1
M  END
> <s_m_source_file>
AV-unprocessed.smi

> <i_m_source_file_index>
3349

> <i_lp_mmshare_version>
43012

> <i_f3d_flags>
0

> <s_epik_input>
W0NIMl0xW0NIMl1PW0NIMl1bQ0gyXU4xW0NASF0oW0NIM10pW0NIMl1bTkhdQyg9TylbQ0BIXShbQ0gzXSluMltjSF1uW2NIXW4y

> <s_epik_cmdline>
J2VwaWtfcHl0aG9uJywgJy1waCcsICc3LjAnLCAnLXRuJywgJzgnLCAnLW1hJywgJzIwMCcsICctbWV0YWxfYmluZGluZycsICctaW1hZScsICc8aW5maWxlLm1hZT4nLCAnLW9tYWUnLCAnPG91dGZpbGUubWFlPic=

> <r_lp_tautomer_probability>
1

> <r_epik_Ionization_Penalty>
0.71326

> <r_epik_Ionization_Penalty_Charging>
0.713252

> <r_epik_Ionization_Penalty_Neutral>
8.10337e-06

> <r_epik_State_Penalty>
0.737017

> <r_epik_Charging_Adjusted_Penalty>
1.45027

> <i_epik_Tot_Q>
1

> <i_epik_Tot_abs_Q>
1

> <r_epik_Metal_State_Penalty>
0.73702

> <b_epik_Metal_Only>
0

> <s_lp_Force_Field>
OPLS_2005

> <r_lp_Energy>
26.6465

> <b_lp_Chiralities_Consistent>
1

> <s_lp_Variant>
AV-unprocessed.smi:3349-7

> <Gold.Version>
5.8.1

> <Gold.Id.Protein>
6NUR|6NUR_protein|mol2

> <Gold.PLP.Fitness>
44.8063

> <Gold.PLP.PLP>
-31.2253

> <Gold.PLP.part.hbond>
-4.3728

> <Gold.PLP.part.metal>
0.0000

> <Gold.PLP.part.buried>
-4.2250

> <Gold.PLP.part.nonpolar>
-22.8346

> <Gold.PLP.part.repulsive>
0.2622

> <Gold.PLP.ligand.clash>
0.0000

> <Gold.PLP.ligand.torsion>
0.3057

> <Gold.PLP.Chemscore.Hbond>
4.6720

> <Gold.PLP.Chemscore.CHOScore>
0.0000

> <Gold.PLP.Chemscore.Metal>
0.0000

> <Gold.Chemscore.Hbonds>
donor molecule, donor type, donor heavy atom, donor atom, acceptor molecule, acceptor atom, score
      L1  H     4    26       P1  7948  1.00
      L1  H    14    41       P1  7948  2.00
      P1  H  7997  8008       L1    11  1.00
      P1  H 10752 10763       L1    13  0.64

> <Gold.PLP.Chemscore.Internal.Correction>
0.1764

> <Gold.Rescore>
     Score         DG    S(hbond)    S(metal)    S(lipo)     H(rot)  DE(clash)    DE(int)     intcor
     13.41     -13.78       3.06        0.00      41.13       2.63       0.03       0.34       ----

> <Gold.Chemscore.Fitness>
13.4081

> <Gold.Chemscore.DG>
-13.7800

> <Gold.Chemscore.ZeroCoef>
-5.4800

> <Gold.Chemscore.Hbond>
3.0622

> <Gold.Chemscore.Metal>
0.0000

> <Gold.Chemscore.Lipo>
41.1323

> <Gold.Chemscore.Internal_Hbond>
0.0000

> <Gold.Chemscore.DEClash>
0.0326

> <Gold.Chemscore.DEInternal>
0.3393

> <Gold.Chemscore.Rot>
2.6329

> <Gold.Chemscore.Internal.Correction>
   9.000000E+99

> <Gold.Chemscore.Hbonds>
donor molecule, donor type, donor heavy atom, donor atom, acceptor molecule, acceptor atom, score
      L1  H     4    26       P1  7948  0.82
      L1  H    14    41       P1  7948  0.82
      P1  H  7997  8008       L1    11  0.94
      P1  H 10752 10763       L1    13  0.35

> <Gold.Chemscore.Hbond.Weighted>
-10.2278

> <Gold.Chemscore.Metal.Weighted>
-0.0000

> <Gold.Chemscore.Lipo.Weighted>
-4.8125

> <Gold.Chemscore.Internal_Hbond.Weighted>
0.0000

> <Gold.Chemscore.DEClash.Weighted>
0.0326

> <Gold.Chemscore.DEInternal.Weighted>
0.3393

> <Gold.Chemscore.Rot.Weighted>
6.7403

> <Gold.Chemscore.Internal.Correction.Weighted>
   9.000000E+99

> <Gold.Protein.RotatedTorsions>
[ 6907 6896 6895 6894 ] final  147.98 input  -60.11 | X-H torsion
[ 7974 7965 7964 7962 ] final -106.36 input  175.53 | X-H torsion
[ 8008 7997 7996 7995 ] final  -25.83 input   59.86 | X-H torsion
[ 10167 10162 10161 10158 ] final   94.28 input  -65.29 | X-H torsion
[ 10718 10713 10712 10709 ] final -129.75 input   66.30 | X-H torsion
[ 10763 10752 10751 10750 ] final   31.16 input  -60.55 | X-H torsion
[ 11005 11000 10999 10996 ] final  108.94 input  -57.11 | X-H torsion

> <Gold.Protein.ActiveResidues>
 VAL166  LYS551  ARG553  GLY616  TRP617  ASP618  TYR619  PRO620  LYS621  CYS622 
 ASP623  PHE694  ASN695  SER759  ASP760  ASP761  ALA762  ILE779  LEU786  VAL792 
 PHE793  MET794  SER795  GLU796  ALA797  LYS798  CYS799  TRP800  GLU811  SER814 

> <Gold.Protein.RotatedAtoms>
  152.1476  133.4502  159.4797 H   0  0  0  0  0  0  0  0  0  0  0  0  # atno 6907 bound_to 6896
  150.6892  134.2228  159.4413 H   0  0  0  0  0  0  0  0  0  0  0  0  # atno 6908 bound_to 6896
  152.0123  134.9869  160.0619 H   0  0  0  0  0  0  0  0  0  0  0  0  # atno 6909 bound_to 6896
  145.2188  140.9126  143.3272 H   0  0  0  0  0  0  0  0  0  0  0  0  # atno 7974 bound_to 7965
  154.4455  140.1916  156.0681 H   0  0  0  0  0  0  0  0  0  0  0  0  # atno 8008 bound_to 7997
  156.0532  140.3306  155.7348 H   0  0  0  0  0  0  0  0  0  0  0  0  # atno 8009 bound_to 7997
  155.5525  140.0596  157.2837 H   0  0  0  0  0  0  0  0  0  0  0  0  # atno 8010 bound_to 7997
  139.8098  144.6778  150.9655 H   0  0  0  0  0  0  0  0  0  0  0  0  # atno 10167 bound_to 10162
  156.2077  130.6898  151.0613 H   0  0  0  0  0  0  0  0  0  0  0  0  # atno 10718 bound_to 10713
  153.0331  135.6446  154.1157 H   0  0  0  0  0  0  0  0  0  0  0  0  # atno 10763 bound_to 10752
  154.0876  135.2868  155.3279 H   0  0  0  0  0  0  0  0  0  0  0  0  # atno 10764 bound_to 10752
  154.6487  135.5434  153.7939 H   0  0  0  0  0  0  0  0  0  0  0  0  # atno 10765 bound_to 10752
  139.8853  134.9444  156.6049 H   0  0  0  0  0  0  0  0  0  0  0  0  # atno 11005 bound_to 11000
  144.9785  139.3807  143.6273 LP  0  0  0  0  0  0  0  0  0  0  0  0  # atno 17320 bound_to 7965
  146.3381  139.8916  142.8808 LP  0  0  0  0  0  0  0  0  0  0  0  0  # atno 17321 bound_to 7965
  140.7818  143.4196  151.0862 LP  0  0  0  0  0  0  0  0  0  0  0  0  # atno 17342 bound_to 10162
  139.7863  143.8282  152.3145 LP  0  0  0  0  0  0  0  0  0  0  0  0  # atno 17343 bound_to 10162
  157.7021  131.0771  150.6786 LP  0  0  0  0  0  0  0  0  0  0  0  0  # atno 17370 bound_to 10713
  156.6845  130.4577  149.5618 LP  0  0  0  0  0  0  0  0  0  0  0  0  # atno 17371 bound_to 10713
  140.7855  133.8625  155.8603 LP  0  0  0  0  0  0  0  0  0  0  0  0  # atno 17394 bound_to 11000
  140.9723  134.1515  157.4566 LP  0  0  0  0  0  0  0  0  0  0  0  0  # atno 17395 bound_to 11000

$$$$
