AV-unprocessed.smi:1288|AV-procd|sdf|5384|dock1
  -GOLD-   22720 4533D 1   1.00000     0.00000
 Structure written by MMmdl.
 43 45  0  0  0  0  0  0  0  0  2 V2000
  149.9712  141.0252  155.7782 C   0  0  0  0  0  0  0  0  0  0  0  0
  150.6483  141.6790  156.9356 C   0  0  0  0  0  0  0  0  0  0  0  0
  150.6721  143.0156  157.2002 N   0  3  0  0  0  0  0  0  0  0  0  0
  151.4015  143.2530  158.3659 C   0  0  0  0  0  0  0  0  0  0  0  0
  151.6997  144.4407  159.0269 C   0  0  0  0  0  0  0  0  0  0  0  0
  152.4756  144.3347  160.1995 C   0  0  0  0  0  0  0  0  0  0  0  0
  152.9242  143.0843  160.6723 C   0  0  0  0  0  0  0  0  0  0  0  0
  152.6148  141.8870  159.9939 C   0  0  0  0  0  0  0  0  0  0  0  0
  151.8451  141.9995  158.8361 C   0  0  0  0  0  0  0  0  0  0  0  0
  151.3549  141.0578  157.9225 N   0  0  0  0  0  0  0  0  0  0  0  0
  151.6392  139.6271  158.1210 C   0  0  0  0  0  0  0  0  0  0  0  0
  150.3874  138.8150  158.5094 C   0  0  1  0  0  0  0  0  0  0  0  0
  149.6732  138.4680  157.3397 O   0  0  0  0  0  0  0  0  0  0  0  0
  150.7521  137.5220  159.2549 C   0  0  0  0  0  0  0  0  0  0  0  0
  149.6099  136.6832  159.3048 O   0  0  0  0  0  0  0  0  0  0  0  0
  148.7905  136.9343  160.4340 C   0  0  0  0  0  0  0  0  0  0  0  0
  147.9854  135.7065  160.8118 C   0  0  0  0  0  0  0  0  0  0  0  0
  147.8305  134.6538  159.8853 C   0  0  0  0  0  0  0  0  0  0  0  0
  147.0888  133.5077  160.2322 C   0  0  0  0  0  0  0  0  0  0  0  0
  146.4990  133.4099  161.5070 C   0  0  0  0  0  0  0  0  0  0  0  0
  146.6534  134.4573  162.4355 C   0  0  0  0  0  0  0  0  0  0  0  0
  147.3964  135.6035  162.0910 C   0  0  0  0  0  0  0  0  0  0  0  0
  147.5430  136.6024  162.9945 F   0  0  0  0  0  0  0  0  0  0  0  0
  149.5195  141.7725  155.1253 H   0  0  0  0  0  0  0  0  0  0  0  0
  149.1882  140.3541  156.1314 H   0  0  0  0  0  0  0  0  0  0  0  0
  150.6906  140.4478  155.1976 H   0  0  0  0  0  0  0  0  0  0  0  0
  151.3590  145.3999  158.6654 H   0  0  0  0  0  0  0  0  0  0  0  0
  152.7334  145.2304  160.7462 H   0  0  0  0  0  0  0  0  0  0  0  0
  153.5193  143.0421  161.5728 H   0  0  0  0  0  0  0  0  0  0  0  0
  152.9704  140.9361  160.3617 H   0  0  0  0  0  0  0  0  0  0  0  0
  152.1129  139.2233  157.2260 H   0  0  0  0  0  0  0  0  0  0  0  0
  152.3858  139.5577  158.9128 H   0  0  0  0  0  0  0  0  0  0  0  0
  149.7478  139.4316  159.1422 H   0  0  0  0  0  0  0  0  0  0  0  0
  149.6943  137.5272  157.2470 H   0  0  0  0  0  0  0  0  0  0  0  0
  151.5983  137.0188  158.7836 H   0  0  0  0  0  0  0  0  0  0  0  0
  151.0466  137.7593  160.2786 H   0  0  0  0  0  0  0  0  0  0  0  0
  149.4049  137.2383  161.2830 H   0  0  0  0  0  0  0  0  0  0  0  0
  148.1097  137.7608  160.2240 H   0  0  0  0  0  0  0  0  0  0  0  0
  148.2814  134.7215  158.9061 H   0  0  0  0  0  0  0  0  0  0  0  0
  146.9733  132.7034  159.5207 H   0  0  0  0  0  0  0  0  0  0  0  0
  145.9298  132.5314  161.7731 H   0  0  0  0  0  0  0  0  0  0  0  0
  146.2027  134.3810  163.4140 H   0  0  0  0  0  0  0  0  0  0  0  0
  150.2215  143.7136  156.6227 H   0  0  0  0  0  0  0  0  0  0  0  0
  1  2  1  0  0  0  0
  1 24  1  0  0  0  0
  1 25  1  0  0  0  0
  1 26  1  0  0  0  0
  2 10  1  0  0  0  0
  2  3  2  0  0  0  0
  3  4  1  0  0  0  0
  3 43  1  0  0  0  0
  4  9  2  0  0  0  0
  4  5  1  0  0  0  0
  5  6  2  0  0  0  0
  5 27  1  0  0  0  0
  6  7  1  0  0  0  0
  6 28  1  0  0  0  0
  7  8  2  0  0  0  0
  7 29  1  0  0  0  0
  8  9  1  0  0  0  0
  8 30  1  0  0  0  0
  9 10  1  0  0  0  0
 10 11  1  0  0  0  0
 11 12  1  0  0  0  0
 11 31  1  0  0  0  0
 11 32  1  0  0  0  0
 12 13  1  0  0  0  0
 12 14  1  0  0  0  0
 12 33  1  0  0  0  0
 13 34  1  0  0  0  0
 14 15  1  0  0  0  0
 14 35  1  0  0  0  0
 14 36  1  0  0  0  0
 15 16  1  0  0  0  0
 16 17  1  0  0  0  0
 16 37  1  0  0  0  0
 16 38  1  0  0  0  0
 17 22  1  0  0  0  0
 17 18  2  0  0  0  0
 18 19  1  0  0  0  0
 18 39  1  0  0  0  0
 19 20  2  0  0  0  0
 19 40  1  0  0  0  0
 20 21  1  0  0  0  0
 20 41  1  0  0  0  0
 21 22  2  0  0  0  0
 21 42  1  0  0  0  0
 22 23  1  0  0  0  0
M  CHG  1   3   1
M  END
> <s_m_source_file>
AV-unprocessed.smi

> <i_m_source_file_index>
1288

> <i_lp_mmshare_version>
43012

> <i_f3d_flags>
0

> <s_epik_input>
W2NIXTFbY0hdW2NIXVtjSF1jKGMxMiluKGMobjIpW0NIM10pW0NIMl1bQ0BIXShbT0hdKVtDSDJdT1tDSDJdYzNbY0hdW2NIXVtjSF1bY0hdYzNG

> <s_epik_cmdline>
J2VwaWtfcHl0aG9uJywgJy1waCcsICc3LjAnLCAnLXRuJywgJzgnLCAnLW1hJywgJzIwMCcsICctbWV0YWxfYmluZGluZycsICctaW1hZScsICc8aW5maWxlLm1hZT4nLCAnLW9tYWUnLCAnPG91dGZpbGUubWFlPic=

> <r_epik_Ionization_Penalty>
0.952

> <r_epik_Ionization_Penalty_Charging>
0.951999

> <r_epik_Ionization_Penalty_Neutral>
1.07667e-06

> <r_epik_State_Penalty>
0.996343

> <r_epik_Charging_Adjusted_Penalty>
1.94834

> <i_epik_Tot_Q>
1

> <i_epik_Tot_abs_Q>
1

> <r_epik_Metal_State_Penalty>
4.96724

> <b_epik_Metal_Only>
0

> <s_lp_Force_Field>
OPLS_2005

> <r_lp_Energy>
19.2213

> <b_lp_Chiralities_Consistent>
1

> <s_lp_Variant>
AV-unprocessed.smi:1288-4

> <Gold.Version>
5.8.1

> <Gold.Id.Protein>
6NUR|6NUR_protein|mol2

> <Gold.PLP.Fitness>
60.5241

> <Gold.PLP.PLP>
-53.3226

> <Gold.PLP.part.hbond>
-2.0000

> <Gold.PLP.part.metal>
0.0000

> <Gold.PLP.part.buried>
-3.5371

> <Gold.PLP.part.nonpolar>
-48.0724

> <Gold.PLP.part.repulsive>
0.0628

> <Gold.PLP.ligand.clash>
0.0000

> <Gold.PLP.ligand.torsion>
0.9749

> <Gold.PLP.Chemscore.Hbond>
2.9588

> <Gold.PLP.Chemscore.CHOScore>
0.0000

> <Gold.PLP.Chemscore.Metal>
0.0000

> <Gold.Chemscore.Hbonds>
donor molecule, donor type, donor heavy atom, donor atom, acceptor molecule, acceptor atom, score
      L1  H     3    43       P1  8028  2.00
      P1  H  6896  6907       L1    15  0.34

> <Gold.PLP.Chemscore.Internal.Correction>
0.2750

> <Gold.Rescore>
     Score         DG    S(hbond)    S(metal)    S(lipo)     H(rot)  DE(clash)    DE(int)     intcor
     17.67     -19.89       1.35        0.00     136.71       2.38       1.37       0.84       ----

> <Gold.Chemscore.Fitness>
17.6693

> <Gold.Chemscore.DG>
-19.8854

> <Gold.Chemscore.ZeroCoef>
-5.4800

> <Gold.Chemscore.Hbond>
1.3488

> <Gold.Chemscore.Metal>
0.0000

> <Gold.Chemscore.Lipo>
136.7138

> <Gold.Chemscore.Internal_Hbond>
0.0000

> <Gold.Chemscore.DEClash>
1.3720

> <Gold.Chemscore.DEInternal>
0.8441

> <Gold.Chemscore.Rot>
2.3809

> <Gold.Chemscore.Internal.Correction>
   9.000000E+99

> <Gold.Chemscore.Hbonds>
donor molecule, donor type, donor heavy atom, donor atom, acceptor molecule, acceptor atom, score
      L1  H     3    43       P1  8028  1.00
      P1  H  6896  6907       L1    15  0.02

> <Gold.Chemscore.Hbond.Weighted>
-4.5050

> <Gold.Chemscore.Metal.Weighted>
-0.0000

> <Gold.Chemscore.Lipo.Weighted>
-15.9955

> <Gold.Chemscore.Internal_Hbond.Weighted>
0.0000

> <Gold.Chemscore.DEClash.Weighted>
1.3720

> <Gold.Chemscore.DEInternal.Weighted>
0.8441

> <Gold.Chemscore.Rot.Weighted>
6.0951

> <Gold.Chemscore.Internal.Correction.Weighted>
   9.000000E+99

> <Gold.Protein.RotatedTorsions>
[ 6907 6896 6895 6894 ] final  -53.70 input  -60.11 | X-H torsion
[ 7974 7965 7964 7962 ] final  -76.48 input  175.53 | X-H torsion
[ 8008 7997 7996 7995 ] final  -74.40 input   59.86 | X-H torsion
[ 10167 10162 10161 10158 ] final -154.40 input  -65.29 | X-H torsion
[ 10718 10713 10712 10709 ] final  138.04 input   66.30 | X-H torsion
[ 10763 10752 10751 10750 ] final  -36.92 input  -60.55 | X-H torsion
[ 11005 11000 10999 10996 ] final   69.58 input  -57.11 | X-H torsion

> <Gold.Protein.ActiveResidues>
 VAL166  LYS551  ARG553  GLY616  TRP617  ASP618  TYR619  PRO620  LYS621  CYS622 
 ASP623  PHE694  ASN695  SER759  ASP760  ASP761  ALA762  ILE779  LEU786  VAL792 
 PHE793  MET794  SER795  GLU796  ALA797  LYS798  CYS799  TRP800  GLU811  SER814 

> <Gold.Protein.RotatedAtoms>
  150.8403  134.7692  159.6926 H   0  0  0  0  0  0  0  0  0  0  0  0  # atno 6907 bound_to 6896
  152.4492  134.5427  159.9853 H   0  0  0  0  0  0  0  0  0  0  0  0  # atno 6908 bound_to 6896
  151.5569  133.3371  159.2999 H   0  0  0  0  0  0  0  0  0  0  0  0  # atno 6909 bound_to 6896
  145.6124  140.9383  143.1182 H   0  0  0  0  0  0  0  0  0  0  0  0  # atno 7974 bound_to 7965
  154.5328  140.0762  156.8375 H   0  0  0  0  0  0  0  0  0  0  0  0  # atno 8008 bound_to 7997
  155.3340  140.3403  155.4221 H   0  0  0  0  0  0  0  0  0  0  0  0  # atno 8009 bound_to 7997
  156.1798  140.1648  156.8282 H   0  0  0  0  0  0  0  0  0  0  0  0  # atno 8010 bound_to 7997
  139.7017  143.9252  152.2431 H   0  0  0  0  0  0  0  0  0  0  0  0  # atno 10167 bound_to 10162
  157.4296  131.1047  151.0264 H   0  0  0  0  0  0  0  0  0  0  0  0  # atno 10718 bound_to 10713
  153.8877  135.6815  153.4762 H   0  0  0  0  0  0  0  0  0  0  0  0  # atno 10763 bound_to 10752
  153.1198  135.4745  154.9174 H   0  0  0  0  0  0  0  0  0  0  0  0  # atno 10764 bound_to 10752
  154.7638  135.3218  154.8280 H   0  0  0  0  0  0  0  0  0  0  0  0  # atno 10765 bound_to 10752
  139.9646  134.7003  156.0573 H   0  0  0  0  0  0  0  0  0  0  0  0  # atno 11005 bound_to 11000
  144.7264  139.7861  143.7363 LP  0  0  0  0  0  0  0  0  0  0  0  0  # atno 17320 bound_to 7965
  146.1494  139.4573  143.0058 LP  0  0  0  0  0  0  0  0  0  0  0  0  # atno 17321 bound_to 7965
  139.9097  144.6864  150.8576 LP  0  0  0  0  0  0  0  0  0  0  0  0  # atno 17342 bound_to 10162
  140.7711  143.3452  151.2125 LP  0  0  0  0  0  0  0  0  0  0  0  0  # atno 17343 bound_to 10162
  157.1166  130.6044  149.5494 LP  0  0  0  0  0  0  0  0  0  0  0  0  # atno 17370 bound_to 10713
  155.9908  130.4961  150.7274 LP  0  0  0  0  0  0  0  0  0  0  0  0  # atno 17371 bound_to 10713
  141.1325  133.6583  156.3502 LP  0  0  0  0  0  0  0  0  0  0  0  0  # atno 17394 bound_to 11000
  140.5425  134.6106  157.5384 LP  0  0  0  0  0  0  0  0  0  0  0  0  # atno 17395 bound_to 11000

$$$$
