AV-unprocessed.smi:252|AV-procd|sdf|1937|dock7
  -GOLD-   2262021 63D 1   1.00000     0.00000
 Structure written by MMmdl.
 56 59  0  0  0  0  0  0  0  0  1 V2000
  152.0054  143.3647  159.9367 C   0  0  0  0  0  0  0  0  0  0  0  0
  150.6621  142.8235  159.4229 C   0  0  0  0  0  0  0  0  0  0  0  0
  150.7962  141.5310  158.6113 C   0  0  0  0  0  0  0  0  0  0  0  0
  151.2397  140.5045  159.1277 O   0  0  0  0  0  0  0  0  0  0  0  0
  150.4123  141.6012  157.3272 N   0  0  0  0  0  0  0  0  0  0  0  0
  150.4597  140.4993  156.3715 C   0  0  1  0  0  0  0  0  0  0  0  0
  151.7883  139.7359  156.5217 C   0  0  0  0  0  0  0  0  0  0  0  0
  151.8205  138.5183  155.5847 C   0  0  0  0  0  0  0  0  0  0  0  0
  150.5950  137.6167  155.8054 C   0  0  0  0  0  0  0  0  0  0  0  0
  149.3571  138.3889  155.6910 N   0  0  0  0  0  0  0  0  0  0  0  0
  148.1948  137.7086  155.5244 C   0  0  0  0  0  0  0  0  0  0  0  0
  147.7821  136.8254  156.4728 N   0  0  0  0  0  0  0  0  0  0  0  0
  146.6304  136.1642  156.3232 C   0  0  0  0  0  0  0  0  0  0  0  0
  145.7528  136.2322  155.3206 N   0  0  0  0  0  0  0  0  0  0  0  0
  146.1642  137.1105  154.3620 C   0  0  0  0  0  0  0  0  0  0  0  0
  147.3624  137.8790  154.3821 C   0  0  0  0  0  0  0  0  0  0  0  0
  147.4522  138.6445  153.2253 N   0  0  0  0  0  0  0  0  0  0  0  0
  146.3640  138.3553  152.5663 C   0  0  0  0  0  0  0  0  0  0  0  0
  145.5277  137.4505  153.1806 N   0  0  0  0  0  0  0  0  0  0  0  0
  144.2543  136.9593  152.6760 C   0  0  0  0  0  0  0  0  0  0  0  0
  144.4039  135.8302  151.6224 C   0  0  1  0  0  0  0  0  0  0  0  0
  144.5513  136.4368  150.3496 O   0  0  0  0  0  0  0  0  0  0  0  0
  145.6185  134.9355  151.8547 C   0  0  0  0  0  0  0  0  0  0  0  0
  145.1892  133.6109  151.2435 C   0  0  0  0  0  0  0  0  0  0  0  0
  143.8301  133.5228  151.6327 O   0  0  0  0  0  0  0  0  0  0  0  0
  143.2318  134.8124  151.5265 C   0  0  1  0  0  0  0  0  0  0  0  0
  142.1417  134.9076  152.6054 C   0  0  0  0  0  0  0  0  0  0  0  0
  149.2660  139.5456  156.5810 C   0  0  0  0  0  0  0  0  0  0  0  0
  151.8535  144.2584  160.5420 H   0  0  0  0  0  0  0  0  0  0  0  0
  152.6679  143.6354  159.1136 H   0  0  0  0  0  0  0  0  0  0  0  0
  152.5196  142.6297  160.5572 H   0  0  0  0  0  0  0  0  0  0  0  0
  149.9998  142.6436  160.2709 H   0  0  0  0  0  0  0  0  0  0  0  0
  150.1768  143.5750  158.7998 H   0  0  0  0  0  0  0  0  0  0  0  0
  150.0621  142.4845  156.9855 H   0  0  0  0  0  0  0  0  0  0  0  0
  150.4127  140.9077  155.3599 H   0  0  0  0  0  0  0  0  0  0  0  0
  152.6302  140.3943  156.3043 H   0  0  0  0  0  0  0  0  0  0  0  0
  151.9105  139.4016  157.5530 H   0  0  0  0  0  0  0  0  0  0  0  0
  151.8401  138.8564  154.5480 H   0  0  0  0  0  0  0  0  0  0  0  0
  152.7362  137.9479  155.7422 H   0  0  0  0  0  0  0  0  0  0  0  0
  150.6039  136.8086  155.0727 H   0  0  0  0  0  0  0  0  0  0  0  0
  150.6423  137.1580  156.7940 H   0  0  0  0  0  0  0  0  0  0  0  0
  146.3743  135.4846  157.1227 H   0  0  0  0  0  0  0  0  0  0  0  0
  146.1387  138.8013  151.6086 H   0  0  0  0  0  0  0  0  0  0  0  0
  143.6781  136.6086  153.5326 H   0  0  0  0  0  0  0  0  0  0  0  0
  143.7034  137.8021  152.2568 H   0  0  0  0  0  0  0  0  0  0  0  0
  144.5855  137.3739  150.4661 H   0  0  0  0  0  0  0  0  0  0  0  0
  146.5442  135.3262  151.4295 H   0  0  0  0  0  0  0  0  0  0  0  0
  145.7788  134.7910  152.9239 H   0  0  0  0  0  0  0  0  0  0  0  0
  145.2628  133.6356  150.1552 H   0  0  0  0  0  0  0  0  0  0  0  0
  145.7705  132.7660  151.6128 H   0  0  0  0  0  0  0  0  0  0  0  0
  142.7517  134.8749  150.5479 H   0  0  0  0  0  0  0  0  0  0  0  0
  141.6275  135.8680  152.5691 H   0  0  0  0  0  0  0  0  0  0  0  0
  142.5548  134.7777  153.6058 H   0  0  0  0  0  0  0  0  0  0  0  0
  141.3905  134.1310  152.4607 H   0  0  0  0  0  0  0  0  0  0  0  0
  149.2522  139.1868  157.6111 H   0  0  0  0  0  0  0  0  0  0  0  0
  148.3333  140.0882  156.4317 H   0  0  0  0  0  0  0  0  0  0  0  0
  1  2  1  0  0  0  0
  1 29  1  0  0  0  0
  1 30  1  0  0  0  0
  1 31  1  0  0  0  0
  2  3  1  0  0  0  0
  2 32  1  0  0  0  0
  2 33  1  0  0  0  0
  3  4  2  0  0  0  0
  3  5  1  0  0  0  0
  5  6  1  0  0  0  0
  5 34  1  0  0  0  0
  6 28  1  0  0  0  0
  6  7  1  0  0  0  0
  6 35  1  0  0  0  0
  7  8  1  0  0  0  0
  7 36  1  0  0  0  0
  7 37  1  0  0  0  0
  8  9  1  0  0  0  0
  8 38  1  0  0  0  0
  8 39  1  0  0  0  0
  9 10  1  0  0  0  0
  9 40  1  0  0  0  0
  9 41  1  0  0  0  0
 10 11  1  0  0  0  0
 10 28  1  0  0  0  0
 11 16  1  0  0  0  0
 11 12  2  0  0  0  0
 12 13  1  0  0  0  0
 13 14  2  0  0  0  0
 13 42  1  0  0  0  0
 14 15  1  0  0  0  0
 15 19  1  0  0  0  0
 15 16  2  0  0  0  0
 16 17  1  0  0  0  0
 17 18  2  0  0  0  0
 18 19  1  0  0  0  0
 18 43  1  0  0  0  0
 19 20  1  0  0  0  0
 20 21  1  0  0  0  0
 20 44  1  0  0  0  0
 20 45  1  0  0  0  0
 21 26  1  0  0  0  0
 21 22  1  0  0  0  0
 21 23  1  0  0  0  0
 22 46  1  0  0  0  0
 23 24  1  0  0  0  0
 23 47  1  0  0  0  0
 23 48  1  0  0  0  0
 24 25  1  0  0  0  0
 24 49  1  0  0  0  0
 24 50  1  0  0  0  0
 25 26  1  0  0  0  0
 26 27  1  0  0  0  0
 26 51  1  0  0  0  0
 27 52  1  0  0  0  0
 27 53  1  0  0  0  0
 27 54  1  0  0  0  0
 28 55  1  0  0  0  0
 28 56  1  0  0  0  0
M  END
> <s_m_source_file>
AV-unprocessed.smi

> <i_m_source_file_index>
252

> <i_lp_mmshare_version>
43012

> <i_f3d_flags>
0

> <s_epik_input>
W0NIM11bQ0gyXUMoPU8pW05IXVtDQEBIXTFbQ0gyXVtDSDJdW0NIMl1OKFtDSDJdMSljKG5bY0hdbjIpYyhjMjMpbltjSF1uM1tDSDJdW0NAQF00KFtPSF0pW0NIMl1bQ0gyXU9bQ0BIXTRbQ0gzXQ==

> <s_epik_cmdline>
J2VwaWtfcHl0aG9uJywgJy1waCcsICc3LjAnLCAnLXRuJywgJzgnLCAnLW1hJywgJzIwMCcsICctbWV0YWxfYmluZGluZycsICctaW1hZScsICc8aW5maWxlLm1hZT4nLCAnLW9tYWUnLCAnPG91dGZpbGUubWFlPic=

> <r_lp_tautomer_probability>
1

> <r_epik_Ionization_Penalty>
0.00182575

> <r_epik_Ionization_Penalty_Charging>
0

> <r_epik_Ionization_Penalty_Neutral>
0.00182575

> <r_epik_State_Penalty>
0.00104524

> <r_epik_Charging_Adjusted_Penalty>
0.00104524

> <i_epik_Tot_Q>
0

> <i_epik_Tot_abs_Q>
0

> <r_epik_Metal_State_Penalty>
-0

> <b_epik_Metal_Only>
0

> <s_lp_Force_Field>
OPLS_2005

> <r_lp_Energy>
35.3243

> <b_lp_Chiralities_Consistent>
1

> <s_lp_Variant>
AV-unprocessed.smi:252-2

> <Gold.Version>
5.8.1

> <Gold.Id.Protein>
6NUR|6NUR_protein|mol2

> <Gold.PLP.Fitness>
45.2433

> <Gold.PLP.PLP>
-38.8124

> <Gold.PLP.part.hbond>
-2.0000

> <Gold.PLP.part.metal>
0.0000

> <Gold.PLP.part.buried>
-6.3541

> <Gold.PLP.part.nonpolar>
-32.7901

> <Gold.PLP.part.repulsive>
1.4212

> <Gold.PLP.ligand.clash>
0.0000

> <Gold.PLP.ligand.torsion>
1.3190

> <Gold.PLP.Chemscore.Hbond>
2.0000

> <Gold.PLP.Chemscore.CHOScore>
0.8851

> <Gold.PLP.Chemscore.Metal>
0.0000

> <Gold.Chemscore.Hbonds>
donor molecule, donor type, donor heavy atom, donor atom, acceptor molecule, acceptor atom, score
      L1  H    22    46       P1 10171  0.69
      L1  C    18    43       P1 10171  0.11

> <Gold.PLP.Chemscore.Internal.Correction>
0.4137

> <Gold.Rescore>
     Score         DG    S(hbond)    S(metal)    S(lipo)     H(rot)  DE(clash)    DE(int)     intcor
     12.00     -14.62       1.97        0.00      81.12       2.70       0.25       2.38       ----

> <Gold.Chemscore.Fitness>
11.9962

> <Gold.Chemscore.DG>
-14.6239

> <Gold.Chemscore.ZeroCoef>
-5.4800

> <Gold.Chemscore.Hbond>
1.9688

> <Gold.Chemscore.Metal>
0.0000

> <Gold.Chemscore.Lipo>
81.1166

> <Gold.Chemscore.Internal_Hbond>
0.0000

> <Gold.Chemscore.DEClash>
0.2472

> <Gold.Chemscore.DEInternal>
2.3805

> <Gold.Chemscore.Rot>
2.7041

> <Gold.Chemscore.Internal.Correction>
   9.000000E+99

> <Gold.Chemscore.Hbonds>
donor molecule, donor type, donor heavy atom, donor atom, acceptor molecule, acceptor atom, score
      L1  H    22    46       P1 10171  0.65

> <Gold.Chemscore.Hbond.Weighted>
-6.5757

> <Gold.Chemscore.Metal.Weighted>
-0.0000

> <Gold.Chemscore.Lipo.Weighted>
-9.4906

> <Gold.Chemscore.Internal_Hbond.Weighted>
0.0000

> <Gold.Chemscore.DEClash.Weighted>
0.2472

> <Gold.Chemscore.DEInternal.Weighted>
2.3805

> <Gold.Chemscore.Rot.Weighted>
6.9225

> <Gold.Chemscore.Internal.Correction.Weighted>
   9.000000E+99

> <Gold.Protein.RotatedTorsions>
[ 6907 6896 6895 6894 ] final   77.48 input  -60.11 | X-H torsion
[ 7974 7965 7964 7962 ] final   75.62 input  175.53 | X-H torsion
[ 8008 7997 7996 7995 ] final  122.80 input   59.86 | X-H torsion
[ 10167 10162 10161 10158 ] final  -73.72 input  -65.29 | X-H torsion
[ 10718 10713 10712 10709 ] final   77.02 input   66.30 | X-H torsion
[ 10763 10752 10751 10750 ] final  -73.22 input  -60.55 | X-H torsion
[ 11005 11000 10999 10996 ] final  -93.41 input  -57.11 | X-H torsion

> <Gold.Protein.ActiveResidues>
 VAL166  LYS551  ARG553  GLY616  TRP617  ASP618  TYR619  PRO620  LYS621  CYS622 
 ASP623  PHE694  ASN695  SER759  ASP760  ASP761  ALA762  ILE779  LEU786  VAL792 
 PHE793  MET794  SER795  GLU796  ALA797  LYS798  CYS799  TRP800  GLU811  SER814 

> <Gold.Protein.RotatedAtoms>
  152.5119  134.3810  159.9350 H   0  0  0  0  0  0  0  0  0  0  0  0  # atno 6907 bound_to 6896
  151.3767  133.3829  159.2713 H   0  0  0  0  0  0  0  0  0  0  0  0  # atno 6908 bound_to 6896
  150.9536  134.8953  159.7746 H   0  0  0  0  0  0  0  0  0  0  0  0  # atno 6909 bound_to 6896
  145.7132  139.2622  143.1638 H   0  0  0  0  0  0  0  0  0  0  0  0  # atno 7974 bound_to 7965
  156.2742  140.2777  156.1526 H   0  0  0  0  0  0  0  0  0  0  0  0  # atno 8008 bound_to 7997
  155.0838  140.0388  157.2665 H   0  0  0  0  0  0  0  0  0  0  0  0  # atno 8009 bound_to 7997
  154.6943  140.2636  155.6787 H   0  0  0  0  0  0  0  0  0  0  0  0  # atno 8010 bound_to 7997
  140.5087  143.2348  151.7631 H   0  0  0  0  0  0  0  0  0  0  0  0  # atno 10167 bound_to 10162
  157.6695  130.9802  150.1581 H   0  0  0  0  0  0  0  0  0  0  0  0  # atno 10718 bound_to 10713
  154.4565  135.5904  153.6227 H   0  0  0  0  0  0  0  0  0  0  0  0  # atno 10763 bound_to 10752
  152.9819  135.6033  154.3539 H   0  0  0  0  0  0  0  0  0  0  0  0  # atno 10764 bound_to 10752
  154.3406  135.2841  155.2403 H   0  0  0  0  0  0  0  0  0  0  0  0  # atno 10765 bound_to 10752
  141.1498  133.7886  157.0156 H   0  0  0  0  0  0  0  0  0  0  0  0  # atno 11005 bound_to 11000
  146.0693  140.7886  142.9696 LP  0  0  0  0  0  0  0  0  0  0  0  0  # atno 17320 bound_to 7965
  144.6936  140.3317  143.7215 LP  0  0  0  0  0  0  0  0  0  0  0  0  # atno 17321 bound_to 7965
  139.4890  144.4421  151.9752 LP  0  0  0  0  0  0  0  0  0  0  0  0  # atno 17342 bound_to 10162
  140.3513  144.3085  150.5949 LP  0  0  0  0  0  0  0  0  0  0  0  0  # atno 17343 bound_to 10162
  156.2364  130.3687  149.8387 LP  0  0  0  0  0  0  0  0  0  0  0  0  # atno 17370 bound_to 10713
  156.6199  130.8622  151.3473 LP  0  0  0  0  0  0  0  0  0  0  0  0  # atno 17371 bound_to 10713
  140.0849  134.9626  157.1684 LP  0  0  0  0  0  0  0  0  0  0  0  0  # atno 17394 bound_to 11000
  140.3525  134.2583  155.7196 LP  0  0  0  0  0  0  0  0  0  0  0  0  # atno 17395 bound_to 11000

$$$$
