AV-unprocessed.smi:658|AV-procd|sdf|3230|dock7
  -GOLD-   22720 0173D 1   1.00000     0.00000
 Structure written by MMmdl.
 38 38  0  0  0  0  0  0  0  0  2 V2000
  146.9763  138.8483  151.8456 C   0  0  0  0  0  0  0  0  0  0  0  0
  146.5829  138.7065  153.3255 C   0  0  2  0  0  0  0  0  0  0  0  0
  145.1595  138.2988  153.3918 N   0  3  0  0  0  0  0  0  0  0  0  0
  144.8648  136.9510  152.8627 C   0  0  0  0  0  0  0  0  0  0  0  0
  143.3582  136.7654  152.6497 C   0  0  0  0  0  0  0  0  0  0  0  0
  142.5856  136.6741  153.9729 C   0  0  0  0  0  0  0  0  0  0  0  0
  140.8616  136.0728  153.7124 S   0  0  0  0  0  0  0  0  0  0  0  0
  140.1198  136.4366  155.2204 N   0  0  0  0  0  0  0  0  0  0  0  0
  140.2082  136.9030  152.6891 O   0  0  0  0  0  0  0  0  0  0  0  0
  140.8926  134.6080  153.5882 O   0  0  0  0  0  0  0  0  0  0  0  0
  146.8176  140.0134  154.1322 C   0  0  2  0  0  0  0  0  0  0  0  0
  146.4738  141.2923  153.3445 C   0  0  0  0  0  0  0  0  0  0  0  0
  148.1870  140.0929  154.6286 N   0  0  0  0  0  0  0  0  0  0  0  0
  149.1916  139.1469  154.5630 C   0  0  0  0  0  0  0  0  0  0  0  0
  150.2839  139.6654  155.1968 C   0  0  0  0  0  0  0  0  0  0  0  0
  149.8450  140.9456  155.6339 C   0  0  0  0  0  0  0  0  0  0  0  0
  148.5883  141.1939  155.3023 N   0  0  0  0  0  0  0  0  0  0  0  0
  148.0462  139.0180  151.7258 H   0  0  0  0  0  0  0  0  0  0  0  0
  146.4496  139.6769  151.3707 H   0  0  0  0  0  0  0  0  0  0  0  0
  146.7368  137.9414  151.2894 H   0  0  0  0  0  0  0  0  0  0  0  0
  147.2002  137.9123  153.7501 H   0  0  0  0  0  0  0  0  0  0  0  0
  144.8630  138.3430  154.3566 H   0  0  0  0  0  0  0  0  0  0  0  0
  145.3989  136.8128  151.9218 H   0  0  0  0  0  0  0  0  0  0  0  0
  145.2316  136.1931  153.5546 H   0  0  0  0  0  0  0  0  0  0  0  0
  142.9709  137.6000  152.0636 H   0  0  0  0  0  0  0  0  0  0  0  0
  143.1828  135.8640  152.0615 H   0  0  0  0  0  0  0  0  0  0  0  0
  143.0804  135.9692  154.6416 H   0  0  0  0  0  0  0  0  0  0  0  0
  142.5413  137.6355  154.4854 H   0  0  0  0  0  0  0  0  0  0  0  0
  140.1656  135.6652  155.8861 H   0  0  0  0  0  0  0  0  0  0  0  0
  139.2014  136.8690  155.1226 H   0  0  0  0  0  0  0  0  0  0  0  0
  146.1581  139.9939  155.0024 H   0  0  0  0  0  0  0  0  0  0  0  0
  145.4087  141.3551  153.1238 H   0  0  0  0  0  0  0  0  0  0  0  0
  147.0131  141.3398  152.3982 H   0  0  0  0  0  0  0  0  0  0  0  0
  146.7295  142.1841  153.9181 H   0  0  0  0  0  0  0  0  0  0  0  0
  149.0490  138.1929  154.0769 H   0  0  0  0  0  0  0  0  0  0  0  0
  151.2496  139.2003  155.3298 H   0  0  0  0  0  0  0  0  0  0  0  0
  150.3971  141.6946  156.1825 H   0  0  0  0  0  0  0  0  0  0  0  0
  144.6153  138.9630  152.8599 H   0  0  0  0  0  0  0  0  0  0  0  0
  1  2  1  0  0  0  0
  1 18  1  0  0  0  0
  1 19  1  0  0  0  0
  1 20  1  0  0  0  0
  2  3  1  0  0  0  0
  2 11  1  0  0  0  0
  2 21  1  0  0  0  0
  3  4  1  0  0  0  0
  3 22  1  0  0  0  0
  3 38  1  0  0  0  0
  4  5  1  0  0  0  0
  4 23  1  0  0  0  0
  4 24  1  0  0  0  0
  5  6  1  0  0  0  0
  5 25  1  0  0  0  0
  5 26  1  0  0  0  0
  6  7  1  0  0  0  0
  6 27  1  0  0  0  0
  6 28  1  0  0  0  0
  7  8  1  0  0  0  0
  7  9  2  0  0  0  0
  7 10  2  0  0  0  0
  8 29  1  0  0  0  0
  8 30  1  0  0  0  0
 11 12  1  0  0  0  0
 11 13  1  0  0  0  0
 11 31  1  0  0  0  0
 12 32  1  0  0  0  0
 12 33  1  0  0  0  0
 12 34  1  0  0  0  0
 13 17  1  0  0  0  0
 13 14  1  0  0  0  0
 14 15  2  0  0  0  0
 14 35  1  0  0  0  0
 15 16  1  0  0  0  0
 15 36  1  0  0  0  0
 16 17  2  0  0  0  0
 16 37  1  0  0  0  0
M  CHG  1   3   1
M  END
> <s_m_source_file>
AV-unprocessed.smi

> <i_m_source_file_index>
658

> <i_lp_mmshare_version>
43012

> <i_f3d_flags>
0

> <s_epik_input>
bjFbY0hdW2NIXVtjSF1uMVtDQEBIXShbQ0gzXSlbQ0BIXShbQ0gzXSlbTkhdW0NIMl1bQ0gyXVtDSDJdUyg9TykoPU8pW05IMl0=

> <s_epik_cmdline>
J2VwaWtfcHl0aG9uJywgJy1waCcsICc3LjAnLCAnLXRuJywgJzgnLCAnLW1hJywgJzIwMCcsICctbWV0YWxfYmluZGluZycsICctaW1hZScsICc8aW5maWxlLm1hZT4nLCAnLW9tYWUnLCAnPG91dGZpbGUubWFlPic=

> <r_lp_tautomer_probability>
1

> <r_epik_Ionization_Penalty>
0.00535781

> <r_epik_Ionization_Penalty_Charging>
0.00511015

> <r_epik_Ionization_Penalty_Neutral>
0.000247661

> <r_epik_State_Penalty>
-0

> <r_epik_Charging_Adjusted_Penalty>
0.00511015

> <i_epik_Tot_Q>
1

> <i_epik_Tot_abs_Q>
1

> <r_epik_Metal_State_Penalty>
0.149106

> <b_epik_Metal_Only>
0

> <s_lp_Force_Field>
OPLS_2005

> <r_lp_Energy>
8.18413

> <b_lp_Chiralities_Consistent>
1

> <s_lp_Variant>
AV-unprocessed.smi:658-1

> <Gold.Version>
5.8.1

> <Gold.Id.Protein>
6NUR|6NUR_protein|mol2

> <Gold.PLP.Fitness>
41.3824

> <Gold.PLP.PLP>
-31.2940

> <Gold.PLP.part.hbond>
-3.5856

> <Gold.PLP.part.metal>
0.0000

> <Gold.PLP.part.buried>
-2.9088

> <Gold.PLP.part.nonpolar>
-25.5757

> <Gold.PLP.part.repulsive>
0.4463

> <Gold.PLP.ligand.clash>
0.0000

> <Gold.PLP.ligand.torsion>
1.0846

> <Gold.PLP.Chemscore.Hbond>
3.0000

> <Gold.PLP.Chemscore.CHOScore>
1.0000

> <Gold.PLP.Chemscore.Metal>
0.0000

> <Gold.Chemscore.Hbonds>
donor molecule, donor type, donor heavy atom, donor atom, acceptor molecule, acceptor atom, score
      L1  H     3    38       P1 10175  2.00
      L1  H     8    29       P1 11000  1.00

> <Gold.PLP.Chemscore.Internal.Correction>
0.2578

> <Gold.Rescore>
     Score         DG    S(hbond)    S(metal)    S(lipo)     H(rot)  DE(clash)    DE(int)     intcor
      9.02     -10.77       1.92        0.00      58.82       3.13       0.77       0.98       ----

> <Gold.Chemscore.Fitness>
9.0219

> <Gold.Chemscore.DG>
-10.7717

> <Gold.Chemscore.ZeroCoef>
-5.4800

> <Gold.Chemscore.Hbond>
1.9240

> <Gold.Chemscore.Metal>
0.0000

> <Gold.Chemscore.Lipo>
58.8161

> <Gold.Chemscore.Internal_Hbond>
0.0000

> <Gold.Chemscore.DEClash>
0.7703

> <Gold.Chemscore.DEInternal>
0.9796

> <Gold.Chemscore.Rot>
3.1312

> <Gold.Chemscore.Internal.Correction>
   9.000000E+99

> <Gold.Chemscore.Hbonds>
donor molecule, donor type, donor heavy atom, donor atom, acceptor molecule, acceptor atom, score
      L1  H     3    38       P1 10175  1.00
      L1  H     8    29       P1 11000  0.88

> <Gold.Chemscore.Hbond.Weighted>
-6.4262

> <Gold.Chemscore.Metal.Weighted>
-0.0000

> <Gold.Chemscore.Lipo.Weighted>
-6.8815

> <Gold.Chemscore.Internal_Hbond.Weighted>
0.0000

> <Gold.Chemscore.DEClash.Weighted>
0.7703

> <Gold.Chemscore.DEInternal.Weighted>
0.9796

> <Gold.Chemscore.Rot.Weighted>
8.0160

> <Gold.Chemscore.Internal.Correction.Weighted>
   9.000000E+99

> <Gold.Protein.RotatedTorsions>
[ 6907 6896 6895 6894 ] final   88.23 input  -60.11 | X-H torsion
[ 7974 7965 7964 7962 ] final  -92.56 input  175.53 | X-H torsion
[ 8008 7997 7996 7995 ] final  -15.14 input   59.86 | X-H torsion
[ 10167 10162 10161 10158 ] final   -4.95 input  -65.29 | X-H torsion
[ 10718 10713 10712 10709 ] final  -90.99 input   66.30 | X-H torsion
[ 10763 10752 10751 10750 ] final   85.21 input  -60.55 | X-H torsion
[ 11005 11000 10999 10996 ] final -125.98 input  -57.11 | X-H torsion

> <Gold.Protein.ActiveResidues>
 VAL166  LYS551  ARG553  GLY616  TRP617  ASP618  TYR619  PRO620  LYS621  CYS622 
 ASP623  PHE694  ASN695  SER759  ASP760  ASP761  ALA762  ILE779  LEU786  VAL792 
 PHE793  MET794  SER795  GLU796  ALA797  LYS798  CYS799  TRP800  GLU811  SER814 

> <Gold.Protein.RotatedAtoms>
  152.5422  134.2153  159.8765 H   0  0  0  0  0  0  0  0  0  0  0  0  # atno 6907 bound_to 6896
  151.2133  133.4537  159.2606 H   0  0  0  0  0  0  0  0  0  0  0  0  # atno 6908 bound_to 6896
  151.0876  134.9909  159.8442 H   0  0  0  0  0  0  0  0  0  0  0  0  # atno 6909 bound_to 6896
  145.3982  140.9535  143.2302 H   0  0  0  0  0  0  0  0  0  0  0  0  # atno 7974 bound_to 7965
  154.5154  140.2204  155.9076 H   0  0  0  0  0  0  0  0  0  0  0  0  # atno 8008 bound_to 7997
  156.1601  140.3144  155.8758 H   0  0  0  0  0  0  0  0  0  0  0  0  # atno 8009 bound_to 7997
  155.3769  140.0470  157.3035 H   0  0  0  0  0  0  0  0  0  0  0  0  # atno 8010 bound_to 7997
  140.6946  143.6364  150.8475 H   0  0  0  0  0  0  0  0  0  0  0  0  # atno 10167 bound_to 10162
  155.9991  130.4931  150.5407 H   0  0  0  0  0  0  0  0  0  0  0  0  # atno 10718 bound_to 10713
  153.1454  135.4625  154.9558 H   0  0  0  0  0  0  0  0  0  0  0  0  # atno 10763 bound_to 10752
  154.7782  135.3180  154.8050 H   0  0  0  0  0  0  0  0  0  0  0  0  # atno 10764 bound_to 10752
  153.8565  135.6916  153.4841 H   0  0  0  0  0  0  0  0  0  0  0  0  # atno 10765 bound_to 10752
  140.9718  134.0795  157.3861 H   0  0  0  0  0  0  0  0  0  0  0  0  # atno 11005 bound_to 11000
  144.8392  139.5499  143.6908 LP  0  0  0  0  0  0  0  0  0  0  0  0  # atno 17320 bound_to 7965
  146.2765  139.6765  142.9259 LP  0  0  0  0  0  0  0  0  0  0  0  0  # atno 17321 bound_to 7965
  140.0081  143.5672  152.2850 LP  0  0  0  0  0  0  0  0  0  0  0  0  # atno 17342 bound_to 10162
  139.6386  144.7652  151.2386 LP  0  0  0  0  0  0  0  0  0  0  0  0  # atno 17343 bound_to 10162
  157.3343  131.0705  151.1837 LP  0  0  0  0  0  0  0  0  0  0  0  0  # atno 17370 bound_to 10713
  157.2706  130.6702  149.6018 LP  0  0  0  0  0  0  0  0  0  0  0  0  # atno 17371 bound_to 10713
  139.8915  135.0119  156.6795 LP  0  0  0  0  0  0  0  0  0  0  0  0  # atno 17394 bound_to 11000
  140.7318  133.9053  155.8216 LP  0  0  0  0  0  0  0  0  0  0  0  0  # atno 17395 bound_to 11000

$$$$
