AV-unprocessed.smi:2810|AV-procd|sdf|10827|dock5
  -GOLD-   2272015263D 1   1.00000     0.00000
 Structure written by MMmdl.
 39 40  0  0  0  0  0  0  0  0  1 V2000
  154.6034  140.1745  160.8427 C   0  0  0  0  0  0  0  0  0  0  0  0
  153.5323  140.7942  159.9707 C   0  0  0  0  0  0  0  0  0  0  0  0
  152.9913  140.1043  158.8664 C   0  0  0  0  0  0  0  0  0  0  0  0
  152.0036  140.7862  158.1144 C   0  0  0  0  0  0  0  0  0  0  0  0
  151.3718  140.2243  156.9864 N   0  0  0  0  0  0  0  0  0  0  0  0
  152.3445  139.7684  155.9956 C   0  0  0  0  0  0  0  0  0  0  0  0
  151.6543  138.9566  154.8901 C   0  0  0  0  0  0  0  0  0  0  0  0
  150.6160  139.7383  154.3151 O   0  0  0  0  0  0  0  0  0  0  0  0
  149.6119  140.0555  155.2714 C   0  0  0  0  0  0  0  0  0  0  0  0
  150.2031  140.9111  156.4165 C   0  0  1  0  0  0  0  0  0  0  0  0
  149.0749  141.2128  157.4202 C   0  0  0  0  0  0  0  0  0  0  0  0
  148.6854  142.4853  157.5291 N   0  0  0  0  0  0  0  0  0  0  0  0
  148.5554  140.3124  158.0774 O   0  0  0  0  0  0  0  0  0  0  0  0
  151.6027  142.0286  158.4685 N   0  0  0  0  0  0  0  0  0  0  0  0
  152.1825  142.5903  159.5346 C   0  0  0  0  0  0  0  0  0  0  0  0
  151.7243  143.9934  159.9096 C   0  0  0  0  0  0  0  0  0  0  0  0
  152.0595  145.0190  158.8157 C   0  0  0  0  0  0  0  0  0  0  0  0
  152.2295  144.4103  161.2995 C   0  0  0  0  0  0  0  0  0  0  0  0
  153.1266  142.0382  160.3026 N   0  0  0  0  0  0  0  0  0  0  0  0
  154.7471  139.1212  160.6007 H   0  0  0  0  0  0  0  0  0  0  0  0
  154.3290  140.2470  161.8954 H   0  0  0  0  0  0  0  0  0  0  0  0
  155.5523  140.6913  160.6971 H   0  0  0  0  0  0  0  0  0  0  0  0
  153.3232  139.1075  158.6188 H   0  0  0  0  0  0  0  0  0  0  0  0
  152.8467  140.6348  155.5618 H   0  0  0  0  0  0  0  0  0  0  0  0
  153.1167  139.1531  156.4597 H   0  0  0  0  0  0  0  0  0  0  0  0
  152.3721  138.6928  154.1132 H   0  0  0  0  0  0  0  0  0  0  0  0
  151.2520  138.0216  155.2837 H   0  0  0  0  0  0  0  0  0  0  0  0
  148.8165  140.6001  154.7608 H   0  0  0  0  0  0  0  0  0  0  0  0
  149.1665  139.1342  155.6530 H   0  0  0  0  0  0  0  0  0  0  0  0
  150.5474  141.8512  155.9821 H   0  0  0  0  0  0  0  0  0  0  0  0
  147.9478  142.7346  158.1717 H   0  0  0  0  0  0  0  0  0  0  0  0
  149.1305  143.1943  156.9648 H   0  0  0  0  0  0  0  0  0  0  0  0
  150.6353  143.9680  159.9781 H   0  0  0  0  0  0  0  0  0  0  0  0
  151.6227  144.7277  157.8601 H   0  0  0  0  0  0  0  0  0  0  0  0
  153.1366  145.1144  158.6747 H   0  0  0  0  0  0  0  0  0  0  0  0
  151.6704  146.0048  159.0705 H   0  0  0  0  0  0  0  0  0  0  0  0
  151.9095  143.6989  162.0616 H   0  0  0  0  0  0  0  0  0  0  0  0
  151.8434  145.3906  161.5796 H   0  0  0  0  0  0  0  0  0  0  0  0
  153.3183  144.4628  161.3287 H   0  0  0  0  0  0  0  0  0  0  0  0
  1  2  1  0  0  0  0
  1 20  1  0  0  0  0
  1 21  1  0  0  0  0
  1 22  1  0  0  0  0
  2 19  1  0  0  0  0
  2  3  2  0  0  0  0
  3  4  1  0  0  0  0
  3 23  1  0  0  0  0
  4  5  1  0  0  0  0
  4 14  2  0  0  0  0
  5 10  1  0  0  0  0
  5  6  1  0  0  0  0
  6  7  1  0  0  0  0
  6 24  1  0  0  0  0
  6 25  1  0  0  0  0
  7  8  1  0  0  0  0
  7 26  1  0  0  0  0
  7 27  1  0  0  0  0
  8  9  1  0  0  0  0
  9 10  1  0  0  0  0
  9 28  1  0  0  0  0
  9 29  1  0  0  0  0
 10 11  1  0  0  0  0
 10 30  1  0  0  0  0
 11 12  1  0  0  0  0
 11 13  2  0  0  0  0
 12 31  1  0  0  0  0
 12 32  1  0  0  0  0
 14 15  1  0  0  0  0
 15 16  1  0  0  0  0
 15 19  2  0  0  0  0
 16 17  1  0  0  0  0
 16 18  1  0  0  0  0
 16 33  1  0  0  0  0
 17 34  1  0  0  0  0
 17 35  1  0  0  0  0
 17 36  1  0  0  0  0
 18 37  1  0  0  0  0
 18 38  1  0  0  0  0
 18 39  1  0  0  0  0
M  END
> <s_m_source_file>
AV-unprocessed.smi

> <i_m_source_file_index>
2810

> <i_lp_mmshare_version>
43012

> <i_f3d_flags>
0

> <s_epik_input>
W0NIM11bQ0hdKFtDSDNdKWMobjEpbmMoW2NIXWMxW0NIM10pTjJbQ0gyXVtDSDJdT1tDSDJdW0NASF0yQyg9TylbTkgyXQ==

> <s_epik_cmdline>
J2VwaWtfcHl0aG9uJywgJy1waCcsICc3LjAnLCAnLXRuJywgJzgnLCAnLW1hJywgJzIwMCcsICctbWV0YWxfYmluZGluZycsICctaW1hZScsICc8aW5maWxlLm1hZT4nLCAnLW9tYWUnLCAnPG91dGZpbGUubWFlPic=

> <r_lp_tautomer_probability>
1

> <r_epik_Ionization_Penalty>
0.00607782

> <r_epik_Ionization_Penalty_Charging>
0

> <r_epik_Ionization_Penalty_Neutral>
0.00607782

> <r_epik_State_Penalty>
0.00441345

> <r_epik_Charging_Adjusted_Penalty>
0.00441345

> <i_epik_Tot_Q>
0

> <i_epik_Tot_abs_Q>
0

> <r_epik_Metal_State_Penalty>
-0

> <b_epik_Metal_Only>
0

> <s_lp_Force_Field>
OPLS_2005

> <r_lp_Energy>
6.57668

> <b_lp_Chiralities_Consistent>
1

> <s_lp_Variant>
AV-unprocessed.smi:2810-1

> <Gold.Version>
5.8.1

> <Gold.Id.Protein>
6NUR|6NUR_protein|mol2

> <Gold.PLP.Fitness>
43.6031

> <Gold.PLP.PLP>
-38.5935

> <Gold.PLP.part.hbond>
-2.4887

> <Gold.PLP.part.metal>
0.0000

> <Gold.PLP.part.buried>
-5.7326

> <Gold.PLP.part.nonpolar>
-30.6953

> <Gold.PLP.part.repulsive>
0.1984

> <Gold.PLP.ligand.clash>
0.0000

> <Gold.PLP.ligand.torsion>
0.3380

> <Gold.PLP.Chemscore.Hbond>
1.7840

> <Gold.PLP.Chemscore.CHOScore>
0.0000

> <Gold.PLP.Chemscore.Metal>
0.0000

> <Gold.Chemscore.Hbonds>
donor molecule, donor type, donor heavy atom, donor atom, acceptor molecule, acceptor atom, score
      L1  H    12    32       P1  8028  0.93
      P1  H  7989  7998       L1     8  0.85

> <Gold.PLP.Chemscore.Internal.Correction>
0.3335

> <Gold.Rescore>
     Score         DG    S(hbond)    S(metal)    S(lipo)     H(rot)  DE(clash)    DE(int)     intcor
     13.33     -17.11       1.73        0.00      87.52       1.71       1.99       1.79       ----

> <Gold.Chemscore.Fitness>
13.3275

> <Gold.Chemscore.DG>
-17.1119

> <Gold.Chemscore.ZeroCoef>
-5.4800

> <Gold.Chemscore.Hbond>
1.7286

> <Gold.Chemscore.Metal>
0.0000

> <Gold.Chemscore.Lipo>
87.5241

> <Gold.Chemscore.Internal_Hbond>
0.0000

> <Gold.Chemscore.DEClash>
1.9924

> <Gold.Chemscore.DEInternal>
1.7919

> <Gold.Chemscore.Rot>
1.7117

> <Gold.Chemscore.Internal.Correction>
   9.000000E+99

> <Gold.Chemscore.Hbonds>
donor molecule, donor type, donor heavy atom, donor atom, acceptor molecule, acceptor atom, score
      L1  H    12    32       P1  8028  0.77
      P1  H  7989  7998       L1     8  0.15

> <Gold.Chemscore.Hbond.Weighted>
-5.7736

> <Gold.Chemscore.Metal.Weighted>
-0.0000

> <Gold.Chemscore.Lipo.Weighted>
-10.2403

> <Gold.Chemscore.Internal_Hbond.Weighted>
0.0000

> <Gold.Chemscore.DEClash.Weighted>
1.9924

> <Gold.Chemscore.DEInternal.Weighted>
1.7919

> <Gold.Chemscore.Rot.Weighted>
4.3820

> <Gold.Chemscore.Internal.Correction.Weighted>
   9.000000E+99

> <Gold.Protein.RotatedTorsions>
[ 6907 6896 6895 6894 ] final   93.31 input  -60.11 | X-H torsion
[ 7974 7965 7964 7962 ] final -118.08 input  175.53 | X-H torsion
[ 8008 7997 7996 7995 ] final   71.68 input   59.86 | X-H torsion
[ 10167 10162 10161 10158 ] final    3.67 input  -65.29 | X-H torsion
[ 10718 10713 10712 10709 ] final  -53.64 input   66.30 | X-H torsion
[ 10763 10752 10751 10750 ] final   28.55 input  -60.55 | X-H torsion
[ 11005 11000 10999 10996 ] final  -50.94 input  -57.11 | X-H torsion

> <Gold.Protein.ActiveResidues>
 VAL166  LYS551  ARG553  GLY616  TRP617  ASP618  TYR619  PRO620  LYS621  CYS622 
 ASP623  PHE694  ASN695  SER759  ASP760  ASP761  ALA762  ILE779  LEU786  VAL792 
 PHE793  MET794  SER795  GLU796  ALA797  LYS798  CYS799  TRP800  GLU811  SER814 

> <Gold.Protein.RotatedAtoms>
  152.5452  134.1368  159.8461 H   0  0  0  0  0  0  0  0  0  0  0  0  # atno 6907 bound_to 6896
  151.1408  133.4966  159.2604 H   0  0  0  0  0  0  0  0  0  0  0  0  # atno 6908 bound_to 6896
  151.1575  135.0268  159.8750 H   0  0  0  0  0  0  0  0  0  0  0  0  # atno 6909 bound_to 6896
  145.0779  140.8405  143.4056 H   0  0  0  0  0  0  0  0  0  0  0  0  # atno 7974 bound_to 7965
  155.7575  140.3487  155.5181 H   0  0  0  0  0  0  0  0  0  0  0  0  # atno 8008 bound_to 7997
  155.8946  140.1023  157.1415 H   0  0  0  0  0  0  0  0  0  0  0  0  # atno 8009 bound_to 7997
  154.4037  140.1298  156.4346 H   0  0  0  0  0  0  0  0  0  0  0  0  # atno 8010 bound_to 7997
  140.6574  143.7392  150.7678 H   0  0  0  0  0  0  0  0  0  0  0  0  # atno 10167 bound_to 10162
  156.1518  130.4151  149.9933 H   0  0  0  0  0  0  0  0  0  0  0  0  # atno 10718 bound_to 10713
  153.0484  135.6510  154.0756 H   0  0  0  0  0  0  0  0  0  0  0  0  # atno 10763 bound_to 10752
  154.0449  135.2900  155.3351 H   0  0  0  0  0  0  0  0  0  0  0  0  # atno 10764 bound_to 10752
  154.6758  135.5339  153.8263 H   0  0  0  0  0  0  0  0  0  0  0  0  # atno 10765 bound_to 10752
  141.0843  133.6646  156.3804 H   0  0  0  0  0  0  0  0  0  0  0  0  # atno 11005 bound_to 11000
  145.1213  139.2692  143.5587 LP  0  0  0  0  0  0  0  0  0  0  0  0  # atno 17320 bound_to 7965
  146.3530  140.0838  142.8616 LP  0  0  0  0  0  0  0  0  0  0  0  0  # atno 17321 bound_to 7965
  140.1054  143.4748  152.2401 LP  0  0  0  0  0  0  0  0  0  0  0  0  # atno 17342 bound_to 10162
  139.5800  144.7506  151.3666 LP  0  0  0  0  0  0  0  0  0  0  0  0  # atno 17343 bound_to 10162
  156.7788  130.9213  151.3645 LP  0  0  0  0  0  0  0  0  0  0  0  0  # atno 17370 bound_to 10713
  157.6663  130.9010  149.9939 LP  0  0  0  0  0  0  0  0  0  0  0  0  # atno 17371 bound_to 10713
  140.5397  134.6132  157.5376 LP  0  0  0  0  0  0  0  0  0  0  0  0  # atno 17394 bound_to 11000
  139.9660  134.7372  156.0137 LP  0  0  0  0  0  0  0  0  0  0  0  0  # atno 17395 bound_to 11000

$$$$
