AV-unprocessed.smi:2592|AV-procd|sdf|10159|dock3
  -GOLD-   2272014173D 1   1.00000     0.00000
 Structure written by MMmdl.
 43 44  0  0  0  0  0  0  0  0  2 V2000
  153.6768  141.3287  160.3332 C   0  0  0  0  0  0  0  0  0  0  0  0
  152.5700  142.1963  159.8173 C   0  0  0  0  0  0  0  0  0  0  0  0
  152.0155  141.9314  158.5618 N   0  0  0  0  0  0  0  0  0  0  0  0
  151.0446  142.7935  158.2445 C   0  0  0  0  0  0  0  0  0  0  0  0
  150.3117  142.7626  157.0290 N   0  0  0  0  0  0  0  0  0  0  0  0
  150.0867  141.7101  156.2230 C   0  0  0  0  0  0  0  0  0  0  0  0
  150.4880  140.5625  156.4202 O   0  0  0  0  0  0  0  0  0  0  0  0
  149.3546  142.0605  155.1552 N   0  0  0  0  0  0  0  0  0  0  0  0
  148.9513  141.1530  154.0865 C   0  0  0  0  0  0  0  0  0  0  0  0
  147.4489  141.2660  153.7773 C   0  0  0  0  0  0  0  0  0  0  0  0
  146.6520  140.0668  154.3178 C   0  0  0  0  0  0  0  0  0  0  0  0
  146.0118  139.2744  153.2379 N   0  3  0  0  0  0  0  0  0  0  0  0
  146.9598  138.9372  152.1487 C   0  0  0  0  0  0  0  0  0  0  0  0
  146.2460  138.1581  151.0309 C   0  0  0  0  0  0  0  0  0  0  0  0
  145.6446  136.9892  151.5726 O   0  0  0  0  0  0  0  0  0  0  0  0
  144.6655  137.3030  152.5549 C   0  0  0  0  0  0  0  0  0  0  0  0
  145.3282  138.0500  153.7244 C   0  0  0  0  0  0  0  0  0  0  0  0
  150.7422  143.9998  159.4828 S   0  0  0  0  0  0  0  0  0  0  0  0
  151.9989  143.2742  160.4542 C   0  0  0  0  0  0  0  0  0  0  0  0
  152.3443  143.8286  161.7963 C   0  0  0  0  0  0  0  0  0  0  0  0
  153.3238  140.6784  161.1336 H   0  0  0  0  0  0  0  0  0  0  0  0
  154.4955  141.9288  160.7309 H   0  0  0  0  0  0  0  0  0  0  0  0
  154.0891  140.6926  159.5494 H   0  0  0  0  0  0  0  0  0  0  0  0
  149.9168  143.6451  156.7393 H   0  0  0  0  0  0  0  0  0  0  0  0
  149.0686  143.0249  155.0680 H   0  0  0  0  0  0  0  0  0  0  0  0
  149.5342  141.3976  153.1982 H   0  0  0  0  0  0  0  0  0  0  0  0
  149.2106  140.1273  154.3547 H   0  0  0  0  0  0  0  0  0  0  0  0
  147.0663  142.1916  154.2068 H   0  0  0  0  0  0  0  0  0  0  0  0
  147.3058  141.3428  152.6987 H   0  0  0  0  0  0  0  0  0  0  0  0
  147.3410  139.4238  154.8677 H   0  0  0  0  0  0  0  0  0  0  0  0
  145.8975  140.3946  155.0347 H   0  0  0  0  0  0  0  0  0  0  0  0
  147.3923  139.8501  151.7375 H   0  0  0  0  0  0  0  0  0  0  0  0
  147.7831  138.3441  152.5503 H   0  0  0  0  0  0  0  0  0  0  0  0
  145.4918  138.7774  150.5426 H   0  0  0  0  0  0  0  0  0  0  0  0
  146.9614  137.8632  150.2631 H   0  0  0  0  0  0  0  0  0  0  0  0
  143.8667  137.9009  152.1128 H   0  0  0  0  0  0  0  0  0  0  0  0
  144.2113  136.3775  152.9093 H   0  0  0  0  0  0  0  0  0  0  0  0
  146.0505  137.3984  154.2190 H   0  0  0  0  0  0  0  0  0  0  0  0
  144.5677  138.3019  154.4626 H   0  0  0  0  0  0  0  0  0  0  0  0
  153.2727  144.3980  161.7499 H   0  0  0  0  0  0  0  0  0  0  0  0
  152.4737  143.0291  162.5260 H   0  0  0  0  0  0  0  0  0  0  0  0
  151.5600  144.4907  162.1633 H   0  0  0  0  0  0  0  0  0  0  0  0
  145.3046  139.8654  152.8246 H   0  0  0  0  0  0  0  0  0  0  0  0
  1  2  1  0  0  0  0
  1 21  1  0  0  0  0
  1 22  1  0  0  0  0
  1 23  1  0  0  0  0
  2 19  2  0  0  0  0
  2  3  1  0  0  0  0
  3  4  2  0  0  0  0
  4  5  1  0  0  0  0
  4 18  1  0  0  0  0
  5  6  1  0  0  0  0
  5 24  1  0  0  0  0
  6  7  2  0  0  0  0
  6  8  1  0  0  0  0
  8  9  1  0  0  0  0
  8 25  1  0  0  0  0
  9 10  1  0  0  0  0
  9 26  1  0  0  0  0
  9 27  1  0  0  0  0
 10 11  1  0  0  0  0
 10 28  1  0  0  0  0
 10 29  1  0  0  0  0
 11 12  1  0  0  0  0
 11 30  1  0  0  0  0
 11 31  1  0  0  0  0
 12 17  1  0  0  0  0
 12 13  1  0  0  0  0
 12 43  1  0  0  0  0
 13 14  1  0  0  0  0
 13 32  1  0  0  0  0
 13 33  1  0  0  0  0
 14 15  1  0  0  0  0
 14 34  1  0  0  0  0
 14 35  1  0  0  0  0
 15 16  1  0  0  0  0
 16 17  1  0  0  0  0
 16 36  1  0  0  0  0
 16 37  1  0  0  0  0
 17 38  1  0  0  0  0
 17 39  1  0  0  0  0
 18 19  1  0  0  0  0
 19 20  1  0  0  0  0
 20 40  1  0  0  0  0
 20 41  1  0  0  0  0
 20 42  1  0  0  0  0
M  CHG  1  12   1
M  END
> <s_m_source_file>
AV-unprocessed.smi

> <i_m_source_file_index>
2592

> <i_lp_mmshare_version>
43012

> <i_f3d_flags>
0

> <s_epik_input>
W0NIM11jMW5jKHNjMVtDSDNdKVtOSF1DKD1PKVtOSF1bQ0gyXVtDSDJdW0NIMl1OMltDSDJdW0NIMl1PW0NIMl1bQ0gyXTI=

> <s_epik_cmdline>
J2VwaWtfcHl0aG9uJywgJy1waCcsICc3LjAnLCAnLXRuJywgJzgnLCAnLW1hJywgJzIwMCcsICctbWV0YWxfYmluZGluZycsICctaW1hZScsICc8aW5maWxlLm1hZT4nLCAnLW9tYWUnLCAnPG91dGZpbGUubWFlPic=

> <r_lp_tautomer_probability>
0.999

> <r_epik_Ionization_Penalty>
0.281876

> <r_epik_Ionization_Penalty_Charging>
0.281705

> <r_epik_Ionization_Penalty_Neutral>
0.000171168

> <r_epik_State_Penalty>
0.274317

> <r_epik_Charging_Adjusted_Penalty>
0.556022

> <i_epik_Tot_Q>
1

> <i_epik_Tot_abs_Q>
1

> <r_epik_Metal_State_Penalty>
0.293174

> <b_epik_Metal_Only>
0

> <s_lp_Force_Field>
OPLS_2005

> <r_lp_Energy>
13.2764

> <b_lp_Chiralities_Consistent>
1

> <s_lp_Variant>
AV-unprocessed.smi:2592-1

> <Gold.Version>
5.8.1

> <Gold.Id.Protein>
6NUR|6NUR_protein|mol2

> <Gold.PLP.Fitness>
50.4259

> <Gold.PLP.PLP>
-40.2048

> <Gold.PLP.part.hbond>
-3.0000

> <Gold.PLP.part.metal>
0.0000

> <Gold.PLP.part.buried>
-1.1359

> <Gold.PLP.part.nonpolar>
-36.4616

> <Gold.PLP.part.repulsive>
0.8515

> <Gold.PLP.ligand.clash>
0.0000

> <Gold.PLP.ligand.torsion>
0.9219

> <Gold.PLP.Chemscore.Hbond>
4.0000

> <Gold.PLP.Chemscore.CHOScore>
0.0000

> <Gold.PLP.Chemscore.Metal>
0.0000

> <Gold.Chemscore.Hbonds>
donor molecule, donor type, donor heavy atom, donor atom, acceptor molecule, acceptor atom, score
      L1  H     5    24       P1  8028  1.00
      L1  H     8    25       P1  8028  1.00
      L1  H    12    43       P1 10175  2.00

> <Gold.PLP.Chemscore.Internal.Correction>
0.0649

> <Gold.Rescore>
     Score         DG    S(hbond)    S(metal)    S(lipo)     H(rot)  DE(clash)    DE(int)     intcor
     19.11     -22.20       2.95        0.00      97.24       1.76       1.14       1.96       ----

> <Gold.Chemscore.Fitness>
19.1060

> <Gold.Chemscore.DG>
-22.2010

> <Gold.Chemscore.ZeroCoef>
-5.4800

> <Gold.Chemscore.Hbond>
2.9484

> <Gold.Chemscore.Metal>
0.0000

> <Gold.Chemscore.Lipo>
97.2410

> <Gold.Chemscore.Internal_Hbond>
0.0000

> <Gold.Chemscore.DEClash>
1.1394

> <Gold.Chemscore.DEInternal>
1.9556

> <Gold.Chemscore.Rot>
1.7593

> <Gold.Chemscore.Internal.Correction>
   9.000000E+99

> <Gold.Chemscore.Hbonds>
donor molecule, donor type, donor heavy atom, donor atom, acceptor molecule, acceptor atom, score
      L1  H     5    24       P1  8028  0.98
      L1  H     8    25       P1  8028  0.98
      L1  H    12    43       P1 10175  0.99

> <Gold.Chemscore.Hbond.Weighted>
-9.8477

> <Gold.Chemscore.Metal.Weighted>
-0.0000

> <Gold.Chemscore.Lipo.Weighted>
-11.3772

> <Gold.Chemscore.Internal_Hbond.Weighted>
0.0000

> <Gold.Chemscore.DEClash.Weighted>
1.1394

> <Gold.Chemscore.DEInternal.Weighted>
1.9556

> <Gold.Chemscore.Rot.Weighted>
4.5039

> <Gold.Chemscore.Internal.Correction.Weighted>
   9.000000E+99

> <Gold.Protein.RotatedTorsions>
[ 6907 6896 6895 6894 ] final   28.51 input  -60.11 | X-H torsion
[ 7974 7965 7964 7962 ] final  126.11 input  175.53 | X-H torsion
[ 8008 7997 7996 7995 ] final  106.20 input   59.86 | X-H torsion
[ 10167 10162 10161 10158 ] final   67.74 input  -65.29 | X-H torsion
[ 10718 10713 10712 10709 ] final   71.43 input   66.30 | X-H torsion
[ 10763 10752 10751 10750 ] final  111.63 input  -60.55 | X-H torsion
[ 11005 11000 10999 10996 ] final   73.22 input  -57.11 | X-H torsion

> <Gold.Protein.ActiveResidues>
 VAL166  LYS551  ARG553  GLY616  TRP617  ASP618  TYR619  PRO620  LYS621  CYS622 
 ASP623  PHE694  ASN695  SER759  ASP760  ASP761  ALA762  ILE779  LEU786  VAL792 
 PHE793  MET794  SER795  GLU796  ALA797  LYS798  CYS799  TRP800  GLU811  SER814 

> <Gold.Protein.RotatedAtoms>
  152.0180  134.9839  160.0569 H   0  0  0  0  0  0  0  0  0  0  0  0  # atno 6907 bound_to 6896
  152.1365  133.4433  159.4754 H   0  0  0  0  0  0  0  0  0  0  0  0  # atno 6908 bound_to 6896
  150.6861  134.2276  159.4464 H   0  0  0  0  0  0  0  0  0  0  0  0  # atno 6909 bound_to 6896
  145.0654  139.3771  143.4984 H   0  0  0  0  0  0  0  0  0  0  0  0  # atno 7974 bound_to 7965
  156.1723  140.3117  155.8996 H   0  0  0  0  0  0  0  0  0  0  0  0  # atno 8008 bound_to 7997
  155.3560  140.0474  157.3063 H   0  0  0  0  0  0  0  0  0  0  0  0  # atno 8009 bound_to 7997
  154.5254  140.2212  155.8910 H   0  0  0  0  0  0  0  0  0  0  0  0  # atno 8010 bound_to 7997
  140.0863  144.5027  150.7128 H   0  0  0  0  0  0  0  0  0  0  0  0  # atno 10167 bound_to 10162
  157.6451  130.9528  150.0789 H   0  0  0  0  0  0  0  0  0  0  0  0  # atno 10718 bound_to 10713
  153.4662  135.3711  155.2365 H   0  0  0  0  0  0  0  0  0  0  0  0  # atno 10763 bound_to 10752
  154.8757  135.3920  154.3866 H   0  0  0  0  0  0  0  0  0  0  0  0  # atno 10764 bound_to 10752
  153.4447  135.7084  153.6211 H   0  0  0  0  0  0  0  0  0  0  0  0  # atno 10765 bound_to 10752
  139.9451  134.7328  156.1000 H   0  0  0  0  0  0  0  0  0  0  0  0  # atno 11005 bound_to 11000
  146.3526  140.0373  142.8645 LP  0  0  0  0  0  0  0  0  0  0  0  0  # atno 17320 bound_to 7965
  145.1357  140.9543  143.4518 LP  0  0  0  0  0  0  0  0  0  0  0  0  # atno 17321 bound_to 7965
  140.7052  143.2463  151.4748 LP  0  0  0  0  0  0  0  0  0  0  0  0  # atno 17342 bound_to 10162
  139.5750  144.1839  152.1891 LP  0  0  0  0  0  0  0  0  0  0  0  0  # atno 17343 bound_to 10162
  156.1771  130.3648  149.9086 LP  0  0  0  0  0  0  0  0  0  0  0  0  # atno 17370 bound_to 10713
  156.7047  130.8947  151.3603 LP  0  0  0  0  0  0  0  0  0  0  0  0  # atno 17371 bound_to 10713
  141.1099  133.6647  156.2953 LP  0  0  0  0  0  0  0  0  0  0  0  0  # atno 17394 bound_to 11000
  140.5854  134.5703  157.5488 LP  0  0  0  0  0  0  0  0  0  0  0  0  # atno 17395 bound_to 11000

$$$$
