AV-unprocessed.smi:1657|AV-procd|sdf|6647|dock7
  -GOLD-   22720 7353D 1   1.00000     0.00000
 Structure written by MMmdl.
 52 54  0  0  0  0  0  0  0  0  2 V2000
  146.4968  139.3878  153.6358 O   0  0  0  0  0  0  0  0  0  0  0  0
  147.3671  138.7340  153.0607 C   0  0  0  0  0  0  0  0  0  0  0  0
  147.1106  137.9072  152.0372 N   0  0  0  0  0  0  0  0  0  0  0  0
  145.7893  137.6743  151.4656 C   0  0  0  0  0  0  0  0  0  0  0  0
  145.1025  136.4561  152.1121 C   0  0  0  0  0  0  0  0  0  0  0  0
  145.8959  135.2112  151.9551 N   0  3  0  0  0  0  0  0  0  0  0  0
  145.7525  134.3025  153.1229 C   0  0  0  0  0  0  0  0  0  0  0  0
  146.6880  133.0877  153.0019 C   0  0  0  0  0  0  0  0  0  0  0  0
  146.4388  132.3307  151.6913 C   0  0  0  0  0  0  0  0  0  0  0  0
  146.5548  133.2912  150.5008 C   0  0  0  0  0  0  0  0  0  0  0  0
  145.6224  134.5020  150.6757 C   0  0  0  0  0  0  0  0  0  0  0  0
  148.6730  138.7280  153.3776 N   0  0  0  0  0  0  0  0  0  0  0  0
  149.3351  139.4709  154.3916 C   0  0  0  0  0  0  0  0  0  0  0  0
  148.9441  140.7621  154.8137 C   0  0  0  0  0  0  0  0  0  0  0  0
  149.6932  141.4082  155.8156 C   0  0  0  0  0  0  0  0  0  0  0  0
  150.8184  140.7544  156.3723 C   0  0  0  0  0  0  0  0  0  0  0  0
  151.5817  141.3811  157.3827 N   0  0  0  0  0  0  0  0  0  0  0  0
  151.8161  140.6429  158.6232 C   0  0  0  0  0  0  0  0  0  0  0  0
  152.8915  141.3423  159.4714 C   0  0  0  0  0  0  0  0  0  0  0  0
  152.5171  142.6965  159.7000 O   0  0  0  0  0  0  0  0  0  0  0  0
  152.4063  143.4263  158.4830 C   0  0  0  0  0  0  0  0  0  0  0  0
  151.3144  142.8018  157.5971 C   0  0  0  0  0  0  0  0  0  0  0  0
  151.2012  139.5246  155.9481 N   0  0  0  0  0  0  0  0  0  0  0  0
  150.4820  138.9097  154.9864 C   0  0  0  0  0  0  0  0  0  0  0  0
  147.8841  137.4071  151.6231 H   0  0  0  0  0  0  0  0  0  0  0  0
  145.1886  138.5780  151.5729 H   0  0  0  0  0  0  0  0  0  0  0  0
  145.9088  137.5077  150.3948 H   0  0  0  0  0  0  0  0  0  0  0  0
  144.9722  136.6705  153.1740 H   0  0  0  0  0  0  0  0  0  0  0  0
  144.1012  136.3045  151.7057 H   0  0  0  0  0  0  0  0  0  0  0  0
  145.9872  134.8409  154.0420 H   0  0  0  0  0  0  0  0  0  0  0  0
  144.7153  133.9733  153.2037 H   0  0  0  0  0  0  0  0  0  0  0  0
  147.7266  133.4189  153.0437 H   0  0  0  0  0  0  0  0  0  0  0  0
  146.5422  132.4191  153.8508 H   0  0  0  0  0  0  0  0  0  0  0  0
  147.1504  131.5110  151.5867 H   0  0  0  0  0  0  0  0  0  0  0  0
  145.4444  131.8822  151.7080 H   0  0  0  0  0  0  0  0  0  0  0  0
  147.5863  133.6331  150.4031 H   0  0  0  0  0  0  0  0  0  0  0  0
  146.3143  132.7666  149.5755 H   0  0  0  0  0  0  0  0  0  0  0  0
  144.5808  134.1769  150.6543 H   0  0  0  0  0  0  0  0  0  0  0  0
  145.7574  135.1752  149.8302 H   0  0  0  0  0  0  0  0  0  0  0  0
  149.2520  138.0711  152.8749 H   0  0  0  0  0  0  0  0  0  0  0  0
  148.1003  141.2751  154.3787 H   0  0  0  0  0  0  0  0  0  0  0  0
  149.4067  142.4012  156.1276 H   0  0  0  0  0  0  0  0  0  0  0  0
  150.8831  140.5759  159.1844 H   0  0  0  0  0  0  0  0  0  0  0  0
  152.1392  139.6245  158.4034 H   0  0  0  0  0  0  0  0  0  0  0  0
  152.9993  140.8367  160.4311 H   0  0  0  0  0  0  0  0  0  0  0  0
  153.8642  141.3001  158.9785 H   0  0  0  0  0  0  0  0  0  0  0  0
  152.1556  144.4620  158.7123 H   0  0  0  0  0  0  0  0  0  0  0  0
  153.3668  143.4392  157.9650 H   0  0  0  0  0  0  0  0  0  0  0  0
  151.2659  143.3526  156.6593 H   0  0  0  0  0  0  0  0  0  0  0  0
  150.3403  142.9072  158.0767 H   0  0  0  0  0  0  0  0  0  0  0  0
  150.8326  137.9325  154.6877 H   0  0  0  0  0  0  0  0  0  0  0  0
  146.8663  135.4906  151.9367 H   0  0  0  0  0  0  0  0  0  0  0  0
  1  2  2  0  0  0  0
  2  3  1  0  0  0  0
  2 12  1  0  0  0  0
  3  4  1  0  0  0  0
  3 25  1  0  0  0  0
  4  5  1  0  0  0  0
  4 26  1  0  0  0  0
  4 27  1  0  0  0  0
  5  6  1  0  0  0  0
  5 28  1  0  0  0  0
  5 29  1  0  0  0  0
  6 11  1  0  0  0  0
  6  7  1  0  0  0  0
  6 52  1  0  0  0  0
  7  8  1  0  0  0  0
  7 30  1  0  0  0  0
  7 31  1  0  0  0  0
  8  9  1  0  0  0  0
  8 32  1  0  0  0  0
  8 33  1  0  0  0  0
  9 10  1  0  0  0  0
  9 34  1  0  0  0  0
  9 35  1  0  0  0  0
 10 11  1  0  0  0  0
 10 36  1  0  0  0  0
 10 37  1  0  0  0  0
 11 38  1  0  0  0  0
 11 39  1  0  0  0  0
 12 13  1  0  0  0  0
 12 40  1  0  0  0  0
 13 24  1  0  0  0  0
 13 14  2  0  0  0  0
 14 15  1  0  0  0  0
 14 41  1  0  0  0  0
 15 16  2  0  0  0  0
 15 42  1  0  0  0  0
 16 17  1  0  0  0  0
 16 23  1  0  0  0  0
 17 22  1  0  0  0  0
 17 18  1  0  0  0  0
 18 19  1  0  0  0  0
 18 43  1  0  0  0  0
 18 44  1  0  0  0  0
 19 20  1  0  0  0  0
 19 45  1  0  0  0  0
 19 46  1  0  0  0  0
 20 21  1  0  0  0  0
 21 22  1  0  0  0  0
 21 47  1  0  0  0  0
 21 48  1  0  0  0  0
 22 49  1  0  0  0  0
 22 50  1  0  0  0  0
 23 24  2  0  0  0  0
 24 51  1  0  0  0  0
M  CHG  1   6   1
M  END
> <s_m_source_file>
AV-unprocessed.smi

> <i_m_source_file_index>
1657

> <i_lp_mmshare_version>
43012

> <i_f3d_flags>
0

> <s_epik_input>
W0NIMl0xW0NIMl1bQ0gyXVtDSDJdW0NIMl1OMVtDSDJdW0NIMl1bTkhdQyg9TylbTkhdYzJbY0hdW2NIXWMobltjSF0yKU4zW0NIMl1bQ0gyXU9bQ0gyXVtDSDJdMw==

> <s_epik_cmdline>
J2VwaWtfcHl0aG9uJywgJy1waCcsICc3LjAnLCAnLXRuJywgJzgnLCAnLW1hJywgJzIwMCcsICctbWV0YWxfYmluZGluZycsICctaW1hZScsICc8aW5maWxlLm1hZT4nLCAnLW9tYWUnLCAnPG91dGZpbGUubWFlPic=

> <r_lp_tautomer_probability>
1

> <r_epik_Ionization_Penalty>
0.00380107

> <r_epik_Ionization_Penalty_Charging>
0.00211816

> <r_epik_Ionization_Penalty_Neutral>
0.00168291

> <r_epik_State_Penalty>
-0

> <r_epik_Charging_Adjusted_Penalty>
0.00211816

> <i_epik_Tot_Q>
1

> <i_epik_Tot_abs_Q>
1

> <r_epik_Metal_State_Penalty>
-0

> <b_epik_Metal_Only>
0

> <s_lp_Force_Field>
OPLS_2005

> <r_lp_Energy>
33.9821

> <b_lp_Chiralities_Consistent>
1

> <s_lp_Variant>
AV-unprocessed.smi:1657-1

> <Gold.Version>
5.8.1

> <Gold.Id.Protein>
6NUR|6NUR_protein|mol2

> <Gold.PLP.Fitness>
51.0751

> <Gold.PLP.PLP>
-42.8878

> <Gold.PLP.part.hbond>
-3.8060

> <Gold.PLP.part.metal>
0.0000

> <Gold.PLP.part.buried>
-2.3728

> <Gold.PLP.part.nonpolar>
-38.5846

> <Gold.PLP.part.repulsive>
0.3731

> <Gold.PLP.ligand.clash>
0.0000

> <Gold.PLP.ligand.torsion>
0.9446

> <Gold.PLP.Chemscore.Hbond>
3.2277

> <Gold.PLP.Chemscore.CHOScore>
0.0000

> <Gold.PLP.Chemscore.Metal>
0.0000

> <Gold.Chemscore.Hbonds>
donor molecule, donor type, donor heavy atom, donor atom, acceptor molecule, acceptor atom, score
      L1  H     3    25       P1  7948  0.93
      L1  H     6    52       P1  7948  1.24
      L1  H    12    40       P1  7948  0.65

> <Gold.PLP.Chemscore.Internal.Correction>
0.3934

> <Gold.Rescore>
     Score         DG    S(hbond)    S(metal)    S(lipo)     H(rot)  DE(clash)    DE(int)     intcor
     18.68     -21.06       2.02        0.00     111.02       1.62       1.49       0.88       ----

> <Gold.Chemscore.Fitness>
18.6841

> <Gold.Chemscore.DG>
-21.0564

> <Gold.Chemscore.ZeroCoef>
-5.4800

> <Gold.Chemscore.Hbond>
2.0164

> <Gold.Chemscore.Metal>
0.0000

> <Gold.Chemscore.Lipo>
111.0171

> <Gold.Chemscore.Internal_Hbond>
0.0000

> <Gold.Chemscore.DEClash>
1.4893

> <Gold.Chemscore.DEInternal>
0.8830

> <Gold.Chemscore.Rot>
1.6201

> <Gold.Chemscore.Internal.Correction>
   9.000000E+99

> <Gold.Chemscore.Hbonds>
donor molecule, donor type, donor heavy atom, donor atom, acceptor molecule, acceptor atom, score
      L1  H     3    25       P1  7948  0.87
      L1  H     6    52       P1  7948  0.63
      L1  H    12    40       P1  7948  0.62

> <Gold.Chemscore.Hbond.Weighted>
-6.7349

> <Gold.Chemscore.Metal.Weighted>
-0.0000

> <Gold.Chemscore.Lipo.Weighted>
-12.9890

> <Gold.Chemscore.Internal_Hbond.Weighted>
0.0000

> <Gold.Chemscore.DEClash.Weighted>
1.4893

> <Gold.Chemscore.DEInternal.Weighted>
0.8830

> <Gold.Chemscore.Rot.Weighted>
4.1475

> <Gold.Chemscore.Internal.Correction.Weighted>
   9.000000E+99

> <Gold.Protein.RotatedTorsions>
[ 6907 6896 6895 6894 ] final   73.05 input  -60.11 | X-H torsion
[ 7974 7965 7964 7962 ] final  -57.93 input  175.53 | X-H torsion
[ 8008 7997 7996 7995 ] final   44.79 input   59.86 | X-H torsion
[ 10167 10162 10161 10158 ] final  -99.90 input  -65.29 | X-H torsion
[ 10718 10713 10712 10709 ] final   -3.36 input   66.30 | X-H torsion
[ 10763 10752 10751 10750 ] final   43.64 input  -60.55 | X-H torsion
[ 11005 11000 10999 10996 ] final   36.14 input  -57.11 | X-H torsion

> <Gold.Protein.ActiveResidues>
 VAL166  LYS551  ARG553  GLY616  TRP617  ASP618  TYR619  PRO620  LYS621  CYS622 
 ASP623  PHE694  ASN695  SER759  ASP760  ASP761  ALA762  ILE779  LEU786  VAL792 
 PHE793  MET794  SER795  GLU796  ALA797  LYS798  CYS799  TRP800  GLU811  SER814 

> <Gold.Protein.RotatedAtoms>
  152.4902  134.4480  159.9565 H   0  0  0  0  0  0  0  0  0  0  0  0  # atno 6907 bound_to 6896
  151.4469  133.3622  159.2797 H   0  0  0  0  0  0  0  0  0  0  0  0  # atno 6908 bound_to 6896
  150.9048  134.8487  159.7445 H   0  0  0  0  0  0  0  0  0  0  0  0  # atno 6909 bound_to 6896
  145.8453  140.8389  143.0013 H   0  0  0  0  0  0  0  0  0  0  0  0  # atno 7974 bound_to 7965
  155.3251  140.3399  155.4240 H   0  0  0  0  0  0  0  0  0  0  0  0  # atno 8008 bound_to 7997
  156.1890  140.1691  156.8167 H   0  0  0  0  0  0  0  0  0  0  0  0  # atno 8009 bound_to 7997
  154.5419  140.0723  156.8508 H   0  0  0  0  0  0  0  0  0  0  0  0  # atno 8010 bound_to 7997
  140.2576  143.3429  152.0656 H   0  0  0  0  0  0  0  0  0  0  0  0  # atno 10167 bound_to 10162
  156.7772  130.5319  149.5757 H   0  0  0  0  0  0  0  0  0  0  0  0  # atno 10718 bound_to 10713
  152.9856  135.6095  154.3144 H   0  0  0  0  0  0  0  0  0  0  0  0  # atno 10763 bound_to 10752
  154.2857  135.2776  155.2679 H   0  0  0  0  0  0  0  0  0  0  0  0  # atno 10764 bound_to 10752
  154.4997  135.5870  153.6578 H   0  0  0  0  0  0  0  0  0  0  0  0  # atno 10765 bound_to 10752
  140.2356  134.3476  155.7946 H   0  0  0  0  0  0  0  0  0  0  0  0  # atno 11005 bound_to 11000
  144.6731  140.0872  143.7467 LP  0  0  0  0  0  0  0  0  0  0  0  0  # atno 17320 bound_to 7965
  145.9419  139.2675  143.1263 LP  0  0  0  0  0  0  0  0  0  0  0  0  # atno 17321 bound_to 7965
  139.5027  144.6739  151.6175 LP  0  0  0  0  0  0  0  0  0  0  0  0  # atno 17342 bound_to 10162
  140.5991  143.9641  150.6374 LP  0  0  0  0  0  0  0  0  0  0  0  0  # atno 17343 bound_to 10162
  156.1241  130.6131  151.0237 LP  0  0  0  0  0  0  0  0  0  0  0  0  # atno 17370 bound_to 10713
  157.6663  131.0871  150.7720 LP  0  0  0  0  0  0  0  0  0  0  0  0  # atno 17371 bound_to 10713
  141.2214  133.7270  156.8802 LP  0  0  0  0  0  0  0  0  0  0  0  0  # atno 17394 bound_to 11000
  140.1706  134.9103  157.2828 LP  0  0  0  0  0  0  0  0  0  0  0  0  # atno 17395 bound_to 11000

$$$$
