AV-unprocessed.smi:809|AV-procd|sdf|3808|dock2
  -GOLD-   22720 1243D 1   1.00000     0.00000
 Structure written by MMmdl.
 39 40  0  0  0  0  0  0  0  0  3 V2000
  147.6218  136.1652  163.0756 C   0  0  0  0  0  0  0  0  0  0  0  0
  147.5345  136.0324  161.5878 C   0  0  0  0  0  0  0  0  0  0  0  0
  147.3402  134.8802  160.8714 C   0  0  0  0  0  0  0  0  0  0  0  0
  147.3075  135.1863  159.1583 S   0  0  0  0  0  0  0  0  0  0  0  0
  147.5568  136.9053  159.4726 C   0  0  0  0  0  0  0  0  0  0  0  0
  147.6508  137.8536  158.5263 N   0  5  0  0  0  0  0  0  0  0  0  0
  148.4055  137.6367  157.4265 C   0  0  0  0  0  0  0  0  0  0  0  0
  149.0340  136.6083  157.1659 O   0  0  0  0  0  0  0  0  0  0  0  0
  148.4453  138.6831  156.5884 N   0  0  0  0  0  0  0  0  0  0  0  0
  149.2263  138.7871  155.3568 C   0  0  0  0  0  0  0  0  0  0  0  0
  149.5160  140.2581  154.9498 C   0  0  1  0  0  0  0  0  0  0  0  0
  150.2625  140.2005  153.7487 O   0  0  0  0  0  0  0  0  0  0  0  0
  148.2683  141.1394  154.7050 C   0  0  0  0  0  0  0  0  0  0  0  0
  147.5379  141.4767  156.0162 C   0  0  0  0  0  0  0  0  0  0  0  0
  148.4493  142.1515  156.9722 N   0  3  1  0  0  0  0  0  0  0  0  0
  147.7488  142.5933  158.1972 C   0  0  0  0  0  0  0  0  0  0  0  0
  149.6522  141.3357  157.2730 C   0  0  0  0  0  0  0  0  0  0  0  0
  150.4163  140.9665  155.9861 C   0  0  0  0  0  0  0  0  0  0  0  0
  147.6607  137.1654  160.7805 N   0  0  0  0  0  0  0  0  0  0  0  0
  147.2668  135.2648  163.5773 H   0  0  0  0  0  0  0  0  0  0  0  0
  147.0185  136.9999  163.4336 H   0  0  0  0  0  0  0  0  0  0  0  0
  148.6500  136.3377  163.3939 H   0  0  0  0  0  0  0  0  0  0  0  0
  147.2162  133.8746  161.2438 H   0  0  0  0  0  0  0  0  0  0  0  0
  147.9080  139.4976  156.8488 H   0  0  0  0  0  0  0  0  0  0  0  0
  150.1578  138.2326  155.4635 H   0  0  0  0  0  0  0  0  0  0  0  0
  148.6824  138.2741  154.5625 H   0  0  0  0  0  0  0  0  0  0  0  0
  149.6663  140.2417  153.0171 H   0  0  0  0  0  0  0  0  0  0  0  0
  148.5737  142.0751  154.2338 H   0  0  0  0  0  0  0  0  0  0  0  0
  147.5803  140.6722  154.0002 H   0  0  0  0  0  0  0  0  0  0  0  0
  146.6910  142.1289  155.7995 H   0  0  0  0  0  0  0  0  0  0  0  0
  147.1303  140.5762  156.4749 H   0  0  0  0  0  0  0  0  0  0  0  0
  147.3574  141.7399  158.7525 H   0  0  0  0  0  0  0  0  0  0  0  0
  146.9154  143.2513  157.9485 H   0  0  0  0  0  0  0  0  0  0  0  0
  148.4255  143.1459  158.8499 H   0  0  0  0  0  0  0  0  0  0  0  0
  150.3126  141.8996  157.9328 H   0  0  0  0  0  0  0  0  0  0  0  0
  149.3597  140.4402  157.8220 H   0  0  0  0  0  0  0  0  0  0  0  0
  151.2773  140.3431  156.2308 H   0  0  0  0  0  0  0  0  0  0  0  0
  150.8205  141.8837  155.5538 H   0  0  0  0  0  0  0  0  0  0  0  0
  148.7768  142.9885  156.5118 H   0  0  0  0  0  0  0  0  0  0  0  0
  1  2  1  0  0  0  0
  1 20  1  0  0  0  0
  1 21  1  0  0  0  0
  1 22  1  0  0  0  0
  2 19  1  0  0  0  0
  2  3  2  0  0  0  0
  3  4  1  0  0  0  0
  3 23  1  0  0  0  0
  4  5  1  0  0  0  0
  5  6  1  0  0  0  0
  5 19  2  0  0  0  0
  6  7  1  0  0  0  0
  7  8  2  0  0  0  0
  7  9  1  0  0  0  0
  9 10  1  0  0  0  0
  9 24  1  0  0  0  0
 10 11  1  0  0  0  0
 10 25  1  0  0  0  0
 10 26  1  0  0  0  0
 11 18  1  0  0  0  0
 11 12  1  0  0  0  0
 11 13  1  0  0  0  0
 12 27  1  0  0  0  0
 13 14  1  0  0  0  0
 13 28  1  0  0  0  0
 13 29  1  0  0  0  0
 14 15  1  0  0  0  0
 14 30  1  0  0  0  0
 14 31  1  0  0  0  0
 15 16  1  0  0  0  0
 15 17  1  0  0  0  0
 15 39  1  0  0  0  0
 16 32  1  0  0  0  0
 16 33  1  0  0  0  0
 16 34  1  0  0  0  0
 17 18  1  0  0  0  0
 17 35  1  0  0  0  0
 17 36  1  0  0  0  0
 18 37  1  0  0  0  0
 18 38  1  0  0  0  0
M  CHG  1   6  -1
M  CHG  1  15   1
M  END
> <s_m_source_file>
AV-unprocessed.smi

> <i_m_source_file_index>
809

> <i_lp_mmshare_version>
43012

> <i_f3d_flags>
0

> <s_epik_input>
W0NIM11jMVtjSF1zYyhuMSlbTkhdQyg9TylbTkhdW0NIMl1DMihbT0hdKVtDSDJdW0NIMl1OKFtDSDNdKVtDSDJdW0NIMl0y

> <s_epik_cmdline>
J2VwaWtfcHl0aG9uJywgJy1waCcsICc3LjAnLCAnLXRuJywgJzgnLCAnLW1hJywgJzIwMCcsICctbWV0YWxfYmluZGluZycsICctaW1hZScsICc8aW5maWxlLm1hZT4nLCAnLW9tYWUnLCAnPG91dGZpbGUubWFlPic=

> <r_lp_tautomer_probability>
0.999

> <r_epik_Ionization_Penalty>
8.50704

> <r_epik_Ionization_Penalty_Charging>
6.65046

> <r_epik_Ionization_Penalty_Neutral>
1.85657

> <r_epik_State_Penalty>
6.64992

> <r_epik_Charging_Adjusted_Penalty>
13.3004

> <i_epik_Tot_Q>
0

> <i_epik_Tot_abs_Q>
2

> <r_epik_Metal_State_Penalty>
2.57297

> <b_epik_Metal_Only>
1

> <s_lp_Force_Field>
OPLS_2005

> <r_lp_Energy>
8.4344

> <b_lp_Chiralities_Consistent>
1

> <s_lp_Variant>
AV-unprocessed.smi:809-4

> <Gold.Version>
5.8.1

> <Gold.Id.Protein>
6NUR|6NUR_protein|mol2

> <Gold.PLP.Fitness>
42.4546

> <Gold.PLP.PLP>
-27.8476

> <Gold.PLP.part.hbond>
-4.7720

> <Gold.PLP.part.metal>
0.0000

> <Gold.PLP.part.buried>
-3.1054

> <Gold.PLP.part.nonpolar>
-19.7811

> <Gold.PLP.part.repulsive>
0.0350

> <Gold.PLP.ligand.clash>
0.4659

> <Gold.PLP.ligand.torsion>
0.5477

> <Gold.PLP.Chemscore.Hbond>
5.3849

> <Gold.PLP.Chemscore.CHOScore>
0.0000

> <Gold.PLP.Chemscore.Metal>
0.0000

> <Gold.Chemscore.Hbonds>
donor molecule, donor type, donor heavy atom, donor atom, acceptor molecule, acceptor atom, score
      L1  H    12    27       P1  7957  0.83
      L1  H    15    39       P1  8028  2.00
      P1  H  6931  6943       L1    19  0.73
      P1  H  6934  6947       L1    19  0.94
      P1  H  7989  7998       L1    12  0.79

> <Gold.PLP.Chemscore.Internal.Correction>
0.0137

> <Gold.Rescore>
     Score         DG    S(hbond)    S(metal)    S(lipo)     H(rot)  DE(clash)    DE(int)     intcor
     16.71     -18.75       3.36        0.00      57.21       1.82       0.02       2.02       ----

> <Gold.Chemscore.Fitness>
16.7062

> <Gold.Chemscore.DG>
-18.7473

> <Gold.Chemscore.ZeroCoef>
-5.4800

> <Gold.Chemscore.Hbond>
3.3622

> <Gold.Chemscore.Metal>
0.0000

> <Gold.Chemscore.Lipo>
57.2084

> <Gold.Chemscore.Internal_Hbond>
0.0000

> <Gold.Chemscore.DEClash>
0.0207

> <Gold.Chemscore.DEInternal>
2.0205

> <Gold.Chemscore.Rot>
1.8186

> <Gold.Chemscore.Internal.Correction>
   9.000000E+99

> <Gold.Chemscore.Hbonds>
donor molecule, donor type, donor heavy atom, donor atom, acceptor molecule, acceptor atom, score
      L1  H    12    27       P1  7957  0.81
      L1  H    15    39       P1  8028  0.95
      P1  H  6931  6943       L1    19  0.18
      P1  H  6934  6947       L1    19  0.41
      P1  H  7989  7998       L1    12  0.63

> <Gold.Chemscore.Hbond.Weighted>
-11.2297

> <Gold.Chemscore.Metal.Weighted>
-0.0000

> <Gold.Chemscore.Lipo.Weighted>
-6.6934

> <Gold.Chemscore.Internal_Hbond.Weighted>
0.0000

> <Gold.Chemscore.DEClash.Weighted>
0.0207

> <Gold.Chemscore.DEInternal.Weighted>
2.0205

> <Gold.Chemscore.Rot.Weighted>
4.6557

> <Gold.Chemscore.Internal.Correction.Weighted>
   9.000000E+99

> <Gold.Protein.RotatedTorsions>
[ 6907 6896 6895 6894 ] final  -30.38 input  -60.11 | X-H torsion
[ 7974 7965 7964 7962 ] final   55.70 input  175.53 | X-H torsion
[ 8008 7997 7996 7995 ] final -174.09 input   59.86 | X-H torsion
[ 10167 10162 10161 10158 ] final   47.35 input  -65.29 | X-H torsion
[ 10718 10713 10712 10709 ] final -154.61 input   66.30 | X-H torsion
[ 10763 10752 10751 10750 ] final  -63.79 input  -60.55 | X-H torsion
[ 11005 11000 10999 10996 ] final   13.03 input  -57.11 | X-H torsion

> <Gold.Protein.ActiveResidues>
 VAL166  LYS551  ARG553  GLY616  TRP617  ASP618  TYR619  PRO620  LYS621  CYS622 
 ASP623  PHE694  ASN695  SER759  ASP760  ASP761  ALA762  ILE779  LEU786  VAL792 
 PHE793  MET794  SER795  GLU796  ALA797  LYS798  CYS799  TRP800  GLU811  SER814 

> <Gold.Protein.RotatedAtoms>
  151.1063  135.0001  159.8472 H   0  0  0  0  0  0  0  0  0  0  0  0  # atno 6907 bound_to 6896
  152.5440  134.1889  159.8676 H   0  0  0  0  0  0  0  0  0  0  0  0  # atno 6908 bound_to 6896
  151.1936  133.4608  159.2628 H   0  0  0  0  0  0  0  0  0  0  0  0  # atno 6909 bound_to 6896
  145.9476  139.3943  143.0326 H   0  0  0  0  0  0  0  0  0  0  0  0  # atno 7974 bound_to 7965
  155.9657  140.1153  157.0857 H   0  0  0  0  0  0  0  0  0  0  0  0  # atno 8008 bound_to 7997
  154.4143  140.1173  156.5306 H   0  0  0  0  0  0  0  0  0  0  0  0  # atno 8009 bound_to 7997
  155.6662  140.3473  155.4803 H   0  0  0  0  0  0  0  0  0  0  0  0  # atno 8010 bound_to 7997
  140.3045  144.2894  150.6212 H   0  0  0  0  0  0  0  0  0  0  0  0  # atno 10167 bound_to 10162
  156.5016  130.8394  151.2611 H   0  0  0  0  0  0  0  0  0  0  0  0  # atno 10718 bound_to 10713
  154.3203  135.6197  153.5505 H   0  0  0  0  0  0  0  0  0  0  0  0  # atno 10763 bound_to 10752
  152.9820  135.5722  154.5077 H   0  0  0  0  0  0  0  0  0  0  0  0  # atno 10764 bound_to 10752
  154.4744  135.2860  155.1595 H   0  0  0  0  0  0  0  0  0  0  0  0  # atno 10765 bound_to 10752
  140.4853  134.0895  155.7759 H   0  0  0  0  0  0  0  0  0  0  0  0  # atno 11005 bound_to 11000
  145.8215  140.9676  143.0896 LP  0  0  0  0  0  0  0  0  0  0  0  0  # atno 17320 bound_to 7965
  144.6790  140.0048  143.7484 LP  0  0  0  0  0  0  0  0  0  0  0  0  # atno 17321 bound_to 7965
  140.5622  143.2190  151.7745 LP  0  0  0  0  0  0  0  0  0  0  0  0  # atno 17342 bound_to 10162
  139.4907  144.4333  151.9848 LP  0  0  0  0  0  0  0  0  0  0  0  0  # atno 17343 bound_to 10162
  157.7462  130.9979  150.2835 LP  0  0  0  0  0  0  0  0  0  0  0  0  # atno 17370 bound_to 10713
  156.3327  130.3803  149.7477 LP  0  0  0  0  0  0  0  0  0  0  0  0  # atno 17371 bound_to 10713
  141.1511  133.8967  157.2095 LP  0  0  0  0  0  0  0  0  0  0  0  0  # atno 17394 bound_to 11000
  139.9802  135.0101  156.9730 LP  0  0  0  0  0  0  0  0  0  0  0  0  # atno 17395 bound_to 11000

$$$$
