AV-unprocessed.smi:240|AV-procd|sdf|1827|dock6
  -GOLD-   2262020423D 1   1.00000     0.00000
 Structure written by MMmdl.
 55 59  0  0  0  0  0  0  0  0  1 V2000
  150.0303  143.8184  158.1230 O   0  0  0  0  0  0  0  0  0  0  0  0
  151.2045  143.1785  157.6647 C   0  0  1  0  0  0  0  0  0  0  0  0
  152.3881  143.5258  158.5856 C   0  0  0  0  0  0  0  0  0  0  0  0
  152.7427  142.2338  159.3230 C   0  0  0  0  0  0  0  0  0  0  0  0
  152.3543  141.1301  158.3438 C   0  0  0  0  0  0  0  0  0  0  0  0
  151.0474  141.6386  157.7177 C   0  0  2  0  0  0  0  0  0  0  0  0
  150.6295  140.9321  156.3894 C   0  0  2  0  0  0  0  0  0  0  0  0
  150.0899  141.9151  155.3160 C   0  0  0  0  0  0  0  0  0  0  0  0
  149.7049  141.2146  154.1399 O   0  0  0  0  0  0  0  0  0  0  0  0
  148.6551  140.2938  154.3970 C   0  0  0  0  0  0  0  0  0  0  0  0
  149.1657  139.2324  155.3775 C   0  0  0  0  0  0  0  0  0  0  0  0
  149.6487  139.8561  156.6052 N   0  0  0  0  0  0  0  0  0  0  0  0
  149.9619  138.8959  157.5071 C   0  0  0  0  0  0  0  0  0  0  0  0
  151.2590  138.6573  157.8370 N   0  0  0  0  0  0  0  0  0  0  0  0
  151.5570  137.7022  158.7232 C   0  0  0  0  0  0  0  0  0  0  0  0
  150.7307  136.8824  159.3774 N   0  0  0  0  0  0  0  0  0  0  0  0
  149.4301  137.1108  159.0347 C   0  0  0  0  0  0  0  0  0  0  0  0
  148.9640  138.0890  158.1137 C   0  0  0  0  0  0  0  0  0  0  0  0
  147.5795  138.0393  158.0215 N   0  0  0  0  0  0  0  0  0  0  0  0
  147.2438  137.0849  158.8461 C   0  0  0  0  0  0  0  0  0  0  0  0
  148.2929  136.4655  159.4894 N   0  0  0  0  0  0  0  0  0  0  0  0
  148.2081  135.3778  160.4524 C   0  0  0  0  0  0  0  0  0  0  0  0
  147.2810  135.6816  161.6532 C   0  0  1  0  0  0  0  0  0  0  0  0
  147.6591  136.9198  162.2297 O   0  0  0  0  0  0  0  0  0  0  0  0
  145.8118  135.7635  161.2597 C   0  0  0  0  0  0  0  0  0  0  0  0
  145.0978  135.3465  162.5380 C   0  0  0  0  0  0  0  0  0  0  0  0
  145.9156  134.2986  163.0307 O   0  0  0  0  0  0  0  0  0  0  0  0
  147.2800  134.6074  162.7607 C   0  0  0  0  0  0  0  0  0  0  0  0
  149.4976  144.0412  157.3745 H   0  0  0  0  0  0  0  0  0  0  0  0
  151.4102  143.5403  156.6588 H   0  0  0  0  0  0  0  0  0  0  0  0
  153.2376  143.8317  157.9738 H   0  0  0  0  0  0  0  0  0  0  0  0
  152.1774  144.3461  159.2732 H   0  0  0  0  0  0  0  0  0  0  0  0
  153.7930  142.1903  159.6122 H   0  0  0  0  0  0  0  0  0  0  0  0
  152.1422  142.1496  160.2299 H   0  0  0  0  0  0  0  0  0  0  0  0
  153.1465  141.0299  157.6038 H   0  0  0  0  0  0  0  0  0  0  0  0
  152.2333  140.1632  158.8330 H   0  0  0  0  0  0  0  0  0  0  0  0
  150.2936  141.4162  158.4744 H   0  0  0  0  0  0  0  0  0  0  0  0
  151.5243  140.4702  155.9696 H   0  0  0  0  0  0  0  0  0  0  0  0
  149.2402  142.4932  155.6786 H   0  0  0  0  0  0  0  0  0  0  0  0
  150.8549  142.6314  155.0218 H   0  0  0  0  0  0  0  0  0  0  0  0
  147.7801  140.8103  154.7950 H   0  0  0  0  0  0  0  0  0  0  0  0
  148.3542  139.8262  153.4596 H   0  0  0  0  0  0  0  0  0  0  0  0
  148.3629  138.5285  155.6029 H   0  0  0  0  0  0  0  0  0  0  0  0
  149.9733  138.6617  154.9163 H   0  0  0  0  0  0  0  0  0  0  0  0
  152.6076  137.5763  158.9388 H   0  0  0  0  0  0  0  0  0  0  0  0
  146.2129  136.8050  159.0069 H   0  0  0  0  0  0  0  0  0  0  0  0
  147.8656  134.4833  159.9303 H   0  0  0  0  0  0  0  0  0  0  0  0
  149.2170  135.1578  160.8035 H   0  0  0  0  0  0  0  0  0  0  0  0
  146.9898  137.1824  162.8429 H   0  0  0  0  0  0  0  0  0  0  0  0
  145.5070  136.7460  160.8973 H   0  0  0  0  0  0  0  0  0  0  0  0
  145.5891  135.0374  160.4765 H   0  0  0  0  0  0  0  0  0  0  0  0
  145.0752  136.1646  163.2593 H   0  0  0  0  0  0  0  0  0  0  0  0
  144.0755  135.0114  162.3629 H   0  0  0  0  0  0  0  0  0  0  0  0
  147.7717  133.6882  162.4439 H   0  0  0  0  0  0  0  0  0  0  0  0
  147.7788  134.9478  163.6695 H   0  0  0  0  0  0  0  0  0  0  0  0
  1  2  1  0  0  0  0
  1 29  1  0  0  0  0
  2  6  1  0  0  0  0
  2  3  1  0  0  0  0
  2 30  1  0  0  0  0
  3  4  1  0  0  0  0
  3 31  1  0  0  0  0
  3 32  1  0  0  0  0
  4  5  1  0  0  0  0
  4 33  1  0  0  0  0
  4 34  1  0  0  0  0
  5  6  1  0  0  0  0
  5 35  1  0  0  0  0
  5 36  1  0  0  0  0
  6  7  1  0  0  0  0
  6 37  1  0  0  0  0
  7 12  1  0  0  0  0
  7  8  1  0  0  0  0
  7 38  1  0  0  0  0
  8  9  1  0  0  0  0
  8 39  1  0  0  0  0
  8 40  1  0  0  0  0
  9 10  1  0  0  0  0
 10 11  1  0  0  0  0
 10 41  1  0  0  0  0
 10 42  1  0  0  0  0
 11 12  1  0  0  0  0
 11 43  1  0  0  0  0
 11 44  1  0  0  0  0
 12 13  1  0  0  0  0
 13 18  1  0  0  0  0
 13 14  2  0  0  0  0
 14 15  1  0  0  0  0
 15 16  2  0  0  0  0
 15 45  1  0  0  0  0
 16 17  1  0  0  0  0
 17 21  1  0  0  0  0
 17 18  2  0  0  0  0
 18 19  1  0  0  0  0
 19 20  2  0  0  0  0
 20 21  1  0  0  0  0
 20 46  1  0  0  0  0
 21 22  1  0  0  0  0
 22 23  1  0  0  0  0
 22 47  1  0  0  0  0
 22 48  1  0  0  0  0
 23 28  1  0  0  0  0
 23 24  1  0  0  0  0
 23 25  1  0  0  0  0
 24 49  1  0  0  0  0
 25 26  1  0  0  0  0
 25 50  1  0  0  0  0
 25 51  1  0  0  0  0
 26 27  1  0  0  0  0
 26 52  1  0  0  0  0
 26 53  1  0  0  0  0
 27 28  1  0  0  0  0
 28 54  1  0  0  0  0
 28 55  1  0  0  0  0
M  END
> <s_m_source_file>
AV-unprocessed.smi

> <i_m_source_file_index>
240

> <i_lp_mmshare_version>
43012

> <i_f3d_flags>
0

> <s_epik_input>
W09IXVtDQEBIXTFbQ0gyXVtDSDJdW0NIMl1bQ0BIXTFbQ0BASF0yW0NIMl1PW0NIMl1bQ0gyXU4yYyhuW2NIXW4zKWMoYzM0KW5bY0hdbjRbQ0gyXVtDQEBdNShbT0hdKVtDSDJdW0NIMl1PW0NIMl01

> <s_epik_cmdline>
J2VwaWtfcHl0aG9uJywgJy1waCcsICc3LjAnLCAnLXRuJywgJzgnLCAnLW1hJywgJzIwMCcsICctbWV0YWxfYmluZGluZycsICctaW1hZScsICc8aW5maWxlLm1hZT4nLCAnLW9tYWUnLCAnPG91dGZpbGUubWFlPic=

> <r_lp_tautomer_probability>
1

> <r_epik_Ionization_Penalty>
0.000130618

> <r_epik_Ionization_Penalty_Charging>
0

> <r_epik_Ionization_Penalty_Neutral>
0.000130618

> <r_epik_State_Penalty>
-0

> <r_epik_Charging_Adjusted_Penalty>
0

> <i_epik_Tot_Q>
0

> <i_epik_Tot_abs_Q>
0

> <r_epik_Metal_State_Penalty>
-0

> <b_epik_Metal_Only>
0

> <s_lp_Force_Field>
OPLS_2005

> <r_lp_Energy>
61.8297

> <b_lp_Chiralities_Consistent>
1

> <s_lp_Variant>
AV-unprocessed.smi:240-4

> <Gold.Version>
5.8.1

> <Gold.Id.Protein>
6NUR|6NUR_protein|mol2

> <Gold.PLP.Fitness>
55.2076

> <Gold.PLP.PLP>
-46.7799

> <Gold.PLP.part.hbond>
-7.2491

> <Gold.PLP.part.metal>
0.0000

> <Gold.PLP.part.buried>
-4.8448

> <Gold.PLP.part.nonpolar>
-34.6653

> <Gold.PLP.part.repulsive>
0.2065

> <Gold.PLP.ligand.clash>
0.0000

> <Gold.PLP.ligand.torsion>
1.6188

> <Gold.PLP.Chemscore.Hbond>
3.8163

> <Gold.PLP.Chemscore.CHOScore>
0.0000

> <Gold.PLP.Chemscore.Metal>
0.0000

> <Gold.Chemscore.Hbonds>
donor molecule, donor type, donor heavy atom, donor atom, acceptor molecule, acceptor atom, score
      L1  H     1    29       P1  8028  1.00
      P1  H  6896  6907       L1    16  1.00
      P1  H  6931  6943       L1    24  1.00
      P1  H  7989  7998       L1     9  0.29
      P1  H  8011  8017       L1     9  0.48

> <Gold.PLP.Chemscore.Internal.Correction>
0.2164

> <Gold.Rescore>
     Score         DG    S(hbond)    S(metal)    S(lipo)     H(rot)  DE(clash)    DE(int)     intcor
     15.16     -20.85       3.04        0.00     110.39       3.00       1.59       4.10       ----

> <Gold.Chemscore.Fitness>
15.1556

> <Gold.Chemscore.DG>
-20.8465

> <Gold.Chemscore.ZeroCoef>
-5.4800

> <Gold.Chemscore.Hbond>
3.0362

> <Gold.Chemscore.Metal>
0.0000

> <Gold.Chemscore.Lipo>
110.3892

> <Gold.Chemscore.Internal_Hbond>
0.0000

> <Gold.Chemscore.DEClash>
1.5915

> <Gold.Chemscore.DEInternal>
4.0995

> <Gold.Chemscore.Rot>
3.0039

> <Gold.Chemscore.Internal.Correction>
   9.000000E+99

> <Gold.Chemscore.Hbonds>
donor molecule, donor type, donor heavy atom, donor atom, acceptor molecule, acceptor atom, score
      L1  H     1    29       P1  8028  0.30
      P1  H  6896  6907       L1    16  0.92
      P1  H  6931  6943       L1    24  0.85
      P1  H  7989  7998       L1     9  0.03
      P1  H  8011  8017       L1     9  0.40

> <Gold.Chemscore.Hbond.Weighted>
-10.1409

> <Gold.Chemscore.Metal.Weighted>
-0.0000

> <Gold.Chemscore.Lipo.Weighted>
-12.9155

> <Gold.Chemscore.Internal_Hbond.Weighted>
0.0000

> <Gold.Chemscore.DEClash.Weighted>
1.5915

> <Gold.Chemscore.DEInternal.Weighted>
4.0995

> <Gold.Chemscore.Rot.Weighted>
7.6899

> <Gold.Chemscore.Internal.Correction.Weighted>
   9.000000E+99

> <Gold.Protein.RotatedTorsions>
[ 6907 6896 6895 6894 ] final  -24.33 input  -60.11 | X-H torsion
[ 7974 7965 7964 7962 ] final   27.19 input  175.53 | X-H torsion
[ 8008 7997 7996 7995 ] final   93.12 input   59.86 | X-H torsion
[ 10167 10162 10161 10158 ] final  171.32 input  -65.29 | X-H torsion
[ 10718 10713 10712 10709 ] final  177.56 input   66.30 | X-H torsion
[ 10763 10752 10751 10750 ] final -116.91 input  -60.55 | X-H torsion
[ 11005 11000 10999 10996 ] final   26.72 input  -57.11 | X-H torsion

> <Gold.Protein.ActiveResidues>
 VAL166  LYS551  ARG553  GLY616  TRP617  ASP618  TYR619  PRO620  LYS621  CYS622 
 ASP623  PHE694  ASN695  SER759  ASP760  ASP761  ALA762  ILE779  LEU786  VAL792 
 PHE793  MET794  SER795  GLU796  ALA797  LYS798  CYS799  TRP800  GLU811  SER814 

> <Gold.Protein.RotatedAtoms>
  151.1911  135.0403  159.8832 H   0  0  0  0  0  0  0  0  0  0  0  0  # atno 6907 bound_to 6896
  152.5439  134.0955  159.8305 H   0  0  0  0  0  0  0  0  0  0  0  0  # atno 6908 bound_to 6896
  151.1084  133.5144  159.2639 H   0  0  0  0  0  0  0  0  0  0  0  0  # atno 6909 bound_to 6896
  146.1797  139.7225  142.8909 H   0  0  0  0  0  0  0  0  0  0  0  0  # atno 7974 bound_to 7965
  156.0432  140.3317  155.7267 H   0  0  0  0  0  0  0  0  0  0  0  0  # atno 8008 bound_to 7997
  155.5713  140.0628  157.2823 H   0  0  0  0  0  0  0  0  0  0  0  0  # atno 8009 bound_to 7997
  154.4402  140.1860  156.0870 H   0  0  0  0  0  0  0  0  0  0  0  0  # atno 8010 bound_to 7997
  139.5043  144.3499  151.9933 H   0  0  0  0  0  0  0  0  0  0  0  0  # atno 10167 bound_to 10162
  156.9035  130.9886  151.3032 H   0  0  0  0  0  0  0  0  0  0  0  0  # atno 10718 bound_to 10713
  154.8536  135.4328  154.1896 H   0  0  0  0  0  0  0  0  0  0  0  0  # atno 10763 bound_to 10752
  153.2967  135.6966  153.7247 H   0  0  0  0  0  0  0  0  0  0  0  0  # atno 10764 bound_to 10752
  153.6393  135.3471  155.3041 H   0  0  0  0  0  0  0  0  0  0  0  0  # atno 10765 bound_to 10752
  140.3340  134.2406  155.7698 H   0  0  0  0  0  0  0  0  0  0  0  0  # atno 11005 bound_to 11000
  145.4110  141.0396  143.3017 LP  0  0  0  0  0  0  0  0  0  0  0  0  # atno 17320 bound_to 7965
  144.8295  139.5653  143.6950 LP  0  0  0  0  0  0  0  0  0  0  0  0  # atno 17321 bound_to 7965
  140.2936  144.3726  150.6081 LP  0  0  0  0  0  0  0  0  0  0  0  0  # atno 17342 bound_to 10162
  140.5928  143.2167  151.7221 LP  0  0  0  0  0  0  0  0  0  0  0  0  # atno 17343 bound_to 10162
  157.6011  130.8513  149.8804 LP  0  0  0  0  0  0  0  0  0  0  0  0  # atno 17370 bound_to 10713
  156.0570  130.3706  150.1068 LP  0  0  0  0  0  0  0  0  0  0  0  0  # atno 17371 bound_to 10713
  141.2056  133.7856  157.0224 LP  0  0  0  0  0  0  0  0  0  0  0  0  # atno 17394 bound_to 11000
  140.0837  134.9633  157.1665 LP  0  0  0  0  0  0  0  0  0  0  0  0  # atno 17395 bound_to 11000

$$$$
