AV-unprocessed.smi:2563|AV-procd|sdf|10059|dock1
  -GOLD-   2272014 93D 1   1.00000     0.00000
 Structure written by MMmdl.
 36 37  0  0  0  0  0  0  0  0  3 V2000
  152.2109  139.3990  155.3431 C   0  0  0  0  0  0  0  0  0  0  0  0
  151.3168  139.7170  156.5516 C   0  0  0  0  0  0  0  0  0  0  0  0
  150.6802  141.0303  156.4569 N   0  0  0  0  0  0  0  0  0  0  0  0
  149.2305  141.0612  156.2400 C   0  0  0  0  0  0  0  0  0  0  0  0
  148.8200  140.7134  154.7938 C   0  0  1  0  0  0  0  0  0  0  0  0
  149.0823  139.2254  154.4804 C   0  0  0  0  0  0  0  0  0  0  0  0
  148.6210  138.8946  153.1172 N   0  3  0  0  0  0  0  0  0  0  0  0
  147.2046  139.2564  152.9200 C   0  0  0  0  0  0  0  0  0  0  0  0
  146.9849  140.7331  153.2845 C   0  0  0  0  0  0  0  0  0  0  0  0
  147.4263  140.9591  154.6190 O   0  0  0  0  0  0  0  0  0  0  0  0
  151.2698  142.0220  157.2706 C   0  0  0  0  0  0  0  0  0  0  0  0
  152.2249  141.6974  158.2608 C   0  0  0  0  0  0  0  0  0  0  0  0
  152.7624  142.7321  159.0447 C   0  0  0  0  0  0  0  0  0  0  0  0
  152.3102  144.0391  158.7948 C   0  0  0  0  0  0  0  0  0  0  0  0
  151.3929  144.3354  157.8483 N   0  0  0  0  0  0  0  0  0  0  0  0
  150.8968  143.3218  157.1185 N   0  3  0  0  0  0  0  0  0  0  0  0
  152.6820  138.4231  155.4607 H   0  0  0  0  0  0  0  0  0  0  0  0
  153.0058  140.1365  155.2283 H   0  0  0  0  0  0  0  0  0  0  0  0
  151.6370  139.3761  154.4161 H   0  0  0  0  0  0  0  0  0  0  0  0
  150.5688  138.9338  156.6720 H   0  0  0  0  0  0  0  0  0  0  0  0
  151.9176  139.6881  157.4610 H   0  0  0  0  0  0  0  0  0  0  0  0
  148.7821  140.3247  156.9080 H   0  0  0  0  0  0  0  0  0  0  0  0
  148.8109  142.0216  156.5415 H   0  0  0  0  0  0  0  0  0  0  0  0
  149.3931  141.3328  154.1013 H   0  0  0  0  0  0  0  0  0  0  0  0
  150.1455  138.9966  154.5591 H   0  0  0  0  0  0  0  0  0  0  0  0
  148.5623  138.5877  155.1969 H   0  0  0  0  0  0  0  0  0  0  0  0
  149.1817  139.4067  152.4510 H   0  0  0  0  0  0  0  0  0  0  0  0
  146.9213  139.0677  151.8842 H   0  0  0  0  0  0  0  0  0  0  0  0
  146.5810  138.6170  153.5463 H   0  0  0  0  0  0  0  0  0  0  0  0
  147.5164  141.3916  152.5956 H   0  0  0  0  0  0  0  0  0  0  0  0
  145.9265  140.9849  153.2143 H   0  0  0  0  0  0  0  0  0  0  0  0
  152.5514  140.6793  158.4146 H   0  0  0  0  0  0  0  0  0  0  0  0
  153.4977  142.5322  159.8101 H   0  0  0  0  0  0  0  0  0  0  0  0
  152.6935  144.8703  159.3686 H   0  0  0  0  0  0  0  0  0  0  0  0
  148.7401  137.9048  152.9524 H   0  0  0  0  0  0  0  0  0  0  0  0
  150.2005  143.5394  156.4056 H   0  0  0  0  0  0  0  0  0  0  0  0
  1  2  1  0  0  0  0
  1 17  1  0  0  0  0
  1 18  1  0  0  0  0
  1 19  1  0  0  0  0
  2  3  1  0  0  0  0
  2 20  1  0  0  0  0
  2 21  1  0  0  0  0
  3  4  1  0  0  0  0
  3 11  1  0  0  0  0
  4  5  1  0  0  0  0
  4 22  1  0  0  0  0
  4 23  1  0  0  0  0
  5 10  1  0  0  0  0
  5  6  1  0  0  0  0
  5 24  1  0  0  0  0
  6  7  1  0  0  0  0
  6 25  1  0  0  0  0
  6 26  1  0  0  0  0
  7  8  1  0  0  0  0
  7 27  1  0  0  0  0
  7 35  1  0  0  0  0
  8  9  1  0  0  0  0
  8 28  1  0  0  0  0
  8 29  1  0  0  0  0
  9 10  1  0  0  0  0
  9 30  1  0  0  0  0
  9 31  1  0  0  0  0
 11 16  1  0  0  0  0
 11 12  2  0  0  0  0
 12 13  1  0  0  0  0
 12 32  1  0  0  0  0
 13 14  2  0  0  0  0
 13 33  1  0  0  0  0
 14 15  1  0  0  0  0
 14 34  1  0  0  0  0
 15 16  2  0  0  0  0
 16 36  1  0  0  0  0
M  CHG  1   7   1
M  CHG  1  16   1
M  END
> <s_m_source_file>
AV-unprocessed.smi

> <i_m_source_file_index>
2563

> <i_lp_mmshare_version>
43012

> <i_f3d_flags>
0

> <s_epik_input>
bjFuW2NIXVtjSF1bY0hdYzFOKFtDSDJdW0NIM10pW0NIMl1bQ0BASF0yW0NIMl1bTkhdW0NIMl1bQ0gyXU8y

> <s_epik_cmdline>
J2VwaWtfcHl0aG9uJywgJy1waCcsICc3LjAnLCAnLXRuJywgJzgnLCAnLW1hJywgJzIwMCcsICctbWV0YWxfYmluZGluZycsICctaW1hZScsICc8aW5maWxlLm1hZT4nLCAnLW9tYWUnLCAnPG91dGZpbGUubWFlPic=

> <r_lp_tautomer_probability>
0.966961

> <r_epik_Ionization_Penalty>
1.93862

> <r_epik_Ionization_Penalty_Charging>
1.93862

> <r_epik_Ionization_Penalty_Neutral>
1.19718e-14

> <r_epik_State_Penalty>
1.51688

> <r_epik_Charging_Adjusted_Penalty>
3.4555

> <i_epik_Tot_Q>
2

> <i_epik_Tot_abs_Q>
2

> <r_epik_Metal_State_Penalty>
1.53359

> <b_epik_Metal_Only>
0

> <s_lp_Force_Field>
OPLS_2005

> <r_lp_Energy>
34.4736

> <b_lp_Chiralities_Consistent>
1

> <s_lp_Variant>
AV-unprocessed.smi:2563-4

> <Gold.Version>
5.8.1

> <Gold.Id.Protein>
6NUR|6NUR_protein|mol2

> <Gold.PLP.Fitness>
47.6180

> <Gold.PLP.PLP>
-33.4452

> <Gold.PLP.part.hbond>
-2.9157

> <Gold.PLP.part.metal>
0.0000

> <Gold.PLP.part.buried>
-5.3712

> <Gold.PLP.part.nonpolar>
-26.5697

> <Gold.PLP.part.repulsive>
0.3587

> <Gold.PLP.ligand.clash>
0.0000

> <Gold.PLP.ligand.torsion>
0.8296

> <Gold.PLP.Chemscore.Hbond>
4.9840

> <Gold.PLP.Chemscore.CHOScore>
0.0000

> <Gold.PLP.Chemscore.Metal>
0.0000

> <Gold.Chemscore.Hbonds>
donor molecule, donor type, donor heavy atom, donor atom, acceptor molecule, acceptor atom, score
      L1  H     7    27       P1  7957  0.91
      L1  H     7    35       P1  7948  2.00
      L1  H    16    36       P1  8028  1.98

> <Gold.PLP.Chemscore.Internal.Correction>
0.8800

> <Gold.Rescore>
     Score         DG    S(hbond)    S(metal)    S(lipo)     H(rot)  DE(clash)    DE(int)     intcor
     19.64     -20.42       2.85        0.00      77.88       1.44       0.00       0.78       ----

> <Gold.Chemscore.Fitness>
19.6416

> <Gold.Chemscore.DG>
-20.4191

> <Gold.Chemscore.ZeroCoef>
-5.4800

> <Gold.Chemscore.Hbond>
2.8472

> <Gold.Chemscore.Metal>
0.0000

> <Gold.Chemscore.Lipo>
77.8768

> <Gold.Chemscore.Internal_Hbond>
0.0000

> <Gold.Chemscore.DEClash>
0.0000

> <Gold.Chemscore.DEInternal>
0.7774

> <Gold.Chemscore.Rot>
1.4384

> <Gold.Chemscore.Internal.Correction>
   9.000000E+99

> <Gold.Chemscore.Hbonds>
donor molecule, donor type, donor heavy atom, donor atom, acceptor molecule, acceptor atom, score
      L1  H     7    27       P1  7957  0.87
      L1  H     7    35       P1  7948  0.96
      L1  H    16    36       P1  8028  0.94

> <Gold.Chemscore.Hbond.Weighted>
-9.5097

> <Gold.Chemscore.Metal.Weighted>
-0.0000

> <Gold.Chemscore.Lipo.Weighted>
-9.1116

> <Gold.Chemscore.Internal_Hbond.Weighted>
0.0000

> <Gold.Chemscore.DEClash.Weighted>
0.0000

> <Gold.Chemscore.DEInternal.Weighted>
0.7774

> <Gold.Chemscore.Rot.Weighted>
3.6822

> <Gold.Chemscore.Internal.Correction.Weighted>
   9.000000E+99

> <Gold.Protein.RotatedTorsions>
[ 6907 6896 6895 6894 ] final  -17.37 input  -60.11 | X-H torsion
[ 7974 7965 7964 7962 ] final   62.05 input  175.53 | X-H torsion
[ 8008 7997 7996 7995 ] final   -7.90 input   59.86 | X-H torsion
[ 10167 10162 10161 10158 ] final  -85.18 input  -65.29 | X-H torsion
[ 10718 10713 10712 10709 ] final -129.63 input   66.30 | X-H torsion
[ 10763 10752 10751 10750 ] final  -88.64 input  -60.55 | X-H torsion
[ 11005 11000 10999 10996 ] final -121.23 input  -57.11 | X-H torsion

> <Gold.Protein.ActiveResidues>
 VAL166  LYS551  ARG553  GLY616  TRP617  ASP618  TYR619  PRO620  LYS621  CYS622 
 ASP623  PHE694  ASN695  SER759  ASP760  ASP761  ALA762  ILE779  LEU786  VAL792 
 PHE793  MET794  SER795  GLU796  ALA797  LYS798  CYS799  TRP800  GLU811  SER814 

> <Gold.Protein.RotatedAtoms>
  151.2944  135.0751  159.9215 H   0  0  0  0  0  0  0  0  0  0  0  0  # atno 6907 bound_to 6896
  152.5310  133.9898  159.7856 H   0  0  0  0  0  0  0  0  0  0  0  0  # atno 6908 bound_to 6896
  151.0174  133.5857  159.2706 H   0  0  0  0  0  0  0  0  0  0  0  0  # atno 6909 bound_to 6896
  145.8778  139.3422  143.0724 H   0  0  0  0  0  0  0  0  0  0  0  0  # atno 7974 bound_to 7965
  154.5793  140.2395  155.8076 H   0  0  0  0  0  0  0  0  0  0  0  0  # atno 8008 bound_to 7997
  156.2167  140.3010  155.9813 H   0  0  0  0  0  0  0  0  0  0  0  0  # atno 8009 bound_to 7997
  155.2569  140.0413  157.2983 H   0  0  0  0  0  0  0  0  0  0  0  0  # atno 8010 bound_to 7997
  140.4062  143.2642  151.9078 H   0  0  0  0  0  0  0  0  0  0  0  0  # atno 10167 bound_to 10162
  156.2065  130.6891  151.0600 H   0  0  0  0  0  0  0  0  0  0  0  0  # atno 10718 bound_to 10713
  154.6467  135.5370  153.7853 H   0  0  0  0  0  0  0  0  0  0  0  0  # atno 10763 bound_to 10752
  153.0363  135.6472  154.1078 H   0  0  0  0  0  0  0  0  0  0  0  0  # atno 10764 bound_to 10752
  154.0998  135.2934  155.3234 H   0  0  0  0  0  0  0  0  0  0  0  0  # atno 10765 bound_to 10752
  141.0085  134.0299  157.3445 H   0  0  0  0  0  0  0  0  0  0  0  0  # atno 11005 bound_to 11000
  145.9060  140.9211  143.0478 LP  0  0  0  0  0  0  0  0  0  0  0  0  # atno 17320 bound_to 7965
  144.6726  140.1097  143.7456 LP  0  0  0  0  0  0  0  0  0  0  0  0  # atno 17321 bound_to 7965
  139.4783  144.5583  151.8278 LP  0  0  0  0  0  0  0  0  0  0  0  0  # atno 17342 bound_to 10162
  140.4687  144.1618  150.5915 LP  0  0  0  0  0  0  0  0  0  0  0  0  # atno 17343 bound_to 10162
  157.7015  131.0774  150.6805 LP  0  0  0  0  0  0  0  0  0  0  0  0  # atno 17370 bound_to 10713
  156.6863  130.4582  149.5613 LP  0  0  0  0  0  0  0  0  0  0  0  0  # atno 17371 bound_to 10713
  139.9077  135.0183  156.7556 LP  0  0  0  0  0  0  0  0  0  0  0  0  # atno 17394 bound_to 11000
  140.6772  133.9506  155.7890 LP  0  0  0  0  0  0  0  0  0  0  0  0  # atno 17395 bound_to 11000

$$$$
