AV-unprocessed.smi:2892|AV-procd|sdf|11119|dock10
  -GOLD-   2272015593D 1   1.00000     0.00000
 Structure written by MMmdl.
 42 42  0  0  0  0  0  0  0  0  2 V2000
  146.0791  133.8295  162.4147 C   0  0  0  0  0  0  0  0  0  0  0  0
  147.5567  133.8891  161.9993 C   0  0  0  0  0  0  0  0  0  0  0  0
  147.7899  134.1583  160.4884 C   0  0  1  0  0  0  0  0  0  0  0  0
  147.3557  132.9318  159.6540 C   0  0  0  0  0  0  0  0  0  0  0  0
  147.0739  135.4531  159.9910 C   0  0  2  0  0  0  0  0  0  0  0  0
  147.5096  135.7534  158.6269 N   0  0  0  0  0  0  0  0  0  0  0  0
  148.7814  135.8612  158.2069 C   0  0  0  0  0  0  0  0  0  0  0  0
  149.7531  135.7965  158.9596 O   0  0  0  0  0  0  0  0  0  0  0  0
  148.9906  136.0876  156.7065 C   0  0  0  0  0  0  0  0  0  0  0  0
  149.5831  134.8617  156.0603 C   0  0  0  0  0  0  0  0  0  0  0  0
  150.7858  134.1826  156.4078 C   0  0  0  0  0  0  0  0  0  0  0  0
  150.8778  133.1826  155.4834 C   0  0  0  0  0  0  0  0  0  0  0  0
  149.7699  133.2733  154.6654 N   0  0  0  0  0  0  0  0  0  0  0  0
  149.4247  132.4704  153.5021 C   0  0  0  0  0  0  0  0  0  0  0  0
  148.1645  133.0080  152.8063 C   0  0  0  0  0  0  0  0  0  0  0  0
  149.2815  130.9920  153.8932 C   0  0  0  0  0  0  0  0  0  0  0  0
  148.9750  134.3047  155.0227 N   0  0  0  0  0  0  0  0  0  0  0  0
  147.4493  136.6589  160.8746 C   0  0  0  0  0  0  0  0  0  0  0  0
  146.5071  137.2933  161.3973 O   0  0  0  0  0  0  0  0  0  0  0  0
  148.6652  136.9226  161.0162 O   0  5  0  0  0  0  0  0  0  0  0  0
  145.9882  133.5253  163.4576 H   0  0  0  0  0  0  0  0  0  0  0  0
  145.5291  133.1067  161.8116 H   0  0  0  0  0  0  0  0  0  0  0  0
  145.5877  134.7969  162.3184 H   0  0  0  0  0  0  0  0  0  0  0  0
  148.0732  134.6441  162.5928 H   0  0  0  0  0  0  0  0  0  0  0  0
  147.9965  132.9352  162.2879 H   0  0  0  0  0  0  0  0  0  0  0  0
  148.8636  134.2868  160.3383 H   0  0  0  0  0  0  0  0  0  0  0  0
  146.2880  132.7398  159.7638 H   0  0  0  0  0  0  0  0  0  0  0  0
  147.8880  132.0293  159.9507 H   0  0  0  0  0  0  0  0  0  0  0  0
  147.5588  133.0654  158.5916 H   0  0  0  0  0  0  0  0  0  0  0  0
  145.9926  135.3026  160.0149 H   0  0  0  0  0  0  0  0  0  0  0  0
  146.7811  135.8114  157.9307 H   0  0  0  0  0  0  0  0  0  0  0  0
  148.0303  136.3327  156.2520 H   0  0  0  0  0  0  0  0  0  0  0  0
  149.6376  136.9527  156.5541 H   0  0  0  0  0  0  0  0  0  0  0  0
  151.4846  134.4110  157.1985 H   0  0  0  0  0  0  0  0  0  0  0  0
  151.6354  132.4270  155.3378 H   0  0  0  0  0  0  0  0  0  0  0  0
  150.2482  132.5469  152.7895 H   0  0  0  0  0  0  0  0  0  0  0  0
  147.9547  132.4474  151.8952 H   0  0  0  0  0  0  0  0  0  0  0  0
  148.2867  134.0551  152.5276 H   0  0  0  0  0  0  0  0  0  0  0  0
  147.2868  132.9328  153.4490 H   0  0  0  0  0  0  0  0  0  0  0  0
  149.0781  130.3728  153.0193 H   0  0  0  0  0  0  0  0  0  0  0  0
  148.4669  130.8451  154.6028 H   0  0  0  0  0  0  0  0  0  0  0  0
  150.1960  130.6191  154.3560 H   0  0  0  0  0  0  0  0  0  0  0  0
  1  2  1  0  0  0  0
  1 21  1  0  0  0  0
  1 22  1  0  0  0  0
  1 23  1  0  0  0  0
  2  3  1  0  0  0  0
  2 24  1  0  0  0  0
  2 25  1  0  0  0  0
  3  4  1  0  0  0  0
  3  5  1  0  0  0  0
  3 26  1  0  0  0  0
  4 27  1  0  0  0  0
  4 28  1  0  0  0  0
  4 29  1  0  0  0  0
  5  6  1  0  0  0  0
  5 18  1  0  0  0  0
  5 30  1  0  0  0  0
  6  7  1  0  0  0  0
  6 31  1  0  0  0  0
  7  8  2  0  0  0  0
  7  9  1  0  0  0  0
  9 10  1  0  0  0  0
  9 32  1  0  0  0  0
  9 33  1  0  0  0  0
 10 17  2  0  0  0  0
 10 11  1  0  0  0  0
 11 12  2  0  0  0  0
 11 34  1  0  0  0  0
 12 13  1  0  0  0  0
 12 35  1  0  0  0  0
 13 14  1  0  0  0  0
 13 17  1  0  0  0  0
 14 15  1  0  0  0  0
 14 16  1  0  0  0  0
 14 36  1  0  0  0  0
 15 37  1  0  0  0  0
 15 38  1  0  0  0  0
 15 39  1  0  0  0  0
 16 40  1  0  0  0  0
 16 41  1  0  0  0  0
 16 42  1  0  0  0  0
 18 19  2  0  0  0  0
 18 20  1  0  0  0  0
M  CHG  1  20  -1
M  END
> <s_m_source_file>
AV-unprocessed.smi

> <i_m_source_file_index>
2892

> <i_lp_mmshare_version>
43012

> <i_f3d_flags>
0

> <s_epik_input>
W0NIM11bQ0gyXVtDQEhdKFtDSDNdKVtDQEBIXShDKD1PKVtPSF0pW05IXUMoPU8pW0NIMl1jMVtjSF1bY0hdbihuMSlbQ0hdKFtDSDNdKVtDSDNd

> <s_epik_cmdline>
J2VwaWtfcHl0aG9uJywgJy1waCcsICc3LjAnLCAnLXRuJywgJzgnLCAnLW1hJywgJzIwMCcsICctbWV0YWxfYmluZGluZycsICctaW1hZScsICc8aW5maWxlLm1hZT4nLCAnLW9tYWUnLCAnPG91dGZpbGUubWFlPic=

> <r_lp_tautomer_probability>
1

> <r_epik_Ionization_Penalty>
0.000286846

> <r_epik_Ionization_Penalty_Charging>
0.000224481

> <r_epik_Ionization_Penalty_Neutral>
6.23655e-05

> <r_epik_State_Penalty>
-0

> <r_epik_Charging_Adjusted_Penalty>
0.000224481

> <i_epik_Tot_Q>
-1

> <i_epik_Tot_abs_Q>
1

> <r_epik_Metal_State_Penalty>
-0

> <b_epik_Metal_Only>
0

> <s_lp_Force_Field>
OPLS_2005

> <r_lp_Energy>
14.4899

> <b_lp_Chiralities_Consistent>
1

> <s_lp_Variant>
AV-unprocessed.smi:2892-2

> <Gold.Version>
5.8.1

> <Gold.Id.Protein>
6NUR|6NUR_protein|mol2

> <Gold.PLP.Fitness>
45.7237

> <Gold.PLP.PLP>
-31.1986

> <Gold.PLP.part.hbond>
-3.0000

> <Gold.PLP.part.metal>
0.0000

> <Gold.PLP.part.buried>
-4.7806

> <Gold.PLP.part.nonpolar>
-24.0744

> <Gold.PLP.part.repulsive>
0.1168

> <Gold.PLP.ligand.clash>
0.0000

> <Gold.PLP.ligand.torsion>
0.3103

> <Gold.PLP.Chemscore.Hbond>
5.0000

> <Gold.PLP.Chemscore.CHOScore>
0.0000

> <Gold.PLP.Chemscore.Metal>
0.0000

> <Gold.Chemscore.Hbonds>
donor molecule, donor type, donor heavy atom, donor atom, acceptor molecule, acceptor atom, score
      P1  H  6896  6908       L1     8  1.00
      P1  H  6931  6943       L1    20  2.00
      P1  H  6934  6947       L1    19  1.60

> <Gold.PLP.Chemscore.Internal.Correction>
0.1456

> <Gold.Rescore>
     Score         DG    S(hbond)    S(metal)    S(lipo)     H(rot)  DE(clash)    DE(int)     intcor
     12.23     -15.67       2.75        0.00      60.88       2.39       0.00       3.44       ----

> <Gold.Chemscore.Fitness>
12.2297

> <Gold.Chemscore.DG>
-15.6691

> <Gold.Chemscore.ZeroCoef>
-5.4800

> <Gold.Chemscore.Hbond>
2.7471

> <Gold.Chemscore.Metal>
0.0000

> <Gold.Chemscore.Lipo>
60.8820

> <Gold.Chemscore.Internal_Hbond>
0.0000

> <Gold.Chemscore.DEClash>
0.0000

> <Gold.Chemscore.DEInternal>
3.4393

> <Gold.Chemscore.Rot>
2.3865

> <Gold.Chemscore.Internal.Correction>
   9.000000E+99

> <Gold.Chemscore.Hbonds>
donor molecule, donor type, donor heavy atom, donor atom, acceptor molecule, acceptor atom, score
      P1  H  6896  6908       L1     8  0.98
      P1  H  6931  6943       L1    20  0.92
      P1  H  6934  6947       L1    19  0.12

> <Gold.Chemscore.Hbond.Weighted>
-9.1752

> <Gold.Chemscore.Metal.Weighted>
-0.0000

> <Gold.Chemscore.Lipo.Weighted>
-7.1232

> <Gold.Chemscore.Internal_Hbond.Weighted>
0.0000

> <Gold.Chemscore.DEClash.Weighted>
0.0000

> <Gold.Chemscore.DEInternal.Weighted>
3.4393

> <Gold.Chemscore.Rot.Weighted>
6.1093

> <Gold.Chemscore.Internal.Correction.Weighted>
   9.000000E+99

> <Gold.Protein.RotatedTorsions>
[ 6907 6896 6895 6894 ] final  166.94 input  -60.11 | X-H torsion
[ 7974 7965 7964 7962 ] final   -2.25 input  175.53 | X-H torsion
[ 8008 7997 7996 7995 ] final -131.64 input   59.86 | X-H torsion
[ 10167 10162 10161 10158 ] final   99.14 input  -65.29 | X-H torsion
[ 10718 10713 10712 10709 ] final  -99.04 input   66.30 | X-H torsion
[ 10763 10752 10751 10750 ] final  -15.15 input  -60.55 | X-H torsion
[ 11005 11000 10999 10996 ] final  -75.98 input  -57.11 | X-H torsion

> <Gold.Protein.ActiveResidues>
 VAL166  LYS551  ARG553  GLY616  TRP617  ASP618  TYR619  PRO620  LYS621  CYS622 
 ASP623  PHE694  ASN695  SER759  ASP760  ASP761  ALA762  ILE779  LEU786  VAL792 
 PHE793  MET794  SER795  GLU796  ALA797  LYS798  CYS799  TRP800  GLU811  SER814 

> <Gold.Protein.RotatedAtoms>
  151.8710  133.3476  159.3734 H   0  0  0  0  0  0  0  0  0  0  0  0  # atno 6907 bound_to 6896
  150.7152  134.5112  159.5617 H   0  0  0  0  0  0  0  0  0  0  0  0  # atno 6908 bound_to 6896
  152.2645  134.7999  160.0476 H   0  0  0  0  0  0  0  0  0  0  0  0  # atno 6909 bound_to 6896
  146.2407  140.1542  142.8333 H   0  0  0  0  0  0  0  0  0  0  0  0  # atno 7974 bound_to 7965
  155.3157  140.0459  157.3037 H   0  0  0  0  0  0  0  0  0  0  0  0  # atno 8008 bound_to 7997
  154.5408  140.2287  155.8611 H   0  0  0  0  0  0  0  0  0  0  0  0  # atno 8009 bound_to 7997
  156.1879  140.3058  155.9280 H   0  0  0  0  0  0  0  0  0  0  0  0  # atno 8010 bound_to 7997
  139.7644  144.6943  151.0245 H   0  0  0  0  0  0  0  0  0  0  0  0  # atno 10167 bound_to 10162
  156.0123  130.5265  150.6611 H   0  0  0  0  0  0  0  0  0  0  0  0  # atno 10718 bound_to 10713
  153.5391  135.7013  153.5645 H   0  0  0  0  0  0  0  0  0  0  0  0  # atno 10763 bound_to 10752
  153.3619  135.3967  155.1725 H   0  0  0  0  0  0  0  0  0  0  0  0  # atno 10764 bound_to 10752
  154.8676  135.3791  154.4894 H   0  0  0  0  0  0  0  0  0  0  0  0  # atno 10765 bound_to 10752
  141.1650  133.6966  156.7599 H   0  0  0  0  0  0  0  0  0  0  0  0  # atno 11005 bound_to 11000
  145.0142  140.8740  143.5205 LP  0  0  0  0  0  0  0  0  0  0  0  0  # atno 17320 bound_to 7965
  145.1580  139.2475  143.5406 LP  0  0  0  0  0  0  0  0  0  0  0  0  # atno 17321 bound_to 7965
  140.7809  143.4660  151.0212 LP  0  0  0  0  0  0  0  0  0  0  0  0  # atno 17342 bound_to 10162
  139.8345  143.7646  152.3180 LP  0  0  0  0  0  0  0  0  0  0  0  0  # atno 17343 bound_to 10162
  157.4353  131.0854  151.0998 LP  0  0  0  0  0  0  0  0  0  0  0  0  # atno 17370 bound_to 10713
  157.1558  130.6204  149.5596 LP  0  0  0  0  0  0  0  0  0  0  0  0  # atno 17371 bound_to 10713
  140.2542  134.8517  157.3696 LP  0  0  0  0  0  0  0  0  0  0  0  0  # atno 17394 bound_to 11000
  140.1673  134.4652  155.7854 LP  0  0  0  0  0  0  0  0  0  0  0  0  # atno 17395 bound_to 11000

$$$$
