AV-unprocessed.smi:1843|AV-procd|sdf|7505|dock1
  -GOLD-   22720 9213D 1   1.00000     0.00000
 Structure written by MMmdl.
 36 38  0  0  0  0  0  0  0  0  2 V2000
  146.1427  139.2123  154.0164 O   0  0  0  0  0  0  0  0  0  0  0  0
  146.7793  138.5717  153.1767 C   0  0  0  0  0  0  0  0  0  0  0  0
  146.2763  137.9809  152.0693 N   0  5  0  0  0  0  0  0  0  0  0  0
  145.5471  136.8582  152.1792 C   0  0  0  0  0  0  0  0  0  0  0  0
  144.9587  136.4910  153.3264 N   0  0  0  0  0  0  0  0  0  0  0  0
  144.2591  135.2974  153.2216 N   0  0  0  0  0  0  0  0  0  0  0  0
  144.3359  134.7745  151.9955 C   0  0  0  0  0  0  0  0  0  0  0  0
  143.6656  133.4928  151.6287 C   0  0  0  0  0  0  0  0  0  0  0  0
  144.4488  132.2087  151.4621 C   0  0  0  0  0  0  0  0  0  0  0  0
  143.8518  132.8880  150.2560 C   0  0  0  0  0  0  0  0  0  0  0  0
  145.2908  135.7156  150.8610 S   0  0  0  0  0  0  0  0  0  0  0  0
  148.1040  138.4177  153.3143 N   0  0  0  0  0  0  0  0  0  0  0  0
  148.9303  138.9634  154.3901 C   0  0  1  0  0  0  0  0  0  0  0  0
  150.3709  138.4267  154.2817 C   0  0  0  0  0  0  0  0  0  0  0  0
  151.2600  138.9847  155.4048 C   0  0  0  0  0  0  0  0  0  0  0  0
  151.2494  140.5214  155.4140 C   0  0  0  0  0  0  0  0  0  0  0  0
  149.8155  141.0734  155.5139 C   0  0  0  0  0  0  0  0  0  0  0  0
  148.8962  140.5120  154.4117 C   0  0  1  0  0  0  0  0  0  0  0  0
  149.2950  141.0430  153.1611 O   0  0  0  0  0  0  0  0  0  0  0  0
  142.6788  133.4317  152.0836 H   0  0  0  0  0  0  0  0  0  0  0  0
  145.5311  132.2468  151.5685 H   0  0  0  0  0  0  0  0  0  0  0  0
  143.9798  131.2888  151.8047 H   0  0  0  0  0  0  0  0  0  0  0  0
  142.9856  132.4208  149.7922 H   0  0  0  0  0  0  0  0  0  0  0  0
  144.5350  133.3878  149.5720 H   0  0  0  0  0  0  0  0  0  0  0  0
  148.5812  137.8823  152.6039 H   0  0  0  0  0  0  0  0  0  0  0  0
  148.5242  138.6029  155.3374 H   0  0  0  0  0  0  0  0  0  0  0  0
  150.3663  137.3371  154.3274 H   0  0  0  0  0  0  0  0  0  0  0  0
  150.7977  138.6919  153.3133 H   0  0  0  0  0  0  0  0  0  0  0  0
  150.9097  138.6114  156.3678 H   0  0  0  0  0  0  0  0  0  0  0  0
  152.2808  138.6207  155.2849 H   0  0  0  0  0  0  0  0  0  0  0  0
  151.8471  140.8922  156.2470 H   0  0  0  0  0  0  0  0  0  0  0  0
  151.7250  140.8945  154.5060 H   0  0  0  0  0  0  0  0  0  0  0  0
  149.4021  140.8101  156.4885 H   0  0  0  0  0  0  0  0  0  0  0  0
  149.8301  142.1632  155.4753 H   0  0  0  0  0  0  0  0  0  0  0  0
  147.8777  140.8549  154.5972 H   0  0  0  0  0  0  0  0  0  0  0  0
  149.3153  140.3350  152.5347 H   0  0  0  0  0  0  0  0  0  0  0  0
  1  2  2  0  0  0  0
  2  3  1  0  0  0  0
  2 12  1  0  0  0  0
  3  4  1  0  0  0  0
  4 11  1  0  0  0  0
  4  5  2  0  0  0  0
  5  6  1  0  0  0  0
  6  7  2  0  0  0  0
  7  8  1  0  0  0  0
  7 11  1  0  0  0  0
  8 10  1  0  0  0  0
  8  9  1  0  0  0  0
  8 20  1  0  0  0  0
  9 10  1  0  0  0  0
  9 21  1  0  0  0  0
  9 22  1  0  0  0  0
 10 23  1  0  0  0  0
 10 24  1  0  0  0  0
 12 13  1  0  0  0  0
 12 25  1  0  0  0  0
 13 18  1  0  0  0  0
 13 14  1  0  0  0  0
 13 26  1  0  0  0  0
 14 15  1  0  0  0  0
 14 27  1  0  0  0  0
 14 28  1  0  0  0  0
 15 16  1  0  0  0  0
 15 29  1  0  0  0  0
 15 30  1  0  0  0  0
 16 17  1  0  0  0  0
 16 31  1  0  0  0  0
 16 32  1  0  0  0  0
 17 18  1  0  0  0  0
 17 33  1  0  0  0  0
 17 34  1  0  0  0  0
 18 19  1  0  0  0  0
 18 35  1  0  0  0  0
 19 36  1  0  0  0  0
M  CHG  1   3  -1
M  END
> <s_m_source_file>
AV-unprocessed.smi

> <i_m_source_file_index>
1843

> <i_lp_mmshare_version>
43012

> <i_f3d_flags>
0

> <s_epik_input>
W09IXVtDQEBIXTFbQ0gyXVtDSDJdW0NIMl1bQ0gyXVtDQEhdMVtOSF1DKD1PKVtOSF1jMm5uYyhzMilbQ0hdM1tDSDJdW0NIMl0z

> <s_epik_cmdline>
J2VwaWtfcHl0aG9uJywgJy1waCcsICc3LjAnLCAnLXRuJywgJzgnLCAnLW1hJywgJzIwMCcsICctbWV0YWxfYmluZGluZycsICctaW1hZScsICc8aW5maWxlLm1hZT4nLCAnLW9tYWUnLCAnPG91dGZpbGUubWFlPic=

> <r_lp_tautomer_probability>
1

> <r_epik_Ionization_Penalty>
4.7996

> <r_epik_Ionization_Penalty_Charging>
4.64516

> <r_epik_Ionization_Penalty_Neutral>
0.154442

> <r_epik_State_Penalty>
4.64493

> <r_epik_Charging_Adjusted_Penalty>
9.29009

> <i_epik_Tot_Q>
-1

> <i_epik_Tot_abs_Q>
1

> <r_epik_Metal_State_Penalty>
0.896144

> <b_epik_Metal_Only>
1

> <s_lp_Force_Field>
OPLS_2005

> <r_lp_Energy>
9.18757

> <b_lp_Chiralities_Consistent>
1

> <s_lp_Variant>
AV-unprocessed.smi:1843-6

> <Gold.Version>
5.8.1

> <Gold.Id.Protein>
6NUR|6NUR_protein|mol2

> <Gold.PLP.Fitness>
41.8100

> <Gold.PLP.PLP>
-35.1853

> <Gold.PLP.part.hbond>
-4.1251

> <Gold.PLP.part.metal>
0.0000

> <Gold.PLP.part.buried>
-5.5430

> <Gold.PLP.part.nonpolar>
-27.8842

> <Gold.PLP.part.repulsive>
0.6319

> <Gold.PLP.ligand.clash>
0.0000

> <Gold.PLP.ligand.torsion>
1.0094

> <Gold.PLP.Chemscore.Hbond>
2.8082

> <Gold.PLP.Chemscore.CHOScore>
0.0000

> <Gold.PLP.Chemscore.Metal>
0.0000

> <Gold.Chemscore.Hbonds>
donor molecule, donor type, donor heavy atom, donor atom, acceptor molecule, acceptor atom, score
      L1  H    12    25       P1  7948  1.00
      L1  H    19    36       P1  7957  0.64
      P1  H  7989  7998       L1    19  0.02
      P1  H  8011  8017       L1    19  1.00

> <Gold.PLP.Chemscore.Internal.Correction>
0.2188

> <Gold.Rescore>
     Score         DG    S(hbond)    S(metal)    S(lipo)     H(rot)  DE(clash)    DE(int)     intcor
     15.68     -17.16       2.30        0.00      71.75       1.72       0.20       1.29       ----

> <Gold.Chemscore.Fitness>
15.6802

> <Gold.Chemscore.DG>
-17.1645

> <Gold.Chemscore.ZeroCoef>
-5.4800

> <Gold.Chemscore.Hbond>
2.3001

> <Gold.Chemscore.Metal>
0.0000

> <Gold.Chemscore.Lipo>
71.7535

> <Gold.Chemscore.Internal_Hbond>
0.0000

> <Gold.Chemscore.DEClash>
0.1976

> <Gold.Chemscore.DEInternal>
1.2867

> <Gold.Chemscore.Rot>
1.7160

> <Gold.Chemscore.Internal.Correction>
   9.000000E+99

> <Gold.Chemscore.Hbonds>
donor molecule, donor type, donor heavy atom, donor atom, acceptor molecule, acceptor atom, score
      L1  H    12    25       P1  7948  0.94
      L1  H    19    36       P1  7957  0.62
      P1  H  8011  8017       L1    19  0.55

> <Gold.Chemscore.Hbond.Weighted>
-7.6823

> <Gold.Chemscore.Metal.Weighted>
-0.0000

> <Gold.Chemscore.Lipo.Weighted>
-8.3952

> <Gold.Chemscore.Internal_Hbond.Weighted>
0.0000

> <Gold.Chemscore.DEClash.Weighted>
0.1976

> <Gold.Chemscore.DEInternal.Weighted>
1.2867

> <Gold.Chemscore.Rot.Weighted>
4.3930

> <Gold.Chemscore.Internal.Correction.Weighted>
   9.000000E+99

> <Gold.Protein.RotatedTorsions>
[ 6907 6896 6895 6894 ] final  -72.32 input  -60.11 | X-H torsion
[ 7974 7965 7964 7962 ] final -102.16 input  175.53 | X-H torsion
[ 8008 7997 7996 7995 ] final  127.27 input   59.86 | X-H torsion
[ 10167 10162 10161 10158 ] final  -37.98 input  -65.29 | X-H torsion
[ 10718 10713 10712 10709 ] final  -81.51 input   66.30 | X-H torsion
[ 10763 10752 10751 10750 ] final   46.29 input  -60.55 | X-H torsion
[ 11005 11000 10999 10996 ] final  -66.04 input  -57.11 | X-H torsion

> <Gold.Protein.ActiveResidues>
 VAL166  LYS551  ARG553  GLY616  TRP617  ASP618  TYR619  PRO620  LYS621  CYS622 
 ASP623  PHE694  ASN695  SER759  ASP760  ASP761  ALA762  ILE779  LEU786  VAL792 
 PHE793  MET794  SER795  GLU796  ALA797  LYS798  CYS799  TRP800  GLU811  SER814 

> <Gold.Protein.RotatedAtoms>
  150.7175  134.5180  159.5639 H   0  0  0  0  0  0  0  0  0  0  0  0  # atno 6907 bound_to 6896
  152.2741  134.7897  160.0418 H   0  0  0  0  0  0  0  0  0  0  0  0  # atno 6908 bound_to 6896
  151.8567  133.3414  159.3727 H   0  0  0  0  0  0  0  0  0  0  0  0  # atno 6909 bound_to 6896
  145.2722  140.9302  143.2979 H   0  0  0  0  0  0  0  0  0  0  0  0  # atno 7974 bound_to 7965
  156.2886  140.2673  156.2246 H   0  0  0  0  0  0  0  0  0  0  0  0  # atno 8008 bound_to 7997
  155.0134  140.0387  157.2426 H   0  0  0  0  0  0  0  0  0  0  0  0  # atno 8009 bound_to 7997
  154.7498  140.2741  155.6307 H   0  0  0  0  0  0  0  0  0  0  0  0  # atno 8010 bound_to 7997
  140.7104  143.3307  151.2576 H   0  0  0  0  0  0  0  0  0  0  0  0  # atno 10167 bound_to 10162
  156.0049  130.4606  150.3964 H   0  0  0  0  0  0  0  0  0  0  0  0  # atno 10718 bound_to 10713
  152.9812  135.6012  154.3576 H   0  0  0  0  0  0  0  0  0  0  0  0  # atno 10763 bound_to 10752
  154.3260  135.2769  155.2497 H   0  0  0  0  0  0  0  0  0  0  0  0  # atno 10764 bound_to 10752
  154.4642  135.5958  153.6332 H   0  0  0  0  0  0  0  0  0  0  0  0  # atno 10765 bound_to 10752
  141.1471  133.6692  156.6078 H   0  0  0  0  0  0  0  0  0  0  0  0  # atno 11005 bound_to 11000
  144.9325  139.4282  143.6488 LP  0  0  0  0  0  0  0  0  0  0  0  0  # atno 17320 bound_to 7965
  146.3243  139.8243  142.8920 LP  0  0  0  0  0  0  0  0  0  0  0  0  # atno 17321 bound_to 7965
  139.6788  143.9891  152.2796 LP  0  0  0  0  0  0  0  0  0  0  0  0  # atno 17342 bound_to 10162
  139.9514  144.6618  150.8168 LP  0  0  0  0  0  0  0  0  0  0  0  0  # atno 17343 bound_to 10162
  157.2035  131.0443  151.2637 LP  0  0  0  0  0  0  0  0  0  0  0  0  # atno 17370 bound_to 10713
  157.3954  130.7304  149.6727 LP  0  0  0  0  0  0  0  0  0  0  0  0  # atno 17371 bound_to 10713
  140.3638  134.7665  157.4552 LP  0  0  0  0  0  0  0  0  0  0  0  0  # atno 17394 bound_to 11000
  140.0764  134.5791  155.8587 LP  0  0  0  0  0  0  0  0  0  0  0  0  # atno 17395 bound_to 11000

$$$$
