AV-unprocessed.smi:2954|AV-procd|sdf|11300|dock8
  -GOLD-   2272016193D 1   1.00000     0.00000
 Structure written by MMmdl.
 43 45  0  0  0  0  0  0  0  0  2 V2000
  153.0654  138.6942  154.5046 C   0  0  0  0  0  0  0  0  0  0  0  0
  151.7349  138.0055  154.8412 C   0  0  1  0  0  0  0  0  0  0  0  0
  151.7501  137.5938  156.2413 N   0  0  0  0  0  0  0  0  0  0  0  0
  151.5670  136.3376  156.6643 C   0  0  0  0  0  0  0  0  0  0  0  0
  151.3615  135.3972  155.9017 O   0  0  0  0  0  0  0  0  0  0  0  0
  150.5796  138.9119  154.5251 C   0  0  0  0  0  0  0  0  0  0  0  0
  149.5171  138.6138  153.7220 N   0  3  0  0  0  0  0  0  0  0  0  0
  148.6231  139.6840  153.6982 C   0  0  0  0  0  0  0  0  0  0  0  0
  147.4126  139.8456  153.0313 C   0  0  0  0  0  0  0  0  0  0  0  0
  146.7395  141.0690  153.2303 C   0  0  0  0  0  0  0  0  0  0  0  0
  147.2712  142.0722  154.0666 C   0  0  0  0  0  0  0  0  0  0  0  0
  148.4993  141.8959  154.7375 C   0  0  0  0  0  0  0  0  0  0  0  0
  149.1606  140.6854  154.5315 C   0  0  0  0  0  0  0  0  0  0  0  0
  150.3695  140.1706  155.0129 N   0  0  0  0  0  0  0  0  0  0  0  0
  151.1864  140.9930  155.9196 C   0  0  0  0  0  0  0  0  0  0  0  0
  150.9885  140.6314  157.4003 C   0  0  0  0  0  0  0  0  0  0  0  0
  150.7092  141.8063  158.1505 O   0  0  0  0  0  0  0  0  0  0  0  0
  151.5410  142.1167  159.2059 C   0  0  0  0  0  0  0  0  0  0  0  0
  152.4654  141.2039  159.7757 C   0  0  0  0  0  0  0  0  0  0  0  0
  153.2901  141.5963  160.8475 C   0  0  0  0  0  0  0  0  0  0  0  0
  153.2029  142.9014  161.3648 C   0  0  0  0  0  0  0  0  0  0  0  0
  152.2876  143.8137  160.8095 C   0  0  0  0  0  0  0  0  0  0  0  0
  151.4616  143.4236  159.7370 C   0  0  0  0  0  0  0  0  0  0  0  0
  150.3336  144.5575  159.0869 Cl  0  0  0  0  0  0  0  0  0  0  0  0
  153.1157  138.9676  153.4505 H   0  0  0  0  0  0  0  0  0  0  0  0
  153.9113  138.0378  154.7121 H   0  0  0  0  0  0  0  0  0  0  0  0
  153.2000  139.6053  155.0888 H   0  0  0  0  0  0  0  0  0  0  0  0
  151.6457  137.1159  154.2145 H   0  0  0  0  0  0  0  0  0  0  0  0
  151.9038  138.3121  156.9340 H   0  0  0  0  0  0  0  0  0  0  0  0
  151.6194  136.2599  157.7609 H   0  0  0  0  0  0  0  0  0  0  0  0
  147.0018  139.0775  152.3925 H   0  0  0  0  0  0  0  0  0  0  0  0
  145.7958  141.2402  152.7330 H   0  0  0  0  0  0  0  0  0  0  0  0
  146.7259  142.9957  154.1972 H   0  0  0  0  0  0  0  0  0  0  0  0
  148.8961  142.6694  155.3777 H   0  0  0  0  0  0  0  0  0  0  0  0
  152.2337  140.9026  155.6290 H   0  0  0  0  0  0  0  0  0  0  0  0
  150.9115  142.0355  155.7621 H   0  0  0  0  0  0  0  0  0  0  0  0
  150.1612  139.9280  157.5019 H   0  0  0  0  0  0  0  0  0  0  0  0
  151.8891  140.1414  157.7726 H   0  0  0  0  0  0  0  0  0  0  0  0
  152.5661  140.1957  159.4043 H   0  0  0  0  0  0  0  0  0  0  0  0
  153.9928  140.8944  161.2722 H   0  0  0  0  0  0  0  0  0  0  0  0
  153.8358  143.2017  162.1868 H   0  0  0  0  0  0  0  0  0  0  0  0
  152.2183  144.8149  161.2090 H   0  0  0  0  0  0  0  0  0  0  0  0
  149.4154  137.7370  153.2271 H   0  0  0  0  0  0  0  0  0  0  0  0
  1  2  1  0  0  0  0
  1 25  1  0  0  0  0
  1 26  1  0  0  0  0
  1 27  1  0  0  0  0
  2  3  1  0  0  0  0
  2  6  1  0  0  0  0
  2 28  1  0  0  0  0
  3  4  1  0  0  0  0
  3 29  1  0  0  0  0
  4  5  2  0  0  0  0
  4 30  1  0  0  0  0
  6 14  1  0  0  0  0
  6  7  2  0  0  0  0
  7  8  1  0  0  0  0
  7 43  1  0  0  0  0
  8 13  2  0  0  0  0
  8  9  1  0  0  0  0
  9 10  2  0  0  0  0
  9 31  1  0  0  0  0
 10 11  1  0  0  0  0
 10 32  1  0  0  0  0
 11 12  2  0  0  0  0
 11 33  1  0  0  0  0
 12 13  1  0  0  0  0
 12 34  1  0  0  0  0
 13 14  1  0  0  0  0
 14 15  1  0  0  0  0
 15 16  1  0  0  0  0
 15 35  1  0  0  0  0
 15 36  1  0  0  0  0
 16 17  1  0  0  0  0
 16 37  1  0  0  0  0
 16 38  1  0  0  0  0
 17 18  1  0  0  0  0
 18 23  1  0  0  0  0
 18 19  2  0  0  0  0
 19 20  1  0  0  0  0
 19 39  1  0  0  0  0
 20 21  2  0  0  0  0
 20 40  1  0  0  0  0
 21 22  1  0  0  0  0
 21 41  1  0  0  0  0
 22 23  2  0  0  0  0
 22 42  1  0  0  0  0
 23 24  1  0  0  0  0
M  CHG  1   7   1
M  END
> <s_m_source_file>
AV-unprocessed.smi

> <i_m_source_file_index>
2954

> <i_lp_mmshare_version>
43012

> <i_f3d_flags>
0

> <s_epik_input>
Tz1bQ0hdW05IXVtDQEBIXShbQ0gzXSljKG4xKW4oYyhjMTIpW2NIXVtjSF1bY0hdW2NIXTIpW0NIMl1bQ0gyXU9jM1tjSF1bY0hdW2NIXVtjSF1jM0Ns

> <s_epik_cmdline>
J2VwaWtfcHl0aG9uJywgJy1waCcsICc3LjAnLCAnLXRuJywgJzgnLCAnLW1hJywgJzIwMCcsICctbWV0YWxfYmluZGluZycsICctaW1hZScsICc8aW5maWxlLm1hZT4nLCAnLW9tYWUnLCAnPG91dGZpbGUubWFlPic=

> <r_lp_tautomer_probability>
1

> <r_epik_Ionization_Penalty>
1.18508

> <r_epik_Ionization_Penalty_Charging>
1.18508

> <r_epik_Ionization_Penalty_Neutral>
5.5802e-08

> <r_epik_State_Penalty>
1.24934

> <r_epik_Charging_Adjusted_Penalty>
2.43443

> <i_epik_Tot_Q>
1

> <i_epik_Tot_abs_Q>
1

> <r_epik_Metal_State_Penalty>
1.32564

> <b_epik_Metal_Only>
0

> <s_lp_Force_Field>
OPLS_2005

> <r_lp_Energy>
18.4095

> <b_lp_Chiralities_Consistent>
1

> <s_lp_Variant>
AV-unprocessed.smi:2954-4

> <Gold.Version>
5.8.1

> <Gold.Id.Protein>
6NUR|6NUR_protein|mol2

> <Gold.PLP.Fitness>
56.6217

> <Gold.PLP.PLP>
-51.1367

> <Gold.PLP.part.hbond>
-3.0000

> <Gold.PLP.part.metal>
0.0000

> <Gold.PLP.part.buried>
1.4287

> <Gold.PLP.part.nonpolar>
-48.4068

> <Gold.PLP.part.repulsive>
0.2362

> <Gold.PLP.ligand.clash>
0.0000

> <Gold.PLP.ligand.torsion>
1.2989

> <Gold.PLP.Chemscore.Hbond>
2.6800

> <Gold.PLP.Chemscore.CHOScore>
0.0000

> <Gold.PLP.Chemscore.Metal>
0.0000

> <Gold.Chemscore.Hbonds>
donor molecule, donor type, donor heavy atom, donor atom, acceptor molecule, acceptor atom, score
      L1  H     7    43       P1  7948  1.89
      P1  H 10752 10765       L1     5  0.76

> <Gold.PLP.Chemscore.Internal.Correction>
0.0429

> <Gold.Rescore>
     Score         DG    S(hbond)    S(metal)    S(lipo)     H(rot)  DE(clash)    DE(int)     intcor
     17.05     -18.91       1.04        0.00     136.32       2.35       0.55       1.31       ----

> <Gold.Chemscore.Fitness>
17.0453

> <Gold.Chemscore.DG>
-18.9062

> <Gold.Chemscore.ZeroCoef>
-5.4800

> <Gold.Chemscore.Hbond>
1.0434

> <Gold.Chemscore.Metal>
0.0000

> <Gold.Chemscore.Lipo>
136.3158

> <Gold.Chemscore.Internal_Hbond>
0.0000

> <Gold.Chemscore.DEClash>
0.5478

> <Gold.Chemscore.DEInternal>
1.3131

> <Gold.Chemscore.Rot>
2.3467

> <Gold.Chemscore.Internal.Correction>
   9.000000E+99

> <Gold.Chemscore.Hbonds>
donor molecule, donor type, donor heavy atom, donor atom, acceptor molecule, acceptor atom, score
      L1  H     7    43       P1  7948  0.85
      P1  H 10752 10765       L1     5  0.25

> <Gold.Chemscore.Hbond.Weighted>
-3.4849

> <Gold.Chemscore.Metal.Weighted>
-0.0000

> <Gold.Chemscore.Lipo.Weighted>
-15.9490

> <Gold.Chemscore.Internal_Hbond.Weighted>
0.0000

> <Gold.Chemscore.DEClash.Weighted>
0.5478

> <Gold.Chemscore.DEInternal.Weighted>
1.3131

> <Gold.Chemscore.Rot.Weighted>
6.0077

> <Gold.Chemscore.Internal.Correction.Weighted>
   9.000000E+99

> <Gold.Protein.RotatedTorsions>
[ 6907 6896 6895 6894 ] final   99.96 input  -60.11 | X-H torsion
[ 7974 7965 7964 7962 ] final   86.08 input  175.53 | X-H torsion
[ 8008 7997 7996 7995 ] final   98.27 input   59.86 | X-H torsion
[ 10167 10162 10161 10158 ] final  -16.19 input  -65.29 | X-H torsion
[ 10718 10713 10712 10709 ] final  -89.11 input   66.30 | X-H torsion
[ 10763 10752 10751 10750 ] final  177.62 input  -60.55 | X-H torsion
[ 11005 11000 10999 10996 ] final -118.88 input  -57.11 | X-H torsion

> <Gold.Protein.ActiveResidues>
 VAL166  LYS551  ARG553  GLY616  TRP617  ASP618  TYR619  PRO620  LYS621  CYS622 
 ASP623  PHE694  ASN695  SER759  ASP760  ASP761  ALA762  ILE779  LEU786  VAL792 
 PHE793  MET794  SER795  GLU796  ALA797  LYS798  CYS799  TRP800  GLU811  SER814 

> <Gold.Protein.RotatedAtoms>
  152.5382  134.0349  159.8040 H   0  0  0  0  0  0  0  0  0  0  0  0  # atno 6907 bound_to 6896
  151.0514  133.5613  159.2649 H   0  0  0  0  0  0  0  0  0  0  0  0  # atno 6908 bound_to 6896
  151.2546  135.0641  159.9129 H   0  0  0  0  0  0  0  0  0  0  0  0  # atno 6909 bound_to 6896
  145.5769  139.2320  143.2374 H   0  0  0  0  0  0  0  0  0  0  0  0  # atno 7974 bound_to 7965
  156.0987  140.3246  155.7912 H   0  0  0  0  0  0  0  0  0  0  0  0  # atno 8008 bound_to 7997
  155.4874  140.0559  157.2976 H   0  0  0  0  0  0  0  0  0  0  0  0  # atno 8009 bound_to 7997
  154.4683  140.1999  156.0077 H   0  0  0  0  0  0  0  0  0  0  0  0  # atno 8010 bound_to 7997
  140.7230  143.5141  150.9714 H   0  0  0  0  0  0  0  0  0  0  0  0  # atno 10167 bound_to 10162
  155.9984  130.4860  150.5121 H   0  0  0  0  0  0  0  0  0  0  0  0  # atno 10718 bound_to 10713
  154.4969  135.2781  155.1452 H   0  0  0  0  0  0  0  0  0  0  0  0  # atno 10763 bound_to 10752
  154.3101  135.6231  153.5465 H   0  0  0  0  0  0  0  0  0  0  0  0  # atno 10764 bound_to 10752
  152.9896  135.5717  154.5403 H   0  0  0  0  0  0  0  0  0  0  0  0  # atno 10765 bound_to 10752
  141.0255  134.0060  157.3221 H   0  0  0  0  0  0  0  0  0  0  0  0  # atno 11005 bound_to 11000
  146.1744  140.6596  142.9218 LP  0  0  0  0  0  0  0  0  0  0  0  0  # atno 17320 bound_to 7965
  144.7411  140.4946  143.6868 LP  0  0  0  0  0  0  0  0  0  0  0  0  # atno 17321 bound_to 7965
  139.8856  143.7017  152.3152 LP  0  0  0  0  0  0  0  0  0  0  0  0  # atno 17342 bound_to 10162
  139.7315  144.7581  151.0794 LP  0  0  0  0  0  0  0  0  0  0  0  0  # atno 17343 bound_to 10162
  157.3093  131.0660  151.2013 LP  0  0  0  0  0  0  0  0  0  0  0  0  # atno 17370 bound_to 10713
  157.2964  130.6821  149.6141 LP  0  0  0  0  0  0  0  0  0  0  0  0  # atno 17371 bound_to 10713
  139.9173  135.0198  156.7930 LP  0  0  0  0  0  0  0  0  0  0  0  0  # atno 17394 bound_to 11000
  140.6499  133.9741  155.7750 LP  0  0  0  0  0  0  0  0  0  0  0  0  # atno 17395 bound_to 11000

$$$$
