AV-unprocessed.smi:1330|AV-procd|sdf|5486|dock4
  -GOLD-   22720 5 63D 1   1.00000     0.00000
 Structure written by MMmdl.
 42 43  0  0  0  0  0  0  0  0  1 V2000
  146.7240  137.1875  154.9634 C   0  0  0  0  0  0  0  0  0  0  0  0
  147.5161  138.3966  154.5448 C   0  0  0  0  0  0  0  0  0  0  0  0
  148.7981  138.2520  154.4642 N   0  0  0  0  0  0  0  0  0  0  0  0
  149.6179  139.2988  154.0921 N   0  0  0  0  0  0  0  0  0  0  0  0
  151.0462  138.9589  154.0732 C   0  0  0  0  0  0  0  0  0  0  0  0
  151.3422  137.6643  154.8629 C   0  0  1  0  0  0  0  0  0  0  0  0
  152.7201  137.3782  154.7213 O   0  0  0  0  0  0  0  0  0  0  0  0
  151.0634  137.8294  156.3662 C   0  0  0  0  0  0  0  0  0  0  0  0
  151.1807  139.2011  156.7060 O   0  0  0  0  0  0  0  0  0  0  0  0
  151.1394  139.4303  158.1038 C   0  0  0  0  0  0  0  0  0  0  0  0
  151.3732  140.8924  158.4240 C   0  0  0  0  0  0  0  0  0  0  0  0
  152.4342  141.2739  159.2717 C   0  0  0  0  0  0  0  0  0  0  0  0
  152.6545  142.6351  159.5600 C   0  0  0  0  0  0  0  0  0  0  0  0
  151.8153  143.6189  159.0011 C   0  0  0  0  0  0  0  0  0  0  0  0
  152.0865  145.2861  159.3535 Cl  0  0  0  0  0  0  0  0  0  0  0  0
  150.7558  143.2407  158.1533 C   0  0  0  0  0  0  0  0  0  0  0  0
  150.5354  141.8796  157.8647 C   0  0  0  0  0  0  0  0  0  0  0  0
  149.1826  140.5523  153.7766 C   0  0  0  0  0  0  0  0  0  0  0  0
  149.9516  141.4587  153.4532 O   0  0  0  0  0  0  0  0  0  0  0  0
  147.7293  140.7091  153.8681 C   0  0  0  0  0  0  0  0  0  0  0  0
  147.2311  142.0081  153.5485 C   0  0  0  0  0  0  0  0  0  0  0  0
  146.8313  143.0579  153.2691 N   0  0  0  0  0  0  0  0  0  0  0  0
  146.9135  139.6893  154.2354 C   0  0  0  0  0  0  0  0  0  0  0  0
  145.3994  139.8008  154.3489 C   0  0  0  0  0  0  0  0  0  0  0  0
  146.0199  136.8973  154.1835 H   0  0  0  0  0  0  0  0  0  0  0  0
  146.1578  137.3912  155.8722 H   0  0  0  0  0  0  0  0  0  0  0  0
  147.3665  136.3285  155.1625 H   0  0  0  0  0  0  0  0  0  0  0  0
  151.4159  138.8763  153.0488 H   0  0  0  0  0  0  0  0  0  0  0  0
  151.6048  139.7930  154.5016 H   0  0  0  0  0  0  0  0  0  0  0  0
  150.7485  136.8356  154.4748 H   0  0  0  0  0  0  0  0  0  0  0  0
  153.1181  138.0700  154.2152 H   0  0  0  0  0  0  0  0  0  0  0  0
  150.0827  137.4322  156.6352 H   0  0  0  0  0  0  0  0  0  0  0  0
  151.8057  137.2754  156.9432 H   0  0  0  0  0  0  0  0  0  0  0  0
  150.1692  139.1299  158.5031 H   0  0  0  0  0  0  0  0  0  0  0  0
  151.8945  138.8232  158.6060 H   0  0  0  0  0  0  0  0  0  0  0  0
  153.0840  140.5249  159.7001 H   0  0  0  0  0  0  0  0  0  0  0  0
  153.4688  142.9226  160.2089 H   0  0  0  0  0  0  0  0  0  0  0  0
  150.1118  143.9932  157.7225 H   0  0  0  0  0  0  0  0  0  0  0  0
  149.7239  141.5952  157.2108 H   0  0  0  0  0  0  0  0  0  0  0  0
  145.0370  140.7931  154.0819 H   0  0  0  0  0  0  0  0  0  0  0  0
  145.0768  139.5979  155.3706 H   0  0  0  0  0  0  0  0  0  0  0  0
  144.9117  139.0859  153.6855 H   0  0  0  0  0  0  0  0  0  0  0  0
  1  2  1  0  0  0  0
  1 25  1  0  0  0  0
  1 26  1  0  0  0  0
  1 27  1  0  0  0  0
  2 23  1  0  0  0  0
  2  3  2  0  0  0  0
  3  4  1  0  0  0  0
  4  5  1  0  0  0  0
  4 18  1  0  0  0  0
  5  6  1  0  0  0  0
  5 28  1  0  0  0  0
  5 29  1  0  0  0  0
  6  7  1  0  0  0  0
  6  8  1  0  0  0  0
  6 30  1  0  0  0  0
  7 31  1  0  0  0  0
  8  9  1  0  0  0  0
  8 32  1  0  0  0  0
  8 33  1  0  0  0  0
  9 10  1  0  0  0  0
 10 11  1  0  0  0  0
 10 34  1  0  0  0  0
 10 35  1  0  0  0  0
 11 17  1  0  0  0  0
 11 12  2  0  0  0  0
 12 13  1  0  0  0  0
 12 36  1  0  0  0  0
 13 14  2  0  0  0  0
 13 37  1  0  0  0  0
 14 15  1  0  0  0  0
 14 16  1  0  0  0  0
 16 17  2  0  0  0  0
 16 38  1  0  0  0  0
 17 39  1  0  0  0  0
 18 19  2  0  0  0  0
 18 20  1  0  0  0  0
 20 21  1  0  0  0  0
 20 23  2  0  0  0  0
 21 22  3  0  0  0  0
 23 24  1  0  0  0  0
 24 40  1  0  0  0  0
 24 41  1  0  0  0  0
 24 42  1  0  0  0  0
M  END
> <s_m_source_file>
AV-unprocessed.smi

> <i_m_source_file_index>
1330

> <i_lp_mmshare_version>
43012

> <i_f3d_flags>
0

> <s_epik_input>
TiNDYyhjMVtDSDNdKWMoPU8pbihuYzFbQ0gzXSlbQ0gyXVtDQEhdKFtPSF0pW0NIMl1PW0NIMl1jMltjSF1bY0hdYyhDbClbY0hdW2NIXTI=

> <s_epik_cmdline>
J2VwaWtfcHl0aG9uJywgJy1waCcsICc3LjAnLCAnLXRuJywgJzgnLCAnLW1hJywgJzIwMCcsICctbWV0YWxfYmluZGluZycsICctaW1hZScsICc8aW5maWxlLm1hZT4nLCAnLW9tYWUnLCAnPG91dGZpbGUubWFlPic=

> <r_lp_tautomer_probability>
1

> <r_epik_Ionization_Penalty>
6.27695e-08

> <r_epik_Ionization_Penalty_Charging>
2.19172e-10

> <r_epik_Ionization_Penalty_Neutral>
6.25504e-08

> <r_epik_State_Penalty>
-0

> <r_epik_Charging_Adjusted_Penalty>
2.19172e-10

> <i_epik_Tot_Q>
0

> <i_epik_Tot_abs_Q>
0

> <r_epik_Metal_State_Penalty>
-0

> <b_epik_Metal_Only>
0

> <s_lp_Force_Field>
OPLS_2005

> <r_lp_Energy>
31.5646

> <b_lp_Chiralities_Consistent>
1

> <s_lp_Variant>
AV-unprocessed.smi:1330-2

> <Gold.Version>
5.8.1

> <Gold.Id.Protein>
6NUR|6NUR_protein|mol2

> <Gold.PLP.Fitness>
43.4273

> <Gold.PLP.PLP>
-40.1326

> <Gold.PLP.part.hbond>
-3.0000

> <Gold.PLP.part.metal>
0.0000

> <Gold.PLP.part.buried>
-6.7514

> <Gold.PLP.part.nonpolar>
-31.8526

> <Gold.PLP.part.repulsive>
1.4193

> <Gold.PLP.ligand.clash>
0.0000

> <Gold.PLP.ligand.torsion>
0.7215

> <Gold.PLP.Chemscore.Hbond>
1.5040

> <Gold.PLP.Chemscore.CHOScore>
0.0000

> <Gold.PLP.Chemscore.Metal>
0.0000

> <Gold.Chemscore.Hbonds>
donor molecule, donor type, donor heavy atom, donor atom, acceptor molecule, acceptor atom, score
      P1  H  7989  7998       L1    19  0.02
      P1  H  8011  8017       L1    19  0.69
      P1  H 10752 10765       L1     7  0.48

> <Gold.PLP.Chemscore.Internal.Correction>
0.2257

> <Gold.Rescore>
     Score         DG    S(hbond)    S(metal)    S(lipo)     H(rot)  DE(clash)    DE(int)     intcor
     15.21     -16.01       1.60        0.00      98.45       2.48       0.04       0.76       ----

> <Gold.Chemscore.Fitness>
15.2141

> <Gold.Chemscore.DG>
-16.0140

> <Gold.Chemscore.ZeroCoef>
-5.4800

> <Gold.Chemscore.Hbond>
1.6044

> <Gold.Chemscore.Metal>
0.0000

> <Gold.Chemscore.Lipo>
98.4466

> <Gold.Chemscore.Internal_Hbond>
0.0000

> <Gold.Chemscore.DEClash>
0.0429

> <Gold.Chemscore.DEInternal>
0.7570

> <Gold.Chemscore.Rot>
2.4777

> <Gold.Chemscore.Internal.Correction>
   9.000000E+99

> <Gold.Chemscore.Hbonds>
donor molecule, donor type, donor heavy atom, donor atom, acceptor molecule, acceptor atom, score
      P1  H  7989  7998       L1    19  0.05
      P1  H  8011  8017       L1    19  0.67
      P1  H  8022  8030       L1    22  0.01
      P1  H 10752 10765       L1     7  0.37

> <Gold.Chemscore.Hbond.Weighted>
-5.3586

> <Gold.Chemscore.Metal.Weighted>
-0.0000

> <Gold.Chemscore.Lipo.Weighted>
-11.5183

> <Gold.Chemscore.Internal_Hbond.Weighted>
0.0000

> <Gold.Chemscore.DEClash.Weighted>
0.0429

> <Gold.Chemscore.DEInternal.Weighted>
0.7570

> <Gold.Chemscore.Rot.Weighted>
6.3428

> <Gold.Chemscore.Internal.Correction.Weighted>
   9.000000E+99

> <Gold.Protein.RotatedTorsions>
[ 6907 6896 6895 6894 ] final  -23.53 input  -60.11 | X-H torsion
[ 7974 7965 7964 7962 ] final  176.09 input  175.53 | X-H torsion
[ 8008 7997 7996 7995 ] final  -93.22 input   59.86 | X-H torsion
[ 10167 10162 10161 10158 ] final  142.27 input  -65.29 | X-H torsion
[ 10718 10713 10712 10709 ] final   77.83 input   66.30 | X-H torsion
[ 10763 10752 10751 10750 ] final  163.00 input  -60.55 | X-H torsion
[ 11005 11000 10999 10996 ] final  125.99 input  -57.11 | X-H torsion

> <Gold.Protein.ActiveResidues>
 VAL166  LYS551  ARG553  GLY616  TRP617  ASP618  TYR619  PRO620  LYS621  CYS622 
 ASP623  PHE694  ASN695  SER759  ASP760  ASP761  ALA762  ILE779  LEU786  VAL792 
 PHE793  MET794  SER795  GLU796  ALA797  LYS798  CYS799  TRP800  GLU811  SER814 

> <Gold.Protein.RotatedAtoms>
  151.2027  135.0449  159.8878 H   0  0  0  0  0  0  0  0  0  0  0  0  # atno 6907 bound_to 6896
  152.5431  134.0832  159.8255 H   0  0  0  0  0  0  0  0  0  0  0  0  # atno 6908 bound_to 6896
  151.0975  133.5221  159.2643 H   0  0  0  0  0  0  0  0  0  0  0  0  # atno 6909 bound_to 6896
  144.7190  140.0045  143.6440 H   0  0  0  0  0  0  0  0  0  0  0  0  # atno 7974 bound_to 7965
  154.7330  140.0501  157.0743 H   0  0  0  0  0  0  0  0  0  0  0  0  # atno 8008 bound_to 7997
  155.0277  140.3154  155.4750 H   0  0  0  0  0  0  0  0  0  0  0  0  # atno 8009 bound_to 7997
  156.2846  140.2155  156.5398 H   0  0  0  0  0  0  0  0  0  0  0  0  # atno 8010 bound_to 7997
  139.4998  144.6118  151.6254 H   0  0  0  0  0  0  0  0  0  0  0  0  # atno 10167 bound_to 10162
  157.6724  130.9840  150.1699 H   0  0  0  0  0  0  0  0  0  0  0  0  # atno 10718 bound_to 10713
  154.2870  135.2762  155.2672 H   0  0  0  0  0  0  0  0  0  0  0  0  # atno 10763 bound_to 10752
  154.5168  135.5767  153.6652 H   0  0  0  0  0  0  0  0  0  0  0  0  # atno 10764 bound_to 10752
  152.9920  135.6194  154.3032 H   0  0  0  0  0  0  0  0  0  0  0  0  # atno 10765 bound_to 10752
  139.9434  134.9633  156.8641 H   0  0  0  0  0  0  0  0  0  0  0  0  # atno 11005 bound_to 11000
  146.0308  139.3333  143.0756 LP  0  0  0  0  0  0  0  0  0  0  0  0  # atno 17320 bound_to 7965
  145.8454  140.9558  143.0777 LP  0  0  0  0  0  0  0  0  0  0  0  0  # atno 17321 bound_to 7965
  140.5795  143.9971  150.6260 LP  0  0  0  0  0  0  0  0  0  0  0  0  # atno 17342 bound_to 10162
  140.3115  143.3195  152.0874 LP  0  0  0  0  0  0  0  0  0  0  0  0  # atno 17343 bound_to 10162
  156.2455  130.3695  149.8289 LP  0  0  0  0  0  0  0  0  0  0  0  0  # atno 17370 bound_to 10713
  156.6077  130.8573  151.3447 LP  0  0  0  0  0  0  0  0  0  0  0  0  # atno 17371 bound_to 10713
  140.5895  134.0275  155.7494 LP  0  0  0  0  0  0  0  0  0  0  0  0  # atno 17394 bound_to 11000
  141.1076  133.9668  157.2968 LP  0  0  0  0  0  0  0  0  0  0  0  0  # atno 17395 bound_to 11000

$$$$
