AV-unprocessed.smi:1247|AV-procd|sdf|5243|dock4
  -GOLD-   22720 4353D 1   1.00000     0.00000
 Structure written by MMmdl.
 46 47  0  0  0  0  0  0  0  0  1 V2000
  143.5759  132.5616  149.3923 C   0  0  0  0  0  0  0  0  0  0  0  0
  144.5950  133.1867  150.2988 C   0  0  0  0  0  0  0  0  0  0  0  0
  144.8163  134.5725  150.5472 C   0  0  0  0  0  0  0  0  0  0  0  0
  145.8519  134.5567  151.4412 C   0  0  0  0  0  0  0  0  0  0  0  0
  146.4845  135.6031  152.0358 N   0  0  0  0  0  0  0  0  0  0  0  0
  145.9530  136.6068  152.7558 C   0  0  0  0  0  0  0  0  0  0  0  0
  144.7550  136.7565  152.9967 O   0  0  0  0  0  0  0  0  0  0  0  0
  146.9031  137.4471  153.1907 N   0  0  0  0  0  0  0  0  0  0  0  0
  146.6611  138.6391  153.9949 C   0  0  0  0  0  0  0  0  0  0  0  0
  147.3748  139.8696  153.4039 C   0  0  0  0  0  0  0  0  0  0  0  0
  148.7447  140.0719  153.8725 N   0  0  0  0  0  0  0  0  0  0  0  0
  149.4400  138.8152  154.1396 C   0  0  0  0  0  0  0  0  0  0  0  0
  150.8736  139.0469  154.6553 C   0  0  2  0  0  0  0  0  0  0  0  0
  151.5770  137.7353  155.0197 C   0  0  0  0  0  0  0  0  0  0  0  0
  150.8258  139.8675  155.8191 O   0  0  0  0  0  0  0  0  0  0  0  0
  150.1982  141.1267  155.5945 C   0  0  2  0  0  0  0  0  0  0  0  0
  150.2177  141.9164  156.9076 C   0  0  0  0  0  0  0  0  0  0  0  0
  148.7658  140.8883  155.0809 C   0  0  0  0  0  0  0  0  0  0  0  0
  146.2026  133.2489  151.6925 N   0  0  0  0  0  0  0  0  0  0  0  0
  147.2336  132.7229  152.5657 C   0  0  0  0  0  0  0  0  0  0  0  0
  145.4225  132.4048  150.9830 N   0  0  0  0  0  0  0  0  0  0  0  0
  142.9624  133.3207  148.9063 H   0  0  0  0  0  0  0  0  0  0  0  0
  142.9087  131.9019  149.9475 H   0  0  0  0  0  0  0  0  0  0  0  0
  144.0553  131.9723  148.6103 H   0  0  0  0  0  0  0  0  0  0  0  0
  144.2906  135.4180  150.1299 H   0  0  0  0  0  0  0  0  0  0  0  0
  147.4864  135.6240  151.9153 H   0  0  0  0  0  0  0  0  0  0  0  0
  147.8629  137.2504  152.9473 H   0  0  0  0  0  0  0  0  0  0  0  0
  145.5833  138.7937  154.0255 H   0  0  0  0  0  0  0  0  0  0  0  0
  146.9827  138.4680  155.0236 H   0  0  0  0  0  0  0  0  0  0  0  0
  147.3940  139.7554  152.3191 H   0  0  0  0  0  0  0  0  0  0  0  0
  146.7828  140.7653  153.5989 H   0  0  0  0  0  0  0  0  0  0  0  0
  148.8793  138.2330  154.8727 H   0  0  0  0  0  0  0  0  0  0  0  0
  149.4906  138.2123  153.2336 H   0  0  0  0  0  0  0  0  0  0  0  0
  151.4588  139.5566  153.8878 H   0  0  0  0  0  0  0  0  0  0  0  0
  151.6474  137.0743  154.1555 H   0  0  0  0  0  0  0  0  0  0  0  0
  151.0393  137.2041  155.8054 H   0  0  0  0  0  0  0  0  0  0  0  0
  152.5895  137.9231  155.3775 H   0  0  0  0  0  0  0  0  0  0  0  0
  150.7687  141.6781  154.8449 H   0  0  0  0  0  0  0  0  0  0  0  0
  149.7553  142.8958  156.7832 H   0  0  0  0  0  0  0  0  0  0  0  0
  151.2399  142.0729  157.2531 H   0  0  0  0  0  0  0  0  0  0  0  0
  149.6773  141.3882  157.6937 H   0  0  0  0  0  0  0  0  0  0  0  0
  148.2905  141.8499  154.8834 H   0  0  0  0  0  0  0  0  0  0  0  0
  148.1765  140.4045  155.8617 H   0  0  0  0  0  0  0  0  0  0  0  0
  147.0213  133.0099  153.5960 H   0  0  0  0  0  0  0  0  0  0  0  0
  148.2028  133.1286  152.2743 H   0  0  0  0  0  0  0  0  0  0  0  0
  147.2728  131.6344  152.5026 H   0  0  0  0  0  0  0  0  0  0  0  0
  1  2  1  0  0  0  0
  1 22  1  0  0  0  0
  1 23  1  0  0  0  0
  1 24  1  0  0  0  0
  2 21  2  0  0  0  0
  2  3  1  0  0  0  0
  3  4  2  0  0  0  0
  3 25  1  0  0  0  0
  4  5  1  0  0  0  0
  4 19  1  0  0  0  0
  5  6  1  0  0  0  0
  5 26  1  0  0  0  0
  6  7  2  0  0  0  0
  6  8  1  0  0  0  0
  8  9  1  0  0  0  0
  8 27  1  0  0  0  0
  9 10  1  0  0  0  0
  9 28  1  0  0  0  0
  9 29  1  0  0  0  0
 10 11  1  0  0  0  0
 10 30  1  0  0  0  0
 10 31  1  0  0  0  0
 11 18  1  0  0  0  0
 11 12  1  0  0  0  0
 12 13  1  0  0  0  0
 12 32  1  0  0  0  0
 12 33  1  0  0  0  0
 13 14  1  0  0  0  0
 13 15  1  0  0  0  0
 13 34  1  0  0  0  0
 14 35  1  0  0  0  0
 14 36  1  0  0  0  0
 14 37  1  0  0  0  0
 15 16  1  0  0  0  0
 16 17  1  0  0  0  0
 16 18  1  0  0  0  0
 16 38  1  0  0  0  0
 17 39  1  0  0  0  0
 17 40  1  0  0  0  0
 17 41  1  0  0  0  0
 18 42  1  0  0  0  0
 18 43  1  0  0  0  0
 19 20  1  0  0  0  0
 19 21  1  0  0  0  0
 20 44  1  0  0  0  0
 20 45  1  0  0  0  0
 20 46  1  0  0  0  0
M  END
> <s_m_source_file>
AV-unprocessed.smi

> <i_m_source_file_index>
1247

> <i_lp_mmshare_version>
43012

> <i_f3d_flags>
0

> <s_epik_input>
W0NIM11jMVtjSF1jKG4objEpW0NIM10pW05IXUMoPU8pW05IXVtDSDJdW0NIMl1OMltDSDJdW0NAQEhdKFtDSDNdKU9bQ0BASF0oW0NIM10pW0NIMl0y

> <s_epik_cmdline>
J2VwaWtfcHl0aG9uJywgJy1waCcsICc3LjAnLCAnLXRuJywgJzgnLCAnLW1hJywgJzIwMCcsICctbWV0YWxfYmluZGluZycsICctaW1hZScsICc8aW5maWxlLm1hZT4nLCAnLW9tYWUnLCAnPG91dGZpbGUubWFlPic=

> <r_lp_tautomer_probability>
1

> <r_epik_Ionization_Penalty>
0.233972

> <r_epik_Ionization_Penalty_Charging>
0

> <r_epik_Ionization_Penalty_Neutral>
0.233972

> <r_epik_State_Penalty>
0.224627

> <r_epik_Charging_Adjusted_Penalty>
0.224627

> <i_epik_Tot_Q>
0

> <i_epik_Tot_abs_Q>
0

> <r_epik_Metal_State_Penalty>
0.224624

> <b_epik_Metal_Only>
0

> <s_lp_Force_Field>
OPLS_2005

> <r_lp_Energy>
19.816

> <b_lp_Chiralities_Consistent>
1

> <s_lp_Variant>
AV-unprocessed.smi:1247-1

> <Gold.Version>
5.8.1

> <Gold.Id.Protein>
6NUR|6NUR_protein|mol2

> <Gold.PLP.Fitness>
38.8138

> <Gold.PLP.PLP>
-35.1910

> <Gold.PLP.part.hbond>
-1.9962

> <Gold.PLP.part.metal>
0.0000

> <Gold.PLP.part.buried>
-4.0710

> <Gold.PLP.part.nonpolar>
-31.4012

> <Gold.PLP.part.repulsive>
2.0178

> <Gold.PLP.ligand.clash>
0.0000

> <Gold.PLP.ligand.torsion>
1.0629

> <Gold.PLP.Chemscore.Hbond>
1.9120

> <Gold.PLP.Chemscore.CHOScore>
0.0000

> <Gold.PLP.Chemscore.Metal>
0.0000

> <Gold.Chemscore.Hbonds>
donor molecule, donor type, donor heavy atom, donor atom, acceptor molecule, acceptor atom, score
      L1  H     5    26       P1  7948  1.00
      L1  H     8    27       P1  7948  0.88

> <Gold.PLP.Chemscore.Internal.Correction>
0.0127

> <Gold.Rescore>
     Score         DG    S(hbond)    S(metal)    S(lipo)     H(rot)  DE(clash)    DE(int)     intcor
     16.18     -17.48       1.93        0.00      79.93       1.48       0.16       1.13       ----

> <Gold.Chemscore.Fitness>
16.1811

> <Gold.Chemscore.DG>
-17.4769

> <Gold.Chemscore.ZeroCoef>
-5.4800

> <Gold.Chemscore.Hbond>
1.9294

> <Gold.Chemscore.Metal>
0.0000

> <Gold.Chemscore.Lipo>
79.9261

> <Gold.Chemscore.Internal_Hbond>
0.0000

> <Gold.Chemscore.DEClash>
0.1625

> <Gold.Chemscore.DEInternal>
1.1333

> <Gold.Chemscore.Rot>
1.4838

> <Gold.Chemscore.Internal.Correction>
   9.000000E+99

> <Gold.Chemscore.Hbonds>
donor molecule, donor type, donor heavy atom, donor atom, acceptor molecule, acceptor atom, score
      L1  H     5    26       P1  7948  0.96
      L1  H     8    27       P1  7948  0.87

> <Gold.Chemscore.Hbond.Weighted>
-6.4440

> <Gold.Chemscore.Metal.Weighted>
-0.0000

> <Gold.Chemscore.Lipo.Weighted>
-9.3514

> <Gold.Chemscore.Internal_Hbond.Weighted>
0.0000

> <Gold.Chemscore.DEClash.Weighted>
0.1625

> <Gold.Chemscore.DEInternal.Weighted>
1.1333

> <Gold.Chemscore.Rot.Weighted>
3.7985

> <Gold.Chemscore.Internal.Correction.Weighted>
   9.000000E+99

> <Gold.Protein.RotatedTorsions>
[ 6907 6896 6895 6894 ] final   99.52 input  -60.11 | X-H torsion
[ 7974 7965 7964 7962 ] final -163.83 input  175.53 | X-H torsion
[ 8008 7997 7996 7995 ] final   57.77 input   59.86 | X-H torsion
[ 10167 10162 10161 10158 ] final   92.32 input  -65.29 | X-H torsion
[ 10718 10713 10712 10709 ] final  -29.91 input   66.30 | X-H torsion
[ 10763 10752 10751 10750 ] final -164.31 input  -60.55 | X-H torsion
[ 11005 11000 10999 10996 ] final -178.43 input  -57.11 | X-H torsion

> <Gold.Protein.ActiveResidues>
 VAL166  LYS551  ARG553  GLY616  TRP617  ASP618  TYR619  PRO620  LYS621  CYS622 
 ASP623  PHE694  ASN695  SER759  ASP760  ASP761  ALA762  ILE779  LEU786  VAL792 
 PHE793  MET794  SER795  GLU796  ALA797  LYS798  CYS799  TRP800  GLU811  SER814 

> <Gold.Protein.RotatedAtoms>
  152.5390  134.0415  159.8069 H   0  0  0  0  0  0  0  0  0  0  0  0  # atno 6907 bound_to 6896
  151.0571  133.5568  159.2644 H   0  0  0  0  0  0  0  0  0  0  0  0  # atno 6908 bound_to 6896
  151.2480  135.0620  159.9105 H   0  0  0  0  0  0  0  0  0  0  0  0  # atno 6909 bound_to 6896
  144.7314  140.3050  143.6198 H   0  0  0  0  0  0  0  0  0  0  0  0  # atno 7974 bound_to 7965
  155.5391  140.3484  155.4443 H   0  0  0  0  0  0  0  0  0  0  0  0  # atno 8008 bound_to 7997
  156.0664  140.1352  156.9907 H   0  0  0  0  0  0  0  0  0  0  0  0  # atno 8009 bound_to 7997
  154.4505  140.0975  156.6578 H   0  0  0  0  0  0  0  0  0  0  0  0  # atno 8010 bound_to 7997
  139.8288  144.6697  150.9426 H   0  0  0  0  0  0  0  0  0  0  0  0  # atno 10167 bound_to 10162
  156.4065  130.4400  149.7283 H   0  0  0  0  0  0  0  0  0  0  0  0  # atno 10718 bound_to 10713
  154.7040  135.2993  154.9298 H   0  0  0  0  0  0  0  0  0  0  0  0  # atno 10763 bound_to 10752
  154.0221  135.6681  153.4777 H   0  0  0  0  0  0  0  0  0  0  0  0  # atno 10764 bound_to 10752
  153.0703  135.5065  154.8200 H   0  0  0  0  0  0  0  0  0  0  0  0  # atno 10765 bound_to 10752
  140.4298  134.6529  157.4706 H   0  0  0  0  0  0  0  0  0  0  0  0  # atno 11005 bound_to 11000
  145.7722  139.1861  143.2206 LP  0  0  0  0  0  0  0  0  0  0  0  0  # atno 17320 bound_to 7965
  146.0902  140.7665  142.9599 LP  0  0  0  0  0  0  0  0  0  0  0  0  # atno 17321 bound_to 7965
  140.7808  143.4021  151.1132 LP  0  0  0  0  0  0  0  0  0  0  0  0  # atno 17342 bound_to 10162
  139.7676  143.8542  152.3114 LP  0  0  0  0  0  0  0  0  0  0  0  0  # atno 17343 bound_to 10162
  156.4279  130.7801  151.2820 LP  0  0  0  0  0  0  0  0  0  0  0  0  # atno 17370 bound_to 10713
  157.7506  131.0163  150.3538 LP  0  0  0  0  0  0  0  0  0  0  0  0  # atno 17371 bound_to 10713
  140.0142  134.6645  155.9335 LP  0  0  0  0  0  0  0  0  0  0  0  0  # atno 17394 bound_to 11000
  141.1750  133.6539  156.4794 LP  0  0  0  0  0  0  0  0  0  0  0  0  # atno 17395 bound_to 11000

$$$$
