AV-unprocessed.smi:1005|AV-procd|sdf|4380|dock1
  -GOLD-   22720 2303D 1   1.00000     0.00000
 Structure written by MMmdl.
 58 60  0  0  0  0  0  0  0  0  4 V2000
  152.7370  143.5206  161.2687 C   0  0  0  0  0  0  0  0  0  0  0  0
  152.3901  142.7727  159.9925 C   0  0  0  0  0  0  0  0  0  0  0  0
  151.4787  143.3648  159.0895 C   0  0  0  0  0  0  0  0  0  0  0  0
  151.1790  142.6546  157.9331 C   0  0  0  0  0  0  0  0  0  0  0  0
  150.3323  142.9616  156.8660 N   0  3  0  0  0  0  0  0  0  0  0  0
  150.3598  141.9479  155.9575 C   0  0  0  0  0  0  0  0  0  0  0  0
  151.2184  141.0005  156.4241 N   0  0  0  0  0  0  0  0  0  0  0  0
  151.5876  139.7049  155.8358 C   0  0  0  0  0  0  0  0  0  0  0  0
  150.4659  139.0830  154.9797 C   0  0  2  0  0  0  0  0  0  0  0  0
  150.3641  139.8595  153.8035 O   0  0  0  0  0  0  0  0  0  0  0  0
  149.0927  139.0580  155.6864 C   0  0  0  0  0  0  0  0  0  0  0  0
  147.9681  138.7746  154.7539 N   0  3  2  0  0  0  0  0  0  0  0  0
  146.6340  139.0928  155.3177 C   0  0  0  0  0  0  0  0  0  0  0  0
  146.1665  137.9960  156.2893 C   0  0  0  0  0  0  0  0  0  0  0  0
  146.1496  136.7458  155.6111 O   0  0  0  0  0  0  0  0  0  0  0  0
  147.4399  136.3488  155.1576 C   0  0  1  0  0  0  0  0  0  0  0  0
  147.3002  134.9685  154.4873 C   0  0  0  0  0  0  0  0  0  0  0  0
  148.5629  134.4964  153.8619 N   0  3  0  0  0  0  0  0  0  0  0  0
  148.4320  133.1871  153.1811 C   0  0  0  0  0  0  0  0  0  0  0  0
  149.6907  134.4965  154.8202 C   0  0  0  0  0  0  0  0  0  0  0  0
  147.9720  137.4099  154.1657 C   0  0  0  0  0  0  0  0  0  0  0  0
  151.7490  141.3959  157.6587 C   0  0  0  0  0  0  0  0  0  0  0  0
  152.6484  140.7982  158.5392 C   0  0  0  0  0  0  0  0  0  0  0  0
  152.9683  141.5060  159.7197 C   0  0  0  0  0  0  0  0  0  0  0  0
  153.9471  140.8786  160.6977 C   0  0  0  0  0  0  0  0  0  0  0  0
  152.2211  144.4796  161.3234 H   0  0  0  0  0  0  0  0  0  0  0  0
  153.8083  143.7162  161.3204 H   0  0  0  0  0  0  0  0  0  0  0  0
  152.4486  142.9378  162.1439 H   0  0  0  0  0  0  0  0  0  0  0  0
  151.0313  144.3269  159.2932 H   0  0  0  0  0  0  0  0  0  0  0  0
  149.7955  141.9006  155.0368 H   0  0  0  0  0  0  0  0  0  0  0  0
  152.5093  139.8143  155.2640 H   0  0  0  0  0  0  0  0  0  0  0  0
  151.8276  139.0415  156.6682 H   0  0  0  0  0  0  0  0  0  0  0  0
  150.7704  138.0767  154.6933 H   0  0  0  0  0  0  0  0  0  0  0  0
  149.8941  139.3694  153.1466 H   0  0  0  0  0  0  0  0  0  0  0  0
  149.0869  138.3257  156.4920 H   0  0  0  0  0  0  0  0  0  0  0  0
  148.9393  140.0276  156.1628 H   0  0  0  0  0  0  0  0  0  0  0  0
  146.6416  140.0685  155.8051 H   0  0  0  0  0  0  0  0  0  0  0  0
  145.9229  139.1694  154.4940 H   0  0  0  0  0  0  0  0  0  0  0  0
  146.8085  137.9435  157.1699 H   0  0  0  0  0  0  0  0  0  0  0  0
  145.1595  138.2162  156.6441 H   0  0  0  0  0  0  0  0  0  0  0  0
  148.1174  136.2769  156.0076 H   0  0  0  0  0  0  0  0  0  0  0  0
  146.9841  134.2512  155.2467 H   0  0  0  0  0  0  0  0  0  0  0  0
  146.5095  134.9850  153.7357 H   0  0  0  0  0  0  0  0  0  0  0  0
  148.1365  132.4081  153.8851 H   0  0  0  0  0  0  0  0  0  0  0  0
  149.3812  132.8930  152.7316 H   0  0  0  0  0  0  0  0  0  0  0  0
  147.6960  133.2210  152.3790 H   0  0  0  0  0  0  0  0  0  0  0  0
  149.5090  133.7989  155.6388 H   0  0  0  0  0  0  0  0  0  0  0  0
  149.8411  135.4903  155.2435 H   0  0  0  0  0  0  0  0  0  0  0  0
  150.6187  134.2080  154.3248 H   0  0  0  0  0  0  0  0  0  0  0  0
  147.3334  137.4288  153.2811 H   0  0  0  0  0  0  0  0  0  0  0  0
  148.9669  137.1406  153.8133 H   0  0  0  0  0  0  0  0  0  0  0  0
  153.0881  139.8327  158.3382 H   0  0  0  0  0  0  0  0  0  0  0  0
  154.3074  139.9136  160.3396 H   0  0  0  0  0  0  0  0  0  0  0  0
  153.4711  140.7180  161.6653 H   0  0  0  0  0  0  0  0  0  0  0  0
  154.8138  141.5246  160.8408 H   0  0  0  0  0  0  0  0  0  0  0  0
  148.8058  135.1743  153.1530 H   0  0  0  0  0  0  0  0  0  0  0  0
  148.0976  139.4211  153.9884 H   0  0  0  0  0  0  0  0  0  0  0  0
  149.7653  143.7947  156.7693 H   0  0  0  0  0  0  0  0  0  0  0  0
  1  2  1  0  0  0  0
  1 26  1  0  0  0  0
  1 27  1  0  0  0  0
  1 28  1  0  0  0  0
  2 24  1  0  0  0  0
  2  3  2  0  0  0  0
  3  4  1  0  0  0  0
  3 29  1  0  0  0  0
  4 22  2  0  0  0  0
  4  5  1  0  0  0  0
  5  6  2  0  0  0  0
  5 58  1  0  0  0  0
  6  7  1  0  0  0  0
  6 30  1  0  0  0  0
  7  8  1  0  0  0  0
  7 22  1  0  0  0  0
  8  9  1  0  0  0  0
  8 31  1  0  0  0  0
  8 32  1  0  0  0  0
  9 10  1  0  0  0  0
  9 11  1  0  0  0  0
  9 33  1  0  0  0  0
 10 34  1  0  0  0  0
 11 12  1  0  0  0  0
 11 35  1  0  0  0  0
 11 36  1  0  0  0  0
 12 21  1  0  0  0  0
 12 13  1  0  0  0  0
 12 57  1  0  0  0  0
 13 14  1  0  0  0  0
 13 37  1  0  0  0  0
 13 38  1  0  0  0  0
 14 15  1  0  0  0  0
 14 39  1  0  0  0  0
 14 40  1  0  0  0  0
 15 16  1  0  0  0  0
 16 17  1  0  0  0  0
 16 21  1  0  0  0  0
 16 41  1  0  0  0  0
 17 18  1  0  0  0  0
 17 42  1  0  0  0  0
 17 43  1  0  0  0  0
 18 19  1  0  0  0  0
 18 20  1  0  0  0  0
 18 56  1  0  0  0  0
 19 44  1  0  0  0  0
 19 45  1  0  0  0  0
 19 46  1  0  0  0  0
 20 47  1  0  0  0  0
 20 48  1  0  0  0  0
 20 49  1  0  0  0  0
 21 50  1  0  0  0  0
 21 51  1  0  0  0  0
 22 23  1  0  0  0  0
 23 24  2  0  0  0  0
 23 52  1  0  0  0  0
 24 25  1  0  0  0  0
 25 53  1  0  0  0  0
 25 54  1  0  0  0  0
 25 55  1  0  0  0  0
M  CHG  1   5   1
M  CHG  1  12   1
M  CHG  1  18   1
M  END
> <s_m_source_file>
AV-unprocessed.smi

> <i_m_source_file_index>
1005

> <i_lp_mmshare_version>
43012

> <i_f3d_flags>
0

> <s_epik_input>
W0NIM11jKFtjSF0xKWMoW0NIM10pW2NIXWMoYzEyKW4oW2NIXW4yKVtDSDJdW0NASF0oW09IXSlbQ0gyXU4zW0NIMl1bQ0gyXU9bQ0BIXShbQ0gyXTMpW0NIMl1OKFtDSDNdKVtDSDNd

> <s_epik_cmdline>
J2VwaWtfcHl0aG9uJywgJy1waCcsICc3LjAnLCAnLXRuJywgJzgnLCAnLW1hJywgJzIwMCcsICctbWV0YWxfYmluZGluZycsICctaW1hZScsICc8aW5maWxlLm1hZT4nLCAnLW9tYWUnLCAnPG91dGZpbGUubWFlPic=

> <r_epik_Ionization_Penalty>
2.30802

> <r_epik_Ionization_Penalty_Charging>
2.30798

> <r_epik_Ionization_Penalty_Neutral>
3.4851e-05

> <r_epik_State_Penalty>
2.52618

> <r_epik_Charging_Adjusted_Penalty>
4.83416

> <i_epik_Tot_Q>
3

> <i_epik_Tot_abs_Q>
3

> <r_epik_Metal_State_Penalty>
6.53149

> <b_epik_Metal_Only>
0

> <s_lp_Force_Field>
OPLS_2005

> <r_lp_Energy>
52.3538

> <b_lp_Chiralities_Consistent>
1

> <s_lp_Variant>
AV-unprocessed.smi:1005-19

> <Gold.Version>
5.8.1

> <Gold.Id.Protein>
6NUR|6NUR_protein|mol2

> <Gold.PLP.Fitness>
55.3453

> <Gold.PLP.PLP>
-40.3949

> <Gold.PLP.part.hbond>
-3.8754

> <Gold.PLP.part.metal>
0.0000

> <Gold.PLP.part.buried>
0.2626

> <Gold.PLP.part.nonpolar>
-35.6781

> <Gold.PLP.part.repulsive>
0.0505

> <Gold.PLP.ligand.clash>
0.0000

> <Gold.PLP.ligand.torsion>
0.6157

> <Gold.PLP.Chemscore.Hbond>
5.3024

> <Gold.PLP.Chemscore.CHOScore>
0.0000

> <Gold.PLP.Chemscore.Metal>
0.0000

> <Gold.Chemscore.Hbonds>
donor molecule, donor type, donor heavy atom, donor atom, acceptor molecule, acceptor atom, score
      L1  H     5    58       P1  8028  1.79
      L1  H    10    34       P1  7957  0.38
      L1  H    18    56       P1  7948  2.00
      P1  H  7989  7998       L1    10  0.96

> <Gold.PLP.Chemscore.Internal.Correction>
0.2746

> <Gold.Rescore>
     Score         DG    S(hbond)    S(metal)    S(lipo)     H(rot)  DE(clash)    DE(int)     intcor
     19.67     -21.54       3.24        0.00     100.76       2.56       0.12       1.75       ----

> <Gold.Chemscore.Fitness>
19.6664

> <Gold.Chemscore.DG>
-21.5366

> <Gold.Chemscore.ZeroCoef>
-5.4800

> <Gold.Chemscore.Hbond>
3.2374

> <Gold.Chemscore.Metal>
0.0000

> <Gold.Chemscore.Lipo>
100.7585

> <Gold.Chemscore.Internal_Hbond>
0.0000

> <Gold.Chemscore.DEClash>
0.1211

> <Gold.Chemscore.DEInternal>
1.7492

> <Gold.Chemscore.Rot>
2.5566

> <Gold.Chemscore.Internal.Correction>
   9.000000E+99

> <Gold.Chemscore.Hbonds>
donor molecule, donor type, donor heavy atom, donor atom, acceptor molecule, acceptor atom, score
      L1  H     5    58       P1  8028  0.87
      L1  H    10    34       P1  7957  0.37
      L1  H    18    56       P1  7948  0.55
      P1  H  7989  7998       L1    10  0.86

> <Gold.Chemscore.Hbond.Weighted>
-10.8129

> <Gold.Chemscore.Metal.Weighted>
-0.0000

> <Gold.Chemscore.Lipo.Weighted>
-11.7887

> <Gold.Chemscore.Internal_Hbond.Weighted>
0.0000

> <Gold.Chemscore.DEClash.Weighted>
0.1211

> <Gold.Chemscore.DEInternal.Weighted>
1.7492

> <Gold.Chemscore.Rot.Weighted>
6.5450

> <Gold.Chemscore.Internal.Correction.Weighted>
   9.000000E+99

> <Gold.Protein.RotatedTorsions>
[ 6907 6896 6895 6894 ] final  118.84 input  -60.11 | X-H torsion
[ 7974 7965 7964 7962 ] final  162.83 input  175.53 | X-H torsion
[ 8008 7997 7996 7995 ] final   69.72 input   59.86 | X-H torsion
[ 10167 10162 10161 10158 ] final  106.76 input  -65.29 | X-H torsion
[ 10718 10713 10712 10709 ] final   88.30 input   66.30 | X-H torsion
[ 10763 10752 10751 10750 ] final -107.00 input  -60.55 | X-H torsion
[ 11005 11000 10999 10996 ] final -126.96 input  -57.11 | X-H torsion

> <Gold.Protein.ActiveResidues>
 VAL166  LYS551  ARG553  GLY616  TRP617  ASP618  TYR619  PRO620  LYS621  CYS622 
 ASP623  PHE694  ASN695  SER759  ASP760  ASP761  ALA762  ILE779  LEU786  VAL792 
 PHE793  MET794  SER795  GLU796  ALA797  LYS798  CYS799  TRP800  GLU811  SER814 

> <Gold.Protein.RotatedAtoms>
  152.4515  133.7638  159.6760 H   0  0  0  0  0  0  0  0  0  0  0  0  # atno 6907 bound_to 6896
  150.8428  133.7899  159.3060 H   0  0  0  0  0  0  0  0  0  0  0  0  # atno 6908 bound_to 6896
  151.5518  135.1070  160.0003 H   0  0  0  0  0  0  0  0  0  0  0  0  # atno 6909 bound_to 6896
  144.7618  139.8096  143.6330 H   0  0  0  0  0  0  0  0  0  0  0  0  # atno 7974 bound_to 7965
  155.7279  140.3492  155.5046 H   0  0  0  0  0  0  0  0  0  0  0  0  # atno 8008 bound_to 7997
  155.9210  140.1067  157.1229 H   0  0  0  0  0  0  0  0  0  0  0  0  # atno 8009 bound_to 7997
  154.4070  140.1249  156.4666 H   0  0  0  0  0  0  0  0  0  0  0  0  # atno 8010 bound_to 7997
  139.6983  144.7098  151.1229 H   0  0  0  0  0  0  0  0  0  0  0  0  # atno 10167 bound_to 10162
  157.6948  131.0289  150.3253 H   0  0  0  0  0  0  0  0  0  0  0  0  # atno 10718 bound_to 10713
  154.8048  135.4691  154.0364 H   0  0  0  0  0  0  0  0  0  0  0  0  # atno 10763 bound_to 10752
  153.1842  135.6845  153.8445 H   0  0  0  0  0  0  0  0  0  0  0  0  # atno 10764 bound_to 10752
  153.7985  135.3233  155.3365 H   0  0  0  0  0  0  0  0  0  0  0  0  # atno 10765 bound_to 10752
  140.9638  134.0899  157.3941 H   0  0  0  0  0  0  0  0  0  0  0  0  # atno 11005 bound_to 11000
  146.1688  139.4830  142.9941 LP  0  0  0  0  0  0  0  0  0  0  0  0  # atno 17320 bound_to 7965
  145.6596  141.0244  143.1716 LP  0  0  0  0  0  0  0  0  0  0  0  0  # atno 17321 bound_to 7965
  140.7702  143.5460  150.9258 LP  0  0  0  0  0  0  0  0  0  0  0  0  # atno 17342 bound_to 10162
  139.9141  143.6685  152.3109 LP  0  0  0  0  0  0  0  0  0  0  0  0  # atno 17343 bound_to 10162
  156.3734  130.3867  149.7157 LP  0  0  0  0  0  0  0  0  0  0  0  0  # atno 17370 bound_to 10713
  156.4564  130.7931  151.2952 LP  0  0  0  0  0  0  0  0  0  0  0  0  # atno 17371 bound_to 10713
  139.8887  135.0100  156.6638 LP  0  0  0  0  0  0  0  0  0  0  0  0  # atno 17394 bound_to 11000
  140.7428  133.8963  155.8290 LP  0  0  0  0  0  0  0  0  0  0  0  0  # atno 17395 bound_to 11000

$$$$
