AV-unprocessed.smi:256|AV-procd|sdf|1960|dock9
  -GOLD-   2262021103D 1   1.00000     0.00000
 Structure written by MMmdl.
 62 65  0  0  0  0  0  0  0  0  2 V2000
  152.4398  138.2426  156.9540 C   0  0  0  0  0  0  0  0  0  0  0  0
  152.1607  139.1773  155.7677 C   0  0  0  0  0  0  0  0  0  0  0  0
  150.6703  139.5858  155.6214 C   0  0  1  0  0  0  0  0  0  0  0  0
  149.7944  138.3058  155.6457 C   0  0  0  0  0  0  0  0  0  0  0  0
  148.3696  138.6023  155.7326 N   0  0  0  0  0  0  0  0  0  0  0  0
  147.4814  137.6218  155.4284 C   0  0  0  0  0  0  0  0  0  0  0  0
  147.2093  136.6472  156.3370 N   0  0  0  0  0  0  0  0  0  0  0  0
  146.3371  135.6775  156.0459 C   0  0  0  0  0  0  0  0  0  0  0  0
  145.6405  135.4916  154.9234 N   0  0  0  0  0  0  0  0  0  0  0  0
  145.9149  136.4598  154.0034 C   0  0  0  0  0  0  0  0  0  0  0  0
  146.8114  137.5526  154.1740 C   0  0  0  0  0  0  0  0  0  0  0  0
  146.8380  138.3264  153.0199 N   0  0  0  0  0  0  0  0  0  0  0  0
  145.9986  137.7312  152.2173 C   0  0  0  0  0  0  0  0  0  0  0  0
  145.4082  136.5945  152.7220 N   0  0  0  0  0  0  0  0  0  0  0  0
  144.4491  135.7364  152.0415 C   0  0  0  0  0  0  0  0  0  0  0  0
  145.0625  134.8873  150.8943 C   0  0  0  0  0  0  0  0  0  0  0  0
  145.4706  135.7798  149.8734 O   0  0  0  0  0  0  0  0  0  0  0  0
  146.2992  134.0633  151.3139 C   0  0  0  0  0  0  0  0  0  0  0  0
  145.9007  132.8584  152.1840 C   0  0  0  0  0  0  0  0  0  0  0  0
  144.9652  132.0446  151.4848 O   0  0  0  0  0  0  0  0  0  0  0  0
  143.7486  132.7219  151.1883 C   0  0  0  0  0  0  0  0  0  0  0  0
  144.0256  133.9294  150.2741 C   0  0  0  0  0  0  0  0  0  0  0  0
  148.0160  139.4477  156.8608 C   0  0  0  0  0  0  0  0  0  0  0  0
  148.7832  140.7673  156.7661 C   0  0  0  0  0  0  0  0  0  0  0  0
  150.2554  140.5634  156.6800 N   0  3  2  0  0  0  0  0  0  0  0  0
  150.9583  141.8762  156.6161 C   0  0  0  0  0  0  0  0  0  0  0  0
  150.8999  142.5998  157.9665 C   0  0  0  0  0  0  0  0  0  0  0  0
  151.2986  143.9480  157.7849 O   0  0  0  0  0  0  0  0  0  0  0  0
  152.2976  144.3472  158.7066 C   0  0  0  0  0  0  0  0  0  0  0  0
  153.4813  137.9204  156.9521 H   0  0  0  0  0  0  0  0  0  0  0  0
  151.8176  137.3484  156.9063 H   0  0  0  0  0  0  0  0  0  0  0  0
  152.2563  138.7320  157.9104 H   0  0  0  0  0  0  0  0  0  0  0  0
  152.7779  140.0717  155.8612 H   0  0  0  0  0  0  0  0  0  0  0  0
  152.5255  138.6684  154.8783 H   0  0  0  0  0  0  0  0  0  0  0  0
  150.5250  140.0783  154.6582 H   0  0  0  0  0  0  0  0  0  0  0  0
  149.9830  137.7180  154.7467 H   0  0  0  0  0  0  0  0  0  0  0  0
  150.0684  137.6830  156.4986 H   0  0  0  0  0  0  0  0  0  0  0  0
  146.1748  134.9448  156.8229 H   0  0  0  0  0  0  0  0  0  0  0  0
  145.7927  138.1016  151.2235 H   0  0  0  0  0  0  0  0  0  0  0  0
  143.9822  135.0958  152.7892 H   0  0  0  0  0  0  0  0  0  0  0  0
  143.6497  136.3691  151.6531 H   0  0  0  0  0  0  0  0  0  0  0  0
  145.6335  135.2819  149.0867 H   0  0  0  0  0  0  0  0  0  0  0  0
  146.8036  133.6846  150.4237 H   0  0  0  0  0  0  0  0  0  0  0  0
  147.0340  134.6801  151.8315 H   0  0  0  0  0  0  0  0  0  0  0  0
  146.7816  132.2590  152.4143 H   0  0  0  0  0  0  0  0  0  0  0  0
  145.4791  133.1765  153.1377 H   0  0  0  0  0  0  0  0  0  0  0  0
  143.0759  132.0253  150.6878 H   0  0  0  0  0  0  0  0  0  0  0  0
  143.2533  133.0250  152.1113 H   0  0  0  0  0  0  0  0  0  0  0  0
  143.0969  134.4573  150.0537 H   0  0  0  0  0  0  0  0  0  0  0  0
  144.3972  133.5540  149.3193 H   0  0  0  0  0  0  0  0  0  0  0  0
  146.9464  139.6497  156.9013 H   0  0  0  0  0  0  0  0  0  0  0  0
  148.2712  138.9300  157.7866 H   0  0  0  0  0  0  0  0  0  0  0  0
  148.4408  141.3122  155.8846 H   0  0  0  0  0  0  0  0  0  0  0  0
  148.5508  141.3869  157.6330 H   0  0  0  0  0  0  0  0  0  0  0  0
  151.9944  141.7836  156.2958 H   0  0  0  0  0  0  0  0  0  0  0  0
  150.5008  142.5089  155.8541 H   0  0  0  0  0  0  0  0  0  0  0  0
  149.8790  142.5704  158.3507 H   0  0  0  0  0  0  0  0  0  0  0  0
  151.5389  142.1034  158.6985 H   0  0  0  0  0  0  0  0  0  0  0  0
  152.5742  145.3847  158.5201 H   0  0  0  0  0  0  0  0  0  0  0  0
  153.1952  143.7359  158.6056 H   0  0  0  0  0  0  0  0  0  0  0  0
  151.9383  144.2744  159.7339 H   0  0  0  0  0  0  0  0  0  0  0  0
  150.5314  140.1369  157.5532 H   0  0  0  0  0  0  0  0  0  0  0  0
  1  2  1  0  0  0  0
  1 30  1  0  0  0  0
  1 31  1  0  0  0  0
  1 32  1  0  0  0  0
  2  3  1  0  0  0  0
  2 33  1  0  0  0  0
  2 34  1  0  0  0  0
  3 25  1  0  0  0  0
  3  4  1  0  0  0  0
  3 35  1  0  0  0  0
  4  5  1  0  0  0  0
  4 36  1  0  0  0  0
  4 37  1  0  0  0  0
  5  6  1  0  0  0  0
  5 23  1  0  0  0  0
  6 11  1  0  0  0  0
  6  7  2  0  0  0  0
  7  8  1  0  0  0  0
  8  9  2  0  0  0  0
  8 38  1  0  0  0  0
  9 10  1  0  0  0  0
 10 14  1  0  0  0  0
 10 11  2  0  0  0  0
 11 12  1  0  0  0  0
 12 13  2  0  0  0  0
 13 14  1  0  0  0  0
 13 39  1  0  0  0  0
 14 15  1  0  0  0  0
 15 16  1  0  0  0  0
 15 40  1  0  0  0  0
 15 41  1  0  0  0  0
 16 22  1  0  0  0  0
 16 17  1  0  0  0  0
 16 18  1  0  0  0  0
 17 42  1  0  0  0  0
 18 19  1  0  0  0  0
 18 43  1  0  0  0  0
 18 44  1  0  0  0  0
 19 20  1  0  0  0  0
 19 45  1  0  0  0  0
 19 46  1  0  0  0  0
 20 21  1  0  0  0  0
 21 22  1  0  0  0  0
 21 47  1  0  0  0  0
 21 48  1  0  0  0  0
 22 49  1  0  0  0  0
 22 50  1  0  0  0  0
 23 24  1  0  0  0  0
 23 51  1  0  0  0  0
 23 52  1  0  0  0  0
 24 25  1  0  0  0  0
 24 53  1  0  0  0  0
 24 54  1  0  0  0  0
 25 26  1  0  0  0  0
 25 62  1  0  0  0  0
 26 27  1  0  0  0  0
 26 55  1  0  0  0  0
 26 56  1  0  0  0  0
 27 28  1  0  0  0  0
 27 57  1  0  0  0  0
 27 58  1  0  0  0  0
 28 29  1  0  0  0  0
 29 59  1  0  0  0  0
 29 60  1  0  0  0  0
 29 61  1  0  0  0  0
M  CHG  1  25   1
M  END
> <s_m_source_file>
AV-unprocessed.smi

> <i_m_source_file_index>
256

> <i_lp_mmshare_version>
43012

> <i_f3d_flags>
0

> <s_epik_input>
W0NIM11PW0NIMl1bQ0gyXU4xW0NIMl1bQ0gyXU4oW0NIMl1bQ0BIXTFbQ0gyXVtDSDNdKWMobltjSF1uMiljKGMyMyluW2NIXW4zW0NIMl1DNChbT0hdKVtDSDJdW0NIMl1PW0NIMl1bQ0gyXTQ=

> <s_epik_cmdline>
J2VwaWtfcHl0aG9uJywgJy1waCcsICc3LjAnLCAnLXRuJywgJzgnLCAnLW1hJywgJzIwMCcsICctbWV0YWxfYmluZGluZycsICctaW1hZScsICc8aW5maWxlLm1hZT4nLCAnLW9tYWUnLCAnPG91dGZpbGUubWFlPic=

> <r_lp_tautomer_probability>
1

> <r_epik_Ionization_Penalty>
0.233023

> <r_epik_Ionization_Penalty_Charging>
0.23295

> <r_epik_Ionization_Penalty_Neutral>
7.2493e-05

> <r_epik_State_Penalty>
0.223667

> <r_epik_Charging_Adjusted_Penalty>
0.456618

> <i_epik_Tot_Q>
1

> <i_epik_Tot_abs_Q>
1

> <r_epik_Metal_State_Penalty>
0.226879

> <b_epik_Metal_Only>
0

> <s_lp_Force_Field>
OPLS_2005

> <r_lp_Energy>
45.9613

> <b_lp_Chiralities_Consistent>
1

> <s_lp_Variant>
AV-unprocessed.smi:256-4

> <Gold.Version>
5.8.1

> <Gold.Id.Protein>
6NUR|6NUR_protein|mol2

> <Gold.PLP.Fitness>
44.5067

> <Gold.PLP.PLP>
-39.9896

> <Gold.PLP.part.hbond>
-2.0000

> <Gold.PLP.part.metal>
0.0000

> <Gold.PLP.part.buried>
-6.0868

> <Gold.PLP.part.nonpolar>
-33.8059

> <Gold.PLP.part.repulsive>
0.6818

> <Gold.PLP.ligand.clash>
0.0000

> <Gold.PLP.ligand.torsion>
1.0023

> <Gold.PLP.Chemscore.Hbond>
1.0000

> <Gold.PLP.Chemscore.CHOScore>
1.0000

> <Gold.PLP.Chemscore.Metal>
0.0000

> <Gold.Chemscore.Hbonds>
donor molecule, donor type, donor heavy atom, donor atom, acceptor molecule, acceptor atom, score
      L1  H    17    42       P1  7921  1.00
      L1  C    13    39       P1 10171  1.00

> <Gold.PLP.Chemscore.Internal.Correction>
0.5218

> <Gold.Rescore>
     Score         DG    S(hbond)    S(metal)    S(lipo)     H(rot)  DE(clash)    DE(int)     intcor
     11.12     -12.62       1.00        0.00      96.44       2.92       0.04       1.46       ----

> <Gold.Chemscore.Fitness>
11.1193

> <Gold.Chemscore.DG>
-12.6164

> <Gold.Chemscore.ZeroCoef>
-5.4800

> <Gold.Chemscore.Hbond>
1.0000

> <Gold.Chemscore.Metal>
0.0000

> <Gold.Chemscore.Lipo>
96.4422

> <Gold.Chemscore.Internal_Hbond>
0.0000

> <Gold.Chemscore.DEClash>
0.0382

> <Gold.Chemscore.DEInternal>
1.4589

> <Gold.Chemscore.Rot>
2.9247

> <Gold.Chemscore.Internal.Correction>
   9.000000E+99

> <Gold.Chemscore.Hbonds>
donor molecule, donor type, donor heavy atom, donor atom, acceptor molecule, acceptor atom, score
      L1  H    17    42       P1  7921  0.98

> <Gold.Chemscore.Hbond.Weighted>
-3.3399

> <Gold.Chemscore.Metal.Weighted>
-0.0000

> <Gold.Chemscore.Lipo.Weighted>
-11.2837

> <Gold.Chemscore.Internal_Hbond.Weighted>
0.0000

> <Gold.Chemscore.DEClash.Weighted>
0.0382

> <Gold.Chemscore.DEInternal.Weighted>
1.4589

> <Gold.Chemscore.Rot.Weighted>
7.4873

> <Gold.Chemscore.Internal.Correction.Weighted>
   9.000000E+99

> <Gold.Protein.RotatedTorsions>
[ 6907 6896 6895 6894 ] final  -53.25 input  -60.11 | X-H torsion
[ 7974 7965 7964 7962 ] final   85.36 input  175.53 | X-H torsion
[ 8008 7997 7996 7995 ] final   -0.41 input   59.86 | X-H torsion
[ 10167 10162 10161 10158 ] final    9.04 input  -65.29 | X-H torsion
[ 10718 10713 10712 10709 ] final -121.70 input   66.30 | X-H torsion
[ 10763 10752 10751 10750 ] final  139.12 input  -60.55 | X-H torsion
[ 11005 11000 10999 10996 ] final  149.37 input  -57.11 | X-H torsion

> <Gold.Protein.ActiveResidues>
 VAL166  LYS551  ARG553  GLY616  TRP617  ASP618  TYR619  PRO620  LYS621  CYS622 
 ASP623  PHE694  ASN695  SER759  ASP760  ASP761  ALA762  ILE779  LEU786  VAL792 
 PHE793  MET794  SER795  GLU796  ALA797  LYS798  CYS799  TRP800  GLU811  SER814 

> <Gold.Protein.RotatedAtoms>
  150.8443  134.7747  159.6957 H   0  0  0  0  0  0  0  0  0  0  0  0  # atno 6907 bound_to 6896
  152.4524  134.5362  159.9835 H   0  0  0  0  0  0  0  0  0  0  0  0  # atno 6908 bound_to 6896
  151.5496  133.3381  159.2986 H   0  0  0  0  0  0  0  0  0  0  0  0  # atno 6909 bound_to 6896
  145.5866  139.2332  143.2323 H   0  0  0  0  0  0  0  0  0  0  0  0  # atno 7974 bound_to 7965
  154.6584  140.2585  155.7136 H   0  0  0  0  0  0  0  0  0  0  0  0  # atno 8008 bound_to 7997
  156.2607  140.2853  156.0967 H   0  0  0  0  0  0  0  0  0  0  0  0  # atno 8009 bound_to 7997
  155.1345  140.0379  157.2773 H   0  0  0  0  0  0  0  0  0  0  0  0  # atno 8010 bound_to 7997
  140.6278  143.8061  150.7256 H   0  0  0  0  0  0  0  0  0  0  0  0  # atno 10167 bound_to 10162
  156.1358  130.6430  150.9694 H   0  0  0  0  0  0  0  0  0  0  0  0  # atno 10718 bound_to 10713
  153.9009  135.3022  155.3448 H   0  0  0  0  0  0  0  0  0  0  0  0  # atno 10763 bound_to 10752
  154.7671  135.4905  153.9578 H   0  0  0  0  0  0  0  0  0  0  0  0  # atno 10764 bound_to 10752
  153.1245  135.6790  153.9379 H   0  0  0  0  0  0  0  0  0  0  0  0  # atno 10765 bound_to 10752
  140.1039  134.8966  157.1836 H   0  0  0  0  0  0  0  0  0  0  0  0  # atno 11005 bound_to 11000
  146.1678  140.6692  142.9247 LP  0  0  0  0  0  0  0  0  0  0  0  0  # atno 17320 bound_to 7965
  144.7370  140.4836  143.6896 LP  0  0  0  0  0  0  0  0  0  0  0  0  # atno 17321 bound_to 7965
  140.1665  143.4230  152.2030 LP  0  0  0  0  0  0  0  0  0  0  0  0  # atno 17342 bound_to 10162
  139.5496  144.7327  151.4475 LP  0  0  0  0  0  0  0  0  0  0  0  0  # atno 17343 bound_to 10162
  157.6531  131.0894  150.8007 LP  0  0  0  0  0  0  0  0  0  0  0  0  # atno 17370 bound_to 10713
  156.8087  130.4945  149.5359 LP  0  0  0  0  0  0  0  0  0  0  0  0  # atno 17371 bound_to 10713
  140.3183  134.2946  155.7251 LP  0  0  0  0  0  0  0  0  0  0  0  0  # atno 17394 bound_to 11000
  141.2113  133.7693  156.9874 LP  0  0  0  0  0  0  0  0  0  0  0  0  # atno 17395 bound_to 11000

$$$$
