AV-unprocessed.smi:587|AV-procd|sdf|3003|dock6
  -GOLD-   2262023513D 1   1.00000     0.00000
 Structure written by MMmdl.
 47 49  0  0  0  0  0  0  0  0  2 V2000
  146.3539  133.6793  158.3192 C   0  0  0  0  0  0  0  0  0  0  0  0
  147.0094  133.4340  157.0517 N   0  0  0  0  0  0  0  0  0  0  0  0
  146.3644  132.9987  155.8955 C   0  0  0  0  0  0  0  0  0  0  0  0
  144.9946  132.7812  155.9424 N   0  0  0  0  0  0  0  0  0  0  0  0
  147.0517  132.7929  154.7398 C   0  0  0  0  0  0  0  0  0  0  0  0
  146.2855  132.3341  153.5403 N   0  3  0  0  0  0  0  0  0  0  0  0
  146.6131  130.9626  153.0739 C   0  0  0  0  0  0  0  0  0  0  0  0
  145.5881  130.4809  152.0336 C   0  0  0  0  0  0  0  0  0  0  0  0
  145.4981  131.4621  150.8560 C   0  0  0  0  0  0  0  0  0  0  0  0
  145.1975  132.8776  151.3689 C   0  0  0  0  0  0  0  0  0  0  0  0
  146.2300  133.3113  152.4228 C   0  0  0  0  0  0  0  0  0  0  0  0
  148.4990  133.0170  154.6653 C   0  0  0  0  0  0  0  0  0  0  0  0
  149.1606  132.8503  153.6393 O   0  0  0  0  0  0  0  0  0  0  0  0
  149.1206  133.4559  155.8554 N   0  0  0  0  0  0  0  0  0  0  0  0
  150.5756  133.7302  155.8379 C   0  0  0  0  0  0  0  0  0  0  0  0
  150.9328  135.1719  156.2323 C   0  0  0  0  0  0  0  0  0  0  0  0
  151.4822  135.4180  157.3076 O   0  0  0  0  0  0  0  0  0  0  0  0
  150.6034  136.1168  155.3400 N   0  0  0  0  0  0  0  0  0  0  0  0
  150.8405  137.5162  155.4881 C   0  0  0  0  0  0  0  0  0  0  0  0
  150.4014  138.4284  154.3631 C   0  0  0  0  0  0  0  0  0  0  0  0
  151.8648  138.1529  154.5737 C   0  0  0  0  0  0  0  0  0  0  0  0
  148.4025  133.6819  157.0483 C   0  0  0  0  0  0  0  0  0  0  0  0
  148.9809  134.0904  158.0596 O   0  0  0  0  0  0  0  0  0  0  0  0
  145.2956  133.4358  158.2561 H   0  0  0  0  0  0  0  0  0  0  0  0
  146.4785  134.7384  158.5521 H   0  0  0  0  0  0  0  0  0  0  0  0
  146.8308  133.0416  159.0659 H   0  0  0  0  0  0  0  0  0  0  0  0
  144.4459  132.9247  156.7772 H   0  0  0  0  0  0  0  0  0  0  0  0
  144.4851  132.4623  155.1299 H   0  0  0  0  0  0  0  0  0  0  0  0
  147.6157  130.9390  152.6454 H   0  0  0  0  0  0  0  0  0  0  0  0
  146.6157  130.2829  153.9269 H   0  0  0  0  0  0  0  0  0  0  0  0
  145.8600  129.4884  151.6730 H   0  0  0  0  0  0  0  0  0  0  0  0
  144.6087  130.3817  152.5039 H   0  0  0  0  0  0  0  0  0  0  0  0
  146.4388  131.4625  150.3037 H   0  0  0  0  0  0  0  0  0  0  0  0
  144.7249  131.1423  150.1568 H   0  0  0  0  0  0  0  0  0  0  0  0
  145.1940  133.5831  150.5374 H   0  0  0  0  0  0  0  0  0  0  0  0
  144.1972  132.9057  151.8030 H   0  0  0  0  0  0  0  0  0  0  0  0
  145.9621  134.2931  152.8152 H   0  0  0  0  0  0  0  0  0  0  0  0
  147.2125  133.4110  151.9602 H   0  0  0  0  0  0  0  0  0  0  0  0
  151.1112  133.0469  156.4993 H   0  0  0  0  0  0  0  0  0  0  0  0
  151.0012  133.5263  154.8540 H   0  0  0  0  0  0  0  0  0  0  0  0
  150.1556  135.8220  154.4844 H   0  0  0  0  0  0  0  0  0  0  0  0
  150.7762  137.9313  156.4930 H   0  0  0  0  0  0  0  0  0  0  0  0
  149.9246  137.9750  153.4961 H   0  0  0  0  0  0  0  0  0  0  0  0
  150.0323  139.4156  154.6336 H   0  0  0  0  0  0  0  0  0  0  0  0
  152.4733  138.9553  154.9855 H   0  0  0  0  0  0  0  0  0  0  0  0
  152.3648  137.5159  153.8463 H   0  0  0  0  0  0  0  0  0  0  0  0
  145.3258  132.2619  153.8441 H   0  0  0  0  0  0  0  0  0  0  0  0
  1  2  1  0  0  0  0
  1 24  1  0  0  0  0
  1 25  1  0  0  0  0
  1 26  1  0  0  0  0
  2 22  1  0  0  0  0
  2  3  1  0  0  0  0
  3  4  1  0  0  0  0
  3  5  2  0  0  0  0
  4 27  1  0  0  0  0
  4 28  1  0  0  0  0
  5  6  1  0  0  0  0
  5 12  1  0  0  0  0
  6 11  1  0  0  0  0
  6  7  1  0  0  0  0
  6 47  1  0  0  0  0
  7  8  1  0  0  0  0
  7 29  1  0  0  0  0
  7 30  1  0  0  0  0
  8  9  1  0  0  0  0
  8 31  1  0  0  0  0
  8 32  1  0  0  0  0
  9 10  1  0  0  0  0
  9 33  1  0  0  0  0
  9 34  1  0  0  0  0
 10 11  1  0  0  0  0
 10 35  1  0  0  0  0
 10 36  1  0  0  0  0
 11 37  1  0  0  0  0
 11 38  1  0  0  0  0
 12 13  2  0  0  0  0
 12 14  1  0  0  0  0
 14 15  1  0  0  0  0
 14 22  1  0  0  0  0
 15 16  1  0  0  0  0
 15 39  1  0  0  0  0
 15 40  1  0  0  0  0
 16 17  2  0  0  0  0
 16 18  1  0  0  0  0
 18 19  1  0  0  0  0
 18 41  1  0  0  0  0
 19 21  1  0  0  0  0
 19 20  1  0  0  0  0
 19 42  1  0  0  0  0
 20 21  1  0  0  0  0
 20 43  1  0  0  0  0
 20 44  1  0  0  0  0
 21 45  1  0  0  0  0
 21 46  1  0  0  0  0
 22 23  2  0  0  0  0
M  CHG  1   6   1
M  END
> <s_m_source_file>
AV-unprocessed.smi

> <i_m_source_file_index>
587

> <i_lp_mmshare_version>
43012

> <i_f3d_flags>
0

> <s_epik_input>
W0NIMl0xW0NIMl1bQ0gyXVtDSDJdW0NIMl1OMWMoYyhbTkgyXSluMltDSDNdKWMoPU8pbihjMj1PKVtDSDJdQyg9TylbTkhdW0NIXTNbQ0gyXVtDSDJdMw==

> <s_epik_cmdline>
J2VwaWtfcHl0aG9uJywgJy1waCcsICc3LjAnLCAnLXRuJywgJzgnLCAnLW1hJywgJzIwMCcsICctbWV0YWxfYmluZGluZycsICctaW1hZScsICc8aW5maWxlLm1hZT4nLCAnLW9tYWUnLCAnPG91dGZpbGUubWFlPic=

> <r_epik_Ionization_Penalty>
2.48068

> <r_epik_Ionization_Penalty_Charging>
2.47625

> <r_epik_Ionization_Penalty_Neutral>
0.00443673

> <r_epik_State_Penalty>
2.66159

> <r_epik_Charging_Adjusted_Penalty>
5.13784

> <i_epik_Tot_Q>
1

> <i_epik_Tot_abs_Q>
1

> <r_epik_Metal_State_Penalty>
2.66159

> <b_epik_Metal_Only>
0

> <s_lp_Force_Field>
OPLS_2005

> <r_lp_Energy>
35.5709

> <b_lp_Chiralities_Consistent>
1

> <s_lp_Variant>
AV-unprocessed.smi:587-2

> <Gold.Version>
5.8.1

> <Gold.Id.Protein>
6NUR|6NUR_protein|mol2

> <Gold.PLP.Fitness>
35.1691

> <Gold.PLP.PLP>
-30.1805

> <Gold.PLP.part.hbond>
-2.8916

> <Gold.PLP.part.metal>
0.0000

> <Gold.PLP.part.buried>
-5.9078

> <Gold.PLP.part.nonpolar>
-21.6146

> <Gold.PLP.part.repulsive>
0.2642

> <Gold.PLP.ligand.clash>
0.0000

> <Gold.PLP.ligand.torsion>
0.2261

> <Gold.PLP.Chemscore.Hbond>
1.7454

> <Gold.PLP.Chemscore.CHOScore>
0.0000

> <Gold.PLP.Chemscore.Metal>
0.0000

> <Gold.Chemscore.Hbonds>
donor molecule, donor type, donor heavy atom, donor atom, acceptor molecule, acceptor atom, score
      L1  H     4    28       P1 10957  0.70
      P1  H  6896  6909       L1    23  0.78

> <Gold.PLP.Chemscore.Internal.Correction>
0.2045

> <Gold.Rescore>
     Score         DG    S(hbond)    S(metal)    S(lipo)     H(rot)  DE(clash)    DE(int)     intcor
     12.76     -14.10       1.76        0.00      64.12       1.87       0.00       1.34       ----

> <Gold.Chemscore.Fitness>
12.7567

> <Gold.Chemscore.DG>
-14.0958

> <Gold.Chemscore.ZeroCoef>
-5.4800

> <Gold.Chemscore.Hbond>
1.7647

> <Gold.Chemscore.Metal>
0.0000

> <Gold.Chemscore.Lipo>
64.1170

> <Gold.Chemscore.Internal_Hbond>
0.0000

> <Gold.Chemscore.DEClash>
0.0009

> <Gold.Chemscore.DEInternal>
1.3382

> <Gold.Chemscore.Rot>
1.8672

> <Gold.Chemscore.Internal.Correction>
   9.000000E+99

> <Gold.Chemscore.Hbonds>
donor molecule, donor type, donor heavy atom, donor atom, acceptor molecule, acceptor atom, score
      L1  H     4    28       P1 10957  0.66
      P1  H  6896  6909       L1    23  0.77

> <Gold.Chemscore.Hbond.Weighted>
-5.8940

> <Gold.Chemscore.Metal.Weighted>
-0.0000

> <Gold.Chemscore.Lipo.Weighted>
-7.5017

> <Gold.Chemscore.Internal_Hbond.Weighted>
0.0000

> <Gold.Chemscore.DEClash.Weighted>
0.0009

> <Gold.Chemscore.DEInternal.Weighted>
1.3382

> <Gold.Chemscore.Rot.Weighted>
4.7799

> <Gold.Chemscore.Internal.Correction.Weighted>
   9.000000E+99

> <Gold.Protein.RotatedTorsions>
[ 6907 6896 6895 6894 ] final   15.15 input  -60.11 | X-H torsion
[ 7974 7965 7964 7962 ] final   76.86 input  175.53 | X-H torsion
[ 8008 7997 7996 7995 ] final -154.44 input   59.86 | X-H torsion
[ 10167 10162 10161 10158 ] final  -11.28 input  -65.29 | X-H torsion
[ 10718 10713 10712 10709 ] final   25.30 input   66.30 | X-H torsion
[ 10763 10752 10751 10750 ] final   90.23 input  -60.55 | X-H torsion
[ 11005 11000 10999 10996 ] final -157.78 input  -57.11 | X-H torsion

> <Gold.Protein.ActiveResidues>
 VAL166  LYS551  ARG553  GLY616  TRP617  ASP618  TYR619  PRO620  LYS621  CYS622 
 ASP623  PHE694  ASN695  SER759  ASP760  ASP761  ALA762  ILE779  LEU786  VAL792 
 PHE793  MET794  SER795  GLU796  ALA797  LYS798  CYS799  TRP800  GLU811  SER814 

> <Gold.Protein.RotatedAtoms>
  151.8135  135.0673  160.0415 H   0  0  0  0  0  0  0  0  0  0  0  0  # atno 6907 bound_to 6896
  152.3003  133.5644  159.5623 H   0  0  0  0  0  0  0  0  0  0  0  0  # atno 6908 bound_to 6896
  150.7270  134.0217  159.3745 H   0  0  0  0  0  0  0  0  0  0  0  0  # atno 6909 bound_to 6896
  145.6974  139.2571  143.1725 H   0  0  0  0  0  0  0  0  0  0  0  0  # atno 7974 bound_to 7965
  155.6864  140.0750  157.2465 H   0  0  0  0  0  0  0  0  0  0  0  0  # atno 8008 bound_to 7997
  154.4096  140.1672  156.2091 H   0  0  0  0  0  0  0  0  0  0  0  0  # atno 8009 bound_to 7997
  155.9490  140.3379  155.6394 H   0  0  0  0  0  0  0  0  0  0  0  0  # atno 8010 bound_to 7997
  140.7134  143.5656  150.9147 H   0  0  0  0  0  0  0  0  0  0  0  0  # atno 10167 bound_to 10162
  157.1915  130.6848  149.6152 H   0  0  0  0  0  0  0  0  0  0  0  0  # atno 10718 bound_to 10713
  153.1953  135.4441  155.0200 H   0  0  0  0  0  0  0  0  0  0  0  0  # atno 10763 bound_to 10752
  154.8115  135.3296  154.7294 H   0  0  0  0  0  0  0  0  0  0  0  0  # atno 10764 bound_to 10752
  153.7744  135.6982  153.4955 H   0  0  0  0  0  0  0  0  0  0  0  0  # atno 10765 bound_to 10752
  140.6608  134.4351  157.5234 H   0  0  0  0  0  0  0  0  0  0  0  0  # atno 11005 bound_to 11000
  146.0828  140.7745  142.9633 LP  0  0  0  0  0  0  0  0  0  0  0  0  # atno 17320 bound_to 7965
  144.6978  140.3515  143.7181 LP  0  0  0  0  0  0  0  0  0  0  0  0  # atno 17321 bound_to 7965
  139.9382  143.6413  152.3060 LP  0  0  0  0  0  0  0  0  0  0  0  0  # atno 17342 bound_to 10162
  139.6888  144.7649  151.1476 LP  0  0  0  0  0  0  0  0  0  0  0  0  # atno 17343 bound_to 10162
  155.9711  130.4613  150.6104 LP  0  0  0  0  0  0  0  0  0  0  0  0  # atno 17370 bound_to 10713
  157.3856  131.0787  151.1439 LP  0  0  0  0  0  0  0  0  0  0  0  0  # atno 17371 bound_to 10713
  139.9013  134.8549  156.1883 LP  0  0  0  0  0  0  0  0  0  0  0  0  # atno 17394 bound_to 11000
  141.0466  133.6910  156.1695 LP  0  0  0  0  0  0  0  0  0  0  0  0  # atno 17395 bound_to 11000

$$$$
