AV-unprocessed.smi:1802|AV-procd|sdf|7275|dock3
  -GOLD-   22720 8533D 1   1.00000     0.00000
 Structure written by MMmdl.
 40 41  0  0  0  0  0  0  0  0  3 V2000
  151.8588  145.4236  159.6104 C   0  0  0  0  0  0  0  0  0  0  0  0
  151.7530  143.8920  159.6029 C   0  0  2  0  0  0  0  0  0  0  0  0
  152.9635  143.2421  160.2940 C   0  0  0  0  0  0  0  0  0  0  0  0
  152.8440  141.7139  160.2481 C   0  0  0  0  0  0  0  0  0  0  0  0
  152.6615  141.2197  158.8044 C   0  0  0  0  0  0  0  0  0  0  0  0
  151.4839  141.8600  158.1635 N   0  3  2  0  0  0  0  0  0  0  0  0
  151.2045  141.2989  156.8174 C   0  0  0  0  0  0  0  0  0  0  0  0
  150.2352  140.1060  156.8689 C   0  0  0  0  0  0  0  0  0  0  0  0
  150.5802  139.1243  157.9960 C   0  0  0  0  0  0  0  0  0  0  0  0
  149.3920  138.3952  158.4171 N   0  0  0  0  0  0  0  0  0  0  0  0
  149.3931  137.2010  159.0236 C   0  0  0  0  0  0  0  0  0  0  0  0
  150.4618  136.6323  159.2571 O   0  0  0  0  0  0  0  0  0  0  0  0
  148.1568  136.7436  159.3243 N   0  5  0  0  0  0  0  0  0  0  0  0
  147.8756  136.3407  160.5747 C   0  0  0  0  0  0  0  0  0  0  0  0
  147.6907  137.2059  161.5848 N   0  0  0  0  0  0  0  0  0  0  0  0
  147.4165  136.5820  162.7945 N   0  0  0  0  0  0  0  0  0  0  0  0
  147.4100  135.2555  162.6664 C   0  0  0  0  0  0  0  0  0  0  0  0
  147.7398  134.6477  161.0578 S   0  0  0  0  0  0  0  0  0  0  0  0
  151.5979  143.3435  158.1699 C   0  0  0  0  0  0  0  0  0  0  0  0
  152.7365  145.7635  159.0596 H   0  0  0  0  0  0  0  0  0  0  0  0
  151.9362  145.8069  160.6282 H   0  0  0  0  0  0  0  0  0  0  0  0
  150.9810  145.8811  159.1533 H   0  0  0  0  0  0  0  0  0  0  0  0
  150.8575  143.6227  160.1654 H   0  0  0  0  0  0  0  0  0  0  0  0
  153.8862  143.5525  159.8014 H   0  0  0  0  0  0  0  0  0  0  0  0
  153.0345  143.5772  161.3295 H   0  0  0  0  0  0  0  0  0  0  0  0
  153.7307  141.2579  160.6893 H   0  0  0  0  0  0  0  0  0  0  0  0
  151.9966  141.3938  160.8557 H   0  0  0  0  0  0  0  0  0  0  0  0
  153.5566  141.4298  158.2168 H   0  0  0  0  0  0  0  0  0  0  0  0
  152.5342  140.1366  158.8135 H   0  0  0  0  0  0  0  0  0  0  0  0
  150.8256  142.0804  156.1570 H   0  0  0  0  0  0  0  0  0  0  0  0
  152.1393  140.9503  156.3762 H   0  0  0  0  0  0  0  0  0  0  0  0
  149.2175  140.4726  157.0110 H   0  0  0  0  0  0  0  0  0  0  0  0
  150.2416  139.5680  155.9210 H   0  0  0  0  0  0  0  0  0  0  0  0
  151.3362  138.4128  157.6609 H   0  0  0  0  0  0  0  0  0  0  0  0
  150.9976  139.6651  158.8469 H   0  0  0  0  0  0  0  0  0  0  0  0
  148.4967  138.8268  158.2401 H   0  0  0  0  0  0  0  0  0  0  0  0
  147.2126  134.6309  163.5247 H   0  0  0  0  0  0  0  0  0  0  0  0
  150.7123  143.7881  157.7174 H   0  0  0  0  0  0  0  0  0  0  0  0
  152.4485  143.6442  157.5559 H   0  0  0  0  0  0  0  0  0  0  0  0
  150.6891  141.6228  158.7400 H   0  0  0  0  0  0  0  0  0  0  0  0
  1  2  1  0  0  0  0
  1 20  1  0  0  0  0
  1 21  1  0  0  0  0
  1 22  1  0  0  0  0
  2 19  1  0  0  0  0
  2  3  1  0  0  0  0
  2 23  1  0  0  0  0
  3  4  1  0  0  0  0
  3 24  1  0  0  0  0
  3 25  1  0  0  0  0
  4  5  1  0  0  0  0
  4 26  1  0  0  0  0
  4 27  1  0  0  0  0
  5  6  1  0  0  0  0
  5 28  1  0  0  0  0
  5 29  1  0  0  0  0
  6  7  1  0  0  0  0
  6 19  1  0  0  0  0
  6 40  1  0  0  0  0
  7  8  1  0  0  0  0
  7 30  1  0  0  0  0
  7 31  1  0  0  0  0
  8  9  1  0  0  0  0
  8 32  1  0  0  0  0
  8 33  1  0  0  0  0
  9 10  1  0  0  0  0
  9 34  1  0  0  0  0
  9 35  1  0  0  0  0
 10 11  1  0  0  0  0
 10 36  1  0  0  0  0
 11 12  2  0  0  0  0
 11 13  1  0  0  0  0
 13 14  1  0  0  0  0
 14 18  1  0  0  0  0
 14 15  2  0  0  0  0
 15 16  1  0  0  0  0
 16 17  2  0  0  0  0
 17 18  1  0  0  0  0
 17 37  1  0  0  0  0
 19 38  1  0  0  0  0
 19 39  1  0  0  0  0
M  CHG  1   6   1
M  CHG  1  13  -1
M  END
> <s_m_source_file>
AV-unprocessed.smi

> <i_m_source_file_index>
1802

> <i_lp_mmshare_version>
43012

> <i_f3d_flags>
0

> <s_epik_input>
W0NIM11bQ0BASF0xW0NIMl1bQ0gyXVtDSDJdTihbQ0gyXTEpW0NIMl1bQ0gyXVtDSDJdW05IXUMoPU8pW05IXWMybm5bY0hdczI=

> <s_epik_cmdline>
J2VwaWtfcHl0aG9uJywgJy1waCcsICc3LjAnLCAnLXRuJywgJzgnLCAnLW1hJywgJzIwMCcsICctbWV0YWxfYmluZGluZycsICctaW1hZScsICc8aW5maWxlLm1hZT4nLCAnLW9tYWUnLCAnPG91dGZpbGUubWFlPic=

> <r_lp_tautomer_probability>
1

> <r_epik_Ionization_Penalty>
3.29702

> <r_epik_Ionization_Penalty_Charging>
3.26059

> <r_epik_Ionization_Penalty_Neutral>
0.0364294

> <r_epik_State_Penalty>
3.25788

> <r_epik_Charging_Adjusted_Penalty>
6.51847

> <i_epik_Tot_Q>
0

> <i_epik_Tot_abs_Q>
2

> <r_epik_Metal_State_Penalty>
0.477639

> <b_epik_Metal_Only>
1

> <s_lp_Force_Field>
OPLS_2005

> <r_lp_Energy>
10.8961

> <b_lp_Chiralities_Consistent>
1

> <s_lp_Variant>
AV-unprocessed.smi:1802-5

> <Gold.Version>
5.8.1

> <Gold.Id.Protein>
6NUR|6NUR_protein|mol2

> <Gold.PLP.Fitness>
44.9391

> <Gold.PLP.PLP>
-40.5463

> <Gold.PLP.part.hbond>
-3.0000

> <Gold.PLP.part.metal>
0.0000

> <Gold.PLP.part.buried>
-6.3602

> <Gold.PLP.part.nonpolar>
-31.3924

> <Gold.PLP.part.repulsive>
0.2365

> <Gold.PLP.ligand.clash>
0.0000

> <Gold.PLP.ligand.torsion>
1.9931

> <Gold.PLP.Chemscore.Hbond>
2.7520

> <Gold.PLP.Chemscore.CHOScore>
0.0000

> <Gold.PLP.Chemscore.Metal>
0.0000

> <Gold.Chemscore.Hbonds>
donor molecule, donor type, donor heavy atom, donor atom, acceptor molecule, acceptor atom, score
      P1  H  6896  6909       L1    12  1.00
      P1  H  6931  6943       L1    15  1.00
      P1  H  6934  6947       L1    15  0.75

> <Gold.PLP.Chemscore.Internal.Correction>
0.1230

> <Gold.Rescore>
     Score         DG    S(hbond)    S(metal)    S(lipo)     H(rot)  DE(clash)    DE(int)     intcor
     17.11     -19.14       2.26        0.00      94.54       1.94       0.00       2.03       ----

> <Gold.Chemscore.Fitness>
17.1064

> <Gold.Chemscore.DG>
-19.1384

> <Gold.Chemscore.ZeroCoef>
-5.4800

> <Gold.Chemscore.Hbond>
2.2631

> <Gold.Chemscore.Metal>
0.0000

> <Gold.Chemscore.Lipo>
94.5432

> <Gold.Chemscore.Internal_Hbond>
0.0000

> <Gold.Chemscore.DEClash>
0.0015

> <Gold.Chemscore.DEInternal>
2.0306

> <Gold.Chemscore.Rot>
1.9383

> <Gold.Chemscore.Internal.Correction>
   9.000000E+99

> <Gold.Chemscore.Hbonds>
donor molecule, donor type, donor heavy atom, donor atom, acceptor molecule, acceptor atom, score
      P1  H  6896  6909       L1    12  0.98
      P1  H  6931  6943       L1    15  0.43
      P1  H  6934  6947       L1    15  0.61

> <Gold.Chemscore.Hbond.Weighted>
-7.5589

> <Gold.Chemscore.Metal.Weighted>
-0.0000

> <Gold.Chemscore.Lipo.Weighted>
-11.0616

> <Gold.Chemscore.Internal_Hbond.Weighted>
0.0000

> <Gold.Chemscore.DEClash.Weighted>
0.0015

> <Gold.Chemscore.DEInternal.Weighted>
2.0306

> <Gold.Chemscore.Rot.Weighted>
4.9620

> <Gold.Chemscore.Internal.Correction.Weighted>
   9.000000E+99

> <Gold.Protein.RotatedTorsions>
[ 6907 6896 6895 6894 ] final   73.86 input  -60.11 | X-H torsion
[ 7974 7965 7964 7962 ] final -172.82 input  175.53 | X-H torsion
[ 8008 7997 7996 7995 ] final  -31.36 input   59.86 | X-H torsion
[ 10167 10162 10161 10158 ] final  157.80 input  -65.29 | X-H torsion
[ 10718 10713 10712 10709 ] final  -10.85 input   66.30 | X-H torsion
[ 10763 10752 10751 10750 ] final   61.98 input  -60.55 | X-H torsion
[ 11005 11000 10999 10996 ] final   52.08 input  -57.11 | X-H torsion

> <Gold.Protein.ActiveResidues>
 VAL166  LYS551  ARG553  GLY616  TRP617  ASP618  TYR619  PRO620  LYS621  CYS622 
 ASP623  PHE694  ASN695  SER759  ASP760  ASP761  ALA762  ILE779  LEU786  VAL792 
 PHE793  MET794  SER795  GLU796  ALA797  LYS798  CYS799  TRP800  GLU811  SER814 

> <Gold.Protein.RotatedAtoms>
  152.4946  134.4358  159.9526 H   0  0  0  0  0  0  0  0  0  0  0  0  # atno 6907 bound_to 6896
  151.4339  133.3656  159.2780 H   0  0  0  0  0  0  0  0  0  0  0  0  # atno 6908 bound_to 6896
  150.9135  134.8575  159.7501 H   0  0  0  0  0  0  0  0  0  0  0  0  # atno 6909 bound_to 6896
  144.7143  140.1714  143.6367 H   0  0  0  0  0  0  0  0  0  0  0  0  # atno 7974 bound_to 7965
  154.4216  140.1766  156.1555 H   0  0  0  0  0  0  0  0  0  0  0  0  # atno 8008 bound_to 7997
  155.9880  140.3371  155.6702 H   0  0  0  0  0  0  0  0  0  0  0  0  # atno 8009 bound_to 7997
  155.6410  140.0680  157.2609 H   0  0  0  0  0  0  0  0  0  0  0  0  # atno 8010 bound_to 7997
  139.4824  144.4884  151.8344 H   0  0  0  0  0  0  0  0  0  0  0  0  # atno 10167 bound_to 10162
  156.6675  130.4999  149.6011 H   0  0  0  0  0  0  0  0  0  0  0  0  # atno 10718 bound_to 10713
  152.9968  135.5481  154.6121 H   0  0  0  0  0  0  0  0  0  0  0  0  # atno 10763 bound_to 10752
  154.5439  135.2822  155.1072 H   0  0  0  0  0  0  0  0  0  0  0  0  # atno 10764 bound_to 10752
  154.2339  135.6428  153.5237 H   0  0  0  0  0  0  0  0  0  0  0  0  # atno 10765 bound_to 10752
  140.0879  134.5250  155.8881 H   0  0  0  0  0  0  0  0  0  0  0  0  # atno 11005 bound_to 11000
  145.8940  139.2392  143.1533 LP  0  0  0  0  0  0  0  0  0  0  0  0  # atno 17320 bound_to 7965
  145.9876  140.8630  143.0083 LP  0  0  0  0  0  0  0  0  0  0  0  0  # atno 17321 bound_to 7965
  140.4366  144.2043  150.5889 LP  0  0  0  0  0  0  0  0  0  0  0  0  # atno 17342 bound_to 10162
  140.4726  143.2407  151.9068 LP  0  0  0  0  0  0  0  0  0  0  0  0  # atno 17343 bound_to 10162
  156.1964  130.6592  151.1118 LP  0  0  0  0  0  0  0  0  0  0  0  0  # atno 17370 bound_to 10713
  157.7088  131.0744  150.6572 LP  0  0  0  0  0  0  0  0  0  0  0  0  # atno 17371 bound_to 10713
  141.2068  133.6659  156.6267 LP  0  0  0  0  0  0  0  0  0  0  0  0  # atno 17394 bound_to 11000
  140.3394  134.7861  157.4386 LP  0  0  0  0  0  0  0  0  0  0  0  0  # atno 17395 bound_to 11000

$$$$
