AV-unprocessed.smi:246|AV-procd|sdf|1882|dock5
  -GOLD-   2262020533D 1   1.00000     0.00000
 Structure written by MMmdl.
 57 60  0  0  0  0  0  0  0  0  1 V2000
  144.8801  131.4953  150.9417 C   0  0  0  0  0  0  0  0  0  0  0  0
  145.5126  132.8803  151.1360 C   0  0  0  0  0  0  0  0  0  0  0  0
  145.8685  133.1071  152.4921 O   0  0  0  0  0  0  0  0  0  0  0  0
  147.0941  132.5060  152.8843 C   0  0  0  0  0  0  0  0  0  0  0  0
  148.2148  133.5395  152.7413 C   0  0  0  0  0  0  0  0  0  0  0  0
  149.0937  133.4092  153.8489 O   0  0  0  0  0  0  0  0  0  0  0  0
  148.6619  134.0881  155.0211 C   0  0  1  0  0  0  0  0  0  0  0  0
  149.5828  133.6886  156.1758 C   0  0  0  0  0  0  0  0  0  0  0  0
  150.7657  134.6540  156.0724 C   0  0  0  0  0  0  0  0  0  0  0  0
  150.2473  135.8249  155.3830 N   0  0  0  0  0  0  0  0  0  0  0  0
  150.7728  137.0662  155.5441 C   0  0  0  0  0  0  0  0  0  0  0  0
  151.1768  137.7483  154.4396 N   0  0  0  0  0  0  0  0  0  0  0  0
  151.6974  138.9734  154.5506 C   0  0  0  0  0  0  0  0  0  0  0  0
  151.9097  139.6923  155.6535 N   0  0  0  0  0  0  0  0  0  0  0  0
  151.5210  139.0109  156.7683 C   0  0  0  0  0  0  0  0  0  0  0  0
  150.9474  137.7071  156.8063 C   0  0  0  0  0  0  0  0  0  0  0  0
  150.6943  137.3488  158.1265 N   0  0  0  0  0  0  0  0  0  0  0  0
  151.0915  138.3771  158.8239 C   0  0  0  0  0  0  0  0  0  0  0  0
  151.6103  139.4166  158.0879 N   0  0  0  0  0  0  0  0  0  0  0  0
  152.1360  140.6680  158.6030 C   0  0  0  0  0  0  0  0  0  0  0  0
  151.2236  141.8807  158.3162 C   0  0  1  0  0  0  0  0  0  0  0  0
  149.9358  141.5513  158.7976 O   0  0  0  0  0  0  0  0  0  0  0  0
  151.6841  143.2058  158.9667 C   0  0  2  0  0  0  0  0  0  0  0  0
  151.6021  143.2168  160.4961 C   0  0  0  0  0  0  0  0  0  0  0  0
  151.4966  144.6940  160.7947 C   0  0  0  0  0  0  0  0  0  0  0  0
  150.5926  145.1690  159.6639 C   0  0  0  0  0  0  0  0  0  0  0  0
  150.8491  144.2942  158.5699 O   0  0  0  0  0  0  0  0  0  0  0  0
  148.8901  135.6020  154.9047 C   0  0  0  0  0  0  0  0  0  0  0  0
  147.6234  133.8400  155.2464 H   0  0  0  0  0  0  0  0  0  0  0  0
  144.5211  131.3761  149.9194 H   0  0  0  0  0  0  0  0  0  0  0  0
  144.0302  131.3575  151.6107 H   0  0  0  0  0  0  0  0  0  0  0  0
  145.5915  130.6925  151.1329 H   0  0  0  0  0  0  0  0  0  0  0  0
  146.3703  133.0190  150.4760 H   0  0  0  0  0  0  0  0  0  0  0  0
  144.7821  133.6406  150.8585 H   0  0  0  0  0  0  0  0  0  0  0  0
  147.0556  132.1336  153.9082 H   0  0  0  0  0  0  0  0  0  0  0  0
  147.2980  131.6547  152.2333 H   0  0  0  0  0  0  0  0  0  0  0  0
  148.7588  133.3599  151.8142 H   0  0  0  0  0  0  0  0  0  0  0  0
  147.7956  134.5454  152.6858 H   0  0  0  0  0  0  0  0  0  0  0  0
  149.0659  133.8571  157.1213 H   0  0  0  0  0  0  0  0  0  0  0  0
  149.8833  132.6409  156.1452 H   0  0  0  0  0  0  0  0  0  0  0  0
  151.1595  134.8947  157.0603 H   0  0  0  0  0  0  0  0  0  0  0  0
  151.5681  134.2202  155.4750 H   0  0  0  0  0  0  0  0  0  0  0  0
  151.9870  139.4444  153.6228 H   0  0  0  0  0  0  0  0  0  0  0  0
  151.0268  138.3997  159.9021 H   0  0  0  0  0  0  0  0  0  0  0  0
  152.2850  140.5542  159.6776 H   0  0  0  0  0  0  0  0  0  0  0  0
  153.1231  140.8302  158.1675 H   0  0  0  0  0  0  0  0  0  0  0  0
  151.1400  142.0247  157.2385 H   0  0  0  0  0  0  0  0  0  0  0  0
  149.2963  141.8517  158.1700 H   0  0  0  0  0  0  0  0  0  0  0  0
  152.7059  143.4403  158.6632 H   0  0  0  0  0  0  0  0  0  0  0  0
  150.7013  142.7042  160.8380 H   0  0  0  0  0  0  0  0  0  0  0  0
  152.4641  142.7480  160.9720 H   0  0  0  0  0  0  0  0  0  0  0  0
  151.0913  144.9068  161.7842 H   0  0  0  0  0  0  0  0  0  0  0  0
  152.4782  145.1635  160.7164 H   0  0  0  0  0  0  0  0  0  0  0  0
  149.5435  145.0701  159.9455 H   0  0  0  0  0  0  0  0  0  0  0  0
  150.7747  146.2093  159.3940 H   0  0  0  0  0  0  0  0  0  0  0  0
  148.7572  135.9754  153.8896 H   0  0  0  0  0  0  0  0  0  0  0  0
  148.1937  136.1335  155.5547 H   0  0  0  0  0  0  0  0  0  0  0  0
  1  2  1  0  0  0  0
  1 30  1  0  0  0  0
  1 31  1  0  0  0  0
  1 32  1  0  0  0  0
  2  3  1  0  0  0  0
  2 33  1  0  0  0  0
  2 34  1  0  0  0  0
  3  4  1  0  0  0  0
  4  5  1  0  0  0  0
  4 35  1  0  0  0  0
  4 36  1  0  0  0  0
  5  6  1  0  0  0  0
  5 37  1  0  0  0  0
  5 38  1  0  0  0  0
  6  7  1  0  0  0  0
  7 29  1  0  0  0  0
  7 28  1  0  0  0  0
  7  8  1  0  0  0  0
  8  9  1  0  0  0  0
  8 39  1  0  0  0  0
  8 40  1  0  0  0  0
  9 10  1  0  0  0  0
  9 41  1  0  0  0  0
  9 42  1  0  0  0  0
 10 11  1  0  0  0  0
 10 28  1  0  0  0  0
 11 16  1  0  0  0  0
 11 12  2  0  0  0  0
 12 13  1  0  0  0  0
 13 14  2  0  0  0  0
 13 43  1  0  0  0  0
 14 15  1  0  0  0  0
 15 19  1  0  0  0  0
 15 16  2  0  0  0  0
 16 17  1  0  0  0  0
 17 18  2  0  0  0  0
 18 19  1  0  0  0  0
 18 44  1  0  0  0  0
 19 20  1  0  0  0  0
 20 21  1  0  0  0  0
 20 45  1  0  0  0  0
 20 46  1  0  0  0  0
 21 22  1  0  0  0  0
 21 23  1  0  0  0  0
 21 47  1  0  0  0  0
 22 48  1  0  0  0  0
 23 27  1  0  0  0  0
 23 24  1  0  0  0  0
 23 49  1  0  0  0  0
 24 25  1  0  0  0  0
 24 50  1  0  0  0  0
 24 51  1  0  0  0  0
 25 26  1  0  0  0  0
 25 52  1  0  0  0  0
 25 53  1  0  0  0  0
 26 27  1  0  0  0  0
 26 54  1  0  0  0  0
 26 55  1  0  0  0  0
 28 56  1  0  0  0  0
 28 57  1  0  0  0  0
M  END
> <s_m_source_file>
AV-unprocessed.smi

> <i_m_source_file_index>
246

> <i_lp_mmshare_version>
43012

> <i_f3d_flags>
0

> <s_epik_input>
W0NIM11bQ0gyXU9bQ0gyXVtDSDJdT1tDQEhdMVtDSDJdW0NIMl1OKFtDSDJdMSljKG5bY0hdbjIpYyhjMjMpbltjSF1uM1tDSDJdW0NASF0oW09IXSlbQ0BASF00W0NIMl1bQ0gyXVtDSDJdTzQ=

> <s_epik_cmdline>
J2VwaWtfcHl0aG9uJywgJy1waCcsICc3LjAnLCAnLXRuJywgJzgnLCAnLW1hJywgJzIwMCcsICctbWV0YWxfYmluZGluZycsICctaW1hZScsICc8aW5maWxlLm1hZT4nLCAnLW9tYWUnLCAnPG91dGZpbGUubWFlPic=

> <r_lp_tautomer_probability>
1

> <r_epik_Ionization_Penalty>
0.0024631

> <r_epik_Ionization_Penalty_Charging>
0

> <r_epik_Ionization_Penalty_Neutral>
0.0024631

> <r_epik_State_Penalty>
0.00162428

> <r_epik_Charging_Adjusted_Penalty>
0.00162428

> <i_epik_Tot_Q>
0

> <i_epik_Tot_abs_Q>
0

> <r_epik_Metal_State_Penalty>
-0

> <b_epik_Metal_Only>
0

> <s_lp_Force_Field>
OPLS_2005

> <r_lp_Energy>
52.0053

> <b_lp_Chiralities_Consistent>
1

> <s_lp_Variant>
AV-unprocessed.smi:246-3

> <Gold.Version>
5.8.1

> <Gold.Id.Protein>
6NUR|6NUR_protein|mol2

> <Gold.PLP.Fitness>
51.2798

> <Gold.PLP.PLP>
-49.7726

> <Gold.PLP.part.hbond>
-2.0000

> <Gold.PLP.part.metal>
0.0000

> <Gold.PLP.part.buried>
-8.8770

> <Gold.PLP.part.nonpolar>
-39.4357

> <Gold.PLP.part.repulsive>
0.4690

> <Gold.PLP.ligand.clash>
0.0000

> <Gold.PLP.ligand.torsion>
2.1921

> <Gold.PLP.Chemscore.Hbond>
1.8000

> <Gold.PLP.Chemscore.CHOScore>
0.0000

> <Gold.PLP.Chemscore.Metal>
0.0000

> <Gold.PLP.Chemscore.Internal.Correction>
0.4916

> <Gold.Rescore>
     Score         DG    S(hbond)    S(metal)    S(lipo)     H(rot)  DE(clash)    DE(int)     intcor
     13.12     -15.67       1.47        0.00     113.00       3.10       0.07       2.47       ----

> <Gold.Chemscore.Fitness>
13.1204

> <Gold.Chemscore.DG>
-15.6663

> <Gold.Chemscore.ZeroCoef>
-5.4800

> <Gold.Chemscore.Hbond>
1.4696

> <Gold.Chemscore.Metal>
0.0000

> <Gold.Chemscore.Lipo>
112.9964

> <Gold.Chemscore.Internal_Hbond>
0.0000

> <Gold.Chemscore.DEClash>
0.0726

> <Gold.Chemscore.DEInternal>
2.4733

> <Gold.Chemscore.Rot>
3.1026

> <Gold.Chemscore.Internal.Correction>
   9.000000E+99

> <Gold.Chemscore.Hbond.Weighted>
-4.9084

> <Gold.Chemscore.Metal.Weighted>
-0.0000

> <Gold.Chemscore.Lipo.Weighted>
-13.2206

> <Gold.Chemscore.Internal_Hbond.Weighted>
0.0000

> <Gold.Chemscore.DEClash.Weighted>
0.0726

> <Gold.Chemscore.DEInternal.Weighted>
2.4733

> <Gold.Chemscore.Rot.Weighted>
7.9426

> <Gold.Chemscore.Internal.Correction.Weighted>
   9.000000E+99

> <Gold.Protein.RotatedTorsions>
[ 6907 6896 6895 6894 ] final  142.51 input  -60.11 | X-H torsion
[ 7974 7965 7964 7962 ] final   70.54 input  175.53 | X-H torsion
[ 8008 7997 7996 7995 ] final   83.09 input   59.86 | X-H torsion
[ 10167 10162 10161 10158 ] final -149.43 input  -65.29 | X-H torsion
[ 10718 10713 10712 10709 ] final -159.34 input   66.30 | X-H torsion
[ 10763 10752 10751 10750 ] final  146.15 input  -60.55 | X-H torsion
[ 11005 11000 10999 10996 ] final   43.87 input  -57.11 | X-H torsion

> <Gold.Protein.ActiveResidues>
 VAL166  LYS551  ARG553  GLY616  TRP617  ASP618  TYR619  PRO620  LYS621  CYS622 
 ASP623  PHE694  ASN695  SER759  ASP760  ASP761  ALA762  ILE779  LEU786  VAL792 
 PHE793  MET794  SER795  GLU796  ALA797  LYS798  CYS799  TRP800  GLU811  SER814 

> <Gold.Protein.RotatedAtoms>
  152.2178  133.4960  159.5145 H   0  0  0  0  0  0  0  0  0  0  0  0  # atno 6907 bound_to 6896
  150.7005  134.1382  159.4104 H   0  0  0  0  0  0  0  0  0  0  0  0  # atno 6908 bound_to 6896
  151.9302  135.0259  160.0579 H   0  0  0  0  0  0  0  0  0  0  0  0  # atno 6909 bound_to 6896
  145.7769  139.2869  143.1288 H   0  0  0  0  0  0  0  0  0  0  0  0  # atno 7974 bound_to 7965
  155.9194  140.3422  155.6160 H   0  0  0  0  0  0  0  0  0  0  0  0  # atno 8008 bound_to 7997
  155.7292  140.0793  157.2315 H   0  0  0  0  0  0  0  0  0  0  0  0  # atno 8009 bound_to 7997
  154.4067  140.1591  156.2477 H   0  0  0  0  0  0  0  0  0  0  0  0  # atno 8010 bound_to 7997
  139.7443  143.8614  152.2570 H   0  0  0  0  0  0  0  0  0  0  0  0  # atno 10167 bound_to 10162
  156.5667  130.8671  151.2826 H   0  0  0  0  0  0  0  0  0  0  0  0  # atno 10718 bound_to 10713
  154.0171  135.2909  155.3385 H   0  0  0  0  0  0  0  0  0  0  0  0  # atno 10763 bound_to 10752
  154.7068  135.5166  153.8610 H   0  0  0  0  0  0  0  0  0  0  0  0  # atno 10764 bound_to 10752
  153.0697  135.6643  154.0397 H   0  0  0  0  0  0  0  0  0  0  0  0  # atno 10765 bound_to 10752
  140.1604  134.4348  155.8321 H   0  0  0  0  0  0  0  0  0  0  0  0  # atno 11005 bound_to 11000
  146.0113  140.8433  142.9969 LP  0  0  0  0  0  0  0  0  0  0  0  0  # atno 17320 bound_to 7965
  144.6803  140.2494  143.7333 LP  0  0  0  0  0  0  0  0  0  0  0  0  # atno 17321 bound_to 7965
  139.8574  144.7134  150.9141 LP  0  0  0  0  0  0  0  0  0  0  0  0  # atno 17342 bound_to 10162
  140.7790  143.3847  151.1415 LP  0  0  0  0  0  0  0  0  0  0  0  0  # atno 17343 bound_to 10162
  157.7357  130.9766  150.2096 LP  0  0  0  0  0  0  0  0  0  0  0  0  # atno 17370 bound_to 10713
  156.2751  130.3726  149.7992 LP  0  0  0  0  0  0  0  0  0  0  0  0  # atno 17371 bound_to 10713
  141.2209  133.6911  156.7583 LP  0  0  0  0  0  0  0  0  0  0  0  0  # atno 17394 bound_to 11000
  140.2497  134.8550  157.3655 LP  0  0  0  0  0  0  0  0  0  0  0  0  # atno 17395 bound_to 11000

$$$$
