AV-unprocessed.smi:1027|AV-procd|sdf|4469|dock7
  -GOLD-   22720 2443D 1   1.00000     0.00000
 Structure written by MMmdl.
 35 36  0  0  0  0  0  0  0  0  1 V2000
  148.2400  132.6245  153.0381 C   0  0  0  0  0  0  0  0  0  0  0  0
  149.7273  132.3837  153.3541 C   0  0  0  0  0  0  0  0  0  0  0  0
  149.9421  130.8948  153.6896 C   0  0  0  0  0  0  0  0  0  0  0  0
  150.2531  133.3263  154.4707 C   0  0  2  0  0  0  0  0  0  0  0  0
  149.6054  133.0674  155.8420 C   0  0  0  0  0  0  0  0  0  0  0  0
  150.0155  134.7277  154.1212 N   0  0  0  0  0  0  0  0  0  0  0  0
  150.3777  135.7959  154.8479 C   0  0  0  0  0  0  0  0  0  0  0  0
  150.9869  135.7211  155.9153 O   0  0  0  0  0  0  0  0  0  0  0  0
  149.9886  136.9382  154.2549 N   0  0  0  0  0  0  0  0  0  0  0  0
  150.1794  138.2717  154.7035 C   0  0  0  0  0  0  0  0  0  0  0  0
  149.5754  139.3353  154.1559 N   0  0  0  0  0  0  0  0  0  0  0  0
  149.9411  140.5180  154.7830 N   0  0  0  0  0  0  0  0  0  0  0  0
  150.8084  140.3162  155.7822 C   0  0  0  0  0  0  0  0  0  0  0  0
  151.3541  141.4380  156.6010 C   0  0  0  0  0  0  0  0  0  0  0  0
  151.1853  141.4515  158.1030 C   0  0  0  0  0  0  0  0  0  0  0  0
  150.4445  142.4544  157.2563 C   0  0  0  0  0  0  0  0  0  0  0  0
  151.2468  138.6320  156.0492 S   0  0  0  0  0  0  0  0  0  0  0  0
  147.6212  132.5000  153.9271 H   0  0  0  0  0  0  0  0  0  0  0  0
  147.8804  131.9235  152.2844 H   0  0  0  0  0  0  0  0  0  0  0  0
  148.0653  133.6250  152.6436 H   0  0  0  0  0  0  0  0  0  0  0  0
  150.2908  132.5917  152.4433 H   0  0  0  0  0  0  0  0  0  0  0  0
  149.4511  130.6266  154.6257 H   0  0  0  0  0  0  0  0  0  0  0  0
  150.9992  130.6473  153.7848 H   0  0  0  0  0  0  0  0  0  0  0  0
  149.5374  130.2528  152.9068 H   0  0  0  0  0  0  0  0  0  0  0  0
  151.3250  133.1530  154.5826 H   0  0  0  0  0  0  0  0  0  0  0  0
  149.8581  132.0808  156.2293 H   0  0  0  0  0  0  0  0  0  0  0  0
  148.5186  133.1399  155.7891 H   0  0  0  0  0  0  0  0  0  0  0  0
  149.9503  133.7925  156.5802 H   0  0  0  0  0  0  0  0  0  0  0  0
  149.5232  134.8945  153.2560 H   0  0  0  0  0  0  0  0  0  0  0  0
  149.4850  136.8424  153.3854 H   0  0  0  0  0  0  0  0  0  0  0  0
  152.2987  141.7898  156.1910 H   0  0  0  0  0  0  0  0  0  0  0  0
  150.6049  140.6490  158.5540 H   0  0  0  0  0  0  0  0  0  0  0  0
  152.0215  141.8135  158.6977 H   0  0  0  0  0  0  0  0  0  0  0  0
  150.7862  143.4869  157.2858 H   0  0  0  0  0  0  0  0  0  0  0  0
  149.3687  142.3231  157.1584 H   0  0  0  0  0  0  0  0  0  0  0  0
  1  2  1  0  0  0  0
  1 18  1  0  0  0  0
  1 19  1  0  0  0  0
  1 20  1  0  0  0  0
  2  3  1  0  0  0  0
  2  4  1  0  0  0  0
  2 21  1  0  0  0  0
  3 22  1  0  0  0  0
  3 23  1  0  0  0  0
  3 24  1  0  0  0  0
  4  5  1  0  0  0  0
  4  6  1  0  0  0  0
  4 25  1  0  0  0  0
  5 26  1  0  0  0  0
  5 27  1  0  0  0  0
  5 28  1  0  0  0  0
  6  7  1  0  0  0  0
  6 29  1  0  0  0  0
  7  8  2  0  0  0  0
  7  9  1  0  0  0  0
  9 10  1  0  0  0  0
  9 30  1  0  0  0  0
 10 17  1  0  0  0  0
 10 11  2  0  0  0  0
 11 12  1  0  0  0  0
 12 13  2  0  0  0  0
 13 14  1  0  0  0  0
 13 17  1  0  0  0  0
 14 16  1  0  0  0  0
 14 15  1  0  0  0  0
 14 31  1  0  0  0  0
 15 16  1  0  0  0  0
 15 32  1  0  0  0  0
 15 33  1  0  0  0  0
 16 34  1  0  0  0  0
 16 35  1  0  0  0  0
M  END
> <s_m_source_file>
AV-unprocessed.smi

> <i_m_source_file_index>
1027

> <i_lp_mmshare_version>
43012

> <i_f3d_flags>
0

> <s_epik_input>
W0NIM11bQ0hdKFtDSDNdKVtDQEhdKFtDSDNdKVtOSF1DKD1PKVtOSF1jMW5uYyhzMSlbQ0hdMltDSDJdW0NIMl0y

> <s_epik_cmdline>
J2VwaWtfcHl0aG9uJywgJy1waCcsICc3LjAnLCAnLXRuJywgJzgnLCAnLW1hJywgJzIwMCcsICctbWV0YWxfYmluZGluZycsICctaW1hZScsICc8aW5maWxlLm1hZT4nLCAnLW9tYWUnLCAnPG91dGZpbGUubWFlPic=

> <r_lp_tautomer_probability>
1

> <r_epik_Ionization_Penalty>
0.000943246

> <r_epik_Ionization_Penalty_Charging>
0

> <r_epik_Ionization_Penalty_Neutral>
0.000943246

> <r_epik_State_Penalty>
-0

> <r_epik_Charging_Adjusted_Penalty>
0

> <i_epik_Tot_Q>
0

> <i_epik_Tot_abs_Q>
0

> <r_epik_Metal_State_Penalty>
0.281646

> <b_epik_Metal_Only>
0

> <s_lp_Force_Field>
OPLS_2005

> <r_lp_Energy>
3.85842

> <b_lp_Chiralities_Consistent>
1

> <s_lp_Variant>
AV-unprocessed.smi:1027-1

> <Gold.Version>
5.8.1

> <Gold.Id.Protein>
6NUR|6NUR_protein|mol2

> <Gold.PLP.Fitness>
34.9628

> <Gold.PLP.PLP>
-27.0807

> <Gold.PLP.part.hbond>
-3.2965

> <Gold.PLP.part.metal>
0.0000

> <Gold.PLP.part.buried>
-5.2261

> <Gold.PLP.part.nonpolar>
-20.1537

> <Gold.PLP.part.repulsive>
0.9484

> <Gold.PLP.ligand.clash>
0.0000

> <Gold.PLP.ligand.torsion>
0.1217

> <Gold.PLP.Chemscore.Hbond>
2.6580

> <Gold.PLP.Chemscore.CHOScore>
0.0000

> <Gold.PLP.Chemscore.Metal>
0.0000

> <Gold.Chemscore.Hbonds>
donor molecule, donor type, donor heavy atom, donor atom, acceptor molecule, acceptor atom, score
      L1  H     6    29       P1  7948  0.29
      L1  H     9    30       P1  7948  1.00
      P1  H  7989  7998       L1    12  0.19
      P1  H 10752 10763       L1     8  0.11

> <Gold.PLP.Chemscore.Internal.Correction>
0.1514

> <Gold.Rescore>
     Score         DG    S(hbond)    S(metal)    S(lipo)     H(rot)  DE(clash)    DE(int)     intcor
     11.28     -13.80       1.67        0.00      53.69       1.39       0.03       2.49       ----

> <Gold.Chemscore.Fitness>
11.2776

> <Gold.Chemscore.DG>
-13.7956

> <Gold.Chemscore.ZeroCoef>
-5.4800

> <Gold.Chemscore.Hbond>
1.6734

> <Gold.Chemscore.Metal>
0.0000

> <Gold.Chemscore.Lipo>
53.6949

> <Gold.Chemscore.Internal_Hbond>
0.0000

> <Gold.Chemscore.DEClash>
0.0318

> <Gold.Chemscore.DEInternal>
2.4862

> <Gold.Chemscore.Rot>
1.3890

> <Gold.Chemscore.Internal.Correction>
   9.000000E+99

> <Gold.Chemscore.Hbonds>
donor molecule, donor type, donor heavy atom, donor atom, acceptor molecule, acceptor atom, score
      L1  H     9    30       P1  7948  0.82

> <Gold.Chemscore.Hbond.Weighted>
-5.5891

> <Gold.Chemscore.Metal.Weighted>
-0.0000

> <Gold.Chemscore.Lipo.Weighted>
-6.2823

> <Gold.Chemscore.Internal_Hbond.Weighted>
0.0000

> <Gold.Chemscore.DEClash.Weighted>
0.0318

> <Gold.Chemscore.DEInternal.Weighted>
2.4862

> <Gold.Chemscore.Rot.Weighted>
3.5559

> <Gold.Chemscore.Internal.Correction.Weighted>
   9.000000E+99

> <Gold.Protein.RotatedTorsions>
[ 6907 6896 6895 6894 ] final  -75.40 input  -60.11 | X-H torsion
[ 7974 7965 7964 7962 ] final   18.27 input  175.53 | X-H torsion
[ 8008 7997 7996 7995 ] final  -55.75 input   59.86 | X-H torsion
[ 10167 10162 10161 10158 ] final   74.51 input  -65.29 | X-H torsion
[ 10718 10713 10712 10709 ] final  -24.37 input   66.30 | X-H torsion
[ 10763 10752 10751 10750 ] final   64.95 input  -60.55 | X-H torsion
[ 11005 11000 10999 10996 ] final  155.97 input  -57.11 | X-H torsion

> <Gold.Protein.ActiveResidues>
 VAL166  LYS551  ARG553  GLY616  TRP617  ASP618  TYR619  PRO620  LYS621  CYS622 
 ASP623  PHE694  ASN695  SER759  ASP760  ASP761  ALA762  ILE779  LEU786  VAL792 
 PHE793  MET794  SER795  GLU796  ALA797  LYS798  CYS799  TRP800  GLU811  SER814 

> <Gold.Protein.RotatedAtoms>
  150.7060  134.4727  159.5432 H   0  0  0  0  0  0  0  0  0  0  0  0  # atno 6907 bound_to 6896
  152.2380  134.8254  160.0473 H   0  0  0  0  0  0  0  0  0  0  0  0  # atno 6908 bound_to 6896
  151.9046  133.3511  159.3879 H   0  0  0  0  0  0  0  0  0  0  0  0  # atno 6909 bound_to 6896
  146.2190  139.8481  142.8628 H   0  0  0  0  0  0  0  0  0  0  0  0  # atno 7974 bound_to 7965
  154.4206  140.1145  156.5527 H   0  0  0  0  0  0  0  0  0  0  0  0  # atno 8008 bound_to 7997
  155.6393  140.3496  155.4690 H   0  0  0  0  0  0  0  0  0  0  0  0  # atno 8009 bound_to 7997
  155.9884  140.1174  157.0651 H   0  0  0  0  0  0  0  0  0  0  0  0  # atno 8010 bound_to 7997
  140.0130  144.5600  150.7643 H   0  0  0  0  0  0  0  0  0  0  0  0  # atno 10167 bound_to 10162
  156.4785  130.4540  149.6826 H   0  0  0  0  0  0  0  0  0  0  0  0  # atno 10718 bound_to 10713
  153.0076  135.5374  154.6591 H   0  0  0  0  0  0  0  0  0  0  0  0  # atno 10763 bound_to 10752
  154.5804  135.2849  155.0740 H   0  0  0  0  0  0  0  0  0  0  0  0  # atno 10764 bound_to 10752
  154.1872  135.6506  153.5102 H   0  0  0  0  0  0  0  0  0  0  0  0  # atno 10765 bound_to 10752
  140.1631  134.8596  157.2599 H   0  0  0  0  0  0  0  0  0  0  0  0  # atno 11005 bound_to 11000
  145.2830  141.0144  143.3707 LP  0  0  0  0  0  0  0  0  0  0  0  0  # atno 17320 bound_to 7965
  144.9136  139.4498  143.6575 LP  0  0  0  0  0  0  0  0  0  0  0  0  # atno 17321 bound_to 7965
  140.7374  143.2765  151.3727 LP  0  0  0  0  0  0  0  0  0  0  0  0  # atno 17342 bound_to 10162
  139.6192  144.0941  152.2375 LP  0  0  0  0  0  0  0  0  0  0  0  0  # atno 17343 bound_to 10162
  156.3546  130.7450  151.2414 LP  0  0  0  0  0  0  0  0  0  0  0  0  # atno 17370 bound_to 10713
  157.7485  131.0367  150.4424 LP  0  0  0  0  0  0  0  0  0  0  0  0  # atno 17371 bound_to 10713
  140.2466  134.3732  155.7459 LP  0  0  0  0  0  0  0  0  0  0  0  0  # atno 17394 bound_to 11000
  141.2211  133.7294  156.8871 LP  0  0  0  0  0  0  0  0  0  0  0  0  # atno 17395 bound_to 11000

$$$$
