AV-unprocessed.smi:196|AV-procd|sdf|1535|dock10
  -GOLD-   2262019393D 1   1.00000     0.00000
 Structure written by MMmdl.
 47 50  0  0  0  0  0  0  0  0  1 V2000
  150.9532  141.7652  156.7482 C   0  0  0  0  0  0  0  0  0  0  0  0
  151.4155  140.7224  155.7200 C   0  0  1  0  0  0  0  0  0  0  0  0
  152.2949  139.7751  156.3208 O   0  0  0  0  0  0  0  0  0  0  0  0
  152.1193  138.4928  155.7244 C   0  0  0  0  0  0  0  0  0  0  0  0
  151.1553  138.7068  154.5609 C   0  0  0  0  0  0  0  0  0  0  0  0
  150.3161  139.8862  155.0372 C   0  0  2  0  0  0  0  0  0  0  0  0
  149.8030  140.5701  153.9090 O   0  0  0  0  0  0  0  0  0  0  0  0
  149.1466  139.4900  155.9791 C   0  0  0  0  0  0  0  0  0  0  0  0
  148.3838  138.3395  155.5210 N   0  0  0  0  0  0  0  0  0  0  0  0
  148.2806  137.1153  156.1426 C   0  0  0  0  0  0  0  0  0  0  0  0
  147.5320  136.2403  155.5282 N   0  0  0  0  0  0  0  0  0  0  0  0
  147.0916  136.9094  154.3933 C   0  0  0  0  0  0  0  0  0  0  0  0
  146.2551  136.5589  153.3001 C   0  0  0  0  0  0  0  0  0  0  0  0
  145.6525  135.3482  153.2095 N   0  0  0  0  0  0  0  0  0  0  0  0
  146.1451  134.4581  152.1601 C   0  0  0  0  0  0  0  0  0  0  0  0
  145.0316  134.3975  151.1226 C   0  0  1  0  0  0  0  0  0  0  0  0
  145.0806  133.2934  150.3779 F   0  0  0  0  0  0  0  0  0  0  0  0
  143.7857  134.4632  151.9935 C   0  0  0  0  0  0  0  0  0  0  0  0
  144.1836  135.4244  153.1309 C   0  0  1  0  0  0  0  0  0  0  0  0
  143.4642  135.0685  154.4443 C   0  0  0  0  0  0  0  0  0  0  0  0
  142.1416  134.8754  154.4237 N   0  0  0  0  0  0  0  0  0  0  0  0
  144.1128  134.9637  155.4826 O   0  0  0  0  0  0  0  0  0  0  0  0
  146.0372  137.4999  152.3427 N   0  0  0  0  0  0  0  0  0  0  0  0
  146.6093  138.7034  152.4436 C   0  0  0  0  0  0  0  0  0  0  0  0
  147.4120  139.1677  153.4033 N   0  0  0  0  0  0  0  0  0  0  0  0
  147.6259  138.2278  154.3685 C   0  0  0  0  0  0  0  0  0  0  0  0
  145.0792  135.2577  150.4536 H   0  0  0  0  0  0  0  0  0  0  0  0
  143.8761  136.4343  152.8492 H   0  0  0  0  0  0  0  0  0  0  0  0
  150.2566  142.4740  156.3002 H   0  0  0  0  0  0  0  0  0  0  0  0
  151.8030  142.3319  157.1291 H   0  0  0  0  0  0  0  0  0  0  0  0
  150.4622  141.3014  157.6036 H   0  0  0  0  0  0  0  0  0  0  0  0
  151.9992  141.2317  154.9504 H   0  0  0  0  0  0  0  0  0  0  0  0
  153.0711  138.0716  155.3999 H   0  0  0  0  0  0  0  0  0  0  0  0
  151.6868  137.8189  156.4647 H   0  0  0  0  0  0  0  0  0  0  0  0
  151.7309  138.9874  153.6767 H   0  0  0  0  0  0  0  0  0  0  0  0
  150.5878  137.8135  154.3028 H   0  0  0  0  0  0  0  0  0  0  0  0
  149.6543  139.9408  153.2202 H   0  0  0  0  0  0  0  0  0  0  0  0
  149.5233  139.2697  156.9786 H   0  0  0  0  0  0  0  0  0  0  0  0
  148.4531  140.3239  156.0950 H   0  0  0  0  0  0  0  0  0  0  0  0
  148.7799  136.8917  157.0744 H   0  0  0  0  0  0  0  0  0  0  0  0
  147.0967  134.7648  151.7225 H   0  0  0  0  0  0  0  0  0  0  0  0
  146.3018  133.4749  152.6056 H   0  0  0  0  0  0  0  0  0  0  0  0
  142.9102  134.8063  151.4412 H   0  0  0  0  0  0  0  0  0  0  0  0
  143.5626  133.4677  152.3832 H   0  0  0  0  0  0  0  0  0  0  0  0
  141.6535  134.6476  155.2780 H   0  0  0  0  0  0  0  0  0  0  0  0
  141.6347  134.9644  153.5551 H   0  0  0  0  0  0  0  0  0  0  0  0
  146.3894  139.3940  151.6428 H   0  0  0  0  0  0  0  0  0  0  0  0
  1  2  1  0  0  0  0
  1 29  1  0  0  0  0
  1 30  1  0  0  0  0
  1 31  1  0  0  0  0
  2  6  1  0  0  0  0
  2  3  1  0  0  0  0
  2 32  1  0  0  0  0
  3  4  1  0  0  0  0
  4  5  1  0  0  0  0
  4 33  1  0  0  0  0
  4 34  1  0  0  0  0
  5  6  1  0  0  0  0
  5 35  1  0  0  0  0
  5 36  1  0  0  0  0
  6  7  1  0  0  0  0
  6  8  1  0  0  0  0
  7 37  1  0  0  0  0
  8  9  1  0  0  0  0
  8 38  1  0  0  0  0
  8 39  1  0  0  0  0
  9 26  1  0  0  0  0
  9 10  1  0  0  0  0
 10 11  2  0  0  0  0
 10 40  1  0  0  0  0
 11 12  1  0  0  0  0
 12 26  2  0  0  0  0
 12 13  1  0  0  0  0
 13 14  1  0  0  0  0
 13 23  2  0  0  0  0
 14 19  1  0  0  0  0
 14 15  1  0  0  0  0
 15 16  1  0  0  0  0
 15 41  1  0  0  0  0
 15 42  1  0  0  0  0
 16 27  1  0  0  0  0
 16 17  1  0  0  0  0
 16 18  1  0  0  0  0
 18 19  1  0  0  0  0
 18 43  1  0  0  0  0
 18 44  1  0  0  0  0
 19 28  1  0  0  0  0
 19 20  1  0  0  0  0
 20 21  1  0  0  0  0
 20 22  2  0  0  0  0
 21 45  1  0  0  0  0
 21 46  1  0  0  0  0
 23 24  1  0  0  0  0
 24 25  2  0  0  0  0
 24 47  1  0  0  0  0
 25 26  1  0  0  0  0
M  END
> <s_m_source_file>
AV-unprocessed.smi

> <i_m_source_file_index>
196

> <i_lp_mmshare_version>
43012

> <i_f3d_flags>
0

> <s_epik_input>
W0NIMl0xW0NIMl1PW0NAQEhdKFtDSDNdKVtDQEBdMShbT0hdKVtDSDJdbihbY0hdbjIpYyhjMjMpbltjSF1uYzNONFtDSDJdW0NASF0oRilbQ0gyXVtDQEhdNEMoPU8pW05IMl0=

> <s_epik_cmdline>
J2VwaWtfcHl0aG9uJywgJy1waCcsICc3LjAnLCAnLXRuJywgJzgnLCAnLW1hJywgJzIwMCcsICctbWV0YWxfYmluZGluZycsICctaW1hZScsICc8aW5maWxlLm1hZT4nLCAnLW9tYWUnLCAnPG91dGZpbGUubWFlPic=

> <r_lp_tautomer_probability>
1

> <r_epik_Ionization_Penalty>
0.000857933

> <r_epik_Ionization_Penalty_Charging>
0

> <r_epik_Ionization_Penalty_Neutral>
0.000857933

> <r_epik_State_Penalty>
0.000462053

> <r_epik_Charging_Adjusted_Penalty>
0.000462053

> <i_epik_Tot_Q>
0

> <i_epik_Tot_abs_Q>
0

> <r_epik_Metal_State_Penalty>
-0

> <b_epik_Metal_Only>
0

> <s_lp_Force_Field>
OPLS_2005

> <r_lp_Energy>
46.5275

> <b_lp_Chiralities_Consistent>
1

> <s_lp_Variant>
AV-unprocessed.smi:196-8

> <Gold.Version>
5.8.1

> <Gold.Id.Protein>
6NUR|6NUR_protein|mol2

> <Gold.PLP.Fitness>
40.6377

> <Gold.PLP.PLP>
-32.9845

> <Gold.PLP.part.hbond>
-4.6790

> <Gold.PLP.part.metal>
0.0000

> <Gold.PLP.part.buried>
-2.7861

> <Gold.PLP.part.nonpolar>
-24.2138

> <Gold.PLP.part.repulsive>
0.7266

> <Gold.PLP.ligand.clash>
0.0000

> <Gold.PLP.ligand.torsion>
0.5743

> <Gold.PLP.Chemscore.Hbond>
2.9042

> <Gold.PLP.Chemscore.CHOScore>
0.0000

> <Gold.PLP.Chemscore.Metal>
0.0000

> <Gold.Chemscore.Hbonds>
donor molecule, donor type, donor heavy atom, donor atom, acceptor molecule, acceptor atom, score
      L1  H     7    37       P1  7957  0.64
      L1  H    21    45       P1 11000  1.00
      P1  H  7989  7998       L1     7  0.14
      P1  H  7997  8009       L1     3  0.91
      P1  H  8011  8017       L1     7  0.01

> <Gold.PLP.Chemscore.Internal.Correction>
0.0893

> <Gold.Rescore>
     Score         DG    S(hbond)    S(metal)    S(lipo)     H(rot)  DE(clash)    DE(int)     intcor
      9.65     -11.95       2.25        0.00      57.68       3.04       0.20       2.10       ----

> <Gold.Chemscore.Fitness>
9.6522

> <Gold.Chemscore.DG>
-11.9517

> <Gold.Chemscore.ZeroCoef>
-5.4800

> <Gold.Chemscore.Hbond>
2.2482

> <Gold.Chemscore.Metal>
0.0000

> <Gold.Chemscore.Lipo>
57.6776

> <Gold.Chemscore.Internal_Hbond>
0.0000

> <Gold.Chemscore.DEClash>
0.2035

> <Gold.Chemscore.DEInternal>
2.0961

> <Gold.Chemscore.Rot>
3.0413

> <Gold.Chemscore.Internal.Correction>
   9.000000E+99

> <Gold.Chemscore.Hbonds>
donor molecule, donor type, donor heavy atom, donor atom, acceptor molecule, acceptor atom, score
      L1  H     7    37       P1  7957  0.60
      L1  H    21    45       P1 11000  0.34
      P1  H  7997  8009       L1     3  0.51

> <Gold.Chemscore.Hbond.Weighted>
-7.5091

> <Gold.Chemscore.Metal.Weighted>
-0.0000

> <Gold.Chemscore.Lipo.Weighted>
-6.7483

> <Gold.Chemscore.Internal_Hbond.Weighted>
0.0000

> <Gold.Chemscore.DEClash.Weighted>
0.2035

> <Gold.Chemscore.DEInternal.Weighted>
2.0961

> <Gold.Chemscore.Rot.Weighted>
7.7856

> <Gold.Chemscore.Internal.Correction.Weighted>
   9.000000E+99

> <Gold.Protein.RotatedTorsions>
[ 6907 6896 6895 6894 ] final   12.28 input  -60.11 | X-H torsion
[ 7974 7965 7964 7962 ] final   48.91 input  175.53 | X-H torsion
[ 8008 7997 7996 7995 ] final -163.86 input   59.86 | X-H torsion
[ 10167 10162 10161 10158 ] final   58.36 input  -65.29 | X-H torsion
[ 10718 10713 10712 10709 ] final  -60.88 input   66.30 | X-H torsion
[ 10763 10752 10751 10750 ] final  -56.33 input  -60.55 | X-H torsion
[ 11005 11000 10999 10996 ] final  135.69 input  -57.11 | X-H torsion

> <Gold.Protein.ActiveResidues>
 VAL166  LYS551  ARG553  GLY616  TRP617  ASP618  TYR619  PRO620  LYS621  CYS622 
 ASP623  PHE694  ASN695  SER759  ASP760  ASP761  ALA762  ILE779  LEU786  VAL792 
 PHE793  MET794  SER795  GLU796  ALA797  LYS798  CYS799  TRP800  GLU811  SER814 

> <Gold.Protein.RotatedAtoms>
  151.7678  135.0794  160.0355 H   0  0  0  0  0  0  0  0  0  0  0  0  # atno 6907 bound_to 6896
  152.3309  133.5953  159.5817 H   0  0  0  0  0  0  0  0  0  0  0  0  # atno 6908 bound_to 6896
  150.7422  133.9785  159.3610 H   0  0  0  0  0  0  0  0  0  0  0  0  # atno 6909 bound_to 6896
  146.0159  139.4596  142.9927 H   0  0  0  0  0  0  0  0  0  0  0  0  # atno 7974 bound_to 7965
  155.8273  140.0928  157.1813 H   0  0  0  0  0  0  0  0  0  0  0  0  # atno 8008 bound_to 7997
  154.3979  140.1425  156.3632 H   0  0  0  0  0  0  0  0  0  0  0  0  # atno 8009 bound_to 7997
  155.8203  140.3446  155.5513 H   0  0  0  0  0  0  0  0  0  0  0  0  # atno 8010 bound_to 7997
  140.1881  144.4114  150.6584 H   0  0  0  0  0  0  0  0  0  0  0  0  # atno 10167 bound_to 10162
  156.0960  130.4193  150.0915 H   0  0  0  0  0  0  0  0  0  0  0  0  # atno 10718 bound_to 10713
  154.2049  135.6404  153.5098 H   0  0  0  0  0  0  0  0  0  0  0  0  # atno 10763 bound_to 10752
  153.0003  135.5460  154.6276 H   0  0  0  0  0  0  0  0  0  0  0  0  # atno 10764 bound_to 10752
  154.5698  135.2916  155.0811 H   0  0  0  0  0  0  0  0  0  0  0  0  # atno 10765 bound_to 10752
  139.9996  134.9483  157.0043 H   0  0  0  0  0  0  0  0  0  0  0  0  # atno 11005 bound_to 11000
  145.7269  141.0056  143.1372 LP  0  0  0  0  0  0  0  0  0  0  0  0  # atno 17320 bound_to 7965
  144.6971  139.8938  143.7454 LP  0  0  0  0  0  0  0  0  0  0  0  0  # atno 17321 bound_to 7965
  140.6475  143.2217  151.6154 LP  0  0  0  0  0  0  0  0  0  0  0  0  # atno 17342 bound_to 10162
  139.5267  144.3036  152.1052 LP  0  0  0  0  0  0  0  0  0  0  0  0  # atno 17343 bound_to 10162
  156.8914  130.9590  151.3588 LP  0  0  0  0  0  0  0  0  0  0  0  0  # atno 17370 bound_to 10713
  157.6121  130.8591  149.8968 LP  0  0  0  0  0  0  0  0  0  0  0  0  # atno 17371 bound_to 10713
  140.4752  134.1345  155.7209 LP  0  0  0  0  0  0  0  0  0  0  0  0  # atno 17394 bound_to 11000
  141.1632  133.8754  157.1790 LP  0  0  0  0  0  0  0  0  0  0  0  0  # atno 17395 bound_to 11000

$$$$
