AV-unprocessed.smi:2980|AV-procd|sdf|11373|dock7
  -GOLD-   2272016293D 1   1.00000     0.00000
 Structure written by MMmdl.
 39 40  0  0  0  0  0  0  0  0  2 V2000
  154.0140  138.0935  160.9781 C   0  0  0  0  0  0  0  0  0  0  0  0
  153.7225  138.1979  159.4796 C   0  0  0  0  0  0  0  0  0  0  0  0
  154.2881  139.4012  158.9907 O   0  0  0  0  0  0  0  0  0  0  0  0
  153.6034  140.5579  159.4426 C   0  0  0  0  0  0  0  0  0  0  0  0
  152.1036  140.4223  159.1438 C   0  0  0  0  0  0  0  0  0  0  0  0
  151.5259  141.6604  158.5946 N   0  0  0  0  0  0  0  0  0  0  0  0
  150.8114  141.8732  157.4506 C   0  0  0  0  0  0  0  0  0  0  0  0
  150.4317  140.8626  156.4164 C   0  0  0  0  0  0  0  0  0  0  0  0
  149.4361  141.4431  155.3990 C   0  0  0  0  0  0  0  0  0  0  0  0
  149.0208  140.4345  154.3185 C   0  0  0  0  0  0  0  0  0  0  0  0
  150.1571  139.7869  153.7862 O   0  0  0  0  0  0  0  0  0  0  0  0
  150.5173  143.2031  157.4007 N   0  3  0  0  0  0  0  0  0  0  0  0
  151.0477  143.8482  158.5177 C   0  0  0  0  0  0  0  0  0  0  0  0
  151.0097  145.1857  158.8994 C   0  0  0  0  0  0  0  0  0  0  0  0
  151.6624  145.5189  160.1042 C   0  0  0  0  0  0  0  0  0  0  0  0
  152.3196  144.5401  160.8775 C   0  0  0  0  0  0  0  0  0  0  0  0
  152.3502  143.1873  160.4803 C   0  0  0  0  0  0  0  0  0  0  0  0
  151.7000  142.8647  159.2888 C   0  0  0  0  0  0  0  0  0  0  0  0
  153.5946  137.1771  161.3937 H   0  0  0  0  0  0  0  0  0  0  0  0
  153.5823  138.9352  161.5198 H   0  0  0  0  0  0  0  0  0  0  0  0
  155.0877  138.0872  161.1682 H   0  0  0  0  0  0  0  0  0  0  0  0
  154.1489  137.3405  158.9571 H   0  0  0  0  0  0  0  0  0  0  0  0
  152.6454  138.1907  159.3069 H   0  0  0  0  0  0  0  0  0  0  0  0
  153.7586  140.6884  160.5144 H   0  0  0  0  0  0  0  0  0  0  0  0
  153.9998  141.4452  158.9469 H   0  0  0  0  0  0  0  0  0  0  0  0
  151.9359  139.6217  158.4240 H   0  0  0  0  0  0  0  0  0  0  0  0
  151.5539  140.1373  160.0407 H   0  0  0  0  0  0  0  0  0  0  0  0
  151.3277  140.5045  155.9105 H   0  0  0  0  0  0  0  0  0  0  0  0
  149.9941  139.9976  156.9157 H   0  0  0  0  0  0  0  0  0  0  0  0
  148.5424  141.7758  155.9284 H   0  0  0  0  0  0  0  0  0  0  0  0
  149.8565  142.3318  154.9263 H   0  0  0  0  0  0  0  0  0  0  0  0
  148.3329  139.6912  154.7228 H   0  0  0  0  0  0  0  0  0  0  0  0
  148.5029  140.9462  153.5067 H   0  0  0  0  0  0  0  0  0  0  0  0
  149.9603  139.5093  152.9042 H   0  0  0  0  0  0  0  0  0  0  0  0
  150.5095  145.9374  158.3066 H   0  0  0  0  0  0  0  0  0  0  0  0
  151.6609  146.5454  160.4408 H   0  0  0  0  0  0  0  0  0  0  0  0
  152.8120  144.8325  161.7935 H   0  0  0  0  0  0  0  0  0  0  0  0
  152.8630  142.4482  161.0778 H   0  0  0  0  0  0  0  0  0  0  0  0
  149.9945  143.6371  156.6509 H   0  0  0  0  0  0  0  0  0  0  0  0
  1  2  1  0  0  0  0
  1 19  1  0  0  0  0
  1 20  1  0  0  0  0
  1 21  1  0  0  0  0
  2  3  1  0  0  0  0
  2 22  1  0  0  0  0
  2 23  1  0  0  0  0
  3  4  1  0  0  0  0
  4  5  1  0  0  0  0
  4 24  1  0  0  0  0
  4 25  1  0  0  0  0
  5  6  1  0  0  0  0
  5 26  1  0  0  0  0
  5 27  1  0  0  0  0
  6 18  1  0  0  0  0
  6  7  1  0  0  0  0
  7  8  1  0  0  0  0
  7 12  2  0  0  0  0
  8  9  1  0  0  0  0
  8 28  1  0  0  0  0
  8 29  1  0  0  0  0
  9 10  1  0  0  0  0
  9 30  1  0  0  0  0
  9 31  1  0  0  0  0
 10 11  1  0  0  0  0
 10 32  1  0  0  0  0
 10 33  1  0  0  0  0
 11 34  1  0  0  0  0
 12 13  1  0  0  0  0
 12 39  1  0  0  0  0
 13 18  2  0  0  0  0
 13 14  1  0  0  0  0
 14 15  2  0  0  0  0
 14 35  1  0  0  0  0
 15 16  1  0  0  0  0
 15 36  1  0  0  0  0
 16 17  2  0  0  0  0
 16 37  1  0  0  0  0
 17 18  1  0  0  0  0
 17 38  1  0  0  0  0
M  CHG  1  12   1
M  END
> <s_m_source_file>
AV-unprocessed.smi

> <i_m_source_file_index>
2980

> <i_lp_mmshare_version>
43012

> <i_f3d_flags>
0

> <s_epik_input>
W0NIM11bQ0gyXU9bQ0gyXVtDSDJdbihjKG4xKVtDSDJdW0NIMl1bQ0gyXVtPSF0pYyhjMTIpW2NIXVtjSF1bY0hdW2NIXTI=

> <s_epik_cmdline>
J2VwaWtfcHl0aG9uJywgJy1waCcsICc3LjAnLCAnLXRuJywgJzgnLCAnLW1hJywgJzIwMCcsICctbWV0YWxfYmluZGluZycsICctaW1hZScsICc8aW5maWxlLm1hZT4nLCAnLW9tYWUnLCAnPG91dGZpbGUubWFlPic=

> <r_epik_Ionization_Penalty>
0.813193

> <r_epik_Ionization_Penalty_Charging>
0.813193

> <r_epik_Ionization_Penalty_Neutral>
1.64912e-07

> <r_epik_State_Penalty>
0.845533

> <r_epik_Charging_Adjusted_Penalty>
1.65873

> <i_epik_Tot_Q>
1

> <i_epik_Tot_abs_Q>
1

> <r_epik_Metal_State_Penalty>
4.77586

> <b_epik_Metal_Only>
0

> <s_lp_Force_Field>
OPLS_2005

> <r_lp_Energy>
11.2721

> <b_lp_Chiralities_Consistent>
1

> <s_lp_Variant>
AV-unprocessed.smi:2980-2

> <Gold.Version>
5.8.1

> <Gold.Id.Protein>
6NUR|6NUR_protein|mol2

> <Gold.PLP.Fitness>
55.8569

> <Gold.PLP.PLP>
-42.3239

> <Gold.PLP.part.hbond>
-4.0000

> <Gold.PLP.part.metal>
0.0000

> <Gold.PLP.part.buried>
-6.1715

> <Gold.PLP.part.nonpolar>
-33.0259

> <Gold.PLP.part.repulsive>
0.0056

> <Gold.PLP.ligand.clash>
0.0000

> <Gold.PLP.ligand.torsion>
0.5268

> <Gold.PLP.Chemscore.Hbond>
4.8400

> <Gold.PLP.Chemscore.CHOScore>
0.0000

> <Gold.PLP.Chemscore.Metal>
0.0000

> <Gold.Chemscore.Hbonds>
donor molecule, donor type, donor heavy atom, donor atom, acceptor molecule, acceptor atom, score
      L1  H    11    34       P1  7957  0.93
      L1  H    12    39       P1  8028  2.00
      P1  H  7989  7998       L1    11  0.90
      P1  H  7997  8008       L1     3  1.00

> <Gold.PLP.Chemscore.Internal.Correction>
0.0667

> <Gold.Rescore>
     Score         DG    S(hbond)    S(metal)    S(lipo)     H(rot)  DE(clash)    DE(int)     intcor
     21.99     -22.74       3.36        0.00     107.88       2.58       0.01       0.74       ----

> <Gold.Chemscore.Fitness>
21.9904

> <Gold.Chemscore.DG>
-22.7389

> <Gold.Chemscore.ZeroCoef>
-5.4800

> <Gold.Chemscore.Hbond>
3.3645

> <Gold.Chemscore.Metal>
0.0000

> <Gold.Chemscore.Lipo>
107.8831

> <Gold.Chemscore.Internal_Hbond>
0.0000

> <Gold.Chemscore.DEClash>
0.0080

> <Gold.Chemscore.DEInternal>
0.7405

> <Gold.Chemscore.Rot>
2.5784

> <Gold.Chemscore.Internal.Correction>
   9.000000E+99

> <Gold.Chemscore.Hbonds>
donor molecule, donor type, donor heavy atom, donor atom, acceptor molecule, acceptor atom, score
      L1  H    11    34       P1  7957  0.90
      L1  H    12    39       P1  8028  1.00
      P1  H  7989  7998       L1    11  0.21
      P1  H  7997  8008       L1     3  0.39

> <Gold.Chemscore.Hbond.Weighted>
-11.2374

> <Gold.Chemscore.Metal.Weighted>
-0.0000

> <Gold.Chemscore.Lipo.Weighted>
-12.6223

> <Gold.Chemscore.Internal_Hbond.Weighted>
0.0000

> <Gold.Chemscore.DEClash.Weighted>
0.0080

> <Gold.Chemscore.DEInternal.Weighted>
0.7405

> <Gold.Chemscore.Rot.Weighted>
6.6007

> <Gold.Chemscore.Internal.Correction.Weighted>
   9.000000E+99

> <Gold.Protein.RotatedTorsions>
[ 6907 6896 6895 6894 ] final  -32.92 input  -60.11 | X-H torsion
[ 7974 7965 7964 7962 ] final  -12.10 input  175.53 | X-H torsion
[ 8008 7997 7996 7995 ] final -124.32 input   59.86 | X-H torsion
[ 10167 10162 10161 10158 ] final   74.78 input  -65.29 | X-H torsion
[ 10718 10713 10712 10709 ] final -107.12 input   66.30 | X-H torsion
[ 10763 10752 10751 10750 ] final  -99.45 input  -60.55 | X-H torsion
[ 11005 11000 10999 10996 ] final  -83.40 input  -57.11 | X-H torsion

> <Gold.Protein.ActiveResidues>
 VAL166  LYS551  ARG553  GLY616  TRP617  ASP618  TYR619  PRO620  LYS621  CYS622 
 ASP623  PHE694  ASN695  SER759  ASP760  ASP761  ALA762  ILE779  LEU786  VAL792 
 PHE793  MET794  SER795  GLU796  ALA797  LYS798  CYS799  TRP800  GLU811  SER814 

> <Gold.Protein.RotatedAtoms>
  151.0724  134.9807  159.8315 H   0  0  0  0  0  0  0  0  0  0  0  0  # atno 6907 bound_to 6896
  152.5410  134.2282  159.8824 H   0  0  0  0  0  0  0  0  0  0  0  0  # atno 6908 bound_to 6896
  151.2307  133.4408  159.2637 H   0  0  0  0  0  0  0  0  0  0  0  0  # atno 6909 bound_to 6896
  146.2164  140.3007  142.8375 H   0  0  0  0  0  0  0  0  0  0  0  0  # atno 7974 bound_to 7965
  155.1950  140.0414  157.2907 H   0  0  0  0  0  0  0  0  0  0  0  0  # atno 8008 bound_to 7997
  154.6113  140.2477  155.7637 H   0  0  0  0  0  0  0  0  0  0  0  0  # atno 8009 bound_to 7997
  156.2381  140.2914  156.0376 H   0  0  0  0  0  0  0  0  0  0  0  0  # atno 8010 bound_to 7997
  140.0100  144.5621  150.7666 H   0  0  0  0  0  0  0  0  0  0  0  0  # atno 10167 bound_to 10162
  156.0421  130.5647  150.7777 H   0  0  0  0  0  0  0  0  0  0  0  0  # atno 10718 bound_to 10713
  154.7499  135.4972  153.9270 H   0  0  0  0  0  0  0  0  0  0  0  0  # atno 10763 bound_to 10752
  153.1132  135.6714  153.9472 H   0  0  0  0  0  0  0  0  0  0  0  0  # atno 10764 bound_to 10752
  153.9225  135.3087  155.3426 H   0  0  0  0  0  0  0  0  0  0  0  0  # atno 10765 bound_to 10752
  141.1658  133.7292  156.8714 H   0  0  0  0  0  0  0  0  0  0  0  0  # atno 11005 bound_to 11000
  144.9059  140.7699  143.5838 LP  0  0  0  0  0  0  0  0  0  0  0  0  # atno 17320 bound_to 7965
  145.2936  139.1875  143.4727 LP  0  0  0  0  0  0  0  0  0  0  0  0  # atno 17321 bound_to 7965
  140.7385  143.2779  151.3687 LP  0  0  0  0  0  0  0  0  0  0  0  0  # atno 17342 bound_to 10162
  139.6211  144.0905  152.2392 LP  0  0  0  0  0  0  0  0  0  0  0  0  # atno 17343 bound_to 10162
  157.5253  131.0934  151.0026 LP  0  0  0  0  0  0  0  0  0  0  0  0  # atno 17370 bound_to 10713
  157.0346  130.5725  149.5347 LP  0  0  0  0  0  0  0  0  0  0  0  0  # atno 17371 bound_to 10713
  140.1779  134.9054  157.2913 LP  0  0  0  0  0  0  0  0  0  0  0  0  # atno 17394 bound_to 11000
  140.2428  134.3775  155.7473 LP  0  0  0  0  0  0  0  0  0  0  0  0  # atno 17395 bound_to 11000

$$$$
