AV-unprocessed.smi:2451|AV-procd|sdf|9676|dock9
  -GOLD-   2272013313D 1   1.00000     0.00000
 Structure written by MMmdl.
 38 39  0  0  0  0  0  0  0  0  1 V2000
  152.0175  144.8283  158.2512 C   0  0  0  0  0  0  0  0  0  0  0  0
  152.5162  143.4284  158.6511 C   0  0  1  0  0  0  0  0  0  0  0  0
  153.0745  143.4638  160.0880 C   0  0  0  0  0  0  0  0  0  0  0  0
  153.6104  142.0967  160.5309 C   0  0  0  0  0  0  0  0  0  0  0  0
  152.5302  141.0123  160.4151 C   0  0  0  0  0  0  0  0  0  0  0  0
  151.9241  140.9492  158.9987 C   0  0  2  0  0  0  0  0  0  0  0  0
  152.8832  140.3747  158.0438 N   0  0  0  0  0  0  0  0  0  0  0  0
  152.9938  138.6609  157.8638 S   0  0  0  0  0  0  0  0  0  0  0  0
  153.7944  138.3923  156.6596 O   0  0  0  0  0  0  0  0  0  0  0  0
  153.3951  138.0902  159.1591 O   0  0  0  0  0  0  0  0  0  0  0  0
  151.2440  138.1876  157.5372 C   0  0  0  0  0  0  0  0  0  0  0  0
  150.8896  138.5228  156.1168 C   0  0  0  0  0  0  0  0  0  0  0  0
  150.4600  137.6459  155.0822 C   0  0  0  0  0  0  0  0  0  0  0  0
  150.2836  138.4766  154.0134 C   0  0  0  0  0  0  0  0  0  0  0  0
  150.5727  139.7577  154.3546 O   0  0  0  0  0  0  0  0  0  0  0  0
  150.9562  139.7775  155.7003 N   0  0  0  0  0  0  0  0  0  0  0  0
  151.4220  142.3342  158.5152 C   0  0  2  0  0  0  0  0  0  0  0  0
  150.7989  142.2487  157.1072 C   0  0  0  0  0  0  0  0  0  0  0  0
  151.1446  145.1210  158.8353 H   0  0  0  0  0  0  0  0  0  0  0  0
  151.7480  144.8755  157.1964 H   0  0  0  0  0  0  0  0  0  0  0  0
  152.7908  145.5796  158.4130 H   0  0  0  0  0  0  0  0  0  0  0  0
  153.3387  143.1740  157.9810 H   0  0  0  0  0  0  0  0  0  0  0  0
  153.8735  144.2028  160.1597 H   0  0  0  0  0  0  0  0  0  0  0  0
  152.2948  143.7877  160.7790 H   0  0  0  0  0  0  0  0  0  0  0  0
  154.4734  141.8248  159.9218 H   0  0  0  0  0  0  0  0  0  0  0  0
  153.9673  142.1540  161.5596 H   0  0  0  0  0  0  0  0  0  0  0  0
  152.9333  140.0442  160.7130 H   0  0  0  0  0  0  0  0  0  0  0  0
  151.7348  141.2330  161.1281 H   0  0  0  0  0  0  0  0  0  0  0  0
  151.0616  140.2827  159.0354 H   0  0  0  0  0  0  0  0  0  0  0  0
  153.8073  140.7893  158.1621 H   0  0  0  0  0  0  0  0  0  0  0  0
  151.1358  137.1198  157.7259 H   0  0  0  0  0  0  0  0  0  0  0  0
  150.6060  138.7173  158.2452 H   0  0  0  0  0  0  0  0  0  0  0  0
  150.3107  136.5770  155.1179 H   0  0  0  0  0  0  0  0  0  0  0  0
  149.9706  138.3161  152.9923 H   0  0  0  0  0  0  0  0  0  0  0  0
  150.6107  142.6155  159.1885 H   0  0  0  0  0  0  0  0  0  0  0  0
  151.5583  142.0971  156.3398 H   0  0  0  0  0  0  0  0  0  0  0  0
  150.2485  143.1548  156.8551 H   0  0  0  0  0  0  0  0  0  0  0  0
  150.0917  141.4213  157.0420 H   0  0  0  0  0  0  0  0  0  0  0  0
  1  2  1  0  0  0  0
  1 19  1  0  0  0  0
  1 20  1  0  0  0  0
  1 21  1  0  0  0  0
  2 17  1  0  0  0  0
  2  3  1  0  0  0  0
  2 22  1  0  0  0  0
  3  4  1  0  0  0  0
  3 23  1  0  0  0  0
  3 24  1  0  0  0  0
  4  5  1  0  0  0  0
  4 25  1  0  0  0  0
  4 26  1  0  0  0  0
  5  6  1  0  0  0  0
  5 27  1  0  0  0  0
  5 28  1  0  0  0  0
  6  7  1  0  0  0  0
  6 17  1  0  0  0  0
  6 29  1  0  0  0  0
  7  8  1  0  0  0  0
  7 30  1  0  0  0  0
  8  9  2  0  0  0  0
  8 10  2  0  0  0  0
  8 11  1  0  0  0  0
 11 12  1  0  0  0  0
 11 31  1  0  0  0  0
 11 32  1  0  0  0  0
 12 16  2  0  0  0  0
 12 13  1  0  0  0  0
 13 14  2  0  0  0  0
 13 33  1  0  0  0  0
 14 15  1  0  0  0  0
 14 34  1  0  0  0  0
 15 16  1  0  0  0  0
 17 18  1  0  0  0  0
 17 35  1  0  0  0  0
 18 36  1  0  0  0  0
 18 37  1  0  0  0  0
 18 38  1  0  0  0  0
M  END
> <s_m_source_file>
AV-unprocessed.smi

> <i_m_source_file_index>
2451

> <i_lp_mmshare_version>
43012

> <i_f3d_flags>
0

> <s_epik_input>
W0NIM11bQ0BASF0xW0NIMl1bQ0gyXVtDSDJdW0NASF0oW0NASF0xW0NIM10pW05IXVMoPU8pKD1PKVtDSDJdYzJbY0hdW2NIXW9uMg==

> <s_epik_cmdline>
J2VwaWtfcHl0aG9uJywgJy1waCcsICc3LjAnLCAnLXRuJywgJzgnLCAnLW1hJywgJzIwMCcsICctbWV0YWxfYmluZGluZycsICctaW1hZScsICc8aW5maWxlLm1hZT4nLCAnLW9tYWUnLCAnPG91dGZpbGUubWFlPic=

> <r_lp_tautomer_probability>
1

> <r_epik_Ionization_Penalty>
8.73668e-05

> <r_epik_Ionization_Penalty_Charging>
0

> <r_epik_Ionization_Penalty_Neutral>
8.73668e-05

> <r_epik_State_Penalty>
-0

> <r_epik_Charging_Adjusted_Penalty>
0

> <i_epik_Tot_Q>
0

> <i_epik_Tot_abs_Q>
0

> <r_epik_Metal_State_Penalty>
0.0716439

> <b_epik_Metal_Only>
0

> <s_lp_Force_Field>
OPLS_2005

> <r_lp_Energy>
8.50206

> <b_lp_Chiralities_Consistent>
1

> <s_lp_Variant>
AV-unprocessed.smi:2451-8

> <Gold.Version>
5.8.1

> <Gold.Id.Protein>
6NUR|6NUR_protein|mol2

> <Gold.PLP.Fitness>
41.7083

> <Gold.PLP.PLP>
-32.4722

> <Gold.PLP.part.hbond>
-3.0000

> <Gold.PLP.part.metal>
0.0000

> <Gold.PLP.part.buried>
-4.1679

> <Gold.PLP.part.nonpolar>
-26.2437

> <Gold.PLP.part.repulsive>
0.1395

> <Gold.PLP.ligand.clash>
0.0000

> <Gold.PLP.ligand.torsion>
0.7568

> <Gold.PLP.Chemscore.Hbond>
1.5472

> <Gold.PLP.Chemscore.CHOScore>
1.9861

> <Gold.PLP.Chemscore.Metal>
0.0000

> <Gold.Chemscore.Hbonds>
donor molecule, donor type, donor heavy atom, donor atom, acceptor molecule, acceptor atom, score
      P1  H  7989  7998       L1    15  1.00
      P1  H  7997  8008       L1     9  0.55
      L1  C    14    34       P1  7948  1.00
      L1  C    14    34       P1  7957  0.99

> <Gold.PLP.Chemscore.Internal.Correction>
0.1496

> <Gold.Rescore>
     Score         DG    S(hbond)    S(metal)    S(lipo)     H(rot)  DE(clash)    DE(int)     intcor
     15.61     -17.75       1.27        0.00     105.05       1.66       0.16       1.99       ----

> <Gold.Chemscore.Fitness>
15.6055

> <Gold.Chemscore.DG>
-17.7534

> <Gold.Chemscore.ZeroCoef>
-5.4800

> <Gold.Chemscore.Hbond>
1.2660

> <Gold.Chemscore.Metal>
0.0000

> <Gold.Chemscore.Lipo>
105.0548

> <Gold.Chemscore.Internal_Hbond>
0.0000

> <Gold.Chemscore.DEClash>
0.1574

> <Gold.Chemscore.DEInternal>
1.9905

> <Gold.Chemscore.Rot>
1.6588

> <Gold.Chemscore.Internal.Correction>
   9.000000E+99

> <Gold.Chemscore.Hbonds>
donor molecule, donor type, donor heavy atom, donor atom, acceptor molecule, acceptor atom, score
      P1  H  7989  7998       L1    15  0.65
      P1  H  7997  8008       L1     9  0.11

> <Gold.Chemscore.Hbond.Weighted>
-4.2286

> <Gold.Chemscore.Metal.Weighted>
-0.0000

> <Gold.Chemscore.Lipo.Weighted>
-12.2914

> <Gold.Chemscore.Internal_Hbond.Weighted>
0.0000

> <Gold.Chemscore.DEClash.Weighted>
0.1574

> <Gold.Chemscore.DEInternal.Weighted>
1.9905

> <Gold.Chemscore.Rot.Weighted>
4.2466

> <Gold.Chemscore.Internal.Correction.Weighted>
   9.000000E+99

> <Gold.Protein.RotatedTorsions>
[ 6907 6896 6895 6894 ] final  124.36 input  -60.11 | X-H torsion
[ 7974 7965 7964 7962 ] final   61.49 input  175.53 | X-H torsion
[ 8008 7997 7996 7995 ] final  -44.08 input   59.86 | X-H torsion
[ 10167 10162 10161 10158 ] final  -60.22 input  -65.29 | X-H torsion
[ 10718 10713 10712 10709 ] final   53.03 input   66.30 | X-H torsion
[ 10763 10752 10751 10750 ] final  -47.10 input  -60.55 | X-H torsion
[ 11005 11000 10999 10996 ] final  126.76 input  -57.11 | X-H torsion

> <Gold.Protein.ActiveResidues>
 VAL166  LYS551  ARG553  GLY616  TRP617  ASP618  TYR619  PRO620  LYS621  CYS622 
 ASP623  PHE694  ASN695  SER759  ASP760  ASP761  ALA762  ILE779  LEU786  VAL792 
 PHE793  MET794  SER795  GLU796  ALA797  LYS798  CYS799  TRP800  GLU811  SER814 

> <Gold.Protein.RotatedAtoms>
  152.4085  133.6926  159.6376 H   0  0  0  0  0  0  0  0  0  0  0  0  # atno 6907 bound_to 6896
  150.7967  133.8667  159.3256 H   0  0  0  0  0  0  0  0  0  0  0  0  # atno 6908 bound_to 6896
  151.6415  135.1014  160.0194 H   0  0  0  0  0  0  0  0  0  0  0  0  # atno 6909 bound_to 6896
  145.8842  139.3464  143.0688 H   0  0  0  0  0  0  0  0  0  0  0  0  # atno 7974 bound_to 7965
  154.3997  140.1431  156.3625 H   0  0  0  0  0  0  0  0  0  0  0  0  # atno 8008 bound_to 7997
  155.8168  140.3471  155.5469 H   0  0  0  0  0  0  0  0  0  0  0  0  # atno 8009 bound_to 7997
  155.8329  140.0915  157.1772 H   0  0  0  0  0  0  0  0  0  0  0  0  # atno 8010 bound_to 7997
  140.6085  143.2380  151.5765 H   0  0  0  0  0  0  0  0  0  0  0  0  # atno 10167 bound_to 10162
  157.5129  130.8513  149.8458 H   0  0  0  0  0  0  0  0  0  0  0  0  # atno 10718 bound_to 10713
  154.0559  135.6624  153.4806 H   0  0  0  0  0  0  0  0  0  0  0  0  # atno 10763 bound_to 10752
  153.0445  135.5123  154.7706 H   0  0  0  0  0  0  0  0  0  0  0  0  # atno 10764 bound_to 10752
  154.6727  135.3032  154.9687 H   0  0  0  0  0  0  0  0  0  0  0  0  # atno 10765 bound_to 10752
  139.9473  134.9628  156.8755 H   0  0  0  0  0  0  0  0  0  0  0  0  # atno 11005 bound_to 11000
  145.8987  140.9257  143.0514 LP  0  0  0  0  0  0  0  0  0  0  0  0  # atno 17320 bound_to 7965
  144.6728  140.1003  143.7461 LP  0  0  0  0  0  0  0  0  0  0  0  0  # atno 17321 bound_to 7965
  139.5343  144.2826  152.1217 LP  0  0  0  0  0  0  0  0  0  0  0  0  # atno 17342 bound_to 10162
  140.2021  144.4648  150.6426 LP  0  0  0  0  0  0  0  0  0  0  0  0  # atno 17343 bound_to 10162
  156.0301  130.3767  150.1712 LP  0  0  0  0  0  0  0  0  0  0  0  0  # atno 17370 bound_to 10713
  156.9901  130.9891  151.3417 LP  0  0  0  0  0  0  0  0  0  0  0  0  # atno 17371 bound_to 10713
  140.5804  134.0357  155.7462 LP  0  0  0  0  0  0  0  0  0  0  0  0  # atno 17394 bound_to 11000
  141.1126  133.9591  157.2881 LP  0  0  0  0  0  0  0  0  0  0  0  0  # atno 17395 bound_to 11000

$$$$
