AV-unprocessed.smi:1030|AV-procd|sdf|4478|dock6
  -GOLD-   22720 2453D 1   1.00000     0.00000
 Structure written by MMmdl.
 29 30  0  0  0  0  0  0  0  0  1 V2000
  153.3806  138.0068  160.3562 N   0  0  0  0  0  0  0  0  0  0  0  0
  152.9712  138.6132  158.7981 S   0  0  0  0  0  0  0  0  0  0  0  0
  154.1482  138.4176  157.9374 O   0  0  0  0  0  0  0  0  0  0  0  0
  151.6697  138.0405  158.4209 O   0  0  0  0  0  0  0  0  0  0  0  0
  152.7745  140.3754  159.1014 C   0  0  0  0  0  0  0  0  0  0  0  0
  153.4274  140.9592  160.2071 C   0  0  0  0  0  0  0  0  0  0  0  0
  153.2668  142.3383  160.4379 C   0  0  0  0  0  0  0  0  0  0  0  0
  152.4580  143.0755  159.5522 C   0  0  0  0  0  0  0  0  0  0  0  0
  151.8280  142.5261  158.4923 N   0  0  0  0  0  0  0  0  0  0  0  0
  151.9788  141.1982  158.2637 C   0  0  0  0  0  0  0  0  0  0  0  0
  151.3148  140.6583  157.1520 N   0  0  0  0  0  0  0  0  0  0  0  0
  152.1896  139.9492  156.2280 C   0  0  0  0  0  0  0  0  0  0  0  0
  151.3471  139.2481  155.1487 C   0  0  0  0  0  0  0  0  0  0  0  0
  150.5181  140.2044  154.4928 O   0  0  0  0  0  0  0  0  0  0  0  0
  149.6187  140.8441  155.3947 C   0  0  0  0  0  0  0  0  0  0  0  0
  150.4172  141.5875  156.4788 C   0  0  0  0  0  0  0  0  0  0  0  0
  152.9682  137.0879  160.5154 H   0  0  0  0  0  0  0  0  0  0  0  0
  153.1116  138.6629  161.0890 H   0  0  0  0  0  0  0  0  0  0  0  0
  154.0425  140.3705  160.8710 H   0  0  0  0  0  0  0  0  0  0  0  0
  153.7524  142.8195  161.2737 H   0  0  0  0  0  0  0  0  0  0  0  0
  152.3129  144.1357  159.6988 H   0  0  0  0  0  0  0  0  0  0  0  0
  152.8808  140.6524  155.7613 H   0  0  0  0  0  0  0  0  0  0  0  0
  152.7889  139.2174  156.7710 H   0  0  0  0  0  0  0  0  0  0  0  0
  151.9964  138.7749  154.4122 H   0  0  0  0  0  0  0  0  0  0  0  0
  150.7333  138.4597  155.5875 H   0  0  0  0  0  0  0  0  0  0  0  0
  148.9952  141.5446  154.8393 H   0  0  0  0  0  0  0  0  0  0  0  0
  148.9504  140.1063  155.8421 H   0  0  0  0  0  0  0  0  0  0  0  0
  149.7382  142.0374  157.2040 H   0  0  0  0  0  0  0  0  0  0  0  0
  150.9927  142.3967  156.0272 H   0  0  0  0  0  0  0  0  0  0  0  0
  1  2  1  0  0  0  0
  1 17  1  0  0  0  0
  1 18  1  0  0  0  0
  2  3  2  0  0  0  0
  2  4  2  0  0  0  0
  2  5  1  0  0  0  0
  5 10  1  0  0  0  0
  5  6  2  0  0  0  0
  6  7  1  0  0  0  0
  6 19  1  0  0  0  0
  7  8  2  0  0  0  0
  7 20  1  0  0  0  0
  8  9  1  0  0  0  0
  8 21  1  0  0  0  0
  9 10  2  0  0  0  0
 10 11  1  0  0  0  0
 11 16  1  0  0  0  0
 11 12  1  0  0  0  0
 12 13  1  0  0  0  0
 12 22  1  0  0  0  0
 12 23  1  0  0  0  0
 13 14  1  0  0  0  0
 13 24  1  0  0  0  0
 13 25  1  0  0  0  0
 14 15  1  0  0  0  0
 15 16  1  0  0  0  0
 15 26  1  0  0  0  0
 15 27  1  0  0  0  0
 16 28  1  0  0  0  0
 16 29  1  0  0  0  0
M  END
> <s_m_source_file>
AV-unprocessed.smi

> <i_m_source_file_index>
1030

> <i_lp_mmshare_version>
43012

> <i_f3d_flags>
0

> <s_epik_input>
W05IMl1TKD1PKSg9TyljMVtjSF1bY0hdW2NIXW5jMU4yW0NIMl1bQ0gyXU9bQ0gyXVtDSDJdMg==

> <s_epik_cmdline>
J2VwaWtfcHl0aG9uJywgJy1waCcsICc3LjAnLCAnLXRuJywgJzgnLCAnLW1hJywgJzIwMCcsICctbWV0YWxfYmluZGluZycsICctaW1hZScsICc8aW5maWxlLm1hZT4nLCAnLW9tYWUnLCAnPG91dGZpbGUubWFlPic=

> <r_lp_tautomer_probability>
1

> <r_epik_Ionization_Penalty>
0.00223263

> <r_epik_Ionization_Penalty_Charging>
0

> <r_epik_Ionization_Penalty_Neutral>
0.00223263

> <r_epik_State_Penalty>
-0

> <r_epik_Charging_Adjusted_Penalty>
0

> <i_epik_Tot_Q>
0

> <i_epik_Tot_abs_Q>
0

> <r_epik_Metal_State_Penalty>
0.346078

> <b_epik_Metal_Only>
0

> <s_lp_Force_Field>
OPLS_2005

> <r_lp_Energy>
28.1978

> <b_lp_Chiralities_Consistent>
1

> <s_lp_Variant>
AV-unprocessed.smi:1030-1

> <Gold.Version>
5.8.1

> <Gold.Id.Protein>
6NUR|6NUR_protein|mol2

> <Gold.PLP.Fitness>
35.2034

> <Gold.PLP.PLP>
-29.6668

> <Gold.PLP.part.hbond>
-2.0000

> <Gold.PLP.part.metal>
0.0000

> <Gold.PLP.part.buried>
-3.8796

> <Gold.PLP.part.nonpolar>
-24.0180

> <Gold.PLP.part.repulsive>
0.1154

> <Gold.PLP.ligand.clash>
0.0000

> <Gold.PLP.ligand.torsion>
1.2789

> <Gold.PLP.Chemscore.Hbond>
1.9920

> <Gold.PLP.Chemscore.CHOScore>
0.0000

> <Gold.PLP.Chemscore.Metal>
0.0000

> <Gold.Chemscore.Hbonds>
donor molecule, donor type, donor heavy atom, donor atom, acceptor molecule, acceptor atom, score
      P1  H  7989  7998       L1    14  1.00
      P1  H  7997  8008       L1     3  0.99

> <Gold.PLP.Chemscore.Internal.Correction>
2.1183

> <Gold.Rescore>
     Score         DG    S(hbond)    S(metal)    S(lipo)     H(rot)  DE(clash)    DE(int)     intcor
     12.81     -16.35       1.82        0.00      62.92       1.00       0.97       2.57       ----

> <Gold.Chemscore.Fitness>
12.8067

> <Gold.Chemscore.DG>
-16.3518

> <Gold.Chemscore.ZeroCoef>
-5.4800

> <Gold.Chemscore.Hbond>
1.8173

> <Gold.Chemscore.Metal>
0.0000

> <Gold.Chemscore.Lipo>
62.9224

> <Gold.Chemscore.Internal_Hbond>
0.0000

> <Gold.Chemscore.DEClash>
0.9705

> <Gold.Chemscore.DEInternal>
2.5746

> <Gold.Chemscore.Rot>
1.0000

> <Gold.Chemscore.Internal.Correction>
   9.000000E+99

> <Gold.Chemscore.Hbonds>
donor molecule, donor type, donor heavy atom, donor atom, acceptor molecule, acceptor atom, score
      P1  H  7989  7998       L1    14  0.25
      P1  H  7997  8008       L1     3  0.86

> <Gold.Chemscore.Hbond.Weighted>
-6.0699

> <Gold.Chemscore.Metal.Weighted>
-0.0000

> <Gold.Chemscore.Lipo.Weighted>
-7.3619

> <Gold.Chemscore.Internal_Hbond.Weighted>
0.0000

> <Gold.Chemscore.DEClash.Weighted>
0.9705

> <Gold.Chemscore.DEInternal.Weighted>
2.5746

> <Gold.Chemscore.Rot.Weighted>
2.5600

> <Gold.Chemscore.Internal.Correction.Weighted>
   9.000000E+99

> <Gold.Protein.RotatedTorsions>
[ 6907 6896 6895 6894 ] final  -22.06 input  -60.11 | X-H torsion
[ 7974 7965 7964 7962 ] final -153.62 input  175.53 | X-H torsion
[ 8008 7997 7996 7995 ] final -105.73 input   59.86 | X-H torsion
[ 10167 10162 10161 10158 ] final  -87.40 input  -65.29 | X-H torsion
[ 10718 10713 10712 10709 ] final -175.40 input   66.30 | X-H torsion
[ 10763 10752 10751 10750 ] final  -71.05 input  -60.55 | X-H torsion
[ 11005 11000 10999 10996 ] final  -84.99 input  -57.11 | X-H torsion

> <Gold.Protein.ActiveResidues>
 VAL166  LYS551  ARG553  GLY616  TRP617  ASP618  TYR619  PRO620  LYS621  CYS622 
 ASP623  PHE694  ASN695  SER759  ASP760  ASP761  ALA762  ILE779  LEU786  VAL792 
 PHE793  MET794  SER795  GLU796  ALA797  LYS798  CYS799  TRP800  GLU811  SER814 

> <Gold.Protein.RotatedAtoms>
  151.2242  135.0530  159.8961 H   0  0  0  0  0  0  0  0  0  0  0  0  # atno 6907 bound_to 6896
  152.5412  134.0608  159.8161 H   0  0  0  0  0  0  0  0  0  0  0  0  # atno 6908 bound_to 6896
  151.0778  133.5366  159.2654 H   0  0  0  0  0  0  0  0  0  0  0  0  # atno 6909 bound_to 6896
  144.7731  140.4500  143.5893 H   0  0  0  0  0  0  0  0  0  0  0  0  # atno 7974 bound_to 7965
  154.9041  140.0412  157.1910 H   0  0  0  0  0  0  0  0  0  0  0  0  # atno 8008 bound_to 7997
  154.8414  140.2915  155.5636 H   0  0  0  0  0  0  0  0  0  0  0  0  # atno 8009 bound_to 7997
  156.2992  140.2482  156.3357 H   0  0  0  0  0  0  0  0  0  0  0  0  # atno 8010 bound_to 7997
  140.3848  143.2732  151.9339 H   0  0  0  0  0  0  0  0  0  0  0  0  # atno 10167 bound_to 10162
  156.7993  130.9546  151.3119 H   0  0  0  0  0  0  0  0  0  0  0  0  # atno 10718 bound_to 10713
  154.4263  135.5974  153.6041 H   0  0  0  0  0  0  0  0  0  0  0  0  # atno 10763 bound_to 10752
  152.9796  135.5964  154.3893 H   0  0  0  0  0  0  0  0  0  0  0  0  # atno 10764 bound_to 10752
  154.3725  135.2841  155.2236 H   0  0  0  0  0  0  0  0  0  0  0  0  # atno 10765 bound_to 10752
  141.1645  133.7375  156.8950 H   0  0  0  0  0  0  0  0  0  0  0  0  # atno 11005 bound_to 11000
  145.6265  139.1530  143.2993 LP  0  0  0  0  0  0  0  0  0  0  0  0  # atno 17320 bound_to 7965
  146.1892  140.6371  142.9153 LP  0  0  0  0  0  0  0  0  0  0  0  0  # atno 17321 bound_to 7965
  139.4793  144.5784  151.7973 LP  0  0  0  0  0  0  0  0  0  0  0  0  # atno 17342 bound_to 10162
  140.4901  144.1323  150.5948 LP  0  0  0  0  0  0  0  0  0  0  0  0  # atno 17343 bound_to 10162
  157.6562  130.8926  149.9733 LP  0  0  0  0  0  0  0  0  0  0  0  0  # atno 17370 bound_to 10713
  156.1111  130.3650  150.0048 LP  0  0  0  0  0  0  0  0  0  0  0  0  # atno 17371 bound_to 10713
  140.1622  134.9157  157.2729 LP  0  0  0  0  0  0  0  0  0  0  0  0  # atno 17394 bound_to 11000
  140.2598  134.3585  155.7411 LP  0  0  0  0  0  0  0  0  0  0  0  0  # atno 17395 bound_to 11000

$$$$
