AV-unprocessed.smi:49|AV-procd|sdf|483|dock1
  -GOLD-   2262016343D 1   1.00000     0.00000
 Structure written by MMmdl.
 27 28  0  0  0  0  0  0  0  0  3 V2000
  149.4955  133.3548  154.1081 C   0  0  0  0  0  0  0  0  0  0  0  0
  149.9569  134.1113  155.3578 C   0  0  0  0  0  0  0  0  0  0  0  0
  150.0727  135.5998  155.1131 C   0  0  0  0  0  0  0  0  0  0  0  0
  149.0858  136.4064  154.7354 N   0  0  0  0  0  0  0  0  0  0  0  0
  149.6165  137.6353  154.6840 C   0  0  0  0  0  0  0  0  0  0  0  0
  148.8544  138.8747  154.2564 C   0  0  2  0  0  0  0  0  0  0  0  0
  147.5990  139.1092  155.1093 C   0  0  0  0  0  0  0  0  0  0  0  0
  146.4716  138.5242  154.2637 C   0  0  1  0  0  0  0  0  0  0  0  0
  145.2192  139.0964  154.5760 O   0  0  0  0  0  0  0  0  0  0  0  0
  146.9187  138.8498  152.8393 C   0  0  0  0  0  0  0  0  0  0  0  0
  148.3890  138.7408  152.8591 N   0  3  0  0  0  0  0  0  0  0  0  0
  150.9179  137.6040  155.0140 N   0  0  0  0  0  0  0  0  0  0  0  0
  151.1789  136.3437  155.2900 N   0  5  0  0  0  0  0  0  0  0  0  0
  149.5246  139.7320  154.3304 H   0  0  0  0  0  0  0  0  0  0  0  0
  146.4265  137.4430  154.4024 H   0  0  0  0  0  0  0  0  0  0  0  0
  149.4199  132.2856  154.3062 H   0  0  0  0  0  0  0  0  0  0  0  0
  150.1965  133.4935  153.2847 H   0  0  0  0  0  0  0  0  0  0  0  0
  148.5166  133.7036  153.7777 H   0  0  0  0  0  0  0  0  0  0  0  0
  149.2561  133.9423  156.1760 H   0  0  0  0  0  0  0  0  0  0  0  0
  150.9241  133.7312  155.6881 H   0  0  0  0  0  0  0  0  0  0  0  0
  147.6629  138.6801  156.1103 H   0  0  0  0  0  0  0  0  0  0  0  0
  147.4453  140.1837  155.2228 H   0  0  0  0  0  0  0  0  0  0  0  0
  144.8460  139.4541  153.7843 H   0  0  0  0  0  0  0  0  0  0  0  0
  146.4735  138.1911  152.0934 H   0  0  0  0  0  0  0  0  0  0  0  0
  146.6596  139.8780  152.5823 H   0  0  0  0  0  0  0  0  0  0  0  0
  148.8096  139.4431  152.2683 H   0  0  0  0  0  0  0  0  0  0  0  0
  148.6553  137.8209  152.5369 H   0  0  0  0  0  0  0  0  0  0  0  0
  1  2  1  0  0  0  0
  1 16  1  0  0  0  0
  1 17  1  0  0  0  0
  1 18  1  0  0  0  0
  2  3  1  0  0  0  0
  2 19  1  0  0  0  0
  2 20  1  0  0  0  0
  3 13  1  0  0  0  0
  3  4  2  0  0  0  0
  4  5  1  0  0  0  0
  5  6  1  0  0  0  0
  5 12  2  0  0  0  0
  6 14  1  0  0  0  0
  6 11  1  0  0  0  0
  6  7  1  0  0  0  0
  7  8  1  0  0  0  0
  7 21  1  0  0  0  0
  7 22  1  0  0  0  0
  8 15  1  0  0  0  0
  8  9  1  0  0  0  0
  8 10  1  0  0  0  0
  9 23  1  0  0  0  0
 10 11  1  0  0  0  0
 10 24  1  0  0  0  0
 10 25  1  0  0  0  0
 11 26  1  0  0  0  0
 11 27  1  0  0  0  0
 12 13  1  0  0  0  0
M  CHG  1  11   1
M  CHG  1  13  -1
M  END
> <s_m_source_file>
AV-unprocessed.smi

> <i_m_source_file_index>
49

> <i_lp_mmshare_version>
43012

> <i_f3d_flags>
0

> <s_epik_input>
W0NIM11bQ0gyXWMxbmMobltuSF0xKVtDQEBIXTJbQ0gyXVtDQEBIXShbT0hdKVtDSDJdW05IXTI=

> <s_epik_cmdline>
J2VwaWtfcHl0aG9uJywgJy1waCcsICc3LjAnLCAnLXRuJywgJzgnLCAnLW1hJywgJzIwMCcsICctbWV0YWxfYmluZGluZycsICctaW1hZScsICc8aW5maWxlLm1hZT4nLCAnLW9tYWUnLCAnPG91dGZpbGUubWFlPic=

> <r_lp_tautomer_probability>
0.948284

> <r_epik_Ionization_Penalty>
3.22013

> <r_epik_Ionization_Penalty_Charging>
3.22013

> <r_epik_Ionization_Penalty_Neutral>
3.9133e-08

> <r_epik_State_Penalty>
2.79459

> <r_epik_Charging_Adjusted_Penalty>
6.01472

> <i_epik_Tot_Q>
0

> <i_epik_Tot_abs_Q>
2

> <r_epik_Metal_State_Penalty>
0.589377

> <b_epik_Metal_Only>
1

> <s_lp_Force_Field>
OPLS_2005

> <r_lp_Energy>
10.361

> <b_lp_Chiralities_Consistent>
1

> <s_lp_Variant>
AV-unprocessed.smi:49-21

> <Gold.Version>
5.8.1

> <Gold.Id.Protein>
6NUR|6NUR_protein|mol2

> <Gold.PLP.Fitness>
33.8071

> <Gold.PLP.PLP>
-16.2073

> <Gold.PLP.part.hbond>
-3.7317

> <Gold.PLP.part.metal>
0.0000

> <Gold.PLP.part.buried>
-3.7740

> <Gold.PLP.part.nonpolar>
-11.4672

> <Gold.PLP.part.repulsive>
2.0439

> <Gold.PLP.ligand.clash>
0.0000

> <Gold.PLP.ligand.torsion>
0.0341

> <Gold.PLP.Chemscore.Hbond>
5.8850

> <Gold.PLP.Chemscore.CHOScore>
0.0000

> <Gold.PLP.Chemscore.Metal>
0.0000

> <Gold.Chemscore.Hbonds>
donor molecule, donor type, donor heavy atom, donor atom, acceptor molecule, acceptor atom, score
      L1  H     9    23       P1 10175  1.00
      L1  H    11    26       P1  7957  0.88
      L1  H    11    27       P1  7948  2.00
      P1  H 10752 10765       L1    13  1.98

> <Gold.PLP.Chemscore.Internal.Correction>
0.0130

> <Gold.Rescore>
     Score         DG    S(hbond)    S(metal)    S(lipo)     H(rot)  DE(clash)    DE(int)     intcor
     15.10     -16.50       3.75        0.00      27.79       1.86       1.21       0.19       ----

> <Gold.Chemscore.Fitness>
15.0990

> <Gold.Chemscore.DG>
-16.4964

> <Gold.Chemscore.ZeroCoef>
-5.4800

> <Gold.Chemscore.Hbond>
3.7480

> <Gold.Chemscore.Metal>
0.0000

> <Gold.Chemscore.Lipo>
27.7882

> <Gold.Chemscore.Internal_Hbond>
0.0000

> <Gold.Chemscore.DEClash>
1.2067

> <Gold.Chemscore.DEInternal>
0.1907

> <Gold.Chemscore.Rot>
1.8567

> <Gold.Chemscore.Internal.Correction>
   9.000000E+99

> <Gold.Chemscore.Hbonds>
donor molecule, donor type, donor heavy atom, donor atom, acceptor molecule, acceptor atom, score
      L1  H     9    23       P1 10175  0.93
      L1  H    11    26       P1  7957  0.85
      L1  H    11    27       P1  7948  1.00
      P1  H 10752 10765       L1    13  0.86

> <Gold.Chemscore.Hbond.Weighted>
-12.5183

> <Gold.Chemscore.Metal.Weighted>
-0.0000

> <Gold.Chemscore.Lipo.Weighted>
-3.2512

> <Gold.Chemscore.Internal_Hbond.Weighted>
0.0000

> <Gold.Chemscore.DEClash.Weighted>
1.2067

> <Gold.Chemscore.DEInternal.Weighted>
0.1907

> <Gold.Chemscore.Rot.Weighted>
4.7531

> <Gold.Chemscore.Internal.Correction.Weighted>
   9.000000E+99

> <Gold.Protein.RotatedTorsions>
[ 6907 6896 6895 6894 ] final -158.83 input  -60.11 | X-H torsion
[ 7974 7965 7964 7962 ] final -157.04 input  175.53 | X-H torsion
[ 8008 7997 7996 7995 ] final   42.65 input   59.86 | X-H torsion
[ 10167 10162 10161 10158 ] final  128.81 input  -65.29 | X-H torsion
[ 10718 10713 10712 10709 ] final  -83.71 input   66.30 | X-H torsion
[ 10763 10752 10751 10750 ] final -170.33 input  -60.55 | X-H torsion
[ 11005 11000 10999 10996 ] final -144.65 input  -57.11 | X-H torsion

> <Gold.Protein.ActiveResidues>
 VAL166  LYS551  ARG553  GLY616  TRP617  ASP618  TYR619  PRO620  LYS621  CYS622 
 ASP623  PHE694  ASN695  SER759  ASP760  ASP761  ALA762  ILE779  LEU786  VAL792 
 PHE793  MET794  SER795  GLU796  ALA797  LYS798  CYS799  TRP800  GLU811  SER814 

> <Gold.Protein.RotatedAtoms>
  151.3241  133.4027  159.2656 H   0  0  0  0  0  0  0  0  0  0  0  0  # atno 6907 bound_to 6896
  151.0009  134.9322  159.7964 H   0  0  0  0  0  0  0  0  0  0  0  0  # atno 6908 bound_to 6896
  152.5275  134.3206  159.9199 H   0  0  0  0  0  0  0  0  0  0  0  0  # atno 6909 bound_to 6896
  144.7566  140.4024  143.6008 H   0  0  0  0  0  0  0  0  0  0  0  0  # atno 7974 bound_to 7965
  155.2897  140.3378  155.4253 H   0  0  0  0  0  0  0  0  0  0  0  0  # atno 8008 bound_to 7997
  156.2052  140.1748  156.7856 H   0  0  0  0  0  0  0  0  0  0  0  0  # atno 8009 bound_to 7997
  154.5611  140.0687  156.8804 H   0  0  0  0  0  0  0  0  0  0  0  0  # atno 8010 bound_to 7997
  139.5509  144.6812  151.4328 H   0  0  0  0  0  0  0  0  0  0  0  0  # atno 10167 bound_to 10162
  156.0015  130.4674  150.4299 H   0  0  0  0  0  0  0  0  0  0  0  0  # atno 10718 bound_to 10713
  154.6426  135.2900  155.0084 H   0  0  0  0  0  0  0  0  0  0  0  0  # atno 10763 bound_to 10752
  154.1205  135.6549  153.4906 H   0  0  0  0  0  0  0  0  0  0  0  0  # atno 10764 bound_to 10752
  153.0334  135.5286  154.7300 H   0  0  0  0  0  0  0  0  0  0  0  0  # atno 10765 bound_to 10752
  140.8002  134.2865  157.4981 H   0  0  0  0  0  0  0  0  0  0  0  0  # atno 11005 bound_to 11000
  145.6760  139.1608  143.2728 LP  0  0  0  0  0  0  0  0  0  0  0  0  # atno 17320 bound_to 7965
  146.1582  140.6827  142.9290 LP  0  0  0  0  0  0  0  0  0  0  0  0  # atno 17321 bound_to 7965
  140.6770  143.8166  150.7072 LP  0  0  0  0  0  0  0  0  0  0  0  0  # atno 17342 bound_to 10162
  140.1608  143.4277  152.2068 LP  0  0  0  0  0  0  0  0  0  0  0  0  # atno 17343 bound_to 10162
  157.2348  131.0512  151.2471 LP  0  0  0  0  0  0  0  0  0  0  0  0  # atno 17370 bound_to 10713
  157.3676  130.7164  149.6543 LP  0  0  0  0  0  0  0  0  0  0  0  0  # atno 17371 bound_to 10713
  139.8722  134.9425  156.3827 LP  0  0  0  0  0  0  0  0  0  0  0  0  # atno 17394 bound_to 11000
  140.9302  133.7584  156.0015 LP  0  0  0  0  0  0  0  0  0  0  0  0  # atno 17395 bound_to 11000

$$$$
