AV-unprocessed.smi:2923|AV-procd|sdf|11216|dock2
  -GOLD-   2272016103D 1   1.00000     0.00000
 Structure written by MMmdl.
 46 48  0  0  0  0  0  0  0  0  1 V2000
  152.6128  144.5957  157.9683 C   0  0  0  0  0  0  0  0  0  0  0  0
  152.5170  144.0533  159.3178 N   0  0  0  0  0  0  0  0  0  0  0  0
  152.1787  144.9320  160.4327 C   0  0  0  0  0  0  0  0  0  0  0  0
  152.7831  142.6852  159.5554 C   0  0  0  0  0  0  0  0  0  0  0  0
  152.1111  141.6651  158.8374 C   0  0  0  0  0  0  0  0  0  0  0  0
  152.4130  140.3164  159.1064 C   0  0  0  0  0  0  0  0  0  0  0  0
  153.3770  140.0126  160.0950 C   0  0  0  0  0  0  0  0  0  0  0  0
  153.7882  138.6967  160.4408 N   0  0  0  0  0  0  0  0  0  0  0  0
  154.6371  138.3082  161.4076 C   0  0  0  0  0  0  0  0  0  0  0  0
  155.2816  139.0615  162.1369 O   0  0  0  0  0  0  0  0  0  0  0  0
  154.7135  136.9729  161.4763 N   0  0  0  0  0  0  0  0  0  0  0  0
  155.5287  136.2440  162.4408 C   0  0  2  0  0  0  0  0  0  0  0  0
  154.8680  134.9448  162.9022 C   0  0  1  0  0  0  0  0  0  0  0  0
  155.1809  133.4997  162.7445 C   0  0  0  0  0  0  0  0  0  0  0  0
  154.9630  133.0732  164.2210 C   0  0  0  0  0  0  0  0  0  0  0  0
  154.8435  134.3032  164.9766 O   0  0  0  0  0  0  0  0  0  0  0  0
  155.5741  135.2393  164.2112 C   0  0  2  0  0  0  0  0  0  0  0  0
  155.3397  136.7359  163.9257 C   0  0  0  0  0  0  0  0  0  0  0  0
  156.4271  137.6763  164.4464 C   0  0  0  0  0  0  0  0  0  0  0  0
  153.9931  137.3476  164.3636 C   0  0  0  0  0  0  0  0  0  0  0  0
  153.9996  141.0929  160.7496 C   0  0  0  0  0  0  0  0  0  0  0  0
  153.7130  142.3865  160.4951 N   0  0  0  0  0  0  0  0  0  0  0  0
  153.6189  144.4591  157.5711 H   0  0  0  0  0  0  0  0  0  0  0  0
  152.3919  145.6631  157.9520 H   0  0  0  0  0  0  0  0  0  0  0  0
  151.9041  144.0997  157.3045 H   0  0  0  0  0  0  0  0  0  0  0  0
  152.9902  144.9565  161.1607 H   0  0  0  0  0  0  0  0  0  0  0  0
  151.2737  144.5848  160.9324 H   0  0  0  0  0  0  0  0  0  0  0  0
  152.0022  145.9536  160.0963 H   0  0  0  0  0  0  0  0  0  0  0  0
  151.3738  141.8880  158.0813 H   0  0  0  0  0  0  0  0  0  0  0  0
  151.9105  139.5499  158.5380 H   0  0  0  0  0  0  0  0  0  0  0  0
  153.4046  137.9605  159.8663 H   0  0  0  0  0  0  0  0  0  0  0  0
  154.1587  136.4244  160.8357 H   0  0  0  0  0  0  0  0  0  0  0  0
  156.5717  136.1110  162.1387 H   0  0  0  0  0  0  0  0  0  0  0  0
  153.7845  135.0711  162.9619 H   0  0  0  0  0  0  0  0  0  0  0  0
  154.5045  132.9912  162.0574 H   0  0  0  0  0  0  0  0  0  0  0  0
  156.2096  133.3375  162.4190 H   0  0  0  0  0  0  0  0  0  0  0  0
  154.0562  132.4806  164.3443 H   0  0  0  0  0  0  0  0  0  0  0  0
  155.8056  132.4829  164.5834 H   0  0  0  0  0  0  0  0  0  0  0  0
  156.6402  134.9849  164.2065 H   0  0  0  0  0  0  0  0  0  0  0  0
  156.4128  137.7401  165.5347 H   0  0  0  0  0  0  0  0  0  0  0  0
  156.3063  138.6864  164.0539 H   0  0  0  0  0  0  0  0  0  0  0  0
  157.4222  137.3380  164.1561 H   0  0  0  0  0  0  0  0  0  0  0  0
  153.9267  137.4106  165.4501 H   0  0  0  0  0  0  0  0  0  0  0  0
  153.1249  136.7813  164.0324 H   0  0  0  0  0  0  0  0  0  0  0  0
  153.8723  138.3592  163.9745 H   0  0  0  0  0  0  0  0  0  0  0  0
  154.7525  140.9172  161.5039 H   0  0  0  0  0  0  0  0  0  0  0  0
  1  2  1  0  0  0  0
  1 23  1  0  0  0  0
  1 24  1  0  0  0  0
  1 25  1  0  0  0  0
  2  3  1  0  0  0  0
  2  4  1  0  0  0  0
  3 26  1  0  0  0  0
  3 27  1  0  0  0  0
  3 28  1  0  0  0  0
  4 22  1  0  0  0  0
  4  5  2  0  0  0  0
  5  6  1  0  0  0  0
  5 29  1  0  0  0  0
  6  7  2  0  0  0  0
  6 30  1  0  0  0  0
  7  8  1  0  0  0  0
  7 21  1  0  0  0  0
  8  9  1  0  0  0  0
  8 31  1  0  0  0  0
  9 10  2  0  0  0  0
  9 11  1  0  0  0  0
 11 12  1  0  0  0  0
 11 32  1  0  0  0  0
 12 18  1  0  0  0  0
 12 13  1  0  0  0  0
 12 33  1  0  0  0  0
 13 17  1  0  0  0  0
 13 14  1  0  0  0  0
 13 34  1  0  0  0  0
 14 15  1  0  0  0  0
 14 35  1  0  0  0  0
 14 36  1  0  0  0  0
 15 16  1  0  0  0  0
 15 37  1  0  0  0  0
 15 38  1  0  0  0  0
 16 17  1  0  0  0  0
 17 18  1  0  0  0  0
 17 39  1  0  0  0  0
 18 19  1  0  0  0  0
 18 20  1  0  0  0  0
 19 40  1  0  0  0  0
 19 41  1  0  0  0  0
 19 42  1  0  0  0  0
 20 43  1  0  0  0  0
 20 44  1  0  0  0  0
 20 45  1  0  0  0  0
 21 22  2  0  0  0  0
 21 46  1  0  0  0  0
M  END
> <s_m_source_file>
AV-unprocessed.smi

> <i_m_source_file_index>
2923

> <i_lp_mmshare_version>
43012

> <i_f3d_flags>
0

> <s_epik_input>
W0NIM11OKFtDSDNdKWMxW2NIXVtjSF1jKFtjSF1uMSlbTkhdQyg9TylbTkhdW0NASF0yQyhbQ0gzXSkoW0NIM10pW0NAQEhdKFtDQEhdMjMpT1tDSDJdW0NIMl0z

> <s_epik_cmdline>
J2VwaWtfcHl0aG9uJywgJy1waCcsICc3LjAnLCAnLXRuJywgJzgnLCAnLW1hJywgJzIwMCcsICctbWV0YWxfYmluZGluZycsICctaW1hZScsICc8aW5maWxlLm1hZT4nLCAnLW9tYWUnLCAnPG91dGZpbGUubWFlPic=

> <r_lp_tautomer_probability>
1

> <r_epik_Ionization_Penalty>
0.628785

> <r_epik_Ionization_Penalty_Charging>
0

> <r_epik_Ionization_Penalty_Neutral>
0.628785

> <r_epik_State_Penalty>
0.644286

> <r_epik_Charging_Adjusted_Penalty>
0.644286

> <i_epik_Tot_Q>
0

> <i_epik_Tot_abs_Q>
0

> <r_epik_Metal_State_Penalty>
0.308404

> <b_epik_Metal_Only>
0

> <s_lp_Force_Field>
OPLS_2005

> <r_lp_Energy>
62.6556

> <b_lp_Chiralities_Consistent>
1

> <s_lp_Variant>
AV-unprocessed.smi:2923-15

> <Gold.Version>
5.8.1

> <Gold.Id.Protein>
6NUR|6NUR_protein|mol2

> <Gold.PLP.Fitness>
42.9261

> <Gold.PLP.PLP>
-45.0550

> <Gold.PLP.part.hbond>
0.0000

> <Gold.PLP.part.metal>
0.0000

> <Gold.PLP.part.buried>
-6.7860

> <Gold.PLP.part.nonpolar>
-38.3407

> <Gold.PLP.part.repulsive>
0.1578

> <Gold.PLP.ligand.clash>
0.0000

> <Gold.PLP.ligand.torsion>
1.1995

> <Gold.PLP.Chemscore.Hbond>
0.0000

> <Gold.PLP.Chemscore.CHOScore>
0.0000

> <Gold.PLP.Chemscore.Metal>
0.0000

> <Gold.PLP.Chemscore.Internal.Correction>
0.2701

> <Gold.Rescore>
     Score         DG    S(hbond)    S(metal)    S(lipo)     H(rot)  DE(clash)    DE(int)     intcor
     10.84     -15.74       0.00        0.00     109.60       1.00       0.09       4.81       ----

> <Gold.Chemscore.Fitness>
10.8394

> <Gold.Chemscore.DG>
-15.7433

> <Gold.Chemscore.ZeroCoef>
-5.4800

> <Gold.Chemscore.Hbond>
0.0000

> <Gold.Chemscore.Metal>
0.0000

> <Gold.Chemscore.Lipo>
109.6005

> <Gold.Chemscore.Internal_Hbond>
0.0000

> <Gold.Chemscore.DEClash>
0.0920

> <Gold.Chemscore.DEInternal>
4.8118

> <Gold.Chemscore.Rot>
1.0000

> <Gold.Chemscore.Internal.Correction>
   9.000000E+99

> <Gold.Chemscore.Hbond.Weighted>
-0.0000

> <Gold.Chemscore.Metal.Weighted>
-0.0000

> <Gold.Chemscore.Lipo.Weighted>
-12.8233

> <Gold.Chemscore.Internal_Hbond.Weighted>
0.0000

> <Gold.Chemscore.DEClash.Weighted>
0.0920

> <Gold.Chemscore.DEInternal.Weighted>
4.8118

> <Gold.Chemscore.Rot.Weighted>
2.5600

> <Gold.Chemscore.Internal.Correction.Weighted>
   9.000000E+99

> <Gold.Protein.RotatedTorsions>
[ 6907 6896 6895 6894 ] final   79.86 input  -60.11 | X-H torsion
[ 7974 7965 7964 7962 ] final -113.31 input  175.53 | X-H torsion
[ 8008 7997 7996 7995 ] final -167.81 input   59.86 | X-H torsion
[ 10167 10162 10161 10158 ] final  172.34 input  -65.29 | X-H torsion
[ 10718 10713 10712 10709 ] final  149.14 input   66.30 | X-H torsion
[ 10763 10752 10751 10750 ] final   26.70 input  -60.55 | X-H torsion
[ 11005 11000 10999 10996 ] final -160.52 input  -57.11 | X-H torsion

> <Gold.Protein.ActiveResidues>
 VAL166  LYS551  ARG553  GLY616  TRP617  ASP618  TYR619  PRO620  LYS621  CYS622 
 ASP623  PHE694  ASN695  SER759  ASP760  ASP761  ALA762  ILE779  LEU786  VAL792 
 PHE793  MET794  SER795  GLU796  ALA797  LYS798  CYS799  TRP800  GLU811  SER814 

> <Gold.Protein.RotatedAtoms>
  152.5214  134.3446  159.9229 H   0  0  0  0  0  0  0  0  0  0  0  0  # atno 6907 bound_to 6896
  151.3396  133.3961  159.2677 H   0  0  0  0  0  0  0  0  0  0  0  0  # atno 6908 bound_to 6896
  150.9814  134.9186  159.7904 H   0  0  0  0  0  0  0  0  0  0  0  0  # atno 6909 bound_to 6896
  145.1336  140.8738  143.3743 H   0  0  0  0  0  0  0  0  0  0  0  0  # atno 7974 bound_to 7965
  155.8828  140.1012  157.1473 H   0  0  0  0  0  0  0  0  0  0  0  0  # atno 8008 bound_to 7997
  154.4007  140.1326  156.4281 H   0  0  0  0  0  0  0  0  0  0  0  0  # atno 8009 bound_to 7997
  155.7624  140.3463  155.5207 H   0  0  0  0  0  0  0  0  0  0  0  0  # atno 8010 bound_to 7997
  139.5073  144.3385  152.0042 H   0  0  0  0  0  0  0  0  0  0  0  0  # atno 10167 bound_to 10162
  157.2998  131.0869  151.1398 H   0  0  0  0  0  0  0  0  0  0  0  0  # atno 10718 bound_to 10713
  153.0605  135.6554  154.0474 H   0  0  0  0  0  0  0  0  0  0  0  0  # atno 10763 bound_to 10752
  154.0143  135.2925  155.3390 H   0  0  0  0  0  0  0  0  0  0  0  0  # atno 10764 bound_to 10752
  154.6941  135.5271  153.8501 H   0  0  0  0  0  0  0  0  0  0  0  0  # atno 10765 bound_to 10752
  140.6306  134.4655  157.5229 H   0  0  0  0  0  0  0  0  0  0  0  0  # atno 11005 bound_to 11000
  145.0608  139.3107  143.5881 LP  0  0  0  0  0  0  0  0  0  0  0  0  # atno 17320 bound_to 7965
  146.3512  140.0050  142.8672 LP  0  0  0  0  0  0  0  0  0  0  0  0  # atno 17321 bound_to 7965
  140.2823  144.3846  150.6115 LP  0  0  0  0  0  0  0  0  0  0  0  0  # atno 17342 bound_to 10162
  140.6009  143.2167  151.7074 LP  0  0  0  0  0  0  0  0  0  0  0  0  # atno 17343 bound_to 10162
  157.2762  130.6728  149.6043 LP  0  0  0  0  0  0  0  0  0  0  0  0  # atno 17370 bound_to 10713
  155.9671  130.4464  150.5539 LP  0  0  0  0  0  0  0  0  0  0  0  0  # atno 17371 bound_to 10713
  139.9118  134.8330  156.1503 LP  0  0  0  0  0  0  0  0  0  0  0  0  # atno 17394 bound_to 11000
  141.0678  133.6811  156.2080 LP  0  0  0  0  0  0  0  0  0  0  0  0  # atno 17395 bound_to 11000

$$$$
