AV-unprocessed.smi:2323|AV-procd|sdf|9289|dock1
  -GOLD-   2272012513D 1   1.00000     0.00000
 Structure written by MMmdl.
 30 31  0  0  0  0  0  0  0  0  1 V2000
  147.9743  141.8822  154.1169 C   0  0  0  0  0  0  0  0  0  0  0  0
  148.9050  141.6381  155.2078 N   0  0  0  0  0  0  0  0  0  0  0  0
  149.9534  140.8039  155.1344 C   0  0  0  0  0  0  0  0  0  0  0  0
  150.2203  140.1368  154.1344 O   0  0  0  0  0  0  0  0  0  0  0  0
  150.7677  140.6714  156.3896 C   0  0  0  0  0  0  0  0  0  0  0  0
  151.6679  139.5951  156.5468 C   0  0  0  0  0  0  0  0  0  0  0  0
  152.4297  139.5179  157.7280 C   0  0  0  0  0  0  0  0  0  0  0  0
  152.3500  140.4267  158.7218 N   0  0  0  0  0  0  0  0  0  0  0  0
  151.4952  141.4683  158.5718 C   0  0  0  0  0  0  0  0  0  0  0  0
  151.4056  142.4135  159.5745 O   0  0  0  0  0  0  0  0  0  0  0  0
  152.5082  143.2892  159.8196 C   0  0  2  0  0  0  0  0  0  0  0  0
  152.2278  144.2044  161.0051 C   0  0  0  0  0  0  0  0  0  0  0  0
  151.5278  145.3862  160.3509 C   0  0  0  0  0  0  0  0  0  0  0  0
  152.2569  145.5559  159.1478 O   0  0  0  0  0  0  0  0  0  0  0  0
  152.6056  144.2708  158.6416 C   0  0  0  0  0  0  0  0  0  0  0  0
  150.6914  141.6313  157.4253 C   0  0  0  0  0  0  0  0  0  0  0  0
  147.2043  142.5848  154.4352 H   0  0  0  0  0  0  0  0  0  0  0  0
  147.4852  140.9572  153.8084 H   0  0  0  0  0  0  0  0  0  0  0  0
  148.4901  142.3081  153.2555 H   0  0  0  0  0  0  0  0  0  0  0  0
  148.7445  142.1311  156.0744 H   0  0  0  0  0  0  0  0  0  0  0  0
  151.7756  138.8390  155.7824 H   0  0  0  0  0  0  0  0  0  0  0  0
  153.1239  138.7043  157.8781 H   0  0  0  0  0  0  0  0  0  0  0  0
  153.4436  142.7382  159.9311 H   0  0  0  0  0  0  0  0  0  0  0  0
  151.6325  143.7418  161.7925 H   0  0  0  0  0  0  0  0  0  0  0  0
  153.1690  144.5357  161.4458 H   0  0  0  0  0  0  0  0  0  0  0  0
  150.4886  145.1462  160.1203 H   0  0  0  0  0  0  0  0  0  0  0  0
  151.5489  146.2857  160.9665 H   0  0  0  0  0  0  0  0  0  0  0  0
  153.6150  144.3070  158.2305 H   0  0  0  0  0  0  0  0  0  0  0  0
  151.9273  143.9948  157.8329 H   0  0  0  0  0  0  0  0  0  0  0  0
  150.0346  142.4859  157.3519 H   0  0  0  0  0  0  0  0  0  0  0  0
  1  2  1  0  0  0  0
  1 17  1  0  0  0  0
  1 18  1  0  0  0  0
  1 19  1  0  0  0  0
  2  3  1  0  0  0  0
  2 20  1  0  0  0  0
  3  4  2  0  0  0  0
  3  5  1  0  0  0  0
  5 16  1  0  0  0  0
  5  6  2  0  0  0  0
  6  7  1  0  0  0  0
  6 21  1  0  0  0  0
  7  8  2  0  0  0  0
  7 22  1  0  0  0  0
  8  9  1  0  0  0  0
  9 10  1  0  0  0  0
  9 16  2  0  0  0  0
 10 11  1  0  0  0  0
 11 15  1  0  0  0  0
 11 12  1  0  0  0  0
 11 23  1  0  0  0  0
 12 13  1  0  0  0  0
 12 24  1  0  0  0  0
 12 25  1  0  0  0  0
 13 14  1  0  0  0  0
 13 26  1  0  0  0  0
 13 27  1  0  0  0  0
 14 15  1  0  0  0  0
 15 28  1  0  0  0  0
 15 29  1  0  0  0  0
 16 30  1  0  0  0  0
M  END
> <s_m_source_file>
AV-unprocessed.smi

> <i_m_source_file_index>
2323

> <i_lp_mmshare_version>
43012

> <i_f3d_flags>
0

> <s_epik_input>
W0NIM11bTkhdQyg9TyljMVtjSF1bY0hdbmMoW2NIXTEpT1tDQEBIXTJbQ0gyXVtDSDJdT1tDSDJdMg==

> <s_epik_cmdline>
J2VwaWtfcHl0aG9uJywgJy1waCcsICc3LjAnLCAnLXRuJywgJzgnLCAnLW1hJywgJzIwMCcsICctbWV0YWxfYmluZGluZycsICctaW1hZScsICc8aW5maWxlLm1hZT4nLCAnLW9tYWUnLCAnPG91dGZpbGUubWFlPic=

> <r_lp_tautomer_probability>
1

> <r_epik_Ionization_Penalty>
2.2633e-06

> <r_epik_Ionization_Penalty_Charging>
0

> <r_epik_Ionization_Penalty_Neutral>
2.2633e-06

> <r_epik_State_Penalty>
-0

> <r_epik_Charging_Adjusted_Penalty>
0

> <i_epik_Tot_Q>
0

> <i_epik_Tot_abs_Q>
0

> <r_epik_Metal_State_Penalty>
-0

> <b_epik_Metal_Only>
0

> <s_lp_Force_Field>
OPLS_2005

> <r_lp_Energy>
16.8838

> <b_lp_Chiralities_Consistent>
1

> <s_lp_Variant>
AV-unprocessed.smi:2323-1

> <Gold.Version>
5.8.1

> <Gold.Id.Protein>
6NUR|6NUR_protein|mol2

> <Gold.PLP.Fitness>
38.7511

> <Gold.PLP.PLP>
-36.1394

> <Gold.PLP.part.hbond>
-2.1578

> <Gold.PLP.part.metal>
0.0000

> <Gold.PLP.part.buried>
-3.1758

> <Gold.PLP.part.nonpolar>
-30.0114

> <Gold.PLP.part.repulsive>
1.2124

> <Gold.PLP.ligand.clash>
0.0000

> <Gold.PLP.ligand.torsion>
0.2139

> <Gold.PLP.Chemscore.Hbond>
1.0000

> <Gold.PLP.Chemscore.CHOScore>
0.0000

> <Gold.PLP.Chemscore.Metal>
0.0000

> <Gold.Chemscore.Hbonds>
donor molecule, donor type, donor heavy atom, donor atom, acceptor molecule, acceptor atom, score
      P1  H  7989  7998       L1     4  0.99

> <Gold.PLP.Chemscore.Internal.Correction>
0.0395

> <Gold.Rescore>
     Score         DG    S(hbond)    S(metal)    S(lipo)     H(rot)  DE(clash)    DE(int)     intcor
     13.11     -14.17       0.70        0.00      81.57       1.24       0.81       0.25       ----

> <Gold.Chemscore.Fitness>
13.1124

> <Gold.Chemscore.DG>
-14.1735

> <Gold.Chemscore.ZeroCoef>
-5.4800

> <Gold.Chemscore.Hbond>
0.6994

> <Gold.Chemscore.Metal>
0.0000

> <Gold.Chemscore.Lipo>
81.5745

> <Gold.Chemscore.Internal_Hbond>
0.0000

> <Gold.Chemscore.DEClash>
0.8093

> <Gold.Chemscore.DEInternal>
0.2519

> <Gold.Chemscore.Rot>
1.2448

> <Gold.Chemscore.Internal.Correction>
   9.000000E+99

> <Gold.Chemscore.Hbonds>
donor molecule, donor type, donor heavy atom, donor atom, acceptor molecule, acceptor atom, score
      P1  H  7989  7998       L1     4  0.47

> <Gold.Chemscore.Hbond.Weighted>
-2.3359

> <Gold.Chemscore.Metal.Weighted>
-0.0000

> <Gold.Chemscore.Lipo.Weighted>
-9.5442

> <Gold.Chemscore.Internal_Hbond.Weighted>
0.0000

> <Gold.Chemscore.DEClash.Weighted>
0.8093

> <Gold.Chemscore.DEInternal.Weighted>
0.2519

> <Gold.Chemscore.Rot.Weighted>
3.1866

> <Gold.Chemscore.Internal.Correction.Weighted>
   9.000000E+99

> <Gold.Protein.RotatedTorsions>
[ 6907 6896 6895 6894 ] final  115.60 input  -60.11 | X-H torsion
[ 7974 7965 7964 7962 ] final   75.75 input  175.53 | X-H torsion
[ 8008 7997 7996 7995 ] final    7.84 input   59.86 | X-H torsion
[ 10167 10162 10161 10158 ] final  -11.67 input  -65.29 | X-H torsion
[ 10718 10713 10712 10709 ] final   42.59 input   66.30 | X-H torsion
[ 10763 10752 10751 10750 ] final  -12.87 input  -60.55 | X-H torsion
[ 11005 11000 10999 10996 ] final  170.25 input  -57.11 | X-H torsion

> <Gold.Protein.ActiveResidues>
 VAL166  LYS551  ARG553  GLY616  TRP617  ASP618  TYR619  PRO620  LYS621  CYS622 
 ASP623  PHE694  ASN695  SER759  ASP760  ASP761  ALA762  ILE779  LEU786  VAL792 
 PHE793  MET794  SER795  GLU796  ALA797  LYS798  CYS799  TRP800  GLU811  SER814 

> <Gold.Protein.RotatedAtoms>
  152.4731  133.8075  159.6985 H   0  0  0  0  0  0  0  0  0  0  0  0  # atno 6907 bound_to 6896
  150.8731  133.7467  159.2961 H   0  0  0  0  0  0  0  0  0  0  0  0  # atno 6908 bound_to 6896
  151.4995  135.1064  159.9877 H   0  0  0  0  0  0  0  0  0  0  0  0  # atno 6909 bound_to 6896
  145.7116  139.2616  143.1647 H   0  0  0  0  0  0  0  0  0  0  0  0  # atno 7974 bound_to 7965
  154.7590  140.2781  155.6229 H   0  0  0  0  0  0  0  0  0  0  0  0  # atno 8008 bound_to 7997
  156.2912  140.2663  156.2291 H   0  0  0  0  0  0  0  0  0  0  0  0  # atno 8009 bound_to 7997
  155.0041  140.0372  157.2362 H   0  0  0  0  0  0  0  0  0  0  0  0  # atno 8010 bound_to 7997
  140.7144  143.5614  150.9191 H   0  0  0  0  0  0  0  0  0  0  0  0  # atno 10167 bound_to 10162
  157.4065  130.7890  149.7393 H   0  0  0  0  0  0  0  0  0  0  0  0  # atno 10718 bound_to 10713
  153.5049  135.7017  153.5812 H   0  0  0  0  0  0  0  0  0  0  0  0  # atno 10763 bound_to 10752
  153.3927  135.3892  155.1934 H   0  0  0  0  0  0  0  0  0  0  0  0  # atno 10764 bound_to 10752
  154.8708  135.3862  154.4523 H   0  0  0  0  0  0  0  0  0  0  0  0  # atno 10765 bound_to 10752
  140.3064  134.7553  157.3957 H   0  0  0  0  0  0  0  0  0  0  0  0  # atno 11005 bound_to 11000
  146.0708  140.7871  142.9689 LP  0  0  0  0  0  0  0  0  0  0  0  0  # atno 17320 bound_to 7965
  144.6940  140.3338  143.7211 LP  0  0  0  0  0  0  0  0  0  0  0  0  # atno 17321 bound_to 7965
  139.9340  143.6460  152.3070 LP  0  0  0  0  0  0  0  0  0  0  0  0  # atno 17342 bound_to 10162
  139.6921  144.7645  151.1421 LP  0  0  0  0  0  0  0  0  0  0  0  0  # atno 17343 bound_to 10162
  155.9838  130.3997  150.3344 LP  0  0  0  0  0  0  0  0  0  0  0  0  # atno 17370 bound_to 10713
  157.1478  131.0313  151.2899 LP  0  0  0  0  0  0  0  0  0  0  0  0  # atno 17371 bound_to 10713
  140.1064  134.5404  155.8306 LP  0  0  0  0  0  0  0  0  0  0  0  0  # atno 17394 bound_to 11000
  141.2117  133.6710  156.6606 LP  0  0  0  0  0  0  0  0  0  0  0  0  # atno 17395 bound_to 11000

$$$$
