AV-unprocessed.smi:3303|AV-procd|sdf|12663|dock4
  -GOLD-   2272019 03D 1   1.00000     0.00000
 Structure written by MMmdl.
 45 46  0  0  0  0  0  0  0  0  3 V2000
  147.1145  139.5182  153.2561 C   0  0  0  0  0  0  0  0  0  0  0  0
  147.4530  140.2482  154.5684 C   0  0  2  0  0  0  0  0  0  0  0  0
  146.2125  140.3886  155.4747 C   0  0  0  0  0  0  0  0  0  0  0  0
  145.2383  141.3822  154.9504 N   0  3  1  0  0  0  0  0  0  0  0  0
  143.9916  141.3757  155.7543 C   0  0  0  0  0  0  0  0  0  0  0  0
  145.8507  142.7351  154.7867 C   0  0  2  0  0  0  0  0  0  0  0  0
  144.8593  143.7717  154.2227 C   0  0  0  0  0  0  0  0  0  0  0  0
  147.0913  142.6603  153.8689 C   0  0  0  0  0  0  0  0  0  0  0  0
  148.1255  141.6158  154.3255 C   0  0  1  0  0  0  0  0  0  0  0  0
  148.8447  142.0783  155.5367 N   0  3  0  0  0  0  0  0  0  0  0  0
  150.1952  141.5064  155.7093 C   0  0  0  0  0  0  0  0  0  0  0  0
  150.5174  141.2802  157.1924 C   0  0  0  0  0  0  0  0  0  0  0  0
  151.1159  142.5153  157.8380 C   0  0  0  0  0  0  0  0  0  0  0  0
  152.4545  142.5217  158.2848 C   0  0  0  0  0  0  0  0  0  0  0  0
  152.9610  143.7008  158.8658 C   0  0  0  0  0  0  0  0  0  0  0  0
  152.1148  144.8212  158.9743 C   0  0  0  0  0  0  0  0  0  0  0  0
  150.7938  144.7129  158.4962 C   0  0  0  0  0  0  0  0  0  0  0  0
  150.2983  143.5873  157.9372 N   0  0  0  0  0  0  0  0  0  0  0  0
  146.3831  140.0645  152.6603 H   0  0  0  0  0  0  0  0  0  0  0  0
  146.7025  138.5285  153.4553 H   0  0  0  0  0  0  0  0  0  0  0  0
  148.0052  139.3800  152.6424 H   0  0  0  0  0  0  0  0  0  0  0  0
  148.1705  139.6099  155.0869 H   0  0  0  0  0  0  0  0  0  0  0  0
  145.7292  139.4157  155.5771 H   0  0  0  0  0  0  0  0  0  0  0  0
  146.5167  140.6859  156.4795 H   0  0  0  0  0  0  0  0  0  0  0  0
  144.1573  141.8122  156.7401 H   0  0  0  0  0  0  0  0  0  0  0  0
  143.6252  140.3578  155.8925 H   0  0  0  0  0  0  0  0  0  0  0  0
  143.1932  141.9275  155.2595 H   0  0  0  0  0  0  0  0  0  0  0  0
  146.1694  143.0802  155.7717 H   0  0  0  0  0  0  0  0  0  0  0  0
  145.3599  144.7191  154.0197 H   0  0  0  0  0  0  0  0  0  0  0  0
  144.0535  143.9925  154.9226 H   0  0  0  0  0  0  0  0  0  0  0  0
  144.4132  143.4293  153.2881 H   0  0  0  0  0  0  0  0  0  0  0  0
  146.7687  142.4198  152.8548 H   0  0  0  0  0  0  0  0  0  0  0  0
  147.5668  143.6398  153.7991 H   0  0  0  0  0  0  0  0  0  0  0  0
  148.8562  141.5019  153.5224 H   0  0  0  0  0  0  0  0  0  0  0  0
  148.9342  143.0837  155.4943 H   0  0  0  0  0  0  0  0  0  0  0  0
  150.2587  140.5612  155.1677 H   0  0  0  0  0  0  0  0  0  0  0  0
  150.9265  142.1846  155.2671 H   0  0  0  0  0  0  0  0  0  0  0  0
  149.6129  141.0016  157.7356 H   0  0  0  0  0  0  0  0  0  0  0  0
  151.2111  140.4454  157.3018 H   0  0  0  0  0  0  0  0  0  0  0  0
  153.0814  141.6476  158.1857 H   0  0  0  0  0  0  0  0  0  0  0  0
  153.9804  143.7456  159.2201 H   0  0  0  0  0  0  0  0  0  0  0  0
  152.4690  145.7420  159.4135 H   0  0  0  0  0  0  0  0  0  0  0  0
  150.1175  145.5523  158.5625 H   0  0  0  0  0  0  0  0  0  0  0  0
  148.2939  141.8390  156.3488 H   0  0  0  0  0  0  0  0  0  0  0  0
  144.9788  141.0664  154.0264 H   0  0  0  0  0  0  0  0  0  0  0  0
  1  2  1  0  0  0  0
  1 19  1  0  0  0  0
  1 20  1  0  0  0  0
  1 21  1  0  0  0  0
  2  9  1  0  0  0  0
  2  3  1  0  0  0  0
  2 22  1  0  0  0  0
  3  4  1  0  0  0  0
  3 23  1  0  0  0  0
  3 24  1  0  0  0  0
  4  5  1  0  0  0  0
  4  6  1  0  0  0  0
  4 45  1  0  0  0  0
  5 25  1  0  0  0  0
  5 26  1  0  0  0  0
  5 27  1  0  0  0  0
  6  7  1  0  0  0  0
  6  8  1  0  0  0  0
  6 28  1  0  0  0  0
  7 29  1  0  0  0  0
  7 30  1  0  0  0  0
  7 31  1  0  0  0  0
  8  9  1  0  0  0  0
  8 32  1  0  0  0  0
  8 33  1  0  0  0  0
  9 10  1  0  0  0  0
  9 34  1  0  0  0  0
 10 11  1  0  0  0  0
 10 35  1  0  0  0  0
 10 44  1  0  0  0  0
 11 12  1  0  0  0  0
 11 36  1  0  0  0  0
 11 37  1  0  0  0  0
 12 13  1  0  0  0  0
 12 38  1  0  0  0  0
 12 39  1  0  0  0  0
 13 18  1  0  0  0  0
 13 14  2  0  0  0  0
 14 15  1  0  0  0  0
 14 40  1  0  0  0  0
 15 16  2  0  0  0  0
 15 41  1  0  0  0  0
 16 17  1  0  0  0  0
 16 42  1  0  0  0  0
 17 18  2  0  0  0  0
 17 43  1  0  0  0  0
M  CHG  1   4   1
M  CHG  1  10   1
M  END
> <s_m_source_file>
AV-unprocessed.smi

> <i_m_source_file_index>
3303

> <i_lp_mmshare_version>
43012

> <i_f3d_flags>
0

> <s_epik_input>
W0NIM11bQ0BASF0xW0NIMl1OKFtDSDNdKVtDQEBIXShbQ0gzXSlbQ0gyXVtDQEhdMVtOSF1bQ0gyXVtDSDJdYzJbY0hdW2NIXVtjSF1bY0hdbjI=

> <s_epik_cmdline>
J2VwaWtfcHl0aG9uJywgJy1waCcsICc3LjAnLCAnLXRuJywgJzgnLCAnLW1hJywgJzIwMCcsICctbWV0YWxfYmluZGluZycsICctaW1hZScsICc8aW5maWxlLm1hZT4nLCAnLW9tYWUnLCAnPG91dGZpbGUubWFlPic=

> <r_epik_Ionization_Penalty>
0.0769462

> <r_epik_Ionization_Penalty_Charging>
0.0759813

> <r_epik_Ionization_Penalty_Neutral>
0.000964829

> <r_epik_State_Penalty>
0.0654373

> <r_epik_Charging_Adjusted_Penalty>
0.141419

> <i_epik_Tot_Q>
2

> <i_epik_Tot_abs_Q>
2

> <r_epik_Metal_State_Penalty>
0.0656439

> <b_epik_Metal_Only>
0

> <s_lp_Force_Field>
OPLS_2005

> <r_lp_Energy>
35.1377

> <b_lp_Chiralities_Consistent>
1

> <s_lp_Variant>
AV-unprocessed.smi:3303-7

> <Gold.Version>
5.8.1

> <Gold.Id.Protein>
6NUR|6NUR_protein|mol2

> <Gold.PLP.Fitness>
49.8109

> <Gold.PLP.PLP>
-36.3097

> <Gold.PLP.part.hbond>
-2.0000

> <Gold.PLP.part.metal>
0.0000

> <Gold.PLP.part.buried>
-4.9986

> <Gold.PLP.part.nonpolar>
-31.5581

> <Gold.PLP.part.repulsive>
1.5731

> <Gold.PLP.ligand.clash>
0.0000

> <Gold.PLP.ligand.torsion>
0.6986

> <Gold.PLP.Chemscore.Hbond>
4.0000

> <Gold.PLP.Chemscore.CHOScore>
0.9594

> <Gold.PLP.Chemscore.Metal>
0.0000

> <Gold.Chemscore.Hbonds>
donor molecule, donor type, donor heavy atom, donor atom, acceptor molecule, acceptor atom, score
      L1  H     4    45       P1 10175  1.69
      L1  H    10    35       P1  8028  2.00
      L1  C    17    43       P1  8029  0.86

> <Gold.PLP.Chemscore.Internal.Correction>
0.0202

> <Gold.Rescore>
     Score         DG    S(hbond)    S(metal)    S(lipo)     H(rot)  DE(clash)    DE(int)     intcor
     18.34     -19.27       1.52        0.00     104.55       1.37       0.07       0.86       ----

> <Gold.Chemscore.Fitness>
18.3426

> <Gold.Chemscore.DG>
-19.2716

> <Gold.Chemscore.ZeroCoef>
-5.4800

> <Gold.Chemscore.Hbond>
1.5201

> <Gold.Chemscore.Metal>
0.0000

> <Gold.Chemscore.Lipo>
104.5549

> <Gold.Chemscore.Internal_Hbond>
0.0000

> <Gold.Chemscore.DEClash>
0.0683

> <Gold.Chemscore.DEInternal>
0.8606

> <Gold.Chemscore.Rot>
1.3744

> <Gold.Chemscore.Internal.Correction>
   9.000000E+99

> <Gold.Chemscore.Hbonds>
donor molecule, donor type, donor heavy atom, donor atom, acceptor molecule, acceptor atom, score
      L1  H     4    45       P1 10175  0.68
      L1  H    10    35       P1  8028  1.00

> <Gold.Chemscore.Hbond.Weighted>
-5.0771

> <Gold.Chemscore.Metal.Weighted>
-0.0000

> <Gold.Chemscore.Lipo.Weighted>
-12.2329

> <Gold.Chemscore.Internal_Hbond.Weighted>
0.0000

> <Gold.Chemscore.DEClash.Weighted>
0.0683

> <Gold.Chemscore.DEInternal.Weighted>
0.8606

> <Gold.Chemscore.Rot.Weighted>
3.5185

> <Gold.Chemscore.Internal.Correction.Weighted>
   9.000000E+99

> <Gold.Protein.RotatedTorsions>
[ 6907 6896 6895 6894 ] final  123.40 input  -60.11 | X-H torsion
[ 7974 7965 7964 7962 ] final  -15.69 input  175.53 | X-H torsion
[ 8008 7997 7996 7995 ] final   64.09 input   59.86 | X-H torsion
[ 10167 10162 10161 10158 ] final  -68.06 input  -65.29 | X-H torsion
[ 10718 10713 10712 10709 ] final   52.98 input   66.30 | X-H torsion
[ 10763 10752 10751 10750 ] final  -40.41 input  -60.55 | X-H torsion
[ 11005 11000 10999 10996 ] final  144.91 input  -57.11 | X-H torsion

> <Gold.Protein.ActiveResidues>
 VAL166  LYS551  ARG553  GLY616  TRP617  ASP618  TYR619  PRO620  LYS621  CYS622 
 ASP623  PHE694  ASN695  SER759  ASP760  ASP761  ALA762  ILE779  LEU786  VAL792 
 PHE793  MET794  SER795  GLU796  ALA797  LYS798  CYS799  TRP800  GLU811  SER814 

> <Gold.Protein.RotatedAtoms>
  152.4165  133.7046  159.6443 H   0  0  0  0  0  0  0  0  0  0  0  0  # atno 6907 bound_to 6896
  150.8042  133.8530  159.3219 H   0  0  0  0  0  0  0  0  0  0  0  0  # atno 6908 bound_to 6896
  151.6259  135.1029  160.0163 H   0  0  0  0  0  0  0  0  0  0  0  0  # atno 6909 bound_to 6896
  146.2021  140.3529  142.8420 H   0  0  0  0  0  0  0  0  0  0  0  0  # atno 7974 bound_to 7965
  155.6406  140.3497  155.4713 H   0  0  0  0  0  0  0  0  0  0  0  0  # atno 8008 bound_to 7997
  155.9929  140.1197  157.0644 H   0  0  0  0  0  0  0  0  0  0  0  0  # atno 8009 bound_to 7997
  154.4224  140.1116  156.5577 H   0  0  0  0  0  0  0  0  0  0  0  0  # atno 8010 bound_to 7997
  140.5536  143.2312  151.6864 H   0  0  0  0  0  0  0  0  0  0  0  0  # atno 10167 bound_to 10162
  157.5125  130.8510  149.8453 H   0  0  0  0  0  0  0  0  0  0  0  0  # atno 10718 bound_to 10713
  153.9455  135.6756  153.4744 H   0  0  0  0  0  0  0  0  0  0  0  0  # atno 10763 bound_to 10752
  153.0910  135.4875  154.8686 H   0  0  0  0  0  0  0  0  0  0  0  0  # atno 10764 bound_to 10752
  154.7354  135.3148  154.8779 H   0  0  0  0  0  0  0  0  0  0  0  0  # atno 10765 bound_to 10752
  140.0670  134.9173  157.1281 H   0  0  0  0  0  0  0  0  0  0  0  0  # atno 11005 bound_to 11000
  144.8706  140.7267  143.6049 LP  0  0  0  0  0  0  0  0  0  0  0  0  # atno 17320 bound_to 7965
  145.3449  139.1722  143.4466 LP  0  0  0  0  0  0  0  0  0  0  0  0  # atno 17321 bound_to 7965
  139.5038  144.3778  152.0406 LP  0  0  0  0  0  0  0  0  0  0  0  0  # atno 17342 bound_to 10162
  140.2897  144.3767  150.6092 LP  0  0  0  0  0  0  0  0  0  0  0  0  # atno 17343 bound_to 10162
  156.0298  130.3768  150.1719 LP  0  0  0  0  0  0  0  0  0  0  0  0  # atno 17370 bound_to 10713
  156.9908  130.9893  151.3415 LP  0  0  0  0  0  0  0  0  0  0  0  0  # atno 17371 bound_to 10713
  140.3684  134.2417  155.7180 LP  0  0  0  0  0  0  0  0  0  0  0  0  # atno 17394 bound_to 11000
  141.1997  133.8006  157.0526 LP  0  0  0  0  0  0  0  0  0  0  0  0  # atno 17395 bound_to 11000

$$$$
