AV-unprocessed.smi:830|AV-procd|sdf|3870|dock1
  -GOLD-   22720 1323D 1   1.00000     0.00000
 Structure written by MMmdl.
 52 54  0  0  0  0  0  0  0  0  1 V2000
  146.8799  141.9953  153.7650 C   0  0  0  0  0  0  0  0  0  0  0  0
  147.3197  140.6183  153.2398 C   0  0  2  0  0  0  0  0  0  0  0  0
  146.1722  139.7169  153.1535 N   0  0  0  0  0  0  0  0  0  0  0  0
  146.1954  138.4605  152.6877 C   0  0  0  0  0  0  0  0  0  0  0  0
  147.2134  137.9007  152.2798 O   0  0  0  0  0  0  0  0  0  0  0  0
  144.9683  137.9154  152.7063 N   0  0  0  0  0  0  0  0  0  0  0  0
  144.5764  136.6451  152.2011 C   0  0  0  0  0  0  0  0  0  0  0  0
  145.3359  135.9894  151.2021 C   0  0  0  0  0  0  0  0  0  0  0  0
  144.9570  134.7030  150.7816 C   0  0  0  0  0  0  0  0  0  0  0  0
  143.8378  134.1091  151.3882 C   0  0  0  0  0  0  0  0  0  0  0  0
  143.1125  134.7152  152.3493 N   0  0  0  0  0  0  0  0  0  0  0  0
  143.4553  135.9628  152.7556 C   0  0  0  0  0  0  0  0  0  0  0  0
  142.6450  136.5542  153.7527 N   0  0  0  0  0  0  0  0  0  0  0  0
  141.8017  137.7029  153.4379 C   0  0  0  0  0  0  0  0  0  0  0  0
  141.4068  138.2879  154.7910 C   0  0  0  0  0  0  0  0  0  0  0  0
  142.6598  138.0484  155.6273 C   0  0  0  0  0  0  0  0  0  0  0  0
  143.2015  136.7188  155.0928 C   0  0  0  0  0  0  0  0  0  0  0  0
  148.4614  139.9916  154.0494 C   0  0  0  0  0  0  0  0  0  0  0  0
  148.3123  139.7206  155.2420 O   0  0  0  0  0  0  0  0  0  0  0  0
  149.6079  139.7758  153.3861 N   0  0  0  0  0  0  0  0  0  0  0  0
  150.8122  139.1835  153.9610 C   0  0  0  0  0  0  0  0  0  0  0  0
  150.5023  137.7970  154.5527 C   0  0  0  0  0  0  0  0  0  0  0  0
  150.5200  137.9766  156.0706 C   0  0  0  0  0  0  0  0  0  0  0  0
  151.5541  139.0742  156.3014 C   0  0  0  0  0  0  0  0  0  0  0  0
  151.3601  140.0344  155.1258 C   0  0  0  0  0  0  0  0  0  0  0  0
  147.7225  142.6847  153.8248 H   0  0  0  0  0  0  0  0  0  0  0  0
  146.4427  141.9179  154.7612 H   0  0  0  0  0  0  0  0  0  0  0  0
  146.1352  142.4483  153.1097 H   0  0  0  0  0  0  0  0  0  0  0  0
  147.7109  140.7592  152.2301 H   0  0  0  0  0  0  0  0  0  0  0  0
  145.2890  140.0879  153.4725 H   0  0  0  0  0  0  0  0  0  0  0  0
  144.2124  138.5258  152.9809 H   0  0  0  0  0  0  0  0  0  0  0  0
  146.2142  136.4451  150.7707 H   0  0  0  0  0  0  0  0  0  0  0  0
  145.5185  134.1800  150.0218 H   0  0  0  0  0  0  0  0  0  0  0  0
  143.5189  133.1187  151.0986 H   0  0  0  0  0  0  0  0  0  0  0  0
  142.3601  138.4485  152.8708 H   0  0  0  0  0  0  0  0  0  0  0  0
  140.9296  137.4085  152.8534 H   0  0  0  0  0  0  0  0  0  0  0  0
  141.1242  139.3392  154.7335 H   0  0  0  0  0  0  0  0  0  0  0  0
  140.5673  137.7308  155.2095 H   0  0  0  0  0  0  0  0  0  0  0  0
  143.3836  138.8420  155.4374 H   0  0  0  0  0  0  0  0  0  0  0  0
  142.4601  138.0250  156.6990 H   0  0  0  0  0  0  0  0  0  0  0  0
  142.8522  135.8984  155.7201 H   0  0  0  0  0  0  0  0  0  0  0  0
  144.2923  136.7047  155.0926 H   0  0  0  0  0  0  0  0  0  0  0  0
  149.6472  140.0329  152.4103 H   0  0  0  0  0  0  0  0  0  0  0  0
  151.5711  139.0709  153.1843 H   0  0  0  0  0  0  0  0  0  0  0  0
  149.5615  137.3733  154.1985 H   0  0  0  0  0  0  0  0  0  0  0  0
  151.2926  137.1014  154.2674 H   0  0  0  0  0  0  0  0  0  0  0  0
  149.5410  138.3144  156.4131 H   0  0  0  0  0  0  0  0  0  0  0  0
  150.7597  137.0541  156.5997 H   0  0  0  0  0  0  0  0  0  0  0  0
  151.4382  139.5654  157.2679 H   0  0  0  0  0  0  0  0  0  0  0  0
  152.5565  138.6459  156.2636 H   0  0  0  0  0  0  0  0  0  0  0  0
  152.2874  140.5429  154.8603 H   0  0  0  0  0  0  0  0  0  0  0  0
  150.6428  140.8058  155.4115 H   0  0  0  0  0  0  0  0  0  0  0  0
  1  2  1  0  0  0  0
  1 26  1  0  0  0  0
  1 27  1  0  0  0  0
  1 28  1  0  0  0  0
  2  3  1  0  0  0  0
  2 18  1  0  0  0  0
  2 29  1  0  0  0  0
  3  4  1  0  0  0  0
  3 30  1  0  0  0  0
  4  5  2  0  0  0  0
  4  6  1  0  0  0  0
  6  7  1  0  0  0  0
  6 31  1  0  0  0  0
  7 12  1  0  0  0  0
  7  8  2  0  0  0  0
  8  9  1  0  0  0  0
  8 32  1  0  0  0  0
  9 10  2  0  0  0  0
  9 33  1  0  0  0  0
 10 11  1  0  0  0  0
 10 34  1  0  0  0  0
 11 12  2  0  0  0  0
 12 13  1  0  0  0  0
 13 17  1  0  0  0  0
 13 14  1  0  0  0  0
 14 15  1  0  0  0  0
 14 35  1  0  0  0  0
 14 36  1  0  0  0  0
 15 16  1  0  0  0  0
 15 37  1  0  0  0  0
 15 38  1  0  0  0  0
 16 17  1  0  0  0  0
 16 39  1  0  0  0  0
 16 40  1  0  0  0  0
 17 41  1  0  0  0  0
 17 42  1  0  0  0  0
 18 19  2  0  0  0  0
 18 20  1  0  0  0  0
 20 21  1  0  0  0  0
 20 43  1  0  0  0  0
 21 25  1  0  0  0  0
 21 22  1  0  0  0  0
 21 44  1  0  0  0  0
 22 23  1  0  0  0  0
 22 45  1  0  0  0  0
 22 46  1  0  0  0  0
 23 24  1  0  0  0  0
 23 47  1  0  0  0  0
 23 48  1  0  0  0  0
 24 25  1  0  0  0  0
 24 49  1  0  0  0  0
 24 50  1  0  0  0  0
 25 51  1  0  0  0  0
 25 52  1  0  0  0  0
M  END
> <s_m_source_file>
AV-unprocessed.smi

> <i_m_source_file_index>
830

> <i_lp_mmshare_version>
43012

> <i_f3d_flags>
0

> <s_epik_input>
W0NIMl0xW0NIMl1bQ0gyXVtDSDJdW0NIXTFbTkhdQyg9TylbQ0BIXShbQ0gzXSlbTkhdQyg9TylbTkhdYzJbY0hdW2NIXVtjSF1uYzJOM1tDSDJdW0NIMl1bQ0gyXVtDSDJdMw==

> <s_epik_cmdline>
J2VwaWtfcHl0aG9uJywgJy1waCcsICc3LjAnLCAnLXRuJywgJzgnLCAnLW1hJywgJzIwMCcsICctbWV0YWxfYmluZGluZycsICctaW1hZScsICc8aW5maWxlLm1hZT4nLCAnLW9tYWUnLCAnPG91dGZpbGUubWFlPic=

> <r_lp_tautomer_probability>
1

> <r_epik_Ionization_Penalty>
0.0827694

> <r_epik_Ionization_Penalty_Charging>
0

> <r_epik_Ionization_Penalty_Neutral>
0.0827694

> <r_epik_State_Penalty>
0.0729202

> <r_epik_Charging_Adjusted_Penalty>
0.0729202

> <i_epik_Tot_Q>
0

> <i_epik_Tot_abs_Q>
0

> <r_epik_Metal_State_Penalty>
0.0639723

> <b_epik_Metal_Only>
0

> <s_lp_Force_Field>
OPLS_2005

> <r_lp_Energy>
46.0812

> <b_lp_Chiralities_Consistent>
1

> <s_lp_Variant>
AV-unprocessed.smi:830-1

> <Gold.Version>
5.8.1

> <Gold.Id.Protein>
6NUR|6NUR_protein|mol2

> <Gold.PLP.Fitness>
40.9915

> <Gold.PLP.PLP>
-33.7179

> <Gold.PLP.part.hbond>
-3.5298

> <Gold.PLP.part.metal>
0.0000

> <Gold.PLP.part.buried>
-6.4831

> <Gold.PLP.part.nonpolar>
-29.7064

> <Gold.PLP.part.repulsive>
5.3618

> <Gold.PLP.ligand.clash>
0.0000

> <Gold.PLP.ligand.torsion>
0.3372

> <Gold.PLP.Chemscore.Hbond>
2.4880

> <Gold.PLP.Chemscore.CHOScore>
0.0000

> <Gold.PLP.Chemscore.Metal>
0.0000

> <Gold.Chemscore.Hbonds>
donor molecule, donor type, donor heavy atom, donor atom, acceptor molecule, acceptor atom, score
      L1  H     3    30       P1 10175  0.59
      L1  H     6    31       P1 10175  0.64
      L1  H    20    43       P1  7957  0.29

> <Gold.PLP.Chemscore.Internal.Correction>
0.4841

> <Gold.Rescore>
     Score         DG    S(hbond)    S(metal)    S(lipo)     H(rot)  DE(clash)    DE(int)     intcor
     13.22     -18.74       2.64        0.00      73.80       1.64       2.36       3.16       ----

> <Gold.Chemscore.Fitness>
13.2170

> <Gold.Chemscore.DG>
-18.7364

> <Gold.Chemscore.ZeroCoef>
-5.4800

> <Gold.Chemscore.Hbond>
2.6393

> <Gold.Chemscore.Metal>
0.0000

> <Gold.Chemscore.Lipo>
73.8007

> <Gold.Chemscore.Internal_Hbond>
0.0000

> <Gold.Chemscore.DEClash>
2.3619

> <Gold.Chemscore.DEInternal>
3.1575

> <Gold.Chemscore.Rot>
1.6382

> <Gold.Chemscore.Internal.Correction>
   9.000000E+99

> <Gold.Chemscore.Hbonds>
donor molecule, donor type, donor heavy atom, donor atom, acceptor molecule, acceptor atom, score
      L1  H     3    30       P1 10175  0.60
      L1  H     6    31       P1 10175  0.60
      L1  H    20    43       P1  7957  0.29

> <Gold.Chemscore.Hbond.Weighted>
-8.8154

> <Gold.Chemscore.Metal.Weighted>
-0.0000

> <Gold.Chemscore.Lipo.Weighted>
-8.6347

> <Gold.Chemscore.Internal_Hbond.Weighted>
0.0000

> <Gold.Chemscore.DEClash.Weighted>
2.3619

> <Gold.Chemscore.DEInternal.Weighted>
3.1575

> <Gold.Chemscore.Rot.Weighted>
4.1937

> <Gold.Chemscore.Internal.Correction.Weighted>
   9.000000E+99

> <Gold.Protein.RotatedTorsions>
[ 6907 6896 6895 6894 ] final  -19.73 input  -60.11 | X-H torsion
[ 7974 7965 7964 7962 ] final -158.50 input  175.53 | X-H torsion
[ 8008 7997 7996 7995 ] final  156.99 input   59.86 | X-H torsion
[ 10167 10162 10161 10158 ] final -149.12 input  -65.29 | X-H torsion
[ 10718 10713 10712 10709 ] final   62.04 input   66.30 | X-H torsion
[ 10763 10752 10751 10750 ] final -122.49 input  -60.55 | X-H torsion
[ 11005 11000 10999 10996 ] final   34.23 input  -57.11 | X-H torsion

> <Gold.Protein.ActiveResidues>
 VAL166  LYS551  ARG553  GLY616  TRP617  ASP618  TYR619  PRO620  LYS621  CYS622 
 ASP623  PHE694  ASN695  SER759  ASP760  ASP761  ALA762  ILE779  LEU786  VAL792 
 PHE793  MET794  SER795  GLU796  ALA797  LYS798  CYS799  TRP800  GLU811  SER814 

> <Gold.Protein.RotatedAtoms>
  151.2588  135.0647  159.9089 H   0  0  0  0  0  0  0  0  0  0  0  0  # atno 6907 bound_to 6896
  152.5369  134.0253  159.8010 H   0  0  0  0  0  0  0  0  0  0  0  0  # atno 6908 bound_to 6896
  151.0473  133.5605  159.2676 H   0  0  0  0  0  0  0  0  0  0  0  0  # atno 6909 bound_to 6896
  144.7503  140.3819  143.6053 H   0  0  0  0  0  0  0  0  0  0  0  0  # atno 7974 bound_to 7965
  156.2390  140.1897  156.7040 H   0  0  0  0  0  0  0  0  0  0  0  0  # atno 8008 bound_to 7997
  154.6161  140.0615  156.9582 H   0  0  0  0  0  0  0  0  0  0  0  0  # atno 8009 bound_to 7997
  155.1937  140.3286  155.4357 H   0  0  0  0  0  0  0  0  0  0  0  0  # atno 8010 bound_to 7997
  139.7470  143.8575  152.2577 H   0  0  0  0  0  0  0  0  0  0  0  0  # atno 10167 bound_to 10162
  157.5872  130.9028  149.9537 H   0  0  0  0  0  0  0  0  0  0  0  0  # atno 10718 bound_to 10713
  154.8690  135.4131  154.2791 H   0  0  0  0  0  0  0  0  0  0  0  0  # atno 10763 bound_to 10752
  153.3687  135.7006  153.6660 H   0  0  0  0  0  0  0  0  0  0  0  0  # atno 10764 bound_to 10752
  153.5531  135.3625  155.2740 H   0  0  0  0  0  0  0  0  0  0  0  0  # atno 10765 bound_to 10752
  140.2549  134.3259  155.7877 H   0  0  0  0  0  0  0  0  0  0  0  0  # atno 11005 bound_to 11000
  145.6968  139.1652  143.2615 LP  0  0  0  0  0  0  0  0  0  0  0  0  # atno 17320 bound_to 7965
  146.1444  140.7013  142.9352 LP  0  0  0  0  0  0  0  0  0  0  0  0  # atno 17321 bound_to 7965
  139.8542  144.7149  150.9177 LP  0  0  0  0  0  0  0  0  0  0  0  0  # atno 17342 bound_to 10162
  140.7793  143.3873  151.1372 LP  0  0  0  0  0  0  0  0  0  0  0  0  # atno 17343 bound_to 10162
  156.0922  130.3662  150.0373 LP  0  0  0  0  0  0  0  0  0  0  0  0  # atno 17370 bound_to 10713
  156.8503  130.9456  151.3626 LP  0  0  0  0  0  0  0  0  0  0  0  0  # atno 17371 bound_to 10713
  141.2197  133.7375  156.9096 LP  0  0  0  0  0  0  0  0  0  0  0  0  # atno 17394 bound_to 11000
  140.1521  134.9223  157.2606 LP  0  0  0  0  0  0  0  0  0  0  0  0  # atno 17395 bound_to 11000

$$$$
