AV-unprocessed.smi:3322|AV-procd|sdf|12773|dock1
  -GOLD-   2272019113D 1   1.00000     0.00000
 Structure written by MMmdl.
 39 40  0  0  0  0  0  0  0  0  2 V2000
  148.2690  135.0376  155.7146 C   0  0  0  0  0  0  0  0  0  0  0  0
  148.5826  136.4993  155.3531 C   0  0  2  0  0  0  0  0  0  0  0  0
  147.6981  136.9242  154.2416 N   0  3  0  0  0  0  0  0  0  0  0  0
  146.2892  136.4916  154.3588 C   0  0  0  0  0  0  0  0  0  0  0  0
  145.4311  137.1068  153.2446 C   0  0  0  0  0  0  0  0  0  0  0  0
  144.0145  136.9475  153.5095 N   0  0  0  0  0  0  0  0  0  0  0  0
  142.9513  137.5956  152.9165 C   0  0  0  0  0  0  0  0  0  0  0  0
  141.8105  137.1129  153.4912 C   0  0  0  0  0  0  0  0  0  0  0  0
  142.2844  136.1589  154.4347 C   0  0  0  0  0  0  0  0  0  0  0  0
  143.6043  136.0615  154.4423 N   0  0  0  0  0  0  0  0  0  0  0  0
  150.0763  136.6519  154.9898 C   0  0  0  0  0  0  0  0  0  0  0  0
  150.7991  135.6583  155.0895 O   0  0  0  0  0  0  0  0  0  0  0  0
  150.5627  137.8516  154.5829 N   0  0  0  0  0  0  0  0  0  0  0  0
  149.8298  139.1216  154.5119 C   0  0  0  0  0  0  0  0  0  0  0  0
  150.4852  140.1227  155.4812 C   0  0  0  0  0  0  0  0  0  0  0  0
  151.8615  140.2857  155.1515 O   0  0  0  0  0  0  0  0  0  0  0  0
  152.5924  139.0640  155.1998 C   0  0  0  0  0  0  0  0  0  0  0  0
  151.9696  138.0557  154.2187 C   0  0  0  0  0  0  0  0  0  0  0  0
  148.8710  134.6882  156.5533 H   0  0  0  0  0  0  0  0  0  0  0  0
  148.4574  134.3692  154.8732 H   0  0  0  0  0  0  0  0  0  0  0  0
  147.2228  134.9224  155.9992 H   0  0  0  0  0  0  0  0  0  0  0  0
  148.3325  137.1371  156.2003 H   0  0  0  0  0  0  0  0  0  0  0  0
  147.7302  137.9320  154.1776 H   0  0  0  0  0  0  0  0  0  0  0  0
  146.2456  135.4027  154.3076 H   0  0  0  0  0  0  0  0  0  0  0  0
  145.8919  136.7843  155.3314 H   0  0  0  0  0  0  0  0  0  0  0  0
  145.6472  138.1713  153.1432 H   0  0  0  0  0  0  0  0  0  0  0  0
  145.6582  136.6434  152.2832 H   0  0  0  0  0  0  0  0  0  0  0  0
  143.0918  138.3384  152.1450 H   0  0  0  0  0  0  0  0  0  0  0  0
  140.7923  137.3969  153.2704 H   0  0  0  0  0  0  0  0  0  0  0  0
  141.7127  135.5385  155.1091 H   0  0  0  0  0  0  0  0  0  0  0  0
  149.8760  139.5045  153.4912 H   0  0  0  0  0  0  0  0  0  0  0  0
  148.7726  139.0436  154.7522 H   0  0  0  0  0  0  0  0  0  0  0  0
  149.9904  141.0917  155.4141 H   0  0  0  0  0  0  0  0  0  0  0  0
  150.3880  139.7853  156.5141 H   0  0  0  0  0  0  0  0  0  0  0  0
  153.6301  139.2623  154.9300 H   0  0  0  0  0  0  0  0  0  0  0  0
  152.5953  138.6691  156.2171 H   0  0  0  0  0  0  0  0  0  0  0  0
  152.5532  137.1345  154.2234 H   0  0  0  0  0  0  0  0  0  0  0  0
  152.0262  138.4412  153.1995 H   0  0  0  0  0  0  0  0  0  0  0  0
  148.0646  136.5347  153.3850 H   0  0  0  0  0  0  0  0  0  0  0  0
  1  2  1  0  0  0  0
  1 19  1  0  0  0  0
  1 20  1  0  0  0  0
  1 21  1  0  0  0  0
  2  3  1  0  0  0  0
  2 11  1  0  0  0  0
  2 22  1  0  0  0  0
  3  4  1  0  0  0  0
  3 23  1  0  0  0  0
  3 39  1  0  0  0  0
  4  5  1  0  0  0  0
  4 24  1  0  0  0  0
  4 25  1  0  0  0  0
  5  6  1  0  0  0  0
  5 26  1  0  0  0  0
  5 27  1  0  0  0  0
  6 10  1  0  0  0  0
  6  7  1  0  0  0  0
  7  8  2  0  0  0  0
  7 28  1  0  0  0  0
  8  9  1  0  0  0  0
  8 29  1  0  0  0  0
  9 10  2  0  0  0  0
  9 30  1  0  0  0  0
 11 12  2  0  0  0  0
 11 13  1  0  0  0  0
 13 18  1  0  0  0  0
 13 14  1  0  0  0  0
 14 15  1  0  0  0  0
 14 31  1  0  0  0  0
 14 32  1  0  0  0  0
 15 16  1  0  0  0  0
 15 33  1  0  0  0  0
 15 34  1  0  0  0  0
 16 17  1  0  0  0  0
 17 18  1  0  0  0  0
 17 35  1  0  0  0  0
 17 36  1  0  0  0  0
 18 37  1  0  0  0  0
 18 38  1  0  0  0  0
M  CHG  1   3   1
M  END
> <s_m_source_file>
AV-unprocessed.smi

> <i_m_source_file_index>
3322

> <i_lp_mmshare_version>
43012

> <i_f3d_flags>
0

> <s_epik_input>
W0NIMl0xW0NIMl1PW0NIMl1bQ0gyXU4xQyg9TylbQ0BIXShbQ0gzXSlbTkhdW0NIMl1bQ0gyXW4yW2NIXVtjSF1bY0hdbjI=

> <s_epik_cmdline>
J2VwaWtfcHl0aG9uJywgJy1waCcsICc3LjAnLCAnLXRuJywgJzgnLCAnLW1hJywgJzIwMCcsICctbWV0YWxfYmluZGluZycsICctaW1hZScsICc8aW5maWxlLm1hZT4nLCAnLW9tYWUnLCAnPG91dGZpbGUubWFlPic=

> <r_lp_tautomer_probability>
1

> <r_epik_Ionization_Penalty>
0.3254

> <r_epik_Ionization_Penalty_Charging>
0.325398

> <r_epik_Ionization_Penalty_Neutral>
2.29478e-06

> <r_epik_State_Penalty>
0.320187

> <r_epik_Charging_Adjusted_Penalty>
0.645585

> <i_epik_Tot_Q>
1

> <i_epik_Tot_abs_Q>
1

> <r_epik_Metal_State_Penalty>
0.320558

> <b_epik_Metal_Only>
0

> <s_lp_Force_Field>
OPLS_2005

> <r_lp_Energy>
25.684

> <b_lp_Chiralities_Consistent>
1

> <s_lp_Variant>
AV-unprocessed.smi:3322-1

> <Gold.Version>
5.8.1

> <Gold.Id.Protein>
6NUR|6NUR_protein|mol2

> <Gold.PLP.Fitness>
46.1037

> <Gold.PLP.PLP>
-26.4248

> <Gold.PLP.part.hbond>
-3.0000

> <Gold.PLP.part.metal>
0.0000

> <Gold.PLP.part.buried>
-4.4254

> <Gold.PLP.part.nonpolar>
-20.1097

> <Gold.PLP.part.repulsive>
0.2208

> <Gold.PLP.ligand.clash>
0.0000

> <Gold.PLP.ligand.torsion>
0.4121

> <Gold.PLP.Chemscore.Hbond>
3.8240

> <Gold.PLP.Chemscore.CHOScore>
2.9936

> <Gold.PLP.Chemscore.Metal>
0.0000

> <Gold.Chemscore.Hbonds>
donor molecule, donor type, donor heavy atom, donor atom, acceptor molecule, acceptor atom, score
      L1  H     3    39       P1  7948  2.00
      P1  H  7989  7998       L1    16  0.76
      P1  H 10752 10765       L1    12  0.41
      L1  C     7    28       P1 10171  1.00
      L1  C     7    28       P1 10175  0.93
      L1  C     9    30       P1 11000  0.85

> <Gold.PLP.Chemscore.Internal.Correction>
0.0502

> <Gold.Rescore>
     Score         DG    S(hbond)    S(metal)    S(lipo)     H(rot)  DE(clash)    DE(int)     intcor
     12.60     -12.94       1.99        0.00      48.77       1.91       0.00       0.34       ----

> <Gold.Chemscore.Fitness>
12.5955

> <Gold.Chemscore.DG>
-12.9430

> <Gold.Chemscore.ZeroCoef>
-5.4800

> <Gold.Chemscore.Hbond>
1.9897

> <Gold.Chemscore.Metal>
0.0000

> <Gold.Chemscore.Lipo>
48.7677

> <Gold.Chemscore.Internal_Hbond>
0.0000

> <Gold.Chemscore.DEClash>
0.0048

> <Gold.Chemscore.DEInternal>
0.3426

> <Gold.Chemscore.Rot>
1.9095

> <Gold.Chemscore.Internal.Correction>
   9.000000E+99

> <Gold.Chemscore.Hbonds>
donor molecule, donor type, donor heavy atom, donor atom, acceptor molecule, acceptor atom, score
      L1  H     3    39       P1  7948  1.00
      P1  H  7989  7998       L1    16  0.14
      P1  H 10752 10765       L1    12  0.39

> <Gold.Chemscore.Hbond.Weighted>
-6.6456

> <Gold.Chemscore.Metal.Weighted>
-0.0000

> <Gold.Chemscore.Lipo.Weighted>
-5.7058

> <Gold.Chemscore.Internal_Hbond.Weighted>
0.0000

> <Gold.Chemscore.DEClash.Weighted>
0.0048

> <Gold.Chemscore.DEInternal.Weighted>
0.3426

> <Gold.Chemscore.Rot.Weighted>
4.8884

> <Gold.Chemscore.Internal.Correction.Weighted>
   9.000000E+99

> <Gold.Protein.RotatedTorsions>
[ 6907 6896 6895 6894 ] final -169.63 input  -60.11 | X-H torsion
[ 7974 7965 7964 7962 ] final -121.24 input  175.53 | X-H torsion
[ 8008 7997 7996 7995 ] final   61.89 input   59.86 | X-H torsion
[ 10167 10162 10161 10158 ] final  158.46 input  -65.29 | X-H torsion
[ 10718 10713 10712 10709 ] final -173.07 input   66.30 | X-H torsion
[ 10763 10752 10751 10750 ] final  163.49 input  -60.55 | X-H torsion
[ 11005 11000 10999 10996 ] final -139.74 input  -57.11 | X-H torsion

> <Gold.Protein.ActiveResidues>
 VAL166  LYS551  ARG553  GLY616  TRP617  ASP618  TYR619  PRO620  LYS621  CYS622 
 ASP623  PHE694  ASN695  SER759  ASP760  ASP761  ALA762  ILE779  LEU786  VAL792 
 PHE793  MET794  SER795  GLU796  ALA797  LYS798  CYS799  TRP800  GLU811  SER814 

> <Gold.Protein.RotatedAtoms>
  151.4948  133.3517  159.2858 H   0  0  0  0  0  0  0  0  0  0  0  0  # atno 6907 bound_to 6896
  150.8811  134.8204  159.7236 H   0  0  0  0  0  0  0  0  0  0  0  0  # atno 6908 bound_to 6896
  152.4763  134.4845  159.9728 H   0  0  0  0  0  0  0  0  0  0  0  0  # atno 6909 bound_to 6896
  145.0425  140.8156  143.4257 H   0  0  0  0  0  0  0  0  0  0  0  0  # atno 7974 bound_to 7965
  155.6055  140.3494  155.4606 H   0  0  0  0  0  0  0  0  0  0  0  0  # atno 8008 bound_to 7997
  156.0195  140.1250  157.0397 H   0  0  0  0  0  0  0  0  0  0  0  0  # atno 8009 bound_to 7997
  154.4310  140.1065  156.5929 H   0  0  0  0  0  0  0  0  0  0  0  0  # atno 8010 bound_to 7997
  139.4827  144.4822  151.8427 H   0  0  0  0  0  0  0  0  0  0  0  0  # atno 10167 bound_to 10162
  156.7649  130.9427  151.3119 H   0  0  0  0  0  0  0  0  0  0  0  0  # atno 10718 bound_to 10713
  154.2946  135.2760  155.2639 H   0  0  0  0  0  0  0  0  0  0  0  0  # atno 10763 bound_to 10752
  154.5103  135.5784  153.6603 H   0  0  0  0  0  0  0  0  0  0  0  0  # atno 10764 bound_to 10752
  152.9909  135.6179  154.3112 H   0  0  0  0  0  0  0  0  0  0  0  0  # atno 10765 bound_to 10752
  140.8490  134.2309  157.4770 H   0  0  0  0  0  0  0  0  0  0  0  0  # atno 11005 bound_to 11000
  145.1629  139.2448  143.5382 LP  0  0  0  0  0  0  0  0  0  0  0  0  # atno 17320 bound_to 7965
  146.3511  140.1361  142.8596 LP  0  0  0  0  0  0  0  0  0  0  0  0  # atno 17321 bound_to 7965
  140.4299  144.2129  150.5888 LP  0  0  0  0  0  0  0  0  0  0  0  0  # atno 17342 bound_to 10162
  140.4789  143.2386  151.8983 LP  0  0  0  0  0  0  0  0  0  0  0  0  # atno 17343 bound_to 10162
  157.6717  130.9057  150.0057 LP  0  0  0  0  0  0  0  0  0  0  0  0  # atno 17370 bound_to 10713
  156.1315  130.3643  149.9724 LP  0  0  0  0  0  0  0  0  0  0  0  0  # atno 17371 bound_to 10713
  139.8704  134.9674  156.4595 LP  0  0  0  0  0  0  0  0  0  0  0  0  # atno 17394 bound_to 11000
  140.8811  133.7917  155.9467 LP  0  0  0  0  0  0  0  0  0  0  0  0  # atno 17395 bound_to 11000

$$$$
