AV-unprocessed.smi:2959|AV-procd|sdf|11310|dock4
  -GOLD-   2272016213D 1   1.00000     0.00000
 Structure written by MMmdl.
 46 48  0  0  0  0  0  0  0  0  2 V2000
  148.9172  132.9707  153.4678 C   0  0  0  0  0  0  0  0  0  0  0  0
  149.3038  133.8910  154.6205 C   0  0  0  0  0  0  0  0  0  0  0  0
  148.9008  133.6592  155.7597 O   0  0  0  0  0  0  0  0  0  0  0  0
  150.0876  134.9334  154.3115 N   0  0  0  0  0  0  0  0  0  0  0  0
  150.5652  135.9133  155.2770 C   0  0  0  0  0  0  0  0  0  0  0  0
  151.1978  137.1142  154.5621 C   0  0  0  0  0  0  0  0  0  0  0  0
  150.2336  138.2497  154.4415 C   0  0  0  0  0  0  0  0  0  0  0  0
  149.1022  138.2591  153.6812 N   0  3  0  0  0  0  0  0  0  0  0  0
  148.4504  139.4856  153.8182 C   0  0  0  0  0  0  0  0  0  0  0  0
  147.2771  139.9642  153.2432 C   0  0  0  0  0  0  0  0  0  0  0  0
  146.8879  141.2733  153.5955 C   0  0  0  0  0  0  0  0  0  0  0  0
  147.6544  142.0529  154.4862 C   0  0  0  0  0  0  0  0  0  0  0  0
  148.8424  141.5567  155.0628 C   0  0  0  0  0  0  0  0  0  0  0  0
  149.2188  140.2611  154.7103 C   0  0  0  0  0  0  0  0  0  0  0  0
  150.3050  139.4577  155.0726 N   0  0  0  0  0  0  0  0  0  0  0  0
  151.3124  139.9907  156.0012 C   0  0  0  0  0  0  0  0  0  0  0  0
  150.6764  140.5792  157.2684 C   0  0  0  0  0  0  0  0  0  0  0  0
  151.6391  140.5694  158.3143 O   0  0  0  0  0  0  0  0  0  0  0  0
  151.7739  141.6974  159.0931 C   0  0  0  0  0  0  0  0  0  0  0  0
  151.4271  142.9280  158.4980 C   0  0  0  0  0  0  0  0  0  0  0  0
  151.5318  144.1322  159.2199 C   0  0  0  0  0  0  0  0  0  0  0  0
  151.9883  144.1168  160.5507 C   0  0  0  0  0  0  0  0  0  0  0  0
  152.3390  142.8960  161.1564 C   0  0  0  0  0  0  0  0  0  0  0  0
  152.2338  141.6910  160.4344 C   0  0  0  0  0  0  0  0  0  0  0  0
  148.3844  133.5279  152.6967 H   0  0  0  0  0  0  0  0  0  0  0  0
  148.2696  132.1652  153.8154 H   0  0  0  0  0  0  0  0  0  0  0  0
  149.8063  132.5249  153.0212 H   0  0  0  0  0  0  0  0  0  0  0  0
  150.3766  135.0490  153.3509 H   0  0  0  0  0  0  0  0  0  0  0  0
  149.7343  136.2451  155.9018 H   0  0  0  0  0  0  0  0  0  0  0  0
  151.2943  135.4388  155.9355 H   0  0  0  0  0  0  0  0  0  0  0  0
  152.0833  137.4527  155.1011 H   0  0  0  0  0  0  0  0  0  0  0  0
  151.5317  136.8259  153.5646 H   0  0  0  0  0  0  0  0  0  0  0  0
  146.6887  139.3698  152.5596 H   0  0  0  0  0  0  0  0  0  0  0  0
  145.9840  141.6884  153.1734 H   0  0  0  0  0  0  0  0  0  0  0  0
  147.3251  143.0521  154.7321 H   0  0  0  0  0  0  0  0  0  0  0  0
  149.4238  142.1623  155.7422 H   0  0  0  0  0  0  0  0  0  0  0  0
  152.0239  139.2016  156.2463 H   0  0  0  0  0  0  0  0  0  0  0  0
  151.8767  140.7616  155.4759 H   0  0  0  0  0  0  0  0  0  0  0  0
  150.3423  141.5992  157.0718 H   0  0  0  0  0  0  0  0  0  0  0  0
  149.8049  139.9861  157.5493 H   0  0  0  0  0  0  0  0  0  0  0  0
  151.0761  142.9486  157.4767 H   0  0  0  0  0  0  0  0  0  0  0  0
  151.2622  145.0678  158.7524 H   0  0  0  0  0  0  0  0  0  0  0  0
  152.0691  145.0398  161.1058 H   0  0  0  0  0  0  0  0  0  0  0  0
  152.6903  142.8832  162.1777 H   0  0  0  0  0  0  0  0  0  0  0  0
  152.5139  140.7751  160.9316 H   0  0  0  0  0  0  0  0  0  0  0  0
  148.8021  137.4818  153.1068 H   0  0  0  0  0  0  0  0  0  0  0  0
  1  2  1  0  0  0  0
  1 25  1  0  0  0  0
  1 26  1  0  0  0  0
  1 27  1  0  0  0  0
  2  3  2  0  0  0  0
  2  4  1  0  0  0  0
  4  5  1  0  0  0  0
  4 28  1  0  0  0  0
  5  6  1  0  0  0  0
  5 29  1  0  0  0  0
  5 30  1  0  0  0  0
  6  7  1  0  0  0  0
  6 31  1  0  0  0  0
  6 32  1  0  0  0  0
  7 15  1  0  0  0  0
  7  8  2  0  0  0  0
  8  9  1  0  0  0  0
  8 46  1  0  0  0  0
  9 14  2  0  0  0  0
  9 10  1  0  0  0  0
 10 11  2  0  0  0  0
 10 33  1  0  0  0  0
 11 12  1  0  0  0  0
 11 34  1  0  0  0  0
 12 13  2  0  0  0  0
 12 35  1  0  0  0  0
 13 14  1  0  0  0  0
 13 36  1  0  0  0  0
 14 15  1  0  0  0  0
 15 16  1  0  0  0  0
 16 17  1  0  0  0  0
 16 37  1  0  0  0  0
 16 38  1  0  0  0  0
 17 18  1  0  0  0  0
 17 39  1  0  0  0  0
 17 40  1  0  0  0  0
 18 19  1  0  0  0  0
 19 24  1  0  0  0  0
 19 20  2  0  0  0  0
 20 21  1  0  0  0  0
 20 41  1  0  0  0  0
 21 22  2  0  0  0  0
 21 42  1  0  0  0  0
 22 23  1  0  0  0  0
 22 43  1  0  0  0  0
 23 24  2  0  0  0  0
 23 44  1  0  0  0  0
 24 45  1  0  0  0  0
M  CHG  1   8   1
M  END
> <s_m_source_file>
AV-unprocessed.smi

> <i_m_source_file_index>
2959

> <i_lp_mmshare_version>
43012

> <i_f3d_flags>
0

> <s_epik_input>
W0NIM11DKD1PKVtOSF1bQ0gyXVtDSDJdYyhuMSluKGMoYzEyKVtjSF1bY0hdW2NIXVtjSF0yKVtDSDJdW0NIMl1PYzNbY0hdW2NIXVtjSF1bY0hdW2NIXTM=

> <s_epik_cmdline>
J2VwaWtfcHl0aG9uJywgJy1waCcsICc3LjAnLCAnLXRuJywgJzgnLCAnLW1hJywgJzIwMCcsICctbWV0YWxfYmluZGluZycsICctaW1hZScsICc8aW5maWxlLm1hZT4nLCAnLW9tYWUnLCAnPG91dGZpbGUubWFlPic=

> <r_lp_tautomer_probability>
1

> <r_epik_Ionization_Penalty>
1.04698

> <r_epik_Ionization_Penalty_Charging>
1.04698

> <r_epik_Ionization_Penalty_Neutral>
3.05925e-07

> <r_epik_State_Penalty>
1.0995

> <r_epik_Charging_Adjusted_Penalty>
2.14648

> <i_epik_Tot_Q>
1

> <i_epik_Tot_abs_Q>
1

> <r_epik_Metal_State_Penalty>
1.19436

> <b_epik_Metal_Only>
0

> <s_lp_Force_Field>
OPLS_2005

> <r_lp_Energy>
17.9669

> <b_lp_Chiralities_Consistent>
1

> <s_lp_Variant>
AV-unprocessed.smi:2959-2

> <Gold.Version>
5.8.1

> <Gold.Id.Protein>
6NUR|6NUR_protein|mol2

> <Gold.PLP.Fitness>
61.1019

> <Gold.PLP.PLP>
-56.9164

> <Gold.PLP.part.hbond>
-3.8400

> <Gold.PLP.part.metal>
0.0000

> <Gold.PLP.part.buried>
2.2344

> <Gold.PLP.part.nonpolar>
-55.2767

> <Gold.PLP.part.repulsive>
0.1559

> <Gold.PLP.ligand.clash>
0.0000

> <Gold.PLP.ligand.torsion>
1.2795

> <Gold.PLP.Chemscore.Hbond>
2.2153

> <Gold.PLP.Chemscore.CHOScore>
0.0000

> <Gold.PLP.Chemscore.Metal>
0.0000

> <Gold.Chemscore.Hbonds>
donor molecule, donor type, donor heavy atom, donor atom, acceptor molecule, acceptor atom, score
      L1  H     8    46       P1  7948  2.00

> <Gold.PLP.Chemscore.Internal.Correction>
0.0985

> <Gold.Rescore>
     Score         DG    S(hbond)    S(metal)    S(lipo)     H(rot)  DE(clash)    DE(int)     intcor
     17.76     -18.87       0.95        0.00     135.67       2.21       0.05       1.07       ----

> <Gold.Chemscore.Fitness>
17.7603

> <Gold.Chemscore.DG>
-18.8721

> <Gold.Chemscore.ZeroCoef>
-5.4800

> <Gold.Chemscore.Hbond>
0.9505

> <Gold.Chemscore.Metal>
0.0000

> <Gold.Chemscore.Lipo>
135.6691

> <Gold.Chemscore.Internal_Hbond>
0.0000

> <Gold.Chemscore.DEClash>
0.0466

> <Gold.Chemscore.DEInternal>
1.0652

> <Gold.Chemscore.Rot>
2.2093

> <Gold.Chemscore.Internal.Correction>
   9.000000E+99

> <Gold.Chemscore.Hbonds>
donor molecule, donor type, donor heavy atom, donor atom, acceptor molecule, acceptor atom, score
      L1  H     8    46       P1  7948  0.98

> <Gold.Chemscore.Hbond.Weighted>
-3.1747

> <Gold.Chemscore.Metal.Weighted>
-0.0000

> <Gold.Chemscore.Lipo.Weighted>
-15.8733

> <Gold.Chemscore.Internal_Hbond.Weighted>
0.0000

> <Gold.Chemscore.DEClash.Weighted>
0.0466

> <Gold.Chemscore.DEInternal.Weighted>
1.0652

> <Gold.Chemscore.Rot.Weighted>
5.6559

> <Gold.Chemscore.Internal.Correction.Weighted>
   9.000000E+99

> <Gold.Protein.RotatedTorsions>
[ 6907 6896 6895 6894 ] final  137.31 input  -60.11 | X-H torsion
[ 7974 7965 7964 7962 ] final -162.14 input  175.53 | X-H torsion
[ 8008 7997 7996 7995 ] final  -51.78 input   59.86 | X-H torsion
[ 10167 10162 10161 10158 ] final  -64.56 input  -65.29 | X-H torsion
[ 10718 10713 10712 10709 ] final   61.52 input   66.30 | X-H torsion
[ 10763 10752 10751 10750 ] final  -89.02 input  -60.55 | X-H torsion
[ 11005 11000 10999 10996 ] final   73.76 input  -57.11 | X-H torsion

> <Gold.Protein.ActiveResidues>
 VAL166  LYS551  ARG553  GLY616  TRP617  ASP618  TYR619  PRO620  LYS621  CYS622 
 ASP623  PHE694  ASN695  SER759  ASP760  ASP761  ALA762  ILE779  LEU786  VAL792 
 PHE793  MET794  SER795  GLU796  ALA797  LYS798  CYS799  TRP800  GLU811  SER814 

> <Gold.Protein.RotatedAtoms>
  152.2795  133.5457  159.5488 H   0  0  0  0  0  0  0  0  0  0  0  0  # atno 6907 bound_to 6896
  150.7190  134.0584  159.3831 H   0  0  0  0  0  0  0  0  0  0  0  0  # atno 6908 bound_to 6896
  151.8495  135.0563  160.0508 H   0  0  0  0  0  0  0  0  0  0  0  0  # atno 6909 bound_to 6896
  144.7367  140.3295  143.6155 H   0  0  0  0  0  0  0  0  0  0  0  0  # atno 7974 bound_to 7965
  154.4091  140.1239  156.4885 H   0  0  0  0  0  0  0  0  0  0  0  0  # atno 8008 bound_to 7997
  155.7014  140.3494  155.4915 H   0  0  0  0  0  0  0  0  0  0  0  0  # atno 8009 bound_to 7997
  155.9382  140.1082  157.1067 H   0  0  0  0  0  0  0  0  0  0  0  0  # atno 8010 bound_to 7997
  140.5792  143.2325  151.6378 H   0  0  0  0  0  0  0  0  0  0  0  0  # atno 10167 bound_to 10162
  157.5834  130.8999  149.9472 H   0  0  0  0  0  0  0  0  0  0  0  0  # atno 10718 bound_to 10713
  154.6508  135.5356  153.7900 H   0  0  0  0  0  0  0  0  0  0  0  0  # atno 10763 bound_to 10752
  153.0385  135.6482  154.1019 H   0  0  0  0  0  0  0  0  0  0  0  0  # atno 10764 bound_to 10752
  154.0936  135.2938  155.3246 H   0  0  0  0  0  0  0  0  0  0  0  0  # atno 10765 bound_to 10752
  139.9424  134.7375  156.1066 H   0  0  0  0  0  0  0  0  0  0  0  0  # atno 11005 bound_to 11000
  145.7486  139.1786  143.2335 LP  0  0  0  0  0  0  0  0  0  0  0  0  # atno 17320 bound_to 7965
  146.1078  140.7465  142.9518 LP  0  0  0  0  0  0  0  0  0  0  0  0  # atno 17321 bound_to 7965
  139.5160  144.3361  152.0783 LP  0  0  0  0  0  0  0  0  0  0  0  0  # atno 17342 bound_to 10162
  140.2508  144.4170  150.6222 LP  0  0  0  0  0  0  0  0  0  0  0  0  # atno 17343 bound_to 10162
  156.0881  130.3666  150.0447 LP  0  0  0  0  0  0  0  0  0  0  0  0  # atno 17370 bound_to 10713
  156.8582  130.9482  151.3620 LP  0  0  0  0  0  0  0  0  0  0  0  0  # atno 17371 bound_to 10713
  141.1063  133.6659  156.2872 LP  0  0  0  0  0  0  0  0  0  0  0  0  # atno 17394 bound_to 11000
  140.5919  134.5642  157.5501 LP  0  0  0  0  0  0  0  0  0  0  0  0  # atno 17395 bound_to 11000

$$$$
