AV-unprocessed.smi:39|AV-procd|sdf|360|dock6
  -GOLD-   2262016203D 1   1.00000     0.00000
 Structure written by MMmdl.
 31 32  0  0  0  0  0  0  0  0  4 V2000
  150.6676  142.8155  159.0084 C   0  0  0  0  0  0  0  0  0  0  0  0
  150.9553  141.9063  157.8262 C   0  0  0  0  0  0  0  0  0  0  0  0
  150.1844  141.9009  156.7159 C   0  0  0  0  0  0  0  0  0  0  0  0
  150.4518  141.0712  155.6393 N   0  0  0  0  0  0  0  0  0  0  0  0
  149.5871  141.0706  154.3939 C   0  0  2  0  0  0  0  0  0  0  0  0
  148.2973  141.8728  154.6319 C   0  0  0  0  0  0  0  0  0  0  0  0
  147.2177  140.9126  154.1592 C   0  0  2  0  0  0  0  0  0  0  0  0
  145.9363  141.1132  154.8399 N   0  0  0  0  0  0  0  0  0  0  0  0
  145.4153  142.2294  154.7157 N   0  3  0  0  0  0  0  0  0  0  0  0
  144.9924  143.2859  154.7102 N   0  5  0  0  0  0  0  0  0  0  0  0
  147.8476  139.5584  154.4855 C   0  0  1  0  0  0  0  0  0  0  0  0
  147.2436  138.3879  153.6955 C   0  0  0  0  0  0  0  0  0  0  0  0
  147.3718  138.6270  152.3106 O   0  0  0  0  0  0  0  0  0  0  0  0
  149.1972  139.7639  154.0816 O   0  0  0  0  0  0  0  0  0  0  0  0
  151.5602  140.1861  155.6976 C   0  0  0  0  0  0  0  0  0  0  0  0
  151.7670  139.4550  154.7284 O   0  0  0  0  0  0  0  0  0  0  0  0
  152.3435  140.1847  156.8132 N   0  5  0  0  0  0  0  0  0  0  0  0
  152.1067  140.9978  157.8821 C   0  0  0  0  0  0  0  0  0  0  0  0
  152.8248  140.9897  158.8813 O   0  0  0  0  0  0  0  0  0  0  0  0
  150.2184  141.4602  153.5935 H   0  0  0  0  0  0  0  0  0  0  0  0
  147.1070  141.0016  153.0763 H   0  0  0  0  0  0  0  0  0  0  0  0
  147.7970  139.3772  155.5611 H   0  0  0  0  0  0  0  0  0  0  0  0
  149.7904  143.4368  158.8270 H   0  0  0  0  0  0  0  0  0  0  0  0
  151.5154  143.4748  159.1967 H   0  0  0  0  0  0  0  0  0  0  0  0
  150.4838  142.2257  159.9067 H   0  0  0  0  0  0  0  0  0  0  0  0
  149.3382  142.5695  156.6836 H   0  0  0  0  0  0  0  0  0  0  0  0
  148.1862  142.0945  155.6951 H   0  0  0  0  0  0  0  0  0  0  0  0
  148.3128  142.8106  154.0757 H   0  0  0  0  0  0  0  0  0  0  0  0
  147.7790  137.4650  153.9199 H   0  0  0  0  0  0  0  0  0  0  0  0
  146.1976  138.2286  153.9590 H   0  0  0  0  0  0  0  0  0  0  0  0
  147.7683  137.8664  151.9133 H   0  0  0  0  0  0  0  0  0  0  0  0
  1  2  1  0  0  0  0
  1 23  1  0  0  0  0
  1 24  1  0  0  0  0
  1 25  1  0  0  0  0
  2 18  1  0  0  0  0
  2  3  2  0  0  0  0
  3  4  1  0  0  0  0
  3 26  1  0  0  0  0
  4  5  1  0  0  0  0
  4 15  1  0  0  0  0
  5 20  1  0  0  0  0
  5 14  1  0  0  0  0
  5  6  1  0  0  0  0
  6  7  1  0  0  0  0
  6 27  1  0  0  0  0
  6 28  1  0  0  0  0
  7 21  1  0  0  0  0
  7  8  1  0  0  0  0
  7 11  1  0  0  0  0
  8  9  2  0  0  0  0
  9 10  2  0  0  0  0
 11 22  1  0  0  0  0
 11 12  1  0  0  0  0
 11 14  1  0  0  0  0
 12 13  1  0  0  0  0
 12 29  1  0  0  0  0
 12 30  1  0  0  0  0
 13 31  1  0  0  0  0
 15 16  2  0  0  0  0
 15 17  1  0  0  0  0
 17 18  1  0  0  0  0
 18 19  2  0  0  0  0
M  CHG  1   9   1
M  CHG  1  10  -1
M  CHG  1  17  -1
M  END
> <s_m_source_file>
AV-unprocessed.smi

> <i_m_source_file_index>
39

> <i_lp_mmshare_version>
43012

> <i_f3d_flags>
0

> <s_epik_input>
Tz1jMVtuSF1jKD1PKW4oW2NIXWMxW0NIM10pW0NASF0yW0NIMl1bQ0BIXShOPVtOK109W04tXSlbQ0BIXShPMilbQ0gyXVtPSF0=

> <s_epik_cmdline>
J2VwaWtfcHl0aG9uJywgJy1waCcsICc3LjAnLCAnLXRuJywgJzgnLCAnLW1hJywgJzIwMCcsICctbWV0YWxfYmluZGluZycsICctaW1hZScsICc8aW5maWxlLm1hZT4nLCAnLW9tYWUnLCAnPG91dGZpbGUubWFlPic=

> <r_lp_tautomer_probability>
0.999537

> <r_epik_Ionization_Penalty>
3.6393

> <r_epik_Ionization_Penalty_Charging>
9.76484e-08

> <r_epik_Ionization_Penalty_Neutral>
3.6393

> <r_epik_State_Penalty>
3.63887

> <r_epik_Charging_Adjusted_Penalty>
3.63887

> <i_epik_Tot_Q>
-1

> <i_epik_Tot_abs_Q>
3

> <r_epik_Metal_State_Penalty>
0.225911

> <b_epik_Metal_Only>
1

> <s_epik_Chemistry_Notes>
This compound contains an acetal/aminal-like group ( X-CH(R)-Y where X, Y are N, S, or O) that may be acid/base labile, releasing an aldehyde.

> <s_lp_Force_Field>
OPLS_2005

> <r_lp_Energy>
32.3737

> <b_lp_Chiralities_Consistent>
1

> <s_lp_Variant>
AV-unprocessed.smi:39-10

> <Gold.Version>
5.8.1

> <Gold.Id.Protein>
6NUR|6NUR_protein|mol2

> <Gold.PLP.Fitness>
39.8364

> <Gold.PLP.PLP>
-26.1211

> <Gold.PLP.part.hbond>
-4.0000

> <Gold.PLP.part.metal>
0.0000

> <Gold.PLP.part.buried>
-1.3987

> <Gold.PLP.part.nonpolar>
-20.9371

> <Gold.PLP.part.repulsive>
1.6389

> <Gold.PLP.ligand.clash>
0.0000

> <Gold.PLP.ligand.torsion>
0.2108

> <Gold.PLP.Chemscore.Hbond>
3.7000

> <Gold.PLP.Chemscore.CHOScore>
1.0000

> <Gold.PLP.Chemscore.Metal>
0.0000

> <Gold.Chemscore.Hbonds>
donor molecule, donor type, donor heavy atom, donor atom, acceptor molecule, acceptor atom, score
      L1  H    13    31       P1  7948  1.00
      P1  H  7989  7998       L1    16  0.70
      P1  H  7997  8010       L1    17  2.00
      L1  C     3    26       P1  8028  1.00

> <Gold.PLP.Chemscore.Internal.Correction>
0.0369

> <Gold.Rescore>
     Score         DG    S(hbond)    S(metal)    S(lipo)     H(rot)  DE(clash)    DE(int)     intcor
      7.06      -8.93       1.81        0.00      37.39       2.72       0.24       1.64       ----

> <Gold.Chemscore.Fitness>
7.0560

> <Gold.Chemscore.DG>
-8.9337

> <Gold.Chemscore.ZeroCoef>
-5.4800

> <Gold.Chemscore.Hbond>
1.8057

> <Gold.Chemscore.Metal>
0.0000

> <Gold.Chemscore.Lipo>
37.3852

> <Gold.Chemscore.Internal_Hbond>
0.0000

> <Gold.Chemscore.DEClash>
0.2425

> <Gold.Chemscore.DEInternal>
1.6352

> <Gold.Chemscore.Rot>
2.7153

> <Gold.Chemscore.Internal.Correction>
   9.000000E+99

> <Gold.Chemscore.Hbonds>
donor molecule, donor type, donor heavy atom, donor atom, acceptor molecule, acceptor atom, score
      L1  H    13    31       P1  7948  0.95
      P1  H  7989  7998       L1    16  0.07
      P1  H  7997  8010       L1    17  0.53

> <Gold.Chemscore.Hbond.Weighted>
-6.0309

> <Gold.Chemscore.Metal.Weighted>
-0.0000

> <Gold.Chemscore.Lipo.Weighted>
-4.3741

> <Gold.Chemscore.Internal_Hbond.Weighted>
0.0000

> <Gold.Chemscore.DEClash.Weighted>
0.2425

> <Gold.Chemscore.DEInternal.Weighted>
1.6352

> <Gold.Chemscore.Rot.Weighted>
6.9512

> <Gold.Chemscore.Internal.Correction.Weighted>
   9.000000E+99

> <Gold.Protein.RotatedTorsions>
[ 6907 6896 6895 6894 ] final   54.13 input  -60.11 | X-H torsion
[ 7974 7965 7964 7962 ] final   70.07 input  175.53 | X-H torsion
[ 8008 7997 7996 7995 ] final   64.75 input   59.86 | X-H torsion
[ 10167 10162 10161 10158 ] final   70.48 input  -65.29 | X-H torsion
[ 10718 10713 10712 10709 ] final -133.82 input   66.30 | X-H torsion
[ 10763 10752 10751 10750 ] final  154.19 input  -60.55 | X-H torsion
[ 11005 11000 10999 10996 ] final  153.38 input  -57.11 | X-H torsion

> <Gold.Protein.ActiveResidues>
 VAL166  LYS551  ARG553  GLY616  TRP617  ASP618  TYR619  PRO620  LYS621  CYS622 
 ASP623  PHE694  ASN695  SER759  ASP760  ASP761  ALA762  ILE779  LEU786  VAL792 
 PHE793  MET794  SER795  GLU796  ALA797  LYS798  CYS799  TRP800  GLU811  SER814 

> <Gold.Protein.RotatedAtoms>
  152.3407  134.7138  160.0264 H   0  0  0  0  0  0  0  0  0  0  0  0  # atno 6907 bound_to 6896
  151.7524  133.3323  159.3403 H   0  0  0  0  0  0  0  0  0  0  0  0  # atno 6908 bound_to 6896
  150.7478  134.6113  159.6132 H   0  0  0  0  0  0  0  0  0  0  0  0  # atno 6909 bound_to 6896
  145.7827  139.2895  143.1256 H   0  0  0  0  0  0  0  0  0  0  0  0  # atno 7974 bound_to 7965
  155.6509  140.3497  155.4748 H   0  0  0  0  0  0  0  0  0  0  0  0  # atno 8008 bound_to 7997
  155.9848  140.1182  157.0716 H   0  0  0  0  0  0  0  0  0  0  0  0  # atno 8009 bound_to 7997
  154.4202  140.1131  156.5471 H   0  0  0  0  0  0  0  0  0  0  0  0  # atno 8010 bound_to 7997
  140.0565  144.5268  150.7325 H   0  0  0  0  0  0  0  0  0  0  0  0  # atno 10167 bound_to 10162
  156.2489  130.7141  151.1032 H   0  0  0  0  0  0  0  0  0  0  0  0  # atno 10718 bound_to 10713
  154.1484  135.2816  155.3142 H   0  0  0  0  0  0  0  0  0  0  0  0  # atno 10763 bound_to 10752
  154.6235  135.5459  153.7605 H   0  0  0  0  0  0  0  0  0  0  0  0  # atno 10764 bound_to 10752
  153.0228  135.6445  154.1629 H   0  0  0  0  0  0  0  0  0  0  0  0  # atno 10765 bound_to 10752
  140.1393  134.8750  157.2309 H   0  0  0  0  0  0  0  0  0  0  0  0  # atno 11005 bound_to 11000
  146.0058  140.8480  142.9996 LP  0  0  0  0  0  0  0  0  0  0  0  0  # atno 17320 bound_to 7965
  144.6794  140.2418  143.7343 LP  0  0  0  0  0  0  0  0  0  0  0  0  # atno 17321 bound_to 7965
  140.7192  143.2572  151.4334 LP  0  0  0  0  0  0  0  0  0  0  0  0  # atno 17342 bound_to 10162
  139.5920  144.1478  152.2099 LP  0  0  0  0  0  0  0  0  0  0  0  0  # atno 17343 bound_to 10162
  157.7206  131.0683  150.6150 LP  0  0  0  0  0  0  0  0  0  0  0  0  # atno 17370 bound_to 10713
  156.6228  130.4410  149.5816 LP  0  0  0  0  0  0  0  0  0  0  0  0  # atno 17371 bound_to 10713
  140.2743  134.3424  155.7363 LP  0  0  0  0  0  0  0  0  0  0  0  0  # atno 17394 bound_to 11000
  141.2183  133.7441  156.9269 LP  0  0  0  0  0  0  0  0  0  0  0  0  # atno 17395 bound_to 11000

$$$$
