AV-unprocessed.smi:102|AV-procd|sdf|974|dock7
  -GOLD-   2262017533D 1   1.00000     0.00000
 Structure written by MMmdl.
 43 44  0  0  0  0  0  0  0  0  2 V2000
  151.9227  145.5033  159.5833 C   0  0  0  0  0  0  0  0  0  0  0  0
  151.6162  144.0234  159.7778 C   0  0  0  0  0  0  0  0  0  0  0  0
  150.4761  143.6325  160.0292 O   0  0  0  0  0  0  0  0  0  0  0  0
  152.7038  143.2506  159.6468 O   0  0  0  0  0  0  0  0  0  0  0  0
  152.6033  141.8496  159.8498 C   0  0  0  0  0  0  0  0  0  0  0  0
  152.3864  141.1201  158.5149 C   0  0  1  0  0  0  0  0  0  0  0  0
  153.2507  139.9866  158.4518 O   0  0  0  0  0  0  0  0  0  0  0  0
  152.4993  138.8366  158.2241 C   0  0  1  0  0  0  0  0  0  0  0  0
  153.1428  137.6919  158.9789 N   0  0  0  0  0  0  0  0  0  0  0  0
  153.4402  137.8271  160.3253 C   0  0  0  0  0  0  0  0  0  0  0  0
  154.0836  136.8582  161.0069 C   0  0  0  0  0  0  0  0  0  0  0  0
  154.3557  137.0261  162.3126 F   0  0  0  0  0  0  0  0  0  0  0  0
  154.4985  135.6420  160.3128 C   0  0  0  0  0  0  0  0  0  0  0  0
  155.0575  134.7468  160.9445 O   0  0  0  0  0  0  0  0  0  0  0  0
  154.2491  135.5584  158.9745 N   0  5  0  0  0  0  0  0  0  0  0  0
  153.6130  136.5453  158.2769 C   0  0  0  0  0  0  0  0  0  0  0  0
  153.4239  136.4808  157.0625 O   0  0  0  0  0  0  0  0  0  0  0  0
  151.0604  139.1294  158.6537 C   0  0  2  0  0  0  0  0  0  0  0  0
  150.1382  138.2989  157.9591 O   0  0  0  0  0  0  0  0  0  0  0  0
  149.8953  137.0526  158.3968 C   0  0  0  0  0  0  0  0  0  0  0  0
  148.8523  136.3340  157.5519 C   0  0  0  0  0  0  0  0  0  0  0  0
  150.4216  136.5099  159.3687 O   0  0  0  0  0  0  0  0  0  0  0  0
  150.9494  140.6078  158.3032 C   0  0  2  0  0  0  0  0  0  0  0  0
  150.5755  140.7725  156.9375 O   0  0  0  0  0  0  0  0  0  0  0  0
  149.2809  140.7379  156.5776 C   0  0  0  0  0  0  0  0  0  0  0  0
  149.0834  141.0340  155.0972 C   0  0  0  0  0  0  0  0  0  0  0  0
  148.3272  140.5052  157.3204 O   0  0  0  0  0  0  0  0  0  0  0  0
  152.9092  145.6444  159.1408 H   0  0  0  0  0  0  0  0  0  0  0  0
  151.8977  146.0212  160.5419 H   0  0  0  0  0  0  0  0  0  0  0  0
  151.1834  145.9588  158.9245 H   0  0  0  0  0  0  0  0  0  0  0  0
  153.5203  141.4922  160.3201 H   0  0  0  0  0  0  0  0  0  0  0  0
  151.7808  141.6272  160.5312 H   0  0  0  0  0  0  0  0  0  0  0  0
  152.6707  141.8022  157.7129 H   0  0  0  0  0  0  0  0  0  0  0  0
  152.5347  138.6084  157.1588 H   0  0  0  0  0  0  0  0  0  0  0  0
  153.1755  138.7285  160.8532 H   0  0  0  0  0  0  0  0  0  0  0  0
  150.9618  139.0100  159.7307 H   0  0  0  0  0  0  0  0  0  0  0  0
  149.0625  136.4701  156.4908 H   0  0  0  0  0  0  0  0  0  0  0  0
  147.8593  136.7305  157.7628 H   0  0  0  0  0  0  0  0  0  0  0  0
  148.8525  135.2657  157.7695 H   0  0  0  0  0  0  0  0  0  0  0  0
  150.2289  141.1027  158.9565 H   0  0  0  0  0  0  0  0  0  0  0  0
  149.7384  140.4049  154.4938 H   0  0  0  0  0  0  0  0  0  0  0  0
  149.3152  142.0783  154.8874 H   0  0  0  0  0  0  0  0  0  0  0  0
  148.0519  140.8420  154.8015 H   0  0  0  0  0  0  0  0  0  0  0  0
  1  2  1  0  0  0  0
  1 28  1  0  0  0  0
  1 29  1  0  0  0  0
  1 30  1  0  0  0  0
  2  3  2  0  0  0  0
  2  4  1  0  0  0  0
  4  5  1  0  0  0  0
  5  6  1  0  0  0  0
  5 31  1  0  0  0  0
  5 32  1  0  0  0  0
  6 23  1  0  0  0  0
  6  7  1  0  0  0  0
  6 33  1  0  0  0  0
  7  8  1  0  0  0  0
  8  9  1  0  0  0  0
  8 18  1  0  0  0  0
  8 34  1  0  0  0  0
  9 16  1  0  0  0  0
  9 10  1  0  0  0  0
 10 11  2  0  0  0  0
 10 35  1  0  0  0  0
 11 12  1  0  0  0  0
 11 13  1  0  0  0  0
 13 14  2  0  0  0  0
 13 15  1  0  0  0  0
 15 16  1  0  0  0  0
 16 17  2  0  0  0  0
 18 19  1  0  0  0  0
 18 23  1  0  0  0  0
 18 36  1  0  0  0  0
 19 20  1  0  0  0  0
 20 21  1  0  0  0  0
 20 22  2  0  0  0  0
 21 37  1  0  0  0  0
 21 38  1  0  0  0  0
 21 39  1  0  0  0  0
 23 24  1  0  0  0  0
 23 40  1  0  0  0  0
 24 25  1  0  0  0  0
 25 26  1  0  0  0  0
 25 27  2  0  0  0  0
 26 41  1  0  0  0  0
 26 42  1  0  0  0  0
 26 43  1  0  0  0  0
M  CHG  1  15  -1
M  END
> <s_m_source_file>
AV-unprocessed.smi

> <i_m_source_file_index>
102

> <i_lp_mmshare_version>
43012

> <i_f3d_flags>
0

> <s_epik_input>
W0NIM11DKD1PKU9bQ0gyXVtDQEBIXTFPW0NASF0oW0NAQEhdKE9DKD1PKVtDSDNdKVtDQEhdMU9DKD1PKVtDSDNdKW4yW2NIXWMoRiljKD1PKVtuSF1jMj1P

> <s_epik_cmdline>
J2VwaWtfcHl0aG9uJywgJy1waCcsICc3LjAnLCAnLXRuJywgJzgnLCAnLW1hJywgJzIwMCcsICctbWV0YWxfYmluZGluZycsICctaW1hZScsICc8aW5maWxlLm1hZT4nLCAnLW9tYWUnLCAnPG91dGZpbGUubWFlPic=

> <r_epik_Ionization_Penalty>
1.40304

> <r_epik_Ionization_Penalty_Charging>
1.43915e-08

> <r_epik_Ionization_Penalty_Neutral>
1.40304

> <r_epik_State_Penalty>
1.48536

> <r_epik_Charging_Adjusted_Penalty>
1.48536

> <i_epik_Tot_Q>
-1

> <i_epik_Tot_abs_Q>
1

> <r_epik_Metal_State_Penalty>
0.00663881

> <b_epik_Metal_Only>
0

> <s_epik_Chemistry_Notes>
This compound has an ester and may undergo hydrolysis at high or low pH. This compound contains an acetal/aminal-like group ( X-CH(R)-Y where X, Y are N, S, or O) that may be acid/base labile, releasing an aldehyde.

> <s_lp_Force_Field>
OPLS_2005

> <r_lp_Energy>
27.5776

> <b_lp_Chiralities_Consistent>
1

> <s_lp_Variant>
AV-unprocessed.smi:102-30

> <Gold.Version>
5.8.1

> <Gold.Id.Protein>
6NUR|6NUR_protein|mol2

> <Gold.PLP.Fitness>
45.0093

> <Gold.PLP.PLP>
-38.8934

> <Gold.PLP.part.hbond>
-3.8805

> <Gold.PLP.part.metal>
0.0000

> <Gold.PLP.part.buried>
-5.4927

> <Gold.PLP.part.nonpolar>
-28.2629

> <Gold.PLP.part.repulsive>
0.1603

> <Gold.PLP.ligand.clash>
0.0000

> <Gold.PLP.ligand.torsion>
1.3758

> <Gold.PLP.Chemscore.Hbond>
2.8775

> <Gold.PLP.Chemscore.CHOScore>
0.0000

> <Gold.PLP.Chemscore.Metal>
0.0000

> <Gold.Chemscore.Hbonds>
donor molecule, donor type, donor heavy atom, donor atom, acceptor molecule, acceptor atom, score
      P1  H  6896  6907       L1    22  1.00
      P1  H  7997  8010       L1     7  1.00
      P1  H 10752 10765       L1    17  0.99

> <Gold.PLP.Chemscore.Internal.Correction>
0.2350

> <Gold.Rescore>
     Score         DG    S(hbond)    S(metal)    S(lipo)     H(rot)  DE(clash)    DE(int)     intcor
      8.20     -11.23       2.80        0.00      56.63       4.00       0.07       2.97       ----

> <Gold.Chemscore.Fitness>
8.1970

> <Gold.Chemscore.DG>
-11.2339

> <Gold.Chemscore.ZeroCoef>
-5.4800

> <Gold.Chemscore.Hbond>
2.8011

> <Gold.Chemscore.Metal>
0.0000

> <Gold.Chemscore.Lipo>
56.6293

> <Gold.Chemscore.Internal_Hbond>
0.0000

> <Gold.Chemscore.DEClash>
0.0698

> <Gold.Chemscore.DEInternal>
2.9671

> <Gold.Chemscore.Rot>
3.9951

> <Gold.Chemscore.Internal.Correction>
   9.000000E+99

> <Gold.Chemscore.Hbonds>
donor molecule, donor type, donor heavy atom, donor atom, acceptor molecule, acceptor atom, score
      P1  H  6896  6907       L1    22  1.00
      P1  H  7997  8010       L1     7  0.54
      P1  H 10752 10765       L1    17  0.91

> <Gold.Chemscore.Hbond.Weighted>
-9.3557

> <Gold.Chemscore.Metal.Weighted>
-0.0000

> <Gold.Chemscore.Lipo.Weighted>
-6.6256

> <Gold.Chemscore.Internal_Hbond.Weighted>
0.0000

> <Gold.Chemscore.DEClash.Weighted>
0.0698

> <Gold.Chemscore.DEInternal.Weighted>
2.9671

> <Gold.Chemscore.Rot.Weighted>
10.2274

> <Gold.Chemscore.Internal.Correction.Weighted>
   9.000000E+99

> <Gold.Protein.RotatedTorsions>
[ 6907 6896 6895 6894 ] final  -37.58 input  -60.11 | X-H torsion
[ 7974 7965 7964 7962 ] final  -66.27 input  175.53 | X-H torsion
[ 8008 7997 7996 7995 ] final   32.09 input   59.86 | X-H torsion
[ 10167 10162 10161 10158 ] final   21.40 input  -65.29 | X-H torsion
[ 10718 10713 10712 10709 ] final  -96.95 input   66.30 | X-H torsion
[ 10763 10752 10751 10750 ] final -115.45 input  -60.55 | X-H torsion
[ 11005 11000 10999 10996 ] final -103.26 input  -57.11 | X-H torsion

> <Gold.Protein.ActiveResidues>
 VAL166  LYS551  ARG553  GLY616  TRP617  ASP618  TYR619  PRO620  LYS621  CYS622 
 ASP623  PHE694  ASN695  SER759  ASP760  ASP761  ALA762  ILE779  LEU786  VAL792 
 PHE793  MET794  SER795  GLU796  ALA797  LYS798  CYS799  TRP800  GLU811  SER814 

> <Gold.Protein.RotatedAtoms>
  151.0130  134.9411  159.8017 H   0  0  0  0  0  0  0  0  0  0  0  0  # atno 6907 bound_to 6896
  152.5307  134.3003  159.9086 H   0  0  0  0  0  0  0  0  0  0  0  0  # atno 6908 bound_to 6896
  151.3010  133.4081  159.2674 H   0  0  0  0  0  0  0  0  0  0  0  0  # atno 6909 bound_to 6896
  145.7439  140.8941  143.0515 H   0  0  0  0  0  0  0  0  0  0  0  0  # atno 7974 bound_to 7965
  155.1168  140.3244  155.4507 H   0  0  0  0  0  0  0  0  0  0  0  0  # atno 8008 bound_to 7997
  156.2674  140.2034  156.6239 H   0  0  0  0  0  0  0  0  0  0  0  0  # atno 8009 bound_to 7997
  154.6714  140.0536  157.0156 H   0  0  0  0  0  0  0  0  0  0  0  0  # atno 8010 bound_to 7997
  140.5430  143.9644  150.6530 H   0  0  0  0  0  0  0  0  0  0  0  0  # atno 10167 bound_to 10162
  156.0073  130.5173  150.6302 H   0  0  0  0  0  0  0  0  0  0  0  0  # atno 10718 bound_to 10713
  154.8481  135.4381  154.1664 H   0  0  0  0  0  0  0  0  0  0  0  0  # atno 10763 bound_to 10752
  153.2788  135.6952  153.7412 H   0  0  0  0  0  0  0  0  0  0  0  0  # atno 10764 bound_to 10752
  153.6624  135.3433  155.3106 H   0  0  0  0  0  0  0  0  0  0  0  0  # atno 10765 bound_to 10752
  141.1153  133.8625  157.1464 H   0  0  0  0  0  0  0  0  0  0  0  0  # atno 11005 bound_to 11000
  144.6864  139.9498  143.7477 LP  0  0  0  0  0  0  0  0  0  0  0  0  # atno 17320 bound_to 7965
  146.0422  139.3432  143.0690 LP  0  0  0  0  0  0  0  0  0  0  0  0  # atno 17321 bound_to 7965
  140.3050  143.3235  152.0935 LP  0  0  0  0  0  0  0  0  0  0  0  0  # atno 17342 bound_to 10162
  139.4996  144.6673  151.6327 LP  0  0  0  0  0  0  0  0  0  0  0  0  # atno 17343 bound_to 10162
  157.4101  131.0822  151.1228 LP  0  0  0  0  0  0  0  0  0  0  0  0  # atno 17370 bound_to 10713
  157.1862  130.6331  149.5689 LP  0  0  0  0  0  0  0  0  0  0  0  0  # atno 17371 bound_to 10713
  140.0072  135.0003  157.0318 LP  0  0  0  0  0  0  0  0  0  0  0  0  # atno 17394 bound_to 11000
  140.4662  134.1434  155.7197 LP  0  0  0  0  0  0  0  0  0  0  0  0  # atno 17395 bound_to 11000

$$$$
