AV-unprocessed.smi:685|AV-procd|sdf|3333|dock5
  -GOLD-   22720 0303D 1   1.00000     0.00000
 Structure written by MMmdl.
 50 51  0  0  0  0  0  0  0  0  1 V2000
  146.0392  129.8822  152.1775 C   0  0  0  0  0  0  0  0  0  0  0  0
  145.6088  131.1949  151.5868 C   0  0  0  0  0  0  0  0  0  0  0  0
  144.8571  131.1970  150.4988 N   0  0  0  0  0  0  0  0  0  0  0  0
  144.6382  132.5005  150.2345 N   0  0  0  0  0  0  0  0  0  0  0  0
  143.8331  132.8670  149.0855 C   0  0  0  0  0  0  0  0  0  0  0  0
  145.2541  133.3244  151.1567 C   0  0  0  0  0  0  0  0  0  0  0  0
  145.1515  134.8140  151.0818 C   0  0  0  0  0  0  0  0  0  0  0  0
  145.8946  132.5116  152.0542 C   0  0  0  0  0  0  0  0  0  0  0  0
  146.7099  132.8907  153.2645 C   0  0  0  0  0  0  0  0  0  0  0  0
  148.2141  133.0291  152.9437 C   0  0  2  0  0  0  0  0  0  0  0  0
  149.0349  131.8128  153.4026 C   0  0  0  0  0  0  0  0  0  0  0  0
  148.7586  134.2302  153.5707 N   0  0  0  0  0  0  0  0  0  0  0  0
  149.0155  134.3776  154.8801 C   0  0  0  0  0  0  0  0  0  0  0  0
  148.8160  133.4920  155.7121 O   0  0  0  0  0  0  0  0  0  0  0  0
  149.5794  135.7333  155.3136 C   0  0  0  0  0  0  0  0  0  0  0  0
  150.9145  136.0665  154.6223 C   0  0  0  0  0  0  0  0  0  0  0  0
  151.2513  137.5683  154.6462 C   0  0  0  0  0  0  0  0  0  0  0  0
  151.8215  138.0724  155.9753 C   0  0  0  0  0  0  0  0  0  0  0  0
  151.6168  139.5899  155.9387 C   0  0  0  0  0  0  0  0  0  0  0  0
  150.4306  139.8388  154.9950 C   0  0  0  0  0  0  0  0  0  0  0  0
  150.0317  138.4692  154.4317 C   0  0  0  0  0  0  0  0  0  0  0  0
  147.0014  129.9714  152.6817 H   0  0  0  0  0  0  0  0  0  0  0  0
  146.1399  129.1125  151.4118 H   0  0  0  0  0  0  0  0  0  0  0  0
  145.3136  129.5299  152.9107 H   0  0  0  0  0  0  0  0  0  0  0  0
  143.0565  133.5693  149.3893 H   0  0  0  0  0  0  0  0  0  0  0  0
  143.3579  131.9865  148.6505 H   0  0  0  0  0  0  0  0  0  0  0  0
  144.4651  133.3374  148.3320 H   0  0  0  0  0  0  0  0  0  0  0  0
  145.8026  135.2970  151.8097 H   0  0  0  0  0  0  0  0  0  0  0  0
  144.1305  135.1392  151.2819 H   0  0  0  0  0  0  0  0  0  0  0  0
  145.4347  135.1746  150.0929 H   0  0  0  0  0  0  0  0  0  0  0  0
  146.3395  133.8311  153.6732 H   0  0  0  0  0  0  0  0  0  0  0  0
  146.5790  132.1654  154.0676 H   0  0  0  0  0  0  0  0  0  0  0  0
  148.3362  133.1219  151.8629 H   0  0  0  0  0  0  0  0  0  0  0  0
  148.7125  130.9002  152.9011 H   0  0  0  0  0  0  0  0  0  0  0  0
  148.9403  131.6532  154.4772 H   0  0  0  0  0  0  0  0  0  0  0  0
  150.0934  131.9471  153.1775 H   0  0  0  0  0  0  0  0  0  0  0  0
  148.9517  135.0120  152.9616 H   0  0  0  0  0  0  0  0  0  0  0  0
  148.8465  136.5135  155.1030 H   0  0  0  0  0  0  0  0  0  0  0  0
  149.7144  135.7172  156.3955 H   0  0  0  0  0  0  0  0  0  0  0  0
  151.7220  135.5229  155.1151 H   0  0  0  0  0  0  0  0  0  0  0  0
  150.8951  135.7109  153.5909 H   0  0  0  0  0  0  0  0  0  0  0  0
  151.9732  137.7847  153.8568 H   0  0  0  0  0  0  0  0  0  0  0  0
  151.2570  137.6490  156.8074 H   0  0  0  0  0  0  0  0  0  0  0  0
  152.8685  137.8013  156.1143 H   0  0  0  0  0  0  0  0  0  0  0  0
  151.4431  139.9969  156.9353 H   0  0  0  0  0  0  0  0  0  0  0  0
  152.5089  140.0743  155.5394 H   0  0  0  0  0  0  0  0  0  0  0  0
  149.5931  140.3074  155.5129 H   0  0  0  0  0  0  0  0  0  0  0  0
  150.7313  140.5097  154.1895 H   0  0  0  0  0  0  0  0  0  0  0  0
  149.7327  138.5227  153.3844 H   0  0  0  0  0  0  0  0  0  0  0  0
  149.1813  138.0826  154.9956 H   0  0  0  0  0  0  0  0  0  0  0  0
  1  2  1  0  0  0  0
  1 22  1  0  0  0  0
  1 23  1  0  0  0  0
  1 24  1  0  0  0  0
  2  8  1  0  0  0  0
  2  3  2  0  0  0  0
  3  4  1  0  0  0  0
  4  5  1  0  0  0  0
  4  6  1  0  0  0  0
  5 25  1  0  0  0  0
  5 26  1  0  0  0  0
  5 27  1  0  0  0  0
  6  7  1  0  0  0  0
  6  8  2  0  0  0  0
  7 28  1  0  0  0  0
  7 29  1  0  0  0  0
  7 30  1  0  0  0  0
  8  9  1  0  0  0  0
  9 10  1  0  0  0  0
  9 31  1  0  0  0  0
  9 32  1  0  0  0  0
 10 11  1  0  0  0  0
 10 12  1  0  0  0  0
 10 33  1  0  0  0  0
 11 34  1  0  0  0  0
 11 35  1  0  0  0  0
 11 36  1  0  0  0  0
 12 13  1  0  0  0  0
 12 37  1  0  0  0  0
 13 14  2  0  0  0  0
 13 15  1  0  0  0  0
 15 16  1  0  0  0  0
 15 38  1  0  0  0  0
 15 39  1  0  0  0  0
 16 17  1  0  0  0  0
 16 40  1  0  0  0  0
 16 41  1  0  0  0  0
 17 21  1  0  0  0  0
 17 18  1  0  0  0  0
 17 42  1  0  0  0  0
 18 19  1  0  0  0  0
 18 43  1  0  0  0  0
 18 44  1  0  0  0  0
 19 20  1  0  0  0  0
 19 45  1  0  0  0  0
 19 46  1  0  0  0  0
 20 21  1  0  0  0  0
 20 47  1  0  0  0  0
 20 48  1  0  0  0  0
 21 49  1  0  0  0  0
 21 50  1  0  0  0  0
M  END
> <s_m_source_file>
AV-unprocessed.smi

> <i_m_source_file_index>
685

> <i_lp_mmshare_version>
43012

> <i_f3d_flags>
0

> <s_epik_input>
W0NIM11jMW5uKFtDSDNdKWMoW0NIM10pYzFbQ0gyXVtDQEhdKFtDSDNdKVtOSF1DKD1PKVtDSDJdW0NIMl1bQ0hdMltDSDJdW0NIMl1bQ0gyXVtDSDJdMg==

> <s_epik_cmdline>
J2VwaWtfcHl0aG9uJywgJy1waCcsICc3LjAnLCAnLXRuJywgJzgnLCAnLW1hJywgJzIwMCcsICctbWV0YWxfYmluZGluZycsICctaW1hZScsICc8aW5maWxlLm1hZT4nLCAnLW9tYWUnLCAnPG91dGZpbGUubWFlPic=

> <r_lp_tautomer_probability>
1

> <r_epik_Ionization_Penalty>
0.0131144

> <r_epik_Ionization_Penalty_Charging>
0

> <r_epik_Ionization_Penalty_Neutral>
0.0131144

> <r_epik_State_Penalty>
0.0101889

> <r_epik_Charging_Adjusted_Penalty>
0.0101889

> <i_epik_Tot_Q>
0

> <i_epik_Tot_abs_Q>
0

> <r_epik_Metal_State_Penalty>
0.00996794

> <b_epik_Metal_Only>
0

> <s_lp_Force_Field>
OPLS_2005

> <r_lp_Energy>
16.135

> <b_lp_Chiralities_Consistent>
1

> <s_lp_Variant>
AV-unprocessed.smi:685-1

> <Gold.Version>
5.8.1

> <Gold.Id.Protein>
6NUR|6NUR_protein|mol2

> <Gold.PLP.Fitness>
40.9358

> <Gold.PLP.PLP>
-40.7009

> <Gold.PLP.part.hbond>
-1.5643

> <Gold.PLP.part.metal>
0.0000

> <Gold.PLP.part.buried>
-2.7725

> <Gold.PLP.part.nonpolar>
-36.8585

> <Gold.PLP.part.repulsive>
0.1169

> <Gold.PLP.ligand.clash>
0.0000

> <Gold.PLP.ligand.torsion>
1.3986

> <Gold.PLP.Chemscore.Hbond>
1.0000

> <Gold.PLP.Chemscore.CHOScore>
0.0000

> <Gold.PLP.Chemscore.Metal>
0.0000

> <Gold.Chemscore.Hbonds>
donor molecule, donor type, donor heavy atom, donor atom, acceptor molecule, acceptor atom, score
      L1  H    12    37       P1  7948  0.85

> <Gold.PLP.Chemscore.Internal.Correction>
0.0322

> <Gold.Rescore>
     Score         DG    S(hbond)    S(metal)    S(lipo)     H(rot)  DE(clash)    DE(int)     intcor
     12.39     -15.20       0.45        0.00     103.70       1.53       0.11       2.70       ----

> <Gold.Chemscore.Fitness>
12.3899

> <Gold.Chemscore.DG>
-15.1992

> <Gold.Chemscore.ZeroCoef>
-5.4800

> <Gold.Chemscore.Hbond>
0.4476

> <Gold.Chemscore.Metal>
0.0000

> <Gold.Chemscore.Lipo>
103.6973

> <Gold.Chemscore.Internal_Hbond>
0.0000

> <Gold.Chemscore.DEClash>
0.1104

> <Gold.Chemscore.DEInternal>
2.6989

> <Gold.Chemscore.Rot>
1.5268

> <Gold.Chemscore.Internal.Correction>
   9.000000E+99

> <Gold.Chemscore.Hbonds>
donor molecule, donor type, donor heavy atom, donor atom, acceptor molecule, acceptor atom, score
      L1  H    12    37       P1  7948  0.14

> <Gold.Chemscore.Hbond.Weighted>
-1.4951

> <Gold.Chemscore.Metal.Weighted>
-0.0000

> <Gold.Chemscore.Lipo.Weighted>
-12.1326

> <Gold.Chemscore.Internal_Hbond.Weighted>
0.0000

> <Gold.Chemscore.DEClash.Weighted>
0.1104

> <Gold.Chemscore.DEInternal.Weighted>
2.6989

> <Gold.Chemscore.Rot.Weighted>
3.9086

> <Gold.Chemscore.Internal.Correction.Weighted>
   9.000000E+99

> <Gold.Protein.RotatedTorsions>
[ 6907 6896 6895 6894 ] final  -98.39 input  -60.11 | X-H torsion
[ 7974 7965 7964 7962 ] final  109.12 input  175.53 | X-H torsion
[ 8008 7997 7996 7995 ] final  138.68 input   59.86 | X-H torsion
[ 10167 10162 10161 10158 ] final   69.15 input  -65.29 | X-H torsion
[ 10718 10713 10712 10709 ] final   27.63 input   66.30 | X-H torsion
[ 10763 10752 10751 10750 ] final -178.36 input  -60.55 | X-H torsion
[ 11005 11000 10999 10996 ] final   94.87 input  -57.11 | X-H torsion

> <Gold.Protein.ActiveResidues>
 VAL166  LYS551  ARG553  GLY616  TRP617  ASP618  TYR619  PRO620  LYS621  CYS622 
 ASP623  PHE694  ASN695  SER759  ASP760  ASP761  ALA762  ILE779  LEU786  VAL792 
 PHE793  MET794  SER795  GLU796  ALA797  LYS798  CYS799  TRP800  GLU811  SER814 

> <Gold.Protein.RotatedAtoms>
  150.7045  134.1201  159.4031 H   0  0  0  0  0  0  0  0  0  0  0  0  # atno 6907 bound_to 6896
  151.9187  135.0305  160.0529 H   0  0  0  0  0  0  0  0  0  0  0  0  # atno 6908 bound_to 6896
  152.2274  133.4996  159.5233 H   0  0  0  0  0  0  0  0  0  0  0  0  # atno 6909 bound_to 6896
  145.2719  139.2663  143.3962 H   0  0  0  0  0  0  0  0  0  0  0  0  # atno 7974 bound_to 7965
  156.2995  140.2387  156.4113 H   0  0  0  0  0  0  0  0  0  0  0  0  # atno 8008 bound_to 7997
  154.8438  140.0427  157.1579 H   0  0  0  0  0  0  0  0  0  0  0  0  # atno 8009 bound_to 7997
  154.9073  140.2985  155.5289 H   0  0  0  0  0  0  0  0  0  0  0  0  # atno 8010 bound_to 7997
  140.0709  144.5153  150.7228 H   0  0  0  0  0  0  0  0  0  0  0  0  # atno 10167 bound_to 10162
  157.2227  130.6986  149.6277 H   0  0  0  0  0  0  0  0  0  0  0  0  # atno 10718 bound_to 10713
  154.5486  135.2811  155.1029 H   0  0  0  0  0  0  0  0  0  0  0  0  # atno 10763 bound_to 10752
  154.2484  135.6344  153.5235 H   0  0  0  0  0  0  0  0  0  0  0  0  # atno 10764 bound_to 10752
  152.9997  135.5577  154.6046 H   0  0  0  0  0  0  0  0  0  0  0  0  # atno 10765 bound_to 10752
  139.8794  134.8869  156.3928 H   0  0  0  0  0  0  0  0  0  0  0  0  # atno 11005 bound_to 11000
  146.3244  140.3164  142.8630 LP  0  0  0  0  0  0  0  0  0  0  0  0  # atno 17320 bound_to 7965
  144.9328  140.7993  143.5679 LP  0  0  0  0  0  0  0  0  0  0  0  0  # atno 17321 bound_to 7965
  140.7126  143.2517  151.4535 LP  0  0  0  0  0  0  0  0  0  0  0  0  # atno 17342 bound_to 10162
  139.5836  144.1654  152.2000 LP  0  0  0  0  0  0  0  0  0  0  0  0  # atno 17343 bound_to 10162
  155.9681  130.4514  150.5736 LP  0  0  0  0  0  0  0  0  0  0  0  0  # atno 17370 bound_to 10713
  157.3559  131.0741  151.1676 LP  0  0  0  0  0  0  0  0  0  0  0  0  # atno 17371 bound_to 10713
  140.9321  133.7572  156.0038 LP  0  0  0  0  0  0  0  0  0  0  0  0  # atno 17394 bound_to 11000
  140.8318  134.3169  157.5346 LP  0  0  0  0  0  0  0  0  0  0  0  0  # atno 17395 bound_to 11000

$$$$
