AV-unprocessed.smi:2941|AV-procd|sdf|11265|dock2
  -GOLD-   2272016153D 1   1.00000     0.00000
 Structure written by MMmdl.
 35 36  0  0  0  0  0  0  0  0  2 V2000
  147.7701  141.5410  153.8791 C   0  0  0  0  0  0  0  0  0  0  0  0
  149.1824  141.4565  153.9562 O   0  0  0  0  0  0  0  0  0  0  0  0
  149.6194  140.6260  155.0184 C   0  0  0  0  0  0  0  0  0  0  0  0
  149.3913  139.1585  154.6268 C   0  0  0  0  0  0  0  0  0  0  0  0
  149.6941  138.2528  155.7427 N   0  0  0  0  0  0  0  0  0  0  0  0
  148.7093  138.1236  156.7408 C   0  0  0  0  0  0  0  0  0  0  0  0
  148.8718  137.3228  157.8109 C   0  0  0  0  0  0  0  0  0  0  0  0
  147.8118  137.2259  158.8442 C   0  0  0  0  0  0  0  0  0  0  0  0
  146.9611  138.1088  158.9658 O   0  0  0  0  0  0  0  0  0  0  0  0
  147.7921  136.0121  159.7154 C   0  0  0  0  0  0  0  0  0  0  0  0
  148.0074  134.7436  159.1262 C   0  0  0  0  0  0  0  0  0  0  0  0
  147.9839  133.5736  159.9076 C   0  0  0  0  0  0  0  0  0  0  0  0
  148.1889  132.3676  159.3268 F   0  0  0  0  0  0  0  0  0  0  0  0
  147.7447  133.6566  161.2906 C   0  0  0  0  0  0  0  0  0  0  0  0
  147.5318  134.9110  161.8904 C   0  0  0  0  0  0  0  0  0  0  0  0
  147.5545  136.0884  161.1148 C   0  0  0  0  0  0  0  0  0  0  0  0
  147.3641  137.2813  161.7569 O   0  5  0  0  0  0  0  0  0  0  0  0
  150.1197  136.5919  157.9200 C   0  0  0  0  0  0  0  0  0  0  0  0
  151.0711  136.7207  156.9741 C   0  0  0  0  0  0  0  0  0  0  0  0
  152.3084  136.0191  157.0665 C   0  0  0  0  0  0  0  0  0  0  0  0
  153.3211  135.4616  157.1254 N   0  0  0  0  0  0  0  0  0  0  0  0
  150.8899  137.5924  155.8047 C   0  0  0  0  0  0  0  0  0  0  0  0
  151.7534  137.7281  154.9361 O   0  0  0  0  0  0  0  0  0  0  0  0
  147.4865  142.1872  153.0485 H   0  0  0  0  0  0  0  0  0  0  0  0
  147.3497  141.9633  154.7927 H   0  0  0  0  0  0  0  0  0  0  0  0
  147.3248  140.5599  153.7094 H   0  0  0  0  0  0  0  0  0  0  0  0
  150.6767  140.8054  155.2194 H   0  0  0  0  0  0  0  0  0  0  0  0
  149.0650  140.8624  155.9281 H   0  0  0  0  0  0  0  0  0  0  0  0
  148.3575  139.0243  154.3048 H   0  0  0  0  0  0  0  0  0  0  0  0
  149.9931  138.9088  153.7513 H   0  0  0  0  0  0  0  0  0  0  0  0
  147.8217  138.7186  156.5755 H   0  0  0  0  0  0  0  0  0  0  0  0
  148.1839  134.6574  158.0638 H   0  0  0  0  0  0  0  0  0  0  0  0
  147.7261  132.7598  161.8918 H   0  0  0  0  0  0  0  0  0  0  0  0
  147.3536  134.9681  162.9545 H   0  0  0  0  0  0  0  0  0  0  0  0
  150.3055  135.9480  158.7678 H   0  0  0  0  0  0  0  0  0  0  0  0
  1  2  1  0  0  0  0
  1 24  1  0  0  0  0
  1 25  1  0  0  0  0
  1 26  1  0  0  0  0
  2  3  1  0  0  0  0
  3  4  1  0  0  0  0
  3 27  1  0  0  0  0
  3 28  1  0  0  0  0
  4  5  1  0  0  0  0
  4 29  1  0  0  0  0
  4 30  1  0  0  0  0
  5 22  1  0  0  0  0
  5  6  1  0  0  0  0
  6  7  2  0  0  0  0
  6 31  1  0  0  0  0
  7  8  1  0  0  0  0
  7 18  1  0  0  0  0
  8  9  2  0  0  0  0
  8 10  1  0  0  0  0
 10 16  1  0  0  0  0
 10 11  2  0  0  0  0
 11 12  1  0  0  0  0
 11 32  1  0  0  0  0
 12 13  1  0  0  0  0
 12 14  2  0  0  0  0
 14 15  1  0  0  0  0
 14 33  1  0  0  0  0
 15 16  2  0  0  0  0
 15 34  1  0  0  0  0
 16 17  1  0  0  0  0
 18 19  2  0  0  0  0
 18 35  1  0  0  0  0
 19 20  1  0  0  0  0
 19 22  1  0  0  0  0
 20 21  3  0  0  0  0
 22 23  2  0  0  0  0
M  CHG  1  17  -1
M  END
> <s_m_source_file>
AV-unprocessed.smi

> <i_m_source_file_index>
2941

> <i_lp_mmshare_version>
43012

> <i_f3d_flags>
0

> <s_epik_input>
W0NIM11PW0NIMl1bQ0gyXW4xW2NIXWMoW2NIXWMoQyNOKWMxPU8pQyg9TyljMltjSF1jKEYpW2NIXVtjSF1jMltPSF0=

> <s_epik_cmdline>
J2VwaWtfcHl0aG9uJywgJy1waCcsICc3LjAnLCAnLXRuJywgJzgnLCAnLW1hJywgJzIwMCcsICctbWV0YWxfYmluZGluZycsICctaW1hZScsICc8aW5maWxlLm1hZT4nLCAnLW9tYWUnLCAnPG91dGZpbGUubWFlPic=

> <r_epik_Ionization_Penalty>
0.585622

> <r_epik_Ionization_Penalty_Charging>
0.585622

> <r_epik_Ionization_Penalty_Neutral>
1.08437e-11

> <r_epik_State_Penalty>
0.598756

> <r_epik_Charging_Adjusted_Penalty>
1.18438

> <i_epik_Tot_Q>
-1

> <i_epik_Tot_abs_Q>
1

> <r_epik_Metal_State_Penalty>
0.598756

> <b_epik_Metal_Only>
0

> <s_lp_Force_Field>
OPLS_2005

> <r_lp_Energy>
22.2584

> <b_lp_Chiralities_Consistent>
1

> <s_lp_Variant>
AV-unprocessed.smi:2941-2

> <Gold.Version>
5.8.1

> <Gold.Id.Protein>
6NUR|6NUR_protein|mol2

> <Gold.PLP.Fitness>
46.7326

> <Gold.PLP.PLP>
-31.9436

> <Gold.PLP.part.hbond>
-6.1343

> <Gold.PLP.part.metal>
0.0000

> <Gold.PLP.part.buried>
-5.3474

> <Gold.PLP.part.nonpolar>
-21.2128

> <Gold.PLP.part.repulsive>
0.4060

> <Gold.PLP.ligand.clash>
0.0000

> <Gold.PLP.ligand.torsion>
1.2536

> <Gold.PLP.Chemscore.Hbond>
5.1760

> <Gold.PLP.Chemscore.CHOScore>
0.0000

> <Gold.PLP.Chemscore.Metal>
0.0000

> <Gold.Chemscore.Hbonds>
donor molecule, donor type, donor heavy atom, donor atom, acceptor molecule, acceptor atom, score
      P1  H  6931  6943       L1    17  1.73
      P1  H  6934  6947       L1    17  1.60
      P1  H  8011  8017       L1     2  0.72
      P1  H 10752 10763       L1    21  1.00

> <Gold.PLP.Chemscore.Internal.Correction>
1.7681

> <Gold.Rescore>
     Score         DG    S(hbond)    S(metal)    S(lipo)     H(rot)  DE(clash)    DE(int)     intcor
     16.55     -18.98       2.98        0.00      62.59       1.47       0.02       2.41       ----

> <Gold.Chemscore.Fitness>
16.5529

> <Gold.Chemscore.DG>
-18.9823

> <Gold.Chemscore.ZeroCoef>
-5.4800

> <Gold.Chemscore.Hbond>
2.9805

> <Gold.Chemscore.Metal>
0.0000

> <Gold.Chemscore.Lipo>
62.5881

> <Gold.Chemscore.Internal_Hbond>
0.0000

> <Gold.Chemscore.DEClash>
0.0222

> <Gold.Chemscore.DEInternal>
2.4072

> <Gold.Chemscore.Rot>
1.4747

> <Gold.Chemscore.Internal.Correction>
   9.000000E+99

> <Gold.Chemscore.Hbonds>
donor molecule, donor type, donor heavy atom, donor atom, acceptor molecule, acceptor atom, score
      P1  H  6931  6943       L1    17  0.66
      P1  H  6934  6947       L1    17  0.79
      P1  H  8011  8017       L1     2  0.31
      P1  H 10752 10763       L1    21  0.45

> <Gold.Chemscore.Hbond.Weighted>
-9.9548

> <Gold.Chemscore.Metal.Weighted>
-0.0000

> <Gold.Chemscore.Lipo.Weighted>
-7.3228

> <Gold.Chemscore.Internal_Hbond.Weighted>
0.0000

> <Gold.Chemscore.DEClash.Weighted>
0.0222

> <Gold.Chemscore.DEInternal.Weighted>
2.4072

> <Gold.Chemscore.Rot.Weighted>
3.7754

> <Gold.Chemscore.Internal.Correction.Weighted>
   9.000000E+99

> <Gold.Protein.RotatedTorsions>
[ 6907 6896 6895 6894 ] final  109.59 input  -60.11 | X-H torsion
[ 7974 7965 7964 7962 ] final -107.57 input  175.53 | X-H torsion
[ 8008 7997 7996 7995 ] final  -63.41 input   59.86 | X-H torsion
[ 10167 10162 10161 10158 ] final   58.70 input  -65.29 | X-H torsion
[ 10718 10713 10712 10709 ] final  147.92 input   66.30 | X-H torsion
[ 10763 10752 10751 10750 ] final  137.36 input  -60.55 | X-H torsion
[ 11005 11000 10999 10996 ] final  110.71 input  -57.11 | X-H torsion

> <Gold.Protein.ActiveResidues>
 VAL166  LYS551  ARG553  GLY616  TRP617  ASP618  TYR619  PRO620  LYS621  CYS622 
 ASP623  PHE694  ASN695  SER759  ASP760  ASP761  ALA762  ILE779  LEU786  VAL792 
 PHE793  MET794  SER795  GLU796  ALA797  LYS798  CYS799  TRP800  GLU811  SER814 

> <Gold.Protein.RotatedAtoms>
  152.5060  133.8922  159.7399 H   0  0  0  0  0  0  0  0  0  0  0  0  # atno 6907 bound_to 6896
  150.9358  133.6705  159.2808 H   0  0  0  0  0  0  0  0  0  0  0  0  # atno 6908 bound_to 6896
  151.4033  135.0979  159.9615 H   0  0  0  0  0  0  0  0  0  0  0  0  # atno 6909 bound_to 6896
  145.2037  140.9067  143.3354 H   0  0  0  0  0  0  0  0  0  0  0  0  # atno 7974 bound_to 7965
  154.4553  140.0975  156.6738 H   0  0  0  0  0  0  0  0  0  0  0  0  # atno 8008 bound_to 7997
  155.5158  140.3477  155.4379 H   0  0  0  0  0  0  0  0  0  0  0  0  # atno 8009 bound_to 7997
  156.0764  140.1362  156.9754 H   0  0  0  0  0  0  0  0  0  0  0  0  # atno 8010 bound_to 7997
  140.1843  144.4150  150.6600 H   0  0  0  0  0  0  0  0  0  0  0  0  # atno 10167 bound_to 10162
  157.3150  131.0894  151.1286 H   0  0  0  0  0  0  0  0  0  0  0  0  # atno 10718 bound_to 10713
  153.8718  135.3055  155.3442 H   0  0  0  0  0  0  0  0  0  0  0  0  # atno 10763 bound_to 10752
  154.7802  135.4839  153.9831 H   0  0  0  0  0  0  0  0  0  0  0  0  # atno 10764 bound_to 10752
  153.1402  135.6822  153.9136 H   0  0  0  0  0  0  0  0  0  0  0  0  # atno 10765 bound_to 10752
  139.8888  134.9490  156.6321 H   0  0  0  0  0  0  0  0  0  0  0  0  # atno 11005 bound_to 11000
  144.9923  139.3678  143.6209 LP  0  0  0  0  0  0  0  0  0  0  0  0  # atno 17320 bound_to 7965
  146.3412  139.9110  142.8780 LP  0  0  0  0  0  0  0  0  0  0  0  0  # atno 17321 bound_to 7965
  140.6498  143.2222  151.6102 LP  0  0  0  0  0  0  0  0  0  0  0  0  # atno 17342 bound_to 10162
  139.5282  144.2994  152.1086 LP  0  0  0  0  0  0  0  0  0  0  0  0  # atno 17343 bound_to 10162
  157.2593  130.6651  149.5967 LP  0  0  0  0  0  0  0  0  0  0  0  0  # atno 17370 bound_to 10713
  155.9681  130.4513  150.5732 LP  0  0  0  0  0  0  0  0  0  0  0  0  # atno 17371 bound_to 10713
  140.7659  133.8779  155.8454 LP  0  0  0  0  0  0  0  0  0  0  0  0  # atno 17394 bound_to 11000
  140.9883  134.1313  157.4431 LP  0  0  0  0  0  0  0  0  0  0  0  0  # atno 17395 bound_to 11000

$$$$
