AV-unprocessed.smi:2542|AV-procd|sdf|9991|dock10
  -GOLD-   2272014 43D 1   1.00000     0.00000
 Structure written by MMmdl.
 41 42  0  0  0  0  0  0  0  0  1 V2000
  145.8070  132.6426  153.9231 C   0  0  0  0  0  0  0  0  0  0  0  0
  146.1316  133.5307  152.7038 C   0  0  0  0  0  0  0  0  0  0  0  0
  145.6657  134.9666  153.0465 C   0  0  0  0  0  0  0  0  0  0  0  0
  147.6674  133.5543  152.4925 C   0  0  0  0  0  0  0  0  0  0  0  0
  148.3586  134.2112  153.5970 N   0  0  0  0  0  0  0  0  0  0  0  0
  149.2272  133.6192  154.4304 C   0  0  0  0  0  0  0  0  0  0  0  0
  149.5140  132.4244  154.3424 O   0  0  0  0  0  0  0  0  0  0  0  0
  149.8728  134.4969  155.5299 C   0  0  0  0  0  0  0  0  0  0  0  0
  150.7699  133.7079  156.3993 C   0  0  0  0  0  0  0  0  0  0  0  0
  151.4731  133.0904  157.0807 N   0  0  0  0  0  0  0  0  0  0  0  0
  150.6410  135.6852  154.8914 C   0  0  0  0  0  0  0  0  0  0  0  0
  149.9644  136.9783  155.3633 C   0  0  0  0  0  0  0  0  0  0  0  0
  148.5642  136.5607  155.7959 C   0  0  0  0  0  0  0  0  0  0  0  0
  148.7756  135.1687  156.3886 C   0  0  0  0  0  0  0  0  0  0  0  0
  145.4300  132.9651  151.4531 C   0  0  0  0  0  0  0  0  0  0  0  0
  144.0227  132.8325  151.3556 C   0  0  0  0  0  0  0  0  0  0  0  0
  143.4640  132.3239  150.1662 C   0  0  0  0  0  0  0  0  0  0  0  0
  144.1993  131.9487  149.0997 N   0  0  0  0  0  0  0  0  0  0  0  0
  145.5391  132.0736  149.1884 C   0  0  0  0  0  0  0  0  0  0  0  0
  146.1961  132.5719  150.3305 C   0  0  0  0  0  0  0  0  0  0  0  0
  146.2728  133.0292  154.8303 H   0  0  0  0  0  0  0  0  0  0  0  0
  146.1633  131.6207  153.7931 H   0  0  0  0  0  0  0  0  0  0  0  0
  144.7322  132.5946  154.1014 H   0  0  0  0  0  0  0  0  0  0  0  0
  146.1713  135.3428  153.9366 H   0  0  0  0  0  0  0  0  0  0  0  0
  144.5948  135.0039  153.2498 H   0  0  0  0  0  0  0  0  0  0  0  0
  145.8784  135.6707  152.2412 H   0  0  0  0  0  0  0  0  0  0  0  0
  148.0458  132.5382  152.3664 H   0  0  0  0  0  0  0  0  0  0  0  0
  147.9191  134.0900  151.5760 H   0  0  0  0  0  0  0  0  0  0  0  0
  148.1716  135.1957  153.7260 H   0  0  0  0  0  0  0  0  0  0  0  0
  151.6947  135.6843  155.1729 H   0  0  0  0  0  0  0  0  0  0  0  0
  150.6214  135.6442  153.8008 H   0  0  0  0  0  0  0  0  0  0  0  0
  150.5043  137.3791  156.2224 H   0  0  0  0  0  0  0  0  0  0  0  0
  149.9516  137.7496  154.5929 H   0  0  0  0  0  0  0  0  0  0  0  0
  148.1185  137.2571  156.5067 H   0  0  0  0  0  0  0  0  0  0  0  0
  147.9071  136.5038  154.9274 H   0  0  0  0  0  0  0  0  0  0  0  0
  147.8447  134.6005  156.4263 H   0  0  0  0  0  0  0  0  0  0  0  0
  149.1199  135.2700  157.4192 H   0  0  0  0  0  0  0  0  0  0  0  0
  143.3587  133.1116  152.1588 H   0  0  0  0  0  0  0  0  0  0  0  0
  142.3935  132.2169  150.0697 H   0  0  0  0  0  0  0  0  0  0  0  0
  146.1068  131.7697  148.3215 H   0  0  0  0  0  0  0  0  0  0  0  0
  147.2729  132.6522  150.3334 H   0  0  0  0  0  0  0  0  0  0  0  0
  1  2  1  0  0  0  0
  1 21  1  0  0  0  0
  1 22  1  0  0  0  0
  1 23  1  0  0  0  0
  2  3  1  0  0  0  0
  2  4  1  0  0  0  0
  2 15  1  0  0  0  0
  3 24  1  0  0  0  0
  3 25  1  0  0  0  0
  3 26  1  0  0  0  0
  4  5  1  0  0  0  0
  4 27  1  0  0  0  0
  4 28  1  0  0  0  0
  5  6  1  0  0  0  0
  5 29  1  0  0  0  0
  6  7  2  0  0  0  0
  6  8  1  0  0  0  0
  8 14  1  0  0  0  0
  8  9  1  0  0  0  0
  8 11  1  0  0  0  0
  9 10  3  0  0  0  0
 11 12  1  0  0  0  0
 11 30  1  0  0  0  0
 11 31  1  0  0  0  0
 12 13  1  0  0  0  0
 12 32  1  0  0  0  0
 12 33  1  0  0  0  0
 13 14  1  0  0  0  0
 13 34  1  0  0  0  0
 13 35  1  0  0  0  0
 14 36  1  0  0  0  0
 14 37  1  0  0  0  0
 15 20  1  0  0  0  0
 15 16  2  0  0  0  0
 16 17  1  0  0  0  0
 16 38  1  0  0  0  0
 17 18  2  0  0  0  0
 17 39  1  0  0  0  0
 18 19  1  0  0  0  0
 19 20  2  0  0  0  0
 19 40  1  0  0  0  0
 20 41  1  0  0  0  0
M  END
> <s_m_source_file>
AV-unprocessed.smi

> <i_m_source_file_index>
2542

> <i_lp_mmshare_version>
43012

> <i_f3d_flags>
0

> <s_epik_input>
W2NIXTFbY0hdbltjSF1bY0hdYzFDKFtDSDNdKShbQ0gzXSlbQ0gyXVtOSF1DKD1PKUMyKEMjTilbQ0gyXVtDSDJdW0NIMl1bQ0gyXTI=

> <s_epik_cmdline>
J2VwaWtfcHl0aG9uJywgJy1waCcsICc3LjAnLCAnLXRuJywgJzgnLCAnLW1hJywgJzIwMCcsICctbWV0YWxfYmluZGluZycsICctaW1hZScsICc8aW5maWxlLm1hZT4nLCAnLW9tYWUnLCAnPG91dGZpbGUubWFlPic=

> <r_epik_Ionization_Penalty>
0.0480096

> <r_epik_Ionization_Penalty_Charging>
0

> <r_epik_Ionization_Penalty_Neutral>
0.0480096

> <r_epik_State_Penalty>
0.04092

> <r_epik_Charging_Adjusted_Penalty>
0.04092

> <i_epik_Tot_Q>
0

> <i_epik_Tot_abs_Q>
0

> <r_epik_Metal_State_Penalty>
0.0377989

> <b_epik_Metal_Only>
0

> <s_lp_Force_Field>
OPLS_2005

> <r_lp_Energy>
29.6926

> <b_lp_Chiralities_Consistent>
1

> <s_lp_Variant>
AV-unprocessed.smi:2542-1

> <Gold.Version>
5.8.1

> <Gold.Id.Protein>
6NUR|6NUR_protein|mol2

> <Gold.PLP.Fitness>
40.9378

> <Gold.PLP.PLP>
-31.2776

> <Gold.PLP.part.hbond>
-3.0000

> <Gold.PLP.part.metal>
0.0000

> <Gold.PLP.part.buried>
-3.1004

> <Gold.PLP.part.nonpolar>
-26.4214

> <Gold.PLP.part.repulsive>
0.2478

> <Gold.PLP.ligand.clash>
0.0000

> <Gold.PLP.ligand.torsion>
0.0700

> <Gold.PLP.Chemscore.Hbond>
1.5052

> <Gold.PLP.Chemscore.CHOScore>
1.7482

> <Gold.PLP.Chemscore.Metal>
0.0000

> <Gold.Chemscore.Hbonds>
donor molecule, donor type, donor heavy atom, donor atom, acceptor molecule, acceptor atom, score
      L1  H     5    29       P1  7948  0.04
      P1  H  6896  6907       L1    10  0.57
      P1  H 10785 10796       L1    18  0.42
      L1  C    17    39       P1 10186  0.54
      L1  C    17    39       P1 10952  1.00

> <Gold.PLP.Chemscore.Internal.Correction>
0.0400

> <Gold.Rescore>
     Score         DG    S(hbond)    S(metal)    S(lipo)     H(rot)  DE(clash)    DE(int)     intcor
     16.63     -17.11       1.77        0.00      81.57       1.49       0.39       0.09       ----

> <Gold.Chemscore.Fitness>
16.6311

> <Gold.Chemscore.DG>
-17.1109

> <Gold.Chemscore.ZeroCoef>
-5.4800

> <Gold.Chemscore.Hbond>
1.7666

> <Gold.Chemscore.Metal>
0.0000

> <Gold.Chemscore.Lipo>
81.5720

> <Gold.Chemscore.Internal_Hbond>
0.0000

> <Gold.Chemscore.DEClash>
0.3872

> <Gold.Chemscore.DEInternal>
0.0926

> <Gold.Chemscore.Rot>
1.4897

> <Gold.Chemscore.Internal.Correction>
   9.000000E+99

> <Gold.Chemscore.Hbonds>
donor molecule, donor type, donor heavy atom, donor atom, acceptor molecule, acceptor atom, score
      L1  H     5    29       P1  7948  0.05
      P1  H  6896  6907       L1    10  0.55
      P1  H 10785 10796       L1    18  0.07

> <Gold.Chemscore.Hbond.Weighted>
-5.9005

> <Gold.Chemscore.Metal.Weighted>
-0.0000

> <Gold.Chemscore.Lipo.Weighted>
-9.5439

> <Gold.Chemscore.Internal_Hbond.Weighted>
0.0000

> <Gold.Chemscore.DEClash.Weighted>
0.3872

> <Gold.Chemscore.DEInternal.Weighted>
0.0926

> <Gold.Chemscore.Rot.Weighted>
3.8136

> <Gold.Chemscore.Internal.Correction.Weighted>
   9.000000E+99

> <Gold.Protein.RotatedTorsions>
[ 6907 6896 6895 6894 ] final -160.90 input  -60.11 | X-H torsion
[ 7974 7965 7964 7962 ] final  -45.98 input  175.53 | X-H torsion
[ 8008 7997 7996 7995 ] final  168.67 input   59.86 | X-H torsion
[ 10167 10162 10161 10158 ] final   68.44 input  -65.29 | X-H torsion
[ 10718 10713 10712 10709 ] final   76.02 input   66.30 | X-H torsion
[ 10763 10752 10751 10750 ] final  -74.41 input  -60.55 | X-H torsion
[ 11005 11000 10999 10996 ] final -108.15 input  -57.11 | X-H torsion

> <Gold.Protein.ActiveResidues>
 VAL166  LYS551  ARG553  GLY616  TRP617  ASP618  TYR619  PRO620  LYS621  CYS622 
 ASP623  PHE694  ASN695  SER759  ASP760  ASP761  ALA762  ILE779  LEU786  VAL792 
 PHE793  MET794  SER795  GLU796  ALA797  LYS798  CYS799  TRP800  GLU811  SER814 

> <Gold.Protein.RotatedAtoms>
  151.3563  133.3906  159.2684 H   0  0  0  0  0  0  0  0  0  0  0  0  # atno 6907 bound_to 6896
  150.9761  134.9126  159.7827 H   0  0  0  0  0  0  0  0  0  0  0  0  # atno 6908 bound_to 6896
  152.5201  134.3526  159.9309 H   0  0  0  0  0  0  0  0  0  0  0  0  # atno 6909 bound_to 6896
  145.9765  140.7328  142.9384 H   0  0  0  0  0  0  0  0  0  0  0  0  # atno 7974 bound_to 7965
  156.1526  140.1584  156.8744 H   0  0  0  0  0  0  0  0  0  0  0  0  # atno 8008 bound_to 7997
  154.5085  140.0807  156.7980 H   0  0  0  0  0  0  0  0  0  0  0  0  # atno 8009 bound_to 7997
  155.3865  140.3408  155.4251 H   0  0  0  0  0  0  0  0  0  0  0  0  # atno 8010 bound_to 7997
  140.0787  144.5090  150.7177 H   0  0  0  0  0  0  0  0  0  0  0  0  # atno 10167 bound_to 10162
  157.6657  130.9754  150.1437 H   0  0  0  0  0  0  0  0  0  0  0  0  # atno 10718 bound_to 10713
  154.4727  135.5865  153.6333 H   0  0  0  0  0  0  0  0  0  0  0  0  # atno 10763 bound_to 10752
  152.9836  135.6070  154.3347 H   0  0  0  0  0  0  0  0  0  0  0  0  # atno 10764 bound_to 10752
  154.3230  135.2843  155.2489 H   0  0  0  0  0  0  0  0  0  0  0  0  # atno 10765 bound_to 10752
  141.0917  133.9043  157.2060 H   0  0  0  0  0  0  0  0  0  0  0  0  # atno 11005 bound_to 11000
  144.6850  140.2837  143.7288 LP  0  0  0  0  0  0  0  0  0  0  0  0  # atno 17320 bound_to 7965
  145.7830  139.1898  143.2146 LP  0  0  0  0  0  0  0  0  0  0  0  0  # atno 17321 bound_to 7965
  140.7089  143.2489  151.4642 LP  0  0  0  0  0  0  0  0  0  0  0  0  # atno 17342 bound_to 10162
  139.5792  144.1747  152.1946 LP  0  0  0  0  0  0  0  0  0  0  0  0  # atno 17343 bound_to 10162
  156.2253  130.3677  149.8508 LP  0  0  0  0  0  0  0  0  0  0  0  0  # atno 17370 bound_to 10713
  156.6349  130.8681  151.3503 LP  0  0  0  0  0  0  0  0  0  0  0  0  # atno 17371 bound_to 10713
  139.9744  135.0118  156.9594 LP  0  0  0  0  0  0  0  0  0  0  0  0  # atno 17394 bound_to 11000
  140.5237  134.0882  155.7298 LP  0  0  0  0  0  0  0  0  0  0  0  0  # atno 17395 bound_to 11000

$$$$
