AV-unprocessed.smi:3315|AV-procd|sdf|12752|dock4
  -GOLD-   2272019 93D 1   1.00000     0.00000
 Structure written by MMmdl.
 37 38  0  0  0  0  0  0  0  0  1 V2000
  154.3465  141.6448  159.9365 C   0  0  0  0  0  0  0  0  0  0  0  0
  153.7082  142.8394  159.5037 O   0  0  0  0  0  0  0  0  0  0  0  0
  152.3705  143.0448  159.9613 C   0  0  2  0  0  0  0  0  0  0  0  0
  152.3564  143.1923  161.4910 C   0  0  0  0  0  0  0  0  0  0  0  0
  151.3784  142.0559  159.3222 C   0  0  0  0  0  0  0  0  0  0  0  0
  150.4439  143.2494  159.1366 C   0  0  2  0  0  0  0  0  0  0  0  0
  149.6856  143.1826  157.8917 N   0  0  0  0  0  0  0  0  0  0  0  0
  149.1686  142.0574  157.3799 C   0  0  0  0  0  0  0  0  0  0  0  0
  149.2870  140.9527  157.9108 O   0  0  0  0  0  0  0  0  0  0  0  0
  148.5132  142.2998  156.2318 N   0  0  0  0  0  0  0  0  0  0  0  0
  147.8422  141.3630  155.4048 C   0  0  0  0  0  0  0  0  0  0  0  0
  147.3528  141.7397  154.1256 C   0  0  0  0  0  0  0  0  0  0  0  0
  146.7886  140.5841  153.6649 C   0  0  0  0  0  0  0  0  0  0  0  0
  146.9201  139.5868  154.5795 O   0  0  0  0  0  0  0  0  0  0  0  0
  147.5974  140.0939  155.6952 N   0  0  0  0  0  0  0  0  0  0  0  0
  151.7005  144.1557  159.0879 C   0  0  0  0  0  0  0  0  0  0  0  0
  151.5481  145.5400  159.7264 C   0  0  0  0  0  0  0  0  0  0  0  0
  152.3287  144.3995  157.7008 C   0  0  0  0  0  0  0  0  0  0  0  0
  155.3142  141.5596  159.4423 H   0  0  0  0  0  0  0  0  0  0  0  0
  153.7679  140.7563  159.6830 H   0  0  0  0  0  0  0  0  0  0  0  0
  154.5321  141.6482  161.0102 H   0  0  0  0  0  0  0  0  0  0  0  0
  151.3752  143.4878  161.8617 H   0  0  0  0  0  0  0  0  0  0  0  0
  153.0711  143.9457  161.8228 H   0  0  0  0  0  0  0  0  0  0  0  0
  152.6032  142.2570  161.9927 H   0  0  0  0  0  0  0  0  0  0  0  0
  151.7318  141.6246  158.3839 H   0  0  0  0  0  0  0  0  0  0  0  0
  151.0000  141.2871  159.9964 H   0  0  0  0  0  0  0  0  0  0  0  0
  149.8267  143.4210  160.0216 H   0  0  0  0  0  0  0  0  0  0  0  0
  149.5427  144.0492  157.3942 H   0  0  0  0  0  0  0  0  0  0  0  0
  148.4945  143.2573  155.9137 H   0  0  0  0  0  0  0  0  0  0  0  0
  147.4055  142.6956  153.6263 H   0  0  0  0  0  0  0  0  0  0  0  0
  146.2789  140.3221  152.7494 H   0  0  0  0  0  0  0  0  0  0  0  0
  150.9962  146.2214  159.0779 H   0  0  0  0  0  0  0  0  0  0  0  0
  152.5185  145.9932  159.9308 H   0  0  0  0  0  0  0  0  0  0  0  0
  151.0028  145.4983  160.6688 H   0  0  0  0  0  0  0  0  0  0  0  0
  151.6980  145.0354  157.0786 H   0  0  0  0  0  0  0  0  0  0  0  0
  152.4892  143.4726  157.1499 H   0  0  0  0  0  0  0  0  0  0  0  0
  153.2981  144.8918  157.7844 H   0  0  0  0  0  0  0  0  0  0  0  0
  1  2  1  0  0  0  0
  1 19  1  0  0  0  0
  1 20  1  0  0  0  0
  1 21  1  0  0  0  0
  2  3  1  0  0  0  0
  3 16  1  0  0  0  0
  3  4  1  0  0  0  0
  3  5  1  0  0  0  0
  4 22  1  0  0  0  0
  4 23  1  0  0  0  0
  4 24  1  0  0  0  0
  5  6  1  0  0  0  0
  5 25  1  0  0  0  0
  5 26  1  0  0  0  0
  6  7  1  0  0  0  0
  6 16  1  0  0  0  0
  6 27  1  0  0  0  0
  7  8  1  0  0  0  0
  7 28  1  0  0  0  0
  8  9  2  0  0  0  0
  8 10  1  0  0  0  0
 10 11  1  0  0  0  0
 10 29  1  0  0  0  0
 11 15  2  0  0  0  0
 11 12  1  0  0  0  0
 12 13  2  0  0  0  0
 12 30  1  0  0  0  0
 13 14  1  0  0  0  0
 13 31  1  0  0  0  0
 14 15  1  0  0  0  0
 16 17  1  0  0  0  0
 16 18  1  0  0  0  0
 17 32  1  0  0  0  0
 17 33  1  0  0  0  0
 17 34  1  0  0  0  0
 18 35  1  0  0  0  0
 18 36  1  0  0  0  0
 18 37  1  0  0  0  0
M  END
> <s_m_source_file>
AV-unprocessed.smi

> <i_m_source_file_index>
3315

> <i_lp_mmshare_version>
43012

> <i_f3d_flags>
0

> <s_epik_input>
W0NIM11PW0NAQF0xKFtDSDNdKVtDSDJdW0NASF0oQzEoW0NIM10pW0NIM10pW05IXUMoPU8pW05IXWMyW2NIXVtjSF1vbjI=

> <s_epik_cmdline>
J2VwaWtfcHl0aG9uJywgJy1waCcsICc3LjAnLCAnLXRuJywgJzgnLCAnLW1hJywgJzIwMCcsICctbWV0YWxfYmluZGluZycsICctaW1hZScsICc8aW5maWxlLm1hZT4nLCAnLW9tYWUnLCAnPG91dGZpbGUubWFlPic=

> <r_lp_tautomer_probability>
1

> <r_epik_Ionization_Penalty>
2.28875e-05

> <r_epik_Ionization_Penalty_Charging>
0

> <r_epik_Ionization_Penalty_Neutral>
2.28875e-05

> <r_epik_State_Penalty>
-0

> <r_epik_Charging_Adjusted_Penalty>
0

> <i_epik_Tot_Q>
0

> <i_epik_Tot_abs_Q>
0

> <r_epik_Metal_State_Penalty>
-0

> <b_epik_Metal_Only>
0

> <s_lp_Force_Field>
OPLS_2005

> <r_lp_Energy>
21.6117

> <b_lp_Chiralities_Consistent>
1

> <s_lp_Variant>
AV-unprocessed.smi:3315-4

> <Gold.Version>
5.8.1

> <Gold.Id.Protein>
6NUR|6NUR_protein|mol2

> <Gold.PLP.Fitness>
43.1756

> <Gold.PLP.PLP>
-35.9129

> <Gold.PLP.part.hbond>
-1.9239

> <Gold.PLP.part.metal>
0.0000

> <Gold.PLP.part.buried>
-4.4627

> <Gold.PLP.part.nonpolar>
-31.3209

> <Gold.PLP.part.repulsive>
0.2161

> <Gold.PLP.ligand.clash>
0.0000

> <Gold.PLP.ligand.torsion>
0.3748

> <Gold.PLP.Chemscore.Hbond>
1.8393

> <Gold.PLP.Chemscore.CHOScore>
0.7079

> <Gold.PLP.Chemscore.Metal>
0.0000

> <Gold.Chemscore.Hbonds>
donor molecule, donor type, donor heavy atom, donor atom, acceptor molecule, acceptor atom, score
      L1  H     7    28       P1  8028  0.85
      L1  H    10    29       P1  8028  0.99
      L1  C    13    31       P1 10175  0.70

> <Gold.PLP.Chemscore.Internal.Correction>
0.3709

> <Gold.Rescore>
     Score         DG    S(hbond)    S(metal)    S(lipo)     H(rot)  DE(clash)    DE(int)     intcor
     16.41     -19.88       1.67        0.00     103.83       1.30       0.48       3.00       ----

> <Gold.Chemscore.Fitness>
16.4059

> <Gold.Chemscore.DG>
-19.8848

> <Gold.Chemscore.ZeroCoef>
-5.4800

> <Gold.Chemscore.Hbond>
1.6749

> <Gold.Chemscore.Metal>
0.0000

> <Gold.Chemscore.Lipo>
103.8326

> <Gold.Chemscore.Internal_Hbond>
0.0000

> <Gold.Chemscore.DEClash>
0.4802

> <Gold.Chemscore.DEInternal>
2.9987

> <Gold.Chemscore.Rot>
1.3038

> <Gold.Chemscore.Internal.Correction>
   9.000000E+99

> <Gold.Chemscore.Hbonds>
donor molecule, donor type, donor heavy atom, donor atom, acceptor molecule, acceptor atom, score
      L1  H     7    28       P1  8028  0.29
      L1  H    10    29       P1  8028  0.88

> <Gold.Chemscore.Hbond.Weighted>
-5.5941

> <Gold.Chemscore.Metal.Weighted>
-0.0000

> <Gold.Chemscore.Lipo.Weighted>
-12.1484

> <Gold.Chemscore.Internal_Hbond.Weighted>
0.0000

> <Gold.Chemscore.DEClash.Weighted>
0.4802

> <Gold.Chemscore.DEInternal.Weighted>
2.9987

> <Gold.Chemscore.Rot.Weighted>
3.3377

> <Gold.Chemscore.Internal.Correction.Weighted>
   9.000000E+99

> <Gold.Protein.RotatedTorsions>
[ 6907 6896 6895 6894 ] final   54.97 input  -60.11 | X-H torsion
[ 7974 7965 7964 7962 ] final  -64.92 input  175.53 | X-H torsion
[ 8008 7997 7996 7995 ] final  -11.79 input   59.86 | X-H torsion
[ 10167 10162 10161 10158 ] final   58.73 input  -65.29 | X-H torsion
[ 10718 10713 10712 10709 ] final  -11.45 input   66.30 | X-H torsion
[ 10763 10752 10751 10750 ] final -127.34 input  -60.55 | X-H torsion
[ 11005 11000 10999 10996 ] final  -86.94 input  -57.11 | X-H torsion

> <Gold.Protein.ActiveResidues>
 VAL166  LYS551  ARG553  GLY616  TRP617  ASP618  TYR619  PRO620  LYS621  CYS622 
 ASP623  PHE694  ASN695  SER759  ASP760  ASP761  ALA762  ILE779  LEU786  VAL792 
 PHE793  MET794  SER795  GLU796  ALA797  LYS798  CYS799  TRP800  GLU811  SER814 

> <Gold.Protein.RotatedAtoms>
  152.3492  134.7029  160.0241 H   0  0  0  0  0  0  0  0  0  0  0  0  # atno 6907 bound_to 6896
  151.7388  133.3315  159.3368 H   0  0  0  0  0  0  0  0  0  0  0  0  # atno 6908 bound_to 6896
  150.7529  134.6230  159.6190 H   0  0  0  0  0  0  0  0  0  0  0  0  # atno 6909 bound_to 6896
  145.7607  140.8863  143.0431 H   0  0  0  0  0  0  0  0  0  0  0  0  # atno 7974 bound_to 7965
  154.5433  140.2293  155.8604 H   0  0  0  0  0  0  0  0  0  0  0  0  # atno 8008 bound_to 7997
  156.1879  140.3084  155.9237 H   0  0  0  0  0  0  0  0  0  0  0  0  # atno 8009 bound_to 7997
  155.3214  140.0440  157.3030 H   0  0  0  0  0  0  0  0  0  0  0  0  # atno 8010 bound_to 7997
  140.1840  144.4153  150.6602 H   0  0  0  0  0  0  0  0  0  0  0  0  # atno 10167 bound_to 10162
  156.6589  130.4976  149.6037 H   0  0  0  0  0  0  0  0  0  0  0  0  # atno 10718 bound_to 10713
  154.8752  135.3965  154.3578 H   0  0  0  0  0  0  0  0  0  0  0  0  # atno 10763 bound_to 10752
  153.4355  135.7026  153.6208 H   0  0  0  0  0  0  0  0  0  0  0  0  # atno 10764 bound_to 10752
  153.4812  135.3769  155.2412 H   0  0  0  0  0  0  0  0  0  0  0  0  # atno 10765 bound_to 10752
  141.1623  133.7483  156.9234 H   0  0  0  0  0  0  0  0  0  0  0  0  # atno 11005 bound_to 11000
  144.6831  139.9718  143.7482 LP  0  0  0  0  0  0  0  0  0  0  0  0  # atno 17320 bound_to 7965
  146.0267  139.3298  143.0780 LP  0  0  0  0  0  0  0  0  0  0  0  0  # atno 17321 bound_to 7965
  140.6500  143.2222  151.6098 LP  0  0  0  0  0  0  0  0  0  0  0  0  # atno 17342 bound_to 10162
  139.5284  144.2990  152.1089 LP  0  0  0  0  0  0  0  0  0  0  0  0  # atno 17343 bound_to 10162
  156.2027  130.6629  151.1184 LP  0  0  0  0  0  0  0  0  0  0  0  0  # atno 17370 bound_to 10713
  157.7116  131.0731  150.6479 LP  0  0  0  0  0  0  0  0  0  0  0  0  # atno 17371 bound_to 10713
  140.1436  134.9277  157.2499 LP  0  0  0  0  0  0  0  0  0  0  0  0  # atno 17394 bound_to 11000
  140.2807  134.3353  155.7344 LP  0  0  0  0  0  0  0  0  0  0  0  0  # atno 17395 bound_to 11000

$$$$
