AV-unprocessed.smi:832|AV-procd|sdf|3879|dock10
  -GOLD-   22720 1333D 1   1.00000     0.00000
 Structure written by MMmdl.
 42 43  0  0  0  0  0  0  0  0  2 V2000
  150.8947  141.4308  156.4224 C   0  0  0  0  0  0  0  0  0  0  0  0
  151.0015  140.1388  155.6871 C   0  0  0  0  0  0  0  0  0  0  0  0
  150.1571  139.0728  155.5517 C   0  0  0  0  0  0  0  0  0  0  0  0
  150.8898  138.1890  154.7154 C   0  0  0  0  0  0  0  0  0  0  0  0
  150.3505  136.9350  154.3302 N   0  0  0  0  0  0  0  0  0  0  0  0
  150.6144  135.7317  154.8675 C   0  0  0  0  0  0  0  0  0  0  0  0
  151.3945  135.5259  155.7977 O   0  0  0  0  0  0  0  0  0  0  0  0
  149.9111  134.7618  154.2645 N   0  0  0  0  0  0  0  0  0  0  0  0
  149.9818  133.3400  154.5887 C   0  0  0  0  0  0  0  0  0  0  0  0
  149.3304  132.4587  153.5048 C   0  0  1  0  0  0  0  0  0  0  0  0
  148.5296  131.2869  154.0686 C   0  0  0  0  0  0  0  0  0  0  0  0
  147.5099  130.9433  152.9745 C   0  0  0  0  0  0  0  0  0  0  0  0
  147.5020  132.0741  152.0125 N   0  3  1  0  0  0  0  0  0  0  0  0
  146.1576  132.4658  151.5025 C   0  0  0  0  0  0  0  0  0  0  0  0
  145.4748  131.2894  150.7793 C   0  0  0  0  0  0  0  0  0  0  0  0
  146.2371  133.6773  150.5534 C   0  0  0  0  0  0  0  0  0  0  0  0
  148.2908  133.1614  152.6305 C   0  0  0  0  0  0  0  0  0  0  0  0
  152.0743  138.6714  154.3721 N   0  0  0  0  0  0  0  0  0  0  0  0
  152.1511  139.9242  154.9916 O   0  0  0  0  0  0  0  0  0  0  0  0
  150.0918  141.3945  157.1589 H   0  0  0  0  0  0  0  0  0  0  0  0
  150.6861  142.2499  155.7342 H   0  0  0  0  0  0  0  0  0  0  0  0
  151.8235  141.6567  156.9467 H   0  0  0  0  0  0  0  0  0  0  0  0
  149.1748  138.9491  155.9828 H   0  0  0  0  0  0  0  0  0  0  0  0
  149.6933  136.9581  153.5646 H   0  0  0  0  0  0  0  0  0  0  0  0
  149.2951  135.0234  153.5084 H   0  0  0  0  0  0  0  0  0  0  0  0
  151.0358  133.0779  154.6821 H   0  0  0  0  0  0  0  0  0  0  0  0
  149.5336  133.1463  155.5650 H   0  0  0  0  0  0  0  0  0  0  0  0
  150.1101  132.0559  152.8557 H   0  0  0  0  0  0  0  0  0  0  0  0
  149.1618  130.4385  154.3332 H   0  0  0  0  0  0  0  0  0  0  0  0
  148.0000  131.5968  154.9707 H   0  0  0  0  0  0  0  0  0  0  0  0
  147.7890  130.0312  152.4458 H   0  0  0  0  0  0  0  0  0  0  0  0
  146.5293  130.7801  153.4241 H   0  0  0  0  0  0  0  0  0  0  0  0
  145.5403  132.7483  152.3568 H   0  0  0  0  0  0  0  0  0  0  0  0
  144.4987  131.5835  150.3922 H   0  0  0  0  0  0  0  0  0  0  0  0
  145.3089  130.4395  151.4410 H   0  0  0  0  0  0  0  0  0  0  0  0
  146.0725  130.9427  149.9355 H   0  0  0  0  0  0  0  0  0  0  0  0
  145.2551  133.9181  150.1448 H   0  0  0  0  0  0  0  0  0  0  0  0
  146.9040  133.4814  149.7130 H   0  0  0  0  0  0  0  0  0  0  0  0
  146.5927  134.5734  151.0624 H   0  0  0  0  0  0  0  0  0  0  0  0
  147.6381  133.7800  153.2490 H   0  0  0  0  0  0  0  0  0  0  0  0
  148.7527  133.7991  151.8760 H   0  0  0  0  0  0  0  0  0  0  0  0
  148.0407  131.7642  151.2163 H   0  0  0  0  0  0  0  0  0  0  0  0
  1  2  1  0  0  0  0
  1 20  1  0  0  0  0
  1 21  1  0  0  0  0
  1 22  1  0  0  0  0
  2 19  1  0  0  0  0
  2  3  2  0  0  0  0
  3  4  1  0  0  0  0
  3 23  1  0  0  0  0
  4  5  1  0  0  0  0
  4 18  2  0  0  0  0
  5  6  1  0  0  0  0
  5 24  1  0  0  0  0
  6  7  2  0  0  0  0
  6  8  1  0  0  0  0
  8  9  1  0  0  0  0
  8 25  1  0  0  0  0
  9 10  1  0  0  0  0
  9 26  1  0  0  0  0
  9 27  1  0  0  0  0
 10 17  1  0  0  0  0
 10 11  1  0  0  0  0
 10 28  1  0  0  0  0
 11 12  1  0  0  0  0
 11 29  1  0  0  0  0
 11 30  1  0  0  0  0
 12 13  1  0  0  0  0
 12 31  1  0  0  0  0
 12 32  1  0  0  0  0
 13 14  1  0  0  0  0
 13 17  1  0  0  0  0
 13 42  1  0  0  0  0
 14 15  1  0  0  0  0
 14 16  1  0  0  0  0
 14 33  1  0  0  0  0
 15 34  1  0  0  0  0
 15 35  1  0  0  0  0
 15 36  1  0  0  0  0
 16 37  1  0  0  0  0
 16 38  1  0  0  0  0
 16 39  1  0  0  0  0
 17 40  1  0  0  0  0
 17 41  1  0  0  0  0
 18 19  1  0  0  0  0
M  CHG  1  13   1
M  END
> <s_m_source_file>
AV-unprocessed.smi

> <i_m_source_file_index>
832

> <i_lp_mmshare_version>
43012

> <i_f3d_flags>
0

> <s_epik_input>
W0NIM11jMVtjSF1jKG5vMSlbTkhdQyg9TylbTkhdW0NIMl1bQ0BASF0yW0NIMl1bQ0gyXU4oW0NIMl0yKVtDSF0oW0NIM10pW0NIM10=

> <s_epik_cmdline>
J2VwaWtfcHl0aG9uJywgJy1waCcsICc3LjAnLCAnLXRuJywgJzgnLCAnLW1hJywgJzIwMCcsICctbWV0YWxfYmluZGluZycsICctaW1hZScsICc8aW5maWxlLm1hZT4nLCAnLW9tYWUnLCAnPG91dGZpbGUubWFlPic=

> <r_lp_tautomer_probability>
1

> <r_epik_Ionization_Penalty>
0.000242791

> <r_epik_Ionization_Penalty_Charging>
0.000220876

> <r_epik_Ionization_Penalty_Neutral>
2.19143e-05

> <r_epik_State_Penalty>
-0

> <r_epik_Charging_Adjusted_Penalty>
0.000220876

> <i_epik_Tot_Q>
1

> <i_epik_Tot_abs_Q>
1

> <r_epik_Metal_State_Penalty>
-0

> <b_epik_Metal_Only>
0

> <s_lp_Force_Field>
OPLS_2005

> <r_lp_Energy>
26.1652

> <b_lp_Chiralities_Consistent>
1

> <s_lp_Variant>
AV-unprocessed.smi:832-4

> <Gold.Version>
5.8.1

> <Gold.Id.Protein>
6NUR|6NUR_protein|mol2

> <Gold.PLP.Fitness>
46.8009

> <Gold.PLP.PLP>
-36.8857

> <Gold.PLP.part.hbond>
-5.8700

> <Gold.PLP.part.metal>
0.0000

> <Gold.PLP.part.buried>
-4.5001

> <Gold.PLP.part.nonpolar>
-27.7179

> <Gold.PLP.part.repulsive>
0.3046

> <Gold.PLP.ligand.clash>
0.0000

> <Gold.PLP.ligand.torsion>
1.3702

> <Gold.PLP.Chemscore.Hbond>
4.2112

> <Gold.PLP.Chemscore.CHOScore>
0.0000

> <Gold.PLP.Chemscore.Metal>
0.0000

> <Gold.Chemscore.Hbonds>
donor molecule, donor type, donor heavy atom, donor atom, acceptor molecule, acceptor atom, score
      L1  H     5    24       P1  7948  1.00
      L1  H     8    25       P1  7948  0.76
      L1  H    13    42       P1 10747  1.00
      P1  H  7989  7998       L1    19  0.49
      P1  H 10752 10764       L1     7  1.00

> <Gold.PLP.Chemscore.Internal.Correction>
0.0220

> <Gold.Rescore>
     Score         DG    S(hbond)    S(metal)    S(lipo)     H(rot)  DE(clash)    DE(int)     intcor
     17.97     -20.86       3.29        0.00      70.74       1.51       1.40       1.49       ----

> <Gold.Chemscore.Fitness>
17.9665

> <Gold.Chemscore.DG>
-20.8561

> <Gold.Chemscore.ZeroCoef>
-5.4800

> <Gold.Chemscore.Hbond>
3.2864

> <Gold.Chemscore.Metal>
0.0000

> <Gold.Chemscore.Lipo>
70.7436

> <Gold.Chemscore.Internal_Hbond>
0.0000

> <Gold.Chemscore.DEClash>
1.3962

> <Gold.Chemscore.DEInternal>
1.4934

> <Gold.Chemscore.Rot>
1.5146

> <Gold.Chemscore.Internal.Correction>
   9.000000E+99

> <Gold.Chemscore.Hbonds>
donor molecule, donor type, donor heavy atom, donor atom, acceptor molecule, acceptor atom, score
      L1  H     5    24       P1  7948  0.61
      L1  H     8    25       P1  7948  0.10
      L1  H    13    42       P1 10747  0.98
      P1  H  7989  7998       L1    19  0.01
      P1  H 10752 10764       L1     7  0.35

> <Gold.Chemscore.Hbond.Weighted>
-10.9764

> <Gold.Chemscore.Metal.Weighted>
-0.0000

> <Gold.Chemscore.Lipo.Weighted>
-8.2770

> <Gold.Chemscore.Internal_Hbond.Weighted>
0.0000

> <Gold.Chemscore.DEClash.Weighted>
1.3962

> <Gold.Chemscore.DEInternal.Weighted>
1.4934

> <Gold.Chemscore.Rot.Weighted>
3.8774

> <Gold.Chemscore.Internal.Correction.Weighted>
   9.000000E+99

> <Gold.Protein.RotatedTorsions>
[ 6907 6896 6895 6894 ] final  176.67 input  -60.11 | X-H torsion
[ 7974 7965 7964 7962 ] final  -18.48 input  175.53 | X-H torsion
[ 8008 7997 7996 7995 ] final  165.16 input   59.86 | X-H torsion
[ 10167 10162 10161 10158 ] final -126.48 input  -65.29 | X-H torsion
[ 10718 10713 10712 10709 ] final -103.93 input   66.30 | X-H torsion
[ 10763 10752 10751 10750 ] final  -38.96 input  -60.55 | X-H torsion
[ 11005 11000 10999 10996 ] final  113.30 input  -57.11 | X-H torsion

> <Gold.Protein.ActiveResidues>
 VAL166  LYS551  ARG553  GLY616  TRP617  ASP618  TYR619  PRO620  LYS621  CYS622 
 ASP623  PHE694  ASN695  SER759  ASP760  ASP761  ALA762  ILE779  LEU786  VAL792 
 PHE793  MET794  SER795  GLU796  ALA797  LYS798  CYS799  TRP800  GLU811  SER814 

> <Gold.Protein.RotatedAtoms>
  151.7164  133.3313  159.3303 H   0  0  0  0  0  0  0  0  0  0  0  0  # atno 6907 bound_to 6896
  150.7672  134.6487  159.6286 H   0  0  0  0  0  0  0  0  0  0  0  0  # atno 6908 bound_to 6896
  152.3679  134.6779  160.0237 H   0  0  0  0  0  0  0  0  0  0  0  0  # atno 6909 bound_to 6896
  146.1890  140.3927  142.8465 H   0  0  0  0  0  0  0  0  0  0  0  0  # atno 7974 bound_to 7965
  156.1823  140.1677  156.8251 H   0  0  0  0  0  0  0  0  0  0  0  0  # atno 8008 bound_to 7997
  154.5374  140.0744  156.8484 H   0  0  0  0  0  0  0  0  0  0  0  0  # atno 8009 bound_to 7997
  155.3284  140.3377  155.4242 H   0  0  0  0  0  0  0  0  0  0  0  0  # atno 8010 bound_to 7997
  139.9710  143.5845  152.2412 H   0  0  0  0  0  0  0  0  0  0  0  0  # atno 10167 bound_to 10162
  156.0284  130.5491  150.7324 H   0  0  0  0  0  0  0  0  0  0  0  0  # atno 10718 bound_to 10713
  153.9214  135.6782  153.4747 H   0  0  0  0  0  0  0  0  0  0  0  0  # atno 10763 bound_to 10752
  153.1026  135.4820  154.8892 H   0  0  0  0  0  0  0  0  0  0  0  0  # atno 10764 bound_to 10752
  154.7476  135.3176  154.8573 H   0  0  0  0  0  0  0  0  0  0  0  0  # atno 10765 bound_to 10752
  139.8949  134.9547  156.6718 H   0  0  0  0  0  0  0  0  0  0  0  0  # atno 11005 bound_to 11000
  144.8450  140.6915  143.6205 LP  0  0  0  0  0  0  0  0  0  0  0  0  # atno 17320 bound_to 7965
  145.3852  139.1628  143.4259 LP  0  0  0  0  0  0  0  0  0  0  0  0  # atno 17321 bound_to 7965
  139.6481  144.7659  151.2203 LP  0  0  0  0  0  0  0  0  0  0  0  0  # atno 17342 bound_to 10162
  140.7522  143.6206  150.8517 LP  0  0  0  0  0  0  0  0  0  0  0  0  # atno 17343 bound_to 10162
  157.4913  131.0911  151.0424 LP  0  0  0  0  0  0  0  0  0  0  0  0  # atno 17370 bound_to 10713
  157.0830  130.5911  149.5424 LP  0  0  0  0  0  0  0  0  0  0  0  0  # atno 17371 bound_to 10713
  140.7367  133.9012  155.8249 LP  0  0  0  0  0  0  0  0  0  0  0  0  # atno 17394 bound_to 11000
  141.0110  134.1020  157.4221 LP  0  0  0  0  0  0  0  0  0  0  0  0  # atno 17395 bound_to 11000

$$$$
