AV-unprocessed.smi:573|AV-procd|sdf|2970|dock3
  -GOLD-   2262023473D 1   1.00000     0.00000
 Structure written by MMmdl.
 45 47  0  0  0  0  0  0  0  0  2 V2000
  147.4163  140.1748  154.3934 C   0  0  0  0  0  0  0  0  0  0  0  0
  147.8919  139.6638  153.0236 C   0  0  1  0  0  0  0  0  0  0  0  0
  149.0312  138.8433  153.1772 O   0  0  0  0  0  0  0  0  0  0  0  0
  146.8179  138.9395  152.1806 C   0  0  0  0  0  0  0  0  0  0  0  0
  146.5312  137.5803  152.6223 N   0  0  0  0  0  0  0  0  0  0  0  0
  145.2087  137.1850  152.8544 C   0  0  0  0  0  0  0  0  0  0  0  0
  144.1398  138.0091  153.0177 N   0  3  0  0  0  0  0  0  0  0  0  0
  143.0014  137.2210  153.2060 C   0  0  0  0  0  0  0  0  0  0  0  0
  141.6719  137.5810  153.4040 C   0  0  0  0  0  0  0  0  0  0  0  0
  140.7454  136.5282  153.5521 C   0  0  0  0  0  0  0  0  0  0  0  0
  141.1514  135.1790  153.5002 C   0  0  0  0  0  0  0  0  0  0  0  0
  142.5014  134.8229  153.3018 C   0  0  0  0  0  0  0  0  0  0  0  0
  143.4147  135.8675  153.1594 C   0  0  0  0  0  0  0  0  0  0  0  0
  144.8002  135.8940  152.9509 N   0  0  0  0  0  0  0  0  0  0  0  0
  145.5575  134.6383  152.8439 C   0  0  0  0  0  0  0  0  0  0  0  0
  145.4617  134.0298  151.4358 C   0  0  1  0  0  0  0  0  0  0  0  0
  146.0422  132.6050  151.3749 C   0  0  0  0  0  0  0  0  0  0  0  0
  145.8790  132.0212  149.9667 C   0  0  0  0  0  0  0  0  0  0  0  0
  144.4146  132.1277  149.5274 C   0  0  0  0  0  0  0  0  0  0  0  0
  143.9108  133.5709  149.6879 C   0  0  0  0  0  0  0  0  0  0  0  0
  144.0934  133.9993  151.0334 O   0  0  0  0  0  0  0  0  0  0  0  0
  146.5273  140.7976  154.2932 H   0  0  0  0  0  0  0  0  0  0  0  0
  148.1881  140.7771  154.8737 H   0  0  0  0  0  0  0  0  0  0  0  0
  147.1784  139.3535  155.0694 H   0  0  0  0  0  0  0  0  0  0  0  0
  148.2295  140.5254  152.4468 H   0  0  0  0  0  0  0  0  0  0  0  0
  148.8293  137.9839  152.8400 H   0  0  0  0  0  0  0  0  0  0  0  0
  145.8810  139.4892  152.2728 H   0  0  0  0  0  0  0  0  0  0  0  0
  147.0701  138.9585  151.1197 H   0  0  0  0  0  0  0  0  0  0  0  0
  147.2314  136.8696  152.4650 H   0  0  0  0  0  0  0  0  0  0  0  0
  141.3564  138.6134  153.4391 H   0  0  0  0  0  0  0  0  0  0  0  0
  139.7012  136.7599  153.7054 H   0  0  0  0  0  0  0  0  0  0  0  0
  140.4119  134.3996  153.6131 H   0  0  0  0  0  0  0  0  0  0  0  0
  142.7973  133.7854  153.2563 H   0  0  0  0  0  0  0  0  0  0  0  0
  146.5970  134.8579  153.0899 H   0  0  0  0  0  0  0  0  0  0  0  0
  145.2048  133.9389  153.6013 H   0  0  0  0  0  0  0  0  0  0  0  0
  146.0154  134.6706  150.7480 H   0  0  0  0  0  0  0  0  0  0  0  0
  147.0959  132.6131  151.6550 H   0  0  0  0  0  0  0  0  0  0  0  0
  145.5305  131.9667  152.0963 H   0  0  0  0  0  0  0  0  0  0  0  0
  146.5122  132.5681  149.2668 H   0  0  0  0  0  0  0  0  0  0  0  0
  146.2094  130.9824  149.9442 H   0  0  0  0  0  0  0  0  0  0  0  0
  144.3057  131.8022  148.4924 H   0  0  0  0  0  0  0  0  0  0  0  0
  143.8010  131.4594  150.1326 H   0  0  0  0  0  0  0  0  0  0  0  0
  144.4316  134.2455  149.0066 H   0  0  0  0  0  0  0  0  0  0  0  0
  142.8504  133.6280  149.4419 H   0  0  0  0  0  0  0  0  0  0  0  0
  144.1840  139.0191  152.9870 H   0  0  0  0  0  0  0  0  0  0  0  0
  1  2  1  0  0  0  0
  1 22  1  0  0  0  0
  1 23  1  0  0  0  0
  1 24  1  0  0  0  0
  2  3  1  0  0  0  0
  2  4  1  0  0  0  0
  2 25  1  0  0  0  0
  3 26  1  0  0  0  0
  4  5  1  0  0  0  0
  4 27  1  0  0  0  0
  4 28  1  0  0  0  0
  5  6  1  0  0  0  0
  5 29  1  0  0  0  0
  6 14  1  0  0  0  0
  6  7  2  0  0  0  0
  7  8  1  0  0  0  0
  7 45  1  0  0  0  0
  8 13  2  0  0  0  0
  8  9  1  0  0  0  0
  9 10  2  0  0  0  0
  9 30  1  0  0  0  0
 10 11  1  0  0  0  0
 10 31  1  0  0  0  0
 11 12  2  0  0  0  0
 11 32  1  0  0  0  0
 12 13  1  0  0  0  0
 12 33  1  0  0  0  0
 13 14  1  0  0  0  0
 14 15  1  0  0  0  0
 15 16  1  0  0  0  0
 15 34  1  0  0  0  0
 15 35  1  0  0  0  0
 16 21  1  0  0  0  0
 16 17  1  0  0  0  0
 16 36  1  0  0  0  0
 17 18  1  0  0  0  0
 17 37  1  0  0  0  0
 17 38  1  0  0  0  0
 18 19  1  0  0  0  0
 18 39  1  0  0  0  0
 18 40  1  0  0  0  0
 19 20  1  0  0  0  0
 19 41  1  0  0  0  0
 19 42  1  0  0  0  0
 20 21  1  0  0  0  0
 20 43  1  0  0  0  0
 20 44  1  0  0  0  0
M  CHG  1   7   1
M  END
> <s_m_source_file>
AV-unprocessed.smi

> <i_m_source_file_index>
573

> <i_lp_mmshare_version>
43012

> <i_f3d_flags>
0

> <s_epik_input>
W0NIM11bQ0BIXShbT0hdKVtDSDJdW05IXWMobjEpbihjKGMxMilbY0hdW2NIXVtjSF1bY0hdMilbQ0gyXVtDQEBIXTNbQ0gyXVtDSDJdW0NIMl1bQ0gyXU8z

> <s_epik_cmdline>
J2VwaWtfcHl0aG9uJywgJy1waCcsICc3LjAnLCAnLXRuJywgJzgnLCAnLW1hJywgJzIwMCcsICctbWV0YWxfYmluZGluZycsICctaW1hZScsICc8aW5maWxlLm1hZT4nLCAnLW9tYWUnLCAnPG91dGZpbGUubWFlPic=

> <r_epik_Ionization_Penalty>
0.0692245

> <r_epik_Ionization_Penalty_Charging>
0.0692223

> <r_epik_Ionization_Penalty_Neutral>
2.1869e-06

> <r_epik_State_Penalty>
0.0606215

> <r_epik_Charging_Adjusted_Penalty>
0.129844

> <i_epik_Tot_Q>
1

> <i_epik_Tot_abs_Q>
1

> <r_epik_Metal_State_Penalty>
2.77811

> <b_epik_Metal_Only>
0

> <s_lp_Force_Field>
OPLS_2005

> <r_lp_Energy>
24.0167

> <b_lp_Chiralities_Consistent>
1

> <s_lp_Variant>
AV-unprocessed.smi:573-4

> <Gold.Version>
5.8.1

> <Gold.Id.Protein>
6NUR|6NUR_protein|mol2

> <Gold.PLP.Fitness>
52.9057

> <Gold.PLP.PLP>
-38.8654

> <Gold.PLP.part.hbond>
-3.9057

> <Gold.PLP.part.metal>
0.0000

> <Gold.PLP.part.buried>
-1.2046

> <Gold.PLP.part.nonpolar>
-34.5699

> <Gold.PLP.part.repulsive>
0.2069

> <Gold.PLP.ligand.clash>
0.0000

> <Gold.PLP.ligand.torsion>
0.4982

> <Gold.PLP.Chemscore.Hbond>
5.0000

> <Gold.PLP.Chemscore.CHOScore>
0.0000

> <Gold.PLP.Chemscore.Metal>
0.0000

> <Gold.Chemscore.Hbonds>
donor molecule, donor type, donor heavy atom, donor atom, acceptor molecule, acceptor atom, score
      L1  H     3    26       P1  7948  1.00
      L1  H     5    29       P1  7948  2.00
      L1  H     7    45       P1 10175  2.00

> <Gold.PLP.Chemscore.Internal.Correction>
0.0366

> <Gold.Rescore>
     Score         DG    S(hbond)    S(metal)    S(lipo)     H(rot)  DE(clash)    DE(int)     intcor
     17.98     -22.46       2.92        0.00     107.15       2.07       2.90       1.58       ----

> <Gold.Chemscore.Fitness>
17.9813

> <Gold.Chemscore.DG>
-22.4580

> <Gold.Chemscore.ZeroCoef>
-5.4800

> <Gold.Chemscore.Hbond>
2.9165

> <Gold.Chemscore.Metal>
0.0000

> <Gold.Chemscore.Lipo>
107.1452

> <Gold.Chemscore.Internal_Hbond>
0.0000

> <Gold.Chemscore.DEClash>
2.9005

> <Gold.Chemscore.DEInternal>
1.5761

> <Gold.Chemscore.Rot>
2.0699

> <Gold.Chemscore.Internal.Correction>
   9.000000E+99

> <Gold.Chemscore.Hbonds>
donor molecule, donor type, donor heavy atom, donor atom, acceptor molecule, acceptor atom, score
      L1  H     3    26       P1  7948  0.97
      L1  H     5    29       P1  7948  0.97
      L1  H     7    45       P1 10175  0.94

> <Gold.Chemscore.Hbond.Weighted>
-9.7410

> <Gold.Chemscore.Metal.Weighted>
-0.0000

> <Gold.Chemscore.Lipo.Weighted>
-12.5360

> <Gold.Chemscore.Internal_Hbond.Weighted>
0.0000

> <Gold.Chemscore.DEClash.Weighted>
2.9005

> <Gold.Chemscore.DEInternal.Weighted>
1.5761

> <Gold.Chemscore.Rot.Weighted>
5.2991

> <Gold.Chemscore.Internal.Correction.Weighted>
   9.000000E+99

> <Gold.Protein.RotatedTorsions>
[ 6907 6896 6895 6894 ] final  -59.55 input  -60.11 | X-H torsion
[ 7974 7965 7964 7962 ] final  120.64 input  175.53 | X-H torsion
[ 8008 7997 7996 7995 ] final -145.39 input   59.86 | X-H torsion
[ 10167 10162 10161 10158 ] final -114.31 input  -65.29 | X-H torsion
[ 10718 10713 10712 10709 ] final   42.61 input   66.30 | X-H torsion
[ 10763 10752 10751 10750 ] final  112.65 input  -60.55 | X-H torsion
[ 11005 11000 10999 10996 ] final  164.85 input  -57.11 | X-H torsion

> <Gold.Protein.ActiveResidues>
 VAL166  LYS551  ARG553  GLY616  TRP617  ASP618  TYR619  PRO620  LYS621  CYS622 
 ASP623  PHE694  ASN695  SER759  ASP760  ASP761  ALA762  ILE779  LEU786  VAL792 
 PHE793  MET794  SER795  GLU796  ALA797  LYS798  CYS799  TRP800  GLU811  SER814 

> <Gold.Protein.RotatedAtoms>
  150.7922  134.6954  159.6519 H   0  0  0  0  0  0  0  0  0  0  0  0  # atno 6907 bound_to 6896
  152.4029  134.6253  160.0071 H   0  0  0  0  0  0  0  0  0  0  0  0  # atno 6908 bound_to 6896
  151.6519  133.3284  159.3190 H   0  0  0  0  0  0  0  0  0  0  0  0  # atno 6909 bound_to 6896
  145.1287  139.3341  143.4676 H   0  0  0  0  0  0  0  0  0  0  0  0  # atno 7974 bound_to 7965
  155.5424  140.0609  157.2867 H   0  0  0  0  0  0  0  0  0  0  0  0  # atno 8008 bound_to 7997
  154.4447  140.1917  156.0648 H   0  0  0  0  0  0  0  0  0  0  0  0  # atno 8009 bound_to 7997
  156.0575  140.3276  155.7426 H   0  0  0  0  0  0  0  0  0  0  0  0  # atno 8010 bound_to 7997
  140.1023  143.4601  152.1804 H   0  0  0  0  0  0  0  0  0  0  0  0  # atno 10167 bound_to 10162
  157.4068  130.7891  149.7395 H   0  0  0  0  0  0  0  0  0  0  0  0  # atno 10718 bound_to 10713
  153.4809  135.3679  155.2442 H   0  0  0  0  0  0  0  0  0  0  0  0  # atno 10763 bound_to 10752
  154.8755  135.3954  154.3701 H   0  0  0  0  0  0  0  0  0  0  0  0  # atno 10764 bound_to 10752
  153.4304  135.7082  153.6299 H   0  0  0  0  0  0  0  0  0  0  0  0  # atno 10765 bound_to 10752
  140.2501  134.7983  157.3494 H   0  0  0  0  0  0  0  0  0  0  0  0  # atno 11005 bound_to 11000
  146.3515  140.1277  142.8598 LP  0  0  0  0  0  0  0  0  0  0  0  0  # atno 17320 bound_to 7965
  145.0659  140.9121  143.4911 LP  0  0  0  0  0  0  0  0  0  0  0  0  # atno 17321 bound_to 7965
  139.5664  144.7437  151.4010 LP  0  0  0  0  0  0  0  0  0  0  0  0  # atno 17342 bound_to 10162
  140.6971  143.7723  150.7343 LP  0  0  0  0  0  0  0  0  0  0  0  0  # atno 17343 bound_to 10162
  155.9839  130.3996  150.3341 LP  0  0  0  0  0  0  0  0  0  0  0  0  # atno 17370 bound_to 10713
  157.1475  131.0312  151.2900 LP  0  0  0  0  0  0  0  0  0  0  0  0  # atno 17371 bound_to 10713
  140.1566  134.4782  155.7923 LP  0  0  0  0  0  0  0  0  0  0  0  0  # atno 17394 bound_to 11000
  141.2202  133.6884  156.7471 LP  0  0  0  0  0  0  0  0  0  0  0  0  # atno 17395 bound_to 11000

$$$$
