AV-unprocessed.smi:610|AV-procd|sdf|3053|dock3
  -GOLD-   2262023573D 1   1.00000     0.00000
 Structure written by MMmdl.
 39 40  0  0  0  0  0  0  0  0  3 V2000
  146.7875  139.3907  151.4899 C   0  0  0  0  0  0  0  0  0  0  0  0
  146.4643  138.6430  152.7902 C   0  0  2  0  0  0  0  0  0  0  0  0
  147.3679  139.1198  153.9475 C   0  0  0  0  0  0  0  0  0  0  0  0
  147.2660  140.5618  154.1993 N   0  0  0  0  0  0  0  0  0  0  0  0
  146.1209  141.2945  154.3810 C   0  0  0  0  0  0  0  0  0  0  0  0
  146.5149  142.5918  154.5851 C   0  0  0  0  0  0  0  0  0  0  0  0
  147.8821  142.5981  154.5095 N   0  3  0  0  0  0  0  0  0  0  0  0
  148.3365  141.3641  154.2681 C   0  0  0  0  0  0  0  0  0  0  0  0
  146.6218  137.2073  152.5600 N   0  0  0  0  0  0  0  0  0  0  0  0
  145.7079  136.2579  152.8268 C   0  0  0  0  0  0  0  0  0  0  0  0
  144.6020  136.5229  153.2990 O   0  0  0  0  0  0  0  0  0  0  0  0
  146.0662  134.7872  152.5058 C   0  0  0  0  0  0  0  0  0  0  0  0
  147.3697  134.5075  153.1359 N   0  3  0  0  0  0  0  0  0  0  0  0
  144.9993  133.7596  152.9378 C   0  0  0  0  0  0  0  0  0  0  0  0
  143.9350  133.7945  151.8329 C   0  0  0  0  0  0  0  0  0  0  0  0
  144.6640  134.2674  150.5652 C   0  0  0  0  0  0  0  0  0  0  0  0
  146.1155  134.5424  150.9854 C   0  0  0  0  0  0  0  0  0  0  0  0
  146.6513  140.4657  151.6111 H   0  0  0  0  0  0  0  0  0  0  0  0
  146.1354  139.0683  150.6774 H   0  0  0  0  0  0  0  0  0  0  0  0
  147.8186  139.2203  151.1778 H   0  0  0  0  0  0  0  0  0  0  0  0
  145.4253  138.8673  153.0381 H   0  0  0  0  0  0  0  0  0  0  0  0
  147.1345  138.5840  154.8693 H   0  0  0  0  0  0  0  0  0  0  0  0
  148.4140  138.9117  153.7188 H   0  0  0  0  0  0  0  0  0  0  0  0
  145.1369  140.8485  154.3584 H   0  0  0  0  0  0  0  0  0  0  0  0
  145.9397  143.4874  154.7708 H   0  0  0  0  0  0  0  0  0  0  0  0
  149.3663  141.0740  154.1572 H   0  0  0  0  0  0  0  0  0  0  0  0
  147.5039  136.9112  152.1670 H   0  0  0  0  0  0  0  0  0  0  0  0
  147.5489  133.5137  153.1184 H   0  0  0  0  0  0  0  0  0  0  0  0
  147.3603  134.8329  154.0920 H   0  0  0  0  0  0  0  0  0  0  0  0
  145.4447  132.7634  152.9620 H   0  0  0  0  0  0  0  0  0  0  0  0
  144.5786  133.9278  153.9298 H   0  0  0  0  0  0  0  0  0  0  0  0
  143.4659  132.8195  151.6970 H   0  0  0  0  0  0  0  0  0  0  0  0
  143.1467  134.5024  152.0913 H   0  0  0  0  0  0  0  0  0  0  0  0
  144.6181  133.5236  149.7690 H   0  0  0  0  0  0  0  0  0  0  0  0
  144.1995  135.1781  150.1862 H   0  0  0  0  0  0  0  0  0  0  0  0
  146.5555  135.3618  150.4156 H   0  0  0  0  0  0  0  0  0  0  0  0
  146.7188  133.6577  150.7742 H   0  0  0  0  0  0  0  0  0  0  0  0
  148.0961  134.9903  152.6261 H   0  0  0  0  0  0  0  0  0  0  0  0
  148.4661  143.4187  154.6133 H   0  0  0  0  0  0  0  0  0  0  0  0
  1  2  1  0  0  0  0
  1 18  1  0  0  0  0
  1 19  1  0  0  0  0
  1 20  1  0  0  0  0
  2  3  1  0  0  0  0
  2  9  1  0  0  0  0
  2 21  1  0  0  0  0
  3  4  1  0  0  0  0
  3 22  1  0  0  0  0
  3 23  1  0  0  0  0
  4  8  1  0  0  0  0
  4  5  1  0  0  0  0
  5  6  2  0  0  0  0
  5 24  1  0  0  0  0
  6  7  1  0  0  0  0
  6 25  1  0  0  0  0
  7  8  2  0  0  0  0
  7 39  1  0  0  0  0
  8 26  1  0  0  0  0
  9 10  1  0  0  0  0
  9 27  1  0  0  0  0
 10 11  2  0  0  0  0
 10 12  1  0  0  0  0
 12 17  1  0  0  0  0
 12 13  1  0  0  0  0
 12 14  1  0  0  0  0
 13 28  1  0  0  0  0
 13 29  1  0  0  0  0
 13 38  1  0  0  0  0
 14 15  1  0  0  0  0
 14 30  1  0  0  0  0
 14 31  1  0  0  0  0
 15 16  1  0  0  0  0
 15 32  1  0  0  0  0
 15 33  1  0  0  0  0
 16 17  1  0  0  0  0
 16 34  1  0  0  0  0
 16 35  1  0  0  0  0
 17 36  1  0  0  0  0
 17 37  1  0  0  0  0
M  CHG  1   7   1
M  CHG  1  13   1
M  END
> <s_m_source_file>
AV-unprocessed.smi

> <i_m_source_file_index>
610

> <i_lp_mmshare_version>
43012

> <i_f3d_flags>
0

> <s_epik_input>
W2NIXTFuW2NIXVtjSF1uMVtDSDJdW0NAQEhdKFtDSDNdKVtOSF1DKD1PKUMyKFtOSDJdKVtDSDJdW0NIMl1bQ0gyXVtDSDJdMg==

> <s_epik_cmdline>
J2VwaWtfcHl0aG9uJywgJy1waCcsICc3LjAnLCAnLXRuJywgJzgnLCAnLW1hJywgJzIwMCcsICctbWV0YWxfYmluZGluZycsICctaW1hZScsICc8aW5maWxlLm1hZT4nLCAnLW9tYWUnLCAnPG91dGZpbGUubWFlPic=

> <r_lp_tautomer_probability>
1

> <r_epik_Ionization_Penalty>
0.349719

> <r_epik_Ionization_Penalty_Charging>
0.0753376

> <r_epik_Ionization_Penalty_Neutral>
0.274381

> <r_epik_State_Penalty>
0.326418

> <r_epik_Charging_Adjusted_Penalty>
0.401755

> <i_epik_Tot_Q>
2

> <i_epik_Tot_abs_Q>
2

> <r_epik_Metal_State_Penalty>
0.608513

> <b_epik_Metal_Only>
0

> <s_lp_Force_Field>
OPLS_2005

> <r_lp_Energy>
30.886

> <b_lp_Chiralities_Consistent>
1

> <s_lp_Variant>
AV-unprocessed.smi:610-1

> <Gold.Version>
5.8.1

> <Gold.Id.Protein>
6NUR|6NUR_protein|mol2

> <Gold.PLP.Fitness>
45.2371

> <Gold.PLP.PLP>
-28.0101

> <Gold.PLP.part.hbond>
-3.0000

> <Gold.PLP.part.metal>
0.0000

> <Gold.PLP.part.buried>
-1.3330

> <Gold.PLP.part.nonpolar>
-24.1284

> <Gold.PLP.part.repulsive>
0.3478

> <Gold.PLP.ligand.clash>
0.0000

> <Gold.PLP.ligand.torsion>
0.3502

> <Gold.PLP.Chemscore.Hbond>
4.9520

> <Gold.PLP.Chemscore.CHOScore>
0.9939

> <Gold.PLP.Chemscore.Metal>
0.0000

> <Gold.Chemscore.Hbonds>
donor molecule, donor type, donor heavy atom, donor atom, acceptor molecule, acceptor atom, score
      L1  H     7    39       P1  8028  1.79
      L1  H     9    27       P1  7948  1.00
      L1  H    13    38       P1  7948  2.00
      L1  C     5    24       P1 10175  0.99

> <Gold.PLP.Chemscore.Internal.Correction>
0.0897

> <Gold.Rescore>
     Score         DG    S(hbond)    S(metal)    S(lipo)     H(rot)  DE(clash)    DE(int)     intcor
     16.12     -16.71       2.95        0.00      56.87       2.06       0.39       0.20       ----

> <Gold.Chemscore.Fitness>
16.1233

> <Gold.Chemscore.DG>
-16.7103

> <Gold.Chemscore.ZeroCoef>
-5.4800

> <Gold.Chemscore.Hbond>
2.9525

> <Gold.Chemscore.Metal>
0.0000

> <Gold.Chemscore.Lipo>
56.8698

> <Gold.Chemscore.Internal_Hbond>
0.0000

> <Gold.Chemscore.DEClash>
0.3862

> <Gold.Chemscore.DEInternal>
0.2007

> <Gold.Chemscore.Rot>
2.0644

> <Gold.Chemscore.Internal.Correction>
   9.000000E+99

> <Gold.Chemscore.Hbonds>
donor molecule, donor type, donor heavy atom, donor atom, acceptor molecule, acceptor atom, score
      L1  H     7    39       P1  8028  0.88
      L1  H     9    27       P1  7948  0.99
      L1  H    13    38       P1  7948  0.85

> <Gold.Chemscore.Hbond.Weighted>
-9.8613

> <Gold.Chemscore.Metal.Weighted>
-0.0000

> <Gold.Chemscore.Lipo.Weighted>
-6.6538

> <Gold.Chemscore.Internal_Hbond.Weighted>
0.0000

> <Gold.Chemscore.DEClash.Weighted>
0.3862

> <Gold.Chemscore.DEInternal.Weighted>
0.2007

> <Gold.Chemscore.Rot.Weighted>
5.2848

> <Gold.Chemscore.Internal.Correction.Weighted>
   9.000000E+99

> <Gold.Protein.RotatedTorsions>
[ 6907 6896 6895 6894 ] final  111.11 input  -60.11 | X-H torsion
[ 7974 7965 7964 7962 ] final -120.94 input  175.53 | X-H torsion
[ 8008 7997 7996 7995 ] final  138.26 input   59.86 | X-H torsion
[ 10167 10162 10161 10158 ] final  -91.89 input  -65.29 | X-H torsion
[ 10718 10713 10712 10709 ] final  -43.94 input   66.30 | X-H torsion
[ 10763 10752 10751 10750 ] final  154.53 input  -60.55 | X-H torsion
[ 11005 11000 10999 10996 ] final  123.95 input  -57.11 | X-H torsion

> <Gold.Protein.ActiveResidues>
 VAL166  LYS551  ARG553  GLY616  TRP617  ASP618  TYR619  PRO620  LYS621  CYS622 
 ASP623  PHE694  ASN695  SER759  ASP760  ASP761  ALA762  ILE779  LEU786  VAL792 
 PHE793  MET794  SER795  GLU796  ALA797  LYS798  CYS799  TRP800  GLU811  SER814 

> <Gold.Protein.RotatedAtoms>
  152.4986  133.8704  159.7295 H   0  0  0  0  0  0  0  0  0  0  0  0  # atno 6907 bound_to 6896
  150.9192  133.6892  159.2843 H   0  0  0  0  0  0  0  0  0  0  0  0  # atno 6908 bound_to 6896
  151.4275  135.1010  159.9685 H   0  0  0  0  0  0  0  0  0  0  0  0  # atno 6909 bound_to 6896
  145.0458  140.8180  143.4239 H   0  0  0  0  0  0  0  0  0  0  0  0  # atno 7974 bound_to 7965
  156.2998  140.2398  156.4044 H   0  0  0  0  0  0  0  0  0  0  0  0  # atno 8008 bound_to 7997
  154.8498  140.0424  157.1616 H   0  0  0  0  0  0  0  0  0  0  0  0  # atno 8009 bound_to 7997
  154.9011  140.2977  155.5321 H   0  0  0  0  0  0  0  0  0  0  0  0  # atno 8010 bound_to 7997
  140.3404  143.2945  151.9842 H   0  0  0  0  0  0  0  0  0  0  0  0  # atno 10167 bound_to 10162
  156.2437  130.4182  149.8730 H   0  0  0  0  0  0  0  0  0  0  0  0  # atno 10718 bound_to 10713
  154.1539  135.2813  155.3128 H   0  0  0  0  0  0  0  0  0  0  0  0  # atno 10763 bound_to 10752
  154.6197  135.5471  153.7565 H   0  0  0  0  0  0  0  0  0  0  0  0  # atno 10764 bound_to 10752
  153.0213  135.6436  154.1682 H   0  0  0  0  0  0  0  0  0  0  0  0  # atno 10765 bound_to 10752
  139.9336  134.9640  156.8336 H   0  0  0  0  0  0  0  0  0  0  0  0  # atno 11005 bound_to 11000
  145.1589  139.2470  143.5402 LP  0  0  0  0  0  0  0  0  0  0  0  0  # atno 17320 bound_to 7965
  146.3513  140.1311  142.8597 LP  0  0  0  0  0  0  0  0  0  0  0  0  # atno 17321 bound_to 7965
  139.4841  144.6162  151.7342 LP  0  0  0  0  0  0  0  0  0  0  0  0  # atno 17342 bound_to 10162
  140.5315  144.0723  150.6055 LP  0  0  0  0  0  0  0  0  0  0  0  0  # atno 17343 bound_to 10162
  156.6303  130.8663  151.3494 LP  0  0  0  0  0  0  0  0  0  0  0  0  # atno 17370 bound_to 10713
  157.7186  130.9529  150.1350 LP  0  0  0  0  0  0  0  0  0  0  0  0  # atno 17371 bound_to 10713
  140.6135  134.0060  155.7587 LP  0  0  0  0  0  0  0  0  0  0  0  0  # atno 17394 bound_to 11000
  141.0938  133.9875  157.3193 LP  0  0  0  0  0  0  0  0  0  0  0  0  # atno 17395 bound_to 11000

$$$$
