AV-unprocessed.smi:287|AV-procd|sdf|2200|dock3
  -GOLD-   2262022 13D 1   1.00000     0.00000
 Structure written by MMmdl.
 55 58  0  0  0  0  0  0  0  0  1 V2000
  151.9791  145.7767  160.1853 C   0  0  0  0  0  0  0  0  0  0  0  0
  151.6804  144.4775  159.5192 C   0  0  0  0  0  0  0  0  0  0  0  0
  150.9230  144.1208  158.4417 C   0  0  0  0  0  0  0  0  0  0  0  0
  151.0458  142.7076  158.2837 C   0  0  0  0  0  0  0  0  0  0  0  0
  150.3764  141.8549  157.2143 C   0  0  2  0  0  0  0  0  0  0  0  0
  151.1765  140.5582  157.0110 C   0  0  0  0  0  0  0  0  0  0  0  0
  150.3553  142.4885  155.9495 O   0  0  0  0  0  0  0  0  0  0  0  0
  148.9013  141.5249  157.5418 C   0  0  0  0  0  0  0  0  0  0  0  0
  147.9929  142.6287  157.2481 N   0  0  0  0  0  0  0  0  0  0  0  0
  146.6893  142.5442  157.5843 C   0  0  0  0  0  0  0  0  0  0  0  0
  146.3096  142.1250  158.8196 N   0  0  0  0  0  0  0  0  0  0  0  0
  145.0113  142.0433  159.1253 C   0  0  0  0  0  0  0  0  0  0  0  0
  143.9550  142.3273  158.3608 N   0  0  0  0  0  0  0  0  0  0  0  0
  144.3316  142.7538  157.1203 C   0  0  0  0  0  0  0  0  0  0  0  0
  145.6706  142.8878  156.6589 C   0  0  0  0  0  0  0  0  0  0  0  0
  145.6746  143.3445  155.3476 N   0  0  0  0  0  0  0  0  0  0  0  0
  144.4083  143.4700  155.0541 C   0  0  0  0  0  0  0  0  0  0  0  0
  143.5315  143.1368  156.0626 N   0  0  0  0  0  0  0  0  0  0  0  0
  142.0392  143.1769  156.0195 C   0  0  1  0  0  0  0  0  0  0  0  0
  141.5906  143.8776  157.1347 O   0  0  0  0  0  0  0  0  0  0  0  0
  140.4156  144.5943  156.7860 C   0  0  1  0  0  0  0  0  0  0  0  0
  140.1333  145.7168  157.8001 C   0  0  0  0  0  0  0  0  0  0  0  0
  139.9124  145.1672  159.0813 O   0  0  0  0  0  0  0  0  0  0  0  0
  140.6961  145.0504  155.3453 C   0  0  1  0  0  0  0  0  0  0  0  0
  141.4181  146.2674  155.3119 O   0  0  0  0  0  0  0  0  0  0  0  0
  141.5358  143.9133  154.7652 C   0  0  2  0  0  0  0  0  0  0  0  0
  140.7108  143.0732  153.9824 O   0  0  0  0  0  0  0  0  0  0  0  0
  151.8649  142.3105  159.3129 C   0  0  0  0  0  0  0  0  0  0  0  0
  152.3890  140.9880  159.7669 C   0  0  0  0  0  0  0  0  0  0  0  0
  152.2599  143.3776  160.0618 O   0  0  0  0  0  0  0  0  0  0  0  0
  141.7257  142.1331  156.0727 H   0  0  0  0  0  0  0  0  0  0  0  0
  139.5802  143.8914  156.7617 H   0  0  0  0  0  0  0  0  0  0  0  0
  139.7680  145.2097  154.7943 H   0  0  0  0  0  0  0  0  0  0  0  0
  142.3652  144.2745  154.1541 H   0  0  0  0  0  0  0  0  0  0  0  0
  151.4725  146.5988  159.6797 H   0  0  0  0  0  0  0  0  0  0  0  0
  153.0499  145.9803  160.1718 H   0  0  0  0  0  0  0  0  0  0  0  0
  151.6492  145.7637  161.2241 H   0  0  0  0  0  0  0  0  0  0  0  0
  150.3505  144.7998  157.8272 H   0  0  0  0  0  0  0  0  0  0  0  0
  151.2242  139.9763  157.9321 H   0  0  0  0  0  0  0  0  0  0  0  0
  152.2018  140.7691  156.7032 H   0  0  0  0  0  0  0  0  0  0  0  0
  150.7255  139.9244  156.2464 H   0  0  0  0  0  0  0  0  0  0  0  0
  149.7739  143.2318  155.9965 H   0  0  0  0  0  0  0  0  0  0  0  0
  148.5844  140.6191  157.0224 H   0  0  0  0  0  0  0  0  0  0  0  0
  148.8147  141.3175  158.6096 H   0  0  0  0  0  0  0  0  0  0  0  0
  148.4116  143.4505  156.8356 H   0  0  0  0  0  0  0  0  0  0  0  0
  144.7860  141.7010  160.1242 H   0  0  0  0  0  0  0  0  0  0  0  0
  144.0765  143.8132  154.0851 H   0  0  0  0  0  0  0  0  0  0  0  0
  140.9516  146.4371  157.8333 H   0  0  0  0  0  0  0  0  0  0  0  0
  139.2301  146.2593  157.5202 H   0  0  0  0  0  0  0  0  0  0  0  0
  139.6356  145.8597  159.6618 H   0  0  0  0  0  0  0  0  0  0  0  0
  140.8716  146.9529  155.6642 H   0  0  0  0  0  0  0  0  0  0  0  0
  141.2321  142.3515  153.6651 H   0  0  0  0  0  0  0  0  0  0  0  0
  151.5766  140.2709  159.8858 H   0  0  0  0  0  0  0  0  0  0  0  0
  152.9024  141.0737  160.7248 H   0  0  0  0  0  0  0  0  0  0  0  0
  153.0950  140.5831  159.0421 H   0  0  0  0  0  0  0  0  0  0  0  0
  1  2  1  0  0  0  0
  1 35  1  0  0  0  0
  1 36  1  0  0  0  0
  1 37  1  0  0  0  0
  2 30  1  0  0  0  0
  2  3  2  0  0  0  0
  3  4  1  0  0  0  0
  3 38  1  0  0  0  0
  4  5  1  0  0  0  0
  4 28  2  0  0  0  0
  5  6  1  0  0  0  0
  5  7  1  0  0  0  0
  5  8  1  0  0  0  0
  6 39  1  0  0  0  0
  6 40  1  0  0  0  0
  6 41  1  0  0  0  0
  7 42  1  0  0  0  0
  8  9  1  0  0  0  0
  8 43  1  0  0  0  0
  8 44  1  0  0  0  0
  9 10  1  0  0  0  0
  9 45  1  0  0  0  0
 10 15  1  0  0  0  0
 10 11  2  0  0  0  0
 11 12  1  0  0  0  0
 12 13  2  0  0  0  0
 12 46  1  0  0  0  0
 13 14  1  0  0  0  0
 14 18  1  0  0  0  0
 14 15  2  0  0  0  0
 15 16  1  0  0  0  0
 16 17  2  0  0  0  0
 17 18  1  0  0  0  0
 17 47  1  0  0  0  0
 18 19  1  0  0  0  0
 19 31  1  0  0  0  0
 19 26  1  0  0  0  0
 19 20  1  0  0  0  0
 20 21  1  0  0  0  0
 21 32  1  0  0  0  0
 21 22  1  0  0  0  0
 21 24  1  0  0  0  0
 22 23  1  0  0  0  0
 22 48  1  0  0  0  0
 22 49  1  0  0  0  0
 23 50  1  0  0  0  0
 24 33  1  0  0  0  0
 24 25  1  0  0  0  0
 24 26  1  0  0  0  0
 25 51  1  0  0  0  0
 26 34  1  0  0  0  0
 26 27  1  0  0  0  0
 27 52  1  0  0  0  0
 28 29  1  0  0  0  0
 28 30  1  0  0  0  0
 29 53  1  0  0  0  0
 29 54  1  0  0  0  0
 29 55  1  0  0  0  0
M  END
> <s_m_source_file>
AV-unprocessed.smi

> <i_m_source_file_index>
287

> <i_lp_mmshare_version>
43012

> <i_f3d_flags>
0

> <s_epik_input>
W0NIM11jMVtjSF1jKGMobzEpW0NIM10pW0NAQF0oW0NIM10pKFtPSF0pW0NIMl1bTkhdYyhuW2NIXW4yKWMoYzIzKW5bY0hdbjNbQ0BASF00T1tDQEhdKFtDSDJdW09IXSlbQ0BASF0oW09IXSlbQ0BIXTRbT0hd

> <s_epik_cmdline>
J2VwaWtfcHl0aG9uJywgJy1waCcsICc3LjAnLCAnLXRuJywgJzgnLCAnLW1hJywgJzIwMCcsICctbWV0YWxfYmluZGluZycsICctaW1hZScsICc8aW5maWxlLm1hZT4nLCAnLW9tYWUnLCAnPG91dGZpbGUubWFlPic=

> <r_lp_tautomer_probability>
1

> <r_epik_Ionization_Penalty>
0.000992612

> <r_epik_Ionization_Penalty_Charging>
0

> <r_epik_Ionization_Penalty_Neutral>
0.000992612

> <r_epik_State_Penalty>
-0

> <r_epik_Charging_Adjusted_Penalty>
0

> <i_epik_Tot_Q>
0

> <i_epik_Tot_abs_Q>
0

> <r_epik_Metal_State_Penalty>
-0

> <b_epik_Metal_Only>
0

> <s_epik_Chemistry_Notes>
This compound contains an acetal/aminal-like group ( X-CH(R)-Y where X, Y are N, S, or O) that may be acid/base labile, releasing an aldehyde.

> <s_lp_Force_Field>
OPLS_2005

> <r_lp_Energy>
38.4634

> <b_lp_Chiralities_Consistent>
1

> <s_lp_Variant>
AV-unprocessed.smi:287-24

> <Gold.Version>
5.8.1

> <Gold.Id.Protein>
6NUR|6NUR_protein|mol2

> <Gold.PLP.Fitness>
46.9519

> <Gold.PLP.PLP>
-37.5472

> <Gold.PLP.part.hbond>
-4.4660

> <Gold.PLP.part.metal>
0.0000

> <Gold.PLP.part.buried>
-4.8201

> <Gold.PLP.part.nonpolar>
-28.1689

> <Gold.PLP.part.repulsive>
0.2725

> <Gold.PLP.ligand.clash>
0.0000

> <Gold.PLP.ligand.torsion>
1.8163

> <Gold.PLP.Chemscore.Hbond>
3.4701

> <Gold.PLP.Chemscore.CHOScore>
0.7880

> <Gold.PLP.Chemscore.Metal>
0.0000

> <Gold.Chemscore.Hbonds>
donor molecule, donor type, donor heavy atom, donor atom, acceptor molecule, acceptor atom, score
      L1  H     7    42       P1  8028  1.00
      L1  H     9    45       P1  8028  0.95
      L1  H    27    52       P1 10174  0.45
      P1  H  6934  6946       L1    11  0.11
      P1  H 10162 10167       L1    27  0.95
      L1  C    17    47       P1 10174  0.47

> <Gold.PLP.Chemscore.Internal.Correction>
0.2632

> <Gold.Rescore>
     Score         DG    S(hbond)    S(metal)    S(lipo)     H(rot)  DE(clash)    DE(int)     intcor
      8.36     -11.53       2.62        0.00      92.18       5.27       1.34       1.83       ----

> <Gold.Chemscore.Fitness>
8.3622

> <Gold.Chemscore.DG>
-11.5294

> <Gold.Chemscore.ZeroCoef>
-5.4800

> <Gold.Chemscore.Hbond>
2.6194

> <Gold.Chemscore.Metal>
0.0000

> <Gold.Chemscore.Lipo>
92.1751

> <Gold.Chemscore.Internal_Hbond>
0.0000

> <Gold.Chemscore.DEClash>
1.3385

> <Gold.Chemscore.DEInternal>
1.8287

> <Gold.Chemscore.Rot>
5.2672

> <Gold.Chemscore.Internal.Correction>
   9.000000E+99

> <Gold.Chemscore.Hbonds>
donor molecule, donor type, donor heavy atom, donor atom, acceptor molecule, acceptor atom, score
      L1  H     7    42       P1  8028  1.00
      L1  H     9    45       P1  8028  0.22
      L1  H    27    52       P1 10174  0.44
      P1  H  6934  6946       L1    11  0.01
      P1  H 10162 10167       L1    27  0.21

> <Gold.Chemscore.Hbond.Weighted>
-8.7488

> <Gold.Chemscore.Metal.Weighted>
-0.0000

> <Gold.Chemscore.Lipo.Weighted>
-10.7845

> <Gold.Chemscore.Internal_Hbond.Weighted>
0.0000

> <Gold.Chemscore.DEClash.Weighted>
1.3385

> <Gold.Chemscore.DEInternal.Weighted>
1.8287

> <Gold.Chemscore.Rot.Weighted>
13.4839

> <Gold.Chemscore.Internal.Correction.Weighted>
   9.000000E+99

> <Gold.Protein.RotatedTorsions>
[ 6907 6896 6895 6894 ] final  -50.91 input  -60.11 | X-H torsion
[ 7974 7965 7964 7962 ] final -138.70 input  175.53 | X-H torsion
[ 8008 7997 7996 7995 ] final -168.37 input   59.86 | X-H torsion
[ 10167 10162 10161 10158 ] final -132.34 input  -65.29 | X-H torsion
[ 10718 10713 10712 10709 ] final    4.49 input   66.30 | X-H torsion
[ 10763 10752 10751 10750 ] final  -15.36 input  -60.55 | X-H torsion
[ 11005 11000 10999 10996 ] final  142.69 input  -57.11 | X-H torsion

> <Gold.Protein.ActiveResidues>
 VAL166  LYS551  ARG553  GLY616  TRP617  ASP618  TYR619  PRO620  LYS621  CYS622 
 ASP623  PHE694  ASN695  SER759  ASP760  ASP761  ALA762  ILE779  LEU786  VAL792 
 PHE793  MET794  SER795  GLU796  ALA797  LYS798  CYS799  TRP800  GLU811  SER814 

> <Gold.Protein.RotatedAtoms>
  150.8662  134.8025  159.7119 H   0  0  0  0  0  0  0  0  0  0  0  0  # atno 6907 bound_to 6896
  152.4682  134.5020  159.9737 H   0  0  0  0  0  0  0  0  0  0  0  0  # atno 6908 bound_to 6896
  151.5116  133.3445  159.2921 H   0  0  0  0  0  0  0  0  0  0  0  0  # atno 6909 bound_to 6896
  144.8737  140.6405  143.5250 H   0  0  0  0  0  0  0  0  0  0  0  0  # atno 7974 bound_to 7965
  155.8904  140.1024  157.1422 H   0  0  0  0  0  0  0  0  0  0  0  0  # atno 8008 bound_to 7997
  154.4014  140.1312  156.4373 H   0  0  0  0  0  0  0  0  0  0  0  0  # atno 8009 bound_to 7997
  155.7540  140.3464  155.5167 H   0  0  0  0  0  0  0  0  0  0  0  0  # atno 8010 bound_to 7997
  139.9095  143.6511  152.2578 H   0  0  0  0  0  0  0  0  0  0  0  0  # atno 10167 bound_to 10162
  156.8934  130.5695  149.5649 H   0  0  0  0  0  0  0  0  0  0  0  0  # atno 10718 bound_to 10713
  153.5422  135.7013  153.5631 H   0  0  0  0  0  0  0  0  0  0  0  0  # atno 10763 bound_to 10752
  153.3592  135.3974  155.1705 H   0  0  0  0  0  0  0  0  0  0  0  0  # atno 10764 bound_to 10752
  154.8672  135.3784  154.4927 H   0  0  0  0  0  0  0  0  0  0  0  0  # atno 10765 bound_to 10752
  140.0496  134.9262  157.0993 H   0  0  0  0  0  0  0  0  0  0  0  0  # atno 11005 bound_to 11000
  145.4083  139.1585  143.4140 LP  0  0  0  0  0  0  0  0  0  0  0  0  # atno 17320 bound_to 7965
  146.2948  140.4185  142.8726 LP  0  0  0  0  0  0  0  0  0  0  0  0  # atno 17321 bound_to 7965
  139.6954  144.7642  151.1365 LP  0  0  0  0  0  0  0  0  0  0  0  0  # atno 17342 bound_to 10162
  140.7688  143.5530  150.9183 LP  0  0  0  0  0  0  0  0  0  0  0  0  # atno 17343 bound_to 10162
  156.0617  130.5669  150.9207 LP  0  0  0  0  0  0  0  0  0  0  0  0  # atno 17370 bound_to 10713
  157.6070  131.0938  150.8862 LP  0  0  0  0  0  0  0  0  0  0  0  0  # atno 17371 bound_to 10713
  140.3938  134.2156  155.7165 LP  0  0  0  0  0  0  0  0  0  0  0  0  # atno 17394 bound_to 11000
  141.1924  133.8174  157.0841 LP  0  0  0  0  0  0  0  0  0  0  0  0  # atno 17395 bound_to 11000

$$$$
