AV-unprocessed.smi:252|AV-procd|sdf|1942|dock8
  -GOLD-   2262021 73D 1   1.00000     0.00000
 Structure written by MMmdl.
 56 59  0  0  0  0  0  0  0  0  1 V2000
  152.1101  144.5458  159.4031 C   0  0  0  0  0  0  0  0  0  0  0  0
  151.1225  144.3709  158.2390 C   0  0  0  0  0  0  0  0  0  0  0  0
  151.0860  142.9488  157.6698 C   0  0  0  0  0  0  0  0  0  0  0  0
  151.7538  142.0455  158.1742 O   0  0  0  0  0  0  0  0  0  0  0  0
  150.2878  142.7673  156.6072 N   0  0  0  0  0  0  0  0  0  0  0  0
  150.0827  141.5028  155.9087 C   0  0  2  0  0  0  0  0  0  0  0  0
  149.1680  141.6980  154.6831 C   0  0  0  0  0  0  0  0  0  0  0  0
  148.8602  140.3462  154.0222 C   0  0  0  0  0  0  0  0  0  0  0  0
  148.2730  139.3562  155.0405 C   0  0  0  0  0  0  0  0  0  0  0  0
  149.1535  139.2248  156.2020 N   0  0  0  0  0  0  0  0  0  0  0  0
  148.9452  138.1744  157.0351 C   0  0  0  0  0  0  0  0  0  0  0  0
  149.8701  137.1809  157.1219 N   0  0  0  0  0  0  0  0  0  0  0  0
  149.6650  136.1378  157.9313 C   0  0  0  0  0  0  0  0  0  0  0  0
  148.6244  135.8927  158.7296 N   0  0  0  0  0  0  0  0  0  0  0  0
  147.6945  136.8870  158.6501 C   0  0  0  0  0  0  0  0  0  0  0  0
  147.7769  138.0540  157.8390 C   0  0  0  0  0  0  0  0  0  0  0  0
  146.6539  138.8486  158.0382 N   0  0  0  0  0  0  0  0  0  0  0  0
  145.9466  138.1870  158.9127 C   0  0  0  0  0  0  0  0  0  0  0  0
  146.4901  136.9908  159.3244 N   0  0  0  0  0  0  0  0  0  0  0  0
  145.9196  136.0600  160.2857 C   0  0  0  0  0  0  0  0  0  0  0  0
  146.5541  136.1400  161.7019 C   0  0  2  0  0  0  0  0  0  0  0  0
  146.9935  137.4614  161.9529 O   0  0  0  0  0  0  0  0  0  0  0  0
  147.7208  135.1825  161.9134 C   0  0  0  0  0  0  0  0  0  0  0  0
  147.0181  133.8743  162.2645 C   0  0  0  0  0  0  0  0  0  0  0  0
  145.8021  134.2501  162.9050 O   0  0  0  0  0  0  0  0  0  0  0  0
  145.6231  135.6623  162.8329 C   0  0  2  0  0  0  0  0  0  0  0  0
  144.1345  136.0162  162.7001 C   0  0  0  0  0  0  0  0  0  0  0  0
  149.4730  140.4787  156.8831 C   0  0  0  0  0  0  0  0  0  0  0  0
  152.1175  145.5797  159.7486 H   0  0  0  0  0  0  0  0  0  0  0  0
  153.1276  144.2911  159.1040 H   0  0  0  0  0  0  0  0  0  0  0  0
  151.8394  143.9177  160.2526 H   0  0  0  0  0  0  0  0  0  0  0  0
  150.1180  144.6386  158.5681 H   0  0  0  0  0  0  0  0  0  0  0  0
  151.3847  145.0620  157.4369 H   0  0  0  0  0  0  0  0  0  0  0  0
  149.7768  143.5655  156.2593 H   0  0  0  0  0  0  0  0  0  0  0  0
  151.0476  141.1165  155.5735 H   0  0  0  0  0  0  0  0  0  0  0  0
  148.2345  142.1730  154.9878 H   0  0  0  0  0  0  0  0  0  0  0  0
  149.6366  142.3655  153.9593 H   0  0  0  0  0  0  0  0  0  0  0  0
  148.1667  140.4836  153.1924 H   0  0  0  0  0  0  0  0  0  0  0  0
  149.7754  139.9320  153.5970 H   0  0  0  0  0  0  0  0  0  0  0  0
  147.2907  139.6991  155.3690 H   0  0  0  0  0  0  0  0  0  0  0  0
  148.1343  138.3851  154.5633 H   0  0  0  0  0  0  0  0  0  0  0  0
  150.4454  135.3912  157.9392 H   0  0  0  0  0  0  0  0  0  0  0  0
  144.9985  138.5528  159.2796 H   0  0  0  0  0  0  0  0  0  0  0  0
  144.8479  136.2545  160.3402 H   0  0  0  0  0  0  0  0  0  0  0  0
  146.0238  135.0534  159.8795 H   0  0  0  0  0  0  0  0  0  0  0  0
  146.6911  137.7213  162.8097 H   0  0  0  0  0  0  0  0  0  0  0  0
  148.4004  135.0923  161.0672 H   0  0  0  0  0  0  0  0  0  0  0  0
  148.3181  135.4994  162.7704 H   0  0  0  0  0  0  0  0  0  0  0  0
  146.7788  133.3118  161.3614 H   0  0  0  0  0  0  0  0  0  0  0  0
  147.6258  133.2376  162.9076 H   0  0  0  0  0  0  0  0  0  0  0  0
  145.9896  136.0611  163.7809 H   0  0  0  0  0  0  0  0  0  0  0  0
  143.9951  137.0936  162.6094 H   0  0  0  0  0  0  0  0  0  0  0  0
  143.5806  135.6828  163.5779 H   0  0  0  0  0  0  0  0  0  0  0  0
  143.6813  135.5411  161.8300 H   0  0  0  0  0  0  0  0  0  0  0  0
  150.1625  140.3144  157.7109 H   0  0  0  0  0  0  0  0  0  0  0  0
  148.5549  140.8774  157.3178 H   0  0  0  0  0  0  0  0  0  0  0  0
  1  2  1  0  0  0  0
  1 29  1  0  0  0  0
  1 30  1  0  0  0  0
  1 31  1  0  0  0  0
  2  3  1  0  0  0  0
  2 32  1  0  0  0  0
  2 33  1  0  0  0  0
  3  4  2  0  0  0  0
  3  5  1  0  0  0  0
  5  6  1  0  0  0  0
  5 34  1  0  0  0  0
  6 28  1  0  0  0  0
  6  7  1  0  0  0  0
  6 35  1  0  0  0  0
  7  8  1  0  0  0  0
  7 36  1  0  0  0  0
  7 37  1  0  0  0  0
  8  9  1  0  0  0  0
  8 38  1  0  0  0  0
  8 39  1  0  0  0  0
  9 10  1  0  0  0  0
  9 40  1  0  0  0  0
  9 41  1  0  0  0  0
 10 11  1  0  0  0  0
 10 28  1  0  0  0  0
 11 16  1  0  0  0  0
 11 12  2  0  0  0  0
 12 13  1  0  0  0  0
 13 14  2  0  0  0  0
 13 42  1  0  0  0  0
 14 15  1  0  0  0  0
 15 19  1  0  0  0  0
 15 16  2  0  0  0  0
 16 17  1  0  0  0  0
 17 18  2  0  0  0  0
 18 19  1  0  0  0  0
 18 43  1  0  0  0  0
 19 20  1  0  0  0  0
 20 21  1  0  0  0  0
 20 44  1  0  0  0  0
 20 45  1  0  0  0  0
 21 26  1  0  0  0  0
 21 22  1  0  0  0  0
 21 23  1  0  0  0  0
 22 46  1  0  0  0  0
 23 24  1  0  0  0  0
 23 47  1  0  0  0  0
 23 48  1  0  0  0  0
 24 25  1  0  0  0  0
 24 49  1  0  0  0  0
 24 50  1  0  0  0  0
 25 26  1  0  0  0  0
 26 27  1  0  0  0  0
 26 51  1  0  0  0  0
 27 52  1  0  0  0  0
 27 53  1  0  0  0  0
 27 54  1  0  0  0  0
 28 55  1  0  0  0  0
 28 56  1  0  0  0  0
M  END
> <s_m_source_file>
AV-unprocessed.smi

> <i_m_source_file_index>
252

> <i_lp_mmshare_version>
43012

> <i_f3d_flags>
0

> <s_epik_input>
W0NIM11bQ0gyXUMoPU8pW05IXVtDQEBIXTFbQ0gyXVtDSDJdW0NIMl1OKFtDSDJdMSljKG5bY0hdbjIpYyhjMjMpbltjSF1uM1tDSDJdW0NAQF00KFtPSF0pW0NIMl1bQ0gyXU9bQ0BIXTRbQ0gzXQ==

> <s_epik_cmdline>
J2VwaWtfcHl0aG9uJywgJy1waCcsICc3LjAnLCAnLXRuJywgJzgnLCAnLW1hJywgJzIwMCcsICctbWV0YWxfYmluZGluZycsICctaW1hZScsICc8aW5maWxlLm1hZT4nLCAnLW9tYWUnLCAnPG91dGZpbGUubWFlPic=

> <r_lp_tautomer_probability>
1

> <r_epik_Ionization_Penalty>
0.00182575

> <r_epik_Ionization_Penalty_Charging>
0

> <r_epik_Ionization_Penalty_Neutral>
0.00182575

> <r_epik_State_Penalty>
0.00104524

> <r_epik_Charging_Adjusted_Penalty>
0.00104524

> <i_epik_Tot_Q>
0

> <i_epik_Tot_abs_Q>
0

> <r_epik_Metal_State_Penalty>
-0

> <b_epik_Metal_Only>
0

> <s_lp_Force_Field>
OPLS_2005

> <r_lp_Energy>
36.2255

> <b_lp_Chiralities_Consistent>
1

> <s_lp_Variant>
AV-unprocessed.smi:252-7

> <Gold.Version>
5.8.1

> <Gold.Id.Protein>
6NUR|6NUR_protein|mol2

> <Gold.PLP.Fitness>
44.2992

> <Gold.PLP.PLP>
-38.7108

> <Gold.PLP.part.hbond>
-3.8024

> <Gold.PLP.part.metal>
0.0000

> <Gold.PLP.part.buried>
-3.1239

> <Gold.PLP.part.nonpolar>
-31.5382

> <Gold.PLP.part.repulsive>
0.0924

> <Gold.PLP.ligand.clash>
0.0000

> <Gold.PLP.ligand.torsion>
0.9809

> <Gold.PLP.Chemscore.Hbond>
2.3820

> <Gold.PLP.Chemscore.CHOScore>
0.0000

> <Gold.PLP.Chemscore.Metal>
0.0000

> <Gold.Chemscore.Hbonds>
donor molecule, donor type, donor heavy atom, donor atom, acceptor molecule, acceptor atom, score
      L1  H     5    34       P1  8028  1.00
      P1  H  6931  6943       L1    22  0.43
      P1  H  6934  6947       L1    22  0.77

> <Gold.PLP.Chemscore.Internal.Correction>
0.4042

> <Gold.Rescore>
     Score         DG    S(hbond)    S(metal)    S(lipo)     H(rot)  DE(clash)    DE(int)     intcor
     14.61     -15.52       1.74        0.00      95.36       2.70       0.11       0.80       ----

> <Gold.Chemscore.Fitness>
14.6117

> <Gold.Chemscore.DG>
-15.5240

> <Gold.Chemscore.ZeroCoef>
-5.4800

> <Gold.Chemscore.Hbond>
1.7392

> <Gold.Chemscore.Metal>
0.0000

> <Gold.Chemscore.Lipo>
95.3637

> <Gold.Chemscore.Internal_Hbond>
0.0000

> <Gold.Chemscore.DEClash>
0.1096

> <Gold.Chemscore.DEInternal>
0.8027

> <Gold.Chemscore.Rot>
2.7041

> <Gold.Chemscore.Internal.Correction>
   9.000000E+99

> <Gold.Chemscore.Hbonds>
donor molecule, donor type, donor heavy atom, donor atom, acceptor molecule, acceptor atom, score
      L1  H     5    34       P1  8028  0.97
      P1  H  6931  6943       L1    22  0.15
      P1  H  6934  6947       L1    22  0.43

> <Gold.Chemscore.Hbond.Weighted>
-5.8089

> <Gold.Chemscore.Metal.Weighted>
-0.0000

> <Gold.Chemscore.Lipo.Weighted>
-11.1576

> <Gold.Chemscore.Internal_Hbond.Weighted>
0.0000

> <Gold.Chemscore.DEClash.Weighted>
0.1096

> <Gold.Chemscore.DEInternal.Weighted>
0.8027

> <Gold.Chemscore.Rot.Weighted>
6.9225

> <Gold.Chemscore.Internal.Correction.Weighted>
   9.000000E+99

> <Gold.Protein.RotatedTorsions>
[ 6907 6896 6895 6894 ] final  -96.41 input  -60.11 | X-H torsion
[ 7974 7965 7964 7962 ] final   68.23 input  175.53 | X-H torsion
[ 8008 7997 7996 7995 ] final   94.73 input   59.86 | X-H torsion
[ 10167 10162 10161 10158 ] final  -92.94 input  -65.29 | X-H torsion
[ 10718 10713 10712 10709 ] final  141.10 input   66.30 | X-H torsion
[ 10763 10752 10751 10750 ] final -115.67 input  -60.55 | X-H torsion
[ 11005 11000 10999 10996 ] final  131.07 input  -57.11 | X-H torsion

> <Gold.Protein.ActiveResidues>
 VAL166  LYS551  ARG553  GLY616  TRP617  ASP618  TYR619  PRO620  LYS621  CYS622 
 ASP623  PHE694  ASN695  SER759  ASP760  ASP761  ALA762  ILE779  LEU786  VAL792 
 PHE793  MET794  SER795  GLU796  ALA797  LYS798  CYS799  TRP800  GLU811  SER814 

> <Gold.Protein.RotatedAtoms>
  150.6988  134.1508  159.4139 H   0  0  0  0  0  0  0  0  0  0  0  0  # atno 6907 bound_to 6896
  151.9490  135.0175  160.0550 H   0  0  0  0  0  0  0  0  0  0  0  0  # atno 6908 bound_to 6896
  152.2027  133.4818  159.5104 H   0  0  0  0  0  0  0  0  0  0  0  0  # atno 6909 bound_to 6896
  145.8051  139.3002  143.1132 H   0  0  0  0  0  0  0  0  0  0  0  0  # atno 7974 bound_to 7965
  156.0612  140.3296  155.7463 H   0  0  0  0  0  0  0  0  0  0  0  0  # atno 8008 bound_to 7997
  155.5452  140.0605  157.2879 H   0  0  0  0  0  0  0  0  0  0  0  0  # atno 8009 bound_to 7997
  154.4482  140.1904  156.0619 H   0  0  0  0  0  0  0  0  0  0  0  0  # atno 8010 bound_to 7997
  140.3297  143.3002  151.9956 H   0  0  0  0  0  0  0  0  0  0  0  0  # atno 10167 bound_to 10162
  157.3958  131.1010  151.0601 H   0  0  0  0  0  0  0  0  0  0  0  0  # atno 10718 bound_to 10713
  154.8490  135.4373  154.1699 H   0  0  0  0  0  0  0  0  0  0  0  0  # atno 10763 bound_to 10752
  153.2815  135.6954  153.7387 H   0  0  0  0  0  0  0  0  0  0  0  0  # atno 10764 bound_to 10752
  153.6589  135.3438  155.3096 H   0  0  0  0  0  0  0  0  0  0  0  0  # atno 10765 bound_to 10752
  139.9709  134.9578  156.9386 H   0  0  0  0  0  0  0  0  0  0  0  0  # atno 11005 bound_to 11000
  145.9837  140.8661  143.0101 LP  0  0  0  0  0  0  0  0  0  0  0  0  # atno 17320 bound_to 7965
  144.6764  140.2116  143.7376 LP  0  0  0  0  0  0  0  0  0  0  0  0  # atno 17321 bound_to 7965
  139.4859  144.6245  151.7191 LP  0  0  0  0  0  0  0  0  0  0  0  0  # atno 17342 bound_to 10162
  140.5409  144.0581  150.6088 LP  0  0  0  0  0  0  0  0  0  0  0  0  # atno 17343 bound_to 10162
  157.1618  130.6229  149.5613 LP  0  0  0  0  0  0  0  0  0  0  0  0  # atno 17370 bound_to 10713
  155.9810  130.4814  150.6804 LP  0  0  0  0  0  0  0  0  0  0  0  0  # atno 17371 bound_to 10713
  140.5296  134.0827  155.7312 LP  0  0  0  0  0  0  0  0  0  0  0  0  # atno 17394 bound_to 11000
  141.1388  133.9174  157.2373 LP  0  0  0  0  0  0  0  0  0  0  0  0  # atno 17395 bound_to 11000

$$$$
