AV-unprocessed.smi:497|AV-procd|sdf|2727|dock3
  -GOLD-   2262023173D 1   1.00000     0.00000
 Structure written by MMmdl.
 39 41  0  0  0  0  0  0  0  0  3 V2000
  151.9188  139.8871  156.3462 C   0  0  0  0  0  0  0  0  0  0  0  0
  151.6506  139.0531  157.4592 O   0  0  0  0  0  0  0  0  0  0  0  0
  151.6726  139.7640  158.6861 C   0  0  0  0  0  0  0  0  0  0  0  0
  153.1121  140.1643  159.0498 C   0  0  0  0  0  0  0  0  0  0  0  0
  153.1669  141.2267  160.0777 N   0  0  0  0  0  0  0  0  0  0  0  0
  153.7603  141.2681  161.3161 C   0  0  0  0  0  0  0  0  0  0  0  0
  154.5638  140.2067  162.0119 C   0  0  0  0  0  0  0  0  0  0  0  0
  155.5748  140.7992  162.8809 N   0  5  0  0  0  0  0  0  0  0  0  0
  155.6560  140.5812  164.2234 C   0  0  0  0  0  0  0  0  0  0  0  0
  155.8575  139.5307  164.8417 O   0  0  0  0  0  0  0  0  0  0  0  0
  155.4432  141.8210  165.0068 C   0  0  0  0  0  0  0  0  0  0  0  0
  155.4083  142.0101  166.3628 C   0  0  0  0  0  0  0  0  0  0  0  0
  155.1520  143.3924  166.5795 C   0  0  0  0  0  0  0  0  0  0  0  0
  155.0480  143.9537  165.3398 C   0  0  0  0  0  0  0  0  0  0  0  0
  155.2219  143.0137  164.3722 O   0  0  0  0  0  0  0  0  0  0  0  0
  153.4829  142.4910  161.8499 N   0  3  0  0  0  0  0  0  0  0  0  0
  152.7159  143.2409  160.9599 C   0  0  0  0  0  0  0  0  0  0  0  0
  152.1999  144.5288  161.0659 C   0  0  0  0  0  0  0  0  0  0  0  0
  151.4494  145.0021  159.9700 C   0  0  0  0  0  0  0  0  0  0  0  0
  151.2361  144.2036  158.8280 C   0  0  0  0  0  0  0  0  0  0  0  0
  151.7650  142.8996  158.7334 C   0  0  0  0  0  0  0  0  0  0  0  0
  152.5083  142.4377  159.8204 C   0  0  0  0  0  0  0  0  0  0  0  0
  151.8922  139.2957  155.4313 H   0  0  0  0  0  0  0  0  0  0  0  0
  152.9073  140.3419  156.4236 H   0  0  0  0  0  0  0  0  0  0  0  0
  151.1742  140.6790  156.2582 H   0  0  0  0  0  0  0  0  0  0  0  0
  151.0482  140.6533  158.6043 H   0  0  0  0  0  0  0  0  0  0  0  0
  151.2490  139.1467  159.4794 H   0  0  0  0  0  0  0  0  0  0  0  0
  153.6540  139.2961  159.4253 H   0  0  0  0  0  0  0  0  0  0  0  0
  153.6587  140.4930  158.1663 H   0  0  0  0  0  0  0  0  0  0  0  0
  153.8643  139.5620  162.5455 H   0  0  0  0  0  0  0  0  0  0  0  0
  155.0210  139.5715  161.2525 H   0  0  0  0  0  0  0  0  0  0  0  0
  155.5470  141.2425  167.1097 H   0  0  0  0  0  0  0  0  0  0  0  0
  155.0545  143.9093  167.5225 H   0  0  0  0  0  0  0  0  0  0  0  0
  154.8616  144.9551  164.9814 H   0  0  0  0  0  0  0  0  0  0  0  0
  152.3610  145.1398  161.9418 H   0  0  0  0  0  0  0  0  0  0  0  0
  151.0275  145.9959  160.0069 H   0  0  0  0  0  0  0  0  0  0  0  0
  150.6534  144.5975  158.0083 H   0  0  0  0  0  0  0  0  0  0  0  0
  151.5879  142.2945  157.8567 H   0  0  0  0  0  0  0  0  0  0  0  0
  153.7966  142.7800  162.7672 H   0  0  0  0  0  0  0  0  0  0  0  0
  1  2  1  0  0  0  0
  1 23  1  0  0  0  0
  1 24  1  0  0  0  0
  1 25  1  0  0  0  0
  2  3  1  0  0  0  0
  3  4  1  0  0  0  0
  3 26  1  0  0  0  0
  3 27  1  0  0  0  0
  4  5  1  0  0  0  0
  4 28  1  0  0  0  0
  4 29  1  0  0  0  0
  5 22  1  0  0  0  0
  5  6  1  0  0  0  0
  6  7  1  0  0  0  0
  6 16  2  0  0  0  0
  7  8  1  0  0  0  0
  7 30  1  0  0  0  0
  7 31  1  0  0  0  0
  8  9  1  0  0  0  0
  9 10  2  0  0  0  0
  9 11  1  0  0  0  0
 11 15  1  0  0  0  0
 11 12  2  0  0  0  0
 12 13  1  0  0  0  0
 12 32  1  0  0  0  0
 13 14  2  0  0  0  0
 13 33  1  0  0  0  0
 14 15  1  0  0  0  0
 14 34  1  0  0  0  0
 16 17  1  0  0  0  0
 16 39  1  0  0  0  0
 17 22  2  0  0  0  0
 17 18  1  0  0  0  0
 18 19  2  0  0  0  0
 18 35  1  0  0  0  0
 19 20  1  0  0  0  0
 19 36  1  0  0  0  0
 20 21  2  0  0  0  0
 20 37  1  0  0  0  0
 21 22  1  0  0  0  0
 21 38  1  0  0  0  0
M  CHG  1   8  -1
M  CHG  1  16   1
M  END
> <s_m_source_file>
AV-unprocessed.smi

> <i_m_source_file_index>
497

> <i_lp_mmshare_version>
43012

> <i_f3d_flags>
0

> <s_epik_input>
W2NIXTFbY0hdW2NIXVtjSF1jKGMxMiluKFtDSDJdW0NIMl1PW0NIM10pYyhuMilbQ0gyXVtOSF1DKD1PKWMzW2NIXVtjSF1bY0hdbzM=

> <s_epik_cmdline>
J2VwaWtfcHl0aG9uJywgJy1waCcsICc3LjAnLCAnLXRuJywgJzgnLCAnLW1hJywgJzIwMCcsICctbWV0YWxfYmluZGluZycsICctaW1hZScsICc8aW5maWxlLm1hZT4nLCAnLW9tYWUnLCAnPG91dGZpbGUubWFlPic=

> <r_epik_Ionization_Penalty>
6.0511

> <r_epik_Ionization_Penalty_Charging>
6.0511

> <r_epik_Ionization_Penalty_Neutral>
2.61117e-12

> <r_epik_State_Penalty>
7.24158

> <r_epik_Charging_Adjusted_Penalty>
13.2927

> <i_epik_Tot_Q>
0

> <i_epik_Tot_abs_Q>
2

> <r_epik_Metal_State_Penalty>
3.25464

> <b_epik_Metal_Only>
1

> <s_lp_Force_Field>
OPLS_2005

> <r_lp_Energy>
9.23096

> <b_lp_Chiralities_Consistent>
1

> <s_lp_Variant>
AV-unprocessed.smi:497-4

> <Gold.Version>
5.8.1

> <Gold.Id.Protein>
6NUR|6NUR_protein|mol2

> <Gold.PLP.Fitness>
50.2206

> <Gold.PLP.PLP>
-52.2406

> <Gold.PLP.part.hbond>
-2.0000

> <Gold.PLP.part.metal>
0.0000

> <Gold.PLP.part.buried>
-5.8685

> <Gold.PLP.part.nonpolar>
-43.2547

> <Gold.PLP.part.repulsive>
0.0287

> <Gold.PLP.ligand.clash>
0.0000

> <Gold.PLP.ligand.torsion>
1.0765

> <Gold.PLP.Chemscore.Hbond>
0.0000

> <Gold.PLP.Chemscore.CHOScore>
0.0000

> <Gold.PLP.Chemscore.Metal>
0.0000

> <Gold.PLP.Chemscore.Internal.Correction>
0.1331

> <Gold.Rescore>
     Score         DG    S(hbond)    S(metal)    S(lipo)     H(rot)  DE(clash)    DE(int)     intcor
     13.62     -14.99       0.00        0.00     122.65       1.89       0.31       1.07       ----

> <Gold.Chemscore.Fitness>
13.6204

> <Gold.Chemscore.DG>
-14.9939

> <Gold.Chemscore.ZeroCoef>
-5.4800

> <Gold.Chemscore.Hbond>
0.0000

> <Gold.Chemscore.Metal>
0.0000

> <Gold.Chemscore.Lipo>
122.6508

> <Gold.Chemscore.Internal_Hbond>
0.0000

> <Gold.Chemscore.DEClash>
0.3074

> <Gold.Chemscore.DEInternal>
1.0661

> <Gold.Chemscore.Rot>
1.8892

> <Gold.Chemscore.Internal.Correction>
   9.000000E+99

> <Gold.Chemscore.Hbond.Weighted>
-0.0000

> <Gold.Chemscore.Metal.Weighted>
-0.0000

> <Gold.Chemscore.Lipo.Weighted>
-14.3501

> <Gold.Chemscore.Internal_Hbond.Weighted>
0.0000

> <Gold.Chemscore.DEClash.Weighted>
0.3074

> <Gold.Chemscore.DEInternal.Weighted>
1.0661

> <Gold.Chemscore.Rot.Weighted>
4.8363

> <Gold.Chemscore.Internal.Correction.Weighted>
   9.000000E+99

> <Gold.Protein.RotatedTorsions>
[ 6907 6896 6895 6894 ] final  -41.87 input  -60.11 | X-H torsion
[ 7974 7965 7964 7962 ] final  101.17 input  175.53 | X-H torsion
[ 8008 7997 7996 7995 ] final   58.34 input   59.86 | X-H torsion
[ 10167 10162 10161 10158 ] final   25.45 input  -65.29 | X-H torsion
[ 10718 10713 10712 10709 ] final  125.53 input   66.30 | X-H torsion
[ 10763 10752 10751 10750 ] final  117.95 input  -60.55 | X-H torsion
[ 11005 11000 10999 10996 ] final  -97.94 input  -57.11 | X-H torsion

> <Gold.Protein.ActiveResidues>
 VAL166  LYS551  ARG553  GLY616  TRP617  ASP618  TYR619  PRO620  LYS621  CYS622 
 ASP623  PHE694  ASN695  SER759  ASP760  ASP761  ALA762  ILE779  LEU786  VAL792 
 PHE793  MET794  SER795  GLU796  ALA797  LYS798  CYS799  TRP800  GLU811  SER814 

> <Gold.Protein.RotatedAtoms>
  150.9617  134.9004  159.7734 H   0  0  0  0  0  0  0  0  0  0  0  0  # atno 6907 bound_to 6896
  152.5158  134.3663  159.9312 H   0  0  0  0  0  0  0  0  0  0  0  0  # atno 6908 bound_to 6896
  151.3675  133.3826  159.2731 H   0  0  0  0  0  0  0  0  0  0  0  0  # atno 6909 bound_to 6896
  145.3759  139.2389  143.3430 H   0  0  0  0  0  0  0  0  0  0  0  0  # atno 7974 bound_to 7965
  155.5484  140.3486  155.4463 H   0  0  0  0  0  0  0  0  0  0  0  0  # atno 8008 bound_to 7997
  156.0601  140.1338  156.9977 H   0  0  0  0  0  0  0  0  0  0  0  0  # atno 8009 bound_to 7997
  154.4475  140.0987  156.6489 H   0  0  0  0  0  0  0  0  0  0  0  0  # atno 8010 bound_to 7997
  140.5105  144.0168  150.6370 H   0  0  0  0  0  0  0  0  0  0  0  0  # atno 10167 bound_to 10162
  157.5495  131.1094  150.8725 H   0  0  0  0  0  0  0  0  0  0  0  0  # atno 10718 bound_to 10713
  153.5603  135.3522  155.2796 H   0  0  0  0  0  0  0  0  0  0  0  0  # atno 10763 bound_to 10752
  154.8696  135.4135  154.2839 H   0  0  0  0  0  0  0  0  0  0  0  0  # atno 10764 bound_to 10752
  153.3583  135.7058  153.6802 H   0  0  0  0  0  0  0  0  0  0  0  0  # atno 10765 bound_to 10752
  141.1362  133.8208  157.0773 H   0  0  0  0  0  0  0  0  0  0  0  0  # atno 11005 bound_to 11000
  146.2864  140.4418  142.8756 LP  0  0  0  0  0  0  0  0  0  0  0  0  # atno 17320 bound_to 7965
  144.8542  140.7046  143.6148 LP  0  0  0  0  0  0  0  0  0  0  0  0  # atno 17321 bound_to 7965
  140.3489  143.2975  152.0508 LP  0  0  0  0  0  0  0  0  0  0  0  0  # atno 17342 bound_to 10162
  139.4895  144.6388  151.6920 LP  0  0  0  0  0  0  0  0  0  0  0  0  # atno 17343 bound_to 10162
  156.9254  130.5330  149.5279 LP  0  0  0  0  0  0  0  0  0  0  0  0  # atno 17370 bound_to 10713
  156.0564  130.5625  150.9101 LP  0  0  0  0  0  0  0  0  0  0  0  0  # atno 17371 bound_to 10713
  140.0474  134.9823  157.1073 LP  0  0  0  0  0  0  0  0  0  0  0  0  # atno 17394 bound_to 11000
  140.4042  134.2050  155.7163 LP  0  0  0  0  0  0  0  0  0  0  0  0  # atno 17395 bound_to 11000

$$$$
