AV-unprocessed.smi:1007|AV-procd|sdf|4403|dock3
  -GOLD-   22720 2343D 1   1.00000     0.00000
 Structure written by MMmdl.
 57 59  0  0  0  0  0  0  0  0  3 V2000
  149.7683  131.3559  157.6525 C   0  0  0  0  0  0  0  0  0  0  0  0
  149.5694  132.7584  157.5675 O   0  0  0  0  0  0  0  0  0  0  0  0
  148.2212  133.1633  157.7560 C   0  0  0  0  0  0  0  0  0  0  0  0
  147.9552  134.5408  157.1198 C   0  0  0  0  0  0  0  0  0  0  0  0
  147.9408  134.5482  155.6537 N   0  0  0  0  0  0  0  0  0  0  0  0
  147.5354  135.8379  155.0961 C   0  0  0  0  0  0  0  0  0  0  0  0
  148.6063  136.9371  155.2568 C   0  0  0  0  0  0  0  0  0  0  0  0
  149.8899  136.5090  154.6423 N   0  3  0  0  0  0  0  0  0  0  0  0
  150.9301  137.5678  154.7144 C   0  0  0  0  0  0  0  0  0  0  0  0
  151.0068  138.2437  156.0981 C   0  0  1  0  0  0  0  0  0  0  0  0
  151.4106  137.2870  157.0593 O   0  0  0  0  0  0  0  0  0  0  0  0
  152.0024  139.4208  156.1102 C   0  0  0  0  0  0  0  0  0  0  0  0
  151.4011  140.6661  156.6058 N   0  0  0  0  0  0  0  0  0  0  0  0
  150.4845  141.4896  156.0275 C   0  0  0  0  0  0  0  0  0  0  0  0
  150.2591  142.5213  156.8878 N   0  3  0  0  0  0  0  0  0  0  0  0
  151.0402  142.3524  158.0333 C   0  0  0  0  0  0  0  0  0  0  0  0
  151.1599  143.1312  159.1781 C   0  0  0  0  0  0  0  0  0  0  0  0
  152.0516  142.6779  160.1766 C   0  0  0  0  0  0  0  0  0  0  0  0
  152.2085  143.5076  161.4397 C   0  0  0  0  0  0  0  0  0  0  0  0
  152.7876  141.4763  160.0076 C   0  0  0  0  0  0  0  0  0  0  0  0
  153.7411  140.9970  161.0890 C   0  0  0  0  0  0  0  0  0  0  0  0
  152.6537  140.6995  158.8345 C   0  0  0  0  0  0  0  0  0  0  0  0
  151.7719  141.1616  157.8606 C   0  0  0  0  0  0  0  0  0  0  0  0
  150.3246  135.1990  155.1981 C   0  0  0  0  0  0  0  0  0  0  0  0
  149.2060  134.1504  155.0323 C   0  0  0  0  0  0  0  0  0  0  0  0
  150.8281  131.1317  157.5316 H   0  0  0  0  0  0  0  0  0  0  0  0
  149.2265  130.8204  156.8733 H   0  0  0  0  0  0  0  0  0  0  0  0
  149.4557  130.9714  158.6242 H   0  0  0  0  0  0  0  0  0  0  0  0
  147.5423  132.3988  157.3773 H   0  0  0  0  0  0  0  0  0  0  0  0
  148.0490  133.2280  158.8307 H   0  0  0  0  0  0  0  0  0  0  0  0
  146.9812  134.8785  157.4761 H   0  0  0  0  0  0  0  0  0  0  0  0
  148.6741  135.2670  157.4952 H   0  0  0  0  0  0  0  0  0  0  0  0
  147.3170  135.7118  154.0347 H   0  0  0  0  0  0  0  0  0  0  0  0
  146.5998  136.1619  155.5535 H   0  0  0  0  0  0  0  0  0  0  0  0
  148.2565  137.8486  154.7707 H   0  0  0  0  0  0  0  0  0  0  0  0
  148.7597  137.1821  156.3087 H   0  0  0  0  0  0  0  0  0  0  0  0
  151.9056  137.1362  154.4848 H   0  0  0  0  0  0  0  0  0  0  0  0
  150.7363  138.3103  153.9386 H   0  0  0  0  0  0  0  0  0  0  0  0
  150.0271  138.6197  156.3886 H   0  0  0  0  0  0  0  0  0  0  0  0
  151.5306  137.7222  157.8900 H   0  0  0  0  0  0  0  0  0  0  0  0
  152.8580  139.1919  156.7472 H   0  0  0  0  0  0  0  0  0  0  0  0
  152.4012  139.6068  155.1122 H   0  0  0  0  0  0  0  0  0  0  0  0
  150.0231  141.3543  155.0599 H   0  0  0  0  0  0  0  0  0  0  0  0
  150.5963  144.0448  159.3005 H   0  0  0  0  0  0  0  0  0  0  0  0
  153.2392  143.8450  161.5498 H   0  0  0  0  0  0  0  0  0  0  0  0
  151.9387  142.9225  162.3191 H   0  0  0  0  0  0  0  0  0  0  0  0
  151.5693  144.3908  161.4193 H   0  0  0  0  0  0  0  0  0  0  0  0
  154.2146  140.0537  160.8148 H   0  0  0  0  0  0  0  0  0  0  0  0
  153.2093  140.8406  162.0280 H   0  0  0  0  0  0  0  0  0  0  0  0
  154.5307  141.7301  161.2554 H   0  0  0  0  0  0  0  0  0  0  0  0
  153.2144  139.7859  158.7057 H   0  0  0  0  0  0  0  0  0  0  0  0
  151.2115  134.8414  154.6775 H   0  0  0  0  0  0  0  0  0  0  0  0
  150.6033  135.3097  156.2467 H   0  0  0  0  0  0  0  0  0  0  0  0
  149.5368  133.1876  155.4200 H   0  0  0  0  0  0  0  0  0  0  0  0
  149.0376  133.9878  153.9669 H   0  0  0  0  0  0  0  0  0  0  0  0
  149.6962  136.3621  153.6616 H   0  0  0  0  0  0  0  0  0  0  0  0
  149.6193  143.2836  156.7037 H   0  0  0  0  0  0  0  0  0  0  0  0
  1  2  1  0  0  0  0
  1 26  1  0  0  0  0
  1 27  1  0  0  0  0
  1 28  1  0  0  0  0
  2  3  1  0  0  0  0
  3  4  1  0  0  0  0
  3 29  1  0  0  0  0
  3 30  1  0  0  0  0
  4  5  1  0  0  0  0
  4 31  1  0  0  0  0
  4 32  1  0  0  0  0
  5 25  1  0  0  0  0
  5  6  1  0  0  0  0
  6  7  1  0  0  0  0
  6 33  1  0  0  0  0
  6 34  1  0  0  0  0
  7  8  1  0  0  0  0
  7 35  1  0  0  0  0
  7 36  1  0  0  0  0
  8  9  1  0  0  0  0
  8 24  1  0  0  0  0
  8 56  1  0  0  0  0
  9 10  1  0  0  0  0
  9 37  1  0  0  0  0
  9 38  1  0  0  0  0
 10 11  1  0  0  0  0
 10 12  1  0  0  0  0
 10 39  1  0  0  0  0
 11 40  1  0  0  0  0
 12 13  1  0  0  0  0
 12 41  1  0  0  0  0
 12 42  1  0  0  0  0
 13 23  1  0  0  0  0
 13 14  1  0  0  0  0
 14 15  2  0  0  0  0
 14 43  1  0  0  0  0
 15 16  1  0  0  0  0
 15 57  1  0  0  0  0
 16 23  2  0  0  0  0
 16 17  1  0  0  0  0
 17 18  2  0  0  0  0
 17 44  1  0  0  0  0
 18 19  1  0  0  0  0
 18 20  1  0  0  0  0
 19 45  1  0  0  0  0
 19 46  1  0  0  0  0
 19 47  1  0  0  0  0
 20 21  1  0  0  0  0
 20 22  2  0  0  0  0
 21 48  1  0  0  0  0
 21 49  1  0  0  0  0
 21 50  1  0  0  0  0
 22 23  1  0  0  0  0
 22 51  1  0  0  0  0
 24 25  1  0  0  0  0
 24 52  1  0  0  0  0
 24 53  1  0  0  0  0
 25 54  1  0  0  0  0
 25 55  1  0  0  0  0
M  CHG  1   8   1
M  CHG  1  15   1
M  END
> <s_m_source_file>
AV-unprocessed.smi

> <i_m_source_file_index>
1007

> <i_lp_mmshare_version>
43012

> <i_f3d_flags>
0

> <s_epik_input>
W0NIM11PW0NIMl1bQ0gyXU4xW0NIMl1bQ0gyXU4oW0NIMl1bQ0gyXTEpW0NIMl1bQ0BIXShbT0hdKVtDSDJdbihbY0hdbjIpYyhjMjMpW2NIXWMoW0NIM10pYyhbY0hdMylbQ0gzXQ==

> <s_epik_cmdline>
J2VwaWtfcHl0aG9uJywgJy1waCcsICc3LjAnLCAnLXRuJywgJzgnLCAnLW1hJywgJzIwMCcsICctbWV0YWxfYmluZGluZycsICctaW1hZScsICc8aW5maWxlLm1hZT4nLCAnLW9tYWUnLCAnPG91dGZpbGUubWFlPic=

> <r_epik_Ionization_Penalty>
1.19231

> <r_epik_Ionization_Penalty_Charging>
1.17974

> <r_epik_Ionization_Penalty_Neutral>
0.0125676

> <r_epik_State_Penalty>
1.24499

> <r_epik_Charging_Adjusted_Penalty>
2.42472

> <i_epik_Tot_Q>
2

> <i_epik_Tot_abs_Q>
2

> <r_epik_Metal_State_Penalty>
5.24866

> <b_epik_Metal_Only>
0

> <s_lp_Force_Field>
OPLS_2005

> <r_lp_Energy>
41.9182

> <b_lp_Chiralities_Consistent>
1

> <s_lp_Variant>
AV-unprocessed.smi:1007-6

> <Gold.Version>
5.8.1

> <Gold.Id.Protein>
6NUR|6NUR_protein|mol2

> <Gold.PLP.Fitness>
56.2862

> <Gold.PLP.PLP>
-43.4615

> <Gold.PLP.part.hbond>
-3.0000

> <Gold.PLP.part.metal>
0.0000

> <Gold.PLP.part.buried>
-6.1331

> <Gold.PLP.part.nonpolar>
-34.3763

> <Gold.PLP.part.repulsive>
0.1281

> <Gold.PLP.ligand.clash>
0.0000

> <Gold.PLP.ligand.torsion>
1.1772

> <Gold.PLP.Chemscore.Hbond>
5.0000

> <Gold.PLP.Chemscore.CHOScore>
0.0000

> <Gold.PLP.Chemscore.Metal>
0.0000

> <Gold.Chemscore.Hbonds>
donor molecule, donor type, donor heavy atom, donor atom, acceptor molecule, acceptor atom, score
      L1  H     8    56       P1  7948  2.00
      L1  H    15    57       P1  8028  2.00
      P1  H  6896  6909       L1     2  0.21

> <Gold.PLP.Chemscore.Internal.Correction>
0.1791

> <Gold.Rescore>
     Score         DG    S(hbond)    S(metal)    S(lipo)     H(rot)  DE(clash)    DE(int)     intcor
     17.39     -19.02       1.95        0.00     117.99       2.64       0.07       1.56       ----

> <Gold.Chemscore.Fitness>
17.3920

> <Gold.Chemscore.DG>
-19.0181

> <Gold.Chemscore.ZeroCoef>
-5.4800

> <Gold.Chemscore.Hbond>
1.9460

> <Gold.Chemscore.Metal>
0.0000

> <Gold.Chemscore.Lipo>
117.9919

> <Gold.Chemscore.Internal_Hbond>
0.0000

> <Gold.Chemscore.DEClash>
0.0667

> <Gold.Chemscore.DEInternal>
1.5595

> <Gold.Chemscore.Rot>
2.6432

> <Gold.Chemscore.Internal.Correction>
   9.000000E+99

> <Gold.Chemscore.Hbonds>
donor molecule, donor type, donor heavy atom, donor atom, acceptor molecule, acceptor atom, score
      L1  H     8    56       P1  7948  0.45
      L1  H    15    57       P1  8028  0.98
      P1  H  6896  6909       L1     2  0.05

> <Gold.Chemscore.Hbond.Weighted>
-6.4996

> <Gold.Chemscore.Metal.Weighted>
-0.0000

> <Gold.Chemscore.Lipo.Weighted>
-13.8051

> <Gold.Chemscore.Internal_Hbond.Weighted>
0.0000

> <Gold.Chemscore.DEClash.Weighted>
0.0667

> <Gold.Chemscore.DEInternal.Weighted>
1.5595

> <Gold.Chemscore.Rot.Weighted>
6.7665

> <Gold.Chemscore.Internal.Correction.Weighted>
   9.000000E+99

> <Gold.Protein.RotatedTorsions>
[ 6907 6896 6895 6894 ] final  -24.55 input  -60.11 | X-H torsion
[ 7974 7965 7964 7962 ] final -143.12 input  175.53 | X-H torsion
[ 8008 7997 7996 7995 ] final   63.67 input   59.86 | X-H torsion
[ 10167 10162 10161 10158 ] final -143.57 input  -65.29 | X-H torsion
[ 10718 10713 10712 10709 ] final  102.17 input   66.30 | X-H torsion
[ 10763 10752 10751 10750 ] final    7.69 input  -60.55 | X-H torsion
[ 11005 11000 10999 10996 ] final   97.02 input  -57.11 | X-H torsion

> <Gold.Protein.ActiveResidues>
 VAL166  LYS551  ARG553  GLY616  TRP617  ASP618  TYR619  PRO620  LYS621  CYS622 
 ASP623  PHE694  ASN695  SER759  ASP760  ASP761  ALA762  ILE779  LEU786  VAL792 
 PHE793  MET794  SER795  GLU796  ALA797  LYS798  CYS799  TRP800  GLU811  SER814 

> <Gold.Protein.RotatedAtoms>
  151.1879  135.0390  159.8819 H   0  0  0  0  0  0  0  0  0  0  0  0  # atno 6907 bound_to 6896
  152.5441  134.0989  159.8319 H   0  0  0  0  0  0  0  0  0  0  0  0  # atno 6908 bound_to 6896
  151.1114  133.5123  159.2637 H   0  0  0  0  0  0  0  0  0  0  0  0  # atno 6909 bound_to 6896
  144.8393  140.5873  143.5463 H   0  0  0  0  0  0  0  0  0  0  0  0  # atno 7974 bound_to 7965
  155.6338  140.3496  155.4692 H   0  0  0  0  0  0  0  0  0  0  0  0  # atno 8008 bound_to 7997
  155.9981  140.1207  157.0597 H   0  0  0  0  0  0  0  0  0  0  0  0  # atno 8009 bound_to 7997
  154.4240  140.1106  156.5645 H   0  0  0  0  0  0  0  0  0  0  0  0  # atno 8010 bound_to 7997
  139.7980  143.7872  152.2656 H   0  0  0  0  0  0  0  0  0  0  0  0  # atno 10167 bound_to 10162
  157.6809  131.0746  150.5364 H   0  0  0  0  0  0  0  0  0  0  0  0  # atno 10718 bound_to 10713
  153.2334  135.6895  153.7864 H   0  0  0  0  0  0  0  0  0  0  0  0  # atno 10763 bound_to 10752
  153.7020  135.3296  155.3228 H   0  0  0  0  0  0  0  0  0  0  0  0  # atno 10764 bound_to 10752
  154.8324  135.4570  154.1228 H   0  0  0  0  0  0  0  0  0  0  0  0  # atno 10765 bound_to 10752
  139.8778  134.8980  156.4245 H   0  0  0  0  0  0  0  0  0  0  0  0  # atno 11005 bound_to 11000
  145.4729  139.1502  143.3804 LP  0  0  0  0  0  0  0  0  0  0  0  0  # atno 17320 bound_to 7965
  146.2687  140.4863  142.8823 LP  0  0  0  0  0  0  0  0  0  0  0  0  # atno 17321 bound_to 7965
  139.7984  144.7383  150.9858 LP  0  0  0  0  0  0  0  0  0  0  0  0  # atno 17342 bound_to 10162
  140.7820  143.4370  151.0608 LP  0  0  0  0  0  0  0  0  0  0  0  0  # atno 17343 bound_to 10162
  156.5672  130.4270  149.6036 LP  0  0  0  0  0  0  0  0  0  0  0  0  # atno 17370 bound_to 10713
  156.2771  130.7050  151.1864 LP  0  0  0  0  0  0  0  0  0  0  0  0  # atno 17371 bound_to 10713
  140.9110  133.7711  155.9792 LP  0  0  0  0  0  0  0  0  0  0  0  0  # atno 17394 bound_to 11000
  140.8546  134.2914  157.5261 LP  0  0  0  0  0  0  0  0  0  0  0  0  # atno 17395 bound_to 11000

$$$$
