AV-unprocessed.smi:1633|AV-procd|sdf|6533|dock3
  -GOLD-   22720 7213D 1   1.00000     0.00000
 Structure written by MMmdl.
 51 53  0  0  0  0  0  0  0  0  2 V2000
  142.7087  135.8678  153.0889 C   0  0  0  0  0  0  0  0  0  0  0  0
  143.8944  135.4546  153.9634 C   0  0  0  0  0  0  0  0  0  0  0  0
  143.6587  134.8670  155.0188 O   0  0  0  0  0  0  0  0  0  0  0  0
  145.1529  135.7427  153.5537 N   0  0  0  0  0  0  0  0  0  0  0  0
  146.3757  135.5024  154.3244 C   0  0  0  0  0  0  0  0  0  0  0  0
  146.9617  136.8570  154.7632 C   0  0  0  0  0  0  0  0  0  0  0  0
  147.1923  137.7586  153.5985 N   0  3  0  0  0  0  0  0  0  0  0  0
  147.7291  139.0893  153.9814 C   0  0  0  0  0  0  0  0  0  0  0  0
  149.1378  139.0231  154.6158 C   0  0  1  0  0  0  0  0  0  0  0  0
  150.0181  138.3680  153.7248 O   0  0  0  0  0  0  0  0  0  0  0  0
  149.7341  140.4125  154.9166 C   0  0  0  0  0  0  0  0  0  0  0  0
  150.8016  140.3553  155.8983 N   0  0  0  0  0  0  0  0  0  0  0  0
  151.7930  139.4460  155.9630 C   0  0  0  0  0  0  0  0  0  0  0  0
  152.6627  139.5643  156.9615 N   0  0  0  0  0  0  0  0  0  0  0  0
  152.1862  140.6870  157.6163 C   0  0  0  0  0  0  0  0  0  0  0  0
  152.6613  141.3462  158.7710 C   0  0  0  0  0  0  0  0  0  0  0  0
  152.0028  142.4904  159.2749 C   0  0  0  0  0  0  0  0  0  0  0  0
  152.5478  143.1673  160.5204 C   0  0  0  0  0  0  0  0  0  0  0  0
  150.8496  142.9931  158.6204 C   0  0  0  0  0  0  0  0  0  0  0  0
  150.1262  144.2212  159.1440 C   0  0  0  0  0  0  0  0  0  0  0  0
  150.3621  142.3471  157.4650 C   0  0  0  0  0  0  0  0  0  0  0  0
  151.0253  141.2086  156.9739 C   0  0  0  0  0  0  0  0  0  0  0  0
  145.9988  137.8777  152.7173 C   0  0  0  0  0  0  0  0  0  0  0  0
  145.4372  136.4975  152.3308 C   0  0  0  0  0  0  0  0  0  0  0  0
  142.7683  135.3984  152.1067 H   0  0  0  0  0  0  0  0  0  0  0  0
  142.6784  136.9504  152.9645 H   0  0  0  0  0  0  0  0  0  0  0  0
  141.7687  135.5597  153.5476 H   0  0  0  0  0  0  0  0  0  0  0  0
  146.2269  134.8650  155.1949 H   0  0  0  0  0  0  0  0  0  0  0  0
  147.0934  134.9726  153.6962 H   0  0  0  0  0  0  0  0  0  0  0  0
  146.2794  137.3392  155.4656 H   0  0  0  0  0  0  0  0  0  0  0  0
  147.8935  136.6817  155.2991 H   0  0  0  0  0  0  0  0  0  0  0  0
  147.7783  139.7340  153.1022 H   0  0  0  0  0  0  0  0  0  0  0  0
  147.0143  139.5584  154.6580 H   0  0  0  0  0  0  0  0  0  0  0  0
  149.1168  138.4573  155.5466 H   0  0  0  0  0  0  0  0  0  0  0  0
  149.7889  138.5998  152.8383 H   0  0  0  0  0  0  0  0  0  0  0  0
  150.1344  140.8585  154.0049 H   0  0  0  0  0  0  0  0  0  0  0  0
  148.9617  141.0913  155.2805 H   0  0  0  0  0  0  0  0  0  0  0  0
  151.8752  138.6465  155.2410 H   0  0  0  0  0  0  0  0  0  0  0  0
  153.5397  140.9635  159.2696 H   0  0  0  0  0  0  0  0  0  0  0  0
  152.8142  144.2027  160.3076 H   0  0  0  0  0  0  0  0  0  0  0  0
  153.4409  142.6624  160.8896 H   0  0  0  0  0  0  0  0  0  0  0  0
  151.8038  143.1571  161.3169 H   0  0  0  0  0  0  0  0  0  0  0  0
  149.2673  144.4734  158.5214 H   0  0  0  0  0  0  0  0  0  0  0  0
  150.7944  145.0824  159.1552 H   0  0  0  0  0  0  0  0  0  0  0  0
  149.7656  144.0491  160.1583 H   0  0  0  0  0  0  0  0  0  0  0  0
  149.4845  142.7202  156.9581 H   0  0  0  0  0  0  0  0  0  0  0  0
  145.2294  138.4580  153.2296 H   0  0  0  0  0  0  0  0  0  0  0  0
  146.2633  138.4292  151.8144 H   0  0  0  0  0  0  0  0  0  0  0  0
  146.1653  135.9496  151.7309 H   0  0  0  0  0  0  0  0  0  0  0  0
  144.5603  136.6203  151.6937 H   0  0  0  0  0  0  0  0  0  0  0  0
  147.9014  137.3175  153.0309 H   0  0  0  0  0  0  0  0  0  0  0  0
  1  2  1  0  0  0  0
  1 25  1  0  0  0  0
  1 26  1  0  0  0  0
  1 27  1  0  0  0  0
  2  3  2  0  0  0  0
  2  4  1  0  0  0  0
  4 24  1  0  0  0  0
  4  5  1  0  0  0  0
  5  6  1  0  0  0  0
  5 28  1  0  0  0  0
  5 29  1  0  0  0  0
  6  7  1  0  0  0  0
  6 30  1  0  0  0  0
  6 31  1  0  0  0  0
  7  8  1  0  0  0  0
  7 23  1  0  0  0  0
  7 51  1  0  0  0  0
  8  9  1  0  0  0  0
  8 32  1  0  0  0  0
  8 33  1  0  0  0  0
  9 10  1  0  0  0  0
  9 11  1  0  0  0  0
  9 34  1  0  0  0  0
 10 35  1  0  0  0  0
 11 12  1  0  0  0  0
 11 36  1  0  0  0  0
 11 37  1  0  0  0  0
 12 22  1  0  0  0  0
 12 13  1  0  0  0  0
 13 14  2  0  0  0  0
 13 38  1  0  0  0  0
 14 15  1  0  0  0  0
 15 22  2  0  0  0  0
 15 16  1  0  0  0  0
 16 17  2  0  0  0  0
 16 39  1  0  0  0  0
 17 18  1  0  0  0  0
 17 19  1  0  0  0  0
 18 40  1  0  0  0  0
 18 41  1  0  0  0  0
 18 42  1  0  0  0  0
 19 20  1  0  0  0  0
 19 21  2  0  0  0  0
 20 43  1  0  0  0  0
 20 44  1  0  0  0  0
 20 45  1  0  0  0  0
 21 22  1  0  0  0  0
 21 46  1  0  0  0  0
 23 24  1  0  0  0  0
 23 47  1  0  0  0  0
 23 48  1  0  0  0  0
 24 49  1  0  0  0  0
 24 50  1  0  0  0  0
M  CHG  1   7   1
M  END
> <s_m_source_file>
AV-unprocessed.smi

> <i_m_source_file_index>
1633

> <i_lp_mmshare_version>
43012

> <i_f3d_flags>
0

> <s_epik_input>
W0NIM11DKD1PKU4xW0NIMl1bQ0gyXU4oW0NIMl1bQ0gyXTEpW0NIMl1bQ0BIXShbT0hdKVtDSDJdbihbY0hdbjIpYyhjMjMpW2NIXWMoW0NIM10pYyhbY0hdMylbQ0gzXQ==

> <s_epik_cmdline>
J2VwaWtfcHl0aG9uJywgJy1waCcsICc3LjAnLCAnLXRuJywgJzgnLCAnLW1hJywgJzIwMCcsICctbWV0YWxfYmluZGluZycsICctaW1hZScsICc8aW5maWxlLm1hZT4nLCAnLW9tYWUnLCAnPG91dGZpbGUubWFlPic=

> <r_epik_Ionization_Penalty>
0.0939669

> <r_epik_Ionization_Penalty_Charging>
0.00645254

> <r_epik_Ionization_Penalty_Neutral>
0.0875144

> <r_epik_State_Penalty>
0.0777239

> <r_epik_Charging_Adjusted_Penalty>
0.0841764

> <i_epik_Tot_Q>
1

> <i_epik_Tot_abs_Q>
1

> <r_epik_Metal_State_Penalty>
7.71307e-05

> <b_epik_Metal_Only>
0

> <s_lp_Force_Field>
OPLS_2005

> <r_lp_Energy>
45.1144

> <b_lp_Chiralities_Consistent>
1

> <s_lp_Variant>
AV-unprocessed.smi:1633-2

> <Gold.Version>
5.8.1

> <Gold.Id.Protein>
6NUR|6NUR_protein|mol2

> <Gold.PLP.Fitness>
53.0278

> <Gold.PLP.PLP>
-41.8670

> <Gold.PLP.part.hbond>
-3.9378

> <Gold.PLP.part.metal>
0.0000

> <Gold.PLP.part.buried>
-2.7843

> <Gold.PLP.part.nonpolar>
-33.8926

> <Gold.PLP.part.repulsive>
0.1129

> <Gold.PLP.ligand.clash>
0.0000

> <Gold.PLP.ligand.torsion>
0.4753

> <Gold.PLP.Chemscore.Hbond>
4.0000

> <Gold.PLP.Chemscore.CHOScore>
0.0000

> <Gold.PLP.Chemscore.Metal>
0.0000

> <Gold.Chemscore.Hbonds>
donor molecule, donor type, donor heavy atom, donor atom, acceptor molecule, acceptor atom, score
      L1  H     7    51       P1  7948  2.00
      L1  H    10    35       P1  7957  0.57
      P1  H  7997  8010       L1    14  1.00

> <Gold.PLP.Chemscore.Internal.Correction>
0.1114

> <Gold.Rescore>
     Score         DG    S(hbond)    S(metal)    S(lipo)     H(rot)  DE(clash)    DE(int)     intcor
     20.05     -20.71       2.78        0.00      98.16       2.16       0.13       0.53       ----

> <Gold.Chemscore.Fitness>
20.0468

> <Gold.Chemscore.DG>
-20.7107

> <Gold.Chemscore.ZeroCoef>
-5.4800

> <Gold.Chemscore.Hbond>
2.7779

> <Gold.Chemscore.Metal>
0.0000

> <Gold.Chemscore.Lipo>
98.1559

> <Gold.Chemscore.Internal_Hbond>
0.0000

> <Gold.Chemscore.DEClash>
0.1337

> <Gold.Chemscore.DEInternal>
0.5302

> <Gold.Chemscore.Rot>
2.1608

> <Gold.Chemscore.Internal.Correction>
   9.000000E+99

> <Gold.Chemscore.Hbonds>
donor molecule, donor type, donor heavy atom, donor atom, acceptor molecule, acceptor atom, score
      L1  H     7    51       P1  7948  1.00
      L1  H    10    35       P1  7957  0.37
      P1  H  7997  8010       L1    14  0.31

> <Gold.Chemscore.Hbond.Weighted>
-9.2782

> <Gold.Chemscore.Metal.Weighted>
-0.0000

> <Gold.Chemscore.Lipo.Weighted>
-11.4842

> <Gold.Chemscore.Internal_Hbond.Weighted>
0.0000

> <Gold.Chemscore.DEClash.Weighted>
0.1337

> <Gold.Chemscore.DEInternal.Weighted>
0.5302

> <Gold.Chemscore.Rot.Weighted>
5.5317

> <Gold.Chemscore.Internal.Correction.Weighted>
   9.000000E+99

> <Gold.Protein.RotatedTorsions>
[ 6907 6896 6895 6894 ] final  169.90 input  -60.11 | X-H torsion
[ 7974 7965 7964 7962 ] final -133.02 input  175.53 | X-H torsion
[ 8008 7997 7996 7995 ] final   71.43 input   59.86 | X-H torsion
[ 10167 10162 10161 10158 ] final  172.94 input  -65.29 | X-H torsion
[ 10718 10713 10712 10709 ] final   67.57 input   66.30 | X-H torsion
[ 10763 10752 10751 10750 ] final    2.90 input  -60.55 | X-H torsion
[ 11005 11000 10999 10996 ] final   45.47 input  -57.11 | X-H torsion

> <Gold.Protein.ActiveResidues>
 VAL166  LYS551  ARG553  GLY616  TRP617  ASP618  TYR619  PRO620  LYS621  CYS622 
 ASP623  PHE694  ASN695  SER759  ASP760  ASP761  ALA762  ILE779  LEU786  VAL792 
 PHE793  MET794  SER795  GLU796  ALA797  LYS798  CYS799  TRP800  GLU811  SER814 

> <Gold.Protein.RotatedAtoms>
  151.8245  133.3399  159.3594 H   0  0  0  0  0  0  0  0  0  0  0  0  # atno 6907 bound_to 6896
  150.7284  134.5542  159.5819 H   0  0  0  0  0  0  0  0  0  0  0  0  # atno 6908 bound_to 6896
  152.2981  134.7644  160.0415 H   0  0  0  0  0  0  0  0  0  0  0  0  # atno 6909 bound_to 6896
  144.9231  140.7038  143.4953 H   0  0  0  0  0  0  0  0  0  0  0  0  # atno 7974 bound_to 7965
  155.7538  140.3488  155.5163 H   0  0  0  0  0  0  0  0  0  0  0  0  # atno 8008 bound_to 7997
  155.8979  140.1029  157.1392 H   0  0  0  0  0  0  0  0  0  0  0  0  # atno 8009 bound_to 7997
  154.4040  140.1291  156.4386 H   0  0  0  0  0  0  0  0  0  0  0  0  # atno 8010 bound_to 7997
  139.5092  144.3317  152.0105 H   0  0  0  0  0  0  0  0  0  0  0  0  # atno 10167 bound_to 10162
  157.6238  130.9328  150.0260 H   0  0  0  0  0  0  0  0  0  0  0  0  # atno 10718 bound_to 10713
  153.2899  135.6947  153.7303 H   0  0  0  0  0  0  0  0  0  0  0  0  # atno 10763 bound_to 10752
  153.6258  135.3419  155.3026 H   0  0  0  0  0  0  0  0  0  0  0  0  # atno 10764 bound_to 10752
  154.8521  135.4397  154.1979 H   0  0  0  0  0  0  0  0  0  0  0  0  # atno 10765 bound_to 10752
  140.1457  134.4526  155.8418 H   0  0  0  0  0  0  0  0  0  0  0  0  # atno 11005 bound_to 11000
  145.3263  139.1773  143.4561 LP  0  0  0  0  0  0  0  0  0  0  0  0  # atno 17320 bound_to 7965
  146.3214  140.3287  142.8638 LP  0  0  0  0  0  0  0  0  0  0  0  0  # atno 17321 bound_to 7965
  140.2756  144.3916  150.6136 LP  0  0  0  0  0  0  0  0  0  0  0  0  # atno 17342 bound_to 10162
  140.6056  143.2167  151.6987 LP  0  0  0  0  0  0  0  0  0  0  0  0  # atno 17343 bound_to 10162
  156.1398  130.3642  149.9599 LP  0  0  0  0  0  0  0  0  0  0  0  0  # atno 17370 bound_to 10713
  156.7643  130.9162  151.3642 LP  0  0  0  0  0  0  0  0  0  0  0  0  # atno 17371 bound_to 10713
  141.2192  133.6851  156.7328 LP  0  0  0  0  0  0  0  0  0  0  0  0  # atno 17394 bound_to 11000
  140.2667  134.8424  157.3809 LP  0  0  0  0  0  0  0  0  0  0  0  0  # atno 17395 bound_to 11000

$$$$
