AV-unprocessed.smi:1251|AV-procd|sdf|5258|dock2
  -GOLD-   22720 4373D 1   1.00000     0.00000
 Structure written by MMmdl.
 39 40  0  0  0  0  0  0  0  0  1 V2000
  151.7958  142.7767  158.3133 C   0  0  0  0  0  0  0  0  0  0  0  0
  151.3081  141.5670  157.5089 C   0  0  0  0  0  0  0  0  0  0  0  0
  150.4860  141.9720  156.2772 C   0  0  0  0  0  0  0  0  0  0  0  0
  150.1329  140.8062  155.4145 C   0  0  0  0  0  0  0  0  0  0  0  0
  151.0525  139.9758  154.9070 N   0  0  0  0  0  0  0  0  0  0  0  0
  150.4837  138.9522  154.1618 N   0  0  0  0  0  0  0  0  0  0  0  0
  149.1460  139.0324  154.1421 C   0  0  0  0  0  0  0  0  0  0  0  0
  148.3095  138.1124  153.4568 N   0  0  0  0  0  0  0  0  0  0  0  0
  146.9667  138.0928  153.3936 C   0  0  0  0  0  0  0  0  0  0  0  0
  146.2165  138.8996  153.9436 O   0  0  0  0  0  0  0  0  0  0  0  0
  146.5344  137.0702  152.6407 N   0  0  0  0  0  0  0  0  0  0  0  0
  145.1370  136.7649  152.3412 C   0  0  2  0  0  0  0  0  0  0  0  0
  144.3991  136.5107  153.6648 C   0  0  0  0  0  0  0  0  0  0  0  0
  145.0550  135.5580  151.3826 C   0  0  1  0  0  0  0  0  0  0  0  0
  145.9280  134.3670  151.7842 C   0  0  0  0  0  0  0  0  0  0  0  0
  145.2093  133.2171  151.1178 C   0  0  0  0  0  0  0  0  0  0  0  0
  143.7504  133.6075  151.3240 C   0  0  0  0  0  0  0  0  0  0  0  0
  143.7285  135.0319  151.3399 O   0  0  0  0  0  0  0  0  0  0  0  0
  148.4673  140.3788  155.0407 S   0  0  0  0  0  0  0  0  0  0  0  0
  152.3757  142.4590  159.1799 H   0  0  0  0  0  0  0  0  0  0  0  0
  150.9577  143.3731  158.6747 H   0  0  0  0  0  0  0  0  0  0  0  0
  152.4308  143.4228  157.7066 H   0  0  0  0  0  0  0  0  0  0  0  0
  152.1672  140.9722  157.1963 H   0  0  0  0  0  0  0  0  0  0  0  0
  150.7072  140.9260  158.1550 H   0  0  0  0  0  0  0  0  0  0  0  0
  149.5639  142.4637  156.5886 H   0  0  0  0  0  0  0  0  0  0  0  0
  151.0387  142.6974  155.6787 H   0  0  0  0  0  0  0  0  0  0  0  0
  148.7913  137.3849  152.9498 H   0  0  0  0  0  0  0  0  0  0  0  0
  147.2261  136.4617  152.2283 H   0  0  0  0  0  0  0  0  0  0  0  0
  144.6680  137.6261  151.8619 H   0  0  0  0  0  0  0  0  0  0  0  0
  143.3356  136.3370  153.5003 H   0  0  0  0  0  0  0  0  0  0  0  0
  144.4869  137.3681  154.3329 H   0  0  0  0  0  0  0  0  0  0  0  0
  144.8021  135.6406  154.1842 H   0  0  0  0  0  0  0  0  0  0  0  0
  145.3183  135.8636  150.3684 H   0  0  0  0  0  0  0  0  0  0  0  0
  146.9632  134.4676  151.4569 H   0  0  0  0  0  0  0  0  0  0  0  0
  145.9221  134.2315  152.8669 H   0  0  0  0  0  0  0  0  0  0  0  0
  145.4465  133.1936  150.0535 H   0  0  0  0  0  0  0  0  0  0  0  0
  145.4569  132.2460  151.5473 H   0  0  0  0  0  0  0  0  0  0  0  0
  143.0990  133.2066  150.5473 H   0  0  0  0  0  0  0  0  0  0  0  0
  143.3913  133.2462  152.2884 H   0  0  0  0  0  0  0  0  0  0  0  0
  1  2  1  0  0  0  0
  1 20  1  0  0  0  0
  1 21  1  0  0  0  0
  1 22  1  0  0  0  0
  2  3  1  0  0  0  0
  2 23  1  0  0  0  0
  2 24  1  0  0  0  0
  3  4  1  0  0  0  0
  3 25  1  0  0  0  0
  3 26  1  0  0  0  0
  4 19  1  0  0  0  0
  4  5  2  0  0  0  0
  5  6  1  0  0  0  0
  6  7  2  0  0  0  0
  7  8  1  0  0  0  0
  7 19  1  0  0  0  0
  8  9  1  0  0  0  0
  8 27  1  0  0  0  0
  9 10  2  0  0  0  0
  9 11  1  0  0  0  0
 11 12  1  0  0  0  0
 11 28  1  0  0  0  0
 12 13  1  0  0  0  0
 12 14  1  0  0  0  0
 12 29  1  0  0  0  0
 13 30  1  0  0  0  0
 13 31  1  0  0  0  0
 13 32  1  0  0  0  0
 14 18  1  0  0  0  0
 14 15  1  0  0  0  0
 14 33  1  0  0  0  0
 15 16  1  0  0  0  0
 15 34  1  0  0  0  0
 15 35  1  0  0  0  0
 16 17  1  0  0  0  0
 16 36  1  0  0  0  0
 16 37  1  0  0  0  0
 17 18  1  0  0  0  0
 17 38  1  0  0  0  0
 17 39  1  0  0  0  0
M  END
> <s_m_source_file>
AV-unprocessed.smi

> <i_m_source_file_index>
1251

> <i_lp_mmshare_version>
43012

> <i_f3d_flags>
0

> <s_epik_input>
W0NIM11bQ0gyXVtDSDJdYzFubmMoczEpW05IXUMoPU8pW05IXVtDQEhdKFtDSDNdKVtDQEBIXTJbQ0gyXVtDSDJdW0NIMl1PMg==

> <s_epik_cmdline>
J2VwaWtfcHl0aG9uJywgJy1waCcsICc3LjAnLCAnLXRuJywgJzgnLCAnLW1hJywgJzIwMCcsICctbWV0YWxfYmluZGluZycsICctaW1hZScsICc8aW5maWxlLm1hZT4nLCAnLW9tYWUnLCAnPG91dGZpbGUubWFlPic=

> <r_lp_tautomer_probability>
1

> <r_epik_Ionization_Penalty>
0.000503621

> <r_epik_Ionization_Penalty_Charging>
0

> <r_epik_Ionization_Penalty_Neutral>
0.000503621

> <r_epik_State_Penalty>
-0

> <r_epik_Charging_Adjusted_Penalty>
0

> <i_epik_Tot_Q>
0

> <i_epik_Tot_abs_Q>
0

> <r_epik_Metal_State_Penalty>
0.219912

> <b_epik_Metal_Only>
0

> <s_lp_Force_Field>
OPLS_2005

> <r_lp_Energy>
12.8744

> <b_lp_Chiralities_Consistent>
1

> <s_lp_Variant>
AV-unprocessed.smi:1251-3

> <Gold.Version>
5.8.1

> <Gold.Id.Protein>
6NUR|6NUR_protein|mol2

> <Gold.PLP.Fitness>
36.6140

> <Gold.PLP.PLP>
-28.9419

> <Gold.PLP.part.hbond>
-3.7246

> <Gold.PLP.part.metal>
0.0000

> <Gold.PLP.part.buried>
-2.5007

> <Gold.PLP.part.nonpolar>
-24.0792

> <Gold.PLP.part.repulsive>
0.7438

> <Gold.PLP.ligand.clash>
0.0000

> <Gold.PLP.ligand.torsion>
0.2194

> <Gold.PLP.Chemscore.Hbond>
2.6780

> <Gold.PLP.Chemscore.CHOScore>
0.0000

> <Gold.PLP.Chemscore.Metal>
0.0000

> <Gold.Chemscore.Hbonds>
donor molecule, donor type, donor heavy atom, donor atom, acceptor molecule, acceptor atom, score
      L1  H     8    27       P1  7948  1.00
      L1  H    11    28       P1  7948  0.93
      P1  H  7989  7998       L1     5  0.75

> <Gold.PLP.Chemscore.Internal.Correction>
0.0770

> <Gold.Rescore>
     Score         DG    S(hbond)    S(metal)    S(lipo)     H(rot)  DE(clash)    DE(int)     intcor
     14.52     -16.07       1.95        0.00      69.56       1.58       0.14       1.41       ----

> <Gold.Chemscore.Fitness>
14.5162

> <Gold.Chemscore.DG>
-16.0705

> <Gold.Chemscore.ZeroCoef>
-5.4800

> <Gold.Chemscore.Hbond>
1.9483

> <Gold.Chemscore.Metal>
0.0000

> <Gold.Chemscore.Lipo>
69.5633

> <Gold.Chemscore.Internal_Hbond>
0.0000

> <Gold.Chemscore.DEClash>
0.1435

> <Gold.Chemscore.DEInternal>
1.4108

> <Gold.Chemscore.Rot>
1.5843

> <Gold.Chemscore.Internal.Correction>
   9.000000E+99

> <Gold.Chemscore.Hbonds>
donor molecule, donor type, donor heavy atom, donor atom, acceptor molecule, acceptor atom, score
      L1  H     8    27       P1  7948  0.96
      L1  H    11    28       P1  7948  0.91
      P1  H  7989  7998       L1     5  0.04

> <Gold.Chemscore.Hbond.Weighted>
-6.5074

> <Gold.Chemscore.Metal.Weighted>
-0.0000

> <Gold.Chemscore.Lipo.Weighted>
-8.1389

> <Gold.Chemscore.Internal_Hbond.Weighted>
0.0000

> <Gold.Chemscore.DEClash.Weighted>
0.1435

> <Gold.Chemscore.DEInternal.Weighted>
1.4108

> <Gold.Chemscore.Rot.Weighted>
4.0558

> <Gold.Chemscore.Internal.Correction.Weighted>
   9.000000E+99

> <Gold.Protein.RotatedTorsions>
[ 6907 6896 6895 6894 ] final  -40.64 input  -60.11 | X-H torsion
[ 7974 7965 7964 7962 ] final  -51.53 input  175.53 | X-H torsion
[ 8008 7997 7996 7995 ] final   39.84 input   59.86 | X-H torsion
[ 10167 10162 10161 10158 ] final  -73.56 input  -65.29 | X-H torsion
[ 10718 10713 10712 10709 ] final -121.47 input   66.30 | X-H torsion
[ 10763 10752 10751 10750 ] final   80.76 input  -60.55 | X-H torsion
[ 11005 11000 10999 10996 ] final  166.95 input  -57.11 | X-H torsion

> <Gold.Protein.ActiveResidues>
 VAL166  LYS551  ARG553  GLY616  TRP617  ASP618  TYR619  PRO620  LYS621  CYS622 
 ASP623  PHE694  ASN695  SER759  ASP760  ASP761  ALA762  ILE779  LEU786  VAL792 
 PHE793  MET794  SER795  GLU796  ALA797  LYS798  CYS799  TRP800  GLU811  SER814 

> <Gold.Protein.RotatedAtoms>
  150.9760  134.9125  159.7816 H   0  0  0  0  0  0  0  0  0  0  0  0  # atno 6907 bound_to 6896
  152.5206  134.3475  159.9249 H   0  0  0  0  0  0  0  0  0  0  0  0  # atno 6908 bound_to 6896
  151.3483  133.3894  159.2712 H   0  0  0  0  0  0  0  0  0  0  0  0  # atno 6909 bound_to 6896
  145.9179  140.7859  142.9662 H   0  0  0  0  0  0  0  0  0  0  0  0  # atno 7974 bound_to 7965
  155.2433  140.3347  155.4290 H   0  0  0  0  0  0  0  0  0  0  0  0  # atno 8008 bound_to 7997
  156.2247  140.1824  156.7437 H   0  0  0  0  0  0  0  0  0  0  0  0  # atno 8009 bound_to 7997
  154.5879  140.0643  156.9183 H   0  0  0  0  0  0  0  0  0  0  0  0  # atno 8010 bound_to 7997
  140.5100  143.2346  151.7609 H   0  0  0  0  0  0  0  0  0  0  0  0  # atno 10167 bound_to 10162
  156.1340  130.6416  150.9666 H   0  0  0  0  0  0  0  0  0  0  0  0  # atno 10718 bound_to 10713
  153.1060  135.4791  154.8951 H   0  0  0  0  0  0  0  0  0  0  0  0  # atno 10763 bound_to 10752
  154.7430  135.3087  154.8697 H   0  0  0  0  0  0  0  0  0  0  0  0  # atno 10764 bound_to 10752
  153.9299  135.6846  153.4799 H   0  0  0  0  0  0  0  0  0  0  0  0  # atno 10765 bound_to 10752
  140.2717  134.7821  157.3681 H   0  0  0  0  0  0  0  0  0  0  0  0  # atno 11005 bound_to 11000
  144.6750  140.1929  143.7395 LP  0  0  0  0  0  0  0  0  0  0  0  0  # atno 17320 bound_to 7965
  145.8588  139.2212  143.1729 LP  0  0  0  0  0  0  0  0  0  0  0  0  # atno 17321 bound_to 7965
  139.4893  144.4404  151.9771 LP  0  0  0  0  0  0  0  0  0  0  0  0  # atno 17342 bound_to 10162
  140.3496  144.3105  150.5952 LP  0  0  0  0  0  0  0  0  0  0  0  0  # atno 17343 bound_to 10162
  157.6515  131.0896  150.8041 LP  0  0  0  0  0  0  0  0  0  0  0  0  # atno 17370 bound_to 10713
  156.8123  130.4956  149.5354 LP  0  0  0  0  0  0  0  0  0  0  0  0  # atno 17371 bound_to 10713
  140.1367  134.5025  155.8063 LP  0  0  0  0  0  0  0  0  0  0  0  0  # atno 17394 bound_to 11000
  141.2176  133.6810  156.7136 LP  0  0  0  0  0  0  0  0  0  0  0  0  # atno 17395 bound_to 11000

$$$$
