AV-unprocessed.smi:496|AV-procd|sdf|2720|dock5
  -GOLD-   2262023163D 1   1.00000     0.00000
 Structure written by MMmdl.
 41 43  0  0  0  0  0  0  0  0  2 V2000
  154.8764  135.6893  160.9975 C   0  0  0  0  0  0  0  0  0  0  0  0
  154.0879  135.6260  159.8231 O   0  0  0  0  0  0  0  0  0  0  0  0
  154.0155  136.8719  159.1485 C   0  0  0  0  0  0  0  0  0  0  0  0
  153.5687  137.9674  160.1287 C   0  0  0  0  0  0  0  0  0  0  0  0
  152.5856  138.8790  159.5364 N   0  0  0  0  0  0  0  0  0  0  0  0
  151.3961  138.6183  158.9102 C   0  0  0  0  0  0  0  0  0  0  0  0
  150.8227  137.2272  158.6960 C   0  0  2  0  0  0  0  0  0  0  0  0
  150.6342  136.9175  157.2037 C   0  0  0  0  0  0  0  0  0  0  0  0
  149.5506  137.0370  159.3962 N   0  5  0  0  0  0  0  0  0  0  0  0
  148.9284  135.8315  159.5319 C   0  0  0  0  0  0  0  0  0  0  0  0
  148.9310  134.8520  158.7781 O   0  0  0  0  0  0  0  0  0  0  0  0
  148.1166  135.7625  160.7681 C   0  0  0  0  0  0  0  0  0  0  0  0
  147.6104  134.7008  161.4744 C   0  0  0  0  0  0  0  0  0  0  0  0
  146.8815  135.2440  162.5681 C   0  0  0  0  0  0  0  0  0  0  0  0
  146.9833  136.5998  162.4487 C   0  0  0  0  0  0  0  0  0  0  0  0
  147.7236  136.9311  161.3562 O   0  0  0  0  0  0  0  0  0  0  0  0
  150.7267  139.6997  158.4960 N   0  0  0  0  0  0  0  0  0  0  0  0
  151.5486  140.7436  158.8642 C   0  0  0  0  0  0  0  0  0  0  0  0
  151.3933  142.1377  158.6907 C   0  0  0  0  0  0  0  0  0  0  0  0
  152.3836  143.0292  159.1516 C   0  0  0  0  0  0  0  0  0  0  0  0
  153.5407  142.5397  159.7906 C   0  0  0  0  0  0  0  0  0  0  0  0
  153.7128  141.1540  159.9741 C   0  0  0  0  0  0  0  0  0  0  0  0
  152.7202  140.2668  159.5132 C   0  0  0  0  0  0  0  0  0  0  0  0
  154.9003  134.7100  161.4753 H   0  0  0  0  0  0  0  0  0  0  0  0
  154.4623  136.4019  161.7120 H   0  0  0  0  0  0  0  0  0  0  0  0
  155.9028  135.9783  160.7683 H   0  0  0  0  0  0  0  0  0  0  0  0
  154.9887  137.1222  158.7242 H   0  0  0  0  0  0  0  0  0  0  0  0
  153.3085  136.8069  158.3204 H   0  0  0  0  0  0  0  0  0  0  0  0
  153.1695  137.5325  161.0451 H   0  0  0  0  0  0  0  0  0  0  0  0
  154.4358  138.5487  160.4418 H   0  0  0  0  0  0  0  0  0  0  0  0
  151.5569  136.5053  159.0533 H   0  0  0  0  0  0  0  0  0  0  0  0
  151.5785  137.0100  156.6666 H   0  0  0  0  0  0  0  0  0  0  0  0
  149.9201  137.5982  156.7388 H   0  0  0  0  0  0  0  0  0  0  0  0
  150.2697  135.9006  157.0544 H   0  0  0  0  0  0  0  0  0  0  0  0
  147.7497  133.6573  161.2320 H   0  0  0  0  0  0  0  0  0  0  0  0
  146.3481  134.7105  163.3407 H   0  0  0  0  0  0  0  0  0  0  0  0
  146.6073  137.4346  163.0215 H   0  0  0  0  0  0  0  0  0  0  0  0
  150.5100  142.5196  158.2009 H   0  0  0  0  0  0  0  0  0  0  0  0
  152.2554  144.0926  159.0130 H   0  0  0  0  0  0  0  0  0  0  0  0
  154.2964  143.2278  160.1399 H   0  0  0  0  0  0  0  0  0  0  0  0
  154.6002  140.7782  160.4608 H   0  0  0  0  0  0  0  0  0  0  0  0
  1  2  1  0  0  0  0
  1 24  1  0  0  0  0
  1 25  1  0  0  0  0
  1 26  1  0  0  0  0
  2  3  1  0  0  0  0
  3  4  1  0  0  0  0
  3 27  1  0  0  0  0
  3 28  1  0  0  0  0
  4  5  1  0  0  0  0
  4 29  1  0  0  0  0
  4 30  1  0  0  0  0
  5 23  1  0  0  0  0
  5  6  1  0  0  0  0
  6  7  1  0  0  0  0
  6 17  2  0  0  0  0
  7  8  1  0  0  0  0
  7  9  1  0  0  0  0
  7 31  1  0  0  0  0
  8 32  1  0  0  0  0
  8 33  1  0  0  0  0
  8 34  1  0  0  0  0
  9 10  1  0  0  0  0
 10 11  2  0  0  0  0
 10 12  1  0  0  0  0
 12 16  1  0  0  0  0
 12 13  2  0  0  0  0
 13 14  1  0  0  0  0
 13 35  1  0  0  0  0
 14 15  2  0  0  0  0
 14 36  1  0  0  0  0
 15 16  1  0  0  0  0
 15 37  1  0  0  0  0
 17 18  1  0  0  0  0
 18 23  2  0  0  0  0
 18 19  1  0  0  0  0
 19 20  2  0  0  0  0
 19 38  1  0  0  0  0
 20 21  1  0  0  0  0
 20 39  1  0  0  0  0
 21 22  2  0  0  0  0
 21 40  1  0  0  0  0
 22 23  1  0  0  0  0
 22 41  1  0  0  0  0
M  CHG  1   9  -1
M  END
> <s_m_source_file>
AV-unprocessed.smi

> <i_m_source_file_index>
496

> <i_lp_mmshare_version>
43012

> <i_f3d_flags>
0

> <s_epik_input>
W2NIXTFbY0hdW2NIXVtjSF1jKGMxMiluKFtDSDJdW0NIMl1PW0NIM10pYyhuMilbQ0BIXShbQ0gzXSlbTkhdQyg9TyljM1tjSF1bY0hdW2NIXW8z

> <s_epik_cmdline>
J2VwaWtfcHl0aG9uJywgJy1waCcsICc3LjAnLCAnLXRuJywgJzgnLCAnLW1hJywgJzIwMCcsICctbWV0YWxfYmluZGluZycsICctaW1hZScsICc8aW5maWxlLm1hZT4nLCAnLW9tYWUnLCAnPG91dGZpbGUubWFlPic=

> <r_epik_Ionization_Penalty>
7.3423

> <r_epik_Ionization_Penalty_Charging>
6.43826

> <r_epik_Ionization_Penalty_Neutral>
0.90404

> <r_epik_State_Penalty>
6.54438

> <r_epik_Charging_Adjusted_Penalty>
12.9826

> <i_epik_Tot_Q>
-1

> <i_epik_Tot_abs_Q>
1

> <r_epik_Metal_State_Penalty>
2.56942

> <b_epik_Metal_Only>
1

> <s_lp_Force_Field>
OPLS_2005

> <r_lp_Energy>
15.948

> <b_lp_Chiralities_Consistent>
1

> <s_lp_Variant>
AV-unprocessed.smi:496-5

> <Gold.Version>
5.8.1

> <Gold.Id.Protein>
6NUR|6NUR_protein|mol2

> <Gold.PLP.Fitness>
53.9380

> <Gold.PLP.PLP>
-44.6980

> <Gold.PLP.part.hbond>
-4.7255

> <Gold.PLP.part.metal>
0.0000

> <Gold.PLP.part.buried>
-5.4054

> <Gold.PLP.part.nonpolar>
-34.9412

> <Gold.PLP.part.repulsive>
0.0000

> <Gold.PLP.ligand.clash>
0.0000

> <Gold.PLP.ligand.torsion>
0.8019

> <Gold.PLP.Chemscore.Hbond>
3.5520

> <Gold.PLP.Chemscore.CHOScore>
0.0000

> <Gold.PLP.Chemscore.Metal>
0.0000

> <Gold.Chemscore.Hbonds>
donor molecule, donor type, donor heavy atom, donor atom, acceptor molecule, acceptor atom, score
      P1  H  6896  6907       L1     2  0.91
      P1  H  6896  6909       L1    11  0.40
      P1  H  6931  6943       L1    16  1.00
      P1  H  6934  6947       L1    16  0.50

> <Gold.PLP.Chemscore.Internal.Correction>
0.1879

> <Gold.Rescore>
     Score         DG    S(hbond)    S(metal)    S(lipo)     H(rot)  DE(clash)    DE(int)     intcor
     21.09     -21.93       2.30        0.00     114.03       1.78       0.07       0.77       ----

> <Gold.Chemscore.Fitness>
21.0942

> <Gold.Chemscore.DG>
-21.9339

> <Gold.Chemscore.ZeroCoef>
-5.4800

> <Gold.Chemscore.Hbond>
2.2975

> <Gold.Chemscore.Metal>
0.0000

> <Gold.Chemscore.Lipo>
114.0319

> <Gold.Chemscore.Internal_Hbond>
0.0000

> <Gold.Chemscore.DEClash>
0.0688

> <Gold.Chemscore.DEInternal>
0.7709

> <Gold.Chemscore.Rot>
1.7819

> <Gold.Chemscore.Internal.Correction>
   9.000000E+99

> <Gold.Chemscore.Hbonds>
donor molecule, donor type, donor heavy atom, donor atom, acceptor molecule, acceptor atom, score
      P1  H  6896  6907       L1     2  0.52
      P1  H  6896  6909       L1    11  0.01
      P1  H  6931  6943       L1    16  0.63
      P1  H  6934  6947       L1    16  0.24

> <Gold.Chemscore.Hbond.Weighted>
-7.6738

> <Gold.Chemscore.Metal.Weighted>
-0.0000

> <Gold.Chemscore.Lipo.Weighted>
-13.3417

> <Gold.Chemscore.Internal_Hbond.Weighted>
0.0000

> <Gold.Chemscore.DEClash.Weighted>
0.0688

> <Gold.Chemscore.DEInternal.Weighted>
0.7709

> <Gold.Chemscore.Rot.Weighted>
4.5617

> <Gold.Chemscore.Internal.Correction.Weighted>
   9.000000E+99

> <Gold.Protein.RotatedTorsions>
[ 6907 6896 6895 6894 ] final   37.89 input  -60.11 | X-H torsion
[ 7974 7965 7964 7962 ] final   25.14 input  175.53 | X-H torsion
[ 8008 7997 7996 7995 ] final  166.06 input   59.86 | X-H torsion
[ 10167 10162 10161 10158 ] final  160.81 input  -65.29 | X-H torsion
[ 10718 10713 10712 10709 ] final -159.50 input   66.30 | X-H torsion
[ 10763 10752 10751 10750 ] final  -66.83 input  -60.55 | X-H torsion
[ 11005 11000 10999 10996 ] final  -76.43 input  -57.11 | X-H torsion

> <Gold.Protein.ActiveResidues>
 VAL166  LYS551  ARG553  GLY616  TRP617  ASP618  TYR619  PRO620  LYS621  CYS622 
 ASP623  PHE694  ASN695  SER759  ASP760  ASP761  ALA762  ILE779  LEU786  VAL792 
 PHE793  MET794  SER795  GLU796  ALA797  LYS798  CYS799  TRP800  GLU811  SER814 

> <Gold.Protein.RotatedAtoms>
  152.1491  134.9002  160.0548 H   0  0  0  0  0  0  0  0  0  0  0  0  # atno 6907 bound_to 6896
  152.0041  133.3831  159.4201 H   0  0  0  0  0  0  0  0  0  0  0  0  # atno 6908 bound_to 6896
  150.6873  134.3724  159.5042 H   0  0  0  0  0  0  0  0  0  0  0  0  # atno 6909 bound_to 6896
  146.1903  139.7507  142.8836 H   0  0  0  0  0  0  0  0  0  0  0  0  # atno 7974 bound_to 7965
  156.1749  140.1653  156.8380 H   0  0  0  0  0  0  0  0  0  0  0  0  # atno 8008 bound_to 7997
  154.5296  140.0759  156.8355 H   0  0  0  0  0  0  0  0  0  0  0  0  # atno 8009 bound_to 7997
  155.3434  140.3386  155.4241 H   0  0  0  0  0  0  0  0  0  0  0  0  # atno 8010 bound_to 7997
  139.4843  144.4597  151.8721 H   0  0  0  0  0  0  0  0  0  0  0  0  # atno 10167 bound_to 10162
  156.5689  130.8680  151.2832 H   0  0  0  0  0  0  0  0  0  0  0  0  # atno 10718 bound_to 10713
  154.3656  135.6106  153.5713 H   0  0  0  0  0  0  0  0  0  0  0  0  # atno 10763 bound_to 10752
  152.9792  135.5825  154.4582 H   0  0  0  0  0  0  0  0  0  0  0  0  # atno 10764 bound_to 10752
  154.4327  135.2848  155.1879 H   0  0  0  0  0  0  0  0  0  0  0  0  # atno 10765 bound_to 10752
  141.1654  133.6983  156.7667 H   0  0  0  0  0  0  0  0  0  0  0  0  # atno 11005 bound_to 11000
  145.3812  141.0358  143.3176 LP  0  0  0  0  0  0  0  0  0  0  0  0  # atno 17320 bound_to 7965
  144.8475  139.5374  143.6872 LP  0  0  0  0  0  0  0  0  0  0  0  0  # atno 17321 bound_to 7965
  140.4059  144.2433  150.5891 LP  0  0  0  0  0  0  0  0  0  0  0  0  # atno 17342 bound_to 10162
  140.5013  143.2317  151.8674 LP  0  0  0  0  0  0  0  0  0  0  0  0  # atno 17343 bound_to 10162
  157.7352  130.9759  150.2071 LP  0  0  0  0  0  0  0  0  0  0  0  0  # atno 17370 bound_to 10713
  156.2732  130.3724  149.8010 LP  0  0  0  0  0  0  0  0  0  0  0  0  # atno 17371 bound_to 10713
  140.2494  134.8552  157.3652 LP  0  0  0  0  0  0  0  0  0  0  0  0  # atno 17394 bound_to 11000
  140.1718  134.4599  155.7827 LP  0  0  0  0  0  0  0  0  0  0  0  0  # atno 17395 bound_to 11000

$$$$
