AV-unprocessed.smi:1005|AV-procd|sdf|4385|dock2
  -GOLD-   22720 2313D 1   1.00000     0.00000
 Structure written by MMmdl.
 58 60  0  0  0  0  0  0  0  0  4 V2000
  152.7009  142.9795  160.6579 C   0  0  0  0  0  0  0  0  0  0  0  0
  152.2410  142.2476  159.4086 C   0  0  0  0  0  0  0  0  0  0  0  0
  151.3700  142.9156  158.5183 C   0  0  0  0  0  0  0  0  0  0  0  0
  150.9647  142.2198  157.3856 C   0  0  0  0  0  0  0  0  0  0  0  0
  150.1272  142.5929  156.3321 N   0  3  0  0  0  0  0  0  0  0  0  0
  150.0259  141.5645  155.4449 C   0  0  0  0  0  0  0  0  0  0  0  0
  150.7823  140.5374  155.9205 N   0  0  0  0  0  0  0  0  0  0  0  0
  151.0234  139.2004  155.3610 C   0  0  0  0  0  0  0  0  0  0  0  0
  149.9457  138.7716  154.3452 C   0  0  1  0  0  0  0  0  0  0  0  0
  150.4722  137.7581  153.5105 O   0  0  0  0  0  0  0  0  0  0  0  0
  148.6829  138.2312  155.0451 C   0  0  0  0  0  0  0  0  0  0  0  0
  147.7530  137.5525  154.1059 N   0  3  2  0  0  0  0  0  0  0  0  0
  146.9129  138.4878  153.3180 C   0  0  0  0  0  0  0  0  0  0  0  0
  146.0128  137.7082  152.3464 C   0  0  0  0  0  0  0  0  0  0  0  0
  145.2216  136.7770  153.0746 O   0  0  0  0  0  0  0  0  0  0  0  0
  146.0093  135.8073  153.7567 C   0  0  2  0  0  0  0  0  0  0  0  0
  145.0355  134.8136  154.4217 C   0  0  0  0  0  0  0  0  0  0  0  0
  144.3841  133.8879  153.4582 N   0  3  0  0  0  0  0  0  0  0  0  0
  143.4810  134.6022  152.5285 C   0  0  0  0  0  0  0  0  0  0  0  0
  145.3435  133.0283  152.7262 C   0  0  0  0  0  0  0  0  0  0  0  0
  146.9062  136.5382  154.7789 C   0  0  0  0  0  0  0  0  0  0  0  0
  151.3936  140.9042  157.1242 C   0  0  0  0  0  0  0  0  0  0  0  0
  152.2550  140.2325  157.9883 C   0  0  0  0  0  0  0  0  0  0  0  0
  152.6800  140.9239  159.1453 C   0  0  0  0  0  0  0  0  0  0  0  0
  153.6208  140.2173  160.1066 C   0  0  0  0  0  0  0  0  0  0  0  0
  152.2529  143.9712  160.7270 H   0  0  0  0  0  0  0  0  0  0  0  0
  153.7843  143.1027  160.6518 H   0  0  0  0  0  0  0  0  0  0  0  0
  152.4195  142.4251  161.5535 H   0  0  0  0  0  0  0  0  0  0  0  0
  151.0343  143.9242  158.7112 H   0  0  0  0  0  0  0  0  0  0  0  0
  149.4472  141.5641  154.5320 H   0  0  0  0  0  0  0  0  0  0  0  0
  152.0069  139.2157  154.8891 H   0  0  0  0  0  0  0  0  0  0  0  0
  151.0877  138.4898  156.1862 H   0  0  0  0  0  0  0  0  0  0  0  0
  149.6946  139.6280  153.7206 H   0  0  0  0  0  0  0  0  0  0  0  0
  149.7620  137.3797  153.0139 H   0  0  0  0  0  0  0  0  0  0  0  0
  148.9930  137.5308  155.8226 H   0  0  0  0  0  0  0  0  0  0  0  0
  148.1541  139.0373  155.5566 H   0  0  0  0  0  0  0  0  0  0  0  0
  146.2997  139.0880  153.9920 H   0  0  0  0  0  0  0  0  0  0  0  0
  147.5350  139.1799  152.7515 H   0  0  0  0  0  0  0  0  0  0  0  0
  145.3520  138.3935  151.8152 H   0  0  0  0  0  0  0  0  0  0  0  0
  146.6075  137.1909  151.5918 H   0  0  0  0  0  0  0  0  0  0  0  0
  146.6258  135.2898  153.0212 H   0  0  0  0  0  0  0  0  0  0  0  0
  145.5906  134.2360  155.1627 H   0  0  0  0  0  0  0  0  0  0  0  0
  144.2650  135.3529  154.9750 H   0  0  0  0  0  0  0  0  0  0  0  0
  144.0369  135.3060  151.9074 H   0  0  0  0  0  0  0  0  0  0  0  0
  142.7181  135.1566  153.0763 H   0  0  0  0  0  0  0  0  0  0  0  0
  142.9662  133.8994  151.8721 H   0  0  0  0  0  0  0  0  0  0  0  0
  146.0412  133.6299  152.1417 H   0  0  0  0  0  0  0  0  0  0  0  0
  144.8163  132.3628  152.0419 H   0  0  0  0  0  0  0  0  0  0  0  0
  145.9184  132.3994  153.4049 H   0  0  0  0  0  0  0  0  0  0  0  0
  147.5437  135.8171  155.2918 H   0  0  0  0  0  0  0  0  0  0  0  0
  146.2945  137.0248  155.5407 H   0  0  0  0  0  0  0  0  0  0  0  0
  152.5894  139.2255  157.7878 H   0  0  0  0  0  0  0  0  0  0  0  0
  153.8830  139.2210  159.7491 H   0  0  0  0  0  0  0  0  0  0  0  0
  153.1555  140.1081  161.0865 H   0  0  0  0  0  0  0  0  0  0  0  0
  154.5459  140.7822  160.2232 H   0  0  0  0  0  0  0  0  0  0  0  0
  143.7915  133.2730  153.9979 H   0  0  0  0  0  0  0  0  0  0  0  0
  148.3334  137.0486  153.4500 H   0  0  0  0  0  0  0  0  0  0  0  0
  149.6605  143.4845  156.2224 H   0  0  0  0  0  0  0  0  0  0  0  0
  1  2  1  0  0  0  0
  1 26  1  0  0  0  0
  1 27  1  0  0  0  0
  1 28  1  0  0  0  0
  2 24  1  0  0  0  0
  2  3  2  0  0  0  0
  3  4  1  0  0  0  0
  3 29  1  0  0  0  0
  4 22  2  0  0  0  0
  4  5  1  0  0  0  0
  5  6  2  0  0  0  0
  5 58  1  0  0  0  0
  6  7  1  0  0  0  0
  6 30  1  0  0  0  0
  7  8  1  0  0  0  0
  7 22  1  0  0  0  0
  8  9  1  0  0  0  0
  8 31  1  0  0  0  0
  8 32  1  0  0  0  0
  9 10  1  0  0  0  0
  9 11  1  0  0  0  0
  9 33  1  0  0  0  0
 10 34  1  0  0  0  0
 11 12  1  0  0  0  0
 11 35  1  0  0  0  0
 11 36  1  0  0  0  0
 12 21  1  0  0  0  0
 12 13  1  0  0  0  0
 12 57  1  0  0  0  0
 13 14  1  0  0  0  0
 13 37  1  0  0  0  0
 13 38  1  0  0  0  0
 14 15  1  0  0  0  0
 14 39  1  0  0  0  0
 14 40  1  0  0  0  0
 15 16  1  0  0  0  0
 16 17  1  0  0  0  0
 16 21  1  0  0  0  0
 16 41  1  0  0  0  0
 17 18  1  0  0  0  0
 17 42  1  0  0  0  0
 17 43  1  0  0  0  0
 18 19  1  0  0  0  0
 18 20  1  0  0  0  0
 18 56  1  0  0  0  0
 19 44  1  0  0  0  0
 19 45  1  0  0  0  0
 19 46  1  0  0  0  0
 20 47  1  0  0  0  0
 20 48  1  0  0  0  0
 20 49  1  0  0  0  0
 21 50  1  0  0  0  0
 21 51  1  0  0  0  0
 22 23  1  0  0  0  0
 23 24  2  0  0  0  0
 23 52  1  0  0  0  0
 24 25  1  0  0  0  0
 25 53  1  0  0  0  0
 25 54  1  0  0  0  0
 25 55  1  0  0  0  0
M  CHG  1   5   1
M  CHG  1  12   1
M  CHG  1  18   1
M  END
> <s_m_source_file>
AV-unprocessed.smi

> <i_m_source_file_index>
1005

> <i_lp_mmshare_version>
43012

> <i_f3d_flags>
0

> <s_epik_input>
W0NIM11jKFtjSF0xKWMoW0NIM10pW2NIXWMoYzEyKW4oW2NIXW4yKVtDSDJdW0NASF0oW09IXSlbQ0gyXU4zW0NIMl1bQ0gyXU9bQ0BIXShbQ0gyXTMpW0NIMl1OKFtDSDNdKVtDSDNd

> <s_epik_cmdline>
J2VwaWtfcHl0aG9uJywgJy1waCcsICc3LjAnLCAnLXRuJywgJzgnLCAnLW1hJywgJzIwMCcsICctbWV0YWxfYmluZGluZycsICctaW1hZScsICc8aW5maWxlLm1hZT4nLCAnLW9tYWUnLCAnPG91dGZpbGUubWFlPic=

> <r_epik_Ionization_Penalty>
2.30802

> <r_epik_Ionization_Penalty_Charging>
2.30798

> <r_epik_Ionization_Penalty_Neutral>
3.4851e-05

> <r_epik_State_Penalty>
2.52618

> <r_epik_Charging_Adjusted_Penalty>
4.83416

> <i_epik_Tot_Q>
3

> <i_epik_Tot_abs_Q>
3

> <r_epik_Metal_State_Penalty>
6.53149

> <b_epik_Metal_Only>
0

> <s_lp_Force_Field>
OPLS_2005

> <r_lp_Energy>
43.2019

> <b_lp_Chiralities_Consistent>
1

> <s_lp_Variant>
AV-unprocessed.smi:1005-24

> <Gold.Version>
5.8.1

> <Gold.Id.Protein>
6NUR|6NUR_protein|mol2

> <Gold.PLP.Fitness>
61.6294

> <Gold.PLP.PLP>
-42.2694

> <Gold.PLP.part.hbond>
-5.0296

> <Gold.PLP.part.metal>
0.0000

> <Gold.PLP.part.buried>
-4.9437

> <Gold.PLP.part.nonpolar>
-34.4244

> <Gold.PLP.part.repulsive>
0.2487

> <Gold.PLP.ligand.clash>
0.0000

> <Gold.PLP.ligand.torsion>
0.9035

> <Gold.PLP.Chemscore.Hbond>
6.9825

> <Gold.PLP.Chemscore.CHOScore>
0.0000

> <Gold.PLP.Chemscore.Metal>
0.0000

> <Gold.Chemscore.Hbonds>
donor molecule, donor type, donor heavy atom, donor atom, acceptor molecule, acceptor atom, score
      L1  H     5    58       P1  8028  2.00
      L1  H    10    34       P1  7948  1.00
      L1  H    12    57       P1  7948  2.00
      L1  H    18    56       P1 10957  1.95

> <Gold.PLP.Chemscore.Internal.Correction>
0.2196

> <Gold.Rescore>
     Score         DG    S(hbond)    S(metal)    S(lipo)     H(rot)  DE(clash)    DE(int)     intcor
     21.17     -23.60       3.58        0.00     108.72       2.56       0.15       2.28       ----

> <Gold.Chemscore.Fitness>
21.1713

> <Gold.Chemscore.DG>
-23.5990

> <Gold.Chemscore.ZeroCoef>
-5.4800

> <Gold.Chemscore.Hbond>
3.5761

> <Gold.Chemscore.Metal>
0.0000

> <Gold.Chemscore.Lipo>
108.7175

> <Gold.Chemscore.Internal_Hbond>
0.0000

> <Gold.Chemscore.DEClash>
0.1483

> <Gold.Chemscore.DEInternal>
2.2795

> <Gold.Chemscore.Rot>
2.5566

> <Gold.Chemscore.Internal.Correction>
   9.000000E+99

> <Gold.Chemscore.Hbonds>
donor molecule, donor type, donor heavy atom, donor atom, acceptor molecule, acceptor atom, score
      L1  H     5    58       P1  8028  0.96
      L1  H    10    34       P1  7948  0.44
      L1  H    12    57       P1  7948  1.00
      L1  H    18    56       P1 10957  0.92

> <Gold.Chemscore.Hbond.Weighted>
-11.9440

> <Gold.Chemscore.Metal.Weighted>
-0.0000

> <Gold.Chemscore.Lipo.Weighted>
-12.7199

> <Gold.Chemscore.Internal_Hbond.Weighted>
0.0000

> <Gold.Chemscore.DEClash.Weighted>
0.1483

> <Gold.Chemscore.DEInternal.Weighted>
2.2795

> <Gold.Chemscore.Rot.Weighted>
6.5450

> <Gold.Chemscore.Internal.Correction.Weighted>
   9.000000E+99

> <Gold.Protein.RotatedTorsions>
[ 6907 6896 6895 6894 ] final   89.05 input  -60.11 | X-H torsion
[ 7974 7965 7964 7962 ] final  -35.68 input  175.53 | X-H torsion
[ 8008 7997 7996 7995 ] final -132.14 input   59.86 | X-H torsion
[ 10167 10162 10161 10158 ] final -120.98 input  -65.29 | X-H torsion
[ 10718 10713 10712 10709 ] final  -28.76 input   66.30 | X-H torsion
[ 10763 10752 10751 10750 ] final  -20.66 input  -60.55 | X-H torsion
[ 11005 11000 10999 10996 ] final   79.80 input  -57.11 | X-H torsion

> <Gold.Protein.ActiveResidues>
 VAL166  LYS551  ARG553  GLY616  TRP617  ASP618  TYR619  PRO620  LYS621  CYS622 
 ASP623  PHE694  ASN695  SER759  ASP760  ASP761  ALA762  ILE779  LEU786  VAL792 
 PHE793  MET794  SER795  GLU796  ALA797  LYS798  CYS799  TRP800  GLU811  SER814 

> <Gold.Protein.RotatedAtoms>
  152.5432  134.2026  159.8718 H   0  0  0  0  0  0  0  0  0  0  0  0  # atno 6907 bound_to 6896
  151.2014  133.4602  159.2604 H   0  0  0  0  0  0  0  0  0  0  0  0  # atno 6908 bound_to 6896
  151.0985  134.9971  159.8493 H   0  0  0  0  0  0  0  0  0  0  0  0  # atno 6909 bound_to 6896
  146.0726  140.6188  142.8945 H   0  0  0  0  0  0  0  0  0  0  0  0  # atno 7974 bound_to 7965
  155.3239  140.0463  157.3040 H   0  0  0  0  0  0  0  0  0  0  0  0  # atno 8008 bound_to 7997
  154.5365  140.2274  155.8680 H   0  0  0  0  0  0  0  0  0  0  0  0  # atno 8009 bound_to 7997
  156.1840  140.3067  155.9208 H   0  0  0  0  0  0  0  0  0  0  0  0  # atno 8010 bound_to 7997
  140.0300  143.5258  152.2181 H   0  0  0  0  0  0  0  0  0  0  0  0  # atno 10167 bound_to 10162
  156.4211  130.4426  149.7183 H   0  0  0  0  0  0  0  0  0  0  0  0  # atno 10718 bound_to 10713
  153.6239  135.6991  153.5300 H   0  0  0  0  0  0  0  0  0  0  0  0  # atno 10763 bound_to 10752
  153.2915  135.4155  155.1170 H   0  0  0  0  0  0  0  0  0  0  0  0  # atno 10764 bound_to 10752
  154.8537  135.3626  154.5780 H   0  0  0  0  0  0  0  0  0  0  0  0  # atno 10765 bound_to 10752
  139.9159  134.7871  156.1826 H   0  0  0  0  0  0  0  0  0  0  0  0  # atno 11005 bound_to 11000
  144.7241  140.4468  143.6986 LP  0  0  0  0  0  0  0  0  0  0  0  0  # atno 17320 bound_to 7965
  145.6364  139.1543  143.2940 LP  0  0  0  0  0  0  0  0  0  0  0  0  # atno 17321 bound_to 7965
  139.6082  144.7602  151.3012 LP  0  0  0  0  0  0  0  0  0  0  0  0  # atno 17342 bound_to 10162
  140.7306  143.6875  150.7950 LP  0  0  0  0  0  0  0  0  0  0  0  0  # atno 17343 bound_to 10162
  156.4124  130.7728  151.2742 LP  0  0  0  0  0  0  0  0  0  0  0  0  # atno 17370 bound_to 10713
  157.7508  131.0207  150.3721 LP  0  0  0  0  0  0  0  0  0  0  0  0  # atno 17371 bound_to 10713
  141.0633  133.6831  156.1995 LP  0  0  0  0  0  0  0  0  0  0  0  0  # atno 17394 bound_to 11000
  140.6626  134.4952  157.5584 LP  0  0  0  0  0  0  0  0  0  0  0  0  # atno 17395 bound_to 11000

$$$$
