AV-unprocessed.smi:1677|AV-procd|sdf|6727|dock8
  -GOLD-   22720 7473D 1   1.00000     0.00000
 Structure written by MMmdl.
 36 37  0  0  0  0  0  0  0  0  1 V2000
  149.6474  138.3973  156.7009 C   0  0  0  0  0  0  0  0  0  0  0  0
  150.6905  139.3539  156.1003 C   0  0  1  0  0  0  0  0  0  0  0  0
  150.3997  139.7293  154.6312 C   0  0  0  0  0  0  0  0  0  0  0  0
  149.0771  140.2963  154.4478 N   0  0  0  0  0  0  0  0  0  0  0  0
  147.9663  139.6667  153.9019 C   0  0  0  0  0  0  0  0  0  0  0  0
  146.9417  140.5857  153.9267 C   0  0  0  0  0  0  0  0  0  0  0  0
  147.3974  141.7811  154.4779 N   0  0  0  0  0  0  0  0  0  0  0  0
  148.6704  141.5349  154.7592 C   0  0  0  0  0  0  0  0  0  0  0  0
  150.7591  140.5592  156.9211 N   0  0  0  0  0  0  0  0  0  0  0  0
  151.7657  140.8826  157.7482 C   0  0  0  0  0  0  0  0  0  0  0  0
  152.7695  140.1849  157.8962 O   0  0  0  0  0  0  0  0  0  0  0  0
  151.6158  142.1985  158.5231 C   0  0  1  0  0  0  0  0  0  0  0  0
  152.7667  142.3810  159.5384 C   0  0  0  0  0  0  0  0  0  0  0  0
  152.7807  143.7745  160.1417 C   0  0  0  0  0  0  0  0  0  0  0  0
  152.1126  144.8148  159.6143 C   0  0  0  0  0  0  0  0  0  0  0  0
  151.2734  144.7163  158.3525 C   0  0  0  0  0  0  0  0  0  0  0  0
  151.5386  143.4124  157.5750 C   0  0  0  0  0  0  0  0  0  0  0  0
  149.6263  137.4444  156.1717 H   0  0  0  0  0  0  0  0  0  0  0  0
  148.6452  138.8250  156.6580 H   0  0  0  0  0  0  0  0  0  0  0  0
  149.8720  138.1797  157.7456 H   0  0  0  0  0  0  0  0  0  0  0  0
  151.6567  138.8474  156.1438 H   0  0  0  0  0  0  0  0  0  0  0  0
  151.1380  140.4466  154.2694 H   0  0  0  0  0  0  0  0  0  0  0  0
  150.4795  138.8502  153.9901 H   0  0  0  0  0  0  0  0  0  0  0  0
  147.9968  138.6451  153.5523 H   0  0  0  0  0  0  0  0  0  0  0  0
  145.9201  140.4794  153.5923 H   0  0  0  0  0  0  0  0  0  0  0  0
  149.3211  142.2713  155.2077 H   0  0  0  0  0  0  0  0  0  0  0  0
  149.9765  141.1943  156.8606 H   0  0  0  0  0  0  0  0  0  0  0  0
  150.6776  142.1590  159.0801 H   0  0  0  0  0  0  0  0  0  0  0  0
  152.6653  141.6542  160.3453 H   0  0  0  0  0  0  0  0  0  0  0  0
  153.7380  142.2060  159.0735 H   0  0  0  0  0  0  0  0  0  0  0  0
  153.3745  143.9138  161.0333 H   0  0  0  0  0  0  0  0  0  0  0  0
  152.1514  145.7791  160.0996 H   0  0  0  0  0  0  0  0  0  0  0  0
  150.2235  144.7769  158.6404 H   0  0  0  0  0  0  0  0  0  0  0  0
  151.4786  145.5768  157.7154 H   0  0  0  0  0  0  0  0  0  0  0  0
  152.4794  143.5094  157.0301 H   0  0  0  0  0  0  0  0  0  0  0  0
  150.7617  143.2690  156.8228 H   0  0  0  0  0  0  0  0  0  0  0  0
  1  2  1  0  0  0  0
  1 18  1  0  0  0  0
  1 19  1  0  0  0  0
  1 20  1  0  0  0  0
  2  3  1  0  0  0  0
  2  9  1  0  0  0  0
  2 21  1  0  0  0  0
  3  4  1  0  0  0  0
  3 22  1  0  0  0  0
  3 23  1  0  0  0  0
  4  8  1  0  0  0  0
  4  5  1  0  0  0  0
  5  6  2  0  0  0  0
  5 24  1  0  0  0  0
  6  7  1  0  0  0  0
  6 25  1  0  0  0  0
  7  8  2  0  0  0  0
  8 26  1  0  0  0  0
  9 10  1  0  0  0  0
  9 27  1  0  0  0  0
 10 11  2  0  0  0  0
 10 12  1  0  0  0  0
 12 17  1  0  0  0  0
 12 13  1  0  0  0  0
 12 28  1  0  0  0  0
 13 14  1  0  0  0  0
 13 29  1  0  0  0  0
 13 30  1  0  0  0  0
 14 15  2  0  0  0  0
 14 31  1  0  0  0  0
 15 16  1  0  0  0  0
 15 32  1  0  0  0  0
 16 17  1  0  0  0  0
 16 33  1  0  0  0  0
 16 34  1  0  0  0  0
 17 35  1  0  0  0  0
 17 36  1  0  0  0  0
M  END
> <s_m_source_file>
AV-unprocessed.smi

> <i_m_source_file_index>
1677

> <i_lp_mmshare_version>
43012

> <i_f3d_flags>
0

> <s_epik_input>
W2NIXTFuW2NIXVtjSF1uMVtDSDJdW0NAQEhdKFtDSDNdKVtOSF1DKD1PKVtDQEBIXTJbQ0gyXVtDSF09W0NIXVtDSDJdW0NIMl0y

> <s_epik_cmdline>
J2VwaWtfcHl0aG9uJywgJy1waCcsICc3LjAnLCAnLXRuJywgJzgnLCAnLW1hJywgJzIwMCcsICctbWV0YWxfYmluZGluZycsICctaW1hZScsICc8aW5maWxlLm1hZT4nLCAnLW9tYWUnLCAnPG91dGZpbGUubWFlPic=

> <r_lp_tautomer_probability>
1

> <r_epik_Ionization_Penalty>
0.640435

> <r_epik_Ionization_Penalty_Charging>
0.640435

> <r_epik_Ionization_Penalty_Neutral>
2.11108e-08

> <r_epik_State_Penalty>
0.658069

> <r_epik_Charging_Adjusted_Penalty>
1.2985

> <i_epik_Tot_Q>
0

> <i_epik_Tot_abs_Q>
0

> <r_epik_Metal_State_Penalty>
0.311689

> <b_epik_Metal_Only>
0

> <s_lp_Force_Field>
OPLS_2005

> <r_lp_Energy>
10.2331

> <b_lp_Chiralities_Consistent>
1

> <s_lp_Variant>
AV-unprocessed.smi:1677-8

> <Gold.Version>
5.8.1

> <Gold.Id.Protein>
6NUR|6NUR_protein|mol2

> <Gold.PLP.Fitness>
43.9902

> <Gold.PLP.PLP>
-35.8796

> <Gold.PLP.part.hbond>
-1.0000

> <Gold.PLP.part.metal>
0.0000

> <Gold.PLP.part.buried>
-1.7105

> <Gold.PLP.part.nonpolar>
-32.4862

> <Gold.PLP.part.repulsive>
0.2053

> <Gold.PLP.ligand.clash>
0.0000

> <Gold.PLP.ligand.torsion>
0.3605

> <Gold.PLP.Chemscore.Hbond>
1.0000

> <Gold.PLP.Chemscore.CHOScore>
1.9323

> <Gold.PLP.Chemscore.Metal>
0.0000

> <Gold.Chemscore.Hbonds>
donor molecule, donor type, donor heavy atom, donor atom, acceptor molecule, acceptor atom, score
      P1  H  7997  8010       L1    11  1.00
      L1  C     6    25       P1 10175  1.00
      L1  C     8    26       P1  8028  0.97

> <Gold.PLP.Chemscore.Internal.Correction>
0.0348

> <Gold.Rescore>
     Score         DG    S(hbond)    S(metal)    S(lipo)     H(rot)  DE(clash)    DE(int)     intcor
     14.76     -15.46       0.96        0.00      96.15       1.75       0.33       0.36       ----

> <Gold.Chemscore.Fitness>
14.7640

> <Gold.Chemscore.DG>
-15.4609

> <Gold.Chemscore.ZeroCoef>
-5.4800

> <Gold.Chemscore.Hbond>
0.9597

> <Gold.Chemscore.Metal>
0.0000

> <Gold.Chemscore.Lipo>
96.1459

> <Gold.Chemscore.Internal_Hbond>
0.0000

> <Gold.Chemscore.DEClash>
0.3322

> <Gold.Chemscore.DEInternal>
0.3647

> <Gold.Chemscore.Rot>
1.7475

> <Gold.Chemscore.Internal.Correction>
   9.000000E+99

> <Gold.Chemscore.Hbonds>
donor molecule, donor type, donor heavy atom, donor atom, acceptor molecule, acceptor atom, score
      P1  H  7997  8010       L1    11  0.91

> <Gold.Chemscore.Hbond.Weighted>
-3.2054

> <Gold.Chemscore.Metal.Weighted>
-0.0000

> <Gold.Chemscore.Lipo.Weighted>
-11.2491

> <Gold.Chemscore.Internal_Hbond.Weighted>
0.0000

> <Gold.Chemscore.DEClash.Weighted>
0.3322

> <Gold.Chemscore.DEInternal.Weighted>
0.3647

> <Gold.Chemscore.Rot.Weighted>
4.4735

> <Gold.Chemscore.Internal.Correction.Weighted>
   9.000000E+99

> <Gold.Protein.RotatedTorsions>
[ 6907 6896 6895 6894 ] final  149.27 input  -60.11 | X-H torsion
[ 7974 7965 7964 7962 ] final  116.30 input  175.53 | X-H torsion
[ 8008 7997 7996 7995 ] final   45.25 input   59.86 | X-H torsion
[ 10167 10162 10161 10158 ] final -101.83 input  -65.29 | X-H torsion
[ 10718 10713 10712 10709 ] final -129.57 input   66.30 | X-H torsion
[ 10763 10752 10751 10750 ] final   95.31 input  -60.55 | X-H torsion
[ 11005 11000 10999 10996 ] final   83.35 input  -57.11 | X-H torsion

> <Gold.Protein.ActiveResidues>
 VAL166  LYS551  ARG553  GLY616  TRP617  ASP618  TYR619  PRO620  LYS621  CYS622 
 ASP623  PHE694  ASN695  SER759  ASP760  ASP761  ALA762  ILE779  LEU786  VAL792 
 PHE793  MET794  SER795  GLU796  ALA797  LYS798  CYS799  TRP800  GLU811  SER814 

> <Gold.Protein.RotatedAtoms>
  152.1303  133.4404  159.4717 H   0  0  0  0  0  0  0  0  0  0  0  0  # atno 6907 bound_to 6896
  150.6878  134.2428  159.4488 H   0  0  0  0  0  0  0  0  0  0  0  0  # atno 6908 bound_to 6896
  152.0312  134.9766  160.0623 H   0  0  0  0  0  0  0  0  0  0  0  0  # atno 6909 bound_to 6896
  145.1813  139.3048  143.4416 H   0  0  0  0  0  0  0  0  0  0  0  0  # atno 7974 bound_to 7965
  155.3327  140.3403  155.4239 H   0  0  0  0  0  0  0  0  0  0  0  0  # atno 8008 bound_to 7997
  156.1853  140.1678  156.8233 H   0  0  0  0  0  0  0  0  0  0  0  0  # atno 8009 bound_to 7997
  154.5379  140.0731  156.8443 H   0  0  0  0  0  0  0  0  0  0  0  0  # atno 8010 bound_to 7997
  140.2371  143.3565  152.0835 H   0  0  0  0  0  0  0  0  0  0  0  0  # atno 10167 bound_to 10162
  156.2059  130.6887  151.0594 H   0  0  0  0  0  0  0  0  0  0  0  0  # atno 10718 bound_to 10713
  153.2517  135.4258  155.0804 H   0  0  0  0  0  0  0  0  0  0  0  0  # atno 10763 bound_to 10752
  154.8384  135.3427  154.6503 H   0  0  0  0  0  0  0  0  0  0  0  0  # atno 10764 bound_to 10752
  153.6924  135.7033  153.5143 H   0  0  0  0  0  0  0  0  0  0  0  0  # atno 10765 bound_to 10752
  139.9034  134.8138  156.2298 H   0  0  0  0  0  0  0  0  0  0  0  0  # atno 11005 bound_to 11000
  146.3452  140.1993  142.8589 LP  0  0  0  0  0  0  0  0  0  0  0  0  # atno 17320 bound_to 7965
  145.0133  140.8733  143.5211 LP  0  0  0  0  0  0  0  0  0  0  0  0  # atno 17321 bound_to 7965
  139.5090  144.6859  151.5888 LP  0  0  0  0  0  0  0  0  0  0  0  0  # atno 17342 bound_to 10162
  140.6141  143.9381  150.6475 LP  0  0  0  0  0  0  0  0  0  0  0  0  # atno 17343 bound_to 10162
  157.7012  131.0775  150.6814 LP  0  0  0  0  0  0  0  0  0  0  0  0  # atno 17370 bound_to 10713
  156.6872  130.4584  149.5610 LP  0  0  0  0  0  0  0  0  0  0  0  0  # atno 17371 bound_to 10713
  141.0353  133.6967  156.1501 LP  0  0  0  0  0  0  0  0  0  0  0  0  # atno 17394 bound_to 11000
  140.7037  134.4537  157.5585 LP  0  0  0  0  0  0  0  0  0  0  0  0  # atno 17395 bound_to 11000

$$$$
