AV-unprocessed.smi:146|AV-procd|sdf|1199|dock5
  -GOLD-   2262018363D 1   1.00000     0.00000
 Structure written by MMmdl.
 55 59  0  0  0  0  0  0  0  0  1 V2000
  150.9163  145.2791  159.5308 C   0  0  0  0  0  0  0  0  0  0  0  0
  151.5482  144.0484  158.8621 C   0  0  0  0  0  0  0  0  0  0  0  0
  152.6723  144.5191  157.9163 C   0  0  0  0  0  0  0  0  0  0  0  0
  152.0908  143.0963  159.9453 C   0  0  0  0  0  0  0  0  0  0  0  0
  152.4269  141.8020  159.3679 N   0  0  0  0  0  0  0  0  0  0  0  0
  153.2599  141.0343  160.1157 C   0  0  0  0  0  0  0  0  0  0  0  0
  153.6159  141.4356  161.3657 N   0  0  0  0  0  0  0  0  0  0  0  0
  154.4501  140.6953  162.1015 C   0  0  0  0  0  0  0  0  0  0  0  0
  155.0354  139.5380  161.7885 N   0  0  0  0  0  0  0  0  0  0  0  0
  154.6724  139.1210  160.5418 C   0  0  0  0  0  0  0  0  0  0  0  0
  153.7981  139.8014  159.6475 C   0  0  0  0  0  0  0  0  0  0  0  0
  153.6628  139.0697  158.4737 N   0  0  0  0  0  0  0  0  0  0  0  0
  154.4267  138.0280  158.6564 C   0  0  0  0  0  0  0  0  0  0  0  0
  155.0627  137.9708  159.8766 N   0  0  0  0  0  0  0  0  0  0  0  0
  155.9748  136.9361  160.3452 C   0  0  0  0  0  0  0  0  0  0  0  0
  155.5513  136.2386  161.6608 C   0  0  0  0  0  0  0  0  0  0  0  0
  156.2987  134.9011  161.7530 C   0  0  0  0  0  0  0  0  0  0  0  0
  155.8353  134.1263  162.8403 O   0  0  0  0  0  0  0  0  0  0  0  0
  155.5128  137.0866  162.9445 C   0  0  0  0  0  0  0  0  0  0  0  0
  154.0811  137.2477  162.8579 O   0  0  0  0  0  0  0  0  0  0  0  0
  154.0370  136.1560  161.9156 C   0  0  0  0  0  0  0  0  0  0  0  0
  151.2773  141.1688  158.7339 C   0  0  0  0  0  0  0  0  0  0  0  0
  150.6664  142.0886  157.6507 C   0  0  2  0  0  0  0  0  0  0  0  0
  149.2969  141.5734  157.2241 C   0  0  0  0  0  0  0  0  0  0  0  0
  149.6266  140.6106  156.0945 C   0  0  0  0  0  0  0  0  0  0  0  0
  150.6465  141.2928  155.3879 O   0  0  0  0  0  0  0  0  0  0  0  0
  151.4331  142.0417  156.3106 C   0  0  0  0  0  0  0  0  0  0  0  0
  150.4706  143.4188  158.1519 O   0  0  0  0  0  0  0  0  0  0  0  0
  151.6477  145.8296  160.1235 H   0  0  0  0  0  0  0  0  0  0  0  0
  150.1012  144.9923  160.1962 H   0  0  0  0  0  0  0  0  0  0  0  0
  150.5071  145.9653  158.7886 H   0  0  0  0  0  0  0  0  0  0  0  0
  153.4048  145.1226  158.4532 H   0  0  0  0  0  0  0  0  0  0  0  0
  152.2761  145.1293  157.1043 H   0  0  0  0  0  0  0  0  0  0  0  0
  153.2198  143.6871  157.4758 H   0  0  0  0  0  0  0  0  0  0  0  0
  152.9414  143.5557  160.4475 H   0  0  0  0  0  0  0  0  0  0  0  0
  151.3330  142.9361  160.7137 H   0  0  0  0  0  0  0  0  0  0  0  0
  154.6830  141.0875  163.0805 H   0  0  0  0  0  0  0  0  0  0  0  0
  154.5466  137.2694  157.8974 H   0  0  0  0  0  0  0  0  0  0  0  0
  156.0770  136.2001  159.5470 H   0  0  0  0  0  0  0  0  0  0  0  0
  156.9588  137.3943  160.4476 H   0  0  0  0  0  0  0  0  0  0  0  0
  156.1611  134.3138  160.8446 H   0  0  0  0  0  0  0  0  0  0  0  0
  157.3726  135.0570  161.8613 H   0  0  0  0  0  0  0  0  0  0  0  0
  156.4806  134.1594  163.5300 H   0  0  0  0  0  0  0  0  0  0  0  0
  155.8007  136.5371  163.8424 H   0  0  0  0  0  0  0  0  0  0  0  0
  156.0515  138.0315  162.8896 H   0  0  0  0  0  0  0  0  0  0  0  0
  153.4167  136.3673  161.0459 H   0  0  0  0  0  0  0  0  0  0  0  0
  153.7170  135.2284  162.3931 H   0  0  0  0  0  0  0  0  0  0  0  0
  151.5609  140.2109  158.2959 H   0  0  0  0  0  0  0  0  0  0  0  0
  150.5358  140.9591  159.5065 H   0  0  0  0  0  0  0  0  0  0  0  0
  148.7307  141.1077  158.0314 H   0  0  0  0  0  0  0  0  0  0  0  0
  148.6931  142.3915  156.8279 H   0  0  0  0  0  0  0  0  0  0  0  0
  150.0140  139.6673  156.4819 H   0  0  0  0  0  0  0  0  0  0  0  0
  148.7690  140.3962  155.4566 H   0  0  0  0  0  0  0  0  0  0  0  0
  151.5671  143.0363  155.8864 H   0  0  0  0  0  0  0  0  0  0  0  0
  152.4194  141.5893  156.4190 H   0  0  0  0  0  0  0  0  0  0  0  0
  1  2  1  0  0  0  0
  1 29  1  0  0  0  0
  1 30  1  0  0  0  0
  1 31  1  0  0  0  0
  2 28  1  0  0  0  0
  2  3  1  0  0  0  0
  2  4  1  0  0  0  0
  3 32  1  0  0  0  0
  3 33  1  0  0  0  0
  3 34  1  0  0  0  0
  4  5  1  0  0  0  0
  4 35  1  0  0  0  0
  4 36  1  0  0  0  0
  5  6  1  0  0  0  0
  5 22  1  0  0  0  0
  6 11  1  0  0  0  0
  6  7  2  0  0  0  0
  7  8  1  0  0  0  0
  8  9  2  0  0  0  0
  8 37  1  0  0  0  0
  9 10  1  0  0  0  0
 10 14  1  0  0  0  0
 10 11  2  0  0  0  0
 11 12  1  0  0  0  0
 12 13  2  0  0  0  0
 13 14  1  0  0  0  0
 13 38  1  0  0  0  0
 14 15  1  0  0  0  0
 15 16  1  0  0  0  0
 15 39  1  0  0  0  0
 15 40  1  0  0  0  0
 16 21  1  0  0  0  0
 16 17  1  0  0  0  0
 16 19  1  0  0  0  0
 17 18  1  0  0  0  0
 17 41  1  0  0  0  0
 17 42  1  0  0  0  0
 18 43  1  0  0  0  0
 19 20  1  0  0  0  0
 19 44  1  0  0  0  0
 19 45  1  0  0  0  0
 20 21  1  0  0  0  0
 21 46  1  0  0  0  0
 21 47  1  0  0  0  0
 22 23  1  0  0  0  0
 22 48  1  0  0  0  0
 22 49  1  0  0  0  0
 23 27  1  0  0  0  0
 23 24  1  0  0  0  0
 23 28  1  0  0  0  0
 24 25  1  0  0  0  0
 24 50  1  0  0  0  0
 24 51  1  0  0  0  0
 25 26  1  0  0  0  0
 25 52  1  0  0  0  0
 25 53  1  0  0  0  0
 26 27  1  0  0  0  0
 27 54  1  0  0  0  0
 27 55  1  0  0  0  0
M  END
> <s_m_source_file>
AV-unprocessed.smi

> <i_m_source_file_index>
146

> <i_lp_mmshare_version>
43012

> <i_f3d_flags>
0

> <s_epik_input>
W0NIMl0xT1tDSDJdW0NIMl1bQ0BAXTEyW0NIMl1OKFtDSDJdQyhPMikoW0NIM10pW0NIM10pYyhuW2NIXW4zKWMoYzM0KW5bY0hdbjRbQ0gyXUM1KFtDSDJdW09IXSlbQ0gyXU9bQ0gyXTU=

> <s_epik_cmdline>
J2VwaWtfcHl0aG9uJywgJy1waCcsICc3LjAnLCAnLXRuJywgJzgnLCAnLW1hJywgJzIwMCcsICctbWV0YWxfYmluZGluZycsICctaW1hZScsICc8aW5maWxlLm1hZT4nLCAnLW9tYWUnLCAnPG91dGZpbGUubWFlPic=

> <r_lp_tautomer_probability>
1

> <r_epik_Ionization_Penalty>
0.00353822

> <r_epik_Ionization_Penalty_Charging>
0

> <r_epik_Ionization_Penalty_Neutral>
0.00353822

> <r_epik_State_Penalty>
0.0023805

> <r_epik_Charging_Adjusted_Penalty>
0.0023805

> <i_epik_Tot_Q>
0

> <i_epik_Tot_abs_Q>
0

> <r_epik_Metal_State_Penalty>
-0

> <b_epik_Metal_Only>
0

> <s_lp_Force_Field>
OPLS_2005

> <r_lp_Energy>
56.8345

> <b_lp_Chiralities_Consistent>
1

> <s_lp_Variant>
AV-unprocessed.smi:146-1

> <Gold.Version>
5.8.1

> <Gold.Id.Protein>
6NUR|6NUR_protein|mol2

> <Gold.PLP.Fitness>
41.1936

> <Gold.PLP.PLP>
-38.3910

> <Gold.PLP.part.hbond>
-2.0000

> <Gold.PLP.part.metal>
0.0000

> <Gold.PLP.part.buried>
-6.5897

> <Gold.PLP.part.nonpolar>
-29.5189

> <Gold.PLP.part.repulsive>
0.2410

> <Gold.PLP.ligand.clash>
0.0000

> <Gold.PLP.ligand.torsion>
0.5448

> <Gold.PLP.Chemscore.Hbond>
1.0964

> <Gold.PLP.Chemscore.CHOScore>
0.0000

> <Gold.PLP.Chemscore.Metal>
0.0000

> <Gold.Chemscore.Hbonds>
donor molecule, donor type, donor heavy atom, donor atom, acceptor molecule, acceptor atom, score
      P1  H  7989  7998       L1    26  0.39
      P1  H  7997  8010       L1    12  0.80

> <Gold.PLP.Chemscore.Internal.Correction>
0.6031

> <Gold.Rescore>
     Score         DG    S(hbond)    S(metal)    S(lipo)     H(rot)  DE(clash)    DE(int)     intcor
     10.41     -11.42       0.34        0.00      94.45       2.44       0.35       0.66       ----

> <Gold.Chemscore.Fitness>
10.4090

> <Gold.Chemscore.DG>
-11.4156

> <Gold.Chemscore.ZeroCoef>
-5.4800

> <Gold.Chemscore.Hbond>
0.3368

> <Gold.Chemscore.Metal>
0.0000

> <Gold.Chemscore.Lipo>
94.4517

> <Gold.Chemscore.Internal_Hbond>
0.0000

> <Gold.Chemscore.DEClash>
0.3500

> <Gold.Chemscore.DEInternal>
0.6566

> <Gold.Chemscore.Rot>
2.4376

> <Gold.Chemscore.Internal.Correction>
   9.000000E+99

> <Gold.Chemscore.Hbonds>
donor molecule, donor type, donor heavy atom, donor atom, acceptor molecule, acceptor atom, score
      P1  H  7989  7998       L1    26  0.35
      P1  H  7997  8010       L1    12  0.04

> <Gold.Chemscore.Hbond.Weighted>
-1.1249

> <Gold.Chemscore.Metal.Weighted>
-0.0000

> <Gold.Chemscore.Lipo.Weighted>
-11.0509

> <Gold.Chemscore.Internal_Hbond.Weighted>
0.0000

> <Gold.Chemscore.DEClash.Weighted>
0.3500

> <Gold.Chemscore.DEInternal.Weighted>
0.6566

> <Gold.Chemscore.Rot.Weighted>
6.2402

> <Gold.Chemscore.Internal.Correction.Weighted>
   9.000000E+99

> <Gold.Protein.RotatedTorsions>
[ 6907 6896 6895 6894 ] final  -40.18 input  -60.11 | X-H torsion
[ 7974 7965 7964 7962 ] final  179.09 input  175.53 | X-H torsion
[ 8008 7997 7996 7995 ] final   12.65 input   59.86 | X-H torsion
[ 10167 10162 10161 10158 ] final   13.37 input  -65.29 | X-H torsion
[ 10718 10713 10712 10709 ] final  166.89 input   66.30 | X-H torsion
[ 10763 10752 10751 10750 ] final  -27.87 input  -60.55 | X-H torsion
[ 11005 11000 10999 10996 ] final -105.72 input  -57.11 | X-H torsion

> <Gold.Protein.ActiveResidues>
 VAL166  LYS551  ARG553  GLY616  TRP617  ASP618  TYR619  PRO620  LYS621  CYS622 
 ASP623  PHE694  ASN695  SER759  ASP760  ASP761  ALA762  ILE779  LEU786  VAL792 
 PHE793  MET794  SER795  GLU796  ALA797  LYS798  CYS799  TRP800  GLU811  SER814 

> <Gold.Protein.RotatedAtoms>
  150.9815  134.9169  159.7846 H   0  0  0  0  0  0  0  0  0  0  0  0  # atno 6907 bound_to 6896
  152.5223  134.3404  159.9225 H   0  0  0  0  0  0  0  0  0  0  0  0  # atno 6908 bound_to 6896
  151.3411  133.3921  159.2706 H   0  0  0  0  0  0  0  0  0  0  0  0  # atno 6909 bound_to 6896
  144.7149  140.0495  143.6435 H   0  0  0  0  0  0  0  0  0  0  0  0  # atno 7974 bound_to 7965
  154.8235  140.2888  155.5770 H   0  0  0  0  0  0  0  0  0  0  0  0  # atno 8008 bound_to 7997
  156.3000  140.2545  156.3078 H   0  0  0  0  0  0  0  0  0  0  0  0  # atno 8009 bound_to 7997
  154.9311  140.0383  157.2038 H   0  0  0  0  0  0  0  0  0  0  0  0  # atno 8010 bound_to 7997
  140.6007  143.8610  150.6962 H   0  0  0  0  0  0  0  0  0  0  0  0  # atno 10167 bound_to 10162
  157.0593  131.0335  151.2652 H   0  0  0  0  0  0  0  0  0  0  0  0  # atno 10718 bound_to 10713
  153.7391  135.6933  153.4971 H   0  0  0  0  0  0  0  0  0  0  0  0  # atno 10763 bound_to 10752
  153.2082  135.4412  155.0346 H   0  0  0  0  0  0  0  0  0  0  0  0  # atno 10764 bound_to 10752
  154.8227  135.3430  154.6917 H   0  0  0  0  0  0  0  0  0  0  0  0  # atno 10765 bound_to 10752
  141.1039  133.8832  157.1769 H   0  0  0  0  0  0  0  0  0  0  0  0  # atno 11005 bound_to 11000
  145.9956  139.3049  143.0959 LP  0  0  0  0  0  0  0  0  0  0  0  0  # atno 17320 bound_to 7965
  145.8853  140.9337  143.0580 LP  0  0  0  0  0  0  0  0  0  0  0  0  # atno 17321 bound_to 7965
  140.2155  143.3850  152.1684 LP  0  0  0  0  0  0  0  0  0  0  0  0  # atno 17342 bound_to 10162
  139.5289  144.7136  151.5127 LP  0  0  0  0  0  0  0  0  0  0  0  0  # atno 17343 bound_to 10162
  157.4967  130.7855  149.7563 LP  0  0  0  0  0  0  0  0  0  0  0  0  # atno 17370 bound_to 10713
  155.9983  130.3895  150.2706 LP  0  0  0  0  0  0  0  0  0  0  0  0  # atno 17371 bound_to 10713
  139.9902  135.0067  156.9956 LP  0  0  0  0  0  0  0  0  0  0  0  0  # atno 17394 bound_to 11000
  140.4951  134.1154  155.7240 LP  0  0  0  0  0  0  0  0  0  0  0  0  # atno 17395 bound_to 11000

$$$$
