AV-unprocessed.smi:855|AV-procd|sdf|3956|dock6
  -GOLD-   22720 1423D 1   1.00000     0.00000
 Structure written by MMmdl.
 36 37  0  0  0  0  0  0  0  0  2 V2000
  153.4892  138.1518  157.1632 C   0  0  0  0  0  0  0  0  0  0  0  0
  152.5177  138.6613  156.1543 C   0  0  0  0  0  0  0  0  0  0  0  0
  151.4871  138.0732  155.4761 C   0  0  0  0  0  0  0  0  0  0  0  0
  150.9830  139.1343  154.6780 C   0  0  0  0  0  0  0  0  0  0  0  0
  149.8805  138.9320  153.8090 N   0  0  0  0  0  0  0  0  0  0  0  0
  148.5920  138.7579  154.1493 C   0  0  0  0  0  0  0  0  0  0  0  0
  148.1552  138.7515  155.3007 O   0  0  0  0  0  0  0  0  0  0  0  0
  147.8182  138.5852  153.0678 N   0  0  0  0  0  0  0  0  0  0  0  0
  146.3738  138.3865  153.1009 C   0  0  0  0  0  0  0  0  0  0  0  0
  145.9381  137.2145  152.2013 C   0  0  0  0  0  0  0  0  0  0  0  0
  146.4254  135.9135  152.7148 N   0  3  0  0  0  0  0  0  0  0  0  0
  146.2042  135.6802  154.1629 C   0  0  0  0  0  0  0  0  0  0  0  0
  145.7330  134.2273  154.3148 C   0  0  0  0  0  0  0  0  0  0  0  0
  146.0421  133.5790  152.9693 C   0  0  0  0  0  0  0  0  0  0  0  0
  145.8949  134.7403  151.9918 C   0  0  0  0  0  0  0  0  0  0  0  0
  151.6471  140.2668  154.8510 N   0  0  0  0  0  0  0  0  0  0  0  0
  152.6349  139.9691  155.7972 O   0  0  0  0  0  0  0  0  0  0  0  0
  153.0955  137.2714  157.6715 H   0  0  0  0  0  0  0  0  0  0  0  0
  153.7003  138.9097  157.9178 H   0  0  0  0  0  0  0  0  0  0  0  0
  154.4302  137.8759  156.6875 H   0  0  0  0  0  0  0  0  0  0  0  0
  151.1503  137.0494  155.5442 H   0  0  0  0  0  0  0  0  0  0  0  0
  150.0978  138.9161  152.8235 H   0  0  0  0  0  0  0  0  0  0  0  0
  148.2569  138.6062  152.1585 H   0  0  0  0  0  0  0  0  0  0  0  0
  146.0462  138.2217  154.1288 H   0  0  0  0  0  0  0  0  0  0  0  0
  145.9057  139.3142  152.7719 H   0  0  0  0  0  0  0  0  0  0  0  0
  144.8522  137.1894  152.0981 H   0  0  0  0  0  0  0  0  0  0  0  0
  146.3443  137.3585  151.1989 H   0  0  0  0  0  0  0  0  0  0  0  0
  147.1419  135.8477  154.6934 H   0  0  0  0  0  0  0  0  0  0  0  0
  145.4620  136.3628  154.5796 H   0  0  0  0  0  0  0  0  0  0  0  0
  146.2137  133.7136  155.1480 H   0  0  0  0  0  0  0  0  0  0  0  0
  144.6564  134.2081  154.4905 H   0  0  0  0  0  0  0  0  0  0  0  0
  147.0698  133.2129  152.9599 H   0  0  0  0  0  0  0  0  0  0  0  0
  145.3820  132.7422  152.7387 H   0  0  0  0  0  0  0  0  0  0  0  0
  144.8390  134.8941  151.7615 H   0  0  0  0  0  0  0  0  0  0  0  0
  146.4253  134.5707  151.0542 H   0  0  0  0  0  0  0  0  0  0  0  0
  147.4254  135.8928  152.5734 H   0  0  0  0  0  0  0  0  0  0  0  0
  1  2  1  0  0  0  0
  1 18  1  0  0  0  0
  1 19  1  0  0  0  0
  1 20  1  0  0  0  0
  2 17  1  0  0  0  0
  2  3  2  0  0  0  0
  3  4  1  0  0  0  0
  3 21  1  0  0  0  0
  4  5  1  0  0  0  0
  4 16  2  0  0  0  0
  5  6  1  0  0  0  0
  5 22  1  0  0  0  0
  6  7  2  0  0  0  0
  6  8  1  0  0  0  0
  8  9  1  0  0  0  0
  8 23  1  0  0  0  0
  9 10  1  0  0  0  0
  9 24  1  0  0  0  0
  9 25  1  0  0  0  0
 10 11  1  0  0  0  0
 10 26  1  0  0  0  0
 10 27  1  0  0  0  0
 11 15  1  0  0  0  0
 11 12  1  0  0  0  0
 11 36  1  0  0  0  0
 12 13  1  0  0  0  0
 12 28  1  0  0  0  0
 12 29  1  0  0  0  0
 13 14  1  0  0  0  0
 13 30  1  0  0  0  0
 13 31  1  0  0  0  0
 14 15  1  0  0  0  0
 14 32  1  0  0  0  0
 14 33  1  0  0  0  0
 15 34  1  0  0  0  0
 15 35  1  0  0  0  0
 16 17  1  0  0  0  0
M  CHG  1  11   1
M  END
> <s_m_source_file>
AV-unprocessed.smi

> <i_m_source_file_index>
855

> <i_lp_mmshare_version>
43012

> <i_f3d_flags>
0

> <s_epik_input>
W0NIM11jMVtjSF1jKG5vMSlbTkhdQyg9TylbTkhdW0NIMl1bQ0gyXU4yW0NIMl1bQ0gyXVtDSDJdW0NIMl0y

> <s_epik_cmdline>
J2VwaWtfcHl0aG9uJywgJy1waCcsICc3LjAnLCAnLXRuJywgJzgnLCAnLW1hJywgJzIwMCcsICctbWV0YWxfYmluZGluZycsICctaW1hZScsICc8aW5maWxlLm1hZT4nLCAnLW9tYWUnLCAnPG91dGZpbGUubWFlPic=

> <r_epik_Ionization_Penalty>
0.00243703

> <r_epik_Ionization_Penalty_Charging>
0.00240122

> <r_epik_Ionization_Penalty_Neutral>
3.58091e-05

> <r_epik_State_Penalty>
0.00166069

> <r_epik_Charging_Adjusted_Penalty>
0.00406191

> <i_epik_Tot_Q>
1

> <i_epik_Tot_abs_Q>
1

> <r_epik_Metal_State_Penalty>
0.021664

> <b_epik_Metal_Only>
0

> <s_lp_Force_Field>
OPLS_2005

> <r_lp_Energy>
23.058

> <b_lp_Chiralities_Consistent>
1

> <s_lp_Variant>
AV-unprocessed.smi:855-1

> <Gold.Version>
5.8.1

> <Gold.Id.Protein>
6NUR|6NUR_protein|mol2

> <Gold.PLP.Fitness>
42.7093

> <Gold.PLP.PLP>
-26.7160

> <Gold.PLP.part.hbond>
-6.0000

> <Gold.PLP.part.metal>
0.0000

> <Gold.PLP.part.buried>
-2.9997

> <Gold.PLP.part.nonpolar>
-18.7437

> <Gold.PLP.part.repulsive>
0.3242

> <Gold.PLP.ligand.clash>
0.0000

> <Gold.PLP.ligand.torsion>
0.8196

> <Gold.PLP.Chemscore.Hbond>
5.8720

> <Gold.PLP.Chemscore.CHOScore>
0.0000

> <Gold.PLP.Chemscore.Metal>
0.0000

> <Gold.Chemscore.Hbonds>
donor molecule, donor type, donor heavy atom, donor atom, acceptor molecule, acceptor atom, score
      L1  H     5    22       P1  7957  0.72
      L1  H     8    23       P1  7957  0.42
      L1  H    11    36       P1  7948  2.00
      P1  H  7989  7998       L1    16  0.84
      P1  H  7997  8010       L1    17  0.80

> <Gold.PLP.Chemscore.Internal.Correction>
0.0165

> <Gold.Rescore>
     Score         DG    S(hbond)    S(metal)    S(lipo)     H(rot)  DE(clash)    DE(int)     intcor
     20.11     -20.73       4.31        0.00      42.35       1.60       0.08       0.55       ----

> <Gold.Chemscore.Fitness>
20.1056

> <Gold.Chemscore.DG>
-20.7347

> <Gold.Chemscore.ZeroCoef>
-5.4800

> <Gold.Chemscore.Hbond>
4.3117

> <Gold.Chemscore.Metal>
0.0000

> <Gold.Chemscore.Lipo>
42.3457

> <Gold.Chemscore.Internal_Hbond>
0.0000

> <Gold.Chemscore.DEClash>
0.0805

> <Gold.Chemscore.DEInternal>
0.5486

> <Gold.Chemscore.Rot>
1.6019

> <Gold.Chemscore.Internal.Correction>
   9.000000E+99

> <Gold.Chemscore.Hbonds>
donor molecule, donor type, donor heavy atom, donor atom, acceptor molecule, acceptor atom, score
      L1  H     5    22       P1  7957  0.45
      L1  H     8    23       P1  7957  0.40
      L1  H    11    36       P1  7948  0.99
      P1  H  7989  7998       L1    16  0.35
      P1  H  7997  8010       L1    17  0.12

> <Gold.Chemscore.Hbond.Weighted>
-14.4012

> <Gold.Chemscore.Metal.Weighted>
-0.0000

> <Gold.Chemscore.Lipo.Weighted>
-4.9544

> <Gold.Chemscore.Internal_Hbond.Weighted>
0.0000

> <Gold.Chemscore.DEClash.Weighted>
0.0805

> <Gold.Chemscore.DEInternal.Weighted>
0.5486

> <Gold.Chemscore.Rot.Weighted>
4.1009

> <Gold.Chemscore.Internal.Correction.Weighted>
   9.000000E+99

> <Gold.Protein.RotatedTorsions>
[ 6907 6896 6895 6894 ] final   76.16 input  -60.11 | X-H torsion
[ 7974 7965 7964 7962 ] final  -95.08 input  175.53 | X-H torsion
[ 8008 7997 7996 7995 ] final   80.24 input   59.86 | X-H torsion
[ 10167 10162 10161 10158 ] final   15.37 input  -65.29 | X-H torsion
[ 10718 10713 10712 10709 ] final  -48.99 input   66.30 | X-H torsion
[ 10763 10752 10751 10750 ] final  -25.22 input  -60.55 | X-H torsion
[ 11005 11000 10999 10996 ] final  -95.19 input  -57.11 | X-H torsion

> <Gold.Protein.ActiveResidues>
 VAL166  LYS551  ARG553  GLY616  TRP617  ASP618  TYR619  PRO620  LYS621  CYS622 
 ASP623  PHE694  ASN695  SER759  ASP760  ASP761  ALA762  ILE779  LEU786  VAL792 
 PHE793  MET794  SER795  GLU796  ALA797  LYS798  CYS799  TRP800  GLU811  SER814 

> <Gold.Protein.RotatedAtoms>
  152.5060  134.4011  159.9416 H   0  0  0  0  0  0  0  0  0  0  0  0  # atno 6907 bound_to 6896
  151.3975  133.3762  159.2736 H   0  0  0  0  0  0  0  0  0  0  0  0  # atno 6908 bound_to 6896
  150.9386  134.8818  159.7657 H   0  0  0  0  0  0  0  0  0  0  0  0  # atno 6909 bound_to 6896
  145.3648  140.9497  143.2480 H   0  0  0  0  0  0  0  0  0  0  0  0  # atno 7974 bound_to 7965
  155.8807  140.3444  155.5886 H   0  0  0  0  0  0  0  0  0  0  0  0  # atno 8008 bound_to 7997
  155.7723  140.0847  157.2121 H   0  0  0  0  0  0  0  0  0  0  0  0  # atno 8009 bound_to 7997
  154.4024  140.1516  156.2943 H   0  0  0  0  0  0  0  0  0  0  0  0  # atno 8010 bound_to 7997
  140.5872  143.8867  150.6840 H   0  0  0  0  0  0  0  0  0  0  0  0  # atno 10167 bound_to 10162
  156.1935  130.4153  149.9339 H   0  0  0  0  0  0  0  0  0  0  0  0  # atno 10718 bound_to 10713
  153.6963  135.6959  153.5075 H   0  0  0  0  0  0  0  0  0  0  0  0  # atno 10763 bound_to 10752
  153.2375  135.4317  155.0661 H   0  0  0  0  0  0  0  0  0  0  0  0  # atno 10764 bound_to 10752
  154.8357  135.3499  154.6504 H   0  0  0  0  0  0  0  0  0  0  0  0  # atno 10765 bound_to 10752
  141.1449  133.8008  157.0401 H   0  0  0  0  0  0  0  0  0  0  0  0  # atno 11005 bound_to 11000
  144.8620  139.5164  143.6808 LP  0  0  0  0  0  0  0  0  0  0  0  0  # atno 17320 bound_to 7965
  146.2911  139.7143  142.9160 LP  0  0  0  0  0  0  0  0  0  0  0  0  # atno 17321 bound_to 7965
  140.2381  143.3684  152.1510 LP  0  0  0  0  0  0  0  0  0  0  0  0  # atno 17342 bound_to 10162
  139.5205  144.7033  151.5429 LP  0  0  0  0  0  0  0  0  0  0  0  0  # atno 17343 bound_to 10162
  156.7071  130.8956  151.3605 LP  0  0  0  0  0  0  0  0  0  0  0  0  # atno 17370 bound_to 10713
  157.6943  130.9266  150.0601 LP  0  0  0  0  0  0  0  0  0  0  0  0  # atno 17371 bound_to 10713
  140.0698  134.9708  157.1448 LP  0  0  0  0  0  0  0  0  0  0  0  0  # atno 17394 bound_to 11000
  140.3727  134.2373  155.7176 LP  0  0  0  0  0  0  0  0  0  0  0  0  # atno 17395 bound_to 11000

$$$$
