AV-unprocessed.smi:270|AV-procd|sdf|2046|dock4
  -GOLD-   2262021273D 1   1.00000     0.00000
 Structure written by MMmdl.
 54 57  0  0  0  0  0  0  0  0  1 V2000
  148.2333  137.7638  155.8905 C   0  0  0  0  0  0  0  0  0  0  0  0
  149.7010  138.2250  155.8649 C   0  0  1  0  0  0  0  0  0  0  0  0
  150.5480  137.1387  155.4935 O   0  0  0  0  0  0  0  0  0  0  0  0
  151.2162  137.4414  154.2789 C   0  0  0  0  0  0  0  0  0  0  0  0
  151.3674  138.9557  154.3154 C   0  0  0  0  0  0  0  0  0  0  0  0
  150.0463  139.4067  154.9212 C   0  0  1  0  0  0  0  0  0  0  0  0
  149.0960  139.5144  153.8730 O   0  0  0  0  0  0  0  0  0  0  0  0
  150.1612  140.7801  155.6255 C   0  0  0  0  0  0  0  0  0  0  0  0
  151.1475  140.8039  156.6940 N   0  0  0  0  0  0  0  0  0  0  0  0
  151.9645  139.7676  157.0848 C   0  0  0  0  0  0  0  0  0  0  0  0
  152.7639  140.0352  158.0803 N   0  0  0  0  0  0  0  0  0  0  0  0
  152.4868  141.3603  158.3964 C   0  0  0  0  0  0  0  0  0  0  0  0
  152.9952  142.2666  159.3723 C   0  0  0  0  0  0  0  0  0  0  0  0
  154.0123  141.9332  160.3134 N   0  0  0  0  0  0  0  0  0  0  0  0
  154.5198  140.5707  160.2412 C   0  0  0  0  0  0  0  0  0  0  0  0
  154.4449  140.5405  161.7708 C   0  0  0  0  0  0  0  0  0  0  0  0
  155.6986  140.7224  162.4107 O   0  0  0  0  0  0  0  0  0  0  0  0
  155.7155  140.2144  163.7357 C   0  0  0  0  0  0  0  0  0  0  0  0
  155.4929  141.3727  164.7148 C   0  0  0  0  0  0  0  0  0  0  0  0
  155.2612  142.4904  164.2516 O   0  0  0  0  0  0  0  0  0  0  0  0
  155.5455  141.1338  166.0463 N   0  0  0  0  0  0  0  0  0  0  0  0
  155.2892  142.1631  167.0577 C   0  0  0  0  0  0  0  0  0  0  0  0
  155.8497  139.7938  166.5547 C   0  0  0  0  0  0  0  0  0  0  0  0
  153.6297  141.8332  161.7172 C   0  0  0  0  0  0  0  0  0  0  0  0
  152.4867  143.5279  159.3429 N   0  0  0  0  0  0  0  0  0  0  0  0
  151.5406  143.8723  158.4645 C   0  0  0  0  0  0  0  0  0  0  0  0
  150.9668  143.1242  157.5219 N   0  0  0  0  0  0  0  0  0  0  0  0
  151.4798  141.8617  157.5224 C   0  0  0  0  0  0  0  0  0  0  0  0
  147.5643  138.5812  156.1592 H   0  0  0  0  0  0  0  0  0  0  0  0
  148.0925  136.9682  156.6222 H   0  0  0  0  0  0  0  0  0  0  0  0
  147.9177  137.3751  154.9220 H   0  0  0  0  0  0  0  0  0  0  0  0
  149.9959  138.4833  156.8822 H   0  0  0  0  0  0  0  0  0  0  0  0
  152.1721  136.9222  154.2072 H   0  0  0  0  0  0  0  0  0  0  0  0
  150.5934  137.1337  153.4377 H   0  0  0  0  0  0  0  0  0  0  0  0
  152.1960  139.2144  154.9764 H   0  0  0  0  0  0  0  0  0  0  0  0
  151.5745  139.3903  153.3366 H   0  0  0  0  0  0  0  0  0  0  0  0
  149.5550  139.7014  153.0685 H   0  0  0  0  0  0  0  0  0  0  0  0
  150.4311  141.5515  154.9032 H   0  0  0  0  0  0  0  0  0  0  0  0
  149.1962  141.0763  156.0390 H   0  0  0  0  0  0  0  0  0  0  0  0
  151.9442  138.7971  156.6107 H   0  0  0  0  0  0  0  0  0  0  0  0
  153.8280  139.8719  159.7685 H   0  0  0  0  0  0  0  0  0  0  0  0
  155.5270  140.5079  159.8285 H   0  0  0  0  0  0  0  0  0  0  0  0
  153.8698  139.7023  162.1676 H   0  0  0  0  0  0  0  0  0  0  0  0
  154.9176  139.4796  163.8567 H   0  0  0  0  0  0  0  0  0  0  0  0
  156.6533  139.7043  163.9587 H   0  0  0  0  0  0  0  0  0  0  0  0
  156.0762  142.9179  167.0458 H   0  0  0  0  0  0  0  0  0  0  0  0
  155.2478  141.7523  168.0668 H   0  0  0  0  0  0  0  0  0  0  0  0
  154.3335  142.6584  166.8848 H   0  0  0  0  0  0  0  0  0  0  0  0
  154.9744  139.1499  166.4651 H   0  0  0  0  0  0  0  0  0  0  0  0
  156.1511  139.8054  167.6023 H   0  0  0  0  0  0  0  0  0  0  0  0
  156.6685  139.3329  165.9996 H   0  0  0  0  0  0  0  0  0  0  0  0
  154.0241  142.6414  162.3335 H   0  0  0  0  0  0  0  0  0  0  0  0
  152.5654  141.6603  161.8841 H   0  0  0  0  0  0  0  0  0  0  0  0
  151.1951  144.8938  158.5264 H   0  0  0  0  0  0  0  0  0  0  0  0
  1  2  1  0  0  0  0
  1 29  1  0  0  0  0
  1 30  1  0  0  0  0
  1 31  1  0  0  0  0
  2  6  1  0  0  0  0
  2  3  1  0  0  0  0
  2 32  1  0  0  0  0
  3  4  1  0  0  0  0
  4  5  1  0  0  0  0
  4 33  1  0  0  0  0
  4 34  1  0  0  0  0
  5  6  1  0  0  0  0
  5 35  1  0  0  0  0
  5 36  1  0  0  0  0
  6  7  1  0  0  0  0
  6  8  1  0  0  0  0
  7 37  1  0  0  0  0
  8  9  1  0  0  0  0
  8 38  1  0  0  0  0
  8 39  1  0  0  0  0
  9 28  1  0  0  0  0
  9 10  1  0  0  0  0
 10 11  2  0  0  0  0
 10 40  1  0  0  0  0
 11 12  1  0  0  0  0
 12 28  2  0  0  0  0
 12 13  1  0  0  0  0
 13 14  1  0  0  0  0
 13 25  2  0  0  0  0
 14 24  1  0  0  0  0
 14 15  1  0  0  0  0
 15 16  1  0  0  0  0
 15 41  1  0  0  0  0
 15 42  1  0  0  0  0
 16 17  1  0  0  0  0
 16 24  1  0  0  0  0
 16 43  1  0  0  0  0
 17 18  1  0  0  0  0
 18 19  1  0  0  0  0
 18 44  1  0  0  0  0
 18 45  1  0  0  0  0
 19 20  2  0  0  0  0
 19 21  1  0  0  0  0
 21 22  1  0  0  0  0
 21 23  1  0  0  0  0
 22 46  1  0  0  0  0
 22 47  1  0  0  0  0
 22 48  1  0  0  0  0
 23 49  1  0  0  0  0
 23 50  1  0  0  0  0
 23 51  1  0  0  0  0
 24 52  1  0  0  0  0
 24 53  1  0  0  0  0
 25 26  1  0  0  0  0
 26 27  2  0  0  0  0
 26 54  1  0  0  0  0
 27 28  1  0  0  0  0
M  END
> <s_m_source_file>
AV-unprocessed.smi

> <i_m_source_file_index>
270

> <i_lp_mmshare_version>
43012

> <i_f3d_flags>
0

> <s_epik_input>
W0NIMl0xW0NIMl1PW0NAQEhdKFtDSDNdKVtDQEBdMShbT0hdKVtDSDJdbihbY0hdbjIpYyhjMjMpbltjSF1uYzNONFtDSDJdW0NIXShbQ0gyXTQpT1tDSDJdQyg9TylOKFtDSDNdKVtDSDNd

> <s_epik_cmdline>
J2VwaWtfcHl0aG9uJywgJy1waCcsICc3LjAnLCAnLXRuJywgJzgnLCAnLW1hJywgJzIwMCcsICctbWV0YWxfYmluZGluZycsICctaW1hZScsICc8aW5maWxlLm1hZT4nLCAnLW9tYWUnLCAnPG91dGZpbGUubWFlPic=

> <r_lp_tautomer_probability>
1

> <r_epik_Ionization_Penalty>
0.00375854

> <r_epik_Ionization_Penalty_Charging>
0

> <r_epik_Ionization_Penalty_Neutral>
0.00375854

> <r_epik_State_Penalty>
-0

> <r_epik_Charging_Adjusted_Penalty>
0

> <i_epik_Tot_Q>
0

> <i_epik_Tot_abs_Q>
0

> <r_epik_Metal_State_Penalty>
-0

> <b_epik_Metal_Only>
0

> <s_lp_Force_Field>
OPLS_2005

> <r_lp_Energy>
55.1289

> <b_lp_Chiralities_Consistent>
1

> <s_lp_Variant>
AV-unprocessed.smi:270-2

> <Gold.Version>
5.8.1

> <Gold.Id.Protein>
6NUR|6NUR_protein|mol2

> <Gold.PLP.Fitness>
52.7012

> <Gold.PLP.PLP>
-50.7937

> <Gold.PLP.part.hbond>
-3.9056

> <Gold.PLP.part.metal>
0.0000

> <Gold.PLP.part.buried>
-7.5767

> <Gold.PLP.part.nonpolar>
-39.0490

> <Gold.PLP.part.repulsive>
0.2171

> <Gold.PLP.ligand.clash>
1.7965

> <Gold.PLP.ligand.torsion>
0.8086

> <Gold.PLP.Chemscore.Hbond>
1.6630

> <Gold.PLP.Chemscore.CHOScore>
0.0000

> <Gold.PLP.Chemscore.Metal>
0.0000

> <Gold.Chemscore.Hbonds>
donor molecule, donor type, donor heavy atom, donor atom, acceptor molecule, acceptor atom, score
      L1  H     7    37       P1  7957  1.00
      P1  H  7997  8010       L1    11  0.76

> <Gold.PLP.Chemscore.Internal.Correction>
0.3323

> <Gold.Rescore>
     Score         DG    S(hbond)    S(metal)    S(lipo)     H(rot)  DE(clash)    DE(int)     intcor
      3.65     -10.65       0.97        0.00      84.68       3.12       2.48       4.51       ----

> <Gold.Chemscore.Fitness>
3.6541

> <Gold.Chemscore.DG>
-10.6463

> <Gold.Chemscore.ZeroCoef>
-5.4800

> <Gold.Chemscore.Hbond>
0.9744

> <Gold.Chemscore.Metal>
0.0000

> <Gold.Chemscore.Lipo>
84.6806

> <Gold.Chemscore.Internal_Hbond>
0.0000

> <Gold.Chemscore.DEClash>
2.4828

> <Gold.Chemscore.DEInternal>
4.5093

> <Gold.Chemscore.Rot>
3.1234

> <Gold.Chemscore.Internal.Correction>
   9.000000E+99

> <Gold.Chemscore.Hbonds>
donor molecule, donor type, donor heavy atom, donor atom, acceptor molecule, acceptor atom, score
      L1  H     7    37       P1  7957  0.96
      P1  H  7997  8010       L1    11  0.09

> <Gold.Chemscore.Hbond.Weighted>
-3.2545

> <Gold.Chemscore.Metal.Weighted>
-0.0000

> <Gold.Chemscore.Lipo.Weighted>
-9.9076

> <Gold.Chemscore.Internal_Hbond.Weighted>
0.0000

> <Gold.Chemscore.DEClash.Weighted>
2.4828

> <Gold.Chemscore.DEInternal.Weighted>
4.5093

> <Gold.Chemscore.Rot.Weighted>
7.9959

> <Gold.Chemscore.Internal.Correction.Weighted>
   9.000000E+99

> <Gold.Protein.RotatedTorsions>
[ 6907 6896 6895 6894 ] final  -81.59 input  -60.11 | X-H torsion
[ 7974 7965 7964 7962 ] final  168.75 input  175.53 | X-H torsion
[ 8008 7997 7996 7995 ] final   33.40 input   59.86 | X-H torsion
[ 10167 10162 10161 10158 ] final  145.09 input  -65.29 | X-H torsion
[ 10718 10713 10712 10709 ] final -123.29 input   66.30 | X-H torsion
[ 10763 10752 10751 10750 ] final  -42.45 input  -60.55 | X-H torsion
[ 11005 11000 10999 10996 ] final  178.67 input  -57.11 | X-H torsion

> <Gold.Protein.ActiveResidues>
 VAL166  LYS551  ARG553  GLY616  TRP617  ASP618  TYR619  PRO620  LYS621  CYS622 
 ASP623  PHE694  ASN695  SER759  ASP760  ASP761  ALA762  ILE779  LEU786  VAL792 
 PHE793  MET794  SER795  GLU796  ALA797  LYS798  CYS799  TRP800  GLU811  SER814 

> <Gold.Protein.RotatedAtoms>
  150.6909  134.3794  159.5027 H   0  0  0  0  0  0  0  0  0  0  0  0  # atno 6907 bound_to 6896
  152.1598  134.8918  160.0551 H   0  0  0  0  0  0  0  0  0  0  0  0  # atno 6908 bound_to 6896
  151.9984  133.3781  159.4209 H   0  0  0  0  0  0  0  0  0  0  0  0  # atno 6909 bound_to 6896
  144.7378  139.8953  143.6406 H   0  0  0  0  0  0  0  0  0  0  0  0  # atno 7974 bound_to 7965
  155.1381  140.3263  155.4458 H   0  0  0  0  0  0  0  0  0  0  0  0  # atno 8008 bound_to 7997
  156.2613  140.1998  156.6447 H   0  0  0  0  0  0  0  0  0  0  0  0  # atno 8009 bound_to 7997
  154.6563  140.0552  156.9999 H   0  0  0  0  0  0  0  0  0  0  0  0  # atno 8010 bound_to 7997
  139.4933  144.5926  151.6649 H   0  0  0  0  0  0  0  0  0  0  0  0  # atno 10167 bound_to 10162
  156.1489  130.6520  150.9884 H   0  0  0  0  0  0  0  0  0  0  0  0  # atno 10718 bound_to 10713
  153.9792  135.6719  153.4749 H   0  0  0  0  0  0  0  0  0  0  0  0  # atno 10763 bound_to 10752
  153.0756  135.4950  154.8394 H   0  0  0  0  0  0  0  0  0  0  0  0  # atno 10764 bound_to 10752
  154.7174  135.3110  154.9063 H   0  0  0  0  0  0  0  0  0  0  0  0  # atno 10765 bound_to 10752
  140.3977  134.6805  157.4544 H   0  0  0  0  0  0  0  0  0  0  0  0  # atno 11005 bound_to 11000
  146.1111  139.4116  143.0287 LP  0  0  0  0  0  0  0  0  0  0  0  0  # atno 17320 bound_to 7965
  145.7441  140.9997  143.1285 LP  0  0  0  0  0  0  0  0  0  0  0  0  # atno 17321 bound_to 7965
  140.5557  144.0352  150.6146 LP  0  0  0  0  0  0  0  0  0  0  0  0  # atno 17342 bound_to 10162
  140.3421  143.3013  152.0577 LP  0  0  0  0  0  0  0  0  0  0  0  0  # atno 17343 bound_to 10162
  157.6640  131.0875  150.7771 LP  0  0  0  0  0  0  0  0  0  0  0  0  # atno 17370 bound_to 10713
  156.7841  130.4869  149.5396 LP  0  0  0  0  0  0  0  0  0  0  0  0  # atno 17371 bound_to 10713
  140.0359  134.6338  155.9044 LP  0  0  0  0  0  0  0  0  0  0  0  0  # atno 17394 bound_to 11000
  141.1868  133.6558  156.5255 LP  0  0  0  0  0  0  0  0  0  0  0  0  # atno 17395 bound_to 11000

$$$$
