AV-unprocessed.smi:2162|AV-procd|sdf|8802|dock2
  -GOLD-   2272011583D 1   1.00000     0.00000
 Structure written by MMmdl.
 41 42  0  0  0  0  0  0  0  0  1 V2000
  152.3708  143.6836  161.8663 C   0  0  0  0  0  0  0  0  0  0  0  0
  151.8393  143.7772  160.4772 C   0  0  0  0  0  0  0  0  0  0  0  0
  151.0782  142.8369  159.9111 N   0  0  0  0  0  0  0  0  0  0  0  0
  150.7064  143.1611  158.6028 C   0  0  0  0  0  0  0  0  0  0  0  0
  149.8389  142.2227  157.8146 C   0  0  0  0  0  0  0  0  0  0  0  0
  150.5737  141.5456  156.6444 C   0  0  0  0  0  0  0  0  0  0  0  0
  151.0651  140.2220  157.0143 N   0  0  0  0  0  0  0  0  0  0  0  0
  151.6463  139.3452  156.1834 C   0  0  0  0  0  0  0  0  0  0  0  0
  151.8342  139.5666  154.9867 O   0  0  0  0  0  0  0  0  0  0  0  0
  152.0801  138.0063  156.8012 C   0  0  2  0  0  0  0  0  0  0  0  0
  150.9146  137.3148  157.5325 C   0  0  0  0  0  0  0  0  0  0  0  0
  151.2900  137.4209  159.0013 C   0  0  0  0  0  0  0  0  0  0  0  0
  150.5249  137.0879  159.9053 O   0  0  0  0  0  0  0  0  0  0  0  0
  152.5189  137.9319  159.1540 N   0  0  0  0  0  0  0  0  0  0  0  0
  153.1645  138.2297  160.4398 C   0  0  0  0  0  0  0  0  0  0  0  0
  153.5384  139.7189  160.5119 C   0  0  0  0  0  0  0  0  0  0  0  0
  154.3749  137.3213  160.7226 C   0  0  0  0  0  0  0  0  0  0  0  0
  153.1725  138.1835  157.8757 C   0  0  0  0  0  0  0  0  0  0  0  0
  151.2039  144.3697  158.1828 C   0  0  0  0  0  0  0  0  0  0  0  0
  152.1540  145.1465  159.4186 S   0  0  0  0  0  0  0  0  0  0  0  0
  152.0790  142.7394  162.3276 H   0  0  0  0  0  0  0  0  0  0  0  0
  151.9804  144.5030  162.4700 H   0  0  0  0  0  0  0  0  0  0  0  0
  153.4591  143.7448  161.8534 H   0  0  0  0  0  0  0  0  0  0  0  0
  149.4426  141.4502  158.4748 H   0  0  0  0  0  0  0  0  0  0  0  0
  148.9676  142.7545  157.4306 H   0  0  0  0  0  0  0  0  0  0  0  0
  149.9099  141.4983  155.7798 H   0  0  0  0  0  0  0  0  0  0  0  0
  151.4319  142.1502  156.3486 H   0  0  0  0  0  0  0  0  0  0  0  0
  150.9576  139.9552  157.9823 H   0  0  0  0  0  0  0  0  0  0  0  0
  152.4536  137.3551  156.0086 H   0  0  0  0  0  0  0  0  0  0  0  0
  149.9437  137.7785  157.3498 H   0  0  0  0  0  0  0  0  0  0  0  0
  150.8435  136.2636  157.2521 H   0  0  0  0  0  0  0  0  0  0  0  0
  152.4390  138.0334  161.2311 H   0  0  0  0  0  0  0  0  0  0  0  0
  153.9837  139.9650  161.4760 H   0  0  0  0  0  0  0  0  0  0  0  0
  152.6611  140.3541  160.3849 H   0  0  0  0  0  0  0  0  0  0  0  0
  154.2564  139.9846  159.7354 H   0  0  0  0  0  0  0  0  0  0  0  0
  154.7737  137.5092  161.7198 H   0  0  0  0  0  0  0  0  0  0  0  0
  155.1856  137.4892  160.0129 H   0  0  0  0  0  0  0  0  0  0  0  0
  154.0974  136.2679  160.6763 H   0  0  0  0  0  0  0  0  0  0  0  0
  153.9720  137.4570  157.7244 H   0  0  0  0  0  0  0  0  0  0  0  0
  153.6219  139.1780  157.8606 H   0  0  0  0  0  0  0  0  0  0  0  0
  151.0658  144.8502  157.2255 H   0  0  0  0  0  0  0  0  0  0  0  0
  1  2  1  0  0  0  0
  1 21  1  0  0  0  0
  1 22  1  0  0  0  0
  1 23  1  0  0  0  0
  2 20  1  0  0  0  0
  2  3  2  0  0  0  0
  3  4  1  0  0  0  0
  4  5  1  0  0  0  0
  4 19  2  0  0  0  0
  5  6  1  0  0  0  0
  5 24  1  0  0  0  0
  5 25  1  0  0  0  0
  6  7  1  0  0  0  0
  6 26  1  0  0  0  0
  6 27  1  0  0  0  0
  7  8  1  0  0  0  0
  7 28  1  0  0  0  0
  8  9  2  0  0  0  0
  8 10  1  0  0  0  0
 10 18  1  0  0  0  0
 10 11  1  0  0  0  0
 10 29  1  0  0  0  0
 11 12  1  0  0  0  0
 11 30  1  0  0  0  0
 11 31  1  0  0  0  0
 12 13  2  0  0  0  0
 12 14  1  0  0  0  0
 14 15  1  0  0  0  0
 14 18  1  0  0  0  0
 15 16  1  0  0  0  0
 15 17  1  0  0  0  0
 15 32  1  0  0  0  0
 16 33  1  0  0  0  0
 16 34  1  0  0  0  0
 16 35  1  0  0  0  0
 17 36  1  0  0  0  0
 17 37  1  0  0  0  0
 17 38  1  0  0  0  0
 18 39  1  0  0  0  0
 18 40  1  0  0  0  0
 19 20  1  0  0  0  0
 19 41  1  0  0  0  0
M  END
> <s_m_source_file>
AV-unprocessed.smi

> <i_m_source_file_index>
2162

> <i_lp_mmshare_version>
43012

> <i_f3d_flags>
0

> <s_epik_input>
W0NIM11jMW5jKFtjSF1zMSlbQ0gyXVtDSDJdW05IXUMoPU8pW0NAQEhdMltDSDJdQyg9TylOKFtDSDJdMilbQ0hdKFtDSDNdKVtDSDNd

> <s_epik_cmdline>
J2VwaWtfcHl0aG9uJywgJy1waCcsICc3LjAnLCAnLXRuJywgJzgnLCAnLW1hJywgJzIwMCcsICctbWV0YWxfYmluZGluZycsICctaW1hZScsICc8aW5maWxlLm1hZT4nLCAnLW9tYWUnLCAnPG91dGZpbGUubWFlPic=

> <r_epik_Ionization_Penalty>
0.000973993

> <r_epik_Ionization_Penalty_Charging>
0

> <r_epik_Ionization_Penalty_Neutral>
0.000973993

> <r_epik_State_Penalty>
0.000633765

> <r_epik_Charging_Adjusted_Penalty>
0.000633765

> <i_epik_Tot_Q>
0

> <i_epik_Tot_abs_Q>
0

> <r_epik_Metal_State_Penalty>
-0

> <b_epik_Metal_Only>
0

> <s_lp_Force_Field>
OPLS_2005

> <r_lp_Energy>
15.0968

> <b_lp_Chiralities_Consistent>
1

> <s_lp_Variant>
AV-unprocessed.smi:2162-1

> <Gold.Version>
5.8.1

> <Gold.Id.Protein>
6NUR|6NUR_protein|mol2

> <Gold.PLP.Fitness>
45.4259

> <Gold.PLP.PLP>
-37.8457

> <Gold.PLP.part.hbond>
-2.7450

> <Gold.PLP.part.metal>
0.0000

> <Gold.PLP.part.buried>
-5.8913

> <Gold.PLP.part.nonpolar>
-28.5408

> <Gold.PLP.part.repulsive>
0.1371

> <Gold.PLP.ligand.clash>
0.0000

> <Gold.PLP.ligand.torsion>
0.4561

> <Gold.PLP.Chemscore.Hbond>
1.8695

> <Gold.PLP.Chemscore.CHOScore>
0.9361

> <Gold.PLP.Chemscore.Metal>
0.0000

> <Gold.Chemscore.Hbonds>
donor molecule, donor type, donor heavy atom, donor atom, acceptor molecule, acceptor atom, score
      P1  H  6896  6908       L1    13  0.52
      P1  H  7989  7998       L1     9  1.00
      L1  C    19    41       P1  8028  0.68

> <Gold.PLP.Chemscore.Internal.Correction>
0.0757

> <Gold.Rescore>
     Score         DG    S(hbond)    S(metal)    S(lipo)     H(rot)  DE(clash)    DE(int)     intcor
     18.98     -19.23       1.95        0.00      98.13       1.66       0.00       0.25       ----

> <Gold.Chemscore.Fitness>
18.9826

> <Gold.Chemscore.DG>
-19.2341

> <Gold.Chemscore.ZeroCoef>
-5.4800

> <Gold.Chemscore.Hbond>
1.9518

> <Gold.Chemscore.Metal>
0.0000

> <Gold.Chemscore.Lipo>
98.1257

> <Gold.Chemscore.Internal_Hbond>
0.0000

> <Gold.Chemscore.DEClash>
0.0021

> <Gold.Chemscore.DEInternal>
0.2493

> <Gold.Chemscore.Rot>
1.6585

> <Gold.Chemscore.Internal.Correction>
   9.000000E+99

> <Gold.Chemscore.Hbonds>
donor molecule, donor type, donor heavy atom, donor atom, acceptor molecule, acceptor atom, score
      P1  H  6896  6908       L1    13  0.04
      P1  H  7989  7998       L1     9  0.93

> <Gold.Chemscore.Hbond.Weighted>
-6.5190

> <Gold.Chemscore.Metal.Weighted>
-0.0000

> <Gold.Chemscore.Lipo.Weighted>
-11.4807

> <Gold.Chemscore.Internal_Hbond.Weighted>
0.0000

> <Gold.Chemscore.DEClash.Weighted>
0.0021

> <Gold.Chemscore.DEInternal.Weighted>
0.2493

> <Gold.Chemscore.Rot.Weighted>
4.2457

> <Gold.Chemscore.Internal.Correction.Weighted>
   9.000000E+99

> <Gold.Protein.RotatedTorsions>
[ 6907 6896 6895 6894 ] final -139.81 input  -60.11 | X-H torsion
[ 7974 7965 7964 7962 ] final  -59.38 input  175.53 | X-H torsion
[ 8008 7997 7996 7995 ] final -160.15 input   59.86 | X-H torsion
[ 10167 10162 10161 10158 ] final  -78.16 input  -65.29 | X-H torsion
[ 10718 10713 10712 10709 ] final  174.20 input   66.30 | X-H torsion
[ 10763 10752 10751 10750 ] final   33.10 input  -60.55 | X-H torsion
[ 11005 11000 10999 10996 ] final   39.06 input  -57.11 | X-H torsion

> <Gold.Protein.ActiveResidues>
 VAL166  LYS551  ARG553  GLY616  TRP617  ASP618  TYR619  PRO620  LYS621  CYS622 
 ASP623  PHE694  ASN695  SER759  ASP760  ASP761  ALA762  ILE779  LEU786  VAL792 
 PHE793  MET794  SER795  GLU796  ALA797  LYS798  CYS799  TRP800  GLU811  SER814 

> <Gold.Protein.RotatedAtoms>
  151.0526  133.5611  159.2640 H   0  0  0  0  0  0  0  0  0  0  0  0  # atno 6907 bound_to 6896
  151.2617  135.0655  159.9110 H   0  0  0  0  0  0  0  0  0  0  0  0  # atno 6908 bound_to 6896
  152.5384  134.0270  159.8061 H   0  0  0  0  0  0  0  0  0  0  0  0  # atno 6909 bound_to 6896
  145.8282  140.8497  143.0097 H   0  0  0  0  0  0  0  0  0  0  0  0  # atno 7974 bound_to 7965
  155.7732  140.0855  157.2097 H   0  0  0  0  0  0  0  0  0  0  0  0  # atno 8008 bound_to 7997
  154.3995  140.1521  156.3023 H   0  0  0  0  0  0  0  0  0  0  0  0  # atno 8009 bound_to 7997
  155.8726  140.3424  155.5835 H   0  0  0  0  0  0  0  0  0  0  0  0  # atno 8010 bound_to 7997
  140.4707  143.2427  151.8209 H   0  0  0  0  0  0  0  0  0  0  0  0  # atno 10167 bound_to 10162
  156.9531  131.0037  151.2944 H   0  0  0  0  0  0  0  0  0  0  0  0  # atno 10718 bound_to 10713
  153.0228  135.6396  154.1459 H   0  0  0  0  0  0  0  0  0  0  0  0  # atno 10763 bound_to 10752
  154.1191  135.2848  155.3214 H   0  0  0  0  0  0  0  0  0  0  0  0  # atno 10764 bound_to 10752
  154.6276  135.5503  153.7707 H   0  0  0  0  0  0  0  0  0  0  0  0  # atno 10765 bound_to 10752
  140.2065  134.3807  155.8070 H   0  0  0  0  0  0  0  0  0  0  0  0  # atno 11005 bound_to 11000
  144.6742  140.0633  143.7475 LP  0  0  0  0  0  0  0  0  0  0  0  0  # atno 17320 bound_to 7965
  145.9600  139.2794  143.1161 LP  0  0  0  0  0  0  0  0  0  0  0  0  # atno 17321 bound_to 7965
  139.4818  144.4895  151.9203 LP  0  0  0  0  0  0  0  0  0  0  0  0  # atno 17342 bound_to 10162
  140.3981  144.2529  150.5895 LP  0  0  0  0  0  0  0  0  0  0  0  0  # atno 17343 bound_to 10162
  157.5708  130.8309  149.8389 LP  0  0  0  0  0  0  0  0  0  0  0  0  # atno 17370 bound_to 10713
  156.0354  130.3753  150.1574 LP  0  0  0  0  0  0  0  0  0  0  0  0  # atno 17371 bound_to 10713
  141.2227  133.7121  156.8346 LP  0  0  0  0  0  0  0  0  0  0  0  0  # atno 17394 bound_to 11000
  140.1997  134.8906  157.3155 LP  0  0  0  0  0  0  0  0  0  0  0  0  # atno 17395 bound_to 11000

$$$$
