AV-unprocessed.smi:2784|AV-procd|sdf|10732|dock3
  -GOLD-   2272015173D 1   1.00000     0.00000
 Structure written by MMmdl.
 32 33  0  0  0  0  0  0  0  0  2 V2000
  148.0608  132.8297  152.9715 C   0  0  0  0  0  0  0  0  0  0  0  0
  147.3789  133.9421  152.4139 O   0  0  0  0  0  0  0  0  0  0  0  0
  145.9907  133.9882  152.7346 C   0  0  2  0  0  0  0  0  0  0  0  0
  145.2292  133.0203  151.8216 C   0  0  0  0  0  0  0  0  0  0  0  0
  145.0443  133.8004  150.5237 C   0  0  0  0  0  0  0  0  0  0  0  0
  144.8029  135.2454  150.9684 C   0  0  0  0  0  0  0  0  0  0  0  0
  145.4113  135.3774  152.3783 C   0  0  2  0  0  0  0  0  0  0  0  0
  146.4092  136.4446  152.4247 N   0  0  0  0  0  0  0  0  0  0  0  0
  146.2297  137.6323  153.0201 C   0  0  0  0  0  0  0  0  0  0  0  0
  145.1842  137.9637  153.5800 O   0  0  0  0  0  0  0  0  0  0  0  0
  147.3260  138.4004  152.9328 N   0  0  0  0  0  0  0  0  0  0  0  0
  147.4636  139.7026  153.4652 C   0  0  0  0  0  0  0  0  0  0  0  0
  146.5233  140.6431  153.3882 N   0  3  0  0  0  0  0  0  0  0  0  0
  146.9848  141.7792  154.0056 C   0  0  0  0  0  0  0  0  0  0  0  0
  148.2468  141.4731  154.4555 C   0  0  0  0  0  0  0  0  0  0  0  0
  148.5622  140.1710  154.1230 O   0  0  0  0  0  0  0  0  0  0  0  0
  149.1089  132.8604  152.6742 H   0  0  0  0  0  0  0  0  0  0  0  0
  147.6445  131.8829  152.6281 H   0  0  0  0  0  0  0  0  0  0  0  0
  148.0226  132.8532  154.0613 H   0  0  0  0  0  0  0  0  0  0  0  0
  145.8337  133.7684  153.7922 H   0  0  0  0  0  0  0  0  0  0  0  0
  145.7362  132.0679  151.6686 H   0  0  0  0  0  0  0  0  0  0  0  0
  144.2521  132.8039  152.2556 H   0  0  0  0  0  0  0  0  0  0  0  0
  145.9603  133.7459  149.9337 H   0  0  0  0  0  0  0  0  0  0  0  0
  144.2315  133.4089  149.9115 H   0  0  0  0  0  0  0  0  0  0  0  0
  145.2285  135.9492  150.2515 H   0  0  0  0  0  0  0  0  0  0  0  0
  143.7316  135.4456  151.0135 H   0  0  0  0  0  0  0  0  0  0  0  0
  144.6014  135.6130  153.0715 H   0  0  0  0  0  0  0  0  0  0  0  0
  147.3003  136.2502  151.9919 H   0  0  0  0  0  0  0  0  0  0  0  0
  145.6104  140.5736  152.9559 H   0  0  0  0  0  0  0  0  0  0  0  0
  146.3819  142.6743  154.0626 H   0  0  0  0  0  0  0  0  0  0  0  0
  149.0027  142.0271  154.9930 H   0  0  0  0  0  0  0  0  0  0  0  0
  148.1275  138.0212  152.4506 H   0  0  0  0  0  0  0  0  0  0  0  0
  1  2  1  0  0  0  0
  1 17  1  0  0  0  0
  1 18  1  0  0  0  0
  1 19  1  0  0  0  0
  2  3  1  0  0  0  0
  3  7  1  0  0  0  0
  3  4  1  0  0  0  0
  3 20  1  0  0  0  0
  4  5  1  0  0  0  0
  4 21  1  0  0  0  0
  4 22  1  0  0  0  0
  5  6  1  0  0  0  0
  5 23  1  0  0  0  0
  5 24  1  0  0  0  0
  6  7  1  0  0  0  0
  6 25  1  0  0  0  0
  6 26  1  0  0  0  0
  7  8  1  0  0  0  0
  7 27  1  0  0  0  0
  8 28  1  0  0  0  0
  8  9  1  0  0  0  0
  9 11  1  0  0  0  0
  9 10  2  0  0  0  0
 11 12  1  0  0  0  0
 11 32  1  0  0  0  0
 12 16  1  0  0  0  0
 12 13  2  0  0  0  0
 13 29  1  0  0  0  0
 13 14  1  0  0  0  0
 14 30  1  0  0  0  0
 14 15  2  0  0  0  0
 15 31  1  0  0  0  0
 15 16  1  0  0  0  0
M  CHG  1  13   1
M  END
> <s_m_source_file>
AV-unprocessed.smi

> <i_m_source_file_index>
2784

> <i_lp_mmshare_version>
43012

> <i_f3d_flags>
0

> <s_epik_input>
W0NIM11PW0NAQEhdMVtDSDJdW0NIMl1bQ0gyXVtDQEhdMVtOSF1DKD1PKVtOSF1jMm5bY0hdW2NIXW8y

> <s_epik_cmdline>
J2VwaWtfcHl0aG9uJywgJy1waCcsICc3LjAnLCAnLXRuJywgJzgnLCAnLW1hJywgJzIwMCcsICctbWV0YWxfYmluZGluZycsICctaW1hZScsICc8aW5maWxlLm1hZT4nLCAnLW9tYWUnLCAnPG91dGZpbGUubWFlPic=

> <r_epik_Ionization_Penalty>
6.73843

> <r_epik_Ionization_Penalty_Charging>
6.66704

> <r_epik_Ionization_Penalty_Neutral>
0.0713889

> <r_epik_State_Penalty>
1.94951

> <r_epik_Charging_Adjusted_Penalty>
8.61656

> <i_epik_Tot_Q>
1

> <i_epik_Tot_abs_Q>
1

> <r_epik_Metal_State_Penalty>
1.97013

> <b_epik_Metal_Only>
0

> <s_lp_Force_Field>
OPLS_2005

> <r_lp_Energy>
28.2598

> <b_lp_Chiralities_Consistent>
1

> <s_lp_Variant>
AV-unprocessed.smi:2784-7

> <Gold.Version>
5.8.1

> <Gold.Id.Protein>
6NUR|6NUR_protein|mol2

> <Gold.PLP.Fitness>
36.5865

> <Gold.PLP.PLP>
-24.5918

> <Gold.PLP.part.hbond>
-3.1808

> <Gold.PLP.part.metal>
0.0000

> <Gold.PLP.part.buried>
-4.7455

> <Gold.PLP.part.nonpolar>
-19.3320

> <Gold.PLP.part.repulsive>
3.4308

> <Gold.PLP.ligand.clash>
0.0000

> <Gold.PLP.ligand.torsion>
0.6318

> <Gold.PLP.Chemscore.Hbond>
3.8800

> <Gold.PLP.Chemscore.CHOScore>
0.5358

> <Gold.PLP.Chemscore.Metal>
0.0000

> <Gold.Chemscore.Hbonds>
donor molecule, donor type, donor heavy atom, donor atom, acceptor molecule, acceptor atom, score
      L1  H     8    28       P1  7948  1.00
      L1  H    11    32       P1  7948  0.84
      L1  H    13    29       P1 10175  2.00
      L1  C    15    31       P1  8028  0.37

> <Gold.PLP.Chemscore.Internal.Correction>
0.0108

> <Gold.Rescore>
     Score         DG    S(hbond)    S(metal)    S(lipo)     H(rot)  DE(clash)    DE(int)     intcor
     16.36     -16.72       2.90        0.00      42.56       1.34       0.00       0.37       ----

> <Gold.Chemscore.Fitness>
16.3550

> <Gold.Chemscore.DG>
-16.7248

> <Gold.Chemscore.ZeroCoef>
-5.4800

> <Gold.Chemscore.Hbond>
2.8993

> <Gold.Chemscore.Metal>
0.0000

> <Gold.Chemscore.Lipo>
42.5555

> <Gold.Chemscore.Internal_Hbond>
0.0000

> <Gold.Chemscore.DEClash>
0.0038

> <Gold.Chemscore.DEInternal>
0.3660

> <Gold.Chemscore.Rot>
1.3351

> <Gold.Chemscore.Internal.Correction>
   9.000000E+99

> <Gold.Chemscore.Hbonds>
donor molecule, donor type, donor heavy atom, donor atom, acceptor molecule, acceptor atom, score
      L1  H     8    28       P1  7948  0.99
      L1  H    11    32       P1  7948  0.78
      L1  H    13    29       P1 10175  0.72

> <Gold.Chemscore.Hbond.Weighted>
-9.6836

> <Gold.Chemscore.Metal.Weighted>
-0.0000

> <Gold.Chemscore.Lipo.Weighted>
-4.9790

> <Gold.Chemscore.Internal_Hbond.Weighted>
0.0000

> <Gold.Chemscore.DEClash.Weighted>
0.0038

> <Gold.Chemscore.DEInternal.Weighted>
0.3660

> <Gold.Chemscore.Rot.Weighted>
3.4177

> <Gold.Chemscore.Internal.Correction.Weighted>
   9.000000E+99

> <Gold.Protein.RotatedTorsions>
[ 6907 6896 6895 6894 ] final   91.43 input  -60.11 | X-H torsion
[ 7974 7965 7964 7962 ] final  -92.01 input  175.53 | X-H torsion
[ 8008 7997 7996 7995 ] final -131.93 input   59.86 | X-H torsion
[ 10167 10162 10161 10158 ] final   50.83 input  -65.29 | X-H torsion
[ 10718 10713 10712 10709 ] final  -63.44 input   66.30 | X-H torsion
[ 10763 10752 10751 10750 ] final   36.55 input  -60.55 | X-H torsion
[ 11005 11000 10999 10996 ] final -102.66 input  -57.11 | X-H torsion

> <Gold.Protein.ActiveResidues>
 VAL166  LYS551  ARG553  GLY616  TRP617  ASP618  TYR619  PRO620  LYS621  CYS622 
 ASP623  PHE694  ASN695  SER759  ASP760  ASP761  ALA762  ILE779  LEU786  VAL792 
 PHE793  MET794  SER795  GLU796  ALA797  LYS798  CYS799  TRP800  GLU811  SER814 

> <Gold.Protein.RotatedAtoms>
  152.5450  134.1658  159.8576 H   0  0  0  0  0  0  0  0  0  0  0  0  # atno 6907 bound_to 6896
  151.1672  133.4800  159.2601 H   0  0  0  0  0  0  0  0  0  0  0  0  # atno 6908 bound_to 6896
  151.1311  135.0142  159.8638 H   0  0  0  0  0  0  0  0  0  0  0  0  # atno 6909 bound_to 6896
  145.4056  140.9541  143.2263 H   0  0  0  0  0  0  0  0  0  0  0  0  # atno 7974 bound_to 7965
  155.3205  140.0462  157.3039 H   0  0  0  0  0  0  0  0  0  0  0  0  # atno 8008 bound_to 7997
  154.5382  140.2279  155.8652 H   0  0  0  0  0  0  0  0  0  0  0  0  # atno 8009 bound_to 7997
  156.1856  140.3063  155.9238 H   0  0  0  0  0  0  0  0  0  0  0  0  # atno 8010 bound_to 7997
  140.2683  144.3295  150.6297 H   0  0  0  0  0  0  0  0  0  0  0  0  # atno 10167 bound_to 10162
  156.0791  130.4221  150.1278 H   0  0  0  0  0  0  0  0  0  0  0  0  # atno 10718 bound_to 10713
  153.0072  135.6302  154.2003 H   0  0  0  0  0  0  0  0  0  0  0  0  # atno 10763 bound_to 10752
  154.1747  135.2816  155.3072 H   0  0  0  0  0  0  0  0  0  0  0  0  # atno 10764 bound_to 10752
  154.5882  135.5626  153.7311 H   0  0  0  0  0  0  0  0  0  0  0  0  # atno 10765 bound_to 10752
  141.1179  133.8577  157.1388 H   0  0  0  0  0  0  0  0  0  0  0  0  # atno 11005 bound_to 11000
  144.8344  139.5574  143.6929 LP  0  0  0  0  0  0  0  0  0  0  0  0  # atno 17320 bound_to 7965
  146.2730  139.6683  142.9282 LP  0  0  0  0  0  0  0  0  0  0  0  0  # atno 17321 bound_to 7965
  140.5910  143.2168  151.7252 LP  0  0  0  0  0  0  0  0  0  0  0  0  # atno 17342 bound_to 10162
  139.4996  144.3938  152.0252 LP  0  0  0  0  0  0  0  0  0  0  0  0  # atno 17343 bound_to 10162
  156.9313  130.9714  151.3532 LP  0  0  0  0  0  0  0  0  0  0  0  0  # atno 17370 bound_to 10713
  157.5900  130.8436  149.8645 LP  0  0  0  0  0  0  0  0  0  0  0  0  # atno 17371 bound_to 10713
  140.0115  134.9986  157.0404 LP  0  0  0  0  0  0  0  0  0  0  0  0  # atno 17394 bound_to 11000
  140.4592  134.1502  155.7189 LP  0  0  0  0  0  0  0  0  0  0  0  0  # atno 17395 bound_to 11000

$$$$
