AV-unprocessed.smi:219|AV-procd|sdf|1680|dock5
  -GOLD-   2262020113D 1   1.00000     0.00000
 Structure written by MMmdl.
 50 53  0  0  0  0  0  0  0  0  1 V2000
  143.6002  133.9068  150.1212 N   0  0  0  0  0  0  0  0  0  0  0  0
  144.3522  132.8111  149.9918 C   0  0  0  0  0  0  0  0  0  0  0  0
  143.8695  131.7161  149.7117 O   0  0  0  0  0  0  0  0  0  0  0  0
  145.8623  132.9733  150.2118 C   0  0  0  0  0  0  0  0  0  0  0  0
  146.4082  132.4065  151.5557 C   0  0  2  0  0  0  0  0  0  0  0  0
  146.2286  130.8707  151.5594 C   0  0  0  0  0  0  0  0  0  0  0  0
  146.7234  130.2324  152.8643 C   0  0  0  0  0  0  0  0  0  0  0  0
  146.0264  130.8864  154.0616 C   0  0  0  0  0  0  0  0  0  0  0  0
  146.2380  132.4055  154.0326 C   0  0  0  0  0  0  0  0  0  0  0  0
  145.7849  132.9812  152.7645 N   0  0  0  0  0  0  0  0  0  0  0  0
  145.7192  134.3305  152.8287 C   0  0  0  0  0  0  0  0  0  0  0  0
  144.8192  135.0061  152.0661 N   0  0  0  0  0  0  0  0  0  0  0  0
  144.7408  136.3376  152.1522 C   0  0  0  0  0  0  0  0  0  0  0  0
  145.4541  137.1689  152.9158 N   0  0  0  0  0  0  0  0  0  0  0  0
  146.3612  136.4904  153.6761 C   0  0  0  0  0  0  0  0  0  0  0  0
  146.5567  135.0817  153.6934 C   0  0  0  0  0  0  0  0  0  0  0  0
  147.5545  134.7470  154.5990 N   0  0  0  0  0  0  0  0  0  0  0  0
  147.9325  135.8965  155.0882 C   0  0  0  0  0  0  0  0  0  0  0  0
  147.2763  136.9971  154.5829 N   0  0  0  0  0  0  0  0  0  0  0  0
  147.4996  138.3879  154.9487 C   0  0  0  0  0  0  0  0  0  0  0  0
  148.6402  139.0643  154.1498 C   0  0  2  0  0  0  0  0  0  0  0  0
  148.3386  138.9873  152.7678 O   0  0  0  0  0  0  0  0  0  0  0  0
  149.9988  138.4055  154.3988 C   0  0  0  0  0  0  0  0  0  0  0  0
  150.7546  139.4411  155.2227 C   0  0  0  0  0  0  0  0  0  0  0  0
  150.2836  140.6653  154.6888 O   0  0  0  0  0  0  0  0  0  0  0  0
  148.8775  140.5383  154.5360 C   0  0  0  0  0  0  0  0  0  0  0  0
  142.6015  133.8467  149.9839 H   0  0  0  0  0  0  0  0  0  0  0  0
  144.0303  134.7900  150.3538 H   0  0  0  0  0  0  0  0  0  0  0  0
  146.4202  132.5536  149.3733 H   0  0  0  0  0  0  0  0  0  0  0  0
  146.0418  134.0484  150.1751 H   0  0  0  0  0  0  0  0  0  0  0  0
  147.4788  132.6086  151.6174 H   0  0  0  0  0  0  0  0  0  0  0  0
  145.1748  130.6260  151.4172 H   0  0  0  0  0  0  0  0  0  0  0  0
  146.7635  130.4276  150.7186 H   0  0  0  0  0  0  0  0  0  0  0  0
  146.5309  129.1593  152.8561 H   0  0  0  0  0  0  0  0  0  0  0  0
  147.8034  130.3578  152.9507 H   0  0  0  0  0  0  0  0  0  0  0  0
  144.9589  130.6630  154.0364 H   0  0  0  0  0  0  0  0  0  0  0  0
  146.4112  130.4720  154.9936 H   0  0  0  0  0  0  0  0  0  0  0  0
  145.6985  132.8642  154.8629 H   0  0  0  0  0  0  0  0  0  0  0  0
  147.2963  132.6284  154.1779 H   0  0  0  0  0  0  0  0  0  0  0  0
  143.9987  136.8028  151.5203 H   0  0  0  0  0  0  0  0  0  0  0  0
  148.7104  135.9745  155.8340 H   0  0  0  0  0  0  0  0  0  0  0  0
  146.5671  138.9346  154.8020 H   0  0  0  0  0  0  0  0  0  0  0  0
  147.7106  138.4287  156.0183 H   0  0  0  0  0  0  0  0  0  0  0  0
  149.0842  139.3055  152.2821 H   0  0  0  0  0  0  0  0  0  0  0  0
  149.9294  137.4428  154.9066 H   0  0  0  0  0  0  0  0  0  0  0  0
  150.5332  138.2413  153.4615 H   0  0  0  0  0  0  0  0  0  0  0  0
  150.4900  139.3725  156.2791 H   0  0  0  0  0  0  0  0  0  0  0  0
  151.8367  139.3481  155.1286 H   0  0  0  0  0  0  0  0  0  0  0  0
  148.4877  141.2510  153.8079 H   0  0  0  0  0  0  0  0  0  0  0  0
  148.4233  140.7711  155.4993 H   0  0  0  0  0  0  0  0  0  0  0  0
  1  2  1  0  0  0  0
  1 27  1  0  0  0  0
  1 28  1  0  0  0  0
  2  3  2  0  0  0  0
  2  4  1  0  0  0  0
  4  5  1  0  0  0  0
  4 29  1  0  0  0  0
  4 30  1  0  0  0  0
  5 10  1  0  0  0  0
  5  6  1  0  0  0  0
  5 31  1  0  0  0  0
  6  7  1  0  0  0  0
  6 32  1  0  0  0  0
  6 33  1  0  0  0  0
  7  8  1  0  0  0  0
  7 34  1  0  0  0  0
  7 35  1  0  0  0  0
  8  9  1  0  0  0  0
  8 36  1  0  0  0  0
  8 37  1  0  0  0  0
  9 10  1  0  0  0  0
  9 38  1  0  0  0  0
  9 39  1  0  0  0  0
 10 11  1  0  0  0  0
 11 16  1  0  0  0  0
 11 12  2  0  0  0  0
 12 13  1  0  0  0  0
 13 14  2  0  0  0  0
 13 40  1  0  0  0  0
 14 15  1  0  0  0  0
 15 19  1  0  0  0  0
 15 16  2  0  0  0  0
 16 17  1  0  0  0  0
 17 18  2  0  0  0  0
 18 19  1  0  0  0  0
 18 41  1  0  0  0  0
 19 20  1  0  0  0  0
 20 21  1  0  0  0  0
 20 42  1  0  0  0  0
 20 43  1  0  0  0  0
 21 26  1  0  0  0  0
 21 22  1  0  0  0  0
 21 23  1  0  0  0  0
 22 44  1  0  0  0  0
 23 24  1  0  0  0  0
 23 45  1  0  0  0  0
 23 46  1  0  0  0  0
 24 25  1  0  0  0  0
 24 47  1  0  0  0  0
 24 48  1  0  0  0  0
 25 26  1  0  0  0  0
 26 49  1  0  0  0  0
 26 50  1  0  0  0  0
M  END
> <s_m_source_file>
AV-unprocessed.smi

> <i_m_source_file_index>
219

> <i_lp_mmshare_version>
43012

> <i_f3d_flags>
0

> <s_epik_input>
W05IMl1DKD1PKVtDSDJdW0NAQEhdMVtDSDJdW0NIMl1bQ0gyXVtDSDJdTjFjKG5bY0hdbjIpYyhjMjMpbltjSF1uM1tDSDJdW0NAQF00KFtPSF0pW0NIMl1bQ0gyXU9bQ0gyXTQ=

> <s_epik_cmdline>
J2VwaWtfcHl0aG9uJywgJy1waCcsICc3LjAnLCAnLXRuJywgJzgnLCAnLW1hJywgJzIwMCcsICctbWV0YWxfYmluZGluZycsICctaW1hZScsICc8aW5maWxlLm1hZT4nLCAnLW9tYWUnLCAnPG91dGZpbGUubWFlPic=

> <r_lp_tautomer_probability>
1

> <r_epik_Ionization_Penalty>
0.00228532

> <r_epik_Ionization_Penalty_Charging>
0

> <r_epik_Ionization_Penalty_Neutral>
0.00228532

> <r_epik_State_Penalty>
0.00140978

> <r_epik_Charging_Adjusted_Penalty>
0.00140978

> <i_epik_Tot_Q>
0

> <i_epik_Tot_abs_Q>
0

> <r_epik_Metal_State_Penalty>
-0

> <b_epik_Metal_Only>
0

> <s_lp_Force_Field>
OPLS_2005

> <r_lp_Energy>
33.6932

> <b_lp_Chiralities_Consistent>
1

> <s_lp_Variant>
AV-unprocessed.smi:219-3

> <Gold.Version>
5.8.1

> <Gold.Id.Protein>
6NUR|6NUR_protein|mol2

> <Gold.PLP.Fitness>
41.6506

> <Gold.PLP.PLP>
-31.1045

> <Gold.PLP.part.hbond>
-4.3696

> <Gold.PLP.part.metal>
0.0000

> <Gold.PLP.part.buried>
-2.4125

> <Gold.PLP.part.nonpolar>
-25.2662

> <Gold.PLP.part.repulsive>
0.7940

> <Gold.PLP.ligand.clash>
1.3838

> <Gold.PLP.ligand.torsion>
1.0721

> <Gold.PLP.Chemscore.Hbond>
3.6670

> <Gold.PLP.Chemscore.CHOScore>
0.9322

> <Gold.PLP.Chemscore.Metal>
0.0000

> <Gold.Chemscore.Hbonds>
donor molecule, donor type, donor heavy atom, donor atom, acceptor molecule, acceptor atom, score
      L1  H     1    27       P1 10186  1.00
      L1  H    22    44       P1  7957  0.73
      P1  H  7989  7998       L1    25  0.73
      P1  H 10785 10796       L1     3  0.80
      L1  C    13    40       P1 10171  1.00

> <Gold.PLP.Chemscore.Internal.Correction>
0.2765

> <Gold.Rescore>
     Score         DG    S(hbond)    S(metal)    S(lipo)     H(rot)  DE(clash)    DE(int)     intcor
      9.58     -15.90       3.30        0.00      68.61       3.37       0.28       6.04       ----

> <Gold.Chemscore.Fitness>
9.5768

> <Gold.Chemscore.DG>
-15.8993

> <Gold.Chemscore.ZeroCoef>
-5.4800

> <Gold.Chemscore.Hbond>
3.2990

> <Gold.Chemscore.Metal>
0.0000

> <Gold.Chemscore.Lipo>
68.6071

> <Gold.Chemscore.Internal_Hbond>
0.0000

> <Gold.Chemscore.DEClash>
0.2827

> <Gold.Chemscore.DEInternal>
6.0398

> <Gold.Chemscore.Rot>
3.3697

> <Gold.Chemscore.Internal.Correction>
   9.000000E+99

> <Gold.Chemscore.Hbonds>
donor molecule, donor type, donor heavy atom, donor atom, acceptor molecule, acceptor atom, score
      L1  H     1    27       P1 10186  0.98
      L1  H    22    44       P1  7957  0.70
      P1  H  7989  7998       L1    25  0.13
      P1  H 10785 10796       L1     3  0.78

> <Gold.Chemscore.Hbond.Weighted>
-11.0187

> <Gold.Chemscore.Metal.Weighted>
-0.0000

> <Gold.Chemscore.Lipo.Weighted>
-8.0270

> <Gold.Chemscore.Internal_Hbond.Weighted>
0.0000

> <Gold.Chemscore.DEClash.Weighted>
0.2827

> <Gold.Chemscore.DEInternal.Weighted>
6.0398

> <Gold.Chemscore.Rot.Weighted>
8.6264

> <Gold.Chemscore.Internal.Correction.Weighted>
   9.000000E+99

> <Gold.Protein.RotatedTorsions>
[ 6907 6896 6895 6894 ] final   11.03 input  -60.11 | X-H torsion
[ 7974 7965 7964 7962 ] final   53.30 input  175.53 | X-H torsion
[ 8008 7997 7996 7995 ] final -106.53 input   59.86 | X-H torsion
[ 10167 10162 10161 10158 ] final  -90.72 input  -65.29 | X-H torsion
[ 10718 10713 10712 10709 ] final -161.69 input   66.30 | X-H torsion
[ 10763 10752 10751 10750 ] final   82.09 input  -60.55 | X-H torsion
[ 11005 11000 10999 10996 ] final   90.29 input  -57.11 | X-H torsion

> <Gold.Protein.ActiveResidues>
 VAL166  LYS551  ARG553  GLY616  TRP617  ASP618  TYR619  PRO620  LYS621  CYS622 
 ASP623  PHE694  ASN695  SER759  ASP760  ASP761  ALA762  ILE779  LEU786  VAL792 
 PHE793  MET794  SER795  GLU796  ALA797  LYS798  CYS799  TRP800  GLU811  SER814 

> <Gold.Protein.RotatedAtoms>
  151.7479  135.0839  160.0325 H   0  0  0  0  0  0  0  0  0  0  0  0  # atno 6907 bound_to 6896
  152.3436  133.6092  159.5903 H   0  0  0  0  0  0  0  0  0  0  0  0  # atno 6908 bound_to 6896
  150.7495  133.9599  159.3554 H   0  0  0  0  0  0  0  0  0  0  0  0  # atno 6909 bound_to 6896
  145.9725  139.4163  143.0181 H   0  0  0  0  0  0  0  0  0  0  0  0  # atno 7974 bound_to 7965
  154.9159  140.0408  157.1971 H   0  0  0  0  0  0  0  0  0  0  0  0  # atno 8008 bound_to 7997
  154.8302  140.2898  155.5706 H   0  0  0  0  0  0  0  0  0  0  0  0  # atno 8009 bound_to 7997
  156.2986  140.2502  156.3226 H   0  0  0  0  0  0  0  0  0  0  0  0  # atno 8010 bound_to 7997
  140.3520  143.2886  151.9714 H   0  0  0  0  0  0  0  0  0  0  0  0  # atno 10167 bound_to 10162
  156.5998  130.8805  151.2911 H   0  0  0  0  0  0  0  0  0  0  0  0  # atno 10718 bound_to 10713
  153.1173  135.4741  154.9136 H   0  0  0  0  0  0  0  0  0  0  0  0  # atno 10763 bound_to 10752
  154.7541  135.3113  154.8506 H   0  0  0  0  0  0  0  0  0  0  0  0  # atno 10764 bound_to 10752
  153.9079  135.6868  153.4806 H   0  0  0  0  0  0  0  0  0  0  0  0  # atno 10765 bound_to 10752
  139.8859  134.8605  156.3264 H   0  0  0  0  0  0  0  0  0  0  0  0  # atno 11005 bound_to 11000
  145.7885  140.9825  143.1061 LP  0  0  0  0  0  0  0  0  0  0  0  0  # atno 17320 bound_to 7965
  144.6840  139.9653  143.7481 LP  0  0  0  0  0  0  0  0  0  0  0  0  # atno 17321 bound_to 7965
  139.4825  144.6067  151.7508 LP  0  0  0  0  0  0  0  0  0  0  0  0  # atno 17342 bound_to 10162
  140.5209  144.0880  150.6022 LP  0  0  0  0  0  0  0  0  0  0  0  0  # atno 17343 bound_to 10162
  157.7282  130.9654  150.1734 LP  0  0  0  0  0  0  0  0  0  0  0  0  # atno 17370 bound_to 10713
  156.2479  130.3697  149.8265 LP  0  0  0  0  0  0  0  0  0  0  0  0  # atno 17371 bound_to 10713
  140.9752  133.7302  156.0592 LP  0  0  0  0  0  0  0  0  0  0  0  0  # atno 17394 bound_to 11000
  140.7820  134.3715  157.5485 LP  0  0  0  0  0  0  0  0  0  0  0  0  # atno 17395 bound_to 11000

$$$$
