AV-unprocessed.smi:2790|AV-procd|sdf|10769|dock8
  -GOLD-   2272015203D 1   1.00000     0.00000
 Structure written by MMmdl.
 45 46  0  0  0  0  0  0  0  0  3 V2000
  151.8621  144.2760  161.1772 C   0  0  0  0  0  0  0  0  0  0  0  0
  152.0955  142.9930  160.4813 N   0  3  0  0  0  0  0  0  0  0  0  0
  153.1074  142.1625  161.1749 C   0  0  0  0  0  0  0  0  0  0  0  0
  152.3752  143.1759  159.0341 C   0  0  0  0  0  0  0  0  0  0  0  0
  151.0886  143.0153  158.2176 C   0  0  0  0  0  0  0  0  0  0  0  0
  150.1536  143.7912  158.4368 O   0  0  0  0  0  0  0  0  0  0  0  0
  151.2066  141.9956  157.3234 N   0  5  0  0  0  0  0  0  0  0  0  0
  150.6495  142.0271  155.9687 C   0  0  0  0  0  0  0  0  0  0  0  0
  149.7179  140.7807  155.6937 C   0  0  0  0  0  0  0  0  0  0  0  0
  150.5984  139.5043  155.5468 C   0  0  0  0  0  0  0  0  0  0  0  0
  150.5919  138.7332  154.3540 C   0  0  0  0  0  0  0  0  0  0  0  0
  151.4133  137.5934  154.2573 C   0  0  0  0  0  0  0  0  0  0  0  0
  152.2229  137.1751  155.2506 N   0  0  0  0  0  0  0  0  0  0  0  0
  152.2344  137.8958  156.3891 C   0  0  0  0  0  0  0  0  0  0  0  0
  151.4580  139.0544  156.5843 C   0  0  0  0  0  0  0  0  0  0  0  0
  148.6495  140.5845  156.8329 C   0  0  0  0  0  0  0  0  0  0  0  0
  147.4923  141.6066  156.8690 C   0  0  0  0  0  0  0  0  0  0  0  0
  146.7605  141.6640  155.5261 C   0  0  0  0  0  0  0  0  0  0  0  0
  147.7436  141.9782  154.3959 C   0  0  0  0  0  0  0  0  0  0  0  0
  148.9099  140.9647  154.3586 C   0  0  0  0  0  0  0  0  0  0  0  0
  152.7520  144.9060  161.1454 H   0  0  0  0  0  0  0  0  0  0  0  0
  151.5986  144.1049  162.2214 H   0  0  0  0  0  0  0  0  0  0  0  0
  151.0377  144.8197  160.7146 H   0  0  0  0  0  0  0  0  0  0  0  0
  154.0910  142.6321  161.1390 H   0  0  0  0  0  0  0  0  0  0  0  0
  153.1829  141.1728  160.7234 H   0  0  0  0  0  0  0  0  0  0  0  0
  152.8355  142.0220  162.2212 H   0  0  0  0  0  0  0  0  0  0  0  0
  152.7745  144.1744  158.8468 H   0  0  0  0  0  0  0  0  0  0  0  0
  153.1368  142.4689  158.7007 H   0  0  0  0  0  0  0  0  0  0  0  0
  150.0823  142.9436  155.8086 H   0  0  0  0  0  0  0  0  0  0  0  0
  151.4292  142.0457  155.2057 H   0  0  0  0  0  0  0  0  0  0  0  0
  149.9841  139.0109  153.5067 H   0  0  0  0  0  0  0  0  0  0  0  0
  151.4228  137.0039  153.3525 H   0  0  0  0  0  0  0  0  0  0  0  0
  152.8950  137.5461  157.1685 H   0  0  0  0  0  0  0  0  0  0  0  0
  151.5475  139.5781  157.5227 H   0  0  0  0  0  0  0  0  0  0  0  0
  148.1814  139.6085  156.6959 H   0  0  0  0  0  0  0  0  0  0  0  0
  149.1071  140.5459  157.8232 H   0  0  0  0  0  0  0  0  0  0  0  0
  146.7884  141.3313  157.6549 H   0  0  0  0  0  0  0  0  0  0  0  0
  147.8619  142.5977  157.1339 H   0  0  0  0  0  0  0  0  0  0  0  0
  146.2701  140.7090  155.3327 H   0  0  0  0  0  0  0  0  0  0  0  0
  145.9735  142.4177  155.5593 H   0  0  0  0  0  0  0  0  0  0  0  0
  147.2168  141.9613  153.4413 H   0  0  0  0  0  0  0  0  0  0  0  0
  148.1232  142.9941  154.5090 H   0  0  0  0  0  0  0  0  0  0  0  0
  149.5561  141.2221  153.5178 H   0  0  0  0  0  0  0  0  0  0  0  0
  148.4742  139.9999  154.0934 H   0  0  0  0  0  0  0  0  0  0  0  0
  151.2225  142.4849  160.5210 H   0  0  0  0  0  0  0  0  0  0  0  0
  1  2  1  0  0  0  0
  1 21  1  0  0  0  0
  1 22  1  0  0  0  0
  1 23  1  0  0  0  0
  2  3  1  0  0  0  0
  2  4  1  0  0  0  0
  2 45  1  0  0  0  0
  3 24  1  0  0  0  0
  3 25  1  0  0  0  0
  3 26  1  0  0  0  0
  4  5  1  0  0  0  0
  4 27  1  0  0  0  0
  4 28  1  0  0  0  0
  5  6  2  0  0  0  0
  5  7  1  0  0  0  0
  7  8  1  0  0  0  0
  8  9  1  0  0  0  0
  8 29  1  0  0  0  0
  8 30  1  0  0  0  0
  9 20  1  0  0  0  0
  9 10  1  0  0  0  0
  9 16  1  0  0  0  0
 10 15  1  0  0  0  0
 10 11  2  0  0  0  0
 11 12  1  0  0  0  0
 11 31  1  0  0  0  0
 12 13  2  0  0  0  0
 12 32  1  0  0  0  0
 13 14  1  0  0  0  0
 14 15  2  0  0  0  0
 14 33  1  0  0  0  0
 15 34  1  0  0  0  0
 16 17  1  0  0  0  0
 16 35  1  0  0  0  0
 16 36  1  0  0  0  0
 17 18  1  0  0  0  0
 17 37  1  0  0  0  0
 17 38  1  0  0  0  0
 18 19  1  0  0  0  0
 18 39  1  0  0  0  0
 18 40  1  0  0  0  0
 19 20  1  0  0  0  0
 19 41  1  0  0  0  0
 19 42  1  0  0  0  0
 20 43  1  0  0  0  0
 20 44  1  0  0  0  0
M  CHG  1   2   1
M  CHG  1   7  -1
M  END
> <s_m_source_file>
AV-unprocessed.smi

> <i_m_source_file_index>
2790

> <i_lp_mmshare_version>
43012

> <i_f3d_flags>
0

> <s_epik_input>
W0NIM11OKFtDSDNdKVtDSDJdQyg9TylbTkhdW0NIMl1DMShbQ0gyXVtDSDJdW0NIMl1bQ0gyXVtDSDJdMSljMltjSF1bY0hdbltjSF1bY0hdMg==

> <s_epik_cmdline>
J2VwaWtfcHl0aG9uJywgJy1waCcsICc3LjAnLCAnLXRuJywgJzgnLCAnLW1hJywgJzIwMCcsICctbWV0YWxfYmluZGluZycsICctaW1hZScsICc8aW5maWxlLm1hZT4nLCAnLW9tYWUnLCAnPG91dGZpbGUubWFlPic=

> <r_epik_Ionization_Penalty>
6.38592

> <r_epik_Ionization_Penalty_Charging>
6.21784

> <r_epik_Ionization_Penalty_Neutral>
0.168075

> <r_epik_State_Penalty>
6.29446

> <r_epik_Charging_Adjusted_Penalty>
12.5123

> <i_epik_Tot_Q>
0

> <i_epik_Tot_abs_Q>
2

> <r_epik_Metal_State_Penalty>
2.27801

> <b_epik_Metal_Only>
1

> <s_lp_Force_Field>
OPLS_2005

> <r_lp_Energy>
25.1562

> <b_lp_Chiralities_Consistent>
1

> <s_lp_Variant>
AV-unprocessed.smi:2790-4

> <Gold.Version>
5.8.1

> <Gold.Id.Protein>
6NUR|6NUR_protein|mol2

> <Gold.PLP.Fitness>
42.2073

> <Gold.PLP.PLP>
-38.3868

> <Gold.PLP.part.hbond>
-1.0000

> <Gold.PLP.part.metal>
0.0000

> <Gold.PLP.part.buried>
-5.3845

> <Gold.PLP.part.nonpolar>
-32.9376

> <Gold.PLP.part.repulsive>
0.5128

> <Gold.PLP.ligand.clash>
0.0000

> <Gold.PLP.ligand.torsion>
0.9456

> <Gold.PLP.Chemscore.Hbond>
0.8800

> <Gold.PLP.Chemscore.CHOScore>
1.0000

> <Gold.PLP.Chemscore.Metal>
0.0000

> <Gold.Chemscore.Hbonds>
donor molecule, donor type, donor heavy atom, donor atom, acceptor molecule, acceptor atom, score
      P1  H 10752 10763       L1    13  0.80
      L1  C    12    32       P1  7949  1.00

> <Gold.PLP.Chemscore.Internal.Correction>
0.0716

> <Gold.Rescore>
     Score         DG    S(hbond)    S(metal)    S(lipo)     H(rot)  DE(clash)    DE(int)     intcor
     15.08     -16.25       0.93        0.00     100.41       1.59       0.05       1.11       ----

> <Gold.Chemscore.Fitness>
15.0849

> <Gold.Chemscore.DG>
-16.2455

> <Gold.Chemscore.ZeroCoef>
-5.4800

> <Gold.Chemscore.Hbond>
0.9274

> <Gold.Chemscore.Metal>
0.0000

> <Gold.Chemscore.Lipo>
100.4132

> <Gold.Chemscore.Internal_Hbond>
0.0000

> <Gold.Chemscore.DEClash>
0.0490

> <Gold.Chemscore.DEInternal>
1.1116

> <Gold.Chemscore.Rot>
1.5938

> <Gold.Chemscore.Internal.Correction>
   9.000000E+99

> <Gold.Chemscore.Hbonds>
donor molecule, donor type, donor heavy atom, donor atom, acceptor molecule, acceptor atom, score
      P1  H 10752 10763       L1    13  0.40

> <Gold.Chemscore.Hbond.Weighted>
-3.0974

> <Gold.Chemscore.Metal.Weighted>
-0.0000

> <Gold.Chemscore.Lipo.Weighted>
-11.7483

> <Gold.Chemscore.Internal_Hbond.Weighted>
0.0000

> <Gold.Chemscore.DEClash.Weighted>
0.0490

> <Gold.Chemscore.DEInternal.Weighted>
1.1116

> <Gold.Chemscore.Rot.Weighted>
4.0802

> <Gold.Chemscore.Internal.Correction.Weighted>
   9.000000E+99

> <Gold.Protein.RotatedTorsions>
[ 6907 6896 6895 6894 ] final   91.11 input  -60.11 | X-H torsion
[ 7974 7965 7964 7962 ] final  133.80 input  175.53 | X-H torsion
[ 8008 7997 7996 7995 ] final  157.16 input   59.86 | X-H torsion
[ 10167 10162 10161 10158 ] final  133.72 input  -65.29 | X-H torsion
[ 10718 10713 10712 10709 ] final   56.76 input   66.30 | X-H torsion
[ 10763 10752 10751 10750 ] final   61.02 input  -60.55 | X-H torsion
[ 11005 11000 10999 10996 ] final   44.63 input  -57.11 | X-H torsion

> <Gold.Protein.ActiveResidues>
 VAL166  LYS551  ARG553  GLY616  TRP617  ASP618  TYR619  PRO620  LYS621  CYS622 
 ASP623  PHE694  ASN695  SER759  ASP760  ASP761  ALA762  ILE779  LEU786  VAL792 
 PHE793  MET794  SER795  GLU796  ALA797  LYS798  CYS799  TRP800  GLU811  SER814 

> <Gold.Protein.RotatedAtoms>
  152.5448  134.1707  159.8595 H   0  0  0  0  0  0  0  0  0  0  0  0  # atno 6907 bound_to 6896
  151.1717  133.4773  159.2601 H   0  0  0  0  0  0  0  0  0  0  0  0  # atno 6908 bound_to 6896
  151.1268  135.0120  159.8619 H   0  0  0  0  0  0  0  0  0  0  0  0  # atno 6909 bound_to 6896
  144.9828  139.4486  143.5377 H   0  0  0  0  0  0  0  0  0  0  0  0  # atno 7974 bound_to 7965
  156.2380  140.1893  156.7065 H   0  0  0  0  0  0  0  0  0  0  0  0  # atno 8008 bound_to 7997
  154.6144  140.0617  156.9562 H   0  0  0  0  0  0  0  0  0  0  0  0  # atno 8009 bound_to 7997
  155.1964  140.3288  155.4353 H   0  0  0  0  0  0  0  0  0  0  0  0  # atno 8010 bound_to 7997
  139.5285  144.6602  151.5036 H   0  0  0  0  0  0  0  0  0  0  0  0  # atno 10167 bound_to 10162
  157.5458  130.8729  149.8888 H   0  0  0  0  0  0  0  0  0  0  0  0  # atno 10718 bound_to 10713
  152.9938  135.5515  154.5967 H   0  0  0  0  0  0  0  0  0  0  0  0  # atno 10763 bound_to 10752
  154.5317  135.2814  155.1176 H   0  0  0  0  0  0  0  0  0  0  0  0  # atno 10764 bound_to 10752
  154.2488  135.6402  153.5286 H   0  0  0  0  0  0  0  0  0  0  0  0  # atno 10765 bound_to 10752
  140.1533  134.4433  155.8366 H   0  0  0  0  0  0  0  0  0  0  0  0  # atno 11005 bound_to 11000
  146.3412  139.9112  142.8780 LP  0  0  0  0  0  0  0  0  0  0  0  0  # atno 17320 bound_to 7965
  145.2396  141.0004  143.3943 LP  0  0  0  0  0  0  0  0  0  0  0  0  # atno 17321 bound_to 7965
  140.6447  143.8819  150.6725 LP  0  0  0  0  0  0  0  0  0  0  0  0  # atno 17342 bound_to 10162
  140.2164  143.3843  152.1677 LP  0  0  0  0  0  0  0  0  0  0  0  0  # atno 17343 bound_to 10162
  156.0534  130.3713  150.1148 LP  0  0  0  0  0  0  0  0  0  0  0  0  # atno 17370 bound_to 10713
  156.9324  130.9718  151.3530 LP  0  0  0  0  0  0  0  0  0  0  0  0  # atno 17371 bound_to 10713
  141.2201  133.6882  156.7462 LP  0  0  0  0  0  0  0  0  0  0  0  0  # atno 17394 bound_to 11000
  140.2577  134.8491  157.3729 LP  0  0  0  0  0  0  0  0  0  0  0  0  # atno 17395 bound_to 11000

$$$$
