AV-unprocessed.smi:2051|AV-procd|sdf|8327|dock1
  -GOLD-   2272010593D 1   1.00000     0.00000
 Structure written by MMmdl.
 33 34  0  0  0  0  0  0  0  0  1 V2000
  149.8769  140.7186  157.2599 O   0  0  0  0  0  0  0  0  0  0  0  0
  150.4058  141.7215  156.7774 C   0  0  0  0  0  0  0  0  0  0  0  0
  149.9288  142.3049  155.4391 C   0  0  0  0  0  0  0  0  0  0  0  0
  148.9676  141.4448  154.7284 N   0  0  0  0  0  0  0  0  0  0  0  0
  147.7036  141.9981  154.4426 C   0  0  0  0  0  0  0  0  0  0  0  0
  146.7518  141.3018  153.8013 C   0  0  0  0  0  0  0  0  0  0  0  0
  147.0506  139.9477  153.3997 C   0  0  0  0  0  0  0  0  0  0  0  0
  148.2555  139.4075  153.6707 C   0  0  0  0  0  0  0  0  0  0  0  0
  149.2977  140.1641  154.3746 C   0  0  0  0  0  0  0  0  0  0  0  0
  150.3991  139.6766  154.6303 O   0  0  0  0  0  0  0  0  0  0  0  0
  151.4106  142.3794  157.3745 N   0  0  0  0  0  0  0  0  0  0  0  0
  152.0154  142.0138  158.6502 C   0  0  0  0  0  0  0  0  0  0  0  0
  151.9386  143.1638  159.6686 C   0  0  1  0  0  0  0  0  0  0  0  0
  152.5387  144.4772  159.1659 C   0  0  0  0  0  0  0  0  0  0  0  0
  151.7534  145.5482  159.9105 C   0  0  0  0  0  0  0  0  0  0  0  0
  150.6210  144.7781  160.5936 C   0  0  0  0  0  0  0  0  0  0  0  0
  150.5910  143.5229  159.9316 O   0  0  0  0  0  0  0  0  0  0  0  0
  149.4901  143.2848  155.6320 H   0  0  0  0  0  0  0  0  0  0  0  0
  150.7968  142.5026  154.8071 H   0  0  0  0  0  0  0  0  0  0  0  0
  147.5582  143.0134  154.7826 H   0  0  0  0  0  0  0  0  0  0  0  0
  145.7873  141.7417  153.5944 H   0  0  0  0  0  0  0  0  0  0  0  0
  146.3044  139.3649  152.8802 H   0  0  0  0  0  0  0  0  0  0  0  0
  148.4612  138.3928  153.3631 H   0  0  0  0  0  0  0  0  0  0  0  0
  151.7817  143.1977  156.9140 H   0  0  0  0  0  0  0  0  0  0  0  0
  151.5253  141.1237  159.0482 H   0  0  0  0  0  0  0  0  0  0  0  0
  153.0555  141.7406  158.4699 H   0  0  0  0  0  0  0  0  0  0  0  0
  152.4191  142.8809  160.6072 H   0  0  0  0  0  0  0  0  0  0  0  0
  153.6123  144.5363  159.3466 H   0  0  0  0  0  0  0  0  0  0  0  0
  152.3741  144.5868  158.0932 H   0  0  0  0  0  0  0  0  0  0  0  0
  152.3685  146.0732  160.6421 H   0  0  0  0  0  0  0  0  0  0  0  0
  151.3610  146.2871  159.2107 H   0  0  0  0  0  0  0  0  0  0  0  0
  150.8460  144.6211  161.6497 H   0  0  0  0  0  0  0  0  0  0  0  0
  149.6610  145.2898  160.5225 H   0  0  0  0  0  0  0  0  0  0  0  0
  1  2  2  0  0  0  0
  2  3  1  0  0  0  0
  2 11  1  0  0  0  0
  3  4  1  0  0  0  0
  3 18  1  0  0  0  0
  3 19  1  0  0  0  0
  4  9  1  0  0  0  0
  4  5  1  0  0  0  0
  5  6  2  0  0  0  0
  5 20  1  0  0  0  0
  6  7  1  0  0  0  0
  6 21  1  0  0  0  0
  7  8  2  0  0  0  0
  7 22  1  0  0  0  0
  8  9  1  0  0  0  0
  8 23  1  0  0  0  0
  9 10  2  0  0  0  0
 11 12  1  0  0  0  0
 11 24  1  0  0  0  0
 12 13  1  0  0  0  0
 12 25  1  0  0  0  0
 12 26  1  0  0  0  0
 13 17  1  0  0  0  0
 13 14  1  0  0  0  0
 13 27  1  0  0  0  0
 14 15  1  0  0  0  0
 14 28  1  0  0  0  0
 14 29  1  0  0  0  0
 15 16  1  0  0  0  0
 15 30  1  0  0  0  0
 15 31  1  0  0  0  0
 16 17  1  0  0  0  0
 16 32  1  0  0  0  0
 16 33  1  0  0  0  0
M  END
> <s_m_source_file>
AV-unprocessed.smi

> <i_m_source_file_index>
2051

> <i_lp_mmshare_version>
43012

> <i_f3d_flags>
0

> <s_epik_input>
TzFbQ0gyXVtDSDJdW0NIMl1bQ0BIXTFbQ0gyXVtOSF1DKD1PKVtDSDJdbjJbY0hdW2NIXVtjSF1bY0hdYzI9Tw==

> <s_epik_cmdline>
J2VwaWtfcHl0aG9uJywgJy1waCcsICc3LjAnLCAnLXRuJywgJzgnLCAnLW1hJywgJzIwMCcsICctbWV0YWxfYmluZGluZycsICctaW1hZScsICc8aW5maWxlLm1hZT4nLCAnLW9tYWUnLCAnPG91dGZpbGUubWFlPic=

> <r_lp_tautomer_probability>
1

> <r_epik_Ionization_Penalty>
3.94187e-07

> <r_epik_Ionization_Penalty_Charging>
3.67328e-07

> <r_epik_Ionization_Penalty_Neutral>
2.6859e-08

> <r_epik_State_Penalty>
-0

> <r_epik_Charging_Adjusted_Penalty>
3.67328e-07

> <i_epik_Tot_Q>
0

> <i_epik_Tot_abs_Q>
0

> <r_epik_Metal_State_Penalty>
-0

> <b_epik_Metal_Only>
0

> <s_lp_Force_Field>
OPLS_2005

> <r_lp_Energy>
26.6962

> <b_lp_Chiralities_Consistent>
1

> <s_lp_Variant>
AV-unprocessed.smi:2051-2

> <Gold.Version>
5.8.1

> <Gold.Id.Protein>
6NUR|6NUR_protein|mol2

> <Gold.PLP.Fitness>
40.0296

> <Gold.PLP.PLP>
-34.1700

> <Gold.PLP.part.hbond>
-1.8565

> <Gold.PLP.part.metal>
0.0000

> <Gold.PLP.part.buried>
2.4443

> <Gold.PLP.part.nonpolar>
-35.1148

> <Gold.PLP.part.repulsive>
0.2687

> <Gold.PLP.ligand.clash>
0.0000

> <Gold.PLP.ligand.torsion>
0.0877

> <Gold.PLP.Chemscore.Hbond>
1.0000

> <Gold.PLP.Chemscore.CHOScore>
1.0000

> <Gold.PLP.Chemscore.Metal>
0.0000

> <Gold.Chemscore.Hbonds>
donor molecule, donor type, donor heavy atom, donor atom, acceptor molecule, acceptor atom, score
      P1  H  7989  7998       L1    10  0.94
      L1  C     5    20       P1  8028  1.00

> <Gold.PLP.Chemscore.Internal.Correction>
0.0350

> <Gold.Rescore>
     Score         DG    S(hbond)    S(metal)    S(lipo)     H(rot)  DE(clash)    DE(int)     intcor
     12.66     -14.60       0.98        0.00      86.99       1.69       1.78       0.16       ----

> <Gold.Chemscore.Fitness>
12.6616

> <Gold.Chemscore.DG>
-14.6043

> <Gold.Chemscore.ZeroCoef>
-5.4800

> <Gold.Chemscore.Hbond>
0.9827

> <Gold.Chemscore.Metal>
0.0000

> <Gold.Chemscore.Lipo>
86.9903

> <Gold.Chemscore.Internal_Hbond>
0.0000

> <Gold.Chemscore.DEClash>
1.7825

> <Gold.Chemscore.DEInternal>
0.1601

> <Gold.Chemscore.Rot>
1.6936

> <Gold.Chemscore.Internal.Correction>
   9.000000E+99

> <Gold.Chemscore.Hbonds>
donor molecule, donor type, donor heavy atom, donor atom, acceptor molecule, acceptor atom, score
      P1  H  7989  7998       L1    10  0.27

> <Gold.Chemscore.Hbond.Weighted>
-3.2821

> <Gold.Chemscore.Metal.Weighted>
-0.0000

> <Gold.Chemscore.Lipo.Weighted>
-10.1779

> <Gold.Chemscore.Internal_Hbond.Weighted>
0.0000

> <Gold.Chemscore.DEClash.Weighted>
1.7825

> <Gold.Chemscore.DEInternal.Weighted>
0.1601

> <Gold.Chemscore.Rot.Weighted>
4.3357

> <Gold.Chemscore.Internal.Correction.Weighted>
   9.000000E+99

> <Gold.Protein.RotatedTorsions>
[ 6907 6896 6895 6894 ] final -169.25 input  -60.11 | X-H torsion
[ 7974 7965 7964 7962 ] final -162.90 input  175.53 | X-H torsion
[ 8008 7997 7996 7995 ] final   45.35 input   59.86 | X-H torsion
[ 10167 10162 10161 10158 ] final   74.43 input  -65.29 | X-H torsion
[ 10718 10713 10712 10709 ] final  142.94 input   66.30 | X-H torsion
[ 10763 10752 10751 10750 ] final  -22.24 input  -60.55 | X-H torsion
[ 11005 11000 10999 10996 ] final  129.87 input  -57.11 | X-H torsion

> <Gold.Protein.ActiveResidues>
 VAL166  LYS551  ARG553  GLY616  TRP617  ASP618  TYR619  PRO620  LYS621  CYS622 
 ASP623  PHE694  ASN695  SER759  ASP760  ASP761  ALA762  ILE779  LEU786  VAL792 
 PHE793  MET794  SER795  GLU796  ALA797  LYS798  CYS799  TRP800  GLU811  SER814 

> <Gold.Protein.RotatedAtoms>
  151.4886  133.3530  159.2849 H   0  0  0  0  0  0  0  0  0  0  0  0  # atno 6907 bound_to 6896
  150.8850  134.8248  159.7263 H   0  0  0  0  0  0  0  0  0  0  0  0  # atno 6908 bound_to 6896
  152.4787  134.4788  159.9711 H   0  0  0  0  0  0  0  0  0  0  0  0  # atno 6909 bound_to 6896
  144.7343  140.3186  143.6175 H   0  0  0  0  0  0  0  0  0  0  0  0  # atno 7974 bound_to 7965
  155.3344  140.3404  155.4239 H   0  0  0  0  0  0  0  0  0  0  0  0  # atno 8008 bound_to 7997
  156.1845  140.1676  156.8247 H   0  0  0  0  0  0  0  0  0  0  0  0  # atno 8009 bound_to 7997
  154.5371  140.0733  156.8429 H   0  0  0  0  0  0  0  0  0  0  0  0  # atno 8010 bound_to 7997
  140.0138  144.5593  150.7637 H   0  0  0  0  0  0  0  0  0  0  0  0  # atno 10167 bound_to 10162
  157.3747  131.0984  151.0795 H   0  0  0  0  0  0  0  0  0  0  0  0  # atno 10718 bound_to 10713
  153.6488  135.6982  153.5216 H   0  0  0  0  0  0  0  0  0  0  0  0  # atno 10763 bound_to 10752
  153.2723  135.4211  155.0999 H   0  0  0  0  0  0  0  0  0  0  0  0  # atno 10764 bound_to 10752
  154.8481  135.3581  154.6033 H   0  0  0  0  0  0  0  0  0  0  0  0  # atno 10765 bound_to 10752
  139.9640  134.9595  156.9211 H   0  0  0  0  0  0  0  0  0  0  0  0  # atno 11005 bound_to 11000
  145.7592  139.1819  143.2277 LP  0  0  0  0  0  0  0  0  0  0  0  0  # atno 17320 bound_to 7965
  146.1000  140.7555  142.9554 LP  0  0  0  0  0  0  0  0  0  0  0  0  # atno 17321 bound_to 7965
  140.7370  143.2760  151.3739 LP  0  0  0  0  0  0  0  0  0  0  0  0  # atno 17342 bound_to 10162
  139.6186  144.0952  152.2370 LP  0  0  0  0  0  0  0  0  0  0  0  0  # atno 17343 bound_to 10162
  157.1886  130.6341  149.5696 LP  0  0  0  0  0  0  0  0  0  0  0  0  # atno 17370 bound_to 10713
  155.9763  130.4730  150.6517 LP  0  0  0  0  0  0  0  0  0  0  0  0  # atno 17371 bound_to 10713
  140.5438  134.0694  155.7349 LP  0  0  0  0  0  0  0  0  0  0  0  0  # atno 17394 bound_to 11000
  141.1318  133.9288  157.2518 LP  0  0  0  0  0  0  0  0  0  0  0  0  # atno 17395 bound_to 11000

$$$$
