AV-unprocessed.smi:1643|AV-procd|sdf|6582|dock2
  -GOLD-   22720 7273D 1   1.00000     0.00000
 Structure written by MMmdl.
 54 56  0  0  0  0  0  0  0  0  2 V2000
  147.0886  133.7093  160.5312 C   0  0  0  0  0  0  0  0  0  0  0  0
  147.0784  135.2074  160.2161 C   0  0  0  0  0  0  0  0  0  0  0  0
  147.2481  135.9989  161.1439 O   0  0  0  0  0  0  0  0  0  0  0  0
  146.8799  135.6107  158.9383 N   0  0  0  0  0  0  0  0  0  0  0  0
  146.7312  134.6593  157.8313 C   0  0  0  0  0  0  0  0  0  0  0  0
  148.0983  134.3571  157.1968 C   0  0  0  0  0  0  0  0  0  0  0  0
  148.8717  135.6009  156.7102 C   0  0  0  0  0  0  0  0  0  0  0  0
  149.3393  136.4731  157.7972 N   0  0  0  0  0  0  0  0  0  0  0  0
  150.6126  137.1261  157.4841 C   0  0  0  0  0  0  0  0  0  0  0  0
  150.5426  138.1986  156.3783 C   0  0  2  0  0  0  0  0  0  0  0  0
  150.5584  137.5487  155.1223 O   0  0  0  0  0  0  0  0  0  0  0  0
  151.7375  139.1674  156.4523 C   0  0  0  0  0  0  0  0  0  0  0  0
  151.3536  140.5017  156.9301 N   0  0  0  0  0  0  0  0  0  0  0  0
  150.5606  141.4440  156.3522 C   0  0  0  0  0  0  0  0  0  0  0  0
  150.5092  142.5107  157.1977 N   0  3  0  0  0  0  0  0  0  0  0  0
  151.2811  142.2445  158.3312 C   0  0  0  0  0  0  0  0  0  0  0  0
  151.5401  143.0135  159.4596 C   0  0  0  0  0  0  0  0  0  0  0  0
  152.3761  142.4466  160.4483 C   0  0  0  0  0  0  0  0  0  0  0  0
  152.6831  143.2625  161.6925 C   0  0  0  0  0  0  0  0  0  0  0  0
  152.9180  141.1447  160.2883 C   0  0  0  0  0  0  0  0  0  0  0  0
  153.8119  140.5434  161.3597 C   0  0  0  0  0  0  0  0  0  0  0  0
  152.6429  140.3787  159.1330 C   0  0  0  0  0  0  0  0  0  0  0  0
  151.8224  140.9549  158.1667 C   0  0  0  0  0  0  0  0  0  0  0  0
  148.3417  137.4930  158.1567 C   0  0  0  0  0  0  0  0  0  0  0  0
  146.9138  137.0092  158.4965 C   0  0  0  0  0  0  0  0  0  0  0  0
  146.1623  133.2349  160.2078 H   0  0  0  0  0  0  0  0  0  0  0  0
  147.1867  133.5444  161.6047 H   0  0  0  0  0  0  0  0  0  0  0  0
  147.9287  133.2170  160.0412 H   0  0  0  0  0  0  0  0  0  0  0  0
  146.2677  133.7312  158.1694 H   0  0  0  0  0  0  0  0  0  0  0  0
  146.0516  135.0495  157.0729 H   0  0  0  0  0  0  0  0  0  0  0  0
  148.7166  133.8061  157.9067 H   0  0  0  0  0  0  0  0  0  0  0  0
  147.9461  133.6843  156.3523 H   0  0  0  0  0  0  0  0  0  0  0  0
  149.7163  135.2312  156.1320 H   0  0  0  0  0  0  0  0  0  0  0  0
  148.2732  136.1701  155.9975 H   0  0  0  0  0  0  0  0  0  0  0  0
  151.0181  137.5674  158.3959 H   0  0  0  0  0  0  0  0  0  0  0  0
  151.3424  136.3774  157.1711 H   0  0  0  0  0  0  0  0  0  0  0  0
  149.6211  138.7746  156.4472 H   0  0  0  0  0  0  0  0  0  0  0  0
  150.7270  136.6296  155.2669 H   0  0  0  0  0  0  0  0  0  0  0  0
  152.5184  138.7776  157.1065 H   0  0  0  0  0  0  0  0  0  0  0  0
  152.1921  139.2889  155.4680 H   0  0  0  0  0  0  0  0  0  0  0  0
  150.0591  141.3578  155.3989 H   0  0  0  0  0  0  0  0  0  0  0  0
  151.1213  144.0023  159.5761 H   0  0  0  0  0  0  0  0  0  0  0  0
  153.7590  143.3925  161.8112 H   0  0  0  0  0  0  0  0  0  0  0  0
  152.2929  142.7655  162.5809 H   0  0  0  0  0  0  0  0  0  0  0  0
  152.2328  144.2541  161.6404 H   0  0  0  0  0  0  0  0  0  0  0  0
  154.0986  139.5207  161.1126 H   0  0  0  0  0  0  0  0  0  0  0  0
  153.2981  140.5204  162.3210 H   0  0  0  0  0  0  0  0  0  0  0  0
  154.7247  141.1296  161.4678 H   0  0  0  0  0  0  0  0  0  0  0  0
  153.0543  139.3877  159.0100 H   0  0  0  0  0  0  0  0  0  0  0  0
  148.7149  138.0378  159.0246 H   0  0  0  0  0  0  0  0  0  0  0  0
  148.2721  138.2360  157.3606 H   0  0  0  0  0  0  0  0  0  0  0  0
  146.2908  137.1284  157.6097 H   0  0  0  0  0  0  0  0  0  0  0  0
  146.4559  137.6744  159.2290 H   0  0  0  0  0  0  0  0  0  0  0  0
  149.9833  143.3553  157.0126 H   0  0  0  0  0  0  0  0  0  0  0  0
  1  2  1  0  0  0  0
  1 26  1  0  0  0  0
  1 27  1  0  0  0  0
  1 28  1  0  0  0  0
  2  3  2  0  0  0  0
  2  4  1  0  0  0  0
  4 25  1  0  0  0  0
  4  5  1  0  0  0  0
  5  6  1  0  0  0  0
  5 29  1  0  0  0  0
  5 30  1  0  0  0  0
  6  7  1  0  0  0  0
  6 31  1  0  0  0  0
  6 32  1  0  0  0  0
  7  8  1  0  0  0  0
  7 33  1  0  0  0  0
  7 34  1  0  0  0  0
  8  9  1  0  0  0  0
  8 24  1  0  0  0  0
  9 10  1  0  0  0  0
  9 35  1  0  0  0  0
  9 36  1  0  0  0  0
 10 11  1  0  0  0  0
 10 12  1  0  0  0  0
 10 37  1  0  0  0  0
 11 38  1  0  0  0  0
 12 13  1  0  0  0  0
 12 39  1  0  0  0  0
 12 40  1  0  0  0  0
 13 23  1  0  0  0  0
 13 14  1  0  0  0  0
 14 15  2  0  0  0  0
 14 41  1  0  0  0  0
 15 16  1  0  0  0  0
 15 54  1  0  0  0  0
 16 23  2  0  0  0  0
 16 17  1  0  0  0  0
 17 18  2  0  0  0  0
 17 42  1  0  0  0  0
 18 19  1  0  0  0  0
 18 20  1  0  0  0  0
 19 43  1  0  0  0  0
 19 44  1  0  0  0  0
 19 45  1  0  0  0  0
 20 21  1  0  0  0  0
 20 22  2  0  0  0  0
 21 46  1  0  0  0  0
 21 47  1  0  0  0  0
 21 48  1  0  0  0  0
 22 23  1  0  0  0  0
 22 49  1  0  0  0  0
 24 25  1  0  0  0  0
 24 50  1  0  0  0  0
 24 51  1  0  0  0  0
 25 52  1  0  0  0  0
 25 53  1  0  0  0  0
M  CHG  1  15   1
M  END
> <s_m_source_file>
AV-unprocessed.smi

> <i_m_source_file_index>
1643

> <i_lp_mmshare_version>
43012

> <i_f3d_flags>
0

> <s_epik_input>
W0NIM11DKD1PKU4xW0NIMl1bQ0gyXVtDSDJdTihbQ0gyXVtDSDJdMSlbQ0gyXVtDQEhdKFtPSF0pW0NIMl1uKFtjSF1uMiljKGMyMylbY0hdYyhbQ0gzXSljKFtjSF0zKVtDSDNd

> <s_epik_cmdline>
J2VwaWtfcHl0aG9uJywgJy1waCcsICc3LjAnLCAnLXRuJywgJzgnLCAnLW1hJywgJzIwMCcsICctbWV0YWxfYmluZGluZycsICctaW1hZScsICc8aW5maWxlLm1hZT4nLCAnLW9tYWUnLCAnPG91dGZpbGUubWFlPic=

> <r_epik_Ionization_Penalty>
2.25269

> <r_epik_Ionization_Penalty_Charging>
1.20735

> <r_epik_Ionization_Penalty_Neutral>
1.04533

> <r_epik_State_Penalty>
2.37869

> <r_epik_Charging_Adjusted_Penalty>
3.58604

> <i_epik_Tot_Q>
1

> <i_epik_Tot_abs_Q>
1

> <r_epik_Metal_State_Penalty>
6.40045

> <b_epik_Metal_Only>
0

> <s_lp_Force_Field>
OPLS_2005

> <r_lp_Energy>
52.9577

> <b_lp_Chiralities_Consistent>
1

> <s_lp_Variant>
AV-unprocessed.smi:1643-11

> <Gold.Version>
5.8.1

> <Gold.Id.Protein>
6NUR|6NUR_protein|mol2

> <Gold.PLP.Fitness>
55.4400

> <Gold.PLP.PLP>
-46.1807

> <Gold.PLP.part.hbond>
-3.0000

> <Gold.PLP.part.metal>
0.0000

> <Gold.PLP.part.buried>
-5.4581

> <Gold.PLP.part.nonpolar>
-36.6947

> <Gold.PLP.part.repulsive>
0.1237

> <Gold.PLP.ligand.clash>
0.0000

> <Gold.PLP.ligand.torsion>
0.9513

> <Gold.PLP.Chemscore.Hbond>
3.6612

> <Gold.PLP.Chemscore.CHOScore>
0.0000

> <Gold.PLP.Chemscore.Metal>
0.0000

> <Gold.Chemscore.Hbonds>
donor molecule, donor type, donor heavy atom, donor atom, acceptor molecule, acceptor atom, score
      L1  H    15    54       P1  8028  1.14

> <Gold.PLP.Chemscore.Internal.Correction>
0.1782

> <Gold.Rescore>
     Score         DG    S(hbond)    S(metal)    S(lipo)     H(rot)  DE(clash)    DE(int)     intcor
     19.67     -21.33       2.62        0.00     107.21       2.12       0.07       1.59       ----

> <Gold.Chemscore.Fitness>
19.6701

> <Gold.Chemscore.DG>
-21.3298

> <Gold.Chemscore.ZeroCoef>
-5.4800

> <Gold.Chemscore.Hbond>
2.6162

> <Gold.Chemscore.Metal>
0.0000

> <Gold.Chemscore.Lipo>
107.2125

> <Gold.Chemscore.Internal_Hbond>
0.0000

> <Gold.Chemscore.DEClash>
0.0713

> <Gold.Chemscore.DEInternal>
1.5885

> <Gold.Chemscore.Rot>
2.1220

> <Gold.Chemscore.Internal.Correction>
   9.000000E+99

> <Gold.Chemscore.Hbonds>
donor molecule, donor type, donor heavy atom, donor atom, acceptor molecule, acceptor atom, score
      L1  H    15    54       P1  8028  0.54

> <Gold.Chemscore.Hbond.Weighted>
-8.7381

> <Gold.Chemscore.Metal.Weighted>
-0.0000

> <Gold.Chemscore.Lipo.Weighted>
-12.5439

> <Gold.Chemscore.Internal_Hbond.Weighted>
0.0000

> <Gold.Chemscore.DEClash.Weighted>
0.0713

> <Gold.Chemscore.DEInternal.Weighted>
1.5885

> <Gold.Chemscore.Rot.Weighted>
5.4322

> <Gold.Chemscore.Internal.Correction.Weighted>
   9.000000E+99

> <Gold.Protein.RotatedTorsions>
[ 6907 6896 6895 6894 ] final  124.76 input  -60.11 | X-H torsion
[ 7974 7965 7964 7962 ] final  121.46 input  175.53 | X-H torsion
[ 8008 7997 7996 7995 ] final  143.95 input   59.86 | X-H torsion
[ 10167 10162 10161 10158 ] final   47.02 input  -65.29 | X-H torsion
[ 10718 10713 10712 10709 ] final  132.26 input   66.30 | X-H torsion
[ 10763 10752 10751 10750 ] final    1.69 input  -60.55 | X-H torsion
[ 11005 11000 10999 10996 ] final  -45.17 input  -57.11 | X-H torsion

> <Gold.Protein.ActiveResidues>
 VAL166  LYS551  ARG553  GLY616  TRP617  ASP618  TYR619  PRO620  LYS621  CYS622 
 ASP623  PHE694  ASN695  SER759  ASP760  ASP761  ALA762  ILE779  LEU786  VAL792 
 PHE793  MET794  SER795  GLU796  ALA797  LYS798  CYS799  TRP800  GLU811  SER814 

> <Gold.Protein.RotatedAtoms>
  152.4050  133.6876  159.6348 H   0  0  0  0  0  0  0  0  0  0  0  0  # atno 6907 bound_to 6896
  150.7936  133.8724  159.3271 H   0  0  0  0  0  0  0  0  0  0  0  0  # atno 6908 bound_to 6896
  151.6480  135.1006  160.0206 H   0  0  0  0  0  0  0  0  0  0  0  0  # atno 6909 bound_to 6896
  145.1191  139.3401  143.4723 H   0  0  0  0  0  0  0  0  0  0  0  0  # atno 7974 bound_to 7965
  156.2919  140.2249  156.4973 H   0  0  0  0  0  0  0  0  0  0  0  0  # atno 8008 bound_to 7997
  154.7719  140.0466  157.1080 H   0  0  0  0  0  0  0  0  0  0  0  0  # atno 8009 bound_to 7997
  154.9863  140.3084  155.4928 H   0  0  0  0  0  0  0  0  0  0  0  0  # atno 8010 bound_to 7997
  140.3079  144.2856  150.6205 H   0  0  0  0  0  0  0  0  0  0  0  0  # atno 10167 bound_to 10162
  157.4888  131.1089  150.9584 H   0  0  0  0  0  0  0  0  0  0  0  0  # atno 10718 bound_to 10713
  153.3049  135.6958  153.7169 H   0  0  0  0  0  0  0  0  0  0  0  0  # atno 10763 bound_to 10752
  153.6069  135.3452  155.2966 H   0  0  0  0  0  0  0  0  0  0  0  0  # atno 10764 bound_to 10752
  154.8560  135.4354  154.2171 H   0  0  0  0  0  0  0  0  0  0  0  0  # atno 10765 bound_to 10752
  141.0498  133.6747  156.2976 H   0  0  0  0  0  0  0  0  0  0  0  0  # atno 11005 bound_to 11000
  146.3522  140.1143  142.8602 LP  0  0  0  0  0  0  0  0  0  0  0  0  # atno 17320 bound_to 7965
  145.0760  140.9189  143.4853 LP  0  0  0  0  0  0  0  0  0  0  0  0  # atno 17321 bound_to 7965
  140.5594  143.2194  151.7791 LP  0  0  0  0  0  0  0  0  0  0  0  0  # atno 17342 bound_to 10162
  139.4900  144.4369  151.9809 LP  0  0  0  0  0  0  0  0  0  0  0  0  # atno 17343 bound_to 10162
  157.0293  130.5705  149.5341 LP  0  0  0  0  0  0  0  0  0  0  0  0  # atno 17370 bound_to 10713
  156.0162  130.5256  150.8140 LP  0  0  0  0  0  0  0  0  0  0  0  0  # atno 17371 bound_to 10713
  140.6077  134.5491  157.5528 LP  0  0  0  0  0  0  0  0  0  0  0  0  # atno 17394 bound_to 11000
  139.9341  134.7908  156.0850 LP  0  0  0  0  0  0  0  0  0  0  0  0  # atno 17395 bound_to 11000

$$$$
