AV-unprocessed.smi:148|AV-procd|sdf|1211|dock7
  -GOLD-   2262018383D 1   1.00000     0.00000
 Structure written by MMmdl.
 63 67  0  0  0  0  0  0  0  0  1 V2000
  142.3580  140.4018  155.4361 O   0  0  0  0  0  0  0  0  0  0  0  0
  141.9617  141.7042  155.8122 C   0  0  0  0  0  0  0  0  0  0  0  0
  143.1723  142.5137  156.3341 C   0  0  1  0  0  0  0  0  0  0  0  0
  144.4089  142.2800  155.4309 C   0  0  0  0  0  0  0  0  0  0  0  0
  145.6524  142.1718  156.1728 N   0  0  0  0  0  0  0  0  0  0  0  0
  145.8391  142.4168  157.5147 C   0  0  0  0  0  0  0  0  0  0  0  0
  147.0590  142.2464  157.9459 N   0  0  0  0  0  0  0  0  0  0  0  0
  147.7677  141.8629  156.8136 C   0  0  0  0  0  0  0  0  0  0  0  0
  149.1260  141.5243  156.5553 C   0  0  0  0  0  0  0  0  0  0  0  0
  150.1076  141.5115  157.4846 N   0  0  0  0  0  0  0  0  0  0  0  0
  150.3273  142.8635  157.9977 C   0  0  0  0  0  0  0  0  0  0  0  0
  151.2434  142.8523  159.2274 C   0  0  0  0  0  0  0  0  0  0  0  0
  152.5620  142.1463  158.8986 C   0  0  0  0  0  0  0  0  0  0  0  0
  152.2821  140.7310  158.3757 C   0  0  0  0  0  0  0  0  0  0  0  0
  151.3230  140.7431  157.1543 C   0  0  1  0  0  0  0  0  0  0  0  0
  151.0059  139.3127  156.5981 C   0  0  2  0  0  0  0  0  0  0  0  0
  150.6267  138.2853  157.6905 C   0  0  0  0  0  0  0  0  0  0  0  0
  151.5914  137.0988  157.5512 C   0  0  0  0  0  0  0  0  0  0  0  0
  152.7724  137.6237  156.7369 C   0  0  0  0  0  0  0  0  0  0  0  0
  152.1219  138.6229  155.7823 C   0  0  2  0  0  0  0  0  0  0  0  0
  153.0499  139.4946  155.1682 O   0  0  0  0  0  0  0  0  0  0  0  0
  149.4677  141.1795  155.2897 N   0  0  0  0  0  0  0  0  0  0  0  0
  148.5421  141.1779  154.3257 C   0  0  0  0  0  0  0  0  0  0  0  0
  147.2438  141.4766  154.4136 N   0  0  0  0  0  0  0  0  0  0  0  0
  146.8977  141.8136  155.6892 C   0  0  0  0  0  0  0  0  0  0  0  0
  142.8640  144.0225  156.5461 C   0  0  2  0  0  0  0  0  0  0  0  0
  142.4083  144.7825  155.2990 C   0  0  0  0  0  0  0  0  0  0  0  0
  143.3605  145.9744  155.2190 C   0  0  0  0  0  0  0  0  0  0  0  0
  143.7802  146.1606  156.5605 O   0  0  0  0  0  0  0  0  0  0  0  0
  144.0253  144.8679  157.0890 C   0  0  0  0  0  0  0  0  0  0  0  0
  142.4206  140.3658  154.4939 H   0  0  0  0  0  0  0  0  0  0  0  0
  141.5011  142.1905  154.9526 H   0  0  0  0  0  0  0  0  0  0  0  0
  141.1875  141.6032  156.5713 H   0  0  0  0  0  0  0  0  0  0  0  0
  143.4152  142.1197  157.3224 H   0  0  0  0  0  0  0  0  0  0  0  0
  144.2911  141.3644  154.8502 H   0  0  0  0  0  0  0  0  0  0  0  0
  144.5077  143.0910  154.7084 H   0  0  0  0  0  0  0  0  0  0  0  0
  145.0358  142.7209  158.1701 H   0  0  0  0  0  0  0  0  0  0  0  0
  150.7701  143.4811  157.2148 H   0  0  0  0  0  0  0  0  0  0  0  0
  149.3728  143.3217  158.2618 H   0  0  0  0  0  0  0  0  0  0  0  0
  151.4352  143.8723  159.5607 H   0  0  0  0  0  0  0  0  0  0  0  0
  150.7457  142.3409  160.0523 H   0  0  0  0  0  0  0  0  0  0  0  0
  153.1104  142.7161  158.1475 H   0  0  0  0  0  0  0  0  0  0  0  0
  153.1968  142.1017  159.7839 H   0  0  0  0  0  0  0  0  0  0  0  0
  153.2333  140.2689  158.1185 H   0  0  0  0  0  0  0  0  0  0  0  0
  151.8644  140.1358  159.1871 H   0  0  0  0  0  0  0  0  0  0  0  0
  151.8315  141.2950  156.3636 H   0  0  0  0  0  0  0  0  0  0  0  0
  150.1655  139.4003  155.9091 H   0  0  0  0  0  0  0  0  0  0  0  0
  150.7006  138.7133  158.6896 H   0  0  0  0  0  0  0  0  0  0  0  0
  149.5931  137.9564  157.5768 H   0  0  0  0  0  0  0  0  0  0  0  0
  151.8997  136.6966  158.5166 H   0  0  0  0  0  0  0  0  0  0  0  0
  151.1006  136.2942  157.0021 H   0  0  0  0  0  0  0  0  0  0  0  0
  153.4840  138.1206  157.3961 H   0  0  0  0  0  0  0  0  0  0  0  0
  153.3048  136.8292  156.2131 H   0  0  0  0  0  0  0  0  0  0  0  0
  151.6500  138.0513  154.9811 H   0  0  0  0  0  0  0  0  0  0  0  0
  153.3102  139.1212  154.3402 H   0  0  0  0  0  0  0  0  0  0  0  0
  148.8915  140.8961  153.3433 H   0  0  0  0  0  0  0  0  0  0  0  0
  142.0408  144.1134  157.2555 H   0  0  0  0  0  0  0  0  0  0  0  0
  142.4195  144.1898  154.3846 H   0  0  0  0  0  0  0  0  0  0  0  0
  141.3847  145.1335  155.4377 H   0  0  0  0  0  0  0  0  0  0  0  0
  144.2257  145.7365  154.5977 H   0  0  0  0  0  0  0  0  0  0  0  0
  142.8847  146.8687  154.8163 H   0  0  0  0  0  0  0  0  0  0  0  0
  144.0568  144.8840  158.1786 H   0  0  0  0  0  0  0  0  0  0  0  0
  144.9945  144.5231  156.7295 H   0  0  0  0  0  0  0  0  0  0  0  0
  1  2  1  0  0  0  0
  1 31  1  0  0  0  0
  2  3  1  0  0  0  0
  2 32  1  0  0  0  0
  2 33  1  0  0  0  0
  3  4  1  0  0  0  0
  3 26  1  0  0  0  0
  3 34  1  0  0  0  0
  4  5  1  0  0  0  0
  4 35  1  0  0  0  0
  4 36  1  0  0  0  0
  5 25  1  0  0  0  0
  5  6  1  0  0  0  0
  6  7  2  0  0  0  0
  6 37  1  0  0  0  0
  7  8  1  0  0  0  0
  8 25  2  0  0  0  0
  8  9  1  0  0  0  0
  9 10  1  0  0  0  0
  9 22  2  0  0  0  0
 10 15  1  0  0  0  0
 10 11  1  0  0  0  0
 11 12  1  0  0  0  0
 11 38  1  0  0  0  0
 11 39  1  0  0  0  0
 12 13  1  0  0  0  0
 12 40  1  0  0  0  0
 12 41  1  0  0  0  0
 13 14  1  0  0  0  0
 13 42  1  0  0  0  0
 13 43  1  0  0  0  0
 14 15  1  0  0  0  0
 14 44  1  0  0  0  0
 14 45  1  0  0  0  0
 15 16  1  0  0  0  0
 15 46  1  0  0  0  0
 16 20  1  0  0  0  0
 16 17  1  0  0  0  0
 16 47  1  0  0  0  0
 17 18  1  0  0  0  0
 17 48  1  0  0  0  0
 17 49  1  0  0  0  0
 18 19  1  0  0  0  0
 18 50  1  0  0  0  0
 18 51  1  0  0  0  0
 19 20  1  0  0  0  0
 19 52  1  0  0  0  0
 19 53  1  0  0  0  0
 20 21  1  0  0  0  0
 20 54  1  0  0  0  0
 21 55  1  0  0  0  0
 22 23  1  0  0  0  0
 23 24  2  0  0  0  0
 23 56  1  0  0  0  0
 24 25  1  0  0  0  0
 26 30  1  0  0  0  0
 26 27  1  0  0  0  0
 26 57  1  0  0  0  0
 27 28  1  0  0  0  0
 27 58  1  0  0  0  0
 27 59  1  0  0  0  0
 28 29  1  0  0  0  0
 28 60  1  0  0  0  0
 28 61  1  0  0  0  0
 29 30  1  0  0  0  0
 30 62  1  0  0  0  0
 30 63  1  0  0  0  0
M  END
> <s_m_source_file>
AV-unprocessed.smi

> <i_m_source_file_index>
148

> <i_lp_mmshare_version>
43012

> <i_f3d_flags>
0

> <s_epik_input>
W0NIMl0xT1tDSDJdW0NIMl1bQ0BIXTFbQ0BIXShbQ0gyXVtPSF0pW0NIMl1uKFtjSF1uMiljKGMyMyluW2NIXW5jM040W0NIMl1bQ0gyXVtDSDJdW0NIMl1bQ0BIXTRbQ0BASF01W0NIMl1bQ0gyXVtDSDJdW0NASF01W09IXQ==

> <s_epik_cmdline>
J2VwaWtfcHl0aG9uJywgJy1waCcsICc3LjAnLCAnLXRuJywgJzgnLCAnLW1hJywgJzIwMCcsICctbWV0YWxfYmluZGluZycsICctaW1hZScsICc8aW5maWxlLm1hZT4nLCAnLW9tYWUnLCAnPG91dGZpbGUubWFlPic=

> <r_lp_tautomer_probability>
1

> <r_epik_Ionization_Penalty>
0.00556303

> <r_epik_Ionization_Penalty_Charging>
0

> <r_epik_Ionization_Penalty_Neutral>
0.00556303

> <r_epik_State_Penalty>
0.00401767

> <r_epik_Charging_Adjusted_Penalty>
0.00401767

> <i_epik_Tot_Q>
0

> <i_epik_Tot_abs_Q>
0

> <r_epik_Metal_State_Penalty>
-0

> <b_epik_Metal_Only>
0

> <s_lp_Force_Field>
OPLS_2005

> <r_lp_Energy>
71.509

> <b_lp_Chiralities_Consistent>
1

> <s_lp_Variant>
AV-unprocessed.smi:148-10

> <Gold.Version>
5.8.1

> <Gold.Id.Protein>
6NUR|6NUR_protein|mol2

> <Gold.PLP.Fitness>
43.0619

> <Gold.PLP.PLP>
-36.0561

> <Gold.PLP.part.hbond>
-2.9365

> <Gold.PLP.part.metal>
0.0000

> <Gold.PLP.part.buried>
-3.7448

> <Gold.PLP.part.nonpolar>
-29.3702

> <Gold.PLP.part.repulsive>
0.5446

> <Gold.PLP.ligand.clash>
0.0000

> <Gold.PLP.ligand.torsion>
1.2032

> <Gold.PLP.Chemscore.Hbond>
2.0000

> <Gold.PLP.Chemscore.CHOScore>
1.0000

> <Gold.PLP.Chemscore.Metal>
0.0000

> <Gold.Chemscore.Hbonds>
donor molecule, donor type, donor heavy atom, donor atom, acceptor molecule, acceptor atom, score
      L1  H     1    31       P1 10175  0.29
      P1  H  7997  8009       L1    21  1.00
      L1  C    23    56       P1  7957  1.00

> <Gold.PLP.Chemscore.Internal.Correction>
0.4122

> <Gold.Rescore>
     Score         DG    S(hbond)    S(metal)    S(lipo)     H(rot)  DE(clash)    DE(int)     intcor
     10.82     -13.81       1.92        0.00      89.09       3.32       0.27       2.72       ----

> <Gold.Chemscore.Fitness>
10.8230

> <Gold.Chemscore.DG>
-13.8073

> <Gold.Chemscore.ZeroCoef>
-5.4800

> <Gold.Chemscore.Hbond>
1.9173

> <Gold.Chemscore.Metal>
0.0000

> <Gold.Chemscore.Lipo>
89.0905

> <Gold.Chemscore.Internal_Hbond>
0.0000

> <Gold.Chemscore.DEClash>
0.2656

> <Gold.Chemscore.DEInternal>
2.7187

> <Gold.Chemscore.Rot>
3.3203

> <Gold.Chemscore.Internal.Correction>
   9.000000E+99

> <Gold.Chemscore.Hbonds>
donor molecule, donor type, donor heavy atom, donor atom, acceptor molecule, acceptor atom, score
      L1  H     1    31       P1 10175  0.25
      P1  H  7997  8009       L1    21  0.60

> <Gold.Chemscore.Hbond.Weighted>
-6.4037

> <Gold.Chemscore.Metal.Weighted>
-0.0000

> <Gold.Chemscore.Lipo.Weighted>
-10.4236

> <Gold.Chemscore.Internal_Hbond.Weighted>
0.0000

> <Gold.Chemscore.DEClash.Weighted>
0.2656

> <Gold.Chemscore.DEInternal.Weighted>
2.7187

> <Gold.Chemscore.Rot.Weighted>
8.5000

> <Gold.Chemscore.Internal.Correction.Weighted>
   9.000000E+99

> <Gold.Protein.RotatedTorsions>
[ 6907 6896 6895 6894 ] final  -77.14 input  -60.11 | X-H torsion
[ 7974 7965 7964 7962 ] final  100.92 input  175.53 | X-H torsion
[ 8008 7997 7996 7995 ] final -135.23 input   59.86 | X-H torsion
[ 10167 10162 10161 10158 ] final  -42.50 input  -65.29 | X-H torsion
[ 10718 10713 10712 10709 ] final   -9.61 input   66.30 | X-H torsion
[ 10763 10752 10751 10750 ] final  -47.68 input  -60.55 | X-H torsion
[ 11005 11000 10999 10996 ] final  105.09 input  -57.11 | X-H torsion

> <Gold.Protein.ActiveResidues>
 VAL166  LYS551  ARG553  GLY616  TRP617  ASP618  TYR619  PRO620  LYS621  CYS622 
 ASP623  PHE694  ASN695  SER759  ASP760  ASP761  ALA762  ILE779  LEU786  VAL792 
 PHE793  MET794  SER795  GLU796  ALA797  LYS798  CYS799  TRP800  GLU811  SER814 

> <Gold.Protein.RotatedAtoms>
  150.7007  134.4467  159.5316 H   0  0  0  0  0  0  0  0  0  0  0  0  # atno 6907 bound_to 6896
  152.2167  134.8448  160.0500 H   0  0  0  0  0  0  0  0  0  0  0  0  # atno 6908 bound_to 6896
  151.9314  133.3577  159.3969 H   0  0  0  0  0  0  0  0  0  0  0  0  # atno 6909 bound_to 6896
  145.3791  139.2383  143.3413 H   0  0  0  0  0  0  0  0  0  0  0  0  # atno 7974 bound_to 7965
  155.3752  140.0490  157.3045 H   0  0  0  0  0  0  0  0  0  0  0  0  # atno 8008 bound_to 7997
  154.5110  140.2191  155.9120 H   0  0  0  0  0  0  0  0  0  0  0  0  # atno 8009 bound_to 7997
  156.1582  140.3122  155.8767 H   0  0  0  0  0  0  0  0  0  0  0  0  # atno 8010 bound_to 7997
  140.6967  143.3034  151.3217 H   0  0  0  0  0  0  0  0  0  0  0  0  # atno 10167 bound_to 10162
  156.6855  130.5049  149.5958 H   0  0  0  0  0  0  0  0  0  0  0  0  # atno 10718 bound_to 10713
  154.0654  135.6612  153.4817 H   0  0  0  0  0  0  0  0  0  0  0  0  # atno 10763 bound_to 10752
  153.0411  135.5144  154.7618 H   0  0  0  0  0  0  0  0  0  0  0  0  # atno 10764 bound_to 10752
  154.6668  135.3023  154.9762 H   0  0  0  0  0  0  0  0  0  0  0  0  # atno 10765 bound_to 10752
  139.8798  134.9324  156.5461 H   0  0  0  0  0  0  0  0  0  0  0  0  # atno 11005 bound_to 11000
  146.2850  140.4456  142.8761 LP  0  0  0  0  0  0  0  0  0  0  0  0  # atno 17320 bound_to 7965
  144.8520  140.7015  143.6162 LP  0  0  0  0  0  0  0  0  0  0  0  0  # atno 17321 bound_to 7965
  139.6431  144.0502  152.2570 LP  0  0  0  0  0  0  0  0  0  0  0  0  # atno 17342 bound_to 10162
  140.0013  144.6291  150.7727 LP  0  0  0  0  0  0  0  0  0  0  0  0  # atno 17343 bound_to 10162
  156.1836  130.6514  151.0980 LP  0  0  0  0  0  0  0  0  0  0  0  0  # atno 17370 bound_to 10713
  157.7028  131.0769  150.6765 LP  0  0  0  0  0  0  0  0  0  0  0  0  # atno 17371 bound_to 10713
  140.8274  133.8305  155.8952 LP  0  0  0  0  0  0  0  0  0  0  0  0  # atno 17394 bound_to 11000
  140.9361  134.1960  157.4830 LP  0  0  0  0  0  0  0  0  0  0  0  0  # atno 17395 bound_to 11000

$$$$
