AV-unprocessed.smi:37|AV-procd|sdf|324|dock5
  -GOLD-   2262016153D 1   1.00000     0.00000
 Structure written by MMmdl.
 43 44  0  0  0  0  0  0  0  0  2 V2000
  145.4616  132.3358  151.0863 C   0  0  0  0  0  0  0  0  0  0  0  0
  146.6432  133.2488  151.4463 C   0  0  0  0  0  0  0  0  0  0  0  0
  146.9691  133.2702  152.9414 C   0  0  0  0  0  0  0  0  0  0  0  0
  147.3349  132.2646  153.5530 O   0  0  0  0  0  0  0  0  0  0  0  0
  146.8053  134.4910  153.4716 O   0  0  0  0  0  0  0  0  0  0  0  0
  146.9961  134.6829  154.8632 C   0  0  0  0  0  0  0  0  0  0  0  0
  148.3922  134.1815  155.2598 C   0  0  1  0  0  0  0  0  0  0  0  0
  149.4078  134.7282  154.4181 O   0  0  0  0  0  0  0  0  0  0  0  0
  150.5710  134.9946  155.1503 C   0  0  1  0  0  0  0  0  0  0  0  0
  150.8240  136.4910  155.1684 N   0  0  0  0  0  0  0  0  0  0  0  0
  149.9435  137.3840  154.5773 C   0  0  0  0  0  0  0  0  0  0  0  0
  150.1620  138.7138  154.6171 C   0  0  0  0  0  0  0  0  0  0  0  0
  149.2826  139.5537  154.0440 F   0  0  0  0  0  0  0  0  0  0  0  0
  151.3525  139.2313  155.2878 C   0  0  0  0  0  0  0  0  0  0  0  0
  151.5445  140.4456  155.3247 O   0  0  0  0  0  0  0  0  0  0  0  0
  152.2091  138.3307  155.8504 N   0  5  0  0  0  0  0  0  0  0  0  0
  151.9907  136.9836  155.8150 C   0  0  0  0  0  0  0  0  0  0  0  0
  152.7562  136.1643  156.3235 O   0  0  0  0  0  0  0  0  0  0  0  0
  150.3337  134.4751  156.5767 C   0  0  2  0  0  0  0  0  0  0  0  0
  150.9487  132.5845  156.7054 Br  0  0  0  0  0  0  0  0  0  0  0  0
  148.8197  134.5228  156.6914 C   0  0  1  0  0  0  0  0  0  0  0  0
  148.3908  135.8368  157.0321 O   0  0  0  0  0  0  0  0  0  0  0  0
  148.8924  136.4725  158.1036 C   0  0  0  0  0  0  0  0  0  0  0  0
  149.6719  135.9946  158.9277 O   0  0  0  0  0  0  0  0  0  0  0  0
  148.4222  137.9230  158.1976 C   0  0  0  0  0  0  0  0  0  0  0  0
  149.5731  138.9285  158.0510 C   0  0  0  0  0  0  0  0  0  0  0  0
  145.2708  132.3621  150.0134 H   0  0  0  0  0  0  0  0  0  0  0  0
  144.5470  132.6488  151.5912 H   0  0  0  0  0  0  0  0  0  0  0  0
  145.6620  131.2994  151.3602 H   0  0  0  0  0  0  0  0  0  0  0  0
  147.5325  132.9291  150.9026 H   0  0  0  0  0  0  0  0  0  0  0  0
  146.4282  134.2686  151.1266 H   0  0  0  0  0  0  0  0  0  0  0  0
  146.8713  135.7343  155.1243 H   0  0  0  0  0  0  0  0  0  0  0  0
  146.2363  134.1178  155.4050 H   0  0  0  0  0  0  0  0  0  0  0  0
  148.4285  133.0969  155.1494 H   0  0  0  0  0  0  0  0  0  0  0  0
  151.4429  134.5645  154.6550 H   0  0  0  0  0  0  0  0  0  0  0  0
  149.0548  137.0286  154.0797 H   0  0  0  0  0  0  0  0  0  0  0  0
  150.8640  135.0515  157.3353 H   0  0  0  0  0  0  0  0  0  0  0  0
  148.4304  133.7985  157.4085 H   0  0  0  0  0  0  0  0  0  0  0  0
  147.6778  138.1002  157.4210 H   0  0  0  0  0  0  0  0  0  0  0  0
  147.9207  138.0672  159.1552 H   0  0  0  0  0  0  0  0  0  0  0  0
  149.1905  139.9490  158.0463 H   0  0  0  0  0  0  0  0  0  0  0  0
  150.1193  138.7756  157.1196 H   0  0  0  0  0  0  0  0  0  0  0  0
  150.2818  138.8486  158.8765 H   0  0  0  0  0  0  0  0  0  0  0  0
  1  2  1  0  0  0  0
  1 27  1  0  0  0  0
  1 28  1  0  0  0  0
  1 29  1  0  0  0  0
  2  3  1  0  0  0  0
  2 30  1  0  0  0  0
  2 31  1  0  0  0  0
  3  4  2  0  0  0  0
  3  5  1  0  0  0  0
  5  6  1  0  0  0  0
  6  7  1  0  0  0  0
  6 32  1  0  0  0  0
  6 33  1  0  0  0  0
  7 21  1  0  0  0  0
  7  8  1  0  0  0  0
  7 34  1  0  0  0  0
  8  9  1  0  0  0  0
  9 10  1  0  0  0  0
  9 19  1  0  0  0  0
  9 35  1  0  0  0  0
 10 17  1  0  0  0  0
 10 11  1  0  0  0  0
 11 12  2  0  0  0  0
 11 36  1  0  0  0  0
 12 13  1  0  0  0  0
 12 14  1  0  0  0  0
 14 15  2  0  0  0  0
 14 16  1  0  0  0  0
 16 17  1  0  0  0  0
 17 18  2  0  0  0  0
 19 20  1  0  0  0  0
 19 21  1  0  0  0  0
 19 37  1  0  0  0  0
 21 22  1  0  0  0  0
 21 38  1  0  0  0  0
 22 23  1  0  0  0  0
 23 24  2  0  0  0  0
 23 25  1  0  0  0  0
 25 26  1  0  0  0  0
 25 39  1  0  0  0  0
 25 40  1  0  0  0  0
 26 41  1  0  0  0  0
 26 42  1  0  0  0  0
 26 43  1  0  0  0  0
M  CHG  1  16  -1
M  END
> <s_m_source_file>
AV-unprocessed.smi

> <i_m_source_file_index>
37

> <i_lp_mmshare_version>
43012

> <i_f3d_flags>
0

> <s_epik_input>
W0NIM11bQ0gyXUMoPU8pT1tDSDJdW0NAQEhdMU9bQ0BASF0objJbY0hdYyhGKWMoPU8pW25IXWMyPU8pW0NAQEhdKEJyKVtDQEhdMU9DKD1PKVtDSDJdW0NIM10=

> <s_epik_cmdline>
J2VwaWtfcHl0aG9uJywgJy1waCcsICc3LjAnLCAnLXRuJywgJzgnLCAnLW1hJywgJzIwMCcsICctbWV0YWxfYmluZGluZycsICctaW1hZScsICc8aW5maWxlLm1hZT4nLCAnLW9tYWUnLCAnPG91dGZpbGUubWFlPic=

> <r_epik_Ionization_Penalty>
1.08158

> <r_epik_Ionization_Penalty_Charging>
9.05154e-09

> <r_epik_Ionization_Penalty_Neutral>
1.08158

> <r_epik_State_Penalty>
1.13706

> <r_epik_Charging_Adjusted_Penalty>
1.13706

> <i_epik_Tot_Q>
-1

> <i_epik_Tot_abs_Q>
1

> <r_epik_Metal_State_Penalty>
0.00343535

> <b_epik_Metal_Only>
0

> <s_epik_Chemistry_Notes>
This compound has an ester and may undergo hydrolysis at high or low pH. This compound contains an acetal/aminal-like group ( X-CH(R)-Y where X, Y are N, S, or O) that may be acid/base labile, releasing an aldehyde.

> <s_lp_Force_Field>
OPLS_2005

> <r_lp_Energy>
30.833

> <b_lp_Chiralities_Consistent>
1

> <s_lp_Variant>
AV-unprocessed.smi:37-22

> <Gold.Version>
5.8.1

> <Gold.Id.Protein>
6NUR|6NUR_protein|mol2

> <Gold.PLP.Fitness>
39.4557

> <Gold.PLP.PLP>
-28.4368

> <Gold.PLP.part.hbond>
-3.0000

> <Gold.PLP.part.metal>
0.0000

> <Gold.PLP.part.buried>
-2.9478

> <Gold.PLP.part.nonpolar>
-24.8075

> <Gold.PLP.part.repulsive>
2.3249

> <Gold.PLP.ligand.clash>
0.0000

> <Gold.PLP.ligand.torsion>
0.2112

> <Gold.PLP.Chemscore.Hbond>
2.7752

> <Gold.PLP.Chemscore.CHOScore>
1.0000

> <Gold.PLP.Chemscore.Metal>
0.0000

> <Gold.Chemscore.Hbonds>
donor molecule, donor type, donor heavy atom, donor atom, acceptor molecule, acceptor atom, score
      P1  H  6896  6908       L1    24  1.00
      P1  H  7989  7998       L1    15  0.85
      P1  H 10752 10764       L1    18  0.80
      L1  C    11    36       P1  7948  0.89

> <Gold.PLP.Chemscore.Internal.Correction>
0.1157

> <Gold.Rescore>
     Score         DG    S(hbond)    S(metal)    S(lipo)     H(rot)  DE(clash)    DE(int)     intcor
      5.35      -9.78       2.31        0.00      42.12       3.27       0.09       4.34       ----

> <Gold.Chemscore.Fitness>
5.3494

> <Gold.Chemscore.DG>
-9.7752

> <Gold.Chemscore.ZeroCoef>
-5.4800

> <Gold.Chemscore.Hbond>
2.3146

> <Gold.Chemscore.Metal>
0.0000

> <Gold.Chemscore.Lipo>
42.1164

> <Gold.Chemscore.Internal_Hbond>
0.0000

> <Gold.Chemscore.DEClash>
0.0902

> <Gold.Chemscore.DEInternal>
4.3355

> <Gold.Chemscore.Rot>
3.2669

> <Gold.Chemscore.Internal.Correction>
   9.000000E+99

> <Gold.Chemscore.Hbonds>
donor molecule, donor type, donor heavy atom, donor atom, acceptor molecule, acceptor atom, score
      P1  H  6896  6908       L1    24  1.00
      P1  H  7989  7998       L1    15  0.29
      P1  H 10752 10764       L1    18  0.58

> <Gold.Chemscore.Hbond.Weighted>
-7.7309

> <Gold.Chemscore.Metal.Weighted>
-0.0000

> <Gold.Chemscore.Lipo.Weighted>
-4.9276

> <Gold.Chemscore.Internal_Hbond.Weighted>
0.0000

> <Gold.Chemscore.DEClash.Weighted>
0.0902

> <Gold.Chemscore.DEInternal.Weighted>
4.3355

> <Gold.Chemscore.Rot.Weighted>
8.3634

> <Gold.Chemscore.Internal.Correction.Weighted>
   9.000000E+99

> <Gold.Protein.RotatedTorsions>
[ 6907 6896 6895 6894 ] final -174.98 input  -60.11 | X-H torsion
[ 7974 7965 7964 7962 ] final  -40.37 input  175.53 | X-H torsion
[ 8008 7997 7996 7995 ] final   73.22 input   59.86 | X-H torsion
[ 10167 10162 10161 10158 ] final  -45.55 input  -65.29 | X-H torsion
[ 10718 10713 10712 10709 ] final  -75.44 input   66.30 | X-H torsion
[ 10763 10752 10751 10750 ] final   -8.08 input  -60.55 | X-H torsion
[ 11005 11000 10999 10996 ] final -149.18 input  -57.11 | X-H torsion

> <Gold.Protein.ActiveResidues>
 VAL166  LYS551  ARG553  GLY616  TRP617  ASP618  TYR619  PRO620  LYS621  CYS622 
 ASP623  PHE694  ASN695  SER759  ASP760  ASP761  ALA762  ILE779  LEU786  VAL792 
 PHE793  MET794  SER795  GLU796  ALA797  LYS798  CYS799  TRP800  GLU811  SER814 

> <Gold.Protein.RotatedAtoms>
  151.5811  133.3377  159.3008 H   0  0  0  0  0  0  0  0  0  0  0  0  # atno 6907 bound_to 6896
  150.8313  134.7570  159.6867 H   0  0  0  0  0  0  0  0  0  0  0  0  # atno 6908 bound_to 6896
  152.4396  134.5624  159.9949 H   0  0  0  0  0  0  0  0  0  0  0  0  # atno 6909 bound_to 6896
  146.0311  140.6730  142.9132 H   0  0  0  0  0  0  0  0  0  0  0  0  # atno 7974 bound_to 7965
  155.7804  140.3482  155.5294 H   0  0  0  0  0  0  0  0  0  0  0  0  # atno 8008 bound_to 7997
  155.8734  140.0990  157.1555 H   0  0  0  0  0  0  0  0  0  0  0  0  # atno 8009 bound_to 7997
  154.4019  140.1336  156.4094 H   0  0  0  0  0  0  0  0  0  0  0  0  # atno 8010 bound_to 7997
  140.6853  143.2874  151.3655 H   0  0  0  0  0  0  0  0  0  0  0  0  # atno 10167 bound_to 10162
  156.0207  130.4441  150.3043 H   0  0  0  0  0  0  0  0  0  0  0  0  # atno 10718 bound_to 10713
  153.4355  135.7013  153.6203 H   0  0  0  0  0  0  0  0  0  0  0  0  # atno 10763 bound_to 10752
  153.4600  135.3738  155.2333 H   0  0  0  0  0  0  0  0  0  0  0  0  # atno 10764 bound_to 10752
  154.8726  135.4017  154.3745 H   0  0  0  0  0  0  0  0  0  0  0  0  # atno 10765 bound_to 10752
  140.7535  134.3380  157.5120 H   0  0  0  0  0  0  0  0  0  0  0  0  # atno 11005 bound_to 11000
  144.7031  140.3737  143.7140 LP  0  0  0  0  0  0  0  0  0  0  0  0  # atno 17320 bound_to 7965
  145.7039  139.1668  143.2577 LP  0  0  0  0  0  0  0  0  0  0  0  0  # atno 17321 bound_to 7965
  139.6207  144.0912  152.2389 LP  0  0  0  0  0  0  0  0  0  0  0  0  # atno 17342 bound_to 10162
  140.0355  144.6047  150.7453 LP  0  0  0  0  0  0  0  0  0  0  0  0  # atno 17343 bound_to 10162
  157.1146  131.0230  151.3034 LP  0  0  0  0  0  0  0  0  0  0  0  0  # atno 17370 bound_to 10713
  157.4677  130.7690  149.7294 LP  0  0  0  0  0  0  0  0  0  0  0  0  # atno 17371 bound_to 10713
  139.8783  134.9157  156.3136 LP  0  0  0  0  0  0  0  0  0  0  0  0  # atno 17394 bound_to 11000
  140.9729  133.7316  156.0561 LP  0  0  0  0  0  0  0  0  0  0  0  0  # atno 17395 bound_to 11000

$$$$
