AV-unprocessed.smi:456|AV-procd|sdf|2615|dock4
  -GOLD-   2262023 13D 1   1.00000     0.00000
 Structure written by MMmdl.
 32 34  0  0  0  0  0  0  0  0  1 V2000
  149.0086  142.3927  156.8318 O   0  0  0  0  0  0  0  0  0  0  0  0
  150.2680  141.8458  157.1652 C   0  0  2  0  0  0  0  0  0  0  0  0
  151.3008  142.9902  157.1879 C   0  0  0  0  0  0  0  0  0  0  0  0
  151.3914  143.6212  158.4925 N   0  0  0  0  0  0  0  0  0  0  0  0
  150.8203  144.7803  158.8723 C   0  0  0  0  0  0  0  0  0  0  0  0
  151.0179  145.1747  160.1268 N   0  0  0  0  0  0  0  0  0  0  0  0
  151.8115  144.1529  160.6196 C   0  0  0  0  0  0  0  0  0  0  0  0
  152.3690  143.9632  161.9043 C   0  0  0  0  0  0  0  0  0  0  0  0
  153.1539  142.8247  162.1821 C   0  0  0  0  0  0  0  0  0  0  0  0
  153.6795  142.6579  163.4190 F   0  0  0  0  0  0  0  0  0  0  0  0
  153.3938  141.8607  161.1805 C   0  0  0  0  0  0  0  0  0  0  0  0
  154.1468  140.7695  161.4555 F   0  0  0  0  0  0  0  0  0  0  0  0
  152.8510  142.0297  159.8926 C   0  0  0  0  0  0  0  0  0  0  0  0
  152.0668  143.1661  159.6204 C   0  0  0  0  0  0  0  0  0  0  0  0
  150.6737  140.7191  156.2246 C   0  0  0  0  0  0  0  0  0  0  0  0
  151.9133  140.0667  156.4006 C   0  0  0  0  0  0  0  0  0  0  0  0
  152.3102  139.0451  155.5162 C   0  0  0  0  0  0  0  0  0  0  0  0
  151.4694  138.6687  154.4514 C   0  0  0  0  0  0  0  0  0  0  0  0
  150.2313  139.3144  154.2714 C   0  0  0  0  0  0  0  0  0  0  0  0
  149.8344  140.3369  155.1547 C   0  0  0  0  0  0  0  0  0  0  0  0
  149.1302  143.2981  156.5896 H   0  0  0  0  0  0  0  0  0  0  0  0
  150.1693  141.4395  158.1729 H   0  0  0  0  0  0  0  0  0  0  0  0
  152.2889  142.6302  156.8981 H   0  0  0  0  0  0  0  0  0  0  0  0
  151.0256  143.7585  156.4638 H   0  0  0  0  0  0  0  0  0  0  0  0
  150.2210  145.3650  158.1895 H   0  0  0  0  0  0  0  0  0  0  0  0
  152.1920  144.6941  162.6790 H   0  0  0  0  0  0  0  0  0  0  0  0
  153.0308  141.2914  159.1256 H   0  0  0  0  0  0  0  0  0  0  0  0
  152.5694  140.3551  157.2088 H   0  0  0  0  0  0  0  0  0  0  0  0
  153.2615  138.5523  155.6526 H   0  0  0  0  0  0  0  0  0  0  0  0
  151.7749  137.8865  153.7721 H   0  0  0  0  0  0  0  0  0  0  0  0
  149.5872  139.0280  153.4531 H   0  0  0  0  0  0  0  0  0  0  0  0
  148.8876  140.8340  155.0019 H   0  0  0  0  0  0  0  0  0  0  0  0
  1  2  1  0  0  0  0
  1 21  1  0  0  0  0
  2  3  1  0  0  0  0
  2 15  1  0  0  0  0
  2 22  1  0  0  0  0
  3  4  1  0  0  0  0
  3 23  1  0  0  0  0
  3 24  1  0  0  0  0
  4 14  1  0  0  0  0
  4  5  1  0  0  0  0
  5  6  2  0  0  0  0
  5 25  1  0  0  0  0
  6  7  1  0  0  0  0
  7 14  2  0  0  0  0
  7  8  1  0  0  0  0
  8  9  2  0  0  0  0
  8 26  1  0  0  0  0
  9 10  1  0  0  0  0
  9 11  1  0  0  0  0
 11 12  1  0  0  0  0
 11 13  2  0  0  0  0
 13 14  1  0  0  0  0
 13 27  1  0  0  0  0
 15 20  1  0  0  0  0
 15 16  2  0  0  0  0
 16 17  1  0  0  0  0
 16 28  1  0  0  0  0
 17 18  2  0  0  0  0
 17 29  1  0  0  0  0
 18 19  1  0  0  0  0
 18 30  1  0  0  0  0
 19 20  2  0  0  0  0
 19 31  1  0  0  0  0
 20 32  1  0  0  0  0
M  END
> <s_m_source_file>
AV-unprocessed.smi

> <i_m_source_file_index>
456

> <i_lp_mmshare_version>
43012

> <i_f3d_flags>
0

> <s_epik_input>
W2NIXTFbY0hdW2NIXVtjSF1bY0hdYzFbQ0BIXShbT0hdKVtDSDJdbihbY0hdbjIpYyhjMjMpW2NIXWMoRiljKEYpW2NIXTM=

> <s_epik_cmdline>
J2VwaWtfcHl0aG9uJywgJy1waCcsICc3LjAnLCAnLXRuJywgJzgnLCAnLW1hJywgJzIwMCcsICctbWV0YWxfYmluZGluZycsICctaW1hZScsICc8aW5maWxlLm1hZT4nLCAnLW9tYWUnLCAnPG91dGZpbGUubWFlPic=

> <r_epik_Ionization_Penalty>
0.0156354

> <r_epik_Ionization_Penalty_Charging>
0

> <r_epik_Ionization_Penalty_Neutral>
0.0156354

> <r_epik_State_Penalty>
0.0122974

> <r_epik_Charging_Adjusted_Penalty>
0.0122974

> <i_epik_Tot_Q>
0

> <i_epik_Tot_abs_Q>
0

> <r_epik_Metal_State_Penalty>
1.24258e-05

> <b_epik_Metal_Only>
0

> <s_lp_Force_Field>
OPLS_2005

> <r_lp_Energy>
11.2052

> <b_lp_Chiralities_Consistent>
1

> <s_lp_Variant>
AV-unprocessed.smi:456-1

> <Gold.Version>
5.8.1

> <Gold.Id.Protein>
6NUR|6NUR_protein|mol2

> <Gold.PLP.Fitness>
61.0506

> <Gold.PLP.PLP>
-56.4153

> <Gold.PLP.part.hbond>
-1.0000

> <Gold.PLP.part.metal>
0.0000

> <Gold.PLP.part.buried>
-5.9720

> <Gold.PLP.part.nonpolar>
-49.9952

> <Gold.PLP.part.repulsive>
0.1812

> <Gold.PLP.ligand.clash>
0.0000

> <Gold.PLP.ligand.torsion>
0.6719

> <Gold.PLP.Chemscore.Hbond>
1.0000

> <Gold.PLP.Chemscore.CHOScore>
0.9881

> <Gold.PLP.Chemscore.Metal>
0.0000

> <Gold.Chemscore.Hbonds>
donor molecule, donor type, donor heavy atom, donor atom, acceptor molecule, acceptor atom, score
      L1  H     1    21       P1  8028  1.00
      L1  C     5    25       P1  8028  0.03
      L1  C     5    25       P1  8029  0.92

> <Gold.PLP.Chemscore.Internal.Correction>
0.0147

> <Gold.Rescore>
     Score         DG    S(hbond)    S(metal)    S(lipo)     H(rot)  DE(clash)    DE(int)     intcor
     18.10     -18.80       1.00        0.00     128.58       1.98       0.07       0.62       ----

> <Gold.Chemscore.Fitness>
18.1047

> <Gold.Chemscore.DG>
-18.7968

> <Gold.Chemscore.ZeroCoef>
-5.4800

> <Gold.Chemscore.Hbond>
0.9988

> <Gold.Chemscore.Metal>
0.0000

> <Gold.Chemscore.Lipo>
128.5773

> <Gold.Chemscore.Internal_Hbond>
0.0000

> <Gold.Chemscore.DEClash>
0.0673

> <Gold.Chemscore.DEInternal>
0.6249

> <Gold.Chemscore.Rot>
1.9776

> <Gold.Chemscore.Internal.Correction>
   9.000000E+99

> <Gold.Chemscore.Hbonds>
donor molecule, donor type, donor heavy atom, donor atom, acceptor molecule, acceptor atom, score
      L1  H     1    21       P1  8028  0.97

> <Gold.Chemscore.Hbond.Weighted>
-3.3359

> <Gold.Chemscore.Metal.Weighted>
-0.0000

> <Gold.Chemscore.Lipo.Weighted>
-15.0435

> <Gold.Chemscore.Internal_Hbond.Weighted>
0.0000

> <Gold.Chemscore.DEClash.Weighted>
0.0673

> <Gold.Chemscore.DEInternal.Weighted>
0.6249

> <Gold.Chemscore.Rot.Weighted>
5.0626

> <Gold.Chemscore.Internal.Correction.Weighted>
   9.000000E+99

> <Gold.Protein.RotatedTorsions>
[ 6907 6896 6895 6894 ] final -174.54 input  -60.11 | X-H torsion
[ 7974 7965 7964 7962 ] final -127.71 input  175.53 | X-H torsion
[ 8008 7997 7996 7995 ] final  -50.85 input   59.86 | X-H torsion
[ 10167 10162 10161 10158 ] final   38.80 input  -65.29 | X-H torsion
[ 10718 10713 10712 10709 ] final -120.06 input   66.30 | X-H torsion
[ 10763 10752 10751 10750 ] final   46.74 input  -60.55 | X-H torsion
[ 11005 11000 10999 10996 ] final   21.52 input  -57.11 | X-H torsion

> <Gold.Protein.ActiveResidues>
 VAL166  LYS551  ARG553  GLY616  TRP617  ASP618  TYR619  PRO620  LYS621  CYS622 
 ASP623  PHE694  ASN695  SER759  ASP760  ASP761  ALA762  ILE779  LEU786  VAL792 
 PHE793  MET794  SER795  GLU796  ALA797  LYS798  CYS799  TRP800  GLU811  SER814 

> <Gold.Protein.RotatedAtoms>
  151.5740  133.3386  159.2994 H   0  0  0  0  0  0  0  0  0  0  0  0  # atno 6907 bound_to 6896
  150.8351  134.7624  159.6897 H   0  0  0  0  0  0  0  0  0  0  0  0  # atno 6908 bound_to 6896
  152.4429  134.5561  159.9932 H   0  0  0  0  0  0  0  0  0  0  0  0  # atno 6909 bound_to 6896
  144.9743  140.7577  143.4651 H   0  0  0  0  0  0  0  0  0  0  0  0  # atno 7974 bound_to 7965
  154.4070  140.1262  156.4734 H   0  0  0  0  0  0  0  0  0  0  0  0  # atno 8008 bound_to 7997
  155.7157  140.3493  155.4974 H   0  0  0  0  0  0  0  0  0  0  0  0  # atno 8009 bound_to 7997
  155.9260  140.1061  157.1160 H   0  0  0  0  0  0  0  0  0  0  0  0  # atno 8010 bound_to 7997
  140.3901  144.1864  150.6131 H   0  0  0  0  0  0  0  0  0  0  0  0  # atno 10167 bound_to 10162
  156.1229  130.6337  150.9494 H   0  0  0  0  0  0  0  0  0  0  0  0  # atno 10718 bound_to 10713
  152.9807  135.5998  154.3648 H   0  0  0  0  0  0  0  0  0  0  0  0  # atno 10763 bound_to 10752
  154.3327  135.2768  155.2465 H   0  0  0  0  0  0  0  0  0  0  0  0  # atno 10764 bound_to 10752
  154.4582  135.5972  153.6293 H   0  0  0  0  0  0  0  0  0  0  0  0  # atno 10765 bound_to 10752
  140.3907  134.1822  155.7662 H   0  0  0  0  0  0  0  0  0  0  0  0  # atno 11005 bound_to 11000
  145.2512  139.2031  143.4941 LP  0  0  0  0  0  0  0  0  0  0  0  0  # atno 17320 bound_to 7965
  146.3391  140.2426  142.8596 LP  0  0  0  0  0  0  0  0  0  0  0  0  # atno 17321 bound_to 7965
  140.4849  143.2367  151.8903 LP  0  0  0  0  0  0  0  0  0  0  0  0  # atno 17342 bound_to 10162
  139.4789  144.5230  151.8775 LP  0  0  0  0  0  0  0  0  0  0  0  0  # atno 17343 bound_to 10162
  157.6412  131.0910  150.8248 LP  0  0  0  0  0  0  0  0  0  0  0  0  # atno 17370 bound_to 10713
  156.8342  130.5026  149.5328 LP  0  0  0  0  0  0  0  0  0  0  0  0  # atno 17371 bound_to 10713
  141.1892  133.8244  157.0967 LP  0  0  0  0  0  0  0  0  0  0  0  0  # atno 17394 bound_to 11000
  140.0409  134.9855  157.0960 LP  0  0  0  0  0  0  0  0  0  0  0  0  # atno 17395 bound_to 11000

$$$$
