AV-unprocessed.smi:224|AV-procd|sdf|1714|dock10
  -GOLD-   2262020183D 1   1.00000     0.00000
 Structure written by MMmdl.
 56 59  0  0  0  0  0  0  0  0  2 V2000
  145.6591  132.3073  149.9709 C   0  0  0  0  0  0  0  0  0  0  0  0
  145.0148  133.5938  150.5030 C   0  0  1  0  0  0  0  0  0  0  0  0
  144.3426  134.2181  149.4273 O   0  0  0  0  0  0  0  0  0  0  0  0
  144.0129  133.3008  151.6394 C   0  0  0  0  0  0  0  0  0  0  0  0
  144.6388  133.1941  152.9864 N   0  3  1  0  0  0  0  0  0  0  0  0
  145.7979  132.2615  152.9918 C   0  0  0  0  0  0  0  0  0  0  0  0
  146.3300  132.0399  154.4191 C   0  0  0  0  0  0  0  0  0  0  0  0
  146.6119  133.3128  155.0710 N   0  0  0  0  0  0  0  0  0  0  0  0
  147.8704  133.8342  155.1044 C   0  0  0  0  0  0  0  0  0  0  0  0
  148.9024  132.9585  155.2273 N   0  0  0  0  0  0  0  0  0  0  0  0
  150.1659  133.3882  155.2612 C   0  0  0  0  0  0  0  0  0  0  0  0
  150.6209  134.6384  155.1911 N   0  0  0  0  0  0  0  0  0  0  0  0
  149.5978  135.5309  155.0723 C   0  0  0  0  0  0  0  0  0  0  0  0
  148.2064  135.2214  155.0173 C   0  0  0  0  0  0  0  0  0  0  0  0
  147.4799  136.4022  154.9001 N   0  0  0  0  0  0  0  0  0  0  0  0
  148.3816  137.3437  154.8738 C   0  0  0  0  0  0  0  0  0  0  0  0
  149.6816  136.9098  154.9841 N   0  0  0  0  0  0  0  0  0  0  0  0
  150.8777  137.7394  154.9872 C   0  0  0  0  0  0  0  0  0  0  0  0
  150.5840  139.2501  155.1444 C   0  0  2  0  0  0  0  0  0  0  0  0
  149.9739  139.7278  153.9572 O   0  0  0  0  0  0  0  0  0  0  0  0
  151.8388  140.0742  155.4025 C   0  0  0  0  0  0  0  0  0  0  0  0
  151.3029  141.2607  156.1923 C   0  0  0  0  0  0  0  0  0  0  0  0
  150.3374  140.6662  157.0436 O   0  0  0  0  0  0  0  0  0  0  0  0
  149.6797  139.6162  156.3396 C   0  0  0  0  0  0  0  0  0  0  0  0
  145.4726  134.2293  155.1033 C   0  0  0  0  0  0  0  0  0  0  0  0
  144.9210  134.4890  153.6842 C   0  0  1  0  0  0  0  0  0  0  0  0
  145.8336  135.4384  152.8790 C   0  0  0  0  0  0  0  0  0  0  0  0
  146.2103  131.7915  150.7578 H   0  0  0  0  0  0  0  0  0  0  0  0
  146.3619  132.5232  149.1652 H   0  0  0  0  0  0  0  0  0  0  0  0
  144.9098  131.6165  149.5825 H   0  0  0  0  0  0  0  0  0  0  0  0
  145.8147  134.2498  150.8443 H   0  0  0  0  0  0  0  0  0  0  0  0
  144.9818  134.5787  148.8326 H   0  0  0  0  0  0  0  0  0  0  0  0
  143.2771  134.1062  151.6607 H   0  0  0  0  0  0  0  0  0  0  0  0
  143.4471  132.3945  151.4230 H   0  0  0  0  0  0  0  0  0  0  0  0
  145.4992  131.3003  152.5723 H   0  0  0  0  0  0  0  0  0  0  0  0
  146.5816  132.6524  152.3432 H   0  0  0  0  0  0  0  0  0  0  0  0
  145.5680  131.5293  155.0088 H   0  0  0  0  0  0  0  0  0  0  0  0
  147.1938  131.3766  154.4288 H   0  0  0  0  0  0  0  0  0  0  0  0
  150.9199  132.6206  155.3568 H   0  0  0  0  0  0  0  0  0  0  0  0
  148.1215  138.3883  154.7799 H   0  0  0  0  0  0  0  0  0  0  0  0
  151.5293  137.3984  155.7927 H   0  0  0  0  0  0  0  0  0  0  0  0
  151.4210  137.5561  154.0592 H   0  0  0  0  0  0  0  0  0  0  0  0
  149.5652  138.9978  153.5175 H   0  0  0  0  0  0  0  0  0  0  0  0
  152.5357  139.5169  156.0301 H   0  0  0  0  0  0  0  0  0  0  0  0
  152.3693  140.3652  154.4948 H   0  0  0  0  0  0  0  0  0  0  0  0
  152.0777  141.7765  156.7598 H   0  0  0  0  0  0  0  0  0  0  0  0
  150.8168  141.9827  155.5343 H   0  0  0  0  0  0  0  0  0  0  0  0
  148.6849  139.9360  156.0255 H   0  0  0  0  0  0  0  0  0  0  0  0
  149.5515  138.7828  157.0291 H   0  0  0  0  0  0  0  0  0  0  0  0
  144.6959  133.7644  155.7117 H   0  0  0  0  0  0  0  0  0  0  0  0
  145.7013  135.1751  155.5945 H   0  0  0  0  0  0  0  0  0  0  0  0
  143.9735  135.0060  153.8291 H   0  0  0  0  0  0  0  0  0  0  0  0
  146.0455  136.3427  153.4498 H   0  0  0  0  0  0  0  0  0  0  0  0
  145.3664  135.7581  151.9478 H   0  0  0  0  0  0  0  0  0  0  0  0
  146.7914  134.9802  152.6333 H   0  0  0  0  0  0  0  0  0  0  0  0
  143.9452  132.7354  153.5592 H   0  0  0  0  0  0  0  0  0  0  0  0
  1  2  1  0  0  0  0
  1 28  1  0  0  0  0
  1 29  1  0  0  0  0
  1 30  1  0  0  0  0
  2  3  1  0  0  0  0
  2  4  1  0  0  0  0
  2 31  1  0  0  0  0
  3 32  1  0  0  0  0
  4  5  1  0  0  0  0
  4 33  1  0  0  0  0
  4 34  1  0  0  0  0
  5 26  1  0  0  0  0
  5  6  1  0  0  0  0
  5 56  1  0  0  0  0
  6  7  1  0  0  0  0
  6 35  1  0  0  0  0
  6 36  1  0  0  0  0
  7  8  1  0  0  0  0
  7 37  1  0  0  0  0
  7 38  1  0  0  0  0
  8  9  1  0  0  0  0
  8 25  1  0  0  0  0
  9 14  1  0  0  0  0
  9 10  2  0  0  0  0
 10 11  1  0  0  0  0
 11 12  2  0  0  0  0
 11 39  1  0  0  0  0
 12 13  1  0  0  0  0
 13 17  1  0  0  0  0
 13 14  2  0  0  0  0
 14 15  1  0  0  0  0
 15 16  2  0  0  0  0
 16 17  1  0  0  0  0
 16 40  1  0  0  0  0
 17 18  1  0  0  0  0
 18 19  1  0  0  0  0
 18 41  1  0  0  0  0
 18 42  1  0  0  0  0
 19 24  1  0  0  0  0
 19 20  1  0  0  0  0
 19 21  1  0  0  0  0
 20 43  1  0  0  0  0
 21 22  1  0  0  0  0
 21 44  1  0  0  0  0
 21 45  1  0  0  0  0
 22 23  1  0  0  0  0
 22 46  1  0  0  0  0
 22 47  1  0  0  0  0
 23 24  1  0  0  0  0
 24 48  1  0  0  0  0
 24 49  1  0  0  0  0
 25 26  1  0  0  0  0
 25 50  1  0  0  0  0
 25 51  1  0  0  0  0
 26 27  1  0  0  0  0
 26 52  1  0  0  0  0
 27 53  1  0  0  0  0
 27 54  1  0  0  0  0
 27 55  1  0  0  0  0
M  CHG  1   5   1
M  END
> <s_m_source_file>
AV-unprocessed.smi

> <i_m_source_file_index>
224

> <i_lp_mmshare_version>
43012

> <i_f3d_flags>
0

> <s_epik_input>
W0NIM11bQ0BIXShbT0hdKVtDSDJdTjFbQ0gyXVtDSDJdTihbQ0gyXVtDQEhdMVtDSDNdKWMobltjSF1uMiljKGMyMyluW2NIXW4zW0NIMl1bQ0BAXTQoW09IXSlbQ0gyXVtDSDJdT1tDSDJdNA==

> <s_epik_cmdline>
J2VwaWtfcHl0aG9uJywgJy1waCcsICc3LjAnLCAnLXRuJywgJzgnLCAnLW1hJywgJzIwMCcsICctbWV0YWxfYmluZGluZycsICctaW1hZScsICc8aW5maWxlLm1hZT4nLCAnLW9tYWUnLCAnPG91dGZpbGUubWFlPic=

> <r_lp_tautomer_probability>
1

> <r_epik_Ionization_Penalty>
0.00516958

> <r_epik_Ionization_Penalty_Charging>
0.00509693

> <r_epik_Ionization_Penalty_Neutral>
7.26542e-05

> <r_epik_State_Penalty>
-0

> <r_epik_Charging_Adjusted_Penalty>
0.00509693

> <i_epik_Tot_Q>
1

> <i_epik_Tot_abs_Q>
1

> <r_epik_Metal_State_Penalty>
-0

> <b_epik_Metal_Only>
0

> <s_lp_Force_Field>
OPLS_2005

> <r_lp_Energy>
50.9618

> <b_lp_Chiralities_Consistent>
1

> <s_lp_Variant>
AV-unprocessed.smi:224-8

> <Gold.Version>
5.8.1

> <Gold.Id.Protein>
6NUR|6NUR_protein|mol2

> <Gold.PLP.Fitness>
43.2439

> <Gold.PLP.PLP>
-32.7758

> <Gold.PLP.part.hbond>
-3.9742

> <Gold.PLP.part.metal>
0.0000

> <Gold.PLP.part.buried>
-5.5548

> <Gold.PLP.part.nonpolar>
-23.0882

> <Gold.PLP.part.repulsive>
0.1948

> <Gold.PLP.ligand.clash>
0.0135

> <Gold.PLP.ligand.torsion>
0.8650

> <Gold.PLP.Chemscore.Hbond>
3.9913

> <Gold.PLP.Chemscore.CHOScore>
0.0000

> <Gold.PLP.Chemscore.Metal>
0.0000

> <Gold.Chemscore.Hbonds>
donor molecule, donor type, donor heavy atom, donor atom, acceptor molecule, acceptor atom, score
      L1  H     3    32       P1  7921  1.00
      L1  H     5    56       P1 10957  2.00
      P1  H  7989  7998       L1    20  0.58

> <Gold.PLP.Chemscore.Internal.Correction>
0.2379

> <Gold.Rescore>
     Score         DG    S(hbond)    S(metal)    S(lipo)     H(rot)  DE(clash)    DE(int)     intcor
     10.13     -15.08       2.90        0.00      65.52       3.02       0.02       4.93       ----

> <Gold.Chemscore.Fitness>
10.1322

> <Gold.Chemscore.DG>
-15.0768

> <Gold.Chemscore.ZeroCoef>
-5.4800

> <Gold.Chemscore.Hbond>
2.8952

> <Gold.Chemscore.Metal>
0.0000

> <Gold.Chemscore.Lipo>
65.5196

> <Gold.Chemscore.Internal_Hbond>
0.0000

> <Gold.Chemscore.DEClash>
0.0195

> <Gold.Chemscore.DEInternal>
4.9251

> <Gold.Chemscore.Rot>
3.0231

> <Gold.Chemscore.Internal.Correction>
   9.000000E+99

> <Gold.Chemscore.Hbonds>
donor molecule, donor type, donor heavy atom, donor atom, acceptor molecule, acceptor atom, score
      L1  H     3    32       P1  7921  1.00
      L1  H     5    56       P1 10957  0.58
      P1  H  7989  7998       L1    20  0.05

> <Gold.Chemscore.Hbond.Weighted>
-9.6701

> <Gold.Chemscore.Metal.Weighted>
-0.0000

> <Gold.Chemscore.Lipo.Weighted>
-7.6658

> <Gold.Chemscore.Internal_Hbond.Weighted>
0.0000

> <Gold.Chemscore.DEClash.Weighted>
0.0195

> <Gold.Chemscore.DEInternal.Weighted>
4.9251

> <Gold.Chemscore.Rot.Weighted>
7.7391

> <Gold.Chemscore.Internal.Correction.Weighted>
   9.000000E+99

> <Gold.Protein.RotatedTorsions>
[ 6907 6896 6895 6894 ] final  -23.02 input  -60.11 | X-H torsion
[ 7974 7965 7964 7962 ] final   72.00 input  175.53 | X-H torsion
[ 8008 7997 7996 7995 ] final  158.96 input   59.86 | X-H torsion
[ 10167 10162 10161 10158 ] final   86.93 input  -65.29 | X-H torsion
[ 10718 10713 10712 10709 ] final  -67.37 input   66.30 | X-H torsion
[ 10763 10752 10751 10750 ] final   29.58 input  -60.55 | X-H torsion
[ 11005 11000 10999 10996 ] final  -98.53 input  -57.11 | X-H torsion

> <Gold.Protein.ActiveResidues>
 VAL166  LYS551  ARG553  GLY616  TRP617  ASP618  TYR619  PRO620  LYS621  CYS622 
 ASP623  PHE694  ASN695  SER759  ASP760  ASP761  ALA762  ILE779  LEU786  VAL792 
 PHE793  MET794  SER795  GLU796  ALA797  LYS798  CYS799  TRP800  GLU811  SER814 

> <Gold.Protein.RotatedAtoms>
  151.2101  135.0477  159.8907 H   0  0  0  0  0  0  0  0  0  0  0  0  # atno 6907 bound_to 6896
  152.5425  134.0754  159.8222 H   0  0  0  0  0  0  0  0  0  0  0  0  # atno 6908 bound_to 6896
  151.0907  133.5271  159.2647 H   0  0  0  0  0  0  0  0  0  0  0  0  # atno 6909 bound_to 6896
  145.7588  139.2791  143.1388 H   0  0  0  0  0  0  0  0  0  0  0  0  # atno 7974 bound_to 7965
  156.2269  140.1844  156.7340 H   0  0  0  0  0  0  0  0  0  0  0  0  # atno 8008 bound_to 7997
  154.5957  140.0644  156.9327 H   0  0  0  0  0  0  0  0  0  0  0  0  # atno 8009 bound_to 7997
  155.2260  140.3311  155.4312 H   0  0  0  0  0  0  0  0  0  0  0  0  # atno 8010 bound_to 7997
  139.8825  144.6432  150.8827 H   0  0  0  0  0  0  0  0  0  0  0  0  # atno 10167 bound_to 10162
  156.0561  130.4277  150.1845 H   0  0  0  0  0  0  0  0  0  0  0  0  # atno 10718 bound_to 10713
  153.0422  135.6485  154.0913 H   0  0  0  0  0  0  0  0  0  0  0  0  # atno 10763 bound_to 10752
  154.0618  135.2887  155.3325 H   0  0  0  0  0  0  0  0  0  0  0  0  # atno 10764 bound_to 10752
  154.6653  135.5376  153.8134 H   0  0  0  0  0  0  0  0  0  0  0  0  # atno 10765 bound_to 10752
  141.1341  133.8252  157.0852 H   0  0  0  0  0  0  0  0  0  0  0  0  # atno 11005 bound_to 11000
  146.0284  140.8281  142.9888 LP  0  0  0  0  0  0  0  0  0  0  0  0  # atno 17320 bound_to 7965
  144.6834  140.2732  143.7303 LP  0  0  0  0  0  0  0  0  0  0  0  0  # atno 17321 bound_to 7965
  140.7742  143.3574  151.1894 LP  0  0  0  0  0  0  0  0  0  0  0  0  # atno 17342 bound_to 10162
  139.7183  143.9265  152.2975 LP  0  0  0  0  0  0  0  0  0  0  0  0  # atno 17343 bound_to 10162
  156.9921  130.9896  151.3412 LP  0  0  0  0  0  0  0  0  0  0  0  0  # atno 17370 bound_to 10713
  157.5532  130.8196  149.8171 LP  0  0  0  0  0  0  0  0  0  0  0  0  # atno 17371 bound_to 10713
  140.0427  134.9846  157.0991 LP  0  0  0  0  0  0  0  0  0  0  0  0  # atno 17394 bound_to 11000
  140.4111  134.1980  155.7163 LP  0  0  0  0  0  0  0  0  0  0  0  0  # atno 17395 bound_to 11000

$$$$
