AV-unprocessed.smi:570|AV-procd|sdf|2962|dock7
  -GOLD-   2262023463D 1   1.00000     0.00000
 Structure written by MMmdl.
 39 40  0  0  0  0  0  0  0  0  2 V2000
  142.9741  142.1425  157.8813 C   0  0  0  0  0  0  0  0  0  0  0  0
  143.7224  141.0288  157.4272 O   0  0  0  0  0  0  0  0  0  0  0  0
  144.6940  141.3838  156.4521 C   0  0  0  0  0  0  0  0  0  0  0  0
  145.4825  140.1448  155.9785 C   0  0  0  0  0  0  0  0  0  0  0  0
  146.2137  139.3659  157.0917 C   0  0  0  0  0  0  0  0  0  0  0  0
  147.5946  139.8288  157.1907 N   0  5  0  0  0  0  0  0  0  0  0  0
  148.4249  139.9957  156.1196 C   0  0  0  0  0  0  0  0  0  0  0  0
  148.1350  140.1578  154.9288 O   0  0  0  0  0  0  0  0  0  0  0  0
  149.8865  139.9720  156.5107 C   0  0  0  0  0  0  0  0  0  0  0  0
  150.3224  140.9182  157.3817 N   0  0  0  0  0  0  0  0  0  0  0  0
  151.6110  140.9352  157.7361 C   0  0  0  0  0  0  0  0  0  0  0  0
  152.0207  141.9228  158.6417 N   0  0  0  0  0  0  0  0  0  0  0  0
  153.2869  141.8295  159.3721 C   0  0  0  0  0  0  0  0  0  0  0  0
  153.1738  142.5035  160.7500 C   0  0  0  0  0  0  0  0  0  0  0  0
  152.7353  143.8474  160.5943 O   0  0  0  0  0  0  0  0  0  0  0  0
  151.4452  143.9089  159.9984 C   0  0  0  0  0  0  0  0  0  0  0  0
  151.4882  143.2870  158.5924 C   0  0  0  0  0  0  0  0  0  0  0  0
  152.5363  140.0787  157.2895 N   0  0  0  0  0  0  0  0  0  0  0  0
  152.1360  139.1244  156.4249 C   0  0  0  0  0  0  0  0  0  0  0  0
  150.8009  139.0156  155.9910 C   0  0  0  0  0  0  0  0  0  0  0  0
  150.3651  137.7366  154.9085 Cl  0  0  0  0  0  0  0  0  0  0  0  0
  142.2482  141.8166  158.6263 H   0  0  0  0  0  0  0  0  0  0  0  0
  142.4281  142.6118  157.0621 H   0  0  0  0  0  0  0  0  0  0  0  0
  143.6203  142.8889  158.3452 H   0  0  0  0  0  0  0  0  0  0  0  0
  144.1792  141.8171  155.5933 H   0  0  0  0  0  0  0  0  0  0  0  0
  145.3607  142.1592  156.8367 H   0  0  0  0  0  0  0  0  0  0  0  0
  144.8053  139.4769  155.4443 H   0  0  0  0  0  0  0  0  0  0  0  0
  146.2201  140.4732  155.2448 H   0  0  0  0  0  0  0  0  0  0  0  0
  145.6780  139.5039  158.0316 H   0  0  0  0  0  0  0  0  0  0  0  0
  146.1592  138.2992  156.8703 H   0  0  0  0  0  0  0  0  0  0  0  0
  153.6020  140.7974  159.5212 H   0  0  0  0  0  0  0  0  0  0  0  0
  154.0650  142.3144  158.7816 H   0  0  0  0  0  0  0  0  0  0  0  0
  152.4853  141.9557  161.3958 H   0  0  0  0  0  0  0  0  0  0  0  0
  154.1437  142.5036  161.2475 H   0  0  0  0  0  0  0  0  0  0  0  0
  150.7152  143.3965  160.6271 H   0  0  0  0  0  0  0  0  0  0  0  0
  151.1336  144.9514  159.9355 H   0  0  0  0  0  0  0  0  0  0  0  0
  152.1209  143.8852  157.9358 H   0  0  0  0  0  0  0  0  0  0  0  0
  150.4808  143.3188  158.1775 H   0  0  0  0  0  0  0  0  0  0  0  0
  152.8916  138.4339  156.0805 H   0  0  0  0  0  0  0  0  0  0  0  0
  1  2  1  0  0  0  0
  1 22  1  0  0  0  0
  1 23  1  0  0  0  0
  1 24  1  0  0  0  0
  2  3  1  0  0  0  0
  3  4  1  0  0  0  0
  3 25  1  0  0  0  0
  3 26  1  0  0  0  0
  4  5  1  0  0  0  0
  4 27  1  0  0  0  0
  4 28  1  0  0  0  0
  5  6  1  0  0  0  0
  5 29  1  0  0  0  0
  5 30  1  0  0  0  0
  6  7  1  0  0  0  0
  7  8  2  0  0  0  0
  7  9  1  0  0  0  0
  9 20  1  0  0  0  0
  9 10  2  0  0  0  0
 10 11  1  0  0  0  0
 11 12  1  0  0  0  0
 11 18  2  0  0  0  0
 12 17  1  0  0  0  0
 12 13  1  0  0  0  0
 13 14  1  0  0  0  0
 13 31  1  0  0  0  0
 13 32  1  0  0  0  0
 14 15  1  0  0  0  0
 14 33  1  0  0  0  0
 14 34  1  0  0  0  0
 15 16  1  0  0  0  0
 16 17  1  0  0  0  0
 16 35  1  0  0  0  0
 16 36  1  0  0  0  0
 17 37  1  0  0  0  0
 17 38  1  0  0  0  0
 18 19  1  0  0  0  0
 19 20  2  0  0  0  0
 19 39  1  0  0  0  0
 20 21  1  0  0  0  0
M  CHG  1   6  -1
M  END
> <s_m_source_file>
AV-unprocessed.smi

> <i_m_source_file_index>
570

> <i_lp_mmshare_version>
43012

> <i_f3d_flags>
0

> <s_epik_input>
W0NIM11PW0NIMl1bQ0gyXVtDSDJdW05IXUMoPU8pYzFuYyhuW2NIXWMxQ2wpTjJbQ0gyXVtDSDJdT1tDSDJdW0NIMl0y

> <s_epik_cmdline>
J2VwaWtfcHl0aG9uJywgJy1waCcsICc3LjAnLCAnLXRuJywgJzgnLCAnLW1hJywgJzIwMCcsICctbWV0YWxfYmluZGluZycsICctaW1hZScsICc8aW5maWxlLm1hZT4nLCAnLW9tYWUnLCAnPG91dGZpbGUubWFlPic=

> <r_lp_tautomer_probability>
1

> <r_epik_Ionization_Penalty>
6.0123

> <r_epik_Ionization_Penalty_Charging>
6.01228

> <r_epik_Ionization_Penalty_Neutral>
2.47988e-05

> <r_epik_State_Penalty>
6.01226

> <r_epik_Charging_Adjusted_Penalty>
12.0245

> <i_epik_Tot_Q>
-1

> <i_epik_Tot_abs_Q>
1

> <r_epik_Metal_State_Penalty>
1.96418

> <b_epik_Metal_Only>
1

> <s_lp_Force_Field>
OPLS_2005

> <r_lp_Energy>
20.8632

> <b_lp_Chiralities_Consistent>
1

> <s_lp_Variant>
AV-unprocessed.smi:570-2

> <Gold.Version>
5.8.1

> <Gold.Id.Protein>
6NUR|6NUR_protein|mol2

> <Gold.PLP.Fitness>
44.5545

> <Gold.PLP.PLP>
-43.9071

> <Gold.PLP.part.hbond>
-3.0000

> <Gold.PLP.part.metal>
0.0000

> <Gold.PLP.part.buried>
-6.7597

> <Gold.PLP.part.nonpolar>
-36.1162

> <Gold.PLP.part.repulsive>
2.6162

> <Gold.PLP.ligand.clash>
0.0000

> <Gold.PLP.ligand.torsion>
1.8864

> <Gold.PLP.Chemscore.Hbond>
1.3800

> <Gold.PLP.Chemscore.CHOScore>
0.0000

> <Gold.PLP.Chemscore.Metal>
0.0000

> <Gold.Chemscore.Hbonds>
donor molecule, donor type, donor heavy atom, donor atom, acceptor molecule, acceptor atom, score
      P1  H  7997  8010       L1    18  0.65

> <Gold.PLP.Chemscore.Internal.Correction>
0.2802

> <Gold.Rescore>
     Score         DG    S(hbond)    S(metal)    S(lipo)     H(rot)  DE(clash)    DE(int)     intcor
     11.71     -15.77       0.93        0.00      96.41       1.59       1.35       2.71       ----

> <Gold.Chemscore.Fitness>
11.7097

> <Gold.Chemscore.DG>
-15.7727

> <Gold.Chemscore.ZeroCoef>
-5.4800

> <Gold.Chemscore.Hbond>
0.9270

> <Gold.Chemscore.Metal>
0.0000

> <Gold.Chemscore.Lipo>
96.4067

> <Gold.Chemscore.Internal_Hbond>
0.0000

> <Gold.Chemscore.DEClash>
1.3502

> <Gold.Chemscore.DEInternal>
2.7128

> <Gold.Chemscore.Rot>
1.5949

> <Gold.Chemscore.Internal.Correction>
   9.000000E+99

> <Gold.Chemscore.Hbonds>
donor molecule, donor type, donor heavy atom, donor atom, acceptor molecule, acceptor atom, score
      P1  H  7997  8010       L1    18  0.05

> <Gold.Chemscore.Hbond.Weighted>
-3.0960

> <Gold.Chemscore.Metal.Weighted>
-0.0000

> <Gold.Chemscore.Lipo.Weighted>
-11.2796

> <Gold.Chemscore.Internal_Hbond.Weighted>
0.0000

> <Gold.Chemscore.DEClash.Weighted>
1.3502

> <Gold.Chemscore.DEInternal.Weighted>
2.7128

> <Gold.Chemscore.Rot.Weighted>
4.0830

> <Gold.Chemscore.Internal.Correction.Weighted>
   9.000000E+99

> <Gold.Protein.RotatedTorsions>
[ 6907 6896 6895 6894 ] final  -57.75 input  -60.11 | X-H torsion
[ 7974 7965 7964 7962 ] final  -74.97 input  175.53 | X-H torsion
[ 8008 7997 7996 7995 ] final   64.08 input   59.86 | X-H torsion
[ 10167 10162 10161 10158 ] final -154.70 input  -65.29 | X-H torsion
[ 10718 10713 10712 10709 ] final  -43.69 input   66.30 | X-H torsion
[ 10763 10752 10751 10750 ] final   54.72 input  -60.55 | X-H torsion
[ 11005 11000 10999 10996 ] final   74.17 input  -57.11 | X-H torsion

> <Gold.Protein.ActiveResidues>
 VAL166  LYS551  ARG553  GLY616  TRP617  ASP618  TYR619  PRO620  LYS621  CYS622 
 ASP623  PHE694  ASN695  SER759  ASP760  ASP761  ALA762  ILE779  LEU786  VAL792 
 PHE793  MET794  SER795  GLU796  ALA797  LYS798  CYS799  TRP800  GLU811  SER814 

> <Gold.Protein.RotatedAtoms>
  150.8061  134.7187  159.6645 H   0  0  0  0  0  0  0  0  0  0  0  0  # atno 6907 bound_to 6896
  152.4180  134.6003  160.0008 H   0  0  0  0  0  0  0  0  0  0  0  0  # atno 6908 bound_to 6896
  151.6226  133.3301  159.3127 H   0  0  0  0  0  0  0  0  0  0  0  0  # atno 6909 bound_to 6896
  145.6321  140.9335  143.1081 H   0  0  0  0  0  0  0  0  0  0  0  0  # atno 7974 bound_to 7965
  155.6404  140.3497  155.4713 H   0  0  0  0  0  0  0  0  0  0  0  0  # atno 8008 bound_to 7997
  155.9931  140.1197  157.0643 H   0  0  0  0  0  0  0  0  0  0  0  0  # atno 8009 bound_to 7997
  154.4225  140.1115  156.5579 H   0  0  0  0  0  0  0  0  0  0  0  0  # atno 8010 bound_to 7997
  139.6991  143.9292  152.2421 H   0  0  0  0  0  0  0  0  0  0  0  0  # atno 10167 bound_to 10162
  156.2463  130.4184  149.8701 H   0  0  0  0  0  0  0  0  0  0  0  0  # atno 10718 bound_to 10713
  152.9808  135.5735  154.4950 H   0  0  0  0  0  0  0  0  0  0  0  0  # atno 10763 bound_to 10752
  154.4478  135.2777  155.1804 H   0  0  0  0  0  0  0  0  0  0  0  0  # atno 10764 bound_to 10752
  154.3445  135.6222  153.5666 H   0  0  0  0  0  0  0  0  0  0  0  0  # atno 10765 bound_to 10752
  139.9404  134.7410  156.1116 H   0  0  0  0  0  0  0  0  0  0  0  0  # atno 11005 bound_to 11000
  144.7189  139.8098  143.7389 LP  0  0  0  0  0  0  0  0  0  0  0  0  # atno 17320 bound_to 7965
  146.1348  139.4391  143.0146 LP  0  0  0  0  0  0  0  0  0  0  0  0  # atno 17321 bound_to 7965
  139.9130  144.6845  150.8542 LP  0  0  0  0  0  0  0  0  0  0  0  0  # atno 17342 bound_to 10162
  140.7705  143.3430  151.2169 LP  0  0  0  0  0  0  0  0  0  0  0  0  # atno 17343 bound_to 10162
  156.6265  130.8648  151.3486 LP  0  0  0  0  0  0  0  0  0  0  0  0  # atno 17370 bound_to 10713
  157.7196  130.9541  150.1388 LP  0  0  0  0  0  0  0  0  0  0  0  0  # atno 17371 bound_to 10713
  141.1036  133.6668  156.2811 LP  0  0  0  0  0  0  0  0  0  0  0  0  # atno 17394 bound_to 11000
  140.5967  134.5596  157.5510 LP  0  0  0  0  0  0  0  0  0  0  0  0  # atno 17395 bound_to 11000

$$$$
