AV-unprocessed.smi:1102|AV-procd|sdf|4767|dock6
  -GOLD-   22720 3303D 1   1.00000     0.00000
 Structure written by MMmdl.
 40 41  0  0  0  0  0  0  0  0  2 V2000
  144.9824  137.6638  153.4396 C   0  0  0  0  0  0  0  0  0  0  0  0
  146.2078  138.0139  152.7374 N   0  0  0  0  0  0  0  0  0  0  0  0
  146.0754  138.2725  151.3113 C   0  0  0  0  0  0  0  0  0  0  0  0
  146.9541  138.9942  153.4056 C   0  0  0  0  0  0  0  0  0  0  0  0
  148.2217  138.7042  153.9510 C   0  0  0  0  0  0  0  0  0  0  0  0
  148.9374  139.7210  154.6154 C   0  0  0  0  0  0  0  0  0  0  0  0
  148.3752  141.0102  154.7371 C   0  0  0  0  0  0  0  0  0  0  0  0
  149.1401  142.0047  155.4045 N   0  0  0  0  0  0  0  0  0  0  0  0
  150.2556  141.8503  156.1383 C   0  0  0  0  0  0  0  0  0  0  0  0
  150.8344  140.7823  156.3351 O   0  0  0  0  0  0  0  0  0  0  0  0
  150.6806  143.0243  156.6257 N   0  0  0  0  0  0  0  0  0  0  0  0
  151.8532  143.2042  157.4743 C   0  0  0  0  0  0  0  0  0  0  0  0
  151.4661  143.7470  158.8598 C   0  0  2  0  0  0  0  0  0  0  0  0
  151.3306  145.2720  158.9099 C   0  0  0  0  0  0  0  0  0  0  0  0
  151.8044  145.6483  160.3079 C   0  0  0  0  0  0  0  0  0  0  0  0
  152.2172  144.3170  160.9336 C   0  0  0  0  0  0  0  0  0  0  0  0
  152.4809  143.4838  159.8172 O   0  0  0  0  0  0  0  0  0  0  0  0
  147.1024  141.2465  154.1611 C   0  0  0  0  0  0  0  0  0  0  0  0
  146.4512  140.2451  153.5304 N   0  3  0  0  0  0  0  0  0  0  0  0
  145.1784  137.4795  154.4968 H   0  0  0  0  0  0  0  0  0  0  0  0
  144.5505  136.7571  153.0148 H   0  0  0  0  0  0  0  0  0  0  0  0
  144.2447  138.4630  153.3599 H   0  0  0  0  0  0  0  0  0  0  0  0
  147.0470  138.4886  150.8651 H   0  0  0  0  0  0  0  0  0  0  0  0
  145.4138  139.1197  151.1259 H   0  0  0  0  0  0  0  0  0  0  0  0
  145.6605  137.3993  150.8070 H   0  0  0  0  0  0  0  0  0  0  0  0
  148.6443  137.7139  153.8614 H   0  0  0  0  0  0  0  0  0  0  0  0
  149.9107  139.5071  155.0329 H   0  0  0  0  0  0  0  0  0  0  0  0
  148.8260  142.9551  155.2734 H   0  0  0  0  0  0  0  0  0  0  0  0
  150.1476  143.8534  156.4078 H   0  0  0  0  0  0  0  0  0  0  0  0
  152.4163  142.2740  157.5665 H   0  0  0  0  0  0  0  0  0  0  0  0
  152.5127  143.9151  156.9761 H   0  0  0  0  0  0  0  0  0  0  0  0
  150.5362  143.2874  159.2012 H   0  0  0  0  0  0  0  0  0  0  0  0
  151.9739  145.7450  158.1669 H   0  0  0  0  0  0  0  0  0  0  0  0
  150.3070  145.5928  158.7149 H   0  0  0  0  0  0  0  0  0  0  0  0
  152.6603  146.3211  160.2420 H   0  0  0  0  0  0  0  0  0  0  0  0
  151.0304  146.1460  160.8930 H   0  0  0  0  0  0  0  0  0  0  0  0
  153.0877  144.4081  161.5832 H   0  0  0  0  0  0  0  0  0  0  0  0
  151.3979  143.8919  161.5154 H   0  0  0  0  0  0  0  0  0  0  0  0
  146.5814  142.1920  154.1653 H   0  0  0  0  0  0  0  0  0  0  0  0
  145.5354  140.4438  153.1270 H   0  0  0  0  0  0  0  0  0  0  0  0
  1  2  1  0  0  0  0
  1 20  1  0  0  0  0
  1 21  1  0  0  0  0
  1 22  1  0  0  0  0
  2  3  1  0  0  0  0
  2  4  1  0  0  0  0
  3 23  1  0  0  0  0
  3 24  1  0  0  0  0
  3 25  1  0  0  0  0
  4 19  1  0  0  0  0
  4  5  2  0  0  0  0
  5  6  1  0  0  0  0
  5 26  1  0  0  0  0
  6  7  2  0  0  0  0
  6 27  1  0  0  0  0
  7  8  1  0  0  0  0
  7 18  1  0  0  0  0
  8  9  1  0  0  0  0
  8 28  1  0  0  0  0
  9 10  2  0  0  0  0
  9 11  1  0  0  0  0
 11 12  1  0  0  0  0
 11 29  1  0  0  0  0
 12 13  1  0  0  0  0
 12 30  1  0  0  0  0
 12 31  1  0  0  0  0
 13 17  1  0  0  0  0
 13 14  1  0  0  0  0
 13 32  1  0  0  0  0
 14 15  1  0  0  0  0
 14 33  1  0  0  0  0
 14 34  1  0  0  0  0
 15 16  1  0  0  0  0
 15 35  1  0  0  0  0
 15 36  1  0  0  0  0
 16 17  1  0  0  0  0
 16 37  1  0  0  0  0
 16 38  1  0  0  0  0
 18 19  2  0  0  0  0
 18 39  1  0  0  0  0
 19 40  1  0  0  0  0
M  CHG  1  19   1
M  END
> <s_m_source_file>
AV-unprocessed.smi

> <i_m_source_file_index>
1102

> <i_lp_mmshare_version>
43012

> <i_f3d_flags>
0

> <s_epik_input>
W0NIM11OKFtDSDNdKWMxW2NIXVtjSF1jKFtjSF1uMSlbTkhdQyg9TylbTkhdW0NIMl1bQ0BASF0yW0NIMl1bQ0gyXVtDSDJdTzI=

> <s_epik_cmdline>
J2VwaWtfcHl0aG9uJywgJy1waCcsICc3LjAnLCAnLXRuJywgJzgnLCAnLW1hJywgJzIwMCcsICctbWV0YWxfYmluZGluZycsICctaW1hZScsICc8aW5maWxlLm1hZT4nLCAnLW9tYWUnLCAnPG91dGZpbGUubWFlPic=

> <r_lp_tautomer_probability>
0.999994

> <r_epik_Ionization_Penalty>
0.265123

> <r_epik_Ionization_Penalty_Charging>
0.265104

> <r_epik_Ionization_Penalty_Neutral>
1.89079e-05

> <r_epik_State_Penalty>
0.257001

> <r_epik_Charging_Adjusted_Penalty>
0.522106

> <i_epik_Tot_Q>
1

> <i_epik_Tot_abs_Q>
1

> <r_epik_Metal_State_Penalty>
0.543599

> <b_epik_Metal_Only>
0

> <s_lp_Force_Field>
OPLS_2005

> <r_lp_Energy>
30.1742

> <b_lp_Chiralities_Consistent>
1

> <s_lp_Variant>
AV-unprocessed.smi:1102-1

> <Gold.Version>
5.8.1

> <Gold.Id.Protein>
6NUR|6NUR_protein|mol2

> <Gold.PLP.Fitness>
47.7562

> <Gold.PLP.PLP>
-36.2903

> <Gold.PLP.part.hbond>
-3.0000

> <Gold.PLP.part.metal>
0.0000

> <Gold.PLP.part.buried>
-1.3498

> <Gold.PLP.part.nonpolar>
-33.1535

> <Gold.PLP.part.repulsive>
0.5806

> <Gold.PLP.ligand.clash>
0.0000

> <Gold.PLP.ligand.torsion>
0.3676

> <Gold.PLP.Chemscore.Hbond>
4.0000

> <Gold.PLP.Chemscore.CHOScore>
0.0000

> <Gold.PLP.Chemscore.Metal>
0.0000

> <Gold.Chemscore.Hbonds>
donor molecule, donor type, donor heavy atom, donor atom, acceptor molecule, acceptor atom, score
      L1  H     8    28       P1  8028  1.00
      L1  H    11    29       P1  8028  1.00
      L1  H    19    40       P1 10175  2.00

> <Gold.PLP.Chemscore.Internal.Correction>
0.2011

> <Gold.Rescore>
     Score         DG    S(hbond)    S(metal)    S(lipo)     H(rot)  DE(clash)    DE(int)     intcor
     19.10     -22.56       2.94        0.00      93.82       1.45       1.65       1.80       ----

> <Gold.Chemscore.Fitness>
19.1032

> <Gold.Chemscore.DG>
-22.5583

> <Gold.Chemscore.ZeroCoef>
-5.4800

> <Gold.Chemscore.Hbond>
2.9359

> <Gold.Chemscore.Metal>
0.0000

> <Gold.Chemscore.Lipo>
93.8160

> <Gold.Chemscore.Internal_Hbond>
0.0000

> <Gold.Chemscore.DEClash>
1.6507

> <Gold.Chemscore.DEInternal>
1.8044

> <Gold.Chemscore.Rot>
1.4469

> <Gold.Chemscore.Internal.Correction>
   9.000000E+99

> <Gold.Chemscore.Hbonds>
donor molecule, donor type, donor heavy atom, donor atom, acceptor molecule, acceptor atom, score
      L1  H     8    28       P1  8028  0.97
      L1  H    11    29       P1  8028  0.98
      L1  H    19    40       P1 10175  0.91

> <Gold.Chemscore.Hbond.Weighted>
-9.8061

> <Gold.Chemscore.Metal.Weighted>
-0.0000

> <Gold.Chemscore.Lipo.Weighted>
-10.9765

> <Gold.Chemscore.Internal_Hbond.Weighted>
0.0000

> <Gold.Chemscore.DEClash.Weighted>
1.6507

> <Gold.Chemscore.DEInternal.Weighted>
1.8044

> <Gold.Chemscore.Rot.Weighted>
3.7042

> <Gold.Chemscore.Internal.Correction.Weighted>
   9.000000E+99

> <Gold.Protein.RotatedTorsions>
[ 6907 6896 6895 6894 ] final -178.68 input  -60.11 | X-H torsion
[ 7974 7965 7964 7962 ] final -106.47 input  175.53 | X-H torsion
[ 8008 7997 7996 7995 ] final   46.11 input   59.86 | X-H torsion
[ 10167 10162 10161 10158 ] final -101.89 input  -65.29 | X-H torsion
[ 10718 10713 10712 10709 ] final -146.38 input   66.30 | X-H torsion
[ 10763 10752 10751 10750 ] final   88.26 input  -60.55 | X-H torsion
[ 11005 11000 10999 10996 ] final   17.13 input  -57.11 | X-H torsion

> <Gold.Protein.ActiveResidues>
 VAL166  LYS551  ARG553  GLY616  TRP617  ASP618  TYR619  PRO620  LYS621  CYS622 
 ASP623  PHE694  ASN695  SER759  ASP760  ASP761  ALA762  ILE779  LEU786  VAL792 
 PHE793  MET794  SER795  GLU796  ALA797  LYS798  CYS799  TRP800  GLU811  SER814 

> <Gold.Protein.RotatedAtoms>
  151.6412  133.3326  159.3130 H   0  0  0  0  0  0  0  0  0  0  0  0  # atno 6907 bound_to 6896
  150.8007  134.7102  159.6609 H   0  0  0  0  0  0  0  0  0  0  0  0  # atno 6908 bound_to 6896
  152.4099  134.6147  160.0086 H   0  0  0  0  0  0  0  0  0  0  0  0  # atno 6909 bound_to 6896
  145.2174  140.9121  143.3279 H   0  0  0  0  0  0  0  0  0  0  0  0  # atno 7974 bound_to 7965
  155.3471  140.3411  155.4239 H   0  0  0  0  0  0  0  0  0  0  0  0  # atno 8008 bound_to 7997
  156.1783  140.1655  156.8357 H   0  0  0  0  0  0  0  0  0  0  0  0  # atno 8009 bound_to 7997
  154.5306  140.0746  156.8321 H   0  0  0  0  0  0  0  0  0  0  0  0  # atno 8010 bound_to 7997
  140.2365  143.3569  152.0840 H   0  0  0  0  0  0  0  0  0  0  0  0  # atno 10167 bound_to 10162
  156.3942  130.7901  151.2106 H   0  0  0  0  0  0  0  0  0  0  0  0  # atno 10718 bound_to 10713
  153.1750  135.4513  154.9953 H   0  0  0  0  0  0  0  0  0  0  0  0  # atno 10763 bound_to 10752
  154.7992  135.3249  154.7595 H   0  0  0  0  0  0  0  0  0  0  0  0  # atno 10764 bound_to 10752
  153.8066  135.6958  153.4902 H   0  0  0  0  0  0  0  0  0  0  0  0  # atno 10765 bound_to 10752
  140.4394  134.1337  155.7689 H   0  0  0  0  0  0  0  0  0  0  0  0  # atno 11005 bound_to 11000
  144.9797  139.3795  143.6268 LP  0  0  0  0  0  0  0  0  0  0  0  0  # atno 17320 bound_to 7965
  146.3384  139.8933  142.8805 LP  0  0  0  0  0  0  0  0  0  0  0  0  # atno 17321 bound_to 7965
  139.5092  144.6863  151.5879 LP  0  0  0  0  0  0  0  0  0  0  0  0  # atno 17342 bound_to 10162
  140.6146  143.9372  150.6479 LP  0  0  0  0  0  0  0  0  0  0  0  0  # atno 17343 bound_to 10162
  157.7500  131.0306  150.4146 LP  0  0  0  0  0  0  0  0  0  0  0  0  # atno 17370 bound_to 10713
  156.4413  130.3992  149.6695 LP  0  0  0  0  0  0  0  0  0  0  0  0  # atno 17371 bound_to 10713
  141.1712  133.8605  157.1565 LP  0  0  0  0  0  0  0  0  0  0  0  0  # atno 17394 bound_to 11000
  140.0080  135.0000  157.0334 LP  0  0  0  0  0  0  0  0  0  0  0  0  # atno 17395 bound_to 11000

$$$$
