AV-unprocessed.smi:924|AV-procd|sdf|4180|dock3
  -GOLD-   22720 2 83D 1   1.00000     0.00000
 Structure written by MMmdl.
 45 48  0  0  0  0  0  0  0  0  2 V2000
  146.5100  128.9337  154.1916 O   0  0  0  0  0  0  0  0  0  0  0  0
  147.5829  129.5008  153.9818 C   0  0  0  0  0  0  0  0  0  0  0  0
  148.8785  128.6966  153.8139 C   0  0  0  0  0  0  0  0  0  0  0  0
  148.7182  127.5590  152.8942 N   0  0  0  0  0  0  0  0  0  0  0  0
  148.1603  127.8293  151.6321 C   0  0  0  0  0  0  0  0  0  0  0  0
  147.9848  126.8640  150.7102 C   0  0  0  0  0  0  0  0  0  0  0  0
  148.3899  125.5055  151.0488 C   0  0  0  0  0  0  0  0  0  0  0  0
  148.2324  124.6097  150.2214 O   0  0  0  0  0  0  0  0  0  0  0  0
  148.9310  125.2940  152.2843 N   0  5  0  0  0  0  0  0  0  0  0  0
  149.1086  126.2872  153.2104 C   0  0  0  0  0  0  0  0  0  0  0  0
  149.6066  126.0739  154.3161 O   0  0  0  0  0  0  0  0  0  0  0  0
  147.7034  130.8339  153.8877 N   0  0  0  0  0  0  0  0  0  0  0  0
  146.6241  131.8012  154.0727 C   0  0  0  0  0  0  0  0  0  0  0  0
  145.9966  132.2840  152.7392 C   0  0  0  0  0  0  0  0  0  0  0  0
  147.0669  132.8688  151.7754 C   0  0  0  0  0  0  0  0  0  0  0  0
  146.4053  133.3760  150.4765 C   0  0  1  0  0  0  0  0  0  0  0  0
  145.6886  132.2045  149.7731 C   0  0  0  0  0  0  0  0  0  0  0  0
  144.6043  131.6343  150.7118 C   0  0  2  0  0  0  0  0  0  0  0  0
  143.5791  132.7369  151.0476 C   0  0  0  0  0  0  0  0  0  0  0  0
  144.3029  133.9056  151.7478 C   0  0  2  0  0  0  0  0  0  0  0  0
  145.3852  134.4826  150.8126 C   0  0  0  0  0  0  0  0  0  0  0  0
  144.9623  133.3988  153.0479 C   0  0  0  0  0  0  0  0  0  0  0  0
  145.2624  131.1239  152.0123 C   0  0  0  0  0  0  0  0  0  0  0  0
  149.6685  129.3732  153.4847 H   0  0  0  0  0  0  0  0  0  0  0  0
  149.2073  128.3271  154.7868 H   0  0  0  0  0  0  0  0  0  0  0  0
  147.8947  128.8626  151.4610 H   0  0  0  0  0  0  0  0  0  0  0  0
  147.5586  127.0898  149.7439 H   0  0  0  0  0  0  0  0  0  0  0  0
  148.6216  131.2105  153.7030 H   0  0  0  0  0  0  0  0  0  0  0  0
  145.8597  131.3169  154.6813 H   0  0  0  0  0  0  0  0  0  0  0  0
  146.9710  132.6544  154.6584 H   0  0  0  0  0  0  0  0  0  0  0  0
  147.6091  133.6813  152.2606 H   0  0  0  0  0  0  0  0  0  0  0  0
  147.8117  132.1150  151.5192 H   0  0  0  0  0  0  0  0  0  0  0  0
  147.1723  133.7800  149.8149 H   0  0  0  0  0  0  0  0  0  0  0  0
  145.2400  132.5421  148.8381 H   0  0  0  0  0  0  0  0  0  0  0  0
  146.4063  131.4270  149.5080 H   0  0  0  0  0  0  0  0  0  0  0  0
  144.0953  130.8074  150.2157 H   0  0  0  0  0  0  0  0  0  0  0  0
  143.0875  133.0863  150.1389 H   0  0  0  0  0  0  0  0  0  0  0  0
  142.7926  132.3394  151.6904 H   0  0  0  0  0  0  0  0  0  0  0  0
  143.5805  134.6858  151.9891 H   0  0  0  0  0  0  0  0  0  0  0  0
  145.8860  135.3266  151.2887 H   0  0  0  0  0  0  0  0  0  0  0  0
  144.9304  134.8680  149.8993 H   0  0  0  0  0  0  0  0  0  0  0  0
  144.1951  133.0249  153.7272 H   0  0  0  0  0  0  0  0  0  0  0  0
  145.4458  134.2299  153.5634 H   0  0  0  0  0  0  0  0  0  0  0  0
  145.9572  130.3181  151.7723 H   0  0  0  0  0  0  0  0  0  0  0  0
  144.5044  130.6888  152.6650 H   0  0  0  0  0  0  0  0  0  0  0  0
  1  2  2  0  0  0  0
  2  3  1  0  0  0  0
  2 12  1  0  0  0  0
  3  4  1  0  0  0  0
  3 24  1  0  0  0  0
  3 25  1  0  0  0  0
  4 10  1  0  0  0  0
  4  5  1  0  0  0  0
  5  6  2  0  0  0  0
  5 26  1  0  0  0  0
  6  7  1  0  0  0  0
  6 27  1  0  0  0  0
  7  8  2  0  0  0  0
  7  9  1  0  0  0  0
  9 10  1  0  0  0  0
 10 11  2  0  0  0  0
 12 13  1  0  0  0  0
 12 28  1  0  0  0  0
 13 14  1  0  0  0  0
 13 29  1  0  0  0  0
 13 30  1  0  0  0  0
 14 22  1  0  0  0  0
 14 23  1  0  0  0  0
 14 15  1  0  0  0  0
 15 16  1  0  0  0  0
 15 31  1  0  0  0  0
 15 32  1  0  0  0  0
 16 21  1  0  0  0  0
 16 17  1  0  0  0  0
 16 33  1  0  0  0  0
 17 18  1  0  0  0  0
 17 34  1  0  0  0  0
 17 35  1  0  0  0  0
 18 19  1  0  0  0  0
 18 23  1  0  0  0  0
 18 36  1  0  0  0  0
 19 20  1  0  0  0  0
 19 37  1  0  0  0  0
 19 38  1  0  0  0  0
 20 21  1  0  0  0  0
 20 22  1  0  0  0  0
 20 39  1  0  0  0  0
 21 40  1  0  0  0  0
 21 41  1  0  0  0  0
 22 42  1  0  0  0  0
 22 43  1  0  0  0  0
 23 44  1  0  0  0  0
 23 45  1  0  0  0  0
M  CHG  1   9  -1
M  END
> <s_m_source_file>
AV-unprocessed.smi

> <i_m_source_file_index>
924

> <i_lp_mmshare_version>
43012

> <i_f3d_flags>
0

> <s_epik_input>
Tz1jMVtuSF1jKD1PKVtjSF1bY0hdbjFbQ0gyXUMoPU8pW05IXVtDSDJdQzIzW0NIMl1bQ0BIXTRbQ0gyXVtDQEBIXShbQ0gyXTMpW0NIMl1bQ0BIXShbQ0gyXTQpW0NIMl0y

> <s_epik_cmdline>
J2VwaWtfcHl0aG9uJywgJy1waCcsICc3LjAnLCAnLXRuJywgJzgnLCAnLW1hJywgJzIwMCcsICctbWV0YWxfYmluZGluZycsICctaW1hZScsICc8aW5maWxlLm1hZT4nLCAnLW9tYWUnLCAnPG91dGZpbGUubWFlPic=

> <r_lp_tautomer_probability>
0.999537

> <r_epik_Ionization_Penalty>
3.12434

> <r_epik_Ionization_Penalty_Charging>
2.83226e-08

> <r_epik_Ionization_Penalty_Neutral>
3.12434

> <r_epik_State_Penalty>
3.12343

> <r_epik_Charging_Adjusted_Penalty>
3.12343

> <i_epik_Tot_Q>
-1

> <i_epik_Tot_abs_Q>
1

> <r_epik_Metal_State_Penalty>
0.463885

> <b_epik_Metal_Only>
1

> <s_lp_Force_Field>
OPLS_2005

> <r_lp_Energy>
43.5062

> <b_lp_Chiralities_Consistent>
1

> <s_lp_Variant>
AV-unprocessed.smi:924-2

> <Gold.Version>
5.8.1

> <Gold.Id.Protein>
6NUR|6NUR_protein|mol2

> <Gold.PLP.Fitness>
41.8833

> <Gold.PLP.PLP>
-39.6885

> <Gold.PLP.part.hbond>
0.0000

> <Gold.PLP.part.metal>
0.0000

> <Gold.PLP.part.buried>
-5.4494

> <Gold.PLP.part.nonpolar>
-35.0346

> <Gold.PLP.part.repulsive>
0.2735

> <Gold.PLP.ligand.clash>
0.0000

> <Gold.PLP.ligand.torsion>
0.4079

> <Gold.PLP.Chemscore.Hbond>
0.0000

> <Gold.PLP.Chemscore.CHOScore>
1.0000

> <Gold.PLP.Chemscore.Metal>
0.0000

> <Gold.Chemscore.Hbonds>
donor molecule, donor type, donor heavy atom, donor atom, acceptor molecule, acceptor atom, score
      L1  C     5    26       P1 10747  1.00

> <Gold.PLP.Chemscore.Internal.Correction>
0.0106

> <Gold.Rescore>
     Score         DG    S(hbond)    S(metal)    S(lipo)     H(rot)  DE(clash)    DE(int)     intcor
     12.04     -12.55       0.00        0.00     101.88       1.90       0.26       0.25       ----

> <Gold.Chemscore.Fitness>
12.0387

> <Gold.Chemscore.DG>
-12.5470

> <Gold.Chemscore.ZeroCoef>
-5.4800

> <Gold.Chemscore.Hbond>
0.0000

> <Gold.Chemscore.Metal>
0.0000

> <Gold.Chemscore.Lipo>
101.8848

> <Gold.Chemscore.Internal_Hbond>
0.0000

> <Gold.Chemscore.DEClash>
0.2595

> <Gold.Chemscore.DEInternal>
0.2488

> <Gold.Chemscore.Rot>
1.8959

> <Gold.Chemscore.Internal.Correction>
   9.000000E+99

> <Gold.Chemscore.Hbond.Weighted>
-0.0000

> <Gold.Chemscore.Metal.Weighted>
-0.0000

> <Gold.Chemscore.Lipo.Weighted>
-11.9205

> <Gold.Chemscore.Internal_Hbond.Weighted>
0.0000

> <Gold.Chemscore.DEClash.Weighted>
0.2595

> <Gold.Chemscore.DEInternal.Weighted>
0.2488

> <Gold.Chemscore.Rot.Weighted>
4.8535

> <Gold.Chemscore.Internal.Correction.Weighted>
   9.000000E+99

> <Gold.Protein.RotatedTorsions>
[ 6907 6896 6895 6894 ] final  -91.35 input  -60.11 | X-H torsion
[ 7974 7965 7964 7962 ] final   77.37 input  175.53 | X-H torsion
[ 8008 7997 7996 7995 ] final -167.79 input   59.86 | X-H torsion
[ 10167 10162 10161 10158 ] final   42.10 input  -65.29 | X-H torsion
[ 10718 10713 10712 10709 ] final  -81.48 input   66.30 | X-H torsion
[ 10763 10752 10751 10750 ] final  -55.75 input  -60.55 | X-H torsion
[ 11005 11000 10999 10996 ] final   90.19 input  -57.11 | X-H torsion

> <Gold.Protein.ActiveResidues>
 VAL166  LYS551  ARG553  GLY616  TRP617  ASP618  TYR619  PRO620  LYS621  CYS622 
 ASP623  PHE694  ASN695  SER759  ASP760  ASP761  ALA762  ILE779  LEU786  VAL792 
 PHE793  MET794  SER795  GLU796  ALA797  LYS798  CYS799  TRP800  GLU811  SER814 

> <Gold.Protein.RotatedAtoms>
  150.6891  134.2291  159.4427 H   0  0  0  0  0  0  0  0  0  0  0  0  # atno 6907 bound_to 6896
  152.0243  134.9802  160.0580 H   0  0  0  0  0  0  0  0  0  0  0  0  # atno 6908 bound_to 6896
  152.1367  133.4404  159.4784 H   0  0  0  0  0  0  0  0  0  0  0  0  # atno 6909 bound_to 6896
  145.6909  139.2552  143.1760 H   0  0  0  0  0  0  0  0  0  0  0  0  # atno 7974 bound_to 7965
  155.8825  140.1011  157.1475 H   0  0  0  0  0  0  0  0  0  0  0  0  # atno 8008 bound_to 7997
  154.4006  140.1326  156.4278 H   0  0  0  0  0  0  0  0  0  0  0  0  # atno 8009 bound_to 7997
  155.7626  140.3463  155.5208 H   0  0  0  0  0  0  0  0  0  0  0  0  # atno 8010 bound_to 7997
  140.3577  144.2268  150.6140 H   0  0  0  0  0  0  0  0  0  0  0  0  # atno 10167 bound_to 10162
  156.0050  130.4605  150.3959 H   0  0  0  0  0  0  0  0  0  0  0  0  # atno 10718 bound_to 10713
  154.1958  135.6419  153.5073 H   0  0  0  0  0  0  0  0  0  0  0  0  # atno 10763 bound_to 10752
  153.0024  135.5439  154.6367 H   0  0  0  0  0  0  0  0  0  0  0  0  # atno 10764 bound_to 10752
  154.5767  135.2921  155.0746 H   0  0  0  0  0  0  0  0  0  0  0  0  # atno 10765 bound_to 10752
  139.8861  134.8598  156.3249 H   0  0  0  0  0  0  0  0  0  0  0  0  # atno 11005 bound_to 11000
  146.0883  140.7685  142.9608 LP  0  0  0  0  0  0  0  0  0  0  0  0  # atno 17320 bound_to 7965
  144.6997  140.3597  143.7166 LP  0  0  0  0  0  0  0  0  0  0  0  0  # atno 17321 bound_to 7965
  140.5157  143.2278  151.8466 LP  0  0  0  0  0  0  0  0  0  0  0  0  # atno 17342 bound_to 10162
  139.4818  144.4897  151.9201 LP  0  0  0  0  0  0  0  0  0  0  0  0  # atno 17343 bound_to 10162
  157.2031  131.0442  151.2640 LP  0  0  0  0  0  0  0  0  0  0  0  0  # atno 17370 bound_to 10713
  157.3958  130.7306  149.6730 LP  0  0  0  0  0  0  0  0  0  0  0  0  # atno 17371 bound_to 10713
  140.9762  133.7296  156.0605 LP  0  0  0  0  0  0  0  0  0  0  0  0  # atno 17394 bound_to 11000
  140.7808  134.3728  157.5488 LP  0  0  0  0  0  0  0  0  0  0  0  0  # atno 17395 bound_to 11000

$$$$
