AV-unprocessed.smi:1285|AV-procd|sdf|5369|dock4
  -GOLD-   22720 4513D 1   1.00000     0.00000
 Structure written by MMmdl.
 46 47  0  0  0  0  0  0  0  0  1 V2000
  147.0105  139.5775  154.4158 C   0  0  0  0  0  0  0  0  0  0  0  0
  147.6601  139.9751  155.7538 C   0  0  0  0  0  0  0  0  0  0  0  0
  149.1371  140.4761  155.6679 C   0  0  1  0  0  0  0  0  0  0  0  0
  149.2109  141.4054  154.4261 C   0  0  0  0  0  0  0  0  0  0  0  0
  149.4517  141.3337  156.9368 C   0  0  0  0  0  0  0  0  0  0  0  0
  148.3852  142.2678  157.2985 N   0  0  0  0  0  0  0  0  0  0  0  0
  147.2818  141.9671  158.0028 C   0  0  0  0  0  0  0  0  0  0  0  0
  147.0465  140.8399  158.4392 O   0  0  0  0  0  0  0  0  0  0  0  0
  146.2917  143.1178  158.2378 C   0  0  1  0  0  0  0  0  0  0  0  0
  144.8877  142.8068  157.6803 C   0  0  0  0  0  0  0  0  0  0  0  0
  146.2629  143.4756  159.6507 N   0  0  0  0  0  0  0  0  0  0  0  0
  146.5823  144.6252  160.2496 C   0  0  0  0  0  0  0  0  0  0  0  0
  146.4843  144.5905  161.5711 N   0  0  0  0  0  0  0  0  0  0  0  0
  146.0848  143.2946  161.7358 C   0  0  0  0  0  0  0  0  0  0  0  0
  145.9476  142.5796  160.6193 N   0  0  0  0  0  0  0  0  0  0  0  0
  150.0788  139.3301  155.5205 N   0  0  0  0  0  0  0  0  0  0  0  0
  149.7849  138.4128  154.4131 C   0  0  0  0  0  0  0  0  0  0  0  0
  150.7092  137.1831  154.4240 C   0  0  0  0  0  0  0  0  0  0  0  0
  152.0678  137.6030  154.3798 O   0  0  0  0  0  0  0  0  0  0  0  0
  152.4095  138.4525  155.4685 C   0  0  0  0  0  0  0  0  0  0  0  0
  151.5002  139.6928  155.4610 C   0  0  0  0  0  0  0  0  0  0  0  0
  145.9898  139.2307  154.5779 H   0  0  0  0  0  0  0  0  0  0  0  0
  147.5519  138.7697  153.9238 H   0  0  0  0  0  0  0  0  0  0  0  0
  146.9601  140.4183  153.7247 H   0  0  0  0  0  0  0  0  0  0  0  0
  147.0304  140.7462  156.1976 H   0  0  0  0  0  0  0  0  0  0  0  0
  147.5862  139.1349  156.4442 H   0  0  0  0  0  0  0  0  0  0  0  0
  148.3825  142.1140  154.3943 H   0  0  0  0  0  0  0  0  0  0  0  0
  149.1820  140.8375  153.4958 H   0  0  0  0  0  0  0  0  0  0  0  0
  150.1239  142.0009  154.4147 H   0  0  0  0  0  0  0  0  0  0  0  0
  149.6871  140.6969  157.7898 H   0  0  0  0  0  0  0  0  0  0  0  0
  150.3390  141.9440  156.7734 H   0  0  0  0  0  0  0  0  0  0  0  0
  148.4922  143.2182  156.9754 H   0  0  0  0  0  0  0  0  0  0  0  0
  146.6642  143.9893  157.6965 H   0  0  0  0  0  0  0  0  0  0  0  0
  144.9294  142.5936  156.6117 H   0  0  0  0  0  0  0  0  0  0  0  0
  144.2180  143.6563  157.8173 H   0  0  0  0  0  0  0  0  0  0  0  0
  144.4317  141.9449  158.1693 H   0  0  0  0  0  0  0  0  0  0  0  0
  146.8961  145.5054  159.7078 H   0  0  0  0  0  0  0  0  0  0  0  0
  145.8948  142.8638  162.7077 H   0  0  0  0  0  0  0  0  0  0  0  0
  148.7579  138.0554  154.4640 H   0  0  0  0  0  0  0  0  0  0  0  0
  149.8967  138.9245  153.4574 H   0  0  0  0  0  0  0  0  0  0  0  0
  150.5365  136.5784  155.3159 H   0  0  0  0  0  0  0  0  0  0  0  0
  150.5050  136.5479  153.5621 H   0  0  0  0  0  0  0  0  0  0  0  0
  152.3130  137.9089  156.4098 H   0  0  0  0  0  0  0  0  0  0  0  0
  153.4545  138.7483  155.3751 H   0  0  0  0  0  0  0  0  0  0  0  0
  151.7064  140.2688  154.5591 H   0  0  0  0  0  0  0  0  0  0  0  0
  151.7819  140.3175  156.3064 H   0  0  0  0  0  0  0  0  0  0  0  0
  1  2  1  0  0  0  0
  1 22  1  0  0  0  0
  1 23  1  0  0  0  0
  1 24  1  0  0  0  0
  2  3  1  0  0  0  0
  2 25  1  0  0  0  0
  2 26  1  0  0  0  0
  3  4  1  0  0  0  0
  3  5  1  0  0  0  0
  3 16  1  0  0  0  0
  4 27  1  0  0  0  0
  4 28  1  0  0  0  0
  4 29  1  0  0  0  0
  5  6  1  0  0  0  0
  5 30  1  0  0  0  0
  5 31  1  0  0  0  0
  6  7  1  0  0  0  0
  6 32  1  0  0  0  0
  7  8  2  0  0  0  0
  7  9  1  0  0  0  0
  9 10  1  0  0  0  0
  9 11  1  0  0  0  0
  9 33  1  0  0  0  0
 10 34  1  0  0  0  0
 10 35  1  0  0  0  0
 10 36  1  0  0  0  0
 11 15  1  0  0  0  0
 11 12  1  0  0  0  0
 12 13  2  0  0  0  0
 12 37  1  0  0  0  0
 13 14  1  0  0  0  0
 14 15  2  0  0  0  0
 14 38  1  0  0  0  0
 16 21  1  0  0  0  0
 16 17  1  0  0  0  0
 17 18  1  0  0  0  0
 17 39  1  0  0  0  0
 17 40  1  0  0  0  0
 18 19  1  0  0  0  0
 18 41  1  0  0  0  0
 18 42  1  0  0  0  0
 19 20  1  0  0  0  0
 20 21  1  0  0  0  0
 20 43  1  0  0  0  0
 20 44  1  0  0  0  0
 21 45  1  0  0  0  0
 21 46  1  0  0  0  0
M  END
> <s_m_source_file>
AV-unprocessed.smi

> <i_m_source_file_index>
1285

> <i_lp_mmshare_version>
43012

> <i_f3d_flags>
0

> <s_epik_input>
W0NIMl0xW0NIMl1PW0NIMl1bQ0gyXU4xW0NAQF0oW0NIM10pKFtDSDJdW0NIM10pW0NIMl1bTkhdQyg9TylbQ0BIXShbQ0gzXSluMltjSF1uW2NIXW4y

> <s_epik_cmdline>
J2VwaWtfcHl0aG9uJywgJy1waCcsICc3LjAnLCAnLXRuJywgJzgnLCAnLW1hJywgJzIwMCcsICctbWV0YWxfYmluZGluZycsICctaW1hZScsICc8aW5maWxlLm1hZT4nLCAnLW9tYWUnLCAnPG91dGZpbGUubWFlPic=

> <r_lp_tautomer_probability>
1

> <r_epik_Ionization_Penalty>
0.285697

> <r_epik_Ionization_Penalty_Charging>
0

> <r_epik_Ionization_Penalty_Neutral>
0.285697

> <r_epik_State_Penalty>
0.278478

> <r_epik_Charging_Adjusted_Penalty>
0.278478

> <i_epik_Tot_Q>
0

> <i_epik_Tot_abs_Q>
0

> <r_epik_Metal_State_Penalty>
0.278477

> <b_epik_Metal_Only>
0

> <s_lp_Force_Field>
OPLS_2005

> <r_lp_Energy>
48.702

> <b_lp_Chiralities_Consistent>
1

> <s_lp_Variant>
AV-unprocessed.smi:1285-3

> <Gold.Version>
5.8.1

> <Gold.Id.Protein>
6NUR|6NUR_protein|mol2

> <Gold.PLP.Fitness>
40.3736

> <Gold.PLP.PLP>
-30.5424

> <Gold.PLP.part.hbond>
-4.1585

> <Gold.PLP.part.metal>
0.0000

> <Gold.PLP.part.buried>
-3.4584

> <Gold.PLP.part.nonpolar>
-23.2368

> <Gold.PLP.part.repulsive>
0.3401

> <Gold.PLP.ligand.clash>
0.0000

> <Gold.PLP.ligand.torsion>
0.7024

> <Gold.PLP.Chemscore.Hbond>
2.6625

> <Gold.PLP.Chemscore.CHOScore>
1.0000

> <Gold.PLP.Chemscore.Metal>
0.0000

> <Gold.Chemscore.Hbonds>
donor molecule, donor type, donor heavy atom, donor atom, acceptor molecule, acceptor atom, score
      L1  H     6    32       P1  8028  1.00
      P1  H  6934  6946       L1    15  1.00
      P1  H 10752 10765       L1    19  0.62
      L1  C    12    37       P1  8029  0.72

> <Gold.PLP.Chemscore.Internal.Correction>
0.2486

> <Gold.Rescore>
     Score         DG    S(hbond)    S(metal)    S(lipo)     H(rot)  DE(clash)    DE(int)     intcor
      8.84     -11.08       1.88        0.00      52.88       2.68       0.13       2.10       ----

> <Gold.Chemscore.Fitness>
8.8392

> <Gold.Chemscore.DG>
-11.0766

> <Gold.Chemscore.ZeroCoef>
-5.4800

> <Gold.Chemscore.Hbond>
1.8790

> <Gold.Chemscore.Metal>
0.0000

> <Gold.Chemscore.Lipo>
52.8800

> <Gold.Chemscore.Internal_Hbond>
0.0000

> <Gold.Chemscore.DEClash>
0.1347

> <Gold.Chemscore.DEInternal>
2.1026

> <Gold.Chemscore.Rot>
2.6821

> <Gold.Chemscore.Internal.Correction>
   9.000000E+99

> <Gold.Chemscore.Hbonds>
donor molecule, donor type, donor heavy atom, donor atom, acceptor molecule, acceptor atom, score
      L1  H     6    32       P1  8028  0.32
      P1  H  6934  6946       L1    15  0.79
      P1  H 10752 10765       L1    19  0.15

> <Gold.Chemscore.Hbond.Weighted>
-6.2758

> <Gold.Chemscore.Metal.Weighted>
-0.0000

> <Gold.Chemscore.Lipo.Weighted>
-6.1870

> <Gold.Chemscore.Internal_Hbond.Weighted>
0.0000

> <Gold.Chemscore.DEClash.Weighted>
0.1347

> <Gold.Chemscore.DEInternal.Weighted>
2.1026

> <Gold.Chemscore.Rot.Weighted>
6.8661

> <Gold.Chemscore.Internal.Correction.Weighted>
   9.000000E+99

> <Gold.Protein.RotatedTorsions>
[ 6907 6896 6895 6894 ] final  112.95 input  -60.11 | X-H torsion
[ 7974 7965 7964 7962 ] final   -3.55 input  175.53 | X-H torsion
[ 8008 7997 7996 7995 ] final  113.86 input   59.86 | X-H torsion
[ 10167 10162 10161 10158 ] final -125.58 input  -65.29 | X-H torsion
[ 10718 10713 10712 10709 ] final -115.59 input   66.30 | X-H torsion
[ 10763 10752 10751 10750 ] final  150.57 input  -60.55 | X-H torsion
[ 11005 11000 10999 10996 ] final  -21.04 input  -57.11 | X-H torsion

> <Gold.Protein.ActiveResidues>
 VAL166  LYS551  ARG553  GLY616  TRP617  ASP618  TYR619  PRO620  LYS621  CYS622 
 ASP623  PHE694  ASN695  SER759  ASP760  ASP761  ALA762  ILE779  LEU786  VAL792 
 PHE793  MET794  SER795  GLU796  ALA797  LYS798  CYS799  TRP800  GLU811  SER814 

> <Gold.Protein.RotatedAtoms>
  152.4888  133.8444  159.7168 H   0  0  0  0  0  0  0  0  0  0  0  0  # atno 6907 bound_to 6896
  150.8998  133.7124  159.2888 H   0  0  0  0  0  0  0  0  0  0  0  0  # atno 6908 bound_to 6896
  151.4569  135.1039  159.9766 H   0  0  0  0  0  0  0  0  0  0  0  0  # atno 6909 bound_to 6896
  146.2387  140.1738  142.8332 H   0  0  0  0  0  0  0  0  0  0  0  0  # atno 7974 bound_to 7965
  156.2285  140.2971  156.0127 H   0  0  0  0  0  0  0  0  0  0  0  0  # atno 8008 bound_to 7997
  155.2291  140.0418  157.2976 H   0  0  0  0  0  0  0  0  0  0  0  0  # atno 8009 bound_to 7997
  154.5955  140.2413  155.7870 H   0  0  0  0  0  0  0  0  0  0  0  0  # atno 8010 bound_to 7997
  139.9806  143.5747  152.2380 H   0  0  0  0  0  0  0  0  0  0  0  0  # atno 10167 bound_to 10162
  156.0906  130.6089  150.8925 H   0  0  0  0  0  0  0  0  0  0  0  0  # atno 10718 bound_to 10713
  154.0896  135.2853  155.3274 H   0  0  0  0  0  0  0  0  0  0  0  0  # atno 10763 bound_to 10752
  154.6629  135.5328  153.8043 H   0  0  0  0  0  0  0  0  0  0  0  0  # atno 10764 bound_to 10752
  153.0418  135.6538  154.1066 H   0  0  0  0  0  0  0  0  0  0  0  0  # atno 10765 bound_to 10752
  140.8523  133.7848  155.9980 H   0  0  0  0  0  0  0  0  0  0  0  0  # atno 11005 bound_to 11000
  144.9990  140.8615  143.5293 LP  0  0  0  0  0  0  0  0  0  0  0  0  # atno 17320 bound_to 7965
  145.1755  139.2380  143.5320 LP  0  0  0  0  0  0  0  0  0  0  0  0  # atno 17321 bound_to 7965
  139.6413  144.7655  151.2334 LP  0  0  0  0  0  0  0  0  0  0  0  0  # atno 17342 bound_to 10162
  140.7490  143.6313  150.8420 LP  0  0  0  0  0  0  0  0  0  0  0  0  # atno 17343 bound_to 10162
  157.6054  131.0939  150.8889 LP  0  0  0  0  0  0  0  0  0  0  0  0  # atno 17370 bound_to 10713
  156.9038  130.5256  149.5282 LP  0  0  0  0  0  0  0  0  0  0  0  0  # atno 17371 bound_to 10713
  140.8776  134.2650  157.5160 LP  0  0  0  0  0  0  0  0  0  0  0  0  # atno 17394 bound_to 11000
  139.8704  134.9599  156.4347 LP  0  0  0  0  0  0  0  0  0  0  0  0  # atno 17395 bound_to 11000

$$$$
