AV-unprocessed.smi:3165|AV-procd|sdf|12088|dock3
  -GOLD-   2272017523D 1   1.00000     0.00000
 Structure written by MMmdl.
 38 39  0  0  0  0  0  0  0  0  2 V2000
  147.3307  141.4291  156.0900 C   0  0  0  0  0  0  0  0  0  0  0  0
  148.8121  141.0311  156.1341 C   0  0  1  0  0  0  0  0  0  0  0  0
  149.3128  140.6273  154.7313 C   0  0  0  0  0  0  0  0  0  0  0  0
  150.1672  139.4538  154.7542 N   0  0  0  0  0  0  0  0  0  0  0  0
  150.0604  138.2998  154.0069 C   0  0  0  0  0  0  0  0  0  0  0  0
  151.0778  137.4735  154.3898 C   0  0  0  0  0  0  0  0  0  0  0  0
  151.7649  138.2213  155.3866 C   0  0  0  0  0  0  0  0  0  0  0  0
  151.2181  139.4069  155.6015 N   0  0  0  0  0  0  0  0  0  0  0  0
  149.6089  142.1533  156.6802 N   0  3  0  0  0  0  0  0  0  0  0  0
  149.6194  142.2496  158.1551 C   0  0  0  0  0  0  0  0  0  0  0  0
  150.9276  142.8752  158.6569 C   0  0  1  0  0  0  0  0  0  0  0  0
  150.9021  144.4126  158.5547 C   0  0  0  0  0  0  0  0  0  0  0  0
  152.1732  145.0161  159.1630 C   0  0  0  0  0  0  0  0  0  0  0  0
  152.3642  144.4865  160.5879 C   0  0  0  0  0  0  0  0  0  0  0  0
  152.3134  142.9509  160.5969 C   0  0  0  0  0  0  0  0  0  0  0  0
  151.0881  142.5040  160.0248 O   0  0  0  0  0  0  0  0  0  0  0  0
  146.7149  140.6107  155.7157 H   0  0  0  0  0  0  0  0  0  0  0  0
  147.1687  142.2906  155.4410 H   0  0  0  0  0  0  0  0  0  0  0  0
  146.9633  141.6865  157.0839 H   0  0  0  0  0  0  0  0  0  0  0  0
  148.8967  140.1714  156.8012 H   0  0  0  0  0  0  0  0  0  0  0  0
  148.4649  140.4086  154.0807 H   0  0  0  0  0  0  0  0  0  0  0  0
  149.8542  141.4524  154.2650 H   0  0  0  0  0  0  0  0  0  0  0  0
  149.2763  138.1624  153.2768 H   0  0  0  0  0  0  0  0  0  0  0  0
  151.2985  136.4852  154.0145 H   0  0  0  0  0  0  0  0  0  0  0  0
  152.6380  137.9400  155.9568 H   0  0  0  0  0  0  0  0  0  0  0  0
  150.5606  142.0489  156.3568 H   0  0  0  0  0  0  0  0  0  0  0  0
  148.7675  142.8555  158.4657 H   0  0  0  0  0  0  0  0  0  0  0  0
  149.4890  141.2636  158.6020 H   0  0  0  0  0  0  0  0  0  0  0  0
  151.7622  142.4848  158.0714 H   0  0  0  0  0  0  0  0  0  0  0  0
  150.8051  144.7222  157.5136 H   0  0  0  0  0  0  0  0  0  0  0  0
  150.0288  144.8024  159.0794 H   0  0  0  0  0  0  0  0  0  0  0  0
  153.0370  144.7493  158.5525 H   0  0  0  0  0  0  0  0  0  0  0  0
  152.1144  146.1047  159.1662 H   0  0  0  0  0  0  0  0  0  0  0  0
  153.3121  144.8366  160.9971 H   0  0  0  0  0  0  0  0  0  0  0  0
  151.5788  144.8805  161.2343 H   0  0  0  0  0  0  0  0  0  0  0  0
  153.1579  142.5299  160.0491 H   0  0  0  0  0  0  0  0  0  0  0  0
  152.3806  142.5796  161.6196 H   0  0  0  0  0  0  0  0  0  0  0  0
  149.2395  143.0192  156.3146 H   0  0  0  0  0  0  0  0  0  0  0  0
  1  2  1  0  0  0  0
  1 17  1  0  0  0  0
  1 18  1  0  0  0  0
  1 19  1  0  0  0  0
  2  3  1  0  0  0  0
  2  9  1  0  0  0  0
  2 20  1  0  0  0  0
  3  4  1  0  0  0  0
  3 21  1  0  0  0  0
  3 22  1  0  0  0  0
  4  8  1  0  0  0  0
  4  5  1  0  0  0  0
  5  6  2  0  0  0  0
  5 23  1  0  0  0  0
  6  7  1  0  0  0  0
  6 24  1  0  0  0  0
  7  8  2  0  0  0  0
  7 25  1  0  0  0  0
  9 10  1  0  0  0  0
  9 26  1  0  0  0  0
  9 38  1  0  0  0  0
 10 11  1  0  0  0  0
 10 27  1  0  0  0  0
 10 28  1  0  0  0  0
 11 16  1  0  0  0  0
 11 12  1  0  0  0  0
 11 29  1  0  0  0  0
 12 13  1  0  0  0  0
 12 30  1  0  0  0  0
 12 31  1  0  0  0  0
 13 14  1  0  0  0  0
 13 32  1  0  0  0  0
 13 33  1  0  0  0  0
 14 15  1  0  0  0  0
 14 34  1  0  0  0  0
 14 35  1  0  0  0  0
 15 16  1  0  0  0  0
 15 36  1  0  0  0  0
 15 37  1  0  0  0  0
M  CHG  1   9   1
M  END
> <s_m_source_file>
AV-unprocessed.smi

> <i_m_source_file_index>
3165

> <i_lp_mmshare_version>
43012

> <i_f3d_flags>
0

> <s_epik_input>
bjFbY0hdW2NIXVtjSF1uMVtDSDJdW0NAQEhdKFtDSDNdKVtOSF1bQ0gyXVtDQEBIXTJbQ0gyXVtDSDJdW0NIMl1bQ0gyXU8y

> <s_epik_cmdline>
J2VwaWtfcHl0aG9uJywgJy1waCcsICc3LjAnLCAnLXRuJywgJzgnLCAnLW1hJywgJzIwMCcsICctbWV0YWxfYmluZGluZycsICctaW1hZScsICc8aW5maWxlLm1hZT4nLCAnLW9tYWUnLCAnPG91dGZpbGUubWFlPic=

> <r_lp_tautomer_probability>
1

> <r_epik_Ionization_Penalty>
0.00849196

> <r_epik_Ionization_Penalty_Charging>
0.00848754

> <r_epik_Ionization_Penalty_Neutral>
4.42049e-06

> <r_epik_State_Penalty>
0.00639836

> <r_epik_Charging_Adjusted_Penalty>
0.0148859

> <i_epik_Tot_Q>
1

> <i_epik_Tot_abs_Q>
1

> <r_epik_Metal_State_Penalty>
0.00639878

> <b_epik_Metal_Only>
0

> <s_lp_Force_Field>
OPLS_2005

> <r_lp_Energy>
13.0452

> <b_lp_Chiralities_Consistent>
1

> <s_lp_Variant>
AV-unprocessed.smi:3165-4

> <Gold.Version>
5.8.1

> <Gold.Id.Protein>
6NUR|6NUR_protein|mol2

> <Gold.PLP.Fitness>
44.9308

> <Gold.PLP.PLP>
-36.3298

> <Gold.PLP.part.hbond>
-2.3753

> <Gold.PLP.part.metal>
0.0000

> <Gold.PLP.part.buried>
-2.9263

> <Gold.PLP.part.nonpolar>
-30.5520

> <Gold.PLP.part.repulsive>
0.0716

> <Gold.PLP.ligand.clash>
0.0000

> <Gold.PLP.ligand.torsion>
1.2756

> <Gold.PLP.Chemscore.Hbond>
2.0000

> <Gold.PLP.Chemscore.CHOScore>
1.6848

> <Gold.PLP.Chemscore.Metal>
0.0000

> <Gold.Chemscore.Hbonds>
donor molecule, donor type, donor heavy atom, donor atom, acceptor molecule, acceptor atom, score
      L1  H     9    38       P1  8028  2.00
      L1  C     5    23       P1  7948  0.92
      L1  C     5    23       P1  7957  0.15

> <Gold.PLP.Chemscore.Internal.Correction>
0.0976

> <Gold.Rescore>
     Score         DG    S(hbond)    S(metal)    S(lipo)     H(rot)  DE(clash)    DE(int)     intcor
     14.43     -16.29       1.00        0.00      99.83       1.64       0.39       1.46       ----

> <Gold.Chemscore.Fitness>
14.4311

> <Gold.Chemscore.DG>
-16.2854

> <Gold.Chemscore.ZeroCoef>
-5.4800

> <Gold.Chemscore.Hbond>
0.9987

> <Gold.Chemscore.Metal>
0.0000

> <Gold.Chemscore.Lipo>
99.8254

> <Gold.Chemscore.Internal_Hbond>
0.0000

> <Gold.Chemscore.DEClash>
0.3922

> <Gold.Chemscore.DEInternal>
1.4622

> <Gold.Chemscore.Rot>
1.6444

> <Gold.Chemscore.Internal.Correction>
   9.000000E+99

> <Gold.Chemscore.Hbonds>
donor molecule, donor type, donor heavy atom, donor atom, acceptor molecule, acceptor atom, score
      L1  H     9    38       P1  8028  1.00

> <Gold.Chemscore.Hbond.Weighted>
-3.3356

> <Gold.Chemscore.Metal.Weighted>
-0.0000

> <Gold.Chemscore.Lipo.Weighted>
-11.6796

> <Gold.Chemscore.Internal_Hbond.Weighted>
0.0000

> <Gold.Chemscore.DEClash.Weighted>
0.3922

> <Gold.Chemscore.DEInternal.Weighted>
1.4622

> <Gold.Chemscore.Rot.Weighted>
4.2097

> <Gold.Chemscore.Internal.Correction.Weighted>
   9.000000E+99

> <Gold.Protein.RotatedTorsions>
[ 6907 6896 6895 6894 ] final -172.26 input  -60.11 | X-H torsion
[ 7974 7965 7964 7962 ] final  169.06 input  175.53 | X-H torsion
[ 8008 7997 7996 7995 ] final  -47.64 input   59.86 | X-H torsion
[ 10167 10162 10161 10158 ] final  164.83 input  -65.29 | X-H torsion
[ 10718 10713 10712 10709 ] final   91.70 input   66.30 | X-H torsion
[ 10763 10752 10751 10750 ] final  143.04 input  -60.55 | X-H torsion
[ 11005 11000 10999 10996 ] final  141.04 input  -57.11 | X-H torsion

> <Gold.Protein.ActiveResidues>
 VAL166  LYS551  ARG553  GLY616  TRP617  ASP618  TYR619  PRO620  LYS621  CYS622 
 ASP623  PHE694  ASN695  SER759  ASP760  ASP761  ALA762  ILE779  LEU786  VAL792 
 PHE793  MET794  SER795  GLU796  ALA797  LYS798  CYS799  TRP800  GLU811  SER814 

> <Gold.Protein.RotatedAtoms>
  151.5372  133.3439  159.2928 H   0  0  0  0  0  0  0  0  0  0  0  0  # atno 6907 bound_to 6896
  150.8558  134.7898  159.7055 H   0  0  0  0  0  0  0  0  0  0  0  0  # atno 6908 bound_to 6896
  152.4591  134.5232  159.9840 H   0  0  0  0  0  0  0  0  0  0  0  0  # atno 6909 bound_to 6896
  144.7367  139.8999  143.6408 H   0  0  0  0  0  0  0  0  0  0  0  0  # atno 7974 bound_to 7965
  154.4019  140.1341  156.4208 H   0  0  0  0  0  0  0  0  0  0  0  0  # atno 8008 bound_to 7997
  155.7645  140.3485  155.5194 H   0  0  0  0  0  0  0  0  0  0  0  0  # atno 8009 bound_to 7997
  155.8827  140.0990  157.1464 H   0  0  0  0  0  0  0  0  0  0  0  0  # atno 8010 bound_to 7997
  139.4895  144.4194  151.9204 H   0  0  0  0  0  0  0  0  0  0  0  0  # atno 10167 bound_to 10162
  157.6960  131.0417  150.3769 H   0  0  0  0  0  0  0  0  0  0  0  0  # atno 10718 bound_to 10713
  153.9657  135.2955  155.3430 H   0  0  0  0  0  0  0  0  0  0  0  0  # atno 10763 bound_to 10752
  154.7350  135.5050  153.9030 H   0  0  0  0  0  0  0  0  0  0  0  0  # atno 10764 bound_to 10752
  153.0924  135.6711  153.9938 H   0  0  0  0  0  0  0  0  0  0  0  0  # atno 10765 bound_to 10752
  140.0371  134.9323  157.0774 H   0  0  0  0  0  0  0  0  0  0  0  0  # atno 11005 bound_to 11000
  146.1079  139.4081  143.0306 LP  0  0  0  0  0  0  0  0  0  0  0  0  # atno 17320 bound_to 7965
  145.7485  140.9981  143.1263 LP  0  0  0  0  0  0  0  0  0  0  0  0  # atno 17321 bound_to 7965
  140.3638  144.2940  150.5929 LP  0  0  0  0  0  0  0  0  0  0  0  0  # atno 17342 bound_to 10162
  140.5379  143.2229  151.8132 LP  0  0  0  0  0  0  0  0  0  0  0  0  # atno 17343 bound_to 10162
  156.4188  130.3948  149.6840 LP  0  0  0  0  0  0  0  0  0  0  0  0  # atno 17370 bound_to 10713
  156.4098  130.7716  151.2729 LP  0  0  0  0  0  0  0  0  0  0  0  0  # atno 17371 bound_to 10713
  140.4129  134.1962  155.7163 LP  0  0  0  0  0  0  0  0  0  0  0  0  # atno 17394 bound_to 11000
  141.1863  133.8304  157.1072 LP  0  0  0  0  0  0  0  0  0  0  0  0  # atno 17395 bound_to 11000

$$$$
