AV-unprocessed.smi:53|AV-procd|sdf|514|dock9
  -GOLD-   2262016383D 1   1.00000     0.00000
 Structure written by MMmdl.
 30 31  0  0  0  0  0  0  0  0  1 V2000
  153.6075  143.5304  159.0286 N   0  0  0  0  0  0  0  0  0  0  0  0
  152.6767  142.7722  158.4325 C   0  0  0  0  0  0  0  0  0  0  0  0
  151.8454  143.3229  157.3873 C   0  0  0  0  0  0  0  0  0  0  0  0
  150.9341  142.4948  156.8307 C   0  0  0  0  0  0  0  0  0  0  0  0
  150.8051  141.1641  157.2151 N   0  0  0  0  0  0  0  0  0  0  0  0
  149.7602  140.2363  156.6136 C   0  0  1  0  0  0  0  0  0  0  0  0
  148.5154  140.8663  156.5949 O   0  0  0  0  0  0  0  0  0  0  0  0
  148.3356  141.5227  155.3463 C   0  0  2  0  0  0  0  0  0  0  0  0
  146.8458  141.8188  155.1200 C   0  0  0  0  0  0  0  0  0  0  0  0
  146.7003  142.9789  154.3287 O   0  0  0  0  0  0  0  0  0  0  0  0
  148.9173  140.5016  154.3671 C   0  0  1  0  0  0  0  0  0  0  0  0
  149.3764  141.1497  153.1975 O   0  0  0  0  0  0  0  0  0  0  0  0
  150.0842  139.8887  155.1406 C   0  0  2  0  0  0  0  0  0  0  0  0
  150.1252  138.4915  154.9279 O   0  0  0  0  0  0  0  0  0  0  0  0
  151.6090  140.6696  158.2721 C   0  0  0  0  0  0  0  0  0  0  0  0
  151.4887  139.5197  158.6927 O   0  0  0  0  0  0  0  0  0  0  0  0
  152.5292  141.5213  158.8212 N   0  0  0  0  0  0  0  0  0  0  0  0
  149.7308  139.3791  157.2899 H   0  0  0  0  0  0  0  0  0  0  0  0
  148.9262  142.4406  155.3149 H   0  0  0  0  0  0  0  0  0  0  0  0
  148.1687  139.7474  154.1179 H   0  0  0  0  0  0  0  0  0  0  0  0
  151.0346  140.3359  154.8454 H   0  0  0  0  0  0  0  0  0  0  0  0
  154.1832  143.1442  159.7628 H   0  0  0  0  0  0  0  0  0  0  0  0
  153.7280  144.4913  158.7431 H   0  0  0  0  0  0  0  0  0  0  0  0
  151.9219  144.3447  157.0436 H   0  0  0  0  0  0  0  0  0  0  0  0
  150.3029  142.9157  156.0630 H   0  0  0  0  0  0  0  0  0  0  0  0
  146.3775  140.9944  154.5814 H   0  0  0  0  0  0  0  0  0  0  0  0
  146.3145  141.9333  156.0653 H   0  0  0  0  0  0  0  0  0  0  0  0
  147.4164  143.5652  154.5201 H   0  0  0  0  0  0  0  0  0  0  0  0
  149.4834  140.5004  152.5187 H   0  0  0  0  0  0  0  0  0  0  0  0
  149.7947  138.3095  154.0615 H   0  0  0  0  0  0  0  0  0  0  0  0
  1  2  1  0  0  0  0
  1 22  1  0  0  0  0
  1 23  1  0  0  0  0
  2 17  2  0  0  0  0
  2  3  1  0  0  0  0
  3  4  2  0  0  0  0
  3 24  1  0  0  0  0
  4  5  1  0  0  0  0
  4 25  1  0  0  0  0
  5  6  1  0  0  0  0
  5 15  1  0  0  0  0
  6 18  1  0  0  0  0
  6 13  1  0  0  0  0
  6  7  1  0  0  0  0
  7  8  1  0  0  0  0
  8 19  1  0  0  0  0
  8  9  1  0  0  0  0
  8 11  1  0  0  0  0
  9 10  1  0  0  0  0
  9 26  1  0  0  0  0
  9 27  1  0  0  0  0
 10 28  1  0  0  0  0
 11 20  1  0  0  0  0
 11 12  1  0  0  0  0
 11 13  1  0  0  0  0
 12 29  1  0  0  0  0
 13 21  1  0  0  0  0
 13 14  1  0  0  0  0
 14 30  1  0  0  0  0
 15 16  2  0  0  0  0
 15 17  1  0  0  0  0
M  END
> <s_m_source_file>
AV-unprocessed.smi

> <i_m_source_file_index>
53

> <i_lp_mmshare_version>
43012

> <i_f3d_flags>
0

> <s_epik_input>
W05IMl1jMVtjSF1bY0hdbihjKD1PKW4xKVtDQEBIXTJPW0NASF0oW0NIMl1bT0hdKVtDQEBIXShbT0hdKVtDQEBIXTJbT0hd

> <s_epik_cmdline>
J2VwaWtfcHl0aG9uJywgJy1waCcsICc3LjAnLCAnLXRuJywgJzgnLCAnLW1hJywgJzIwMCcsICctbWV0YWxfYmluZGluZycsICctaW1hZScsICc8aW5maWxlLm1hZT4nLCAnLW9tYWUnLCAnPG91dGZpbGUubWFlPic=

> <r_lp_tautomer_probability>
0.99996

> <r_epik_Ionization_Penalty>
0.00069087

> <r_epik_Ionization_Penalty_Charging>
2.61959e-08

> <r_epik_Ionization_Penalty_Neutral>
0.000690844

> <r_epik_State_Penalty>
1.15523e-05

> <r_epik_Charging_Adjusted_Penalty>
1.15785e-05

> <i_epik_Tot_Q>
0

> <i_epik_Tot_abs_Q>
0

> <r_epik_Metal_State_Penalty>
-0

> <b_epik_Metal_Only>
0

> <s_epik_Chemistry_Notes>
This compound contains an acetal/aminal-like group ( X-CH(R)-Y where X, Y are N, S, or O) that may be acid/base labile, releasing an aldehyde.

> <s_lp_Force_Field>
OPLS_2005

> <r_lp_Energy>
26.6068

> <b_lp_Chiralities_Consistent>
1

> <s_lp_Variant>
AV-unprocessed.smi:53-2

> <Gold.Version>
5.8.1

> <Gold.Id.Protein>
6NUR|6NUR_protein|mol2

> <Gold.PLP.Fitness>
35.9334

> <Gold.PLP.PLP>
-25.8482

> <Gold.PLP.part.hbond>
-3.9008

> <Gold.PLP.part.metal>
0.0000

> <Gold.PLP.part.buried>
-5.7417

> <Gold.PLP.part.nonpolar>
-17.5259

> <Gold.PLP.part.repulsive>
0.0722

> <Gold.PLP.ligand.clash>
0.0000

> <Gold.PLP.ligand.torsion>
0.5992

> <Gold.PLP.Chemscore.Hbond>
2.7483

> <Gold.PLP.Chemscore.CHOScore>
1.0000

> <Gold.PLP.Chemscore.Metal>
0.0000

> <Gold.Chemscore.Hbonds>
donor molecule, donor type, donor heavy atom, donor atom, acceptor molecule, acceptor atom, score
      L1  H    10    28       P1  8028  0.64
      L1  H    12    29       P1  7957  0.76
      P1  H  7989  7998       L1    12  0.01
      P1  H  8011  8017       L1    12  0.85
      L1  C     4    25       P1  8028  1.00

> <Gold.PLP.Chemscore.Internal.Correction>
0.0387

> <Gold.Rescore>
     Score         DG    S(hbond)    S(metal)    S(lipo)     H(rot)  DE(clash)    DE(int)     intcor
      5.29      -6.05       1.55        0.00      41.91       3.71       0.19       0.57       ----

> <Gold.Chemscore.Fitness>
5.2888

> <Gold.Chemscore.DG>
-6.0505

> <Gold.Chemscore.ZeroCoef>
-5.4800

> <Gold.Chemscore.Hbond>
1.5459

> <Gold.Chemscore.Metal>
0.0000

> <Gold.Chemscore.Lipo>
41.9117

> <Gold.Chemscore.Internal_Hbond>
0.0000

> <Gold.Chemscore.DEClash>
0.1917

> <Gold.Chemscore.DEInternal>
0.5700

> <Gold.Chemscore.Rot>
3.7095

> <Gold.Chemscore.Internal.Correction>
   9.000000E+99

> <Gold.Chemscore.Hbonds>
donor molecule, donor type, donor heavy atom, donor atom, acceptor molecule, acceptor atom, score
      L1  H    10    28       P1  8028  0.11
      L1  H    12    29       P1  7957  0.73
      P1  H  8011  8017       L1    12  0.14

> <Gold.Chemscore.Hbond.Weighted>
-5.1632

> <Gold.Chemscore.Metal.Weighted>
-0.0000

> <Gold.Chemscore.Lipo.Weighted>
-4.9037

> <Gold.Chemscore.Internal_Hbond.Weighted>
0.0000

> <Gold.Chemscore.DEClash.Weighted>
0.1917

> <Gold.Chemscore.DEInternal.Weighted>
0.5700

> <Gold.Chemscore.Rot.Weighted>
9.4964

> <Gold.Chemscore.Internal.Correction.Weighted>
   9.000000E+99

> <Gold.Protein.RotatedTorsions>
[ 6907 6896 6895 6894 ] final  -55.05 input  -60.11 | X-H torsion
[ 7974 7965 7964 7962 ] final -129.72 input  175.53 | X-H torsion
[ 8008 7997 7996 7995 ] final  -43.59 input   59.86 | X-H torsion
[ 10167 10162 10161 10158 ] final   22.93 input  -65.29 | X-H torsion
[ 10718 10713 10712 10709 ] final  -15.55 input   66.30 | X-H torsion
[ 10763 10752 10751 10750 ] final   61.99 input  -60.55 | X-H torsion
[ 11005 11000 10999 10996 ] final    3.48 input  -57.11 | X-H torsion

> <Gold.Protein.ActiveResidues>
 VAL166  LYS551  ARG553  GLY616  TRP617  ASP618  TYR619  PRO620  LYS621  CYS622 
 ASP623  PHE694  ASN695  SER759  ASP760  ASP761  ALA762  ILE779  LEU786  VAL792 
 PHE793  MET794  SER795  GLU796  ALA797  LYS798  CYS799  TRP800  GLU811  SER814 

> <Gold.Protein.RotatedAtoms>
  150.8285  134.7527  159.6833 H   0  0  0  0  0  0  0  0  0  0  0  0  # atno 6907 bound_to 6896
  152.4393  134.5620  159.9906 H   0  0  0  0  0  0  0  0  0  0  0  0  # atno 6908 bound_to 6896
  151.5787  133.3343  159.3040 H   0  0  0  0  0  0  0  0  0  0  0  0  # atno 6909 bound_to 6896
  144.9544  140.7379  143.4768 H   0  0  0  0  0  0  0  0  0  0  0  0  # atno 7974 bound_to 7965
  154.3997  140.1444  156.3544 H   0  0  0  0  0  0  0  0  0  0  0  0  # atno 8008 bound_to 7997
  155.8239  140.3468  155.5510 H   0  0  0  0  0  0  0  0  0  0  0  0  # atno 8009 bound_to 7997
  155.8259  140.0905  157.1812 H   0  0  0  0  0  0  0  0  0  0  0  0  # atno 8010 bound_to 7997
  140.5309  143.9843  150.6465 H   0  0  0  0  0  0  0  0  0  0  0  0  # atno 10167 bound_to 10162
  156.6001  130.4822  149.6243 H   0  0  0  0  0  0  0  0  0  0  0  0  # atno 10718 bound_to 10713
  152.9968  135.5481  154.6121 H   0  0  0  0  0  0  0  0  0  0  0  0  # atno 10763 bound_to 10752
  154.5439  135.2822  155.1072 H   0  0  0  0  0  0  0  0  0  0  0  0  # atno 10764 bound_to 10752
  154.2338  135.6428  153.5237 H   0  0  0  0  0  0  0  0  0  0  0  0  # atno 10765 bound_to 10752
  140.5926  133.9910  155.8095 H   0  0  0  0  0  0  0  0  0  0  0  0  # atno 11005 bound_to 11000
  145.2795  139.1924  143.4799 LP  0  0  0  0  0  0  0  0  0  0  0  0  # atno 17320 bound_to 7965
  146.3332  140.2754  142.8608 LP  0  0  0  0  0  0  0  0  0  0  0  0  # atno 17321 bound_to 7965
  140.3218  143.3132  152.0777 LP  0  0  0  0  0  0  0  0  0  0  0  0  # atno 17342 bound_to 10162
  139.4954  144.6569  151.6553 LP  0  0  0  0  0  0  0  0  0  0  0  0  # atno 17343 bound_to 10162
  156.2476  130.6888  151.1615 LP  0  0  0  0  0  0  0  0  0  0  0  0  # atno 17370 bound_to 10713
  157.7282  131.0634  150.5832 LP  0  0  0  0  0  0  0  0  0  0  0  0  # atno 17371 bound_to 10713
  141.0925  133.9895  157.3214 LP  0  0  0  0  0  0  0  0  0  0  0  0  # atno 17394 bound_to 11000
  139.9267  135.0201  156.8260 LP  0  0  0  0  0  0  0  0  0  0  0  0  # atno 17395 bound_to 11000

$$$$
