AV-unprocessed.smi:1603|AV-procd|sdf|6445|dock5
  -GOLD-   22720 7 93D 1   1.00000     0.00000
 Structure written by MMmdl.
 44 46  0  0  0  0  0  0  0  0  1 V2000
  153.6282  136.2590  160.6840 O   0  0  0  0  0  0  0  0  0  0  0  0
  153.6594  137.4687  160.9122 C   0  0  0  0  0  0  0  0  0  0  0  0
  154.0977  138.0374  162.1961 C   0  0  0  0  0  0  0  0  0  0  0  0
  154.5590  137.0727  163.2853 C   0  0  0  0  0  0  0  0  0  0  0  0
  153.5277  136.4824  163.8915 F   0  0  0  0  0  0  0  0  0  0  0  0
  155.3301  136.1164  162.7667 F   0  0  0  0  0  0  0  0  0  0  0  0
  155.2638  137.7175  164.2162 F   0  0  0  0  0  0  0  0  0  0  0  0
  154.0947  139.3798  162.3816 C   0  0  0  0  0  0  0  0  0  0  0  0
  153.6544  140.2634  161.3214 C   0  0  0  0  0  0  0  0  0  0  0  0
  153.6056  141.7577  161.4641 C   0  0  0  0  0  0  0  0  0  0  0  0
  152.7590  142.4412  162.5137 C   0  0  0  0  0  0  0  0  0  0  0  0
  152.3892  142.5538  161.0525 C   0  0  0  0  0  0  0  0  0  0  0  0
  153.2808  139.7626  160.1925 N   0  0  0  0  0  0  0  0  0  0  0  0
  153.2914  138.3975  159.9801 N   0  0  0  0  0  0  0  0  0  0  0  0
  152.8500  138.0097  158.6325 C   0  0  0  0  0  0  0  0  0  0  0  0
  152.3761  139.2191  157.7958 C   0  0  2  0  0  0  0  0  0  0  0  0
  151.2620  139.7773  158.4637 O   0  0  0  0  0  0  0  0  0  0  0  0
  151.9623  138.8545  156.3516 C   0  0  0  0  0  0  0  0  0  0  0  0
  150.6368  139.3223  155.9483 N   0  0  0  0  0  0  0  0  0  0  0  0
  150.6434  140.7596  155.6977 C   0  0  0  0  0  0  0  0  0  0  0  0
  149.2578  141.2755  155.2730 C   0  0  0  0  0  0  0  0  0  0  0  0
  148.8198  140.5662  154.1189 O   0  0  0  0  0  0  0  0  0  0  0  0
  148.7550  139.1597  154.3311 C   0  0  0  0  0  0  0  0  0  0  0  0
  150.1369  138.6353  154.7596 C   0  0  0  0  0  0  0  0  0  0  0  0
  154.4180  139.8157  163.3151 H   0  0  0  0  0  0  0  0  0  0  0  0
  154.5796  142.1966  161.2554 H   0  0  0  0  0  0  0  0  0  0  0  0
  152.1173  141.8262  163.1420 H   0  0  0  0  0  0  0  0  0  0  0  0
  153.1744  143.3237  162.9961 H   0  0  0  0  0  0  0  0  0  0  0  0
  152.5589  143.5102  160.5620 H   0  0  0  0  0  0  0  0  0  0  0  0
  151.5101  142.0070  160.7161 H   0  0  0  0  0  0  0  0  0  0  0  0
  153.6151  137.4534  158.0886 H   0  0  0  0  0  0  0  0  0  0  0  0
  152.0229  137.3064  158.7488 H   0  0  0  0  0  0  0  0  0  0  0  0
  153.1658  139.9719  157.7811 H   0  0  0  0  0  0  0  0  0  0  0  0
  150.4828  139.3279  158.1744 H   0  0  0  0  0  0  0  0  0  0  0  0
  152.6819  139.3063  155.6710 H   0  0  0  0  0  0  0  0  0  0  0  0
  152.0554  137.7797  156.1867 H   0  0  0  0  0  0  0  0  0  0  0  0
  150.9647  141.2910  156.5942 H   0  0  0  0  0  0  0  0  0  0  0  0
  151.3692  140.9961  154.9180 H   0  0  0  0  0  0  0  0  0  0  0  0
  148.5351  141.1529  156.0813 H   0  0  0  0  0  0  0  0  0  0  0  0
  149.3035  142.3396  155.0416 H   0  0  0  0  0  0  0  0  0  0  0  0
  148.0045  138.9346  155.0907 H   0  0  0  0  0  0  0  0  0  0  0  0
  148.4341  138.6739  153.4096 H   0  0  0  0  0  0  0  0  0  0  0  0
  150.8422  138.7596  153.9365 H   0  0  0  0  0  0  0  0  0  0  0  0
  150.0608  137.5646  154.9472 H   0  0  0  0  0  0  0  0  0  0  0  0
  1  2  2  0  0  0  0
  2 14  1  0  0  0  0
  2  3  1  0  0  0  0
  3  4  1  0  0  0  0
  3  8  2  0  0  0  0
  4  5  1  0  0  0  0
  4  6  1  0  0  0  0
  4  7  1  0  0  0  0
  8  9  1  0  0  0  0
  8 25  1  0  0  0  0
  9 10  1  0  0  0  0
  9 13  2  0  0  0  0
 10 12  1  0  0  0  0
 10 11  1  0  0  0  0
 10 26  1  0  0  0  0
 11 12  1  0  0  0  0
 11 27  1  0  0  0  0
 11 28  1  0  0  0  0
 12 29  1  0  0  0  0
 12 30  1  0  0  0  0
 13 14  1  0  0  0  0
 14 15  1  0  0  0  0
 15 16  1  0  0  0  0
 15 31  1  0  0  0  0
 15 32  1  0  0  0  0
 16 17  1  0  0  0  0
 16 18  1  0  0  0  0
 16 33  1  0  0  0  0
 17 34  1  0  0  0  0
 18 19  1  0  0  0  0
 18 35  1  0  0  0  0
 18 36  1  0  0  0  0
 19 24  1  0  0  0  0
 19 20  1  0  0  0  0
 20 21  1  0  0  0  0
 20 37  1  0  0  0  0
 20 38  1  0  0  0  0
 21 22  1  0  0  0  0
 21 39  1  0  0  0  0
 21 40  1  0  0  0  0
 22 23  1  0  0  0  0
 23 24  1  0  0  0  0
 23 41  1  0  0  0  0
 23 42  1  0  0  0  0
 24 43  1  0  0  0  0
 24 44  1  0  0  0  0
M  END
> <s_m_source_file>
AV-unprocessed.smi

> <i_m_source_file_index>
1603

> <i_lp_mmshare_version>
43012

> <i_f3d_flags>
0

> <s_epik_input>
Tz1jMWMoQyhGKShGKUYpW2NIXWMoW0NIXTJbQ0gyXVtDSDJdMilubjFbQ0gyXVtDQEhdKFtPSF0pW0NIMl1OM1tDSDJdW0NIMl1PW0NIMl1bQ0gyXTM=

> <s_epik_cmdline>
J2VwaWtfcHl0aG9uJywgJy1waCcsICc3LjAnLCAnLXRuJywgJzgnLCAnLW1hJywgJzIwMCcsICctbWV0YWxfYmluZGluZycsICctaW1hZScsICc8aW5maWxlLm1hZT4nLCAnLW9tYWUnLCAnPG91dGZpbGUubWFlPic=

> <r_lp_tautomer_probability>
1

> <r_epik_Ionization_Penalty>
0.450313

> <r_epik_Ionization_Penalty_Charging>
7.22079e-10

> <r_epik_Ionization_Penalty_Neutral>
0.450313

> <r_epik_State_Penalty>
0.45306

> <r_epik_Charging_Adjusted_Penalty>
0.45306

> <i_epik_Tot_Q>
0

> <i_epik_Tot_abs_Q>
0

> <r_epik_Metal_State_Penalty>
0.45306

> <b_epik_Metal_Only>
0

> <s_lp_Force_Field>
OPLS_2005

> <r_lp_Energy>
49.46

> <b_lp_Chiralities_Consistent>
1

> <s_lp_Variant>
AV-unprocessed.smi:1603-3

> <Gold.Version>
5.8.1

> <Gold.Id.Protein>
6NUR|6NUR_protein|mol2

> <Gold.PLP.Fitness>
44.2290

> <Gold.PLP.PLP>
-44.3254

> <Gold.PLP.part.hbond>
-0.9738

> <Gold.PLP.part.metal>
0.0000

> <Gold.PLP.part.buried>
-5.0015

> <Gold.PLP.part.nonpolar>
-38.5937

> <Gold.PLP.part.repulsive>
0.3844

> <Gold.PLP.ligand.clash>
0.4518

> <Gold.PLP.ligand.torsion>
1.6898

> <Gold.PLP.Chemscore.Hbond>
0.9913

> <Gold.PLP.Chemscore.CHOScore>
0.0000

> <Gold.PLP.Chemscore.Metal>
0.0000

> <Gold.Chemscore.Hbonds>
donor molecule, donor type, donor heavy atom, donor atom, acceptor molecule, acceptor atom, score
      P1  H  6896  6909       L1     1  1.00

> <Gold.PLP.Chemscore.Internal.Correction>
0.7613

> <Gold.Rescore>
     Score         DG    S(hbond)    S(metal)    S(lipo)     H(rot)  DE(clash)    DE(int)     intcor
     11.21     -14.48       1.00        0.00     101.47       2.43       0.03       3.24       ----

> <Gold.Chemscore.Fitness>
11.2094

> <Gold.Chemscore.DG>
-14.4774

> <Gold.Chemscore.ZeroCoef>
-5.4800

> <Gold.Chemscore.Hbond>
0.9995

> <Gold.Chemscore.Metal>
0.0000

> <Gold.Chemscore.Lipo>
101.4747

> <Gold.Chemscore.Internal_Hbond>
0.0000

> <Gold.Chemscore.DEClash>
0.0270

> <Gold.Chemscore.DEInternal>
3.2410

> <Gold.Chemscore.Rot>
2.4272

> <Gold.Chemscore.Internal.Correction>
   9.000000E+99

> <Gold.Chemscore.Hbonds>
donor molecule, donor type, donor heavy atom, donor atom, acceptor molecule, acceptor atom, score
      P1  H  6896  6909       L1     1  0.93

> <Gold.Chemscore.Hbond.Weighted>
-3.3384

> <Gold.Chemscore.Metal.Weighted>
-0.0000

> <Gold.Chemscore.Lipo.Weighted>
-11.8725

> <Gold.Chemscore.Internal_Hbond.Weighted>
0.0000

> <Gold.Chemscore.DEClash.Weighted>
0.0270

> <Gold.Chemscore.DEInternal.Weighted>
3.2410

> <Gold.Chemscore.Rot.Weighted>
6.2135

> <Gold.Chemscore.Internal.Correction.Weighted>
   9.000000E+99

> <Gold.Protein.RotatedTorsions>
[ 6907 6896 6895 6894 ] final  163.44 input  -60.11 | X-H torsion
[ 7974 7965 7964 7962 ] final   79.21 input  175.53 | X-H torsion
[ 8008 7997 7996 7995 ] final  111.16 input   59.86 | X-H torsion
[ 10167 10162 10161 10158 ] final   27.23 input  -65.29 | X-H torsion
[ 10718 10713 10712 10709 ] final -105.80 input   66.30 | X-H torsion
[ 10763 10752 10751 10750 ] final  -31.97 input  -60.55 | X-H torsion
[ 11005 11000 10999 10996 ] final   82.75 input  -57.11 | X-H torsion

> <Gold.Protein.ActiveResidues>
 VAL166  LYS551  ARG553  GLY616  TRP617  ASP618  TYR619  PRO620  LYS621  CYS622 
 ASP623  PHE694  ASN695  SER759  ASP760  ASP761  ALA762  ILE779  LEU786  VAL792 
 PHE793  MET794  SER795  GLU796  ALA797  LYS798  CYS799  TRP800  GLU811  SER814 

> <Gold.Protein.RotatedAtoms>
  151.9251  133.3596  159.3910 H   0  0  0  0  0  0  0  0  0  0  0  0  # atno 6907 bound_to 6896
  150.7029  134.4595  159.5383 H   0  0  0  0  0  0  0  0  0  0  0  0  # atno 6908 bound_to 6896
  152.2225  134.8399  160.0535 H   0  0  0  0  0  0  0  0  0  0  0  0  # atno 6909 bound_to 6896
  145.6671  139.2487  143.1889 H   0  0  0  0  0  0  0  0  0  0  0  0  # atno 7974 bound_to 7965
  156.2104  140.3024  155.9720 H   0  0  0  0  0  0  0  0  0  0  0  0  # atno 8008 bound_to 7997
  155.2737  140.0435  157.3026 H   0  0  0  0  0  0  0  0  0  0  0  0  # atno 8009 bound_to 7997
  154.5692  140.2343  155.8226 H   0  0  0  0  0  0  0  0  0  0  0  0  # atno 8010 bound_to 7997
  140.4956  144.0397  150.6313 H   0  0  0  0  0  0  0  0  0  0  0  0  # atno 10167 bound_to 10162
  156.0362  130.5581  150.7590 H   0  0  0  0  0  0  0  0  0  0  0  0  # atno 10718 bound_to 10713
  153.8060  135.6886  153.4848 H   0  0  0  0  0  0  0  0  0  0  0  0  # atno 10763 bound_to 10752
  153.1658  135.4562  154.9834 H   0  0  0  0  0  0  0  0  0  0  0  0  # atno 10764 bound_to 10752
  154.7987  135.3329  154.7545 H   0  0  0  0  0  0  0  0  0  0  0  0  # atno 10765 bound_to 10752
  139.9053  134.8094  156.2216 H   0  0  0  0  0  0  0  0  0  0  0  0  # atno 11005 bound_to 11000
  146.1077  140.7467  142.9518 LP  0  0  0  0  0  0  0  0  0  0  0  0  # atno 17320 bound_to 7965
  144.7069  140.3888  143.7111 LP  0  0  0  0  0  0  0  0  0  0  0  0  # atno 17321 bound_to 7965
  140.3679  143.2871  152.0311 LP  0  0  0  0  0  0  0  0  0  0  0  0  # atno 17342 bound_to 10162
  139.4860  144.6253  151.7177 LP  0  0  0  0  0  0  0  0  0  0  0  0  # atno 17343 bound_to 10162
  157.5114  131.0926  151.0193 LP  0  0  0  0  0  0  0  0  0  0  0  0  # atno 17370 bound_to 10713
  157.0547  130.5801  149.5376 LP  0  0  0  0  0  0  0  0  0  0  0  0  # atno 17371 bound_to 10713
  141.0402  133.6942  156.1584 LP  0  0  0  0  0  0  0  0  0  0  0  0  # atno 17394 bound_to 11000
  140.6967  134.4608  157.5587 LP  0  0  0  0  0  0  0  0  0  0  0  0  # atno 17395 bound_to 11000

$$$$
