AV-unprocessed.smi:2696|AV-procd|sdf|10413|dock6
  -GOLD-   2272014453D 1   1.00000     0.00000
 Structure written by MMmdl.
 43 44  0  0  0  0  0  0  0  0  1 V2000
  151.8825  143.6542  161.5632 C   0  0  0  0  0  0  0  0  0  0  0  0
  153.0172  143.4922  160.5404 C   0  0  0  0  0  0  0  0  0  0  0  0
  152.6232  144.0463  159.1619 C   0  0  0  0  0  0  0  0  0  0  0  0
  153.4861  142.0461  160.4505 C   0  0  0  0  0  0  0  0  0  0  0  0
  153.4272  141.3342  159.2995 C   0  0  0  0  0  0  0  0  0  0  0  0
  153.9086  139.9542  159.2461 C   0  0  0  0  0  0  0  0  0  0  0  0
  153.8440  139.2719  158.2239 O   0  0  0  0  0  0  0  0  0  0  0  0
  154.4443  139.4852  160.4109 N   0  0  0  0  0  0  0  0  0  0  0  0
  155.0384  138.1334  160.4851 C   0  0  0  0  0  0  0  0  0  0  0  0
  154.0101  136.9778  160.6901 C   0  0  1  0  0  0  0  0  0  0  0  0
  152.6136  137.4207  160.2041 C   0  0  0  0  0  0  0  0  0  0  0  0
  154.3462  135.9578  159.7659 O   0  0  0  0  0  0  0  0  0  0  0  0
  153.9589  136.4672  162.1390 C   0  0  0  0  0  0  0  0  0  0  0  0
  153.6447  137.3371  163.2101 C   0  0  0  0  0  0  0  0  0  0  0  0
  153.5607  136.8491  164.5273 C   0  0  0  0  0  0  0  0  0  0  0  0
  153.7850  135.4858  164.7902 C   0  0  0  0  0  0  0  0  0  0  0  0
  154.0919  134.6008  163.7368 C   0  0  0  0  0  0  0  0  0  0  0  0
  154.3215  133.1269  164.0372 C   0  0  0  0  0  0  0  0  0  0  0  0
  154.5946  132.4311  162.9327 F   0  0  0  0  0  0  0  0  0  0  0  0
  155.3446  133.0040  164.8819 F   0  0  0  0  0  0  0  0  0  0  0  0
  153.2327  132.6047  164.6019 F   0  0  0  0  0  0  0  0  0  0  0  0
  154.1823  135.0986  162.4185 C   0  0  0  0  0  0  0  0  0  0  0  0
  154.4449  140.2554  161.5928 C   0  0  0  0  0  0  0  0  0  0  0  0
  153.9979  141.4701  161.6177 N   0  0  0  0  0  0  0  0  0  0  0  0
  152.1862  143.2893  162.5449 H   0  0  0  0  0  0  0  0  0  0  0  0
  150.9898  143.1042  161.2640 H   0  0  0  0  0  0  0  0  0  0  0  0
  151.6030  144.7023  161.6743 H   0  0  0  0  0  0  0  0  0  0  0  0
  153.8594  144.0884  160.8960 H   0  0  0  0  0  0  0  0  0  0  0  0
  153.4426  143.9422  158.4497 H   0  0  0  0  0  0  0  0  0  0  0  0
  152.3741  145.1059  159.2236 H   0  0  0  0  0  0  0  0  0  0  0  0
  151.7565  143.5278  158.7513 H   0  0  0  0  0  0  0  0  0  0  0  0
  153.0305  141.7862  158.4022 H   0  0  0  0  0  0  0  0  0  0  0  0
  155.5807  137.9409  159.5572 H   0  0  0  0  0  0  0  0  0  0  0  0
  155.8200  138.0985  161.2469 H   0  0  0  0  0  0  0  0  0  0  0  0
  152.2275  138.2673  160.7714 H   0  0  0  0  0  0  0  0  0  0  0  0
  151.8879  136.6107  160.2912 H   0  0  0  0  0  0  0  0  0  0  0  0
  152.6361  137.7303  159.1582 H   0  0  0  0  0  0  0  0  0  0  0  0
  155.0462  135.4382  160.1307 H   0  0  0  0  0  0  0  0  0  0  0  0
  153.4506  138.3850  163.0358 H   0  0  0  0  0  0  0  0  0  0  0  0
  153.3177  137.5216  165.3366 H   0  0  0  0  0  0  0  0  0  0  0  0
  153.7158  135.1178  165.8033 H   0  0  0  0  0  0  0  0  0  0  0  0
  154.4029  134.4190  161.6098 H   0  0  0  0  0  0  0  0  0  0  0  0
  154.8577  139.7645  162.4755 H   0  0  0  0  0  0  0  0  0  0  0  0
  1  2  1  0  0  0  0
  1 25  1  0  0  0  0
  1 26  1  0  0  0  0
  1 27  1  0  0  0  0
  2  3  1  0  0  0  0
  2  4  1  0  0  0  0
  2 28  1  0  0  0  0
  3 29  1  0  0  0  0
  3 30  1  0  0  0  0
  3 31  1  0  0  0  0
  4 24  1  0  0  0  0
  4  5  2  0  0  0  0
  5  6  1  0  0  0  0
  5 32  1  0  0  0  0
  6  7  2  0  0  0  0
  6  8  1  0  0  0  0
  8  9  1  0  0  0  0
  8 23  1  0  0  0  0
  9 10  1  0  0  0  0
  9 33  1  0  0  0  0
  9 34  1  0  0  0  0
 10 11  1  0  0  0  0
 10 12  1  0  0  0  0
 10 13  1  0  0  0  0
 11 35  1  0  0  0  0
 11 36  1  0  0  0  0
 11 37  1  0  0  0  0
 12 38  1  0  0  0  0
 13 22  1  0  0  0  0
 13 14  2  0  0  0  0
 14 15  1  0  0  0  0
 14 39  1  0  0  0  0
 15 16  2  0  0  0  0
 15 40  1  0  0  0  0
 16 17  1  0  0  0  0
 16 41  1  0  0  0  0
 17 18  1  0  0  0  0
 17 22  2  0  0  0  0
 18 19  1  0  0  0  0
 18 20  1  0  0  0  0
 18 21  1  0  0  0  0
 22 42  1  0  0  0  0
 23 24  2  0  0  0  0
 23 43  1  0  0  0  0
M  END
> <s_m_source_file>
AV-unprocessed.smi

> <i_m_source_file_index>
2696

> <i_lp_mmshare_version>
43012

> <i_f3d_flags>
0

> <s_epik_input>
W0NIM11bQ0hdKFtDSDNdKWMxW2NIXWMoPU8pbihbY0hdbjEpW0NIMl1bQ0BAXShbQ0gzXSkoW09IXSljMltjSF1bY0hdW2NIXWMoQyhGKShGKUYpW2NIXTI=

> <s_epik_cmdline>
J2VwaWtfcHl0aG9uJywgJy1waCcsICc3LjAnLCAnLXRuJywgJzgnLCAnLW1hJywgJzIwMCcsICctbWV0YWxfYmluZGluZycsICctaW1hZScsICc8aW5maWxlLm1hZT4nLCAnLW9tYWUnLCAnPG91dGZpbGUubWFlPic=

> <r_lp_tautomer_probability>
1

> <r_epik_Ionization_Penalty>
2.71388e-05

> <r_epik_Ionization_Penalty_Charging>
4.19927e-06

> <r_epik_Ionization_Penalty_Neutral>
2.29395e-05

> <r_epik_State_Penalty>
-0

> <r_epik_Charging_Adjusted_Penalty>
4.19927e-06

> <i_epik_Tot_Q>
0

> <i_epik_Tot_abs_Q>
0

> <r_epik_Metal_State_Penalty>
-0

> <b_epik_Metal_Only>
0

> <s_lp_Force_Field>
OPLS_2005

> <r_lp_Energy>
19.4026

> <b_lp_Chiralities_Consistent>
1

> <s_lp_Variant>
AV-unprocessed.smi:2696-1

> <Gold.Version>
5.8.1

> <Gold.Id.Protein>
6NUR|6NUR_protein|mol2

> <Gold.PLP.Fitness>
48.0719

> <Gold.PLP.PLP>
-47.3820

> <Gold.PLP.part.hbond>
-1.7001

> <Gold.PLP.part.metal>
0.0000

> <Gold.PLP.part.buried>
-0.9564

> <Gold.PLP.part.nonpolar>
-44.6634

> <Gold.PLP.part.repulsive>
0.0000

> <Gold.PLP.ligand.clash>
0.0801

> <Gold.PLP.ligand.torsion>
1.2969

> <Gold.PLP.Chemscore.Hbond>
1.0000

> <Gold.PLP.Chemscore.CHOScore>
0.0000

> <Gold.PLP.Chemscore.Metal>
0.0000

> <Gold.Chemscore.Hbonds>
donor molecule, donor type, donor heavy atom, donor atom, acceptor molecule, acceptor atom, score
      P1  H  7997  8009       L1     7  1.00

> <Gold.PLP.Chemscore.Internal.Correction>
0.3639

> <Gold.Rescore>
     Score         DG    S(hbond)    S(metal)    S(lipo)     H(rot)  DE(clash)    DE(int)     intcor
     14.72     -17.86       0.97        0.00     127.00       2.23       1.66       1.48       ----

> <Gold.Chemscore.Fitness>
14.7215

> <Gold.Chemscore.DG>
-17.8618

> <Gold.Chemscore.ZeroCoef>
-5.4800

> <Gold.Chemscore.Hbond>
0.9686

> <Gold.Chemscore.Metal>
0.0000

> <Gold.Chemscore.Lipo>
126.9958

> <Gold.Chemscore.Internal_Hbond>
0.0000

> <Gold.Chemscore.DEClash>
1.6603

> <Gold.Chemscore.DEInternal>
1.4800

> <Gold.Chemscore.Rot>
2.2312

> <Gold.Chemscore.Internal.Correction>
   9.000000E+99

> <Gold.Chemscore.Hbonds>
donor molecule, donor type, donor heavy atom, donor atom, acceptor molecule, acceptor atom, score
      P1  H  7997  8009       L1     7  0.34

> <Gold.Chemscore.Hbond.Weighted>
-3.2351

> <Gold.Chemscore.Metal.Weighted>
-0.0000

> <Gold.Chemscore.Lipo.Weighted>
-14.8585

> <Gold.Chemscore.Internal_Hbond.Weighted>
0.0000

> <Gold.Chemscore.DEClash.Weighted>
1.6603

> <Gold.Chemscore.DEInternal.Weighted>
1.4800

> <Gold.Chemscore.Rot.Weighted>
5.7118

> <Gold.Chemscore.Internal.Correction.Weighted>
   9.000000E+99

> <Gold.Protein.RotatedTorsions>
[ 6907 6896 6895 6894 ] final    4.06 input  -60.11 | X-H torsion
[ 7974 7965 7964 7962 ] final   76.43 input  175.53 | X-H torsion
[ 8008 7997 7996 7995 ] final  129.19 input   59.86 | X-H torsion
[ 10167 10162 10161 10158 ] final  -16.99 input  -65.29 | X-H torsion
[ 10718 10713 10712 10709 ] final  -98.84 input   66.30 | X-H torsion
[ 10763 10752 10751 10750 ] final   95.41 input  -60.55 | X-H torsion
[ 11005 11000 10999 10996 ] final    1.97 input  -57.11 | X-H torsion

> <Gold.Protein.ActiveResidues>
 VAL166  LYS551  ARG553  GLY616  TRP617  ASP618  TYR619  PRO620  LYS621  CYS622 
 ASP623  PHE694  ASN695  SER759  ASP760  ASP761  ALA762  ILE779  LEU786  VAL792 
 PHE793  MET794  SER795  GLU796  ALA797  LYS798  CYS799  TRP800  GLU811  SER814 

> <Gold.Protein.RotatedAtoms>
  151.6351  135.1019  160.0129 H   0  0  0  0  0  0  0  0  0  0  0  0  # atno 6907 bound_to 6896
  152.4085  133.6922  159.6385 H   0  0  0  0  0  0  0  0  0  0  0  0  # atno 6908 bound_to 6896
  150.7977  133.8583  159.3266 H   0  0  0  0  0  0  0  0  0  0  0  0  # atno 6909 bound_to 6896
  145.7029  139.2589  143.1695 H   0  0  0  0  0  0  0  0  0  0  0  0  # atno 7974 bound_to 7965
  156.2931  140.2626  156.2559 H   0  0  0  0  0  0  0  0  0  0  0  0  # atno 8008 bound_to 7997
  154.9836  140.0389  157.2307 H   0  0  0  0  0  0  0  0  0  0  0  0  # atno 8009 bound_to 7997
  154.7749  140.2784  155.6113 H   0  0  0  0  0  0  0  0  0  0  0  0  # atno 8010 bound_to 7997
  140.7241  143.5060  150.9809 H   0  0  0  0  0  0  0  0  0  0  0  0  # atno 10167 bound_to 10162
  156.0118  130.5256  150.6582 H   0  0  0  0  0  0  0  0  0  0  0  0  # atno 10718 bound_to 10713
  153.2529  135.4255  155.0816 H   0  0  0  0  0  0  0  0  0  0  0  0  # atno 10763 bound_to 10752
  154.8389  135.3430  154.6487 H   0  0  0  0  0  0  0  0  0  0  0  0  # atno 10764 bound_to 10752
  153.6908  135.7034  153.5147 H   0  0  0  0  0  0  0  0  0  0  0  0  # atno 10765 bound_to 10752
  140.6095  133.9761  155.8170 H   0  0  0  0  0  0  0  0  0  0  0  0  # atno 11005 bound_to 11000
  146.0781  140.7794  142.9655 LP  0  0  0  0  0  0  0  0  0  0  0  0  # atno 17320 bound_to 7965
  144.6963  140.3447  143.7193 LP  0  0  0  0  0  0  0  0  0  0  0  0  # atno 17321 bound_to 7965
  139.8772  143.7118  152.3161 LP  0  0  0  0  0  0  0  0  0  0  0  0  # atno 17342 bound_to 10162
  139.7387  144.7565  151.0686 LP  0  0  0  0  0  0  0  0  0  0  0  0  # atno 17343 bound_to 10162
  157.4330  131.0851  151.1020 LP  0  0  0  0  0  0  0  0  0  0  0  0  # atno 17370 bound_to 10713
  157.1587  130.6216  149.5604 LP  0  0  0  0  0  0  0  0  0  0  0  0  # atno 17371 bound_to 10713
  141.0818  134.0051  157.3375 LP  0  0  0  0  0  0  0  0  0  0  0  0  # atno 17394 bound_to 11000
  139.9198  135.0200  156.8021 LP  0  0  0  0  0  0  0  0  0  0  0  0  # atno 17395 bound_to 11000

$$$$
