AV-unprocessed.smi:544|AV-procd|sdf|2878|dock4
  -GOLD-   2262023373D 1   1.00000     0.00000
 Structure written by MMmdl.
 49 51  0  0  0  0  0  0  0  0  1 V2000
  154.7988  139.2871  160.6076 C   0  0  0  0  0  0  0  0  0  0  0  0
  153.5956  138.7156  159.8544 C   0  0  0  0  0  0  0  0  0  0  0  0
  153.5687  139.2768  158.5544 O   0  0  0  0  0  0  0  0  0  0  0  0
  152.4562  138.8517  157.7856 C   0  0  0  0  0  0  0  0  0  0  0  0
  152.4692  139.5058  156.3911 C   0  0  0  0  0  0  0  0  0  0  0  0
  151.2278  140.1979  156.0462 N   0  0  0  0  0  0  0  0  0  0  0  0
  150.8179  141.4444  156.4095 C   0  0  0  0  0  0  0  0  0  0  0  0
  151.5782  142.2663  157.2412 N   0  0  0  0  0  0  0  0  0  0  0  0
  152.0515  143.6083  156.9081 C   0  0  0  0  0  0  0  0  0  0  0  0
  151.7926  144.6067  158.0487 C   0  0  0  0  0  0  0  0  0  0  0  0
  152.4568  144.1227  159.3446 C   0  0  0  0  0  0  0  0  0  0  0  0
  152.0379  142.6740  159.6508 C   0  0  2  0  0  0  0  0  0  0  0  0
  152.7524  142.1313  160.8957 C   0  0  0  0  0  0  0  0  0  0  0  0
  152.2917  141.7792  158.4203 C   0  0  0  0  0  0  0  0  0  0  0  0
  149.6590  141.8306  155.8691 N   0  0  0  0  0  0  0  0  0  0  0  0
  149.2860  140.7335  155.1091 C   0  0  0  0  0  0  0  0  0  0  0  0
  150.2180  139.7500  155.1899 C   0  0  0  0  0  0  0  0  0  0  0  0
  150.0937  138.4883  154.4447 C   0  0  0  0  0  0  0  0  0  0  0  0
  150.9409  137.5982  154.4669 O   0  0  0  0  0  0  0  0  0  0  0  0
  148.9486  138.4057  153.7252 N   0  0  0  0  0  0  0  0  0  0  0  0
  147.9654  139.3500  153.6155 C   0  0  0  0  0  0  0  0  0  0  0  0
  146.9705  139.1245  152.9266 O   0  0  0  0  0  0  0  0  0  0  0  0
  148.1382  140.5307  154.2912 N   0  0  0  0  0  0  0  0  0  0  0  0
  147.1285  141.5869  154.1973 C   0  0  0  0  0  0  0  0  0  0  0  0
  148.8069  137.5511  153.2070 H   0  0  0  0  0  0  0  0  0  0  0  0
  154.8566  138.8792  161.6169 H   0  0  0  0  0  0  0  0  0  0  0  0
  154.7305  140.3725  160.6878 H   0  0  0  0  0  0  0  0  0  0  0  0
  155.7307  139.0473  160.0949 H   0  0  0  0  0  0  0  0  0  0  0  0
  153.6746  137.6291  159.7956 H   0  0  0  0  0  0  0  0  0  0  0  0
  152.6737  138.9539  160.3868 H   0  0  0  0  0  0  0  0  0  0  0  0
  152.4691  137.7668  157.7041 H   0  0  0  0  0  0  0  0  0  0  0  0
  151.5290  139.1142  158.2968 H   0  0  0  0  0  0  0  0  0  0  0  0
  153.3056  140.1976  156.3052 H   0  0  0  0  0  0  0  0  0  0  0  0
  152.6556  138.7455  155.6337 H   0  0  0  0  0  0  0  0  0  0  0  0
  153.1216  143.5577  156.7024 H   0  0  0  0  0  0  0  0  0  0  0  0
  151.5930  143.9479  155.9832 H   0  0  0  0  0  0  0  0  0  0  0  0
  152.1768  145.5903  157.7781 H   0  0  0  0  0  0  0  0  0  0  0  0
  150.7210  144.7266  158.2060 H   0  0  0  0  0  0  0  0  0  0  0  0
  153.5411  144.1782  159.2377 H   0  0  0  0  0  0  0  0  0  0  0  0
  152.1897  144.7815  160.1714 H   0  0  0  0  0  0  0  0  0  0  0  0
  150.9660  142.6674  159.8557 H   0  0  0  0  0  0  0  0  0  0  0  0
  153.8333  142.1063  160.7528 H   0  0  0  0  0  0  0  0  0  0  0  0
  152.4234  141.1176  161.1251 H   0  0  0  0  0  0  0  0  0  0  0  0
  152.5455  142.7509  161.7687 H   0  0  0  0  0  0  0  0  0  0  0  0
  151.9686  140.7603  158.6370 H   0  0  0  0  0  0  0  0  0  0  0  0
  153.3585  141.7257  158.1992 H   0  0  0  0  0  0  0  0  0  0  0  0
  146.8409  141.7652  153.1600 H   0  0  0  0  0  0  0  0  0  0  0  0
  147.4835  142.5376  154.5951 H   0  0  0  0  0  0  0  0  0  0  0  0
  146.2354  141.3054  154.7560 H   0  0  0  0  0  0  0  0  0  0  0  0
  1  2  1  0  0  0  0
  1 26  1  0  0  0  0
  1 27  1  0  0  0  0
  1 28  1  0  0  0  0
  2  3  1  0  0  0  0
  2 29  1  0  0  0  0
  2 30  1  0  0  0  0
  3  4  1  0  0  0  0
  4  5  1  0  0  0  0
  4 31  1  0  0  0  0
  4 32  1  0  0  0  0
  5  6  1  0  0  0  0
  5 33  1  0  0  0  0
  5 34  1  0  0  0  0
  6 17  1  0  0  0  0
  6  7  1  0  0  0  0
  7  8  1  0  0  0  0
  7 15  2  0  0  0  0
  8 14  1  0  0  0  0
  8  9  1  0  0  0  0
  9 10  1  0  0  0  0
  9 35  1  0  0  0  0
  9 36  1  0  0  0  0
 10 11  1  0  0  0  0
 10 37  1  0  0  0  0
 10 38  1  0  0  0  0
 11 12  1  0  0  0  0
 11 39  1  0  0  0  0
 11 40  1  0  0  0  0
 12 13  1  0  0  0  0
 12 14  1  0  0  0  0
 12 41  1  0  0  0  0
 13 42  1  0  0  0  0
 13 43  1  0  0  0  0
 13 44  1  0  0  0  0
 14 45  1  0  0  0  0
 14 46  1  0  0  0  0
 15 16  1  0  0  0  0
 16 23  1  0  0  0  0
 16 17  2  0  0  0  0
 17 18  1  0  0  0  0
 18 19  2  0  0  0  0
 18 20  1  0  0  0  0
 20 25  1  0  0  0  0
 20 21  1  0  0  0  0
 21 22  2  0  0  0  0
 21 23  1  0  0  0  0
 23 24  1  0  0  0  0
 24 47  1  0  0  0  0
 24 48  1  0  0  0  0
 24 49  1  0  0  0  0
M  END
> <s_m_source_file>
AV-unprocessed.smi

> <i_m_source_file_index>
544

> <i_lp_mmshare_version>
43012

> <i_f3d_flags>
0

> <s_epik_input>
W0NIM11uMWMoPU8pW25IXWMoPU8pYyhjMTIpbihbQ0gyXVtDSDJdT1tDSDJdW0NIM10pYyhuMilOM1tDSDJdW0NIMl1bQ0gyXVtDQEBIXShbQ0gzXSlbQ0gyXTM=

> <s_epik_cmdline>
J2VwaWtfcHl0aG9uJywgJy1waCcsICc3LjAnLCAnLXRuJywgJzgnLCAnLW1hJywgJzIwMCcsICctbWV0YWxfYmluZGluZycsICctaW1hZScsICc8aW5maWxlLm1hZT4nLCAnLW9tYWUnLCAnPG91dGZpbGUubWFlPic=

> <r_lp_tautomer_probability>
1

> <r_epik_Ionization_Penalty>
0.000382477

> <r_epik_Ionization_Penalty_Charging>
0.000119472

> <r_epik_Ionization_Penalty_Neutral>
0.000263005

> <r_epik_State_Penalty>
-0

> <r_epik_Charging_Adjusted_Penalty>
0.000119472

> <i_epik_Tot_Q>
0

> <i_epik_Tot_abs_Q>
0

> <r_epik_Metal_State_Penalty>
0.0919313

> <b_epik_Metal_Only>
0

> <s_lp_Force_Field>
OPLS_2005

> <r_lp_Energy>
37.0872

> <b_lp_Chiralities_Consistent>
1

> <s_lp_Variant>
AV-unprocessed.smi:544-2

> <Gold.Version>
5.8.1

> <Gold.Id.Protein>
6NUR|6NUR_protein|mol2

> <Gold.PLP.Fitness>
49.6557

> <Gold.PLP.PLP>
-46.0085

> <Gold.PLP.part.hbond>
-3.0000

> <Gold.PLP.part.metal>
0.0000

> <Gold.PLP.part.buried>
-4.2795

> <Gold.PLP.part.nonpolar>
-40.6267

> <Gold.PLP.part.repulsive>
2.4958

> <Gold.PLP.ligand.clash>
0.0000

> <Gold.PLP.ligand.torsion>
1.4549

> <Gold.PLP.Chemscore.Hbond>
2.0000

> <Gold.PLP.Chemscore.CHOScore>
0.0000

> <Gold.PLP.Chemscore.Metal>
0.0000

> <Gold.Chemscore.Hbonds>
donor molecule, donor type, donor heavy atom, donor atom, acceptor molecule, acceptor atom, score
      L1  H    20    25       P1  7948  1.00
      P1  H  7997  8008       L1     3  0.70

> <Gold.PLP.Chemscore.Internal.Correction>
0.5570

> <Gold.Rescore>
     Score         DG    S(hbond)    S(metal)    S(lipo)     H(rot)  DE(clash)    DE(int)     intcor
     14.29     -17.04       1.45        0.00      92.01       1.58       0.46       2.29       ----

> <Gold.Chemscore.Fitness>
14.2949

> <Gold.Chemscore.DG>
-17.0387

> <Gold.Chemscore.ZeroCoef>
-5.4800

> <Gold.Chemscore.Hbond>
1.4490

> <Gold.Chemscore.Metal>
0.0000

> <Gold.Chemscore.Lipo>
92.0122

> <Gold.Chemscore.Internal_Hbond>
0.0000

> <Gold.Chemscore.DEClash>
0.4557

> <Gold.Chemscore.DEInternal>
2.2881

> <Gold.Chemscore.Rot>
1.5806

> <Gold.Chemscore.Internal.Correction>
   9.000000E+99

> <Gold.Chemscore.Hbonds>
donor molecule, donor type, donor heavy atom, donor atom, acceptor molecule, acceptor atom, score
      L1  H    20    25       P1  7948  1.00
      P1  H  7997  8008       L1     3  0.07

> <Gold.Chemscore.Hbond.Weighted>
-4.8395

> <Gold.Chemscore.Metal.Weighted>
-0.0000

> <Gold.Chemscore.Lipo.Weighted>
-10.7654

> <Gold.Chemscore.Internal_Hbond.Weighted>
0.0000

> <Gold.Chemscore.DEClash.Weighted>
0.4557

> <Gold.Chemscore.DEInternal.Weighted>
2.2881

> <Gold.Chemscore.Rot.Weighted>
4.0463

> <Gold.Chemscore.Internal.Correction.Weighted>
   9.000000E+99

> <Gold.Protein.RotatedTorsions>
[ 6907 6896 6895 6894 ] final  -65.69 input  -60.11 | X-H torsion
[ 7974 7965 7964 7962 ] final   67.51 input  175.53 | X-H torsion
[ 8008 7997 7996 7995 ] final  -79.20 input   59.86 | X-H torsion
[ 10167 10162 10161 10158 ] final -144.44 input  -65.29 | X-H torsion
[ 10718 10713 10712 10709 ] final   36.36 input   66.30 | X-H torsion
[ 10763 10752 10751 10750 ] final   43.52 input  -60.55 | X-H torsion
[ 11005 11000 10999 10996 ] final  -40.43 input  -57.11 | X-H torsion

> <Gold.Protein.ActiveResidues>
 VAL166  LYS551  ARG553  GLY616  TRP617  ASP618  TYR619  PRO620  LYS621  CYS622 
 ASP623  PHE694  ASN695  SER759  ASP760  ASP761  ALA762  ILE779  LEU786  VAL792 
 PHE793  MET794  SER795  GLU796  ALA797  LYS798  CYS799  TRP800  GLU811  SER814 

> <Gold.Protein.RotatedAtoms>
  150.7509  134.6126  159.6093 H   0  0  0  0  0  0  0  0  0  0  0  0  # atno 6907 bound_to 6896
  152.3455  134.7073  160.0260 H   0  0  0  0  0  0  0  0  0  0  0  0  # atno 6908 bound_to 6896
  151.7511  133.3291  159.3428 H   0  0  0  0  0  0  0  0  0  0  0  0  # atno 6909 bound_to 6896
  145.8138  139.3047  143.1083 H   0  0  0  0  0  0  0  0  0  0  0  0  # atno 7974 bound_to 7965
  154.5762  140.0682  156.9037 H   0  0  0  0  0  0  0  0  0  0  0  0  # atno 8008 bound_to 7997
  155.2545  140.3354  155.4261 H   0  0  0  0  0  0  0  0  0  0  0  0  # atno 8009 bound_to 7997
  156.2155  140.1777  156.7583 H   0  0  0  0  0  0  0  0  0  0  0  0  # atno 8010 bound_to 7997
  139.7899  143.7981  152.2649 H   0  0  0  0  0  0  0  0  0  0  0  0  # atno 10167 bound_to 10162
  157.3340  130.7512  149.6866 H   0  0  0  0  0  0  0  0  0  0  0  0  # atno 10718 bound_to 10713
  152.9859  135.6099  154.3125 H   0  0  0  0  0  0  0  0  0  0  0  0  # atno 10763 bound_to 10752
  154.2839  135.2776  155.2686 H   0  0  0  0  0  0  0  0  0  0  0  0  # atno 10764 bound_to 10752
  154.5013  135.5866  153.6589 H   0  0  0  0  0  0  0  0  0  0  0  0  # atno 10765 bound_to 10752
  141.0174  133.6879  156.2320 H   0  0  0  0  0  0  0  0  0  0  0  0  # atno 11005 bound_to 11000
  145.9749  140.8730  143.0144 LP  0  0  0  0  0  0  0  0  0  0  0  0  # atno 17320 bound_to 7965
  144.6754  140.1997  143.7388 LP  0  0  0  0  0  0  0  0  0  0  0  0  # atno 17321 bound_to 7965
  139.8069  144.7352  150.9749 LP  0  0  0  0  0  0  0  0  0  0  0  0  # atno 17342 bound_to 10162
  140.7820  143.4289  151.0725 LP  0  0  0  0  0  0  0  0  0  0  0  0  # atno 17343 bound_to 10162
  155.9699  130.4187  150.4339 LP  0  0  0  0  0  0  0  0  0  0  0  0  # atno 17370 bound_to 10713
  157.2376  131.0518  151.2455 LP  0  0  0  0  0  0  0  0  0  0  0  0  # atno 17371 bound_to 10713
  140.6631  134.4946  157.5584 LP  0  0  0  0  0  0  0  0  0  0  0  0  # atno 17394 bound_to 11000
  139.9125  134.8315  156.1478 LP  0  0  0  0  0  0  0  0  0  0  0  0  # atno 17395 bound_to 11000

$$$$
