AV-unprocessed.smi:246|AV-procd|sdf|1883|dock2
  -GOLD-   2262020533D 1   1.00000     0.00000
 Structure written by MMmdl.
 57 60  0  0  0  0  0  0  0  0  1 V2000
  143.7903  132.7864  148.4041 C   0  0  0  0  0  0  0  0  0  0  0  0
  144.3395  132.5355  149.8156 C   0  0  0  0  0  0  0  0  0  0  0  0
  145.1048  133.6344  150.2904 O   0  0  0  0  0  0  0  0  0  0  0  0
  144.3948  134.8631  150.3458 C   0  0  0  0  0  0  0  0  0  0  0  0
  143.9650  135.1186  151.7930 C   0  0  0  0  0  0  0  0  0  0  0  0
  145.1208  135.1703  152.6157 O   0  0  0  0  0  0  0  0  0  0  0  0
  145.3844  136.4619  153.1430 C   0  0  2  0  0  0  0  0  0  0  0  0
  145.7955  137.4304  152.0327 C   0  0  0  0  0  0  0  0  0  0  0  0
  146.6118  138.4985  152.7658 C   0  0  0  0  0  0  0  0  0  0  0  0
  147.1504  137.8231  153.9382 N   0  0  0  0  0  0  0  0  0  0  0  0
  148.2082  138.2913  154.6481 C   0  0  0  0  0  0  0  0  0  0  0  0
  148.9541  137.3977  155.3500 N   0  0  0  0  0  0  0  0  0  0  0  0
  150.0122  137.8028  156.0571 C   0  0  0  0  0  0  0  0  0  0  0  0
  150.4965  139.0366  156.1991 N   0  0  0  0  0  0  0  0  0  0  0  0
  149.7528  139.9427  155.5028 C   0  0  0  0  0  0  0  0  0  0  0  0
  148.6044  139.6611  154.7073 C   0  0  0  0  0  0  0  0  0  0  0  0
  148.1216  140.8438  154.1559 N   0  0  0  0  0  0  0  0  0  0  0  0
  148.9315  141.7649  154.6000 C   0  0  0  0  0  0  0  0  0  0  0  0
  149.9389  141.3117  155.4192 N   0  0  0  0  0  0  0  0  0  0  0  0
  150.9737  142.1169  156.0492 C   0  0  0  0  0  0  0  0  0  0  0  0
  150.9318  142.0856  157.5931 C   0  0  1  0  0  0  0  0  0  0  0  0
  151.3473  140.8095  158.0411 O   0  0  0  0  0  0  0  0  0  0  0  0
  151.8135  143.1587  158.2640 C   0  0  2  0  0  0  0  0  0  0  0  0
  151.8793  143.0697  159.7897 C   0  0  0  0  0  0  0  0  0  0  0  0
  152.1934  144.4953  160.2202 C   0  0  0  0  0  0  0  0  0  0  0  0
  151.9211  145.3319  158.9676 C   0  0  0  0  0  0  0  0  0  0  0  0
  151.2541  144.4492  158.0779 O   0  0  0  0  0  0  0  0  0  0  0  0
  146.5930  136.4894  154.0858 C   0  0  0  0  0  0  0  0  0  0  0  0
  144.5044  136.8641  153.6486 H   0  0  0  0  0  0  0  0  0  0  0  0
  143.2986  131.8929  148.0187 H   0  0  0  0  0  0  0  0  0  0  0  0
  144.5924  133.0477  147.7135 H   0  0  0  0  0  0  0  0  0  0  0  0
  143.0579  133.5928  148.3899 H   0  0  0  0  0  0  0  0  0  0  0  0
  143.5366  132.2888  150.5119 H   0  0  0  0  0  0  0  0  0  0  0  0
  144.9992  131.6681  149.7859 H   0  0  0  0  0  0  0  0  0  0  0  0
  144.9959  135.6951  149.9789 H   0  0  0  0  0  0  0  0  0  0  0  0
  143.5082  134.7939  149.7141 H   0  0  0  0  0  0  0  0  0  0  0  0
  143.4410  136.0734  151.8551 H   0  0  0  0  0  0  0  0  0  0  0  0
  143.2719  134.3432  152.1217 H   0  0  0  0  0  0  0  0  0  0  0  0
  146.4361  136.9158  151.3149 H   0  0  0  0  0  0  0  0  0  0  0  0
  144.9456  137.8428  151.4884 H   0  0  0  0  0  0  0  0  0  0  0  0
  147.3957  138.9052  152.1256 H   0  0  0  0  0  0  0  0  0  0  0  0
  145.9723  139.3192  153.0930 H   0  0  0  0  0  0  0  0  0  0  0  0
  150.5484  137.0271  156.5838 H   0  0  0  0  0  0  0  0  0  0  0  0
  148.8135  142.8080  154.3446 H   0  0  0  0  0  0  0  0  0  0  0  0
  151.9440  141.7659  155.6965 H   0  0  0  0  0  0  0  0  0  0  0  0
  150.8754  143.1426  155.6919 H   0  0  0  0  0  0  0  0  0  0  0  0
  149.8974  142.2231  157.9102 H   0  0  0  0  0  0  0  0  0  0  0  0
  150.6725  140.1832  157.8277 H   0  0  0  0  0  0  0  0  0  0  0  0
  152.8251  143.1467  157.8535 H   0  0  0  0  0  0  0  0  0  0  0  0
  150.9104  142.7731  160.1937 H   0  0  0  0  0  0  0  0  0  0  0  0
  152.6222  142.3504  160.1361 H   0  0  0  0  0  0  0  0  0  0  0  0
  151.5563  144.7978  161.0522 H   0  0  0  0  0  0  0  0  0  0  0  0
  153.2321  144.6018  160.5358 H   0  0  0  0  0  0  0  0  0  0  0  0
  151.3158  146.2146  159.1745 H   0  0  0  0  0  0  0  0  0  0  0  0
  152.8570  145.6591  158.5120 H   0  0  0  0  0  0  0  0  0  0  0  0
  146.2987  136.2829  155.1150 H   0  0  0  0  0  0  0  0  0  0  0  0
  147.3401  135.7559  153.7802 H   0  0  0  0  0  0  0  0  0  0  0  0
  1  2  1  0  0  0  0
  1 30  1  0  0  0  0
  1 31  1  0  0  0  0
  1 32  1  0  0  0  0
  2  3  1  0  0  0  0
  2 33  1  0  0  0  0
  2 34  1  0  0  0  0
  3  4  1  0  0  0  0
  4  5  1  0  0  0  0
  4 35  1  0  0  0  0
  4 36  1  0  0  0  0
  5  6  1  0  0  0  0
  5 37  1  0  0  0  0
  5 38  1  0  0  0  0
  6  7  1  0  0  0  0
  7 29  1  0  0  0  0
  7 28  1  0  0  0  0
  7  8  1  0  0  0  0
  8  9  1  0  0  0  0
  8 39  1  0  0  0  0
  8 40  1  0  0  0  0
  9 10  1  0  0  0  0
  9 41  1  0  0  0  0
  9 42  1  0  0  0  0
 10 11  1  0  0  0  0
 10 28  1  0  0  0  0
 11 16  1  0  0  0  0
 11 12  2  0  0  0  0
 12 13  1  0  0  0  0
 13 14  2  0  0  0  0
 13 43  1  0  0  0  0
 14 15  1  0  0  0  0
 15 19  1  0  0  0  0
 15 16  2  0  0  0  0
 16 17  1  0  0  0  0
 17 18  2  0  0  0  0
 18 19  1  0  0  0  0
 18 44  1  0  0  0  0
 19 20  1  0  0  0  0
 20 21  1  0  0  0  0
 20 45  1  0  0  0  0
 20 46  1  0  0  0  0
 21 22  1  0  0  0  0
 21 23  1  0  0  0  0
 21 47  1  0  0  0  0
 22 48  1  0  0  0  0
 23 27  1  0  0  0  0
 23 24  1  0  0  0  0
 23 49  1  0  0  0  0
 24 25  1  0  0  0  0
 24 50  1  0  0  0  0
 24 51  1  0  0  0  0
 25 26  1  0  0  0  0
 25 52  1  0  0  0  0
 25 53  1  0  0  0  0
 26 27  1  0  0  0  0
 26 54  1  0  0  0  0
 26 55  1  0  0  0  0
 28 56  1  0  0  0  0
 28 57  1  0  0  0  0
M  END
> <s_m_source_file>
AV-unprocessed.smi

> <i_m_source_file_index>
246

> <i_lp_mmshare_version>
43012

> <i_f3d_flags>
0

> <s_epik_input>
W0NIM11bQ0gyXU9bQ0gyXVtDSDJdT1tDQEhdMVtDSDJdW0NIMl1OKFtDSDJdMSljKG5bY0hdbjIpYyhjMjMpbltjSF1uM1tDSDJdW0NASF0oW09IXSlbQ0BASF00W0NIMl1bQ0gyXVtDSDJdTzQ=

> <s_epik_cmdline>
J2VwaWtfcHl0aG9uJywgJy1waCcsICc3LjAnLCAnLXRuJywgJzgnLCAnLW1hJywgJzIwMCcsICctbWV0YWxfYmluZGluZycsICctaW1hZScsICc8aW5maWxlLm1hZT4nLCAnLW9tYWUnLCAnPG91dGZpbGUubWFlPic=

> <r_lp_tautomer_probability>
1

> <r_epik_Ionization_Penalty>
0.0024631

> <r_epik_Ionization_Penalty_Charging>
0

> <r_epik_Ionization_Penalty_Neutral>
0.0024631

> <r_epik_State_Penalty>
0.00162428

> <r_epik_Charging_Adjusted_Penalty>
0.00162428

> <i_epik_Tot_Q>
0

> <i_epik_Tot_abs_Q>
0

> <r_epik_Metal_State_Penalty>
-0

> <b_epik_Metal_Only>
0

> <s_lp_Force_Field>
OPLS_2005

> <r_lp_Energy>
48.0332

> <b_lp_Chiralities_Consistent>
1

> <s_lp_Variant>
AV-unprocessed.smi:246-4

> <Gold.Version>
5.8.1

> <Gold.Id.Protein>
6NUR|6NUR_protein|mol2

> <Gold.PLP.Fitness>
47.2331

> <Gold.PLP.PLP>
-45.8536

> <Gold.PLP.part.hbond>
0.0000

> <Gold.PLP.part.metal>
0.0000

> <Gold.PLP.part.buried>
-5.5002

> <Gold.PLP.part.nonpolar>
-40.3725

> <Gold.PLP.part.repulsive>
0.5847

> <Gold.PLP.ligand.clash>
0.0000

> <Gold.PLP.ligand.torsion>
1.0000

> <Gold.PLP.Chemscore.Hbond>
0.0000

> <Gold.PLP.Chemscore.CHOScore>
1.0000

> <Gold.PLP.Chemscore.Metal>
0.0000

> <Gold.Chemscore.Hbonds>
donor molecule, donor type, donor heavy atom, donor atom, acceptor molecule, acceptor atom, score
      L1  C    18    44       P1  8028  1.00

> <Gold.PLP.Chemscore.Internal.Correction>
0.3795

> <Gold.Rescore>
     Score         DG    S(hbond)    S(metal)    S(lipo)     H(rot)  DE(clash)    DE(int)     intcor
     10.49     -11.56       0.00        0.00     119.82       3.10       0.08       0.99       ----

> <Gold.Chemscore.Fitness>
10.4896

> <Gold.Chemscore.DG>
-11.5560

> <Gold.Chemscore.ZeroCoef>
-5.4800

> <Gold.Chemscore.Hbond>
0.0000

> <Gold.Chemscore.Metal>
0.0000

> <Gold.Chemscore.Lipo>
119.8175

> <Gold.Chemscore.Internal_Hbond>
0.0000

> <Gold.Chemscore.DEClash>
0.0782

> <Gold.Chemscore.DEInternal>
0.9882

> <Gold.Chemscore.Rot>
3.1026

> <Gold.Chemscore.Internal.Correction>
   9.000000E+99

> <Gold.Chemscore.Hbond.Weighted>
-0.0000

> <Gold.Chemscore.Metal.Weighted>
-0.0000

> <Gold.Chemscore.Lipo.Weighted>
-14.0187

> <Gold.Chemscore.Internal_Hbond.Weighted>
0.0000

> <Gold.Chemscore.DEClash.Weighted>
0.0782

> <Gold.Chemscore.DEInternal.Weighted>
0.9882

> <Gold.Chemscore.Rot.Weighted>
7.9426

> <Gold.Chemscore.Internal.Correction.Weighted>
   9.000000E+99

> <Gold.Protein.RotatedTorsions>
[ 6907 6896 6895 6894 ] final   -9.80 input  -60.11 | X-H torsion
[ 7974 7965 7964 7962 ] final  158.85 input  175.53 | X-H torsion
[ 8008 7997 7996 7995 ] final   32.55 input   59.86 | X-H torsion
[ 10167 10162 10161 10158 ] final -150.67 input  -65.29 | X-H torsion
[ 10718 10713 10712 10709 ] final -115.40 input   66.30 | X-H torsion
[ 10763 10752 10751 10750 ] final  117.98 input  -60.55 | X-H torsion
[ 11005 11000 10999 10996 ] final  -19.90 input  -57.11 | X-H torsion

> <Gold.Protein.ActiveResidues>
 VAL166  LYS551  ARG553  GLY616  TRP617  ASP618  TYR619  PRO620  LYS621  CYS622 
 ASP623  PHE694  ASN695  SER759  ASP760  ASP761  ALA762  ILE779  LEU786  VAL792 
 PHE793  MET794  SER795  GLU796  ALA797  LYS798  CYS799  TRP800  GLU811  SER814 

> <Gold.Protein.RotatedAtoms>
  151.4120  135.0986  159.9587 H   0  0  0  0  0  0  0  0  0  0  0  0  # atno 6907 bound_to 6896
  152.5017  133.8788  159.7346 H   0  0  0  0  0  0  0  0  0  0  0  0  # atno 6908 bound_to 6896
  150.9285  133.6737  159.2844 H   0  0  0  0  0  0  0  0  0  0  0  0  # atno 6909 bound_to 6896
  144.7822  139.7536  143.6255 H   0  0  0  0  0  0  0  0  0  0  0  0  # atno 7974 bound_to 7965
  155.1242  140.3251  155.4490 H   0  0  0  0  0  0  0  0  0  0  0  0  # atno 8008 bound_to 7997
  156.2654  140.2022  156.6312 H   0  0  0  0  0  0  0  0  0  0  0  0  # atno 8009 bound_to 7997
  154.6661  140.0542  157.0102 H   0  0  0  0  0  0  0  0  0  0  0  0  # atno 8010 bound_to 7997
  139.7334  143.8773  152.2541 H   0  0  0  0  0  0  0  0  0  0  0  0  # atno 10167 bound_to 10162
  156.0893  130.6079  150.8901 H   0  0  0  0  0  0  0  0  0  0  0  0  # atno 10718 bound_to 10713
  153.5607  135.3521  155.2798 H   0  0  0  0  0  0  0  0  0  0  0  0  # atno 10763 bound_to 10752
  154.8695  135.4136  154.2834 H   0  0  0  0  0  0  0  0  0  0  0  0  # atno 10764 bound_to 10752
  153.3579  135.7058  153.6805 H   0  0  0  0  0  0  0  0  0  0  0  0  # atno 10765 bound_to 10752
  140.8412  133.7925  155.9863 H   0  0  0  0  0  0  0  0  0  0  0  0  # atno 11005 bound_to 11000
  146.2036  139.5347  142.9727 LP  0  0  0  0  0  0  0  0  0  0  0  0  # atno 17320 bound_to 7965
  145.6018  141.0354  143.2014 LP  0  0  0  0  0  0  0  0  0  0  0  0  # atno 17321 bound_to 7965
  139.8703  144.7072  150.8996 LP  0  0  0  0  0  0  0  0  0  0  0  0  # atno 17342 bound_to 10162
  140.7775  143.3744  151.1590 LP  0  0  0  0  0  0  0  0  0  0  0  0  # atno 17343 bound_to 10162
  157.6037  131.0940  150.8915 LP  0  0  0  0  0  0  0  0  0  0  0  0  # atno 17370 bound_to 10713
  156.9068  130.5266  149.5281 LP  0  0  0  0  0  0  0  0  0  0  0  0  # atno 17371 bound_to 10713
  140.8893  134.2515  157.5103 LP  0  0  0  0  0  0  0  0  0  0  0  0  # atno 17394 bound_to 11000
  139.8703  134.9654  156.4526 LP  0  0  0  0  0  0  0  0  0  0  0  0  # atno 17395 bound_to 11000

$$$$
