AV-unprocessed.smi:1196|AV-procd|sdf|4996|dock4
  -GOLD-   22720 4 03D 1   1.00000     0.00000
 Structure written by MMmdl.
 37 38  0  0  0  0  0  0  0  0  1 V2000
  154.7387  140.4963  159.9916 C   0  0  0  0  0  0  0  0  0  0  0  0
  153.5081  141.1187  159.3135 C   0  0  2  0  0  0  0  0  0  0  0  0
  152.9712  142.3206  160.1151 C   0  0  0  0  0  0  0  0  0  0  0  0
  152.0808  143.1588  159.3316 N   0  0  0  0  0  0  0  0  0  0  0  0
  152.3785  143.9257  158.2246 C   0  0  0  0  0  0  0  0  0  0  0  0
  151.2238  144.5408  157.8340 C   0  0  0  0  0  0  0  0  0  0  0  0
  150.2605  144.0792  158.7741 C   0  0  0  0  0  0  0  0  0  0  0  0
  150.7759  143.2505  159.6678 N   0  0  0  0  0  0  0  0  0  0  0  0
  152.4611  140.1098  159.1598 N   0  0  0  0  0  0  0  0  0  0  0  0
  152.5721  138.9732  158.4552 C   0  0  0  0  0  0  0  0  0  0  0  0
  153.5991  138.6443  157.8611 O   0  0  0  0  0  0  0  0  0  0  0  0
  151.3279  138.0804  158.4147 C   0  0  0  0  0  0  0  0  0  0  0  0
  151.4075  136.9804  157.3378 C   0  0  0  0  0  0  0  0  0  0  0  0
  151.7368  137.5303  155.9361 C   0  0  2  0  0  0  0  0  0  0  0  0
  151.1498  138.8367  155.6907 N   0  0  0  0  0  0  0  0  0  0  0  0
  150.3166  138.8354  154.6412 C   0  0  0  0  0  0  0  0  0  0  0  0
  149.6931  139.8041  154.2140 O   0  0  0  0  0  0  0  0  0  0  0  0
  150.2829  137.5950  154.1426 N   0  0  0  0  0  0  0  0  0  0  0  0
  151.0592  136.7523  154.8218 C   0  0  0  0  0  0  0  0  0  0  0  0
  151.2160  135.5524  154.6051 O   0  0  0  0  0  0  0  0  0  0  0  0
  155.5375  141.2302  160.1012 H   0  0  0  0  0  0  0  0  0  0  0  0
  155.1356  139.6664  159.4061 H   0  0  0  0  0  0  0  0  0  0  0  0
  154.4960  140.1174  160.9851 H   0  0  0  0  0  0  0  0  0  0  0  0
  153.8119  141.4775  158.3283 H   0  0  0  0  0  0  0  0  0  0  0  0
  152.4400  141.9821  161.0058 H   0  0  0  0  0  0  0  0  0  0  0  0
  153.7986  142.9402  160.4641 H   0  0  0  0  0  0  0  0  0  0  0  0
  153.3764  143.9716  157.8137 H   0  0  0  0  0  0  0  0  0  0  0  0
  151.0878  145.2172  157.0033 H   0  0  0  0  0  0  0  0  0  0  0  0
  149.2090  144.3195  158.8328 H   0  0  0  0  0  0  0  0  0  0  0  0
  151.5800  140.2979  159.6150 H   0  0  0  0  0  0  0  0  0  0  0  0
  151.1844  137.6273  159.3967 H   0  0  0  0  0  0  0  0  0  0  0  0
  150.4594  138.7141  158.2328 H   0  0  0  0  0  0  0  0  0  0  0  0
  152.1747  136.2564  157.6178 H   0  0  0  0  0  0  0  0  0  0  0  0
  150.4655  136.4294  157.3082 H   0  0  0  0  0  0  0  0  0  0  0  0
  152.8134  137.5648  155.7645 H   0  0  0  0  0  0  0  0  0  0  0  0
  151.3600  139.6486  156.2526 H   0  0  0  0  0  0  0  0  0  0  0  0
  149.7237  137.3257  153.3464 H   0  0  0  0  0  0  0  0  0  0  0  0
  1  2  1  0  0  0  0
  1 21  1  0  0  0  0
  1 22  1  0  0  0  0
  1 23  1  0  0  0  0
  2  3  1  0  0  0  0
  2  9  1  0  0  0  0
  2 24  1  0  0  0  0
  3  4  1  0  0  0  0
  3 25  1  0  0  0  0
  3 26  1  0  0  0  0
  4  8  1  0  0  0  0
  4  5  1  0  0  0  0
  5  6  2  0  0  0  0
  5 27  1  0  0  0  0
  6  7  1  0  0  0  0
  6 28  1  0  0  0  0
  7  8  2  0  0  0  0
  7 29  1  0  0  0  0
  9 10  1  0  0  0  0
  9 30  1  0  0  0  0
 10 11  2  0  0  0  0
 10 12  1  0  0  0  0
 12 13  1  0  0  0  0
 12 31  1  0  0  0  0
 12 32  1  0  0  0  0
 13 14  1  0  0  0  0
 13 33  1  0  0  0  0
 13 34  1  0  0  0  0
 14 19  1  0  0  0  0
 14 15  1  0  0  0  0
 14 35  1  0  0  0  0
 15 16  1  0  0  0  0
 15 36  1  0  0  0  0
 16 17  2  0  0  0  0
 16 18  1  0  0  0  0
 18 19  1  0  0  0  0
 18 37  1  0  0  0  0
 19 20  2  0  0  0  0
M  END
> <s_m_source_file>
AV-unprocessed.smi

> <i_m_source_file_index>
1196

> <i_lp_mmshare_version>
43012

> <i_f3d_flags>
0

> <s_epik_input>
bjFbY0hdW2NIXVtjSF1uMVtDSDJdW0NAQEhdKFtDSDNdKVtOSF1DKD1PKVtDSDJdW0NIMl1bQ0BASF0yW05IXUMoPU8pW05IXUMyPU8=

> <s_epik_cmdline>
J2VwaWtfcHl0aG9uJywgJy1waCcsICc3LjAnLCAnLXRuJywgJzgnLCAnLW1hJywgJzIwMCcsICctbWV0YWxfYmluZGluZycsICctaW1hZScsICc8aW5maWxlLm1hZT4nLCAnLW9tYWUnLCAnPG91dGZpbGUubWFlPic=

> <r_lp_tautomer_probability>
1

> <r_epik_Ionization_Penalty>
0.00815973

> <r_epik_Ionization_Penalty_Charging>
0

> <r_epik_Ionization_Penalty_Neutral>
0.00815973

> <r_epik_State_Penalty>
0.00583796

> <r_epik_Charging_Adjusted_Penalty>
0.00583796

> <i_epik_Tot_Q>
0

> <i_epik_Tot_abs_Q>
0

> <r_epik_Metal_State_Penalty>
0.409204

> <b_epik_Metal_Only>
0

> <s_lp_Force_Field>
OPLS_2005

> <r_lp_Energy>
19.6523

> <b_lp_Chiralities_Consistent>
1

> <s_lp_Variant>
AV-unprocessed.smi:1196-1

> <Gold.Version>
5.8.1

> <Gold.Id.Protein>
6NUR|6NUR_protein|mol2

> <Gold.PLP.Fitness>
49.0554

> <Gold.PLP.PLP>
-37.1412

> <Gold.PLP.part.hbond>
-3.6384

> <Gold.PLP.part.metal>
0.0000

> <Gold.PLP.part.buried>
-6.9991

> <Gold.PLP.part.nonpolar>
-28.4504

> <Gold.PLP.part.repulsive>
1.4120

> <Gold.PLP.ligand.clash>
0.0000

> <Gold.PLP.ligand.torsion>
0.6991

> <Gold.PLP.Chemscore.Hbond>
3.4040

> <Gold.PLP.Chemscore.CHOScore>
1.0000

> <Gold.PLP.Chemscore.Metal>
0.0000

> <Gold.Chemscore.Hbonds>
donor molecule, donor type, donor heavy atom, donor atom, acceptor molecule, acceptor atom, score
      L1  H    18    37       P1  7948  1.00
      P1  H  7989  7998       L1    17  0.18
      P1  H  7997  8010       L1    11  1.00
      P1  H 10752 10765       L1    20  0.85
      L1  C     7    29       P1  8029  0.75

> <Gold.PLP.Chemscore.Internal.Correction>
0.1006

> <Gold.Rescore>
     Score         DG    S(hbond)    S(metal)    S(lipo)     H(rot)  DE(clash)    DE(int)     intcor
     16.30     -16.83       2.94        0.00      77.92       2.96       0.01       0.53       ----

> <Gold.Chemscore.Fitness>
16.2977

> <Gold.Chemscore.DG>
-16.8325

> <Gold.Chemscore.ZeroCoef>
-5.4800

> <Gold.Chemscore.Hbond>
2.9363

> <Gold.Chemscore.Metal>
0.0000

> <Gold.Chemscore.Lipo>
77.9189

> <Gold.Chemscore.Internal_Hbond>
0.0000

> <Gold.Chemscore.DEClash>
0.0089

> <Gold.Chemscore.DEInternal>
0.5260

> <Gold.Chemscore.Rot>
2.9575

> <Gold.Chemscore.Internal.Correction>
   9.000000E+99

> <Gold.Chemscore.Hbonds>
donor molecule, donor type, donor heavy atom, donor atom, acceptor molecule, acceptor atom, score
      L1  H    18    37       P1  7948  0.64
      P1  H  7989  7998       L1    17  0.02
      P1  H  7997  8010       L1    11  0.95
      P1  H 10752 10765       L1    20  0.14

> <Gold.Chemscore.Hbond.Weighted>
-9.8073

> <Gold.Chemscore.Metal.Weighted>
-0.0000

> <Gold.Chemscore.Lipo.Weighted>
-9.1165

> <Gold.Chemscore.Internal_Hbond.Weighted>
0.0000

> <Gold.Chemscore.DEClash.Weighted>
0.0089

> <Gold.Chemscore.DEInternal.Weighted>
0.5260

> <Gold.Chemscore.Rot.Weighted>
7.5713

> <Gold.Chemscore.Internal.Correction.Weighted>
   9.000000E+99

> <Gold.Protein.RotatedTorsions>
[ 6907 6896 6895 6894 ] final  -80.96 input  -60.11 | X-H torsion
[ 7974 7965 7964 7962 ] final -118.90 input  175.53 | X-H torsion
[ 8008 7997 7996 7995 ] final   31.01 input   59.86 | X-H torsion
[ 10167 10162 10161 10158 ] final  -82.00 input  -65.29 | X-H torsion
[ 10718 10713 10712 10709 ] final -171.06 input   66.30 | X-H torsion
[ 10763 10752 10751 10750 ] final  172.81 input  -60.55 | X-H torsion
[ 11005 11000 10999 10996 ] final   44.67 input  -57.11 | X-H torsion

> <Gold.Protein.ActiveResidues>
 VAL166  LYS551  ARG553  GLY616  TRP617  ASP618  TYR619  PRO620  LYS621  CYS622 
 ASP623  PHE694  ASN695  SER759  ASP760  ASP761  ALA762  ILE779  LEU786  VAL792 
 PHE793  MET794  SER795  GLU796  ALA797  LYS798  CYS799  TRP800  GLU811  SER814 

> <Gold.Protein.RotatedAtoms>
  150.6920  134.3890  159.5067 H   0  0  0  0  0  0  0  0  0  0  0  0  # atno 6907 bound_to 6896
  152.1681  134.8854  160.0545 H   0  0  0  0  0  0  0  0  0  0  0  0  # atno 6908 bound_to 6896
  151.9890  133.3749  159.4174 H   0  0  0  0  0  0  0  0  0  0  0  0  # atno 6909 bound_to 6896
  145.0685  140.8342  143.4109 H   0  0  0  0  0  0  0  0  0  0  0  0  # atno 7974 bound_to 7965
  155.0995  140.3228  155.4551 H   0  0  0  0  0  0  0  0  0  0  0  0  # atno 8008 bound_to 7997
  156.2721  140.2063  156.6068 H   0  0  0  0  0  0  0  0  0  0  0  0  # atno 8009 bound_to 7997
  154.6840  140.0523  157.0283 H   0  0  0  0  0  0  0  0  0  0  0  0  # atno 8010 bound_to 7997
  140.4360  143.2531  151.8692 H   0  0  0  0  0  0  0  0  0  0  0  0  # atno 10167 bound_to 10162
  156.7353  130.9322  151.3107 H   0  0  0  0  0  0  0  0  0  0  0  0  # atno 10718 bound_to 10713
  154.4312  135.2760  155.1911 H   0  0  0  0  0  0  0  0  0  0  0  0  # atno 10763 bound_to 10752
  154.3816  135.6086  153.5797 H   0  0  0  0  0  0  0  0  0  0  0  0  # atno 10764 bound_to 10752
  152.9836  135.5881  154.4624 H   0  0  0  0  0  0  0  0  0  0  0  0  # atno 10765 bound_to 10752
  140.1530  134.4438  155.8369 H   0  0  0  0  0  0  0  0  0  0  0  0  # atno 11005 bound_to 11000
  145.1321  139.2625  143.5534 LP  0  0  0  0  0  0  0  0  0  0  0  0  # atno 17320 bound_to 7965
  146.3528  140.0975  142.8609 LP  0  0  0  0  0  0  0  0  0  0  0  0  # atno 17321 bound_to 7965
  139.4787  144.5282  151.8705 LP  0  0  0  0  0  0  0  0  0  0  0  0  # atno 17342 bound_to 10162
  140.4372  144.2035  150.5890 LP  0  0  0  0  0  0  0  0  0  0  0  0  # atno 17343 bound_to 10162
  157.6841  130.9168  150.0342 LP  0  0  0  0  0  0  0  0  0  0  0  0  # atno 17370 bound_to 10713
  156.1501  130.3642  149.9451 LP  0  0  0  0  0  0  0  0  0  0  0  0  # atno 17371 bound_to 10713
  141.2201  133.6880  156.7456 LP  0  0  0  0  0  0  0  0  0  0  0  0  # atno 17394 bound_to 11000
  140.2582  134.8488  157.3733 LP  0  0  0  0  0  0  0  0  0  0  0  0  # atno 17395 bound_to 11000

$$$$
