AV-unprocessed.smi:34|AV-procd|sdf|229|dock3
  -GOLD-   2262015553D 1   1.00000     0.00000
 Structure written by MMmdl.
 55 59  0  0  0  0  0  0  0  0  1 V2000
  150.5687  140.3539  157.7082 O   0  0  0  0  0  0  0  0  0  0  0  0
  150.5027  141.5421  157.3914 C   0  0  0  0  0  0  0  0  0  0  0  0
  149.7091  141.9997  156.2647 N   0  0  0  0  0  0  0  0  0  0  0  0
  148.9049  141.2689  155.4578 C   0  0  0  0  0  0  0  0  0  0  0  0
  148.7250  141.5677  154.1443 N   0  0  0  0  0  0  0  0  0  0  0  0
  147.9175  140.8178  153.3895 C   0  0  0  0  0  0  0  0  0  0  0  0
  147.2085  139.7445  153.7428 N   0  0  0  0  0  0  0  0  0  0  0  0
  147.3865  139.4317  155.0582 C   0  0  0  0  0  0  0  0  0  0  0  0
  148.2159  140.1397  155.9724 C   0  0  0  0  0  0  0  0  0  0  0  0
  148.1563  139.5400  157.2233 N   0  0  0  0  0  0  0  0  0  0  0  0
  147.3343  138.5397  157.0549 C   0  0  0  0  0  0  0  0  0  0  0  0
  146.8183  138.4031  155.7854 N   0  0  0  0  0  0  0  0  0  0  0  0
  145.8468  137.3640  155.3140 C   0  0  2  0  0  0  0  0  0  0  0  0
  145.5170  136.5031  156.3648 O   0  0  0  0  0  0  0  0  0  0  0  0
  145.4786  135.1421  155.9229 C   0  0  2  0  0  0  0  0  0  0  0  0
  146.6269  134.3698  156.5921 C   0  0  0  0  0  0  0  0  0  0  0  0
  146.7645  134.8194  157.9305 O   0  0  0  0  0  0  0  0  0  0  0  0
  147.2290  133.9863  158.8825 C   0  0  0  0  0  0  0  0  0  0  0  0
  147.5667  132.8207  158.6659 O   0  0  0  0  0  0  0  0  0  0  0  0
  147.3046  134.6279  160.2264 C   0  0  0  0  0  0  0  0  0  0  0  0
  147.3516  133.8131  161.3818 C   0  0  0  0  0  0  0  0  0  0  0  0
  147.4287  134.3907  162.6641 C   0  0  0  0  0  0  0  0  0  0  0  0
  147.4598  135.7900  162.8067 C   0  0  0  0  0  0  0  0  0  0  0  0
  147.4133  136.6113  161.6654 C   0  0  0  0  0  0  0  0  0  0  0  0
  147.3368  136.0355  160.3822 C   0  0  0  0  0  0  0  0  0  0  0  0
  145.6014  135.2329  154.3977 C   0  0  2  0  0  0  0  0  0  0  0  0
  146.1242  134.1574  153.8058 F   0  0  0  0  0  0  0  0  0  0  0  0
  146.3940  136.5052  154.1669 C   0  0  2  0  0  0  0  0  0  0  0  0
  147.7943  136.2972  154.2364 O   0  0  0  0  0  0  0  0  0  0  0  0
  151.3135  142.5920  158.0930 C   0  0  0  0  0  0  0  0  0  0  0  0
  151.9434  142.2935  159.3220 C   0  0  0  0  0  0  0  0  0  0  0  0
  152.6974  143.2754  159.9936 C   0  0  0  0  0  0  0  0  0  0  0  0
  152.8195  144.5666  159.4465 C   0  0  0  0  0  0  0  0  0  0  0  0
  152.1843  144.8763  158.2292 C   0  0  0  0  0  0  0  0  0  0  0  0
  151.4312  143.8948  157.5557 C   0  0  0  0  0  0  0  0  0  0  0  0
  149.7705  142.9849  156.0534 H   0  0  0  0  0  0  0  0  0  0  0  0
  147.8243  141.1212  152.3569 H   0  0  0  0  0  0  0  0  0  0  0  0
  147.0735  137.8709  157.8625 H   0  0  0  0  0  0  0  0  0  0  0  0
  144.9558  137.9242  155.0271 H   0  0  0  0  0  0  0  0  0  0  0  0
  144.5259  134.6868  156.1963 H   0  0  0  0  0  0  0  0  0  0  0  0
  146.4098  133.3013  156.6043 H   0  0  0  0  0  0  0  0  0  0  0  0
  147.5544  134.5053  156.0362 H   0  0  0  0  0  0  0  0  0  0  0  0
  147.3309  132.7363  161.2967 H   0  0  0  0  0  0  0  0  0  0  0  0
  147.4652  133.7585  163.5389 H   0  0  0  0  0  0  0  0  0  0  0  0
  147.5193  136.2332  163.7899 H   0  0  0  0  0  0  0  0  0  0  0  0
  147.4374  137.6855  161.7732 H   0  0  0  0  0  0  0  0  0  0  0  0
  147.3039  136.6946  159.5272 H   0  0  0  0  0  0  0  0  0  0  0  0
  144.6044  135.3584  153.9727 H   0  0  0  0  0  0  0  0  0  0  0  0
  146.1576  136.9716  153.2101 H   0  0  0  0  0  0  0  0  0  0  0  0
  148.1418  136.2992  153.3575 H   0  0  0  0  0  0  0  0  0  0  0  0
  151.8583  141.3073  159.7551 H   0  0  0  0  0  0  0  0  0  0  0  0
  153.1813  143.0371  160.9291 H   0  0  0  0  0  0  0  0  0  0  0  0
  153.3970  145.3197  159.9623 H   0  0  0  0  0  0  0  0  0  0  0  0
  152.2723  145.8687  157.8121 H   0  0  0  0  0  0  0  0  0  0  0  0
  150.9445  144.1553  156.6269 H   0  0  0  0  0  0  0  0  0  0  0  0
  1  2  2  0  0  0  0
  2  3  1  0  0  0  0
  2 30  1  0  0  0  0
  3  4  1  0  0  0  0
  3 36  1  0  0  0  0
  4  9  1  0  0  0  0
  4  5  2  0  0  0  0
  5  6  1  0  0  0  0
  6  7  2  0  0  0  0
  6 37  1  0  0  0  0
  7  8  1  0  0  0  0
  8 12  1  0  0  0  0
  8  9  2  0  0  0  0
  9 10  1  0  0  0  0
 10 11  2  0  0  0  0
 11 12  1  0  0  0  0
 11 38  1  0  0  0  0
 12 13  1  0  0  0  0
 13 28  1  0  0  0  0
 13 14  1  0  0  0  0
 13 39  1  0  0  0  0
 14 15  1  0  0  0  0
 15 16  1  0  0  0  0
 15 26  1  0  0  0  0
 15 40  1  0  0  0  0
 16 17  1  0  0  0  0
 16 41  1  0  0  0  0
 16 42  1  0  0  0  0
 17 18  1  0  0  0  0
 18 19  2  0  0  0  0
 18 20  1  0  0  0  0
 20 25  1  0  0  0  0
 20 21  2  0  0  0  0
 21 22  1  0  0  0  0
 21 43  1  0  0  0  0
 22 23  2  0  0  0  0
 22 44  1  0  0  0  0
 23 24  1  0  0  0  0
 23 45  1  0  0  0  0
 24 25  2  0  0  0  0
 24 46  1  0  0  0  0
 25 47  1  0  0  0  0
 26 27  1  0  0  0  0
 26 28  1  0  0  0  0
 26 48  1  0  0  0  0
 28 29  1  0  0  0  0
 28 49  1  0  0  0  0
 29 50  1  0  0  0  0
 30 35  1  0  0  0  0
 30 31  2  0  0  0  0
 31 32  1  0  0  0  0
 31 51  1  0  0  0  0
 32 33  2  0  0  0  0
 32 52  1  0  0  0  0
 33 34  1  0  0  0  0
 33 53  1  0  0  0  0
 34 35  2  0  0  0  0
 34 54  1  0  0  0  0
 35 55  1  0  0  0  0
M  END
> <s_m_source_file>
AV-unprocessed.smi

> <i_m_source_file_index>
34

> <i_lp_mmshare_version>
43012

> <i_f3d_flags>
0

> <s_epik_input>
W2NIXTFbY0hdW2NIXVtjSF1bY0hdYzFDKD1PKVtOSF1jKG5bY0hdbjIpYyhjMjMpbltjSF1uM1tDQEBIXTRPW0NASF0oW0NAQEhdKEYpW0NASF00W09IXSlbQ0gyXU9DKD1PKWM1W2NIXVtjSF1bY0hdW2NIXVtjSF01

> <s_epik_cmdline>
J2VwaWtfcHl0aG9uJywgJy1waCcsICc3LjAnLCAnLXRuJywgJzgnLCAnLW1hJywgJzIwMCcsICctbWV0YWxfYmluZGluZycsICctaW1hZScsICc8aW5maWxlLm1hZT4nLCAnLW9tYWUnLCAnPG91dGZpbGUubWFlPic=

> <r_lp_tautomer_probability>
1

> <r_epik_Ionization_Penalty>
0.00257489

> <r_epik_Ionization_Penalty_Charging>
0

> <r_epik_Ionization_Penalty_Neutral>
0.00257489

> <r_epik_State_Penalty>
0.00519398

> <r_epik_Charging_Adjusted_Penalty>
0.00519398

> <i_epik_Tot_Q>
0

> <i_epik_Tot_abs_Q>
0

> <r_epik_Metal_State_Penalty>
0.335891

> <b_epik_Metal_Only>
0

> <s_epik_Chemistry_Notes>
This compound has an ester and may undergo hydrolysis at high or low pH. This compound contains an acetal/aminal-like group ( X-CH(R)-Y where X, Y are N, S, or O) that may be acid/base labile, releasing an aldehyde.

> <s_lp_Force_Field>
OPLS_2005

> <r_lp_Energy>
55.6649

> <b_lp_Chiralities_Consistent>
1

> <s_lp_Variant>
AV-unprocessed.smi:34-15

> <Gold.Version>
5.8.1

> <Gold.Id.Protein>
6NUR|6NUR_protein|mol2

> <Gold.PLP.Fitness>
54.5362

> <Gold.PLP.PLP>
-47.4917

> <Gold.PLP.part.hbond>
-2.9988

> <Gold.PLP.part.metal>
0.0000

> <Gold.PLP.part.buried>
-5.6045

> <Gold.PLP.part.nonpolar>
-39.4294

> <Gold.PLP.part.repulsive>
0.4125

> <Gold.PLP.ligand.clash>
0.0000

> <Gold.PLP.ligand.torsion>
0.8933

> <Gold.PLP.Chemscore.Hbond>
2.1541

> <Gold.PLP.Chemscore.CHOScore>
0.5606

> <Gold.PLP.Chemscore.Metal>
0.0000

> <Gold.Chemscore.Hbonds>
donor molecule, donor type, donor heavy atom, donor atom, acceptor molecule, acceptor atom, score
      L1  H     3    36       P1  8028  1.00
      L1  H    29    50       P1  7948  1.00
      P1  H  8011  8017       L1     5  0.17
      L1  C     6    37       P1  7957  0.56

> <Gold.PLP.Chemscore.Internal.Correction>
0.6869

> <Gold.Rescore>
     Score         DG    S(hbond)    S(metal)    S(lipo)     H(rot)  DE(clash)    DE(int)     intcor
     17.80     -18.86       2.00        0.00     116.92       2.72       0.16       0.90       ----

> <Gold.Chemscore.Fitness>
17.8030

> <Gold.Chemscore.DG>
-18.8638

> <Gold.Chemscore.ZeroCoef>
-5.4800

> <Gold.Chemscore.Hbond>
1.9973

> <Gold.Chemscore.Metal>
0.0000

> <Gold.Chemscore.Lipo>
116.9230

> <Gold.Chemscore.Internal_Hbond>
0.0000

> <Gold.Chemscore.DEClash>
0.1597

> <Gold.Chemscore.DEInternal>
0.9011

> <Gold.Chemscore.Rot>
2.7215

> <Gold.Chemscore.Internal.Correction>
   9.000000E+99

> <Gold.Chemscore.Hbonds>
donor molecule, donor type, donor heavy atom, donor atom, acceptor molecule, acceptor atom, score
      L1  H     3    36       P1  8028  0.92
      L1  H    29    50       P1  7948  1.00
      P1  H  8011  8017       L1     5  0.01

> <Gold.Chemscore.Hbond.Weighted>
-6.6709

> <Gold.Chemscore.Metal.Weighted>
-0.0000

> <Gold.Chemscore.Lipo.Weighted>
-13.6800

> <Gold.Chemscore.Internal_Hbond.Weighted>
0.0000

> <Gold.Chemscore.DEClash.Weighted>
0.1597

> <Gold.Chemscore.DEInternal.Weighted>
0.9011

> <Gold.Chemscore.Rot.Weighted>
6.9670

> <Gold.Chemscore.Internal.Correction.Weighted>
   9.000000E+99

> <Gold.Protein.RotatedTorsions>
[ 6907 6896 6895 6894 ] final   25.08 input  -60.11 | X-H torsion
[ 7974 7965 7964 7962 ] final  120.04 input  175.53 | X-H torsion
[ 8008 7997 7996 7995 ] final -171.48 input   59.86 | X-H torsion
[ 10167 10162 10161 10158 ] final  -13.75 input  -65.29 | X-H torsion
[ 10718 10713 10712 10709 ] final   93.11 input   66.30 | X-H torsion
[ 10763 10752 10751 10750 ] final   80.12 input  -60.55 | X-H torsion
[ 11005 11000 10999 10996 ] final -179.66 input  -57.11 | X-H torsion

> <Gold.Protein.ActiveResidues>
 VAL166  LYS551  ARG553  GLY616  TRP617  ASP618  TYR619  PRO620  LYS621  CYS622 
 ASP623  PHE694  ASN695  SER759  ASP760  ASP761  ALA762  ILE779  LEU786  VAL792 
 PHE793  MET794  SER795  GLU796  ALA797  LYS798  CYS799  TRP800  GLU811  SER814 

> <Gold.Protein.RotatedAtoms>
  151.9672  135.0094  160.0550 H   0  0  0  0  0  0  0  0  0  0  0  0  # atno 6907 bound_to 6896
  152.1816  133.4706  159.4969 H   0  0  0  0  0  0  0  0  0  0  0  0  # atno 6908 bound_to 6896
  150.6918  134.1744  159.4267 H   0  0  0  0  0  0  0  0  0  0  0  0  # atno 6909 bound_to 6896
  145.1359  139.3298  143.4641 H   0  0  0  0  0  0  0  0  0  0  0  0  # atno 7974 bound_to 7965
  155.9321  140.1093  157.1124 H   0  0  0  0  0  0  0  0  0  0  0  0  # atno 8008 bound_to 7997
  154.4073  140.1235  156.4882 H   0  0  0  0  0  0  0  0  0  0  0  0  # atno 8009 bound_to 7997
  155.7066  140.3471  155.4958 H   0  0  0  0  0  0  0  0  0  0  0  0  # atno 8010 bound_to 7997
  140.7188  143.5393  150.9428 H   0  0  0  0  0  0  0  0  0  0  0  0  # atno 10167 bound_to 10162
  157.6956  131.0467  150.3985 H   0  0  0  0  0  0  0  0  0  0  0  0  # atno 10718 bound_to 10713
  153.1008  135.4814  154.8863 H   0  0  0  0  0  0  0  0  0  0  0  0  # atno 10763 bound_to 10752
  154.7376  135.3074  154.8786 H   0  0  0  0  0  0  0  0  0  0  0  0  # atno 10764 bound_to 10752
  153.9404  135.6835  153.4798 H   0  0  0  0  0  0  0  0  0  0  0  0  # atno 10765 bound_to 10752
  140.4162  134.6647  157.4640 H   0  0  0  0  0  0  0  0  0  0  0  0  # atno 11005 bound_to 11000
  146.3510  140.1376  142.8595 LP  0  0  0  0  0  0  0  0  0  0  0  0  # atno 17320 bound_to 7965
  145.0585  140.9070  143.4953 LP  0  0  0  0  0  0  0  0  0  0  0  0  # atno 17321 bound_to 7965
  139.9115  143.6714  152.3114 LP  0  0  0  0  0  0  0  0  0  0  0  0  # atno 17342 bound_to 10162
  139.7099  144.7622  151.1130 LP  0  0  0  0  0  0  0  0  0  0  0  0  # atno 17343 bound_to 10162
  156.4381  130.3986  149.6716 LP  0  0  0  0  0  0  0  0  0  0  0  0  # atno 17370 bound_to 10713
  156.3909  130.7626  151.2627 LP  0  0  0  0  0  0  0  0  0  0  0  0  # atno 17371 bound_to 10713
  140.0232  134.6515  155.9209 LP  0  0  0  0  0  0  0  0  0  0  0  0  # atno 17394 bound_to 11000
  141.1802  133.6545  156.4989 LP  0  0  0  0  0  0  0  0  0  0  0  0  # atno 17395 bound_to 11000

$$$$
