AV-unprocessed.smi:1386|AV-procd|sdf|5637|dock2
  -GOLD-   22720 5253D 1   1.00000     0.00000
 Structure written by MMmdl.
 36 37  0  0  0  0  0  0  0  0  2 V2000
  150.0197  141.6928  155.9545 C   0  0  0  0  0  0  0  0  0  0  0  0
  151.0011  140.8044  156.7301 C   0  0  1  0  0  0  0  0  0  0  0  0
  151.8617  139.9506  155.7740 C   0  0  0  0  0  0  0  0  0  0  0  0
  151.2160  138.6878  155.3960 N   0  0  0  0  0  0  0  0  0  0  0  0
  151.0702  137.5637  156.1679 C   0  0  0  0  0  0  0  0  0  0  0  0
  150.4257  136.6364  155.3901 C   0  0  0  0  0  0  0  0  0  0  0  0
  150.1962  137.2363  154.1810 N   0  3  0  0  0  0  0  0  0  0  0  0
  150.6715  138.4857  154.1888 C   0  0  0  0  0  0  0  0  0  0  0  0
  151.8463  141.6494  157.5733 N   0  0  0  0  0  0  0  0  0  0  0  0
  151.4155  142.6270  158.3910 C   0  0  0  0  0  0  0  0  0  0  0  0
  150.2309  142.9594  158.4498 O   0  0  0  0  0  0  0  0  0  0  0  0
  152.3810  143.1921  159.1584 N   0  0  0  0  0  0  0  0  0  0  0  0
  153.6071  142.5272  159.6273 C   0  0  0  0  0  0  0  0  0  0  0  0
  153.3490  141.9324  161.0218 C   0  0  0  0  0  0  0  0  0  0  0  0
  152.9463  143.2373  162.2262 S   0  0  0  0  0  0  0  0  0  0  0  0
  151.6759  144.1512  161.2948 C   0  0  0  0  0  0  0  0  0  0  0  0
  152.1512  144.4576  159.8641 C   0  0  0  0  0  0  0  0  0  0  0  0
  149.3496  141.0922  155.3387 H   0  0  0  0  0  0  0  0  0  0  0  0
  150.5446  142.3858  155.2960 H   0  0  0  0  0  0  0  0  0  0  0  0
  149.4016  142.2816  156.6331 H   0  0  0  0  0  0  0  0  0  0  0  0
  150.4047  140.1364  157.3542 H   0  0  0  0  0  0  0  0  0  0  0  0
  152.0604  140.4986  154.8523 H   0  0  0  0  0  0  0  0  0  0  0  0
  152.8307  139.7258  156.2234 H   0  0  0  0  0  0  0  0  0  0  0  0
  151.4373  137.5043  157.1822 H   0  0  0  0  0  0  0  0  0  0  0  0
  150.1214  135.6215  155.6010 H   0  0  0  0  0  0  0  0  0  0  0  0
  150.6319  139.1880  153.3754 H   0  0  0  0  0  0  0  0  0  0  0  0
  152.8356  141.4471  157.5687 H   0  0  0  0  0  0  0  0  0  0  0  0
  153.9572  141.7520  158.9452 H   0  0  0  0  0  0  0  0  0  0  0  0
  154.4262  143.2464  159.6756 H   0  0  0  0  0  0  0  0  0  0  0  0
  152.5272  141.2169  160.9847 H   0  0  0  0  0  0  0  0  0  0  0  0
  154.2275  141.3914  161.3737 H   0  0  0  0  0  0  0  0  0  0  0  0
  150.7580  143.5622  161.2736 H   0  0  0  0  0  0  0  0  0  0  0  0
  151.4489  145.0753  161.8264 H   0  0  0  0  0  0  0  0  0  0  0  0
  153.0666  145.0506  159.8893 H   0  0  0  0  0  0  0  0  0  0  0  0
  151.4176  145.0817  159.3515 H   0  0  0  0  0  0  0  0  0  0  0  0
  149.7317  136.8004  153.3941 H   0  0  0  0  0  0  0  0  0  0  0  0
  1  2  1  0  0  0  0
  1 18  1  0  0  0  0
  1 19  1  0  0  0  0
  1 20  1  0  0  0  0
  2  3  1  0  0  0  0
  2  9  1  0  0  0  0
  2 21  1  0  0  0  0
  3  4  1  0  0  0  0
  3 22  1  0  0  0  0
  3 23  1  0  0  0  0
  4  8  1  0  0  0  0
  4  5  1  0  0  0  0
  5  6  2  0  0  0  0
  5 24  1  0  0  0  0
  6  7  1  0  0  0  0
  6 25  1  0  0  0  0
  7  8  2  0  0  0  0
  7 36  1  0  0  0  0
  8 26  1  0  0  0  0
  9 10  1  0  0  0  0
  9 27  1  0  0  0  0
 10 11  2  0  0  0  0
 10 12  1  0  0  0  0
 12 17  1  0  0  0  0
 12 13  1  0  0  0  0
 13 14  1  0  0  0  0
 13 28  1  0  0  0  0
 13 29  1  0  0  0  0
 14 15  1  0  0  0  0
 14 30  1  0  0  0  0
 14 31  1  0  0  0  0
 15 16  1  0  0  0  0
 16 17  1  0  0  0  0
 16 32  1  0  0  0  0
 16 33  1  0  0  0  0
 17 34  1  0  0  0  0
 17 35  1  0  0  0  0
M  CHG  1   7   1
M  END
> <s_m_source_file>
AV-unprocessed.smi

> <i_m_source_file_index>
1386

> <i_lp_mmshare_version>
43012

> <i_f3d_flags>
0

> <s_epik_input>
W2NIXTFuW2NIXVtjSF1uMVtDSDJdW0NAQEhdKFtDSDNdKVtOSF1DKD1PKU4yW0NIMl1bQ0gyXVNbQ0gyXVtDSDJdMg==

> <s_epik_cmdline>
J2VwaWtfcHl0aG9uJywgJy1waCcsICc3LjAnLCAnLXRuJywgJzgnLCAnLW1hJywgJzIwMCcsICctbWV0YWxfYmluZGluZycsICctaW1hZScsICc8aW5maWxlLm1hZT4nLCAnLW9tYWUnLCAnPG91dGZpbGUubWFlPic=

> <r_lp_tautomer_probability>
1

> <r_epik_Ionization_Penalty>
0.254941

> <r_epik_Ionization_Penalty_Charging>
0

> <r_epik_Ionization_Penalty_Neutral>
0.254941

> <r_epik_State_Penalty>
0.246388

> <r_epik_Charging_Adjusted_Penalty>
0.246388

> <i_epik_Tot_Q>
1

> <i_epik_Tot_abs_Q>
1

> <r_epik_Metal_State_Penalty>
0.536262

> <b_epik_Metal_Only>
0

> <s_lp_Force_Field>
OPLS_2005

> <r_lp_Energy>
25.7972

> <b_lp_Chiralities_Consistent>
1

> <s_lp_Variant>
AV-unprocessed.smi:1386-2

> <Gold.Version>
5.8.1

> <Gold.Id.Protein>
6NUR|6NUR_protein|mol2

> <Gold.PLP.Fitness>
48.2280

> <Gold.PLP.PLP>
-40.7807

> <Gold.PLP.part.hbond>
-2.0000

> <Gold.PLP.part.metal>
0.0000

> <Gold.PLP.part.buried>
-2.8711

> <Gold.PLP.part.nonpolar>
-35.2040

> <Gold.PLP.part.repulsive>
0.2633

> <Gold.PLP.ligand.clash>
0.0000

> <Gold.PLP.ligand.torsion>
0.8301

> <Gold.PLP.Chemscore.Hbond>
2.0000

> <Gold.PLP.Chemscore.CHOScore>
0.9977

> <Gold.PLP.Chemscore.Metal>
0.0000

> <Gold.Chemscore.Hbonds>
donor molecule, donor type, donor heavy atom, donor atom, acceptor molecule, acceptor atom, score
      L1  H     7    36       P1  7948  2.00
      L1  C     8    26       P1  7957  0.90

> <Gold.PLP.Chemscore.Internal.Correction>
0.1145

> <Gold.Rescore>
     Score         DG    S(hbond)    S(metal)    S(lipo)     H(rot)  DE(clash)    DE(int)     intcor
     12.43     -14.66       0.95        0.00      87.25       1.64       0.03       2.20       ----

> <Gold.Chemscore.Fitness>
12.4334

> <Gold.Chemscore.DG>
-14.6600

> <Gold.Chemscore.ZeroCoef>
-5.4800

> <Gold.Chemscore.Hbond>
0.9495

> <Gold.Chemscore.Metal>
0.0000

> <Gold.Chemscore.Lipo>
87.2505

> <Gold.Chemscore.Internal_Hbond>
0.0000

> <Gold.Chemscore.DEClash>
0.0276

> <Gold.Chemscore.DEInternal>
2.1990

> <Gold.Chemscore.Rot>
1.6404

> <Gold.Chemscore.Internal.Correction>
   9.000000E+99

> <Gold.Chemscore.Hbonds>
donor molecule, donor type, donor heavy atom, donor atom, acceptor molecule, acceptor atom, score
      L1  H     7    36       P1  7948  0.50

> <Gold.Chemscore.Hbond.Weighted>
-3.1712

> <Gold.Chemscore.Metal.Weighted>
-0.0000

> <Gold.Chemscore.Lipo.Weighted>
-10.2083

> <Gold.Chemscore.Internal_Hbond.Weighted>
0.0000

> <Gold.Chemscore.DEClash.Weighted>
0.0276

> <Gold.Chemscore.DEInternal.Weighted>
2.1990

> <Gold.Chemscore.Rot.Weighted>
4.1995

> <Gold.Chemscore.Internal.Correction.Weighted>
   9.000000E+99

> <Gold.Protein.RotatedTorsions>
[ 6907 6896 6895 6894 ] final   80.25 input  -60.11 | X-H torsion
[ 7974 7965 7964 7962 ] final  174.66 input  175.53 | X-H torsion
[ 8008 7997 7996 7995 ] final  163.78 input   59.86 | X-H torsion
[ 10167 10162 10161 10158 ] final  -85.09 input  -65.29 | X-H torsion
[ 10718 10713 10712 10709 ] final  173.56 input   66.30 | X-H torsion
[ 10763 10752 10751 10750 ] final -119.34 input  -60.55 | X-H torsion
[ 11005 11000 10999 10996 ] final   37.13 input  -57.11 | X-H torsion

> <Gold.Protein.ActiveResidues>
 VAL166  LYS551  ARG553  GLY616  TRP617  ASP618  TYR619  PRO620  LYS621  CYS622 
 ASP623  PHE694  ASN695  SER759  ASP760  ASP761  ALA762  ILE779  LEU786  VAL792 
 PHE793  MET794  SER795  GLU796  ALA797  LYS798  CYS799  TRP800  GLU811  SER814 

> <Gold.Protein.RotatedAtoms>
  152.5228  134.3387  159.9208 H   0  0  0  0  0  0  0  0  0  0  0  0  # atno 6907 bound_to 6896
  151.3336  133.3984  159.2672 H   0  0  0  0  0  0  0  0  0  0  0  0  # atno 6908 bound_to 6896
  150.9860  134.9223  159.7930 H   0  0  0  0  0  0  0  0  0  0  0  0  # atno 6909 bound_to 6896
  144.7217  139.9830  143.6439 H   0  0  0  0  0  0  0  0  0  0  0  0  # atno 7974 bound_to 7965
  156.1930  140.1714  156.8053 H   0  0  0  0  0  0  0  0  0  0  0  0  # atno 8008 bound_to 7997
  154.5495  140.0720  156.8676 H   0  0  0  0  0  0  0  0  0  0  0  0  # atno 8009 bound_to 7997
  155.3056  140.3364  155.4248 H   0  0  0  0  0  0  0  0  0  0  0  0  # atno 8010 bound_to 7997
  140.4071  143.2638  151.9067 H   0  0  0  0  0  0  0  0  0  0  0  0  # atno 10167 bound_to 10162
  156.9625  131.0065  151.2924 H   0  0  0  0  0  0  0  0  0  0  0  0  # atno 10718 bound_to 10713
  154.8614  135.4242  154.2284 H   0  0  0  0  0  0  0  0  0  0  0  0  # atno 10763 bound_to 10752
  153.3274  135.6986  153.6983 H   0  0  0  0  0  0  0  0  0  0  0  0  # atno 10764 bound_to 10752
  153.6014  135.3536  155.2920 H   0  0  0  0  0  0  0  0  0  0  0  0  # atno 10765 bound_to 10752
  140.2256  134.3589  155.7986 H   0  0  0  0  0  0  0  0  0  0  0  0  # atno 11005 bound_to 11000
  146.0473  139.3477  143.0661 LP  0  0  0  0  0  0  0  0  0  0  0  0  # atno 17320 bound_to 7965
  145.8260  140.9655  143.0874 LP  0  0  0  0  0  0  0  0  0  0  0  0  # atno 17321 bound_to 7965
  139.4783  144.5575  151.8291 LP  0  0  0  0  0  0  0  0  0  0  0  0  # atno 17342 bound_to 10162
  140.4678  144.1630  150.5914 LP  0  0  0  0  0  0  0  0  0  0  0  0  # atno 17343 bound_to 10162
  157.5648  130.8270  149.8313 LP  0  0  0  0  0  0  0  0  0  0  0  0  # atno 17370 bound_to 10713
  156.0316  130.3763  150.1672 LP  0  0  0  0  0  0  0  0  0  0  0  0  # atno 17371 bound_to 10713
  141.2221  133.7217  156.8647 LP  0  0  0  0  0  0  0  0  0  0  0  0  # atno 17394 bound_to 11000
  140.1804  134.9037  157.2941 LP  0  0  0  0  0  0  0  0  0  0  0  0  # atno 17395 bound_to 11000

$$$$
