AV-unprocessed.smi:3183|AV-procd|sdf|12156|dock8
  -GOLD-   2272017593D 1   1.00000     0.00000
 Structure written by MMmdl.
 43 44  0  0  0  0  0  0  0  0  2 V2000
  153.0894  143.0090  162.4638 C   0  0  0  0  0  0  0  0  0  0  0  0
  152.1761  142.8598  161.2359 C   0  0  1  0  0  0  0  0  0  0  0  0
  151.8846  144.2191  160.5708 C   0  0  0  0  0  0  0  0  0  0  0  0
  150.9022  144.0704  159.3988 C   0  0  0  0  0  0  0  0  0  0  0  0
  151.4055  143.0571  158.3553 C   0  0  2  0  0  0  0  0  0  0  0  0
  150.4076  142.9242  157.2705 N   0  3  0  0  0  0  0  0  0  0  0  0
  150.7749  141.9934  156.1826 C   0  0  0  0  0  0  0  0  0  0  0  0
  150.2399  140.5816  156.4637 C   0  0  0  0  0  0  0  0  0  0  0  0
  150.9191  139.4991  155.6810 C   0  0  0  0  0  0  0  0  0  0  0  0
  150.6959  139.0235  154.4173 C   0  0  0  0  0  0  0  0  0  0  0  0
  151.6672  137.9977  154.2542 C   0  0  0  0  0  0  0  0  0  0  0  0
  152.4291  137.8472  155.3230 N   0  0  0  0  0  0  0  0  0  0  0  0
  151.9733  138.7679  156.1984 N   0  0  0  0  0  0  0  0  0  0  0  0
  152.5979  138.8746  157.5030 C   0  0  0  0  0  0  0  0  0  0  0  0
  151.7014  141.6980  159.0295 C   0  0  0  0  0  0  0  0  0  0  0  0
  152.6924  141.8219  160.2067 C   0  0  1  0  0  0  0  0  0  0  0  0
  154.1308  142.0814  159.7140 C   0  0  0  0  0  0  0  0  0  0  0  0
  154.0439  143.4682  162.2057 H   0  0  0  0  0  0  0  0  0  0  0  0
  153.2946  142.0412  162.9224 H   0  0  0  0  0  0  0  0  0  0  0  0
  152.6211  143.6379  163.2214 H   0  0  0  0  0  0  0  0  0  0  0  0
  151.2239  142.4810  161.6115 H   0  0  0  0  0  0  0  0  0  0  0  0
  151.4670  144.9086  161.3055 H   0  0  0  0  0  0  0  0  0  0  0  0
  152.8113  144.6748  160.2205 H   0  0  0  0  0  0  0  0  0  0  0  0
  149.9311  143.7538  159.7827 H   0  0  0  0  0  0  0  0  0  0  0  0
  150.7455  145.0431  158.9308 H   0  0  0  0  0  0  0  0  0  0  0  0
  152.3226  143.4532  157.9171 H   0  0  0  0  0  0  0  0  0  0  0  0
  149.5251  142.6384  157.6704 H   0  0  0  0  0  0  0  0  0  0  0  0
  150.3668  142.3623  155.2405 H   0  0  0  0  0  0  0  0  0  0  0  0
  151.8593  141.9610  156.0784 H   0  0  0  0  0  0  0  0  0  0  0  0
  150.3425  140.3655  157.5279 H   0  0  0  0  0  0  0  0  0  0  0  0
  149.1706  140.5548  156.2499 H   0  0  0  0  0  0  0  0  0  0  0  0
  149.9500  139.3553  153.7104 H   0  0  0  0  0  0  0  0  0  0  0  0
  151.8392  137.3626  153.3978 H   0  0  0  0  0  0  0  0  0  0  0  0
  152.8555  139.9144  157.7056 H   0  0  0  0  0  0  0  0  0  0  0  0
  153.5082  138.2746  157.5447 H   0  0  0  0  0  0  0  0  0  0  0  0
  151.9069  138.5217  158.2689 H   0  0  0  0  0  0  0  0  0  0  0  0
  150.7675  141.2695  159.3962 H   0  0  0  0  0  0  0  0  0  0  0  0
  152.0940  140.9837  158.3060 H   0  0  0  0  0  0  0  0  0  0  0  0
  152.7124  140.8520  160.7058 H   0  0  0  0  0  0  0  0  0  0  0  0
  154.2390  143.0619  159.2518 H   0  0  0  0  0  0  0  0  0  0  0  0
  154.4289  141.3367  158.9757 H   0  0  0  0  0  0  0  0  0  0  0  0
  154.8498  142.0206  160.5307 H   0  0  0  0  0  0  0  0  0  0  0  0
  150.2891  143.8374  156.8554 H   0  0  0  0  0  0  0  0  0  0  0  0
  1  2  1  0  0  0  0
  1 18  1  0  0  0  0
  1 19  1  0  0  0  0
  1 20  1  0  0  0  0
  2 16  1  0  0  0  0
  2  3  1  0  0  0  0
  2 21  1  0  0  0  0
  3  4  1  0  0  0  0
  3 22  1  0  0  0  0
  3 23  1  0  0  0  0
  4  5  1  0  0  0  0
  4 24  1  0  0  0  0
  4 25  1  0  0  0  0
  5  6  1  0  0  0  0
  5 15  1  0  0  0  0
  5 26  1  0  0  0  0
  6  7  1  0  0  0  0
  6 27  1  0  0  0  0
  6 43  1  0  0  0  0
  7  8  1  0  0  0  0
  7 28  1  0  0  0  0
  7 29  1  0  0  0  0
  8  9  1  0  0  0  0
  8 30  1  0  0  0  0
  8 31  1  0  0  0  0
  9 13  1  0  0  0  0
  9 10  2  0  0  0  0
 10 11  1  0  0  0  0
 10 32  1  0  0  0  0
 11 12  2  0  0  0  0
 11 33  1  0  0  0  0
 12 13  1  0  0  0  0
 13 14  1  0  0  0  0
 14 34  1  0  0  0  0
 14 35  1  0  0  0  0
 14 36  1  0  0  0  0
 15 16  1  0  0  0  0
 15 37  1  0  0  0  0
 15 38  1  0  0  0  0
 16 17  1  0  0  0  0
 16 39  1  0  0  0  0
 17 40  1  0  0  0  0
 17 41  1  0  0  0  0
 17 42  1  0  0  0  0
M  CHG  1   6   1
M  END
> <s_m_source_file>
AV-unprocessed.smi

> <i_m_source_file_index>
3183

> <i_lp_mmshare_version>
43012

> <i_f3d_flags>
0

> <s_epik_input>
W0NIM11bQ0BASF0xW0NIMl1bQ0gyXVtDQEhdKFtDSDJdW0NASF0xW0NIM10pW05IXVtDSDJdW0NIMl1jMltjSF1bY0hdbm4yW0NIM10=

> <s_epik_cmdline>
J2VwaWtfcHl0aG9uJywgJy1waCcsICc3LjAnLCAnLXRuJywgJzgnLCAnLW1hJywgJzIwMCcsICctbWV0YWxfYmluZGluZycsICctaW1hZScsICc8aW5maWxlLm1hZT4nLCAnLW9tYWUnLCAnPG91dGZpbGUubWFlPic=

> <r_lp_tautomer_probability>
1

> <r_epik_Ionization_Penalty>
0.000327718

> <r_epik_Ionization_Penalty_Charging>
0.000294043

> <r_epik_Ionization_Penalty_Neutral>
3.36755e-05

> <r_epik_State_Penalty>
-0

> <r_epik_Charging_Adjusted_Penalty>
0.000294043

> <i_epik_Tot_Q>
1

> <i_epik_Tot_abs_Q>
1

> <r_epik_Metal_State_Penalty>
-0

> <b_epik_Metal_Only>
0

> <s_lp_Force_Field>
OPLS_2005

> <r_lp_Energy>
13.9595

> <b_lp_Chiralities_Consistent>
1

> <s_lp_Variant>
AV-unprocessed.smi:3183-4

> <Gold.Version>
5.8.1

> <Gold.Id.Protein>
6NUR|6NUR_protein|mol2

> <Gold.PLP.Fitness>
46.8839

> <Gold.PLP.PLP>
-40.7395

> <Gold.PLP.part.hbond>
-1.6366

> <Gold.PLP.part.metal>
0.0000

> <Gold.PLP.part.buried>
-5.9311

> <Gold.PLP.part.nonpolar>
-33.5339

> <Gold.PLP.part.repulsive>
0.0352

> <Gold.PLP.ligand.clash>
0.0000

> <Gold.PLP.ligand.torsion>
0.6395

> <Gold.PLP.Chemscore.Hbond>
1.4720

> <Gold.PLP.Chemscore.CHOScore>
1.0000

> <Gold.PLP.Chemscore.Metal>
0.0000

> <Gold.Chemscore.Hbonds>
donor molecule, donor type, donor heavy atom, donor atom, acceptor molecule, acceptor atom, score
      L1  H     6    43       P1  8028  1.47
      L1  C    11    33       P1  7949  1.00

> <Gold.PLP.Chemscore.Internal.Correction>
0.0074

> <Gold.Rescore>
     Score         DG    S(hbond)    S(metal)    S(lipo)     H(rot)  DE(clash)    DE(int)     intcor
     18.38     -19.06       0.75        0.00     124.82       1.38       0.07       0.60       ----

> <Gold.Chemscore.Fitness>
18.3834

> <Gold.Chemscore.DG>
-19.0566

> <Gold.Chemscore.ZeroCoef>
-5.4800

> <Gold.Chemscore.Hbond>
0.7477

> <Gold.Chemscore.Metal>
0.0000

> <Gold.Chemscore.Lipo>
124.8218

> <Gold.Chemscore.Internal_Hbond>
0.0000

> <Gold.Chemscore.DEClash>
0.0750

> <Gold.Chemscore.DEInternal>
0.5982

> <Gold.Chemscore.Rot>
1.3768

> <Gold.Chemscore.Internal.Correction>
   9.000000E+99

> <Gold.Chemscore.Hbonds>
donor molecule, donor type, donor heavy atom, donor atom, acceptor molecule, acceptor atom, score
      L1  H     6    43       P1  8028  0.67

> <Gold.Chemscore.Hbond.Weighted>
-2.4972

> <Gold.Chemscore.Metal.Weighted>
-0.0000

> <Gold.Chemscore.Lipo.Weighted>
-14.6042

> <Gold.Chemscore.Internal_Hbond.Weighted>
0.0000

> <Gold.Chemscore.DEClash.Weighted>
0.0750

> <Gold.Chemscore.DEInternal.Weighted>
0.5982

> <Gold.Chemscore.Rot.Weighted>
3.5247

> <Gold.Chemscore.Internal.Correction.Weighted>
   9.000000E+99

> <Gold.Protein.RotatedTorsions>
[ 6907 6896 6895 6894 ] final   63.07 input  -60.11 | X-H torsion
[ 7974 7965 7964 7962 ] final   27.33 input  175.53 | X-H torsion
[ 8008 7997 7996 7995 ] final  -69.90 input   59.86 | X-H torsion
[ 10167 10162 10161 10158 ] final -179.34 input  -65.29 | X-H torsion
[ 10718 10713 10712 10709 ] final -155.27 input   66.30 | X-H torsion
[ 10763 10752 10751 10750 ] final   -0.24 input  -60.55 | X-H torsion
[ 11005 11000 10999 10996 ] final  -12.94 input  -57.11 | X-H torsion

> <Gold.Protein.ActiveResidues>
 VAL166  LYS551  ARG553  GLY616  TRP617  ASP618  TYR619  PRO620  LYS621  CYS622 
 ASP623  PHE694  ASN695  SER759  ASP760  ASP761  ALA762  ILE779  LEU786  VAL792 
 PHE793  MET794  SER795  GLU796  ALA797  LYS798  CYS799  TRP800  GLU811  SER814 

> <Gold.Protein.RotatedAtoms>
  152.4224  134.5931  159.9979 H   0  0  0  0  0  0  0  0  0  0  0  0  # atno 6907 bound_to 6896
  151.6077  133.3344  159.3069 H   0  0  0  0  0  0  0  0  0  0  0  0  # atno 6908 bound_to 6896
  150.8112  134.7306  159.6755 H   0  0  0  0  0  0  0  0  0  0  0  0  # atno 6909 bound_to 6896
  146.1790  139.7206  142.8914 H   0  0  0  0  0  0  0  0  0  0  0  0  # atno 7974 bound_to 7965
  154.4972  140.0844  156.7722 H   0  0  0  0  0  0  0  0  0  0  0  0  # atno 8008 bound_to 7997
  155.4088  140.3440  155.4244 H   0  0  0  0  0  0  0  0  0  0  0  0  # atno 8009 bound_to 7997
  156.1409  140.1529  156.8909 H   0  0  0  0  0  0  0  0  0  0  0  0  # atno 8010 bound_to 7997
  139.5391  144.2414  152.0857 H   0  0  0  0  0  0  0  0  0  0  0  0  # atno 10167 bound_to 10162
  156.5106  130.8433  151.2645 H   0  0  0  0  0  0  0  0  0  0  0  0  # atno 10718 bound_to 10713
  153.3293  135.6974  153.6961 H   0  0  0  0  0  0  0  0  0  0  0  0  # atno 10763 bound_to 10752
  153.5770  135.3505  155.2861 H   0  0  0  0  0  0  0  0  0  0  0  0  # atno 10764 bound_to 10752
  154.8615  135.4286  154.2478 H   0  0  0  0  0  0  0  0  0  0  0  0  # atno 10765 bound_to 10752
  140.7710  133.8439  155.9207 H   0  0  0  0  0  0  0  0  0  0  0  0  # atno 11005 bound_to 11000
  145.4130  141.0398  143.3006 LP  0  0  0  0  0  0  0  0  0  0  0  0  # atno 17320 bound_to 7965
  144.8283  139.5672  143.6955 LP  0  0  0  0  0  0  0  0  0  0  0  0  # atno 17321 bound_to 7965
  140.1890  144.4770  150.6489 LP  0  0  0  0  0  0  0  0  0  0  0  0  # atno 17342 bound_to 10162
  140.6612  143.2252  151.5852 LP  0  0  0  0  0  0  0  0  0  0  0  0  # atno 17343 bound_to 10162
  157.7451  130.9951  150.2731 LP  0  0  0  0  0  0  0  0  0  0  0  0  # atno 17370 bound_to 10713
  156.3244  130.3791  149.7546 LP  0  0  0  0  0  0  0  0  0  0  0  0  # atno 17371 bound_to 10713
  140.9574  134.1700  157.4681 LP  0  0  0  0  0  0  0  0  0  0  0  0  # atno 17394 bound_to 11000
  139.8756  134.9932  156.5633 LP  0  0  0  0  0  0  0  0  0  0  0  0  # atno 17395 bound_to 11000

$$$$
