AV-unprocessed.smi:543|AV-procd|sdf|2876|dock8
  -GOLD-   2262023373D 1   1.00000     0.00000
 Structure written by MMmdl.
 45 47  0  0  0  0  0  0  0  0  2 V2000
  150.3273  135.8755  154.8937 C   0  0  0  0  0  0  0  0  0  0  0  0
  151.4266  136.5181  155.5133 O   0  0  0  0  0  0  0  0  0  0  0  0
  151.8636  137.6632  154.7980 C   0  0  0  0  0  0  0  0  0  0  0  0
  152.8920  138.4328  155.6390 C   0  0  0  0  0  0  0  0  0  0  0  0
  152.5146  138.4726  157.0520 N   0  0  0  0  0  0  0  0  0  0  0  0
  151.6517  139.3187  157.6840 C   0  0  0  0  0  0  0  0  0  0  0  0
  150.9973  140.3638  157.0197 N   0  0  0  0  0  0  0  0  0  0  0  0
  151.1396  140.6866  155.6052 C   0  0  0  0  0  0  0  0  0  0  0  0
  150.2180  141.4037  157.6914 C   0  0  0  0  0  0  0  0  0  0  0  0
  151.0246  142.3705  158.5428 C   0  0  0  0  0  0  0  0  0  0  0  0
  151.7279  141.8989  159.6715 C   0  0  0  0  0  0  0  0  0  0  0  0
  152.4877  142.7886  160.4555 C   0  0  0  0  0  0  0  0  0  0  0  0
  152.5445  144.1541  160.1167 C   0  0  0  0  0  0  0  0  0  0  0  0
  151.8415  144.6298  158.9929 C   0  0  0  0  0  0  0  0  0  0  0  0
  151.0831  143.7401  158.2073 C   0  0  0  0  0  0  0  0  0  0  0  0
  151.4550  139.0370  158.9740 N   0  0  0  0  0  0  0  0  0  0  0  0
  152.2721  137.9409  159.1908 C   0  0  0  0  0  0  0  0  0  0  0  0
  152.9153  137.5767  158.0504 C   0  0  0  0  0  0  0  0  0  0  0  0
  153.8277  136.4141  157.9596 C   0  0  0  0  0  0  0  0  0  0  0  0
  154.3718  136.1134  156.8990 O   0  0  0  0  0  0  0  0  0  0  0  0
  153.9589  135.7636  159.1589 N   0  5  0  0  0  0  0  0  0  0  0  0
  153.3287  136.1018  160.3373 C   0  0  0  0  0  0  0  0  0  0  0  0
  153.4971  135.4568  161.3730 O   0  0  0  0  0  0  0  0  0  0  0  0
  152.4867  137.1820  160.3730 N   0  0  0  0  0  0  0  0  0  0  0  0
  151.7954  137.5618  161.6086 C   0  0  0  0  0  0  0  0  0  0  0  0
  150.0314  135.0082  155.4836 H   0  0  0  0  0  0  0  0  0  0  0  0
  150.5873  135.5291  153.8926 H   0  0  0  0  0  0  0  0  0  0  0  0
  149.4682  136.5438  154.8219 H   0  0  0  0  0  0  0  0  0  0  0  0
  152.3073  137.3636  153.8473 H   0  0  0  0  0  0  0  0  0  0  0  0
  151.0130  138.3073  154.5713 H   0  0  0  0  0  0  0  0  0  0  0  0
  153.8798  137.9853  155.5427 H   0  0  0  0  0  0  0  0  0  0  0  0
  153.0058  139.4359  155.2421 H   0  0  0  0  0  0  0  0  0  0  0  0
  151.9511  140.1117  155.1581 H   0  0  0  0  0  0  0  0  0  0  0  0
  151.3732  141.7416  155.4587 H   0  0  0  0  0  0  0  0  0  0  0  0
  150.2177  140.4627  155.0676 H   0  0  0  0  0  0  0  0  0  0  0  0
  149.6323  141.9843  156.9768 H   0  0  0  0  0  0  0  0  0  0  0  0
  149.4872  140.9016  158.3263 H   0  0  0  0  0  0  0  0  0  0  0  0
  151.6937  140.8520  159.9348 H   0  0  0  0  0  0  0  0  0  0  0  0
  153.0284  142.4230  161.3160 H   0  0  0  0  0  0  0  0  0  0  0  0
  153.1277  144.8360  160.7178 H   0  0  0  0  0  0  0  0  0  0  0  0
  151.8853  145.6771  158.7324 H   0  0  0  0  0  0  0  0  0  0  0  0
  150.5506  144.1119  157.3447 H   0  0  0  0  0  0  0  0  0  0  0  0
  151.1056  136.7742  161.9143 H   0  0  0  0  0  0  0  0  0  0  0  0
  151.2176  138.4799  161.5026 H   0  0  0  0  0  0  0  0  0  0  0  0
  152.5105  137.7224  162.4167 H   0  0  0  0  0  0  0  0  0  0  0  0
  1  2  1  0  0  0  0
  1 26  1  0  0  0  0
  1 27  1  0  0  0  0
  1 28  1  0  0  0  0
  2  3  1  0  0  0  0
  3  4  1  0  0  0  0
  3 29  1  0  0  0  0
  3 30  1  0  0  0  0
  4  5  1  0  0  0  0
  4 31  1  0  0  0  0
  4 32  1  0  0  0  0
  5 18  1  0  0  0  0
  5  6  1  0  0  0  0
  6  7  1  0  0  0  0
  6 16  2  0  0  0  0
  7  8  1  0  0  0  0
  7  9  1  0  0  0  0
  8 33  1  0  0  0  0
  8 34  1  0  0  0  0
  8 35  1  0  0  0  0
  9 10  1  0  0  0  0
  9 36  1  0  0  0  0
  9 37  1  0  0  0  0
 10 15  1  0  0  0  0
 10 11  2  0  0  0  0
 11 12  1  0  0  0  0
 11 38  1  0  0  0  0
 12 13  2  0  0  0  0
 12 39  1  0  0  0  0
 13 14  1  0  0  0  0
 13 40  1  0  0  0  0
 14 15  2  0  0  0  0
 14 41  1  0  0  0  0
 15 42  1  0  0  0  0
 16 17  1  0  0  0  0
 17 24  1  0  0  0  0
 17 18  2  0  0  0  0
 18 19  1  0  0  0  0
 19 20  2  0  0  0  0
 19 21  1  0  0  0  0
 21 22  1  0  0  0  0
 22 23  2  0  0  0  0
 22 24  1  0  0  0  0
 24 25  1  0  0  0  0
 25 43  1  0  0  0  0
 25 44  1  0  0  0  0
 25 45  1  0  0  0  0
M  CHG  1  21  -1
M  END
> <s_m_source_file>
AV-unprocessed.smi

> <i_m_source_file_index>
543

> <i_lp_mmshare_version>
43012

> <i_f3d_flags>
0

> <s_epik_input>
W0NIM11uMWMoPU8pW25IXWMoPU8pYyhjMTIpbihbQ0gyXVtDSDJdT1tDSDNdKWMobjIpTihbQ0gzXSlbQ0gyXWMzW2NIXVtjSF1bY0hdW2NIXVtjSF0z

> <s_epik_cmdline>
J2VwaWtfcHl0aG9uJywgJy1waCcsICc3LjAnLCAnLXRuJywgJzgnLCAnLW1hJywgJzIwMCcsICctbWV0YWxfYmluZGluZycsICctaW1hZScsICc8aW5maWxlLm1hZT4nLCAnLW9tYWUnLCAnPG91dGZpbGUubWFlPic=

> <r_lp_tautomer_probability>
1

> <r_epik_Ionization_Penalty>
6.27073

> <r_epik_Ionization_Penalty_Charging>
0.0750099

> <r_epik_Ionization_Penalty_Neutral>
6.19572

> <r_epik_State_Penalty>
6.19553

> <r_epik_Charging_Adjusted_Penalty>
6.27054

> <i_epik_Tot_Q>
-1

> <i_epik_Tot_abs_Q>
1

> <r_epik_Metal_State_Penalty>
2.13591

> <b_epik_Metal_Only>
1

> <s_lp_Force_Field>
OPLS_2005

> <r_lp_Energy>
36.8514

> <b_lp_Chiralities_Consistent>
1

> <s_lp_Variant>
AV-unprocessed.smi:543-2

> <Gold.Version>
5.8.1

> <Gold.Id.Protein>
6NUR|6NUR_protein|mol2

> <Gold.PLP.Fitness>
44.1644

> <Gold.PLP.PLP>
-40.8794

> <Gold.PLP.part.hbond>
-1.4024

> <Gold.PLP.part.metal>
0.0000

> <Gold.PLP.part.buried>
-4.0985

> <Gold.PLP.part.nonpolar>
-35.7491

> <Gold.PLP.part.repulsive>
0.0895

> <Gold.PLP.ligand.clash>
4.7127

> <Gold.PLP.ligand.torsion>
0.6317

> <Gold.PLP.Chemscore.Hbond>
1.4800

> <Gold.PLP.Chemscore.CHOScore>
0.0000

> <Gold.PLP.Chemscore.Metal>
0.0000

> <Gold.Chemscore.Hbonds>
donor molecule, donor type, donor heavy atom, donor atom, acceptor molecule, acceptor atom, score
      P1  H 10752 10763       L1    20  0.48
      P1  H 10752 10765       L1     2  0.35

> <Gold.PLP.Chemscore.Internal.Correction>
4.8212

> <Gold.Rescore>
     Score         DG    S(hbond)    S(metal)    S(lipo)     H(rot)  DE(clash)    DE(int)     intcor
     13.62     -15.96       0.67        0.00     110.31       1.82       0.15       2.18       ----

> <Gold.Chemscore.Fitness>
13.6194

> <Gold.Chemscore.DG>
-15.9564

> <Gold.Chemscore.ZeroCoef>
-5.4800

> <Gold.Chemscore.Hbond>
0.6682

> <Gold.Chemscore.Metal>
0.0000

> <Gold.Chemscore.Lipo>
110.3058

> <Gold.Chemscore.Internal_Hbond>
0.0000

> <Gold.Chemscore.DEClash>
0.1543

> <Gold.Chemscore.DEInternal>
2.1828

> <Gold.Chemscore.Rot>
1.8207

> <Gold.Chemscore.Internal.Correction>
   9.000000E+99

> <Gold.Chemscore.Hbonds>
donor molecule, donor type, donor heavy atom, donor atom, acceptor molecule, acceptor atom, score
      P1  H 10752 10763       L1    20  0.46

> <Gold.Chemscore.Hbond.Weighted>
-2.2317

> <Gold.Chemscore.Metal.Weighted>
-0.0000

> <Gold.Chemscore.Lipo.Weighted>
-12.9058

> <Gold.Chemscore.Internal_Hbond.Weighted>
0.0000

> <Gold.Chemscore.DEClash.Weighted>
0.1543

> <Gold.Chemscore.DEInternal.Weighted>
2.1828

> <Gold.Chemscore.Rot.Weighted>
4.6610

> <Gold.Chemscore.Internal.Correction.Weighted>
   9.000000E+99

> <Gold.Protein.RotatedTorsions>
[ 6907 6896 6895 6894 ] final  133.54 input  -60.11 | X-H torsion
[ 7974 7965 7964 7962 ] final  127.98 input  175.53 | X-H torsion
[ 8008 7997 7996 7995 ] final   87.42 input   59.86 | X-H torsion
[ 10167 10162 10161 10158 ] final -172.74 input  -65.29 | X-H torsion
[ 10718 10713 10712 10709 ] final -164.25 input   66.30 | X-H torsion
[ 10763 10752 10751 10750 ] final -170.97 input  -60.55 | X-H torsion
[ 11005 11000 10999 10996 ] final   26.36 input  -57.11 | X-H torsion

> <Gold.Protein.ActiveResidues>
 VAL166  LYS551  ARG553  GLY616  TRP617  ASP618  TYR619  PRO620  LYS621  CYS622 
 ASP623  PHE694  ASN695  SER759  ASP760  ASP761  ALA762  ILE779  LEU786  VAL792 
 PHE793  MET794  SER795  GLU796  ALA797  LYS798  CYS799  TRP800  GLU811  SER814 

> <Gold.Protein.RotatedAtoms>
  152.3209  133.5853  159.5743 H   0  0  0  0  0  0  0  0  0  0  0  0  # atno 6907 bound_to 6896
  150.7371  134.0012  159.3648 H   0  0  0  0  0  0  0  0  0  0  0  0  # atno 6908 bound_to 6896
  151.7897  135.0740  160.0436 H   0  0  0  0  0  0  0  0  0  0  0  0  # atno 6909 bound_to 6896
  145.0446  139.3934  143.5084 H   0  0  0  0  0  0  0  0  0  0  0  0  # atno 7974 bound_to 7965
  155.9751  140.3382  155.6611 H   0  0  0  0  0  0  0  0  0  0  0  0  # atno 8008 bound_to 7997
  155.6623  140.0717  157.2568 H   0  0  0  0  0  0  0  0  0  0  0  0  # atno 8009 bound_to 7997
  154.4177  140.1706  156.1777 H   0  0  0  0  0  0  0  0  0  0  0  0  # atno 8010 bound_to 7997
  139.5727  144.1603  152.1407 H   0  0  0  0  0  0  0  0  0  0  0  0  # atno 10167 bound_to 10162
  156.6364  130.8951  151.2987 H   0  0  0  0  0  0  0  0  0  0  0  0  # atno 10718 bound_to 10713
  154.6357  135.2892  155.0164 H   0  0  0  0  0  0  0  0  0  0  0  0  # atno 10763 bound_to 10752
  154.1309  135.6533  153.4926 H   0  0  0  0  0  0  0  0  0  0  0  0  # atno 10764 bound_to 10752
  153.0301  135.5310  154.7202 H   0  0  0  0  0  0  0  0  0  0  0  0  # atno 10765 bound_to 10752
  140.3378  134.2366  155.7694 H   0  0  0  0  0  0  0  0  0  0  0  0  # atno 11005 bound_to 11000
  146.3512  140.0065  142.8671 LP  0  0  0  0  0  0  0  0  0  0  0  0  # atno 17320 bound_to 7965
  145.1604  140.9670  143.4380 LP  0  0  0  0  0  0  0  0  0  0  0  0  # atno 17321 bound_to 7965
  140.1139  144.5432  150.6906 LP  0  0  0  0  0  0  0  0  0  0  0  0  # atno 17342 bound_to 10162
  140.7011  143.2436  151.4860 LP  0  0  0  0  0  0  0  0  0  0  0  0  # atno 17343 bound_to 10162
  157.7184  130.9527  150.1344 LP  0  0  0  0  0  0  0  0  0  0  0  0  # atno 17370 bound_to 10713
  156.2194  130.3673  149.8574 LP  0  0  0  0  0  0  0  0  0  0  0  0  # atno 17371 bound_to 10713
  141.2046  133.7881  157.0276 LP  0  0  0  0  0  0  0  0  0  0  0  0  # atno 17394 bound_to 11000
  140.0806  134.9650  157.1618 LP  0  0  0  0  0  0  0  0  0  0  0  0  # atno 17395 bound_to 11000

$$$$
