AV-unprocessed.smi:2563|AV-procd|sdf|10060|dock4
  -GOLD-   2272014 93D 1   1.00000     0.00000
 Structure written by MMmdl.
 34 35  0  0  0  0  0  0  0  0  1 V2000
  152.9320  140.4585  159.3939 C   0  0  0  0  0  0  0  0  0  0  0  0
  151.5797  140.5073  158.6707 C   0  0  0  0  0  0  0  0  0  0  0  0
  151.3810  141.7685  157.9564 N   0  0  0  0  0  0  0  0  0  0  0  0
  151.0958  141.7239  156.5233 C   0  0  0  0  0  0  0  0  0  0  0  0
  150.9203  140.2861  156.0036 C   0  0  2  0  0  0  0  0  0  0  0  0
  152.2760  139.5637  155.8717 C   0  0  0  0  0  0  0  0  0  0  0  0
  152.0900  138.2251  155.3134 N   0  0  0  0  0  0  0  0  0  0  0  0
  151.3793  138.2772  154.0374 C   0  0  0  0  0  0  0  0  0  0  0  0
  150.0535  139.0407  154.1970 C   0  0  0  0  0  0  0  0  0  0  0  0
  150.3169  140.3408  154.7129 O   0  0  0  0  0  0  0  0  0  0  0  0
  151.3831  143.0000  158.6561 C   0  0  0  0  0  0  0  0  0  0  0  0
  151.9272  144.1802  158.0917 C   0  0  0  0  0  0  0  0  0  0  0  0
  151.8888  145.3601  158.8537 C   0  0  0  0  0  0  0  0  0  0  0  0
  151.3090  145.2859  160.1311 C   0  0  0  0  0  0  0  0  0  0  0  0
  150.8021  144.1390  160.6311 N   0  0  0  0  0  0  0  0  0  0  0  0
  150.8415  143.0185  159.9026 N   0  0  0  0  0  0  0  0  0  0  0  0
  153.0474  139.5176  159.9321 H   0  0  0  0  0  0  0  0  0  0  0  0
  153.0238  141.2681  160.1184 H   0  0  0  0  0  0  0  0  0  0  0  0
  153.7614  140.5416  158.6910 H   0  0  0  0  0  0  0  0  0  0  0  0
  151.4767  139.6566  157.9965 H   0  0  0  0  0  0  0  0  0  0  0  0
  150.7811  140.3938  159.4041 H   0  0  0  0  0  0  0  0  0  0  0  0
  150.1899  142.2959  156.3187 H   0  0  0  0  0  0  0  0  0  0  0  0
  151.8856  142.2377  155.9755 H   0  0  0  0  0  0  0  0  0  0  0  0
  150.2786  139.7263  156.6867 H   0  0  0  0  0  0  0  0  0  0  0  0
  152.9431  140.1430  155.2317 H   0  0  0  0  0  0  0  0  0  0  0  0
  152.7596  139.4944  156.8466 H   0  0  0  0  0  0  0  0  0  0  0  0
  152.9935  137.7820  155.1817 H   0  0  0  0  0  0  0  0  0  0  0  0
  151.9986  138.7719  153.2882 H   0  0  0  0  0  0  0  0  0  0  0  0
  151.1899  137.2680  153.6713 H   0  0  0  0  0  0  0  0  0  0  0  0
  149.5582  139.1384  153.2310 H   0  0  0  0  0  0  0  0  0  0  0  0
  149.3669  138.5041  154.8537 H   0  0  0  0  0  0  0  0  0  0  0  0
  152.3738  144.2040  157.1097 H   0  0  0  0  0  0  0  0  0  0  0  0
  152.2912  146.2871  158.4732 H   0  0  0  0  0  0  0  0  0  0  0  0
  151.2517  146.1594  160.7638 H   0  0  0  0  0  0  0  0  0  0  0  0
  1  2  1  0  0  0  0
  1 17  1  0  0  0  0
  1 18  1  0  0  0  0
  1 19  1  0  0  0  0
  2  3  1  0  0  0  0
  2 20  1  0  0  0  0
  2 21  1  0  0  0  0
  3  4  1  0  0  0  0
  3 11  1  0  0  0  0
  4  5  1  0  0  0  0
  4 22  1  0  0  0  0
  4 23  1  0  0  0  0
  5 10  1  0  0  0  0
  5  6  1  0  0  0  0
  5 24  1  0  0  0  0
  6  7  1  0  0  0  0
  6 25  1  0  0  0  0
  6 26  1  0  0  0  0
  7  8  1  0  0  0  0
  7 27  1  0  0  0  0
  8  9  1  0  0  0  0
  8 28  1  0  0  0  0
  8 29  1  0  0  0  0
  9 10  1  0  0  0  0
  9 30  1  0  0  0  0
  9 31  1  0  0  0  0
 11 16  1  0  0  0  0
 11 12  2  0  0  0  0
 12 13  1  0  0  0  0
 12 32  1  0  0  0  0
 13 14  2  0  0  0  0
 13 33  1  0  0  0  0
 14 15  1  0  0  0  0
 14 34  1  0  0  0  0
 15 16  2  0  0  0  0
M  END
> <s_m_source_file>
AV-unprocessed.smi

> <i_m_source_file_index>
2563

> <i_lp_mmshare_version>
43012

> <i_f3d_flags>
0

> <s_epik_input>
bjFuW2NIXVtjSF1bY0hdYzFOKFtDSDJdW0NIM10pW0NIMl1bQ0BASF0yW0NIMl1bTkhdW0NIMl1bQ0gyXU8y

> <s_epik_cmdline>
J2VwaWtfcHl0aG9uJywgJy1waCcsICc3LjAnLCAnLXRuJywgJzgnLCAnLW1hJywgJzIwMCcsICctbWV0YWxfYmluZGluZycsICctaW1hZScsICc8aW5maWxlLm1hZT4nLCAnLW9tYWUnLCAnPG91dGZpbGUubWFlPic=

> <r_lp_tautomer_probability>
1

> <r_epik_Ionization_Penalty>
2.34719

> <r_epik_Ionization_Penalty_Charging>
0

> <r_epik_Ionization_Penalty_Neutral>
2.34719

> <r_epik_State_Penalty>
2.60452

> <r_epik_Charging_Adjusted_Penalty>
2.60452

> <i_epik_Tot_Q>
0

> <i_epik_Tot_abs_Q>
0

> <r_epik_Metal_State_Penalty>
2.56937

> <b_epik_Metal_Only>
0

> <s_lp_Force_Field>
OPLS_2005

> <r_lp_Energy>
25.5001

> <b_lp_Chiralities_Consistent>
1

> <s_lp_Variant>
AV-unprocessed.smi:2563-5

> <Gold.Version>
5.8.1

> <Gold.Id.Protein>
6NUR|6NUR_protein|mol2

> <Gold.PLP.Fitness>
40.6505

> <Gold.PLP.PLP>
-39.1014

> <Gold.PLP.part.hbond>
-2.0000

> <Gold.PLP.part.metal>
0.0000

> <Gold.PLP.part.buried>
-5.7345

> <Gold.PLP.part.nonpolar>
-30.4069

> <Gold.PLP.part.repulsive>
0.2499

> <Gold.PLP.ligand.clash>
0.0000

> <Gold.PLP.ligand.torsion>
0.7443

> <Gold.PLP.Chemscore.Hbond>
1.0000

> <Gold.PLP.Chemscore.CHOScore>
0.0000

> <Gold.PLP.Chemscore.Metal>
0.0000

> <Gold.Chemscore.Hbonds>
donor molecule, donor type, donor heavy atom, donor atom, acceptor molecule, acceptor atom, score
      P1  H  7989  7998       L1    10  0.95

> <Gold.PLP.Chemscore.Internal.Correction>
0.0377

> <Gold.Rescore>
     Score         DG    S(hbond)    S(metal)    S(lipo)     H(rot)  DE(clash)    DE(int)     intcor
     13.70     -14.23       0.58        0.00      88.08       1.36       0.04       0.48       ----

> <Gold.Chemscore.Fitness>
13.7047

> <Gold.Chemscore.DG>
-14.2271

> <Gold.Chemscore.ZeroCoef>
-5.4800

> <Gold.Chemscore.Hbond>
0.5771

> <Gold.Chemscore.Metal>
0.0000

> <Gold.Chemscore.Lipo>
88.0828

> <Gold.Chemscore.Internal_Hbond>
0.0000

> <Gold.Chemscore.DEClash>
0.0402

> <Gold.Chemscore.DEInternal>
0.4822

> <Gold.Chemscore.Rot>
1.3618

> <Gold.Chemscore.Internal.Correction>
   9.000000E+99

> <Gold.Chemscore.Hbonds>
donor molecule, donor type, donor heavy atom, donor atom, acceptor molecule, acceptor atom, score
      P1  H  7989  7998       L1    10  0.14

> <Gold.Chemscore.Hbond.Weighted>
-1.9276

> <Gold.Chemscore.Metal.Weighted>
-0.0000

> <Gold.Chemscore.Lipo.Weighted>
-10.3057

> <Gold.Chemscore.Internal_Hbond.Weighted>
0.0000

> <Gold.Chemscore.DEClash.Weighted>
0.0402

> <Gold.Chemscore.DEInternal.Weighted>
0.4822

> <Gold.Chemscore.Rot.Weighted>
3.4861

> <Gold.Chemscore.Internal.Correction.Weighted>
   9.000000E+99

> <Gold.Protein.RotatedTorsions>
[ 6907 6896 6895 6894 ] final   97.75 input  -60.11 | X-H torsion
[ 7974 7965 7964 7962 ] final  -90.93 input  175.53 | X-H torsion
[ 8008 7997 7996 7995 ] final -110.34 input   59.86 | X-H torsion
[ 10167 10162 10161 10158 ] final -145.41 input  -65.29 | X-H torsion
[ 10718 10713 10712 10709 ] final  105.52 input   66.30 | X-H torsion
[ 10763 10752 10751 10750 ] final -121.03 input  -60.55 | X-H torsion
[ 11005 11000 10999 10996 ] final -150.72 input  -57.11 | X-H torsion

> <Gold.Protein.ActiveResidues>
 VAL166  LYS551  ARG553  GLY616  TRP617  ASP618  TYR619  PRO620  LYS621  CYS622 
 ASP623  PHE694  ASN695  SER759  ASP760  ASP761  ALA762  ILE779  LEU786  VAL792 
 PHE793  MET794  SER795  GLU796  ALA797  LYS798  CYS799  TRP800  GLU811  SER814 

> <Gold.Protein.RotatedAtoms>
  152.5419  134.0686  159.8183 H   0  0  0  0  0  0  0  0  0  0  0  0  # atno 6907 bound_to 6896
  151.0804  133.5387  159.2628 H   0  0  0  0  0  0  0  0  0  0  0  0  # atno 6908 bound_to 6896
  151.2217  135.0529  159.9006 H   0  0  0  0  0  0  0  0  0  0  0  0  # atno 6909 bound_to 6896
  145.4198  140.9550  143.2187 H   0  0  0  0  0  0  0  0  0  0  0  0  # atno 7974 bound_to 7965
  154.9730  140.0397  157.2243 H   0  0  0  0  0  0  0  0  0  0  0  0  # atno 8008 bound_to 7997
  154.7783  140.2814  155.6061 H   0  0  0  0  0  0  0  0  0  0  0  0  # atno 8009 bound_to 7997
  156.2932  140.2596  156.2603 H   0  0  0  0  0  0  0  0  0  0  0  0  # atno 8010 bound_to 7997
  139.7808  143.8104  152.2638 H   0  0  0  0  0  0  0  0  0  0  0  0  # atno 10167 bound_to 10162
  157.6702  131.0829  150.5868 H   0  0  0  0  0  0  0  0  0  0  0  0  # atno 10718 bound_to 10713
  154.8659  135.4182  154.2555 H   0  0  0  0  0  0  0  0  0  0  0  0  # atno 10763 bound_to 10752
  153.3493  135.6998  153.6807 H   0  0  0  0  0  0  0  0  0  0  0  0  # atno 10764 bound_to 10752
  153.5754  135.3583  155.2827 H   0  0  0  0  0  0  0  0  0  0  0  0  # atno 10765 bound_to 10752
  140.7372  134.3555  157.5155 H   0  0  0  0  0  0  0  0  0  0  0  0  # atno 11005 bound_to 11000
  144.8253  139.5721  143.6968 LP  0  0  0  0  0  0  0  0  0  0  0  0  # atno 17320 bound_to 7965
  146.2662  139.6526  142.9328 LP  0  0  0  0  0  0  0  0  0  0  0  0  # atno 17321 bound_to 7965
  139.8166  144.7313  150.9627 LP  0  0  0  0  0  0  0  0  0  0  0  0  # atno 17342 bound_to 10162
  140.7818  143.4199  151.0858 LP  0  0  0  0  0  0  0  0  0  0  0  0  # atno 17343 bound_to 10162
  156.6169  130.4395  149.5837 LP  0  0  0  0  0  0  0  0  0  0  0  0  # atno 17370 bound_to 10713
  156.2386  130.6838  151.1534 LP  0  0  0  0  0  0  0  0  0  0  0  0  # atno 17371 bound_to 10713
  139.8813  134.9057  156.2905 LP  0  0  0  0  0  0  0  0  0  0  0  0  # atno 17394 bound_to 11000
  140.9869  133.7233  156.0755 LP  0  0  0  0  0  0  0  0  0  0  0  0  # atno 17395 bound_to 11000

$$$$
