AV-unprocessed.smi:2148|AV-procd|sdf|8750|dock10
  -GOLD-   2272011523D 1   1.00000     0.00000
 Structure written by MMmdl.
 44 45  0  0  0  0  0  0  0  0  1 V2000
  154.9919  143.7773  167.7736 C   0  0  0  0  0  0  0  0  0  0  0  0
  155.0362  142.0175  167.3362 S   0  0  0  0  0  0  0  0  0  0  0  0
  155.9017  142.0793  165.7382 C   0  0  2  0  0  0  0  0  0  0  0  0
  157.0325  143.1187  165.7874 C   0  0  0  0  0  0  0  0  0  0  0  0
  154.9398  142.3647  164.5775 C   0  0  0  0  0  0  0  0  0  0  0  0
  154.1282  143.2848  164.6725 O   0  0  0  0  0  0  0  0  0  0  0  0
  155.0421  141.5393  163.5185 N   0  0  0  0  0  0  0  0  0  0  0  0
  154.2942  141.5342  162.3094 C   0  0  0  0  0  0  0  0  0  0  0  0
  154.7033  140.6552  161.2880 C   0  0  0  0  0  0  0  0  0  0  0  0
  153.9955  140.6321  160.0716 C   0  0  0  0  0  0  0  0  0  0  0  0
  152.8882  141.4961  159.9009 C   0  0  0  0  0  0  0  0  0  0  0  0
  152.1580  141.4897  158.6920 N   0  0  0  0  0  0  0  0  0  0  0  0
  152.1868  140.2424  157.9344 C   0  0  0  0  0  0  0  0  0  0  0  0
  151.6939  140.4785  156.4956 C   0  0  1  0  0  0  0  0  0  0  0  0
  151.5900  139.1701  155.7049 C   0  0  0  0  0  0  0  0  0  0  0  0
  150.4005  141.0804  156.5259 O   0  0  0  0  0  0  0  0  0  0  0  0
  150.3348  142.3206  157.2332 C   0  0  2  0  0  0  0  0  0  0  0  0
  151.0324  143.4616  156.4717 C   0  0  0  0  0  0  0  0  0  0  0  0
  150.8491  142.1406  158.6752 C   0  0  0  0  0  0  0  0  0  0  0  0
  152.5069  142.3559  160.8771 N   0  0  0  0  0  0  0  0  0  0  0  0
  153.1879  142.3754  162.0422 C   0  0  0  0  0  0  0  0  0  0  0  0
  154.4562  143.9151  168.7128 H   0  0  0  0  0  0  0  0  0  0  0  0
  154.4835  144.3507  166.9988 H   0  0  0  0  0  0  0  0  0  0  0  0
  156.0008  144.1713  167.8954 H   0  0  0  0  0  0  0  0  0  0  0  0
  156.3610  141.1016  165.5836 H   0  0  0  0  0  0  0  0  0  0  0  0
  157.5655  143.1714  164.8372 H   0  0  0  0  0  0  0  0  0  0  0  0
  157.7616  142.8629  166.5567 H   0  0  0  0  0  0  0  0  0  0  0  0
  156.6526  144.1161  166.0135 H   0  0  0  0  0  0  0  0  0  0  0  0
  155.7101  140.7882  163.6134 H   0  0  0  0  0  0  0  0  0  0  0  0
  155.5519  140.0021  161.4310 H   0  0  0  0  0  0  0  0  0  0  0  0
  154.3179  139.9659  159.2855 H   0  0  0  0  0  0  0  0  0  0  0  0
  153.1860  139.8107  157.9007 H   0  0  0  0  0  0  0  0  0  0  0  0
  151.5464  139.5159  158.4362 H   0  0  0  0  0  0  0  0  0  0  0  0
  152.3923  141.1323  155.9729 H   0  0  0  0  0  0  0  0  0  0  0  0
  152.5575  138.6707  155.6438 H   0  0  0  0  0  0  0  0  0  0  0  0
  151.2477  139.3569  154.6866 H   0  0  0  0  0  0  0  0  0  0  0  0
  150.8860  138.4812  156.1725 H   0  0  0  0  0  0  0  0  0  0  0  0
  149.2779  142.5819  157.2899 H   0  0  0  0  0  0  0  0  0  0  0  0
  150.8469  144.4192  156.9587 H   0  0  0  0  0  0  0  0  0  0  0  0
  150.6574  143.5332  155.4506 H   0  0  0  0  0  0  0  0  0  0  0  0
  152.1128  143.3284  156.4237 H   0  0  0  0  0  0  0  0  0  0  0  0
  150.1471  141.5251  159.2397 H   0  0  0  0  0  0  0  0  0  0  0  0
  150.8946  143.1119  159.1694 H   0  0  0  0  0  0  0  0  0  0  0  0
  152.8317  143.1032  162.7534 H   0  0  0  0  0  0  0  0  0  0  0  0
  1  2  1  0  0  0  0
  1 22  1  0  0  0  0
  1 23  1  0  0  0  0
  1 24  1  0  0  0  0
  2  3  1  0  0  0  0
  3  4  1  0  0  0  0
  3  5  1  0  0  0  0
  3 25  1  0  0  0  0
  4 26  1  0  0  0  0
  4 27  1  0  0  0  0
  4 28  1  0  0  0  0
  5  6  2  0  0  0  0
  5  7  1  0  0  0  0
  7  8  1  0  0  0  0
  7 29  1  0  0  0  0
  8 21  1  0  0  0  0
  8  9  2  0  0  0  0
  9 10  1  0  0  0  0
  9 30  1  0  0  0  0
 10 11  2  0  0  0  0
 10 31  1  0  0  0  0
 11 12  1  0  0  0  0
 11 20  1  0  0  0  0
 12 19  1  0  0  0  0
 12 13  1  0  0  0  0
 13 14  1  0  0  0  0
 13 32  1  0  0  0  0
 13 33  1  0  0  0  0
 14 15  1  0  0  0  0
 14 16  1  0  0  0  0
 14 34  1  0  0  0  0
 15 35  1  0  0  0  0
 15 36  1  0  0  0  0
 15 37  1  0  0  0  0
 16 17  1  0  0  0  0
 17 18  1  0  0  0  0
 17 19  1  0  0  0  0
 17 38  1  0  0  0  0
 18 39  1  0  0  0  0
 18 40  1  0  0  0  0
 18 41  1  0  0  0  0
 19 42  1  0  0  0  0
 19 43  1  0  0  0  0
 20 21  2  0  0  0  0
 21 44  1  0  0  0  0
M  END
> <s_m_source_file>
AV-unprocessed.smi

> <i_m_source_file_index>
2148

> <i_lp_mmshare_version>
43012

> <i_f3d_flags>
0

> <s_epik_input>
W0NIM11TW0NASF0oW0NIM10pQyg9TylbTkhdYzFbY0hdW2NIXWMobltjSF0xKU4yW0NIMl1bQ0BASF0oW0NIM10pT1tDQEBIXShbQ0gzXSlbQ0gyXTI=

> <s_epik_cmdline>
J2VwaWtfcHl0aG9uJywgJy1waCcsICc3LjAnLCAnLXRuJywgJzgnLCAnLW1hJywgJzIwMCcsICctbWV0YWxfYmluZGluZycsICctaW1hZScsICc8aW5maWxlLm1hZT4nLCAnLW9tYWUnLCAnPG91dGZpbGUubWFlPic=

> <r_lp_tautomer_probability>
1

> <r_epik_Ionization_Penalty>
0.000646494

> <r_epik_Ionization_Penalty_Charging>
0

> <r_epik_Ionization_Penalty_Neutral>
0.000646494

> <r_epik_State_Penalty>
0.000408447

> <r_epik_Charging_Adjusted_Penalty>
0.000408447

> <i_epik_Tot_Q>
0

> <i_epik_Tot_abs_Q>
0

> <r_epik_Metal_State_Penalty>
-0

> <b_epik_Metal_Only>
0

> <s_lp_Force_Field>
OPLS_2005

> <r_lp_Energy>
25.6467

> <b_lp_Chiralities_Consistent>
1

> <s_lp_Variant>
AV-unprocessed.smi:2148-5

> <Gold.Version>
5.8.1

> <Gold.Id.Protein>
6NUR|6NUR_protein|mol2

> <Gold.PLP.Fitness>
38.0601

> <Gold.PLP.PLP>
-39.8806

> <Gold.PLP.part.hbond>
-1.8627

> <Gold.PLP.part.metal>
0.0000

> <Gold.PLP.part.buried>
0.1377

> <Gold.PLP.part.nonpolar>
-38.4375

> <Gold.PLP.part.repulsive>
0.1590

> <Gold.PLP.ligand.clash>
0.0000

> <Gold.PLP.ligand.torsion>
1.0934

> <Gold.PLP.Chemscore.Hbond>
0.0000

> <Gold.PLP.Chemscore.CHOScore>
0.0000

> <Gold.PLP.Chemscore.Metal>
0.0000

> <Gold.PLP.Chemscore.Internal.Correction>
0.3663

> <Gold.Rescore>
     Score         DG    S(hbond)    S(metal)    S(lipo)     H(rot)  DE(clash)    DE(int)     intcor
     11.71     -14.40       0.00        0.00     103.97       1.27       0.52       2.17       ----

> <Gold.Chemscore.Fitness>
11.7149

> <Gold.Chemscore.DG>
-14.4041

> <Gold.Chemscore.ZeroCoef>
-5.4800

> <Gold.Chemscore.Hbond>
0.0000

> <Gold.Chemscore.Metal>
0.0000

> <Gold.Chemscore.Lipo>
103.9720

> <Gold.Chemscore.Internal_Hbond>
0.0000

> <Gold.Chemscore.DEClash>
0.5236

> <Gold.Chemscore.DEInternal>
2.1656

> <Gold.Chemscore.Rot>
1.2659

> <Gold.Chemscore.Internal.Correction>
   9.000000E+99

> <Gold.Chemscore.Hbond.Weighted>
-0.0000

> <Gold.Chemscore.Metal.Weighted>
-0.0000

> <Gold.Chemscore.Lipo.Weighted>
-12.1647

> <Gold.Chemscore.Internal_Hbond.Weighted>
0.0000

> <Gold.Chemscore.DEClash.Weighted>
0.5236

> <Gold.Chemscore.DEInternal.Weighted>
2.1656

> <Gold.Chemscore.Rot.Weighted>
3.2406

> <Gold.Chemscore.Internal.Correction.Weighted>
   9.000000E+99

> <Gold.Protein.RotatedTorsions>
[ 6907 6896 6895 6894 ] final  -87.77 input  -60.11 | X-H torsion
[ 7974 7965 7964 7962 ] final  -99.16 input  175.53 | X-H torsion
[ 8008 7997 7996 7995 ] final  -38.97 input   59.86 | X-H torsion
[ 10167 10162 10161 10158 ] final  -63.47 input  -65.29 | X-H torsion
[ 10718 10713 10712 10709 ] final  118.85 input   66.30 | X-H torsion
[ 10763 10752 10751 10750 ] final  167.21 input  -60.55 | X-H torsion
[ 11005 11000 10999 10996 ] final   64.57 input  -57.11 | X-H torsion

> <Gold.Protein.ActiveResidues>
 VAL166  LYS551  ARG553  GLY616  TRP617  ASP618  TYR619  PRO620  LYS621  CYS622 
 ASP623  PHE694  ASN695  SER759  ASP760  ASP761  ALA762  ILE779  LEU786  VAL792 
 PHE793  MET794  SER795  GLU796  ALA797  LYS798  CYS799  TRP800  GLU811  SER814 

> <Gold.Protein.RotatedAtoms>
  150.6867  134.2845  159.4640 H   0  0  0  0  0  0  0  0  0  0  0  0  # atno 6907 bound_to 6896
  152.0756  134.9502  160.0583 H   0  0  0  0  0  0  0  0  0  0  0  0  # atno 6908 bound_to 6896
  152.0875  133.4149  159.4566 H   0  0  0  0  0  0  0  0  0  0  0  0  # atno 6909 bound_to 6896
  145.3111  140.9400  143.2769 H   0  0  0  0  0  0  0  0  0  0  0  0  # atno 7974 bound_to 7965
  154.4029  140.1564  156.2786 H   0  0  0  0  0  0  0  0  0  0  0  0  # atno 8008 bound_to 7997
  155.8889  140.3439  155.5920 H   0  0  0  0  0  0  0  0  0  0  0  0  # atno 8009 bound_to 7997
  155.7581  140.0814  157.2159 H   0  0  0  0  0  0  0  0  0  0  0  0  # atno 8010 bound_to 7997
  140.5868  143.2335  151.6225 H   0  0  0  0  0  0  0  0  0  0  0  0  # atno 10167 bound_to 10162
  157.6002  131.1052  150.7814 H   0  0  0  0  0  0  0  0  0  0  0  0  # atno 10718 bound_to 10713
  154.3505  135.2753  155.2374 H   0  0  0  0  0  0  0  0  0  0  0  0  # atno 10763 bound_to 10752
  154.4606  135.5908  153.6256 H   0  0  0  0  0  0  0  0  0  0  0  0  # atno 10764 bound_to 10752
  152.9850  135.6064  154.3715 H   0  0  0  0  0  0  0  0  0  0  0  0  # atno 10765 bound_to 10752
  139.9950  134.6531  156.0025 H   0  0  0  0  0  0  0  0  0  0  0  0  # atno 11005 bound_to 11000
  144.9015  139.4644  143.6630 LP  0  0  0  0  0  0  0  0  0  0  0  0  # atno 17320 bound_to 7965
  146.3117  139.7771  142.9014 LP  0  0  0  0  0  0  0  0  0  0  0  0  # atno 17321 bound_to 7965
  139.5203  144.3228  152.0895 LP  0  0  0  0  0  0  0  0  0  0  0  0  # atno 17342 bound_to 10162
  140.2386  144.4293  150.6269 LP  0  0  0  0  0  0  0  0  0  0  0  0  # atno 17343 bound_to 10162
  156.8215  130.4985  149.5342 LP  0  0  0  0  0  0  0  0  0  0  0  0  # atno 17370 bound_to 10713
  156.1073  130.6014  150.9992 LP  0  0  0  0  0  0  0  0  0  0  0  0  # atno 17371 bound_to 10713
  141.1597  133.6540  156.4278 LP  0  0  0  0  0  0  0  0  0  0  0  0  # atno 17394 bound_to 11000
  140.4835  134.6642  157.5181 LP  0  0  0  0  0  0  0  0  0  0  0  0  # atno 17395 bound_to 11000

$$$$
