AV-unprocessed.smi:1749|AV-procd|sdf|7044|dock8
  -GOLD-   22720 8263D 1   1.00000     0.00000
 Structure written by MMmdl.
 32 33  0  0  0  0  0  0  0  0  1 V2000
  148.7541  139.2391  154.0870 C   0  0  0  0  0  0  0  0  0  0  0  0
  147.4708  140.0479  154.3226 C   0  0  2  0  0  0  0  0  0  0  0  0
  147.7242  141.5609  154.1786 C   0  0  0  0  0  0  0  0  0  0  0  0
  146.4429  142.3752  154.4177 C   0  0  0  0  0  0  0  0  0  0  0  0
  145.8216  142.0529  155.7880 C   0  0  0  0  0  0  0  0  0  0  0  0
  145.5650  140.5444  155.9683 C   0  0  1  0  0  0  0  0  0  0  0  0
  144.4815  140.1118  155.0892 N   0  0  0  0  0  0  0  0  0  0  0  0
  143.6780  139.0538  155.2849 C   0  0  0  0  0  0  0  0  0  0  0  0
  143.7365  138.3487  156.2906 O   0  0  0  0  0  0  0  0  0  0  0  0
  142.7814  138.8028  154.3076 N   0  0  0  0  0  0  0  0  0  0  0  0
  141.7913  137.7851  154.1810 C   0  0  0  0  0  0  0  0  0  0  0  0
  141.6596  136.7459  155.0225 N   0  0  0  0  0  0  0  0  0  0  0  0
  140.5971  135.9230  154.6756 N   0  0  0  0  0  0  0  0  0  0  0  0
  139.9582  136.3787  153.5947 C   0  0  0  0  0  0  0  0  0  0  0  0
  140.5939  137.8577  152.8955 S   0  0  0  0  0  0  0  0  0  0  0  0
  146.8517  139.7338  155.7011 C   0  0  0  0  0  0  0  0  0  0  0  0
  149.5189  139.4847  154.8242 H   0  0  0  0  0  0  0  0  0  0  0  0
  149.1678  139.4387  153.0982 H   0  0  0  0  0  0  0  0  0  0  0  0
  148.5599  138.1682  154.1520 H   0  0  0  0  0  0  0  0  0  0  0  0
  146.7568  139.7521  153.5524 H   0  0  0  0  0  0  0  0  0  0  0  0
  148.4910  141.8755  154.8879 H   0  0  0  0  0  0  0  0  0  0  0  0
  148.1152  141.7806  153.1845 H   0  0  0  0  0  0  0  0  0  0  0  0
  146.6651  143.4406  154.3546 H   0  0  0  0  0  0  0  0  0  0  0  0
  145.7230  142.1653  153.6258 H   0  0  0  0  0  0  0  0  0  0  0  0
  146.4963  142.3962  156.5731 H   0  0  0  0  0  0  0  0  0  0  0  0
  144.8946  142.6126  155.9192 H   0  0  0  0  0  0  0  0  0  0  0  0
  145.2540  140.3787  157.0013 H   0  0  0  0  0  0  0  0  0  0  0  0
  144.3581  140.6394  154.2367 H   0  0  0  0  0  0  0  0  0  0  0  0
  142.7628  139.4927  153.5709 H   0  0  0  0  0  0  0  0  0  0  0  0
  139.1044  135.8421  153.2083 H   0  0  0  0  0  0  0  0  0  0  0  0
  146.6458  138.6658  155.7848 H   0  0  0  0  0  0  0  0  0  0  0  0
  147.5798  139.9597  156.4814 H   0  0  0  0  0  0  0  0  0  0  0  0
  1  2  1  0  0  0  0
  1 17  1  0  0  0  0
  1 18  1  0  0  0  0
  1 19  1  0  0  0  0
  2 16  1  0  0  0  0
  2  3  1  0  0  0  0
  2 20  1  0  0  0  0
  3  4  1  0  0  0  0
  3 21  1  0  0  0  0
  3 22  1  0  0  0  0
  4  5  1  0  0  0  0
  4 23  1  0  0  0  0
  4 24  1  0  0  0  0
  5  6  1  0  0  0  0
  5 25  1  0  0  0  0
  5 26  1  0  0  0  0
  6  7  1  0  0  0  0
  6 16  1  0  0  0  0
  6 27  1  0  0  0  0
  7  8  1  0  0  0  0
  7 28  1  0  0  0  0
  8  9  2  0  0  0  0
  8 10  1  0  0  0  0
 10 11  1  0  0  0  0
 10 29  1  0  0  0  0
 11 15  1  0  0  0  0
 11 12  2  0  0  0  0
 12 13  1  0  0  0  0
 13 14  2  0  0  0  0
 14 15  1  0  0  0  0
 14 30  1  0  0  0  0
 16 31  1  0  0  0  0
 16 32  1  0  0  0  0
M  END
> <s_m_source_file>
AV-unprocessed.smi

> <i_m_source_file_index>
1749

> <i_lp_mmshare_version>
43012

> <i_f3d_flags>
0

> <s_epik_input>
W0NIM11bQ0BASF0xW0NIMl1bQ0gyXVtDSDJdW0NASF0oW0NIMl0xKVtOSF1DKD1PKVtOSF1jMm5uW2NIXXMy

> <s_epik_cmdline>
J2VwaWtfcHl0aG9uJywgJy1waCcsICc3LjAnLCAnLXRuJywgJzgnLCAnLW1hJywgJzIwMCcsICctbWV0YWxfYmluZGluZycsICctaW1hZScsICc8aW5maWxlLm1hZT4nLCAnLW9tYWUnLCAnPG91dGZpbGUubWFlPic=

> <r_lp_tautomer_probability>
1

> <r_epik_Ionization_Penalty>
0.000318591

> <r_epik_Ionization_Penalty_Charging>
0

> <r_epik_Ionization_Penalty_Neutral>
0.000318591

> <r_epik_State_Penalty>
-0

> <r_epik_Charging_Adjusted_Penalty>
0

> <i_epik_Tot_Q>
0

> <i_epik_Tot_abs_Q>
0

> <r_epik_Metal_State_Penalty>
0.169791

> <b_epik_Metal_Only>
0

> <s_lp_Force_Field>
OPLS_2005

> <r_lp_Energy>
10.2552

> <b_lp_Chiralities_Consistent>
1

> <s_lp_Variant>
AV-unprocessed.smi:1749-1

> <Gold.Version>
5.8.1

> <Gold.Id.Protein>
6NUR|6NUR_protein|mol2

> <Gold.PLP.Fitness>
29.9754

> <Gold.PLP.PLP>
-20.5679

> <Gold.PLP.part.hbond>
-3.0000

> <Gold.PLP.part.metal>
0.0000

> <Gold.PLP.part.buried>
-2.0899

> <Gold.PLP.part.nonpolar>
-14.7898

> <Gold.PLP.part.repulsive>
0.1029

> <Gold.PLP.ligand.clash>
0.0000

> <Gold.PLP.ligand.torsion>
0.3501

> <Gold.PLP.Chemscore.Hbond>
2.7200

> <Gold.PLP.Chemscore.CHOScore>
0.6474

> <Gold.PLP.Chemscore.Metal>
0.0000

> <Gold.Chemscore.Hbonds>
donor molecule, donor type, donor heavy atom, donor atom, acceptor molecule, acceptor atom, score
      L1  H     7    28       P1 10175  0.85
      L1  H    10    29       P1 10175  0.99
      P1  H 11000 11005       L1    13  0.88
      L1  C    14    30       P1 10187  0.71

> <Gold.PLP.Chemscore.Internal.Correction>
0.0053

> <Gold.Rescore>
     Score         DG    S(hbond)    S(metal)    S(lipo)     H(rot)  DE(clash)    DE(int)     intcor
     15.43     -17.09       2.65        0.00      45.34       1.00       0.05       1.61       ----

> <Gold.Chemscore.Fitness>
15.4267

> <Gold.Chemscore.DG>
-17.0930

> <Gold.Chemscore.ZeroCoef>
-5.4800

> <Gold.Chemscore.Hbond>
2.6550

> <Gold.Chemscore.Metal>
0.0000

> <Gold.Chemscore.Lipo>
45.3449

> <Gold.Chemscore.Internal_Hbond>
0.0000

> <Gold.Chemscore.DEClash>
0.0544

> <Gold.Chemscore.DEInternal>
1.6118

> <Gold.Chemscore.Rot>
1.0000

> <Gold.Chemscore.Internal.Correction>
   9.000000E+99

> <Gold.Chemscore.Hbonds>
donor molecule, donor type, donor heavy atom, donor atom, acceptor molecule, acceptor atom, score
      L1  H     7    28       P1 10175  0.83
      L1  H    10    29       P1 10175  0.93
      P1  H 11000 11005       L1    13  0.83

> <Gold.Chemscore.Hbond.Weighted>
-8.8676

> <Gold.Chemscore.Metal.Weighted>
-0.0000

> <Gold.Chemscore.Lipo.Weighted>
-5.3054

> <Gold.Chemscore.Internal_Hbond.Weighted>
0.0000

> <Gold.Chemscore.DEClash.Weighted>
0.0544

> <Gold.Chemscore.DEInternal.Weighted>
1.6118

> <Gold.Chemscore.Rot.Weighted>
2.5600

> <Gold.Chemscore.Internal.Correction.Weighted>
   9.000000E+99

> <Gold.Protein.RotatedTorsions>
[ 6907 6896 6895 6894 ] final  -55.91 input  -60.11 | X-H torsion
[ 7974 7965 7964 7962 ] final -143.97 input  175.53 | X-H torsion
[ 8008 7997 7996 7995 ] final  -97.93 input   59.86 | X-H torsion
[ 10167 10162 10161 10158 ] final   34.89 input  -65.29 | X-H torsion
[ 10718 10713 10712 10709 ] final  134.38 input   66.30 | X-H torsion
[ 10763 10752 10751 10750 ] final -115.47 input  -60.55 | X-H torsion
[ 11005 11000 10999 10996 ] final   57.75 input  -57.11 | X-H torsion

> <Gold.Protein.ActiveResidues>
 VAL166  LYS551  ARG553  GLY616  TRP617  ASP618  TYR619  PRO620  LYS621  CYS622 
 ASP623  PHE694  ASN695  SER759  ASP760  ASP761  ALA762  ILE779  LEU786  VAL792 
 PHE793  MET794  SER795  GLU796  ALA797  LYS798  CYS799  TRP800  GLU811  SER814 

> <Gold.Protein.RotatedAtoms>
  150.8211  134.7419  159.6772 H   0  0  0  0  0  0  0  0  0  0  0  0  # atno 6907 bound_to 6896
  152.4327  134.5744  159.9940 H   0  0  0  0  0  0  0  0  0  0  0  0  # atno 6908 bound_to 6896
  151.5928  133.3327  159.3067 H   0  0  0  0  0  0  0  0  0  0  0  0  # atno 6909 bound_to 6896
  144.8331  140.5768  143.5502 H   0  0  0  0  0  0  0  0  0  0  0  0  # atno 7974 bound_to 7965
  154.7943  140.0459  157.1225 H   0  0  0  0  0  0  0  0  0  0  0  0  # atno 8008 bound_to 7997
  154.9553  140.3070  155.5036 H   0  0  0  0  0  0  0  0  0  0  0  0  # atno 8009 bound_to 7997
  156.2954  140.2280  156.4634 H   0  0  0  0  0  0  0  0  0  0  0  0  # atno 8010 bound_to 7997
  140.4273  144.1375  150.6155 H   0  0  0  0  0  0  0  0  0  0  0  0  # atno 10167 bound_to 10162
  157.4678  131.1078  150.9840 H   0  0  0  0  0  0  0  0  0  0  0  0  # atno 10718 bound_to 10713
  154.8482  135.4380  154.1668 H   0  0  0  0  0  0  0  0  0  0  0  0  # atno 10763 bound_to 10752
  153.2791  135.6952  153.7409 H   0  0  0  0  0  0  0  0  0  0  0  0  # atno 10764 bound_to 10752
  153.6620  135.3433  155.3105 H   0  0  0  0  0  0  0  0  0  0  0  0  # atno 10765 bound_to 10752
  140.0429  134.5847  155.9359 H   0  0  0  0  0  0  0  0  0  0  0  0  # atno 11005 bound_to 11000
  145.4853  139.1492  143.3739 LP  0  0  0  0  0  0  0  0  0  0  0  0  # atno 17320 bound_to 7965
  146.2632  140.4990  142.8845 LP  0  0  0  0  0  0  0  0  0  0  0  0  # atno 17321 bound_to 7965
  140.4467  143.2503  151.9402 LP  0  0  0  0  0  0  0  0  0  0  0  0  # atno 17342 bound_to 10162
  139.4784  144.5602  151.8251 LP  0  0  0  0  0  0  0  0  0  0  0  0  # atno 17343 bound_to 10162
  157.0616  130.5827  149.5387 LP  0  0  0  0  0  0  0  0  0  0  0  0  # atno 17370 bound_to 10713
  156.0059  130.5145  150.7826 LP  0  0  0  0  0  0  0  0  0  0  0  0  # atno 17371 bound_to 10713
  141.1892  133.6565  156.5358 LP  0  0  0  0  0  0  0  0  0  0  0  0  # atno 17394 bound_to 11000
  140.4040  134.7331  157.4796 LP  0  0  0  0  0  0  0  0  0  0  0  0  # atno 17395 bound_to 11000

$$$$
