AV-unprocessed.smi:2356|AV-procd|sdf|9393|dock7
  -GOLD-   2272013 23D 1   1.00000     0.00000
 Structure written by MMmdl.
 53 56  0  0  0  0  0  0  0  0  1 V2000
  149.7677  140.1974  154.2469 C   0  0  0  0  0  0  0  0  0  0  0  0
  150.2084  139.9545  155.6806 C   0  0  0  0  0  0  0  0  0  0  0  0
  150.6905  141.0372  156.3275 N   0  0  0  0  0  0  0  0  0  0  0  0
  151.1145  140.9096  157.6062 C   0  0  0  0  0  0  0  0  0  0  0  0
  151.6109  142.0672  158.2384 N   0  0  0  0  0  0  0  0  0  0  0  0
  152.5753  142.0016  159.3245 C   0  0  0  0  0  0  0  0  0  0  0  0
  152.9568  143.4566  159.5953 C   0  0  0  0  0  0  0  0  0  0  0  0
  152.8378  144.1091  158.2185 C   0  0  0  0  0  0  0  0  0  0  0  0
  151.6914  143.3469  157.5448 C   0  0  0  0  0  0  0  0  0  0  0  0
  151.0563  139.6705  158.2852 C   0  0  0  0  0  0  0  0  0  0  0  0
  150.5554  138.5405  157.6116 C   0  0  0  0  0  0  0  0  0  0  0  0
  150.1138  138.6735  156.2739 C   0  0  0  0  0  0  0  0  0  0  0  0
  149.6102  137.6010  155.4855 N   0  0  0  0  0  0  0  0  0  0  0  0
  149.1309  136.3977  155.8556 C   0  0  0  0  0  0  0  0  0  0  0  0
  148.9789  136.0242  157.0161 O   0  0  0  0  0  0  0  0  0  0  0  0
  148.7959  135.6046  154.8211 N   0  0  0  0  0  0  0  0  0  0  0  0
  148.2490  134.2455  154.8605 C   0  0  2  0  0  0  0  0  0  0  0  0
  149.0086  133.3811  155.8800 C   0  0  0  0  0  0  0  0  0  0  0  0
  148.5281  131.9236  155.8226 C   0  0  0  0  0  0  0  0  0  0  0  0
  148.6639  131.4064  154.5008 O   0  0  0  0  0  0  0  0  0  0  0  0
  147.9394  132.1142  153.4937 C   0  0  1  0  0  0  0  0  0  0  0  0
  146.4364  131.9065  153.6299 C   0  0  0  0  0  0  0  0  0  0  0  0
  145.7846  130.6544  153.0937 C   0  0  0  0  0  0  0  0  0  0  0  0
  145.5292  131.9841  152.4245 C   0  0  0  0  0  0  0  0  0  0  0  0
  148.3572  133.5985  153.4712 C   0  0  0  0  0  0  0  0  0  0  0  0
  148.7150  139.9410  154.1240 H   0  0  0  0  0  0  0  0  0  0  0  0
  150.3543  139.5856  153.5609 H   0  0  0  0  0  0  0  0  0  0  0  0
  149.8948  141.2420  153.9597 H   0  0  0  0  0  0  0  0  0  0  0  0
  152.1532  141.5274  160.2109 H   0  0  0  0  0  0  0  0  0  0  0  0
  153.4461  141.4287  159.0030 H   0  0  0  0  0  0  0  0  0  0  0  0
  152.2355  143.9072  160.2784 H   0  0  0  0  0  0  0  0  0  0  0  0
  153.9495  143.5615  160.0340 H   0  0  0  0  0  0  0  0  0  0  0  0
  152.6592  145.1834  158.2696 H   0  0  0  0  0  0  0  0  0  0  0  0
  153.7610  143.9487  157.6602 H   0  0  0  0  0  0  0  0  0  0  0  0
  151.8753  143.2327  156.4757 H   0  0  0  0  0  0  0  0  0  0  0  0
  150.7464  143.8752  157.6750 H   0  0  0  0  0  0  0  0  0  0  0  0
  151.3910  139.5661  159.3063 H   0  0  0  0  0  0  0  0  0  0  0  0
  150.5348  137.6004  158.1384 H   0  0  0  0  0  0  0  0  0  0  0  0
  149.6142  137.7717  154.4907 H   0  0  0  0  0  0  0  0  0  0  0  0
  148.9321  135.9932  153.8989 H   0  0  0  0  0  0  0  0  0  0  0  0
  147.1932  134.2809  155.1320 H   0  0  0  0  0  0  0  0  0  0  0  0
  150.0785  133.4139  155.6690 H   0  0  0  0  0  0  0  0  0  0  0  0
  148.8782  133.7731  156.8891 H   0  0  0  0  0  0  0  0  0  0  0  0
  149.1262  131.3098  156.4963 H   0  0  0  0  0  0  0  0  0  0  0  0
  147.4964  131.8412  156.1647 H   0  0  0  0  0  0  0  0  0  0  0  0
  148.2385  131.6728  152.5422 H   0  0  0  0  0  0  0  0  0  0  0  0
  146.0117  132.2871  154.5563 H   0  0  0  0  0  0  0  0  0  0  0  0
  146.4150  129.9402  152.5676 H   0  0  0  0  0  0  0  0  0  0  0  0
  144.9765  130.2205  153.6791 H   0  0  0  0  0  0  0  0  0  0  0  0
  144.5492  132.4363  152.5623 H   0  0  0  0  0  0  0  0  0  0  0  0
  145.9882  132.1531  151.4524 H   0  0  0  0  0  0  0  0  0  0  0  0
  147.7552  134.1481  152.7464 H   0  0  0  0  0  0  0  0  0  0  0  0
  149.3895  133.6638  153.1234 H   0  0  0  0  0  0  0  0  0  0  0  0
  1  2  1  0  0  0  0
  1 26  1  0  0  0  0
  1 27  1  0  0  0  0
  1 28  1  0  0  0  0
  2 12  1  0  0  0  0
  2  3  2  0  0  0  0
  3  4  1  0  0  0  0
  4  5  1  0  0  0  0
  4 10  2  0  0  0  0
  5  9  1  0  0  0  0
  5  6  1  0  0  0  0
  6  7  1  0  0  0  0
  6 29  1  0  0  0  0
  6 30  1  0  0  0  0
  7  8  1  0  0  0  0
  7 31  1  0  0  0  0
  7 32  1  0  0  0  0
  8  9  1  0  0  0  0
  8 33  1  0  0  0  0
  8 34  1  0  0  0  0
  9 35  1  0  0  0  0
  9 36  1  0  0  0  0
 10 11  1  0  0  0  0
 10 37  1  0  0  0  0
 11 12  2  0  0  0  0
 11 38  1  0  0  0  0
 12 13  1  0  0  0  0
 13 14  1  0  0  0  0
 13 39  1  0  0  0  0
 14 15  2  0  0  0  0
 14 16  1  0  0  0  0
 16 17  1  0  0  0  0
 16 40  1  0  0  0  0
 17 25  1  0  0  0  0
 17 18  1  0  0  0  0
 17 41  1  0  0  0  0
 18 19  1  0  0  0  0
 18 42  1  0  0  0  0
 18 43  1  0  0  0  0
 19 20  1  0  0  0  0
 19 44  1  0  0  0  0
 19 45  1  0  0  0  0
 20 21  1  0  0  0  0
 21 22  1  0  0  0  0
 21 25  1  0  0  0  0
 21 46  1  0  0  0  0
 22 24  1  0  0  0  0
 22 23  1  0  0  0  0
 22 47  1  0  0  0  0
 23 24  1  0  0  0  0
 23 48  1  0  0  0  0
 23 49  1  0  0  0  0
 24 50  1  0  0  0  0
 24 51  1  0  0  0  0
 25 52  1  0  0  0  0
 25 53  1  0  0  0  0
M  END
> <s_m_source_file>
AV-unprocessed.smi

> <i_m_source_file_index>
2356

> <i_lp_mmshare_version>
43012

> <i_f3d_flags>
0

> <s_epik_input>
W0NIMl0xW0NIMl1bQ0gyXVtDSDJdTjFjKG5jMltDSDNdKVtjSF1bY0hdYzJbTkhdQyg9TylbTkhdW0NAQEhdM1tDSDJdW0NIMl1PW0NASF0oW0NIMl0zKVtDSF00W0NIMl1bQ0gyXTQ=

> <s_epik_cmdline>
J2VwaWtfcHl0aG9uJywgJy1waCcsICc3LjAnLCAnLXRuJywgJzgnLCAnLW1hJywgJzIwMCcsICctbWV0YWxfYmluZGluZycsICctaW1hZScsICc8aW5maWxlLm1hZT4nLCAnLW9tYWUnLCAnPG91dGZpbGUubWFlPic=

> <r_lp_tautomer_probability>
1

> <r_epik_Ionization_Penalty>
0.308781

> <r_epik_Ionization_Penalty_Charging>
0

> <r_epik_Ionization_Penalty_Neutral>
0.308781

> <r_epik_State_Penalty>
0.302092

> <r_epik_Charging_Adjusted_Penalty>
0.302092

> <i_epik_Tot_Q>
0

> <i_epik_Tot_abs_Q>
0

> <r_epik_Metal_State_Penalty>
0.197467

> <b_epik_Metal_Only>
0

> <s_lp_Force_Field>
OPLS_2005

> <r_lp_Energy>
55.4092

> <b_lp_Chiralities_Consistent>
1

> <s_lp_Variant>
AV-unprocessed.smi:2356-1

> <Gold.Version>
5.8.1

> <Gold.Id.Protein>
6NUR|6NUR_protein|mol2

> <Gold.PLP.Fitness>
44.3427

> <Gold.PLP.PLP>
-41.9791

> <Gold.PLP.part.hbond>
-1.0000

> <Gold.PLP.part.metal>
0.0000

> <Gold.PLP.part.buried>
-2.5009

> <Gold.PLP.part.nonpolar>
-37.9947

> <Gold.PLP.part.repulsive>
0.1441

> <Gold.PLP.ligand.clash>
0.0000

> <Gold.PLP.ligand.torsion>
0.9417

> <Gold.PLP.Chemscore.Hbond>
1.0000

> <Gold.PLP.Chemscore.CHOScore>
0.0000

> <Gold.PLP.Chemscore.Metal>
0.0000

> <Gold.Chemscore.Hbonds>
donor molecule, donor type, donor heavy atom, donor atom, acceptor molecule, acceptor atom, score
      L1  H    16    40       P1  7948  0.99

> <Gold.PLP.Chemscore.Internal.Correction>
1.2471

> <Gold.Rescore>
     Score         DG    S(hbond)    S(metal)    S(lipo)     H(rot)  DE(clash)    DE(int)     intcor
     15.90     -18.94       0.93        0.00     113.40       1.14       0.11       2.93       ----

> <Gold.Chemscore.Fitness>
15.9012

> <Gold.Chemscore.DG>
-18.9397

> <Gold.Chemscore.ZeroCoef>
-5.4800

> <Gold.Chemscore.Hbond>
0.9307

> <Gold.Chemscore.Metal>
0.0000

> <Gold.Chemscore.Lipo>
113.4042

> <Gold.Chemscore.Internal_Hbond>
0.0000

> <Gold.Chemscore.DEClash>
0.1074

> <Gold.Chemscore.DEInternal>
2.9310

> <Gold.Chemscore.Rot>
1.1395

> <Gold.Chemscore.Internal.Correction>
   9.000000E+99

> <Gold.Chemscore.Hbonds>
donor molecule, donor type, donor heavy atom, donor atom, acceptor molecule, acceptor atom, score
      L1  H    16    40       P1  7948  0.90

> <Gold.Chemscore.Hbond.Weighted>
-3.1085

> <Gold.Chemscore.Metal.Weighted>
-0.0000

> <Gold.Chemscore.Lipo.Weighted>
-13.2683

> <Gold.Chemscore.Internal_Hbond.Weighted>
0.0000

> <Gold.Chemscore.DEClash.Weighted>
0.1074

> <Gold.Chemscore.DEInternal.Weighted>
2.9310

> <Gold.Chemscore.Rot.Weighted>
2.9171

> <Gold.Chemscore.Internal.Correction.Weighted>
   9.000000E+99

> <Gold.Protein.RotatedTorsions>
[ 6907 6896 6895 6894 ] final  -48.31 input  -60.11 | X-H torsion
[ 7974 7965 7964 7962 ] final  126.17 input  175.53 | X-H torsion
[ 8008 7997 7996 7995 ] final  -99.37 input   59.86 | X-H torsion
[ 10167 10162 10161 10158 ] final -110.84 input  -65.29 | X-H torsion
[ 10718 10713 10712 10709 ] final -158.69 input   66.30 | X-H torsion
[ 10763 10752 10751 10750 ] final  132.98 input  -60.55 | X-H torsion
[ 11005 11000 10999 10996 ] final   -5.15 input  -57.11 | X-H torsion

> <Gold.Protein.ActiveResidues>
 VAL166  LYS551  ARG553  GLY616  TRP617  ASP618  TYR619  PRO620  LYS621  CYS622 
 ASP623  PHE694  ASN695  SER759  ASP760  ASP761  ALA762  ILE779  LEU786  VAL792 
 PHE793  MET794  SER795  GLU796  ALA797  LYS798  CYS799  TRP800  GLU811  SER814 

> <Gold.Protein.RotatedAtoms>
  150.8918  134.8322  159.7298 H   0  0  0  0  0  0  0  0  0  0  0  0  # atno 6907 bound_to 6896
  152.4841  134.4636  159.9623 H   0  0  0  0  0  0  0  0  0  0  0  0  # atno 6908 bound_to 6896
  151.4698  133.3533  159.2857 H   0  0  0  0  0  0  0  0  0  0  0  0  # atno 6909 bound_to 6896
  145.0648  139.3777  143.4988 H   0  0  0  0  0  0  0  0  0  0  0  0  # atno 7974 bound_to 7965
  154.8139  140.0448  157.1362 H   0  0  0  0  0  0  0  0  0  0  0  0  # atno 8008 bound_to 7997
  154.9337  140.3043  155.5135 H   0  0  0  0  0  0  0  0  0  0  0  0  # atno 8009 bound_to 7997
  156.2974  140.2318  156.4400 H   0  0  0  0  0  0  0  0  0  0  0  0  # atno 8010 bound_to 7997
  140.1401  143.4286  152.1568 H   0  0  0  0  0  0  0  0  0  0  0  0  # atno 10167 bound_to 10162
  156.5577  130.8633  151.2800 H   0  0  0  0  0  0  0  0  0  0  0  0  # atno 10718 bound_to 10713
  153.7996  135.3143  155.3388 H   0  0  0  0  0  0  0  0  0  0  0  0  # atno 10763 bound_to 10752
  154.8094  135.4677  154.0479 H   0  0  0  0  0  0  0  0  0  0  0  0  # atno 10764 bound_to 10752
  153.1823  135.6895  153.8549 H   0  0  0  0  0  0  0  0  0  0  0  0  # atno 10765 bound_to 10752
  140.6880  133.9096  155.8599 H   0  0  0  0  0  0  0  0  0  0  0  0  # atno 11005 bound_to 11000
  146.3526  140.0363  142.8646 LP  0  0  0  0  0  0  0  0  0  0  0  0  # atno 17320 bound_to 7965
  145.1365  140.9547  143.4514 LP  0  0  0  0  0  0  0  0  0  0  0  0  # atno 17321 bound_to 7965
  139.5476  144.7311  151.4534 LP  0  0  0  0  0  0  0  0  0  0  0  0  # atno 17342 bound_to 10162
  140.6766  143.8177  150.7066 LP  0  0  0  0  0  0  0  0  0  0  0  0  # atno 17343 bound_to 10162
  157.7375  130.9797  150.2196 LP  0  0  0  0  0  0  0  0  0  0  0  0  # atno 17370 bound_to 10713
  156.2827  130.3735  149.7919 LP  0  0  0  0  0  0  0  0  0  0  0  0  # atno 17371 bound_to 10713
  141.0264  134.0817  157.4063 LP  0  0  0  0  0  0  0  0  0  0  0  0  # atno 17394 bound_to 11000
  139.8932  135.0129  156.6885 LP  0  0  0  0  0  0  0  0  0  0  0  0  # atno 17395 bound_to 11000

$$$$
