AV-unprocessed.smi:1606|AV-procd|sdf|6461|dock5
  -GOLD-   22720 7113D 1   1.00000     0.00000
 Structure written by MMmdl.
 35 36  0  0  0  0  0  0  0  0  1 V2000
  151.2507  140.0115  154.7344 O   0  0  0  0  0  0  0  0  0  0  0  0
  150.2959  140.0384  155.5115 C   0  0  0  0  0  0  0  0  0  0  0  0
  150.4343  140.0235  156.8459 N   0  0  0  0  0  0  0  0  0  0  0  0
  151.7090  140.0336  157.5568 C   0  0  0  0  0  0  0  0  0  0  0  0
  151.6109  140.6556  158.9652 C   0  0  0  0  0  0  0  0  0  0  0  0
  151.7620  142.1685  158.9808 C   0  0  0  0  0  0  0  0  0  0  0  0
  152.2903  142.8233  160.1136 C   0  0  0  0  0  0  0  0  0  0  0  0
  152.3982  144.2274  160.0882 C   0  0  0  0  0  0  0  0  0  0  0  0
  151.9736  144.9198  158.9380 C   0  0  0  0  0  0  0  0  0  0  0  0
  151.4589  144.1743  157.8589 C   0  0  0  0  0  0  0  0  0  0  0  0
  151.3526  142.8284  157.8729 N   0  0  0  0  0  0  0  0  0  0  0  0
  148.8601  140.1086  154.9763 C   0  0  0  0  0  0  0  0  0  0  0  0
  148.5498  138.9368  154.0276 C   0  0  0  0  0  0  0  0  0  0  0  0
  147.1408  139.0866  153.4313 C   0  0  0  0  0  0  0  0  0  0  0  0
  147.0270  140.3359  152.7576 O   0  0  0  0  0  0  0  0  0  0  0  0
  147.2010  141.4530  153.6230 C   0  0  0  0  0  0  0  0  0  0  0  0
  148.6126  141.4322  154.2314 C   0  0  0  0  0  0  0  0  0  0  0  0
  149.5971  140.0482  157.4098 H   0  0  0  0  0  0  0  0  0  0  0  0
  152.0453  139.0000  157.6409 H   0  0  0  0  0  0  0  0  0  0  0  0
  152.4633  140.5541  156.9650 H   0  0  0  0  0  0  0  0  0  0  0  0
  150.6523  140.3914  159.4130 H   0  0  0  0  0  0  0  0  0  0  0  0
  152.3713  140.2194  159.6150 H   0  0  0  0  0  0  0  0  0  0  0  0
  152.6030  142.2645  160.9833 H   0  0  0  0  0  0  0  0  0  0  0  0
  152.7974  144.7635  160.9365 H   0  0  0  0  0  0  0  0  0  0  0  0
  152.0405  145.9964  158.8839 H   0  0  0  0  0  0  0  0  0  0  0  0
  151.1227  144.6713  156.9609 H   0  0  0  0  0  0  0  0  0  0  0  0
  148.1702  140.0558  155.8206 H   0  0  0  0  0  0  0  0  0  0  0  0
  149.2772  138.9005  153.2149 H   0  0  0  0  0  0  0  0  0  0  0  0
  148.6277  137.9876  154.5590 H   0  0  0  0  0  0  0  0  0  0  0  0
  146.9494  138.2846  152.7184 H   0  0  0  0  0  0  0  0  0  0  0  0
  146.3788  139.0103  154.2086 H   0  0  0  0  0  0  0  0  0  0  0  0
  147.0545  142.3684  153.0498 H   0  0  0  0  0  0  0  0  0  0  0  0
  146.4398  141.4424  154.4046 H   0  0  0  0  0  0  0  0  0  0  0  0
  148.7343  142.2776  154.9102 H   0  0  0  0  0  0  0  0  0  0  0  0
  149.3469  141.5634  153.4354 H   0  0  0  0  0  0  0  0  0  0  0  0
  1  2  2  0  0  0  0
  2  3  1  0  0  0  0
  2 12  1  0  0  0  0
  3  4  1  0  0  0  0
  3 18  1  0  0  0  0
  4  5  1  0  0  0  0
  4 19  1  0  0  0  0
  4 20  1  0  0  0  0
  5  6  1  0  0  0  0
  5 21  1  0  0  0  0
  5 22  1  0  0  0  0
  6 11  1  0  0  0  0
  6  7  2  0  0  0  0
  7  8  1  0  0  0  0
  7 23  1  0  0  0  0
  8  9  2  0  0  0  0
  8 24  1  0  0  0  0
  9 10  1  0  0  0  0
  9 25  1  0  0  0  0
 10 11  2  0  0  0  0
 10 26  1  0  0  0  0
 12 17  1  0  0  0  0
 12 13  1  0  0  0  0
 12 27  1  0  0  0  0
 13 14  1  0  0  0  0
 13 28  1  0  0  0  0
 13 29  1  0  0  0  0
 14 15  1  0  0  0  0
 14 30  1  0  0  0  0
 14 31  1  0  0  0  0
 15 16  1  0  0  0  0
 16 17  1  0  0  0  0
 16 32  1  0  0  0  0
 16 33  1  0  0  0  0
 17 34  1  0  0  0  0
 17 35  1  0  0  0  0
M  END
> <s_m_source_file>
AV-unprocessed.smi

> <i_m_source_file_index>
1606

> <i_lp_mmshare_version>
43012

> <i_f3d_flags>
0

> <s_epik_input>
W0NIMl0xW0NIMl1PW0NIMl1bQ0gyXVtDSF0xQyg9TylbTkhdW0NIMl1bQ0gyXWMyW2NIXVtjSF1bY0hdW2NIXW4y

> <s_epik_cmdline>
J2VwaWtfcHl0aG9uJywgJy1waCcsICc3LjAnLCAnLXRuJywgJzgnLCAnLW1hJywgJzIwMCcsICctbWV0YWxfYmluZGluZycsICctaW1hZScsICc8aW5maWxlLm1hZT4nLCAnLW9tYWUnLCAnPG91dGZpbGUubWFlPic=

> <r_epik_Ionization_Penalty>
0.0277532

> <r_epik_Ionization_Penalty_Charging>
0

> <r_epik_Ionization_Penalty_Neutral>
0.0277532

> <r_epik_State_Penalty>
0.022734

> <r_epik_Charging_Adjusted_Penalty>
0.022734

> <i_epik_Tot_Q>
0

> <i_epik_Tot_abs_Q>
0

> <r_epik_Metal_State_Penalty>
0.0217131

> <b_epik_Metal_Only>
0

> <s_lp_Force_Field>
OPLS_2005

> <r_lp_Energy>
8.37046

> <b_lp_Chiralities_Consistent>
1

> <s_lp_Variant>
AV-unprocessed.smi:1606-1

> <Gold.Version>
5.8.1

> <Gold.Id.Protein>
6NUR|6NUR_protein|mol2

> <Gold.PLP.Fitness>
41.5742

> <Gold.PLP.PLP>
-37.0623

> <Gold.PLP.part.hbond>
-1.0000

> <Gold.PLP.part.metal>
0.0000

> <Gold.PLP.part.buried>
-6.0585

> <Gold.PLP.part.nonpolar>
-31.4793

> <Gold.PLP.part.repulsive>
0.9868

> <Gold.PLP.ligand.clash>
0.0000

> <Gold.PLP.ligand.torsion>
0.7421

> <Gold.PLP.Chemscore.Hbond>
1.0000

> <Gold.PLP.Chemscore.CHOScore>
0.9944

> <Gold.PLP.Chemscore.Metal>
0.0000

> <Gold.Chemscore.Hbonds>
donor molecule, donor type, donor heavy atom, donor atom, acceptor molecule, acceptor atom, score
      P1  H  7989  7998       L1     1  1.00
      L1  C    10    26       P1  8028  0.95

> <Gold.PLP.Chemscore.Internal.Correction>
0.0128

> <Gold.Rescore>
     Score         DG    S(hbond)    S(metal)    S(lipo)     H(rot)  DE(clash)    DE(int)     intcor
     16.37     -17.24       0.98        0.00     104.53       1.47       0.08       0.78       ----

> <Gold.Chemscore.Fitness>
16.3673

> <Gold.Chemscore.DG>
-17.2354

> <Gold.Chemscore.ZeroCoef>
-5.4800

> <Gold.Chemscore.Hbond>
0.9827

> <Gold.Chemscore.Metal>
0.0000

> <Gold.Chemscore.Lipo>
104.5281

> <Gold.Chemscore.Internal_Hbond>
0.0000

> <Gold.Chemscore.DEClash>
0.0840

> <Gold.Chemscore.DEInternal>
0.7842

> <Gold.Chemscore.Rot>
1.4674

> <Gold.Chemscore.Internal.Correction>
   9.000000E+99

> <Gold.Chemscore.Hbonds>
donor molecule, donor type, donor heavy atom, donor atom, acceptor molecule, acceptor atom, score
      P1  H  7989  7998       L1     1  0.95

> <Gold.Chemscore.Hbond.Weighted>
-3.2823

> <Gold.Chemscore.Metal.Weighted>
-0.0000

> <Gold.Chemscore.Lipo.Weighted>
-12.2298

> <Gold.Chemscore.Internal_Hbond.Weighted>
0.0000

> <Gold.Chemscore.DEClash.Weighted>
0.0840

> <Gold.Chemscore.DEInternal.Weighted>
0.7842

> <Gold.Chemscore.Rot.Weighted>
3.7567

> <Gold.Chemscore.Internal.Correction.Weighted>
   9.000000E+99

> <Gold.Protein.RotatedTorsions>
[ 6907 6896 6895 6894 ] final   77.88 input  -60.11 | X-H torsion
[ 7974 7965 7964 7962 ] final   -9.21 input  175.53 | X-H torsion
[ 8008 7997 7996 7995 ] final  -44.37 input   59.86 | X-H torsion
[ 10167 10162 10161 10158 ] final   -6.83 input  -65.29 | X-H torsion
[ 10718 10713 10712 10709 ] final -116.14 input   66.30 | X-H torsion
[ 10763 10752 10751 10750 ] final  -65.19 input  -60.55 | X-H torsion
[ 11005 11000 10999 10996 ] final  124.75 input  -57.11 | X-H torsion

> <Gold.Protein.ActiveResidues>
 VAL166  LYS551  ARG553  GLY616  TRP617  ASP618  TYR619  PRO620  LYS621  CYS622 
 ASP623  PHE694  ASN695  SER759  ASP760  ASP761  ALA762  ILE779  LEU786  VAL792 
 PHE793  MET794  SER795  GLU796  ALA797  LYS798  CYS799  TRP800  GLU811  SER814 

> <Gold.Protein.RotatedAtoms>
  152.5136  134.3750  159.9330 H   0  0  0  0  0  0  0  0  0  0  0  0  # atno 6907 bound_to 6896
  151.3705  133.3850  159.2707 H   0  0  0  0  0  0  0  0  0  0  0  0  # atno 6908 bound_to 6896
  150.9581  134.8992  159.7772 H   0  0  0  0  0  0  0  0  0  0  0  0  # atno 6909 bound_to 6896
  146.2258  140.2582  142.8350 H   0  0  0  0  0  0  0  0  0  0  0  0  # atno 7974 bound_to 7965
  154.3997  140.1424  156.3673 H   0  0  0  0  0  0  0  0  0  0  0  0  # atno 8008 bound_to 7997
  155.8126  140.3472  155.5446 H   0  0  0  0  0  0  0  0  0  0  0  0  # atno 8009 bound_to 7997
  155.8371  140.0921  157.1748 H   0  0  0  0  0  0  0  0  0  0  0  0  # atno 8010 bound_to 7997
  140.7010  143.6149  150.8668 H   0  0  0  0  0  0  0  0  0  0  0  0  # atno 10167 bound_to 10162
  156.0943  130.6119  150.8997 H   0  0  0  0  0  0  0  0  0  0  0  0  # atno 10718 bound_to 10713
  154.3414  135.6156  153.5598 H   0  0  0  0  0  0  0  0  0  0  0  0  # atno 10763 bound_to 10752
  152.9804  135.5770  154.4848 H   0  0  0  0  0  0  0  0  0  0  0  0  # atno 10764 bound_to 10752
  154.4553  135.2854  155.1729 H   0  0  0  0  0  0  0  0  0  0  0  0  # atno 10765 bound_to 10752
  139.9373  134.9638  156.8456 H   0  0  0  0  0  0  0  0  0  0  0  0  # atno 11005 bound_to 11000
  144.9360  140.8026  143.5660 LP  0  0  0  0  0  0  0  0  0  0  0  0  # atno 17320 bound_to 7965
  145.2529  139.2024  143.4932 LP  0  0  0  0  0  0  0  0  0  0  0  0  # atno 17321 bound_to 7965
  139.9871  143.5887  152.2923 LP  0  0  0  0  0  0  0  0  0  0  0  0  # atno 17342 bound_to 10162
  139.6529  144.7661  151.2112 LP  0  0  0  0  0  0  0  0  0  0  0  0  # atno 17343 bound_to 10162
  157.6100  131.0937  150.8811 LP  0  0  0  0  0  0  0  0  0  0  0  0  # atno 17370 bound_to 10713
  156.8952  130.5227  149.5284 LP  0  0  0  0  0  0  0  0  0  0  0  0  # atno 17371 bound_to 10713
  140.6042  134.0143  155.7549 LP  0  0  0  0  0  0  0  0  0  0  0  0  # atno 17394 bound_to 11000
  141.0993  133.9794  157.3107 LP  0  0  0  0  0  0  0  0  0  0  0  0  # atno 17395 bound_to 11000

$$$$
