AV-unprocessed.smi:2570|AV-procd|sdf|10107|dock10
  -GOLD-   2272014123D 1   1.00000     0.00000
 Structure written by MMmdl.
 32 33  0  0  0  0  0  0  0  0  1 V2000
  147.5305  139.2220  153.2674 C   0  0  0  0  0  0  0  0  0  0  0  0
  148.1470  140.4545  153.6353 O   0  0  0  0  0  0  0  0  0  0  0  0
  149.2274  140.3789  154.4969 C   0  0  0  0  0  0  0  0  0  0  0  0
  150.2814  139.4311  154.2023 C   0  0  0  0  0  0  0  0  0  0  0  0
  151.3339  139.3391  155.0439 C   0  0  0  0  0  0  0  0  0  0  0  0
  151.4351  140.1684  156.2444 C   0  0  0  0  0  0  0  0  0  0  0  0
  152.3714  140.0935  157.0396 O   0  0  0  0  0  0  0  0  0  0  0  0
  150.3867  141.0277  156.4103 N   0  0  0  0  0  0  0  0  0  0  0  0
  150.3073  141.9077  157.5843 C   0  0  0  0  0  0  0  0  0  0  0  0
  151.5601  142.8005  157.7464 C   0  0  1  0  0  0  0  0  0  0  0  0
  151.3325  144.0282  157.0852 O   0  0  0  0  0  0  0  0  0  0  0  0
  151.9761  142.9919  159.2018 C   0  0  0  0  0  0  0  0  0  0  0  0
  152.6353  141.9441  159.8810 C   0  0  0  0  0  0  0  0  0  0  0  0
  152.9967  142.0879  161.2342 C   0  0  0  0  0  0  0  0  0  0  0  0
  152.7014  143.2818  161.9186 C   0  0  0  0  0  0  0  0  0  0  0  0
  153.0461  143.4194  163.2208 F   0  0  0  0  0  0  0  0  0  0  0  0
  152.0450  144.3313  161.2489 C   0  0  0  0  0  0  0  0  0  0  0  0
  151.6814  144.1894  159.8955 C   0  0  0  0  0  0  0  0  0  0  0  0
  151.0365  145.2053  159.2734 F   0  0  0  0  0  0  0  0  0  0  0  0
  149.3094  141.1333  155.5466 N   0  0  0  0  0  0  0  0  0  0  0  0
  146.7104  139.4251  152.5790 H   0  0  0  0  0  0  0  0  0  0  0  0
  147.1098  138.7039  154.1310 H   0  0  0  0  0  0  0  0  0  0  0  0
  148.2281  138.5564  152.7553 H   0  0  0  0  0  0  0  0  0  0  0  0
  150.2159  138.8112  153.3204 H   0  0  0  0  0  0  0  0  0  0  0  0
  152.1218  138.6327  154.8278 H   0  0  0  0  0  0  0  0  0  0  0  0
  149.4093  142.5260  157.5316 H   0  0  0  0  0  0  0  0  0  0  0  0
  150.1783  141.2960  158.4795 H   0  0  0  0  0  0  0  0  0  0  0  0
  152.3880  142.3254  157.2189 H   0  0  0  0  0  0  0  0  0  0  0  0
  150.4581  144.0184  156.7269 H   0  0  0  0  0  0  0  0  0  0  0  0
  152.8584  141.0195  159.3688 H   0  0  0  0  0  0  0  0  0  0  0  0
  153.4976  141.2806  161.7476 H   0  0  0  0  0  0  0  0  0  0  0  0
  151.8152  145.2459  161.7752 H   0  0  0  0  0  0  0  0  0  0  0  0
  1  2  1  0  0  0  0
  1 21  1  0  0  0  0
  1 22  1  0  0  0  0
  1 23  1  0  0  0  0
  2  3  1  0  0  0  0
  3 20  2  0  0  0  0
  3  4  1  0  0  0  0
  4  5  2  0  0  0  0
  4 24  1  0  0  0  0
  5  6  1  0  0  0  0
  5 25  1  0  0  0  0
  6  7  2  0  0  0  0
  6  8  1  0  0  0  0
  8  9  1  0  0  0  0
  8 20  1  0  0  0  0
  9 10  1  0  0  0  0
  9 26  1  0  0  0  0
  9 27  1  0  0  0  0
 10 11  1  0  0  0  0
 10 12  1  0  0  0  0
 10 28  1  0  0  0  0
 11 29  1  0  0  0  0
 12 18  1  0  0  0  0
 12 13  2  0  0  0  0
 13 14  1  0  0  0  0
 13 30  1  0  0  0  0
 14 15  2  0  0  0  0
 14 31  1  0  0  0  0
 15 16  1  0  0  0  0
 15 17  1  0  0  0  0
 17 18  2  0  0  0  0
 17 32  1  0  0  0  0
 18 19  1  0  0  0  0
M  END
> <s_m_source_file>
AV-unprocessed.smi

> <i_m_source_file_index>
2570

> <i_lp_mmshare_version>
43012

> <i_f3d_flags>
0

> <s_epik_input>
W0NIM11PYzFbY0hdW2NIXWMoPU8pbihuMSlbQ0gyXVtDQEhdKFtPSF0pYzJbY0hdW2NIXWMoRilbY0hdYzJG

> <s_epik_cmdline>
J2VwaWtfcHl0aG9uJywgJy1waCcsICc3LjAnLCAnLXRuJywgJzgnLCAnLW1hJywgJzIwMCcsICctbWV0YWxfYmluZGluZycsICctaW1hZScsICc8aW5maWxlLm1hZT4nLCAnLW9tYWUnLCAnPG91dGZpbGUubWFlPic=

> <r_lp_tautomer_probability>
1

> <r_epik_Ionization_Penalty>
6.40224e-06

> <r_epik_Ionization_Penalty_Charging>
4.38647e-06

> <r_epik_Ionization_Penalty_Neutral>
2.01577e-06

> <r_epik_State_Penalty>
-0

> <r_epik_Charging_Adjusted_Penalty>
4.38647e-06

> <i_epik_Tot_Q>
0

> <i_epik_Tot_abs_Q>
0

> <r_epik_Metal_State_Penalty>
-0

> <b_epik_Metal_Only>
0

> <s_lp_Force_Field>
OPLS_2005

> <r_lp_Energy>
26.7666

> <b_lp_Chiralities_Consistent>
1

> <s_lp_Variant>
AV-unprocessed.smi:2570-2

> <Gold.Version>
5.8.1

> <Gold.Id.Protein>
6NUR|6NUR_protein|mol2

> <Gold.PLP.Fitness>
54.0129

> <Gold.PLP.PLP>
-50.4246

> <Gold.PLP.part.hbond>
-2.0000

> <Gold.PLP.part.metal>
0.0000

> <Gold.PLP.part.buried>
-4.0702

> <Gold.PLP.part.nonpolar>
-43.1548

> <Gold.PLP.part.repulsive>
0.5517

> <Gold.PLP.ligand.clash>
0.0000

> <Gold.PLP.ligand.torsion>
1.1233

> <Gold.PLP.Chemscore.Hbond>
1.9357

> <Gold.PLP.Chemscore.CHOScore>
0.0000

> <Gold.PLP.Chemscore.Metal>
0.0000

> <Gold.Chemscore.Hbonds>
donor molecule, donor type, donor heavy atom, donor atom, acceptor molecule, acceptor atom, score
      L1  H    11    29       P1  8028  1.00
      P1  H  7997  8010       L1     7  0.94

> <Gold.PLP.Chemscore.Internal.Correction>
0.0278

> <Gold.Rescore>
     Score         DG    S(hbond)    S(metal)    S(lipo)     H(rot)  DE(clash)    DE(int)     intcor
     13.13     -17.58       1.80        0.00     105.61       2.45       0.55       3.89       ----

> <Gold.Chemscore.Fitness>
13.1337

> <Gold.Chemscore.DG>
-17.5774

> <Gold.Chemscore.ZeroCoef>
-5.4800

> <Gold.Chemscore.Hbond>
1.8029

> <Gold.Chemscore.Metal>
0.0000

> <Gold.Chemscore.Lipo>
105.6070

> <Gold.Chemscore.Internal_Hbond>
0.0000

> <Gold.Chemscore.DEClash>
0.5518

> <Gold.Chemscore.DEInternal>
3.8919

> <Gold.Chemscore.Rot>
2.4533

> <Gold.Chemscore.Internal.Correction>
   9.000000E+99

> <Gold.Chemscore.Hbonds>
donor molecule, donor type, donor heavy atom, donor atom, acceptor molecule, acceptor atom, score
      L1  H    11    29       P1  8028  0.94
      P1  H  7997  8010       L1     7  0.87

> <Gold.Chemscore.Hbond.Weighted>
-6.0217

> <Gold.Chemscore.Metal.Weighted>
-0.0000

> <Gold.Chemscore.Lipo.Weighted>
-12.3560

> <Gold.Chemscore.Internal_Hbond.Weighted>
0.0000

> <Gold.Chemscore.DEClash.Weighted>
0.5518

> <Gold.Chemscore.DEInternal.Weighted>
3.8919

> <Gold.Chemscore.Rot.Weighted>
6.2804

> <Gold.Chemscore.Internal.Correction.Weighted>
   9.000000E+99

> <Gold.Protein.RotatedTorsions>
[ 6907 6896 6895 6894 ] final   99.28 input  -60.11 | X-H torsion
[ 7974 7965 7964 7962 ] final  118.10 input  175.53 | X-H torsion
[ 8008 7997 7996 7995 ] final   54.16 input   59.86 | X-H torsion
[ 10167 10162 10161 10158 ] final  -25.02 input  -65.29 | X-H torsion
[ 10718 10713 10712 10709 ] final   95.11 input   66.30 | X-H torsion
[ 10763 10752 10751 10750 ] final   55.52 input  -60.55 | X-H torsion
[ 11005 11000 10999 10996 ] final  -72.46 input  -57.11 | X-H torsion

> <Gold.Protein.ActiveResidues>
 VAL166  LYS551  ARG553  GLY616  TRP617  ASP618  TYR619  PRO620  LYS621  CYS622 
 ASP623  PHE694  ASN695  SER759  ASP760  ASP761  ALA762  ILE779  LEU786  VAL792 
 PHE793  MET794  SER795  GLU796  ALA797  LYS798  CYS799  TRP800  GLU811  SER814 

> <Gold.Protein.RotatedAtoms>
  152.5395  134.0452  159.8085 H   0  0  0  0  0  0  0  0  0  0  0  0  # atno 6907 bound_to 6896
  151.0602  133.5543  159.2642 H   0  0  0  0  0  0  0  0  0  0  0  0  # atno 6908 bound_to 6896
  151.2444  135.0608  159.9091 H   0  0  0  0  0  0  0  0  0  0  0  0  # atno 6909 bound_to 6896
  145.1593  139.3164  143.4525 H   0  0  0  0  0  0  0  0  0  0  0  0  # atno 7974 bound_to 7965
  155.4802  140.3468  155.4338 H   0  0  0  0  0  0  0  0  0  0  0  0  # atno 8008 bound_to 7997
  156.1044  140.1444  156.9453 H   0  0  0  0  0  0  0  0  0  0  0  0  # atno 8009 bound_to 7997
  154.4714  140.0899  156.7133 H   0  0  0  0  0  0  0  0  0  0  0  0  # atno 8010 bound_to 7997
  140.7287  143.4301  151.0815 H   0  0  0  0  0  0  0  0  0  0  0  0  # atno 10167 bound_to 10162
  157.6942  131.0535  150.4289 H   0  0  0  0  0  0  0  0  0  0  0  0  # atno 10718 bound_to 10713
  152.9818  135.5708  154.5080 H   0  0  0  0  0  0  0  0  0  0  0  0  # atno 10763 bound_to 10752
  154.4589  135.2781  155.1729 H   0  0  0  0  0  0  0  0  0  0  0  0  # atno 10764 bound_to 10752
  154.3325  135.6246  153.5611 H   0  0  0  0  0  0  0  0  0  0  0  0  # atno 10765 bound_to 10752
  141.1609  133.6848  156.7063 H   0  0  0  0  0  0  0  0  0  0  0  0  # atno 11005 bound_to 11000
  146.3484  140.1697  142.8590 LP  0  0  0  0  0  0  0  0  0  0  0  0  # atno 17320 bound_to 7965
  145.0348  140.8899  143.5088 LP  0  0  0  0  0  0  0  0  0  0  0  0  # atno 17321 bound_to 7965
  139.7957  143.8155  152.3157 LP  0  0  0  0  0  0  0  0  0  0  0  0  # atno 17342 bound_to 10162
  139.8154  144.7318  150.9642 LP  0  0  0  0  0  0  0  0  0  0  0  0  # atno 17343 bound_to 10162
  156.4658  130.4042  149.6548 LP  0  0  0  0  0  0  0  0  0  0  0  0  # atno 17370 bound_to 10713
  156.3647  130.7499  151.2476 LP  0  0  0  0  0  0  0  0  0  0  0  0  # atno 17371 bound_to 10713
  140.2921  134.8232  157.4025 LP  0  0  0  0  0  0  0  0  0  0  0  0  # atno 17394 bound_to 11000
  140.1337  134.5061  155.8085 LP  0  0  0  0  0  0  0  0  0  0  0  0  # atno 17395 bound_to 11000

$$$$
