AV-unprocessed.smi:3136|AV-procd|sdf|11949|dock1
  -GOLD-   2272017343D 1   1.00000     0.00000
 Structure written by MMmdl.
 40 40  0  0  0  0  0  0  0  0  2 V2000
  147.3754  140.0962  153.6282 C   0  0  0  0  0  0  0  0  0  0  0  0
  147.6584  141.6045  153.6563 C   0  0  0  0  0  0  0  0  0  0  0  0
  148.6063  141.9541  154.7084 N   0  0  0  0  0  0  0  0  0  0  0  0
  149.7266  141.2741  154.9963 C   0  0  0  0  0  0  0  0  0  0  0  0
  150.0780  140.2638  154.3860 O   0  0  0  0  0  0  0  0  0  0  0  0
  150.5672  141.8288  156.1513 C   0  0  0  0  0  0  0  0  0  0  0  0
  149.7819  141.9780  157.4659 C   0  0  0  0  0  0  0  0  0  0  0  0
  150.0044  143.3096  158.0657 N   0  3  0  0  0  0  0  0  0  0  0  0
  151.4068  143.6063  158.4409 C   0  0  1  0  0  0  0  0  0  0  0  0
  151.9790  144.6492  157.4663 C   0  0  0  0  0  0  0  0  0  0  0  0
  151.5330  144.0531  159.9238 C   0  0  2  0  0  0  0  0  0  0  0  0
  151.8863  145.5420  160.0973 C   0  0  0  0  0  0  0  0  0  0  0  0
  152.4181  143.1971  160.7077 N   0  0  0  0  0  0  0  0  0  0  0  0
  152.6318  143.2170  162.0712 C   0  0  0  0  0  0  0  0  0  0  0  0
  153.5309  142.2311  162.3600 C   0  0  0  0  0  0  0  0  0  0  0  0
  153.8134  141.6496  161.0933 C   0  0  0  0  0  0  0  0  0  0  0  0
  153.1440  142.2255  160.1080 N   0  0  0  0  0  0  0  0  0  0  0  0
  146.6256  139.8572  152.8736 H   0  0  0  0  0  0  0  0  0  0  0  0
  147.0009  139.7467  154.5911 H   0  0  0  0  0  0  0  0  0  0  0  0
  148.2746  139.5269  153.3908 H   0  0  0  0  0  0  0  0  0  0  0  0
  148.0268  141.9409  152.6855 H   0  0  0  0  0  0  0  0  0  0  0  0
  146.7316  142.1482  153.8410 H   0  0  0  0  0  0  0  0  0  0  0  0
  148.3922  142.7737  155.2583 H   0  0  0  0  0  0  0  0  0  0  0  0
  151.4212  141.1673  156.3054 H   0  0  0  0  0  0  0  0  0  0  0  0
  150.9686  142.7973  155.8497 H   0  0  0  0  0  0  0  0  0  0  0  0
  148.7165  141.8336  157.2849 H   0  0  0  0  0  0  0  0  0  0  0  0
  150.0949  141.2150  158.1805 H   0  0  0  0  0  0  0  0  0  0  0  0
  149.7093  144.0014  157.3918 H   0  0  0  0  0  0  0  0  0  0  0  0
  152.0009  142.7000  158.3119 H   0  0  0  0  0  0  0  0  0  0  0  0
  153.0148  144.8867  157.7099 H   0  0  0  0  0  0  0  0  0  0  0  0
  151.4107  145.5798  157.4865 H   0  0  0  0  0  0  0  0  0  0  0  0
  151.9613  144.2763  156.4417 H   0  0  0  0  0  0  0  0  0  0  0  0
  150.5399  143.9353  160.3606 H   0  0  0  0  0  0  0  0  0  0  0  0
  151.1820  146.1774  159.5600 H   0  0  0  0  0  0  0  0  0  0  0  0
  152.8875  145.7708  159.7319 H   0  0  0  0  0  0  0  0  0  0  0  0
  151.8497  145.8297  161.1484 H   0  0  0  0  0  0  0  0  0  0  0  0
  152.1315  143.9236  162.7171 H   0  0  0  0  0  0  0  0  0  0  0  0
  153.9270  141.9656  163.3291 H   0  0  0  0  0  0  0  0  0  0  0  0
  154.4790  140.8308  160.8630 H   0  0  0  0  0  0  0  0  0  0  0  0
  149.4297  143.4053  158.8917 H   0  0  0  0  0  0  0  0  0  0  0  0
  1  2  1  0  0  0  0
  1 18  1  0  0  0  0
  1 19  1  0  0  0  0
  1 20  1  0  0  0  0
  2  3  1  0  0  0  0
  2 21  1  0  0  0  0
  2 22  1  0  0  0  0
  3  4  1  0  0  0  0
  3 23  1  0  0  0  0
  4  5  2  0  0  0  0
  4  6  1  0  0  0  0
  6  7  1  0  0  0  0
  6 24  1  0  0  0  0
  6 25  1  0  0  0  0
  7  8  1  0  0  0  0
  7 26  1  0  0  0  0
  7 27  1  0  0  0  0
  8  9  1  0  0  0  0
  8 28  1  0  0  0  0
  8 40  1  0  0  0  0
  9 10  1  0  0  0  0
  9 11  1  0  0  0  0
  9 29  1  0  0  0  0
 10 30  1  0  0  0  0
 10 31  1  0  0  0  0
 10 32  1  0  0  0  0
 11 12  1  0  0  0  0
 11 13  1  0  0  0  0
 11 33  1  0  0  0  0
 12 34  1  0  0  0  0
 12 35  1  0  0  0  0
 12 36  1  0  0  0  0
 13 17  1  0  0  0  0
 13 14  1  0  0  0  0
 14 15  2  0  0  0  0
 14 37  1  0  0  0  0
 15 16  1  0  0  0  0
 15 38  1  0  0  0  0
 16 17  2  0  0  0  0
 16 39  1  0  0  0  0
M  CHG  1   8   1
M  END
> <s_m_source_file>
AV-unprocessed.smi

> <i_m_source_file_index>
3136

> <i_lp_mmshare_version>
43012

> <i_f3d_flags>
0

> <s_epik_input>
W0NIM11bQ0gyXVtOSF1DKD1PKVtDSDJdW0NIMl1bTkhdW0NASF0oW0NIM10pW0NASF0oW0NIM10pbjFbY0hdW2NIXVtjSF1uMQ==

> <s_epik_cmdline>
J2VwaWtfcHl0aG9uJywgJy1waCcsICc3LjAnLCAnLXRuJywgJzgnLCAnLW1hJywgJzIwMCcsICctbWV0YWxfYmluZGluZycsICctaW1hZScsICc8aW5maWxlLm1hZT4nLCAnLW9tYWUnLCAnPG91dGZpbGUubWFlPic=

> <r_lp_tautomer_probability>
1

> <r_epik_Ionization_Penalty>
0.00463447

> <r_epik_Ionization_Penalty_Charging>
0.00462393

> <r_epik_Ionization_Penalty_Neutral>
1.05394e-05

> <r_epik_State_Penalty>
-0

> <r_epik_Charging_Adjusted_Penalty>
0.00462393

> <i_epik_Tot_Q>
1

> <i_epik_Tot_abs_Q>
1

> <r_epik_Metal_State_Penalty>
-0

> <b_epik_Metal_Only>
0

> <s_lp_Force_Field>
OPLS_2005

> <r_lp_Energy>
10.5289

> <b_lp_Chiralities_Consistent>
1

> <s_lp_Variant>
AV-unprocessed.smi:3136-2

> <Gold.Version>
5.8.1

> <Gold.Id.Protein>
6NUR|6NUR_protein|mol2

> <Gold.PLP.Fitness>
54.6619

> <Gold.PLP.PLP>
-47.6170

> <Gold.PLP.part.hbond>
-3.0000

> <Gold.PLP.part.metal>
0.0000

> <Gold.PLP.part.buried>
-6.8954

> <Gold.PLP.part.nonpolar>
-37.4464

> <Gold.PLP.part.repulsive>
0.3546

> <Gold.PLP.ligand.clash>
0.0000

> <Gold.PLP.ligand.torsion>
2.6580

> <Gold.PLP.Chemscore.Hbond>
3.9680

> <Gold.PLP.Chemscore.CHOScore>
0.0000

> <Gold.PLP.Chemscore.Metal>
0.0000

> <Gold.Chemscore.Hbonds>
donor molecule, donor type, donor heavy atom, donor atom, acceptor molecule, acceptor atom, score
      L1  H     3    23       P1  8028  0.91
      L1  H     8    28       P1  8028  2.00
      P1  H  7989  7998       L1     5  0.98

> <Gold.PLP.Chemscore.Internal.Correction>
0.4570

> <Gold.Rescore>
     Score         DG    S(hbond)    S(metal)    S(lipo)     H(rot)  DE(clash)    DE(int)     intcor
     14.41     -18.27       1.75        0.00     109.98       2.32       1.30       2.57       ----

> <Gold.Chemscore.Fitness>
14.4077

> <Gold.Chemscore.DG>
-18.2733

> <Gold.Chemscore.ZeroCoef>
-5.4800

> <Gold.Chemscore.Hbond>
1.7528

> <Gold.Chemscore.Metal>
0.0000

> <Gold.Chemscore.Lipo>
109.9775

> <Gold.Chemscore.Internal_Hbond>
0.0000

> <Gold.Chemscore.DEClash>
1.2951

> <Gold.Chemscore.DEInternal>
2.5705

> <Gold.Chemscore.Rot>
2.3159

> <Gold.Chemscore.Internal.Correction>
   9.000000E+99

> <Gold.Chemscore.Hbonds>
donor molecule, donor type, donor heavy atom, donor atom, acceptor molecule, acceptor atom, score
      L1  H     3    23       P1  8028  0.84
      L1  H     8    28       P1  8028  0.46
      P1  H  7989  7998       L1     5  0.32

> <Gold.Chemscore.Hbond.Weighted>
-5.8545

> <Gold.Chemscore.Metal.Weighted>
-0.0000

> <Gold.Chemscore.Lipo.Weighted>
-12.8674

> <Gold.Chemscore.Internal_Hbond.Weighted>
0.0000

> <Gold.Chemscore.DEClash.Weighted>
1.2951

> <Gold.Chemscore.DEInternal.Weighted>
2.5705

> <Gold.Chemscore.Rot.Weighted>
5.9286

> <Gold.Chemscore.Internal.Correction.Weighted>
   9.000000E+99

> <Gold.Protein.RotatedTorsions>
[ 6907 6896 6895 6894 ] final  134.67 input  -60.11 | X-H torsion
[ 7974 7965 7964 7962 ] final  123.02 input  175.53 | X-H torsion
[ 8008 7997 7996 7995 ] final  -65.05 input   59.86 | X-H torsion
[ 10167 10162 10161 10158 ] final -153.63 input  -65.29 | X-H torsion
[ 10718 10713 10712 10709 ] final   82.30 input   66.30 | X-H torsion
[ 10763 10752 10751 10750 ] final -158.62 input  -60.55 | X-H torsion
[ 11005 11000 10999 10996 ] final  100.55 input  -57.11 | X-H torsion

> <Gold.Protein.ActiveResidues>
 VAL166  LYS551  ARG553  GLY616  TRP617  ASP618  TYR619  PRO620  LYS621  CYS622 
 ASP623  PHE694  ASN695  SER759  ASP760  ASP761  ALA762  ILE779  LEU786  VAL792 
 PHE793  MET794  SER795  GLU796  ALA797  LYS798  CYS799  TRP800  GLU811  SER814 

> <Gold.Protein.RotatedAtoms>
  152.3088  133.5731  159.5666 H   0  0  0  0  0  0  0  0  0  0  0  0  # atno 6907 bound_to 6896
  150.7313  134.0183  159.3701 H   0  0  0  0  0  0  0  0  0  0  0  0  # atno 6908 bound_to 6896
  151.8077  135.0690  160.0459 H   0  0  0  0  0  0  0  0  0  0  0  0  # atno 6909 bound_to 6896
  145.1007  139.3521  143.4813 H   0  0  0  0  0  0  0  0  0  0  0  0  # atno 7974 bound_to 7965
  154.4648  140.0941  156.6991 H   0  0  0  0  0  0  0  0  0  0  0  0  # atno 8008 bound_to 7997
  155.4890  140.3470  155.4333 H   0  0  0  0  0  0  0  0  0  0  0  0  # atno 8009 bound_to 7997
  156.0936  140.1404  156.9548 H   0  0  0  0  0  0  0  0  0  0  0  0  # atno 8010 bound_to 7997
  139.7081  143.9153  152.2457 H   0  0  0  0  0  0  0  0  0  0  0  0  # atno 10167 bound_to 10162
  157.6854  131.0042  150.2355 H   0  0  0  0  0  0  0  0  0  0  0  0  # atno 10718 bound_to 10713
  154.7542  135.3100  154.8501 H   0  0  0  0  0  0  0  0  0  0  0  0  # atno 10763 bound_to 10752
  153.9280  135.6788  153.4750 H   0  0  0  0  0  0  0  0  0  0  0  0  # atno 10764 bound_to 10752
  153.1138  135.4854  154.9010 H   0  0  0  0  0  0  0  0  0  0  0  0  # atno 10765 bound_to 10752
  139.8771  134.9145  156.4773 H   0  0  0  0  0  0  0  0  0  0  0  0  # atno 11005 bound_to 11000
  146.3530  140.0883  142.8614 LP  0  0  0  0  0  0  0  0  0  0  0  0  # atno 17320 bound_to 7965
  145.0959  140.9314  143.4741 LP  0  0  0  0  0  0  0  0  0  0  0  0  # atno 17321 bound_to 7965
  139.9014  144.6909  150.8661 LP  0  0  0  0  0  0  0  0  0  0  0  0  # atno 17342 bound_to 10162
  140.7726  143.3510  151.2013 LP  0  0  0  0  0  0  0  0  0  0  0  0  # atno 17343 bound_to 10162
  156.2979  130.3754  149.7778 LP  0  0  0  0  0  0  0  0  0  0  0  0  # atno 17370 bound_to 10713
  156.5417  130.8303  151.3271 LP  0  0  0  0  0  0  0  0  0  0  0  0  # atno 17371 bound_to 10713
  140.8753  133.7958  155.9407 LP  0  0  0  0  0  0  0  0  0  0  0  0  # atno 17394 bound_to 11000
  140.8911  134.2494  157.5094 LP  0  0  0  0  0  0  0  0  0  0  0  0  # atno 17395 bound_to 11000

$$$$
