AV-unprocessed.smi:113|AV-procd|sdf|1103|dock1
  -GOLD-   2262018213D 1   1.00000     0.00000
 Structure written by MMmdl.
 53 56  0  0  0  0  0  0  0  0  2 V2000
  154.0514  138.3481  158.9782 C   0  0  0  0  0  0  0  0  0  0  0  0
  153.3509  139.6902  158.9605 C   0  0  0  0  0  0  0  0  0  0  0  0
  152.4934  140.0779  157.9125 C   0  0  0  0  0  0  0  0  0  0  0  0
  151.8637  141.3468  157.9465 C   0  0  0  0  0  0  0  0  0  0  0  0
  150.9298  141.7978  156.8183 C   0  0  0  0  0  0  0  0  0  0  0  0
  149.7248  141.0087  156.6044 N   0  0  0  0  0  0  0  0  0  0  0  0
  148.7665  140.9735  157.6464 C   0  0  0  0  0  0  0  0  0  0  0  0
  148.9389  141.5892  158.7006 O   0  0  0  0  0  0  0  0  0  0  0  0
  147.5671  140.1823  157.3622 C   0  0  0  0  0  0  0  0  0  0  0  0
  146.4891  140.1053  158.4318 C   0  0  0  0  0  0  0  0  0  0  0  0
  147.4438  139.5531  156.1687 C   0  0  0  0  0  0  0  0  0  0  0  0
  148.3999  139.5973  155.1691 N   0  0  0  0  0  0  0  0  0  0  0  0
  148.1342  138.9026  153.8509 C   0  0  2  0  0  0  0  0  0  0  0  0
  147.7280  139.8637  152.7207 C   0  0  0  0  0  0  0  0  0  0  0  0
  146.3518  139.3567  152.3140 C   0  0  1  0  0  0  0  0  0  0  0  0
  146.1886  139.4242  150.9121 O   0  0  0  0  0  0  0  0  0  0  0  0
  146.3416  137.9138  152.8310 C   0  0  2  0  0  0  0  0  0  0  0  0
  144.9461  137.3528  153.1446 C   0  0  0  0  0  0  0  0  0  0  0  0
  144.3677  136.7859  151.9882 O   0  0  0  0  0  0  0  0  0  0  0  0
  147.0954  137.9921  154.0329 O   0  0  0  0  0  0  0  0  0  0  0  0
  149.5682  140.3684  155.3547 C   0  0  0  0  0  0  0  0  0  0  0  0
  150.4037  140.4909  154.4566 O   0  0  0  0  0  0  0  0  0  0  0  0
  152.1191  142.1965  159.0579 C   0  0  0  0  0  0  0  0  0  0  0  0
  151.5299  143.4779  159.1792 C   0  0  0  0  0  0  0  0  0  0  0  0
  151.8096  144.2915  160.2950 C   0  0  0  0  0  0  0  0  0  0  0  0
  152.6796  143.8381  161.3039 C   0  0  0  0  0  0  0  0  0  0  0  0
  153.2735  142.5667  161.2000 C   0  0  0  0  0  0  0  0  0  0  0  0
  152.9946  141.7510  160.0851 C   0  0  0  0  0  0  0  0  0  0  0  0
  153.5655  140.5315  159.9921 N   0  3  0  0  0  0  0  0  0  0  0  0
  153.8648  137.7946  158.0576 H   0  0  0  0  0  0  0  0  0  0  0  0
  153.6964  137.7468  159.8157 H   0  0  0  0  0  0  0  0  0  0  0  0
  155.1285  138.4820  159.0818 H   0  0  0  0  0  0  0  0  0  0  0  0
  152.3295  139.3942  157.0929 H   0  0  0  0  0  0  0  0  0  0  0  0
  150.6205  142.8318  156.9786 H   0  0  0  0  0  0  0  0  0  0  0  0
  151.4690  141.8231  155.8701 H   0  0  0  0  0  0  0  0  0  0  0  0
  145.6535  139.4774  158.1218 H   0  0  0  0  0  0  0  0  0  0  0  0
  146.0968  141.0993  158.6496 H   0  0  0  0  0  0  0  0  0  0  0  0
  146.8954  139.6871  159.3536 H   0  0  0  0  0  0  0  0  0  0  0  0
  146.5429  138.9831  155.9906 H   0  0  0  0  0  0  0  0  0  0  0  0
  149.0449  138.3563  153.6031 H   0  0  0  0  0  0  0  0  0  0  0  0
  147.7210  140.9065  153.0391 H   0  0  0  0  0  0  0  0  0  0  0  0
  148.4540  139.7586  151.9131 H   0  0  0  0  0  0  0  0  0  0  0  0
  145.5762  139.9461  152.8034 H   0  0  0  0  0  0  0  0  0  0  0  0
  145.2699  139.5461  150.7240 H   0  0  0  0  0  0  0  0  0  0  0  0
  146.8788  137.2555  152.1451 H   0  0  0  0  0  0  0  0  0  0  0  0
  145.0187  136.5759  153.9060 H   0  0  0  0  0  0  0  0  0  0  0  0
  144.2914  138.1303  153.5396 H   0  0  0  0  0  0  0  0  0  0  0  0
  143.8067  137.4314  151.5854 H   0  0  0  0  0  0  0  0  0  0  0  0
  150.8570  143.8598  158.4264 H   0  0  0  0  0  0  0  0  0  0  0  0
  151.3545  145.2679  160.3766 H   0  0  0  0  0  0  0  0  0  0  0  0
  152.8902  144.4660  162.1573 H   0  0  0  0  0  0  0  0  0  0  0  0
  153.9406  142.2236  161.9778 H   0  0  0  0  0  0  0  0  0  0  0  0
  154.1901  140.2306  160.7401 H   0  0  0  0  0  0  0  0  0  0  0  0
  1  2  1  0  0  0  0
  1 30  1  0  0  0  0
  1 31  1  0  0  0  0
  1 32  1  0  0  0  0
  2 29  1  0  0  0  0
  2  3  2  0  0  0  0
  3  4  1  0  0  0  0
  3 33  1  0  0  0  0
  4  5  1  0  0  0  0
  4 23  2  0  0  0  0
  5  6  1  0  0  0  0
  5 34  1  0  0  0  0
  5 35  1  0  0  0  0
  6 21  1  0  0  0  0
  6  7  1  0  0  0  0
  7  8  2  0  0  0  0
  7  9  1  0  0  0  0
  9 10  1  0  0  0  0
  9 11  2  0  0  0  0
 10 36  1  0  0  0  0
 10 37  1  0  0  0  0
 10 38  1  0  0  0  0
 11 12  1  0  0  0  0
 11 39  1  0  0  0  0
 12 13  1  0  0  0  0
 12 21  1  0  0  0  0
 13 20  1  0  0  0  0
 13 14  1  0  0  0  0
 13 40  1  0  0  0  0
 14 15  1  0  0  0  0
 14 41  1  0  0  0  0
 14 42  1  0  0  0  0
 15 16  1  0  0  0  0
 15 17  1  0  0  0  0
 15 43  1  0  0  0  0
 16 44  1  0  0  0  0
 17 18  1  0  0  0  0
 17 20  1  0  0  0  0
 17 45  1  0  0  0  0
 18 19  1  0  0  0  0
 18 46  1  0  0  0  0
 18 47  1  0  0  0  0
 19 48  1  0  0  0  0
 21 22  2  0  0  0  0
 23 28  1  0  0  0  0
 23 24  1  0  0  0  0
 24 25  2  0  0  0  0
 24 49  1  0  0  0  0
 25 26  1  0  0  0  0
 25 50  1  0  0  0  0
 26 27  2  0  0  0  0
 26 51  1  0  0  0  0
 27 28  1  0  0  0  0
 27 52  1  0  0  0  0
 28 29  2  0  0  0  0
 29 53  1  0  0  0  0
M  CHG  1  29   1
M  END
> <s_m_source_file>
AV-unprocessed.smi

> <i_m_source_file_index>
113

> <i_lp_mmshare_version>
43012

> <i_f3d_flags>
0

> <s_epik_input>
W2NIXTFbY0hdW2NIXVtjSF1jKGMxMiluYyhbQ0gzXSlbY0hdYzJbQ0gyXW4zYyg9TyljKFtDSDNdKVtjSF1uKGMzPU8pW0NAQEhdNFtDSDJdW0NAQEhdKFtPSF0pW0NASF0oTzQpW0NIMl1bT0hd

> <s_epik_cmdline>
J2VwaWtfcHl0aG9uJywgJy1waCcsICc3LjAnLCAnLXRuJywgJzgnLCAnLW1hJywgJzIwMCcsICctbWV0YWxfYmluZGluZycsICctaW1hZScsICc8aW5maWxlLm1hZT4nLCAnLW9tYWUnLCAnPG91dGZpbGUubWFlPic=

> <r_lp_tautomer_probability>
1

> <r_epik_Ionization_Penalty>
0.705471

> <r_epik_Ionization_Penalty_Charging>
0.70547

> <r_epik_Ionization_Penalty_Neutral>
1.19947e-07

> <r_epik_State_Penalty>
0.728574

> <r_epik_Charging_Adjusted_Penalty>
1.43404

> <i_epik_Tot_Q>
1

> <i_epik_Tot_abs_Q>
1

> <r_epik_Metal_State_Penalty>
4.61665

> <b_epik_Metal_Only>
0

> <s_epik_Chemistry_Notes>
This compound contains an acetal/aminal-like group ( X-CH(R)-Y where X, Y are N, S, or O) that may be acid/base labile, releasing an aldehyde.

> <s_lp_Force_Field>
OPLS_2005

> <r_lp_Energy>
37.5737

> <b_lp_Chiralities_Consistent>
1

> <s_lp_Variant>
AV-unprocessed.smi:113-13

> <Gold.Version>
5.8.1

> <Gold.Id.Protein>
6NUR|6NUR_protein|mol2

> <Gold.PLP.Fitness>
55.2521

> <Gold.PLP.PLP>
-45.8310

> <Gold.PLP.part.hbond>
-4.7543

> <Gold.PLP.part.metal>
0.0000

> <Gold.PLP.part.buried>
0.4988

> <Gold.PLP.part.nonpolar>
-42.0354

> <Gold.PLP.part.repulsive>
0.4842

> <Gold.PLP.ligand.clash>
0.0000

> <Gold.PLP.ligand.torsion>
0.6765

> <Gold.PLP.Chemscore.Hbond>
3.5814

> <Gold.PLP.Chemscore.CHOScore>
0.0000

> <Gold.PLP.Chemscore.Metal>
0.0000

> <Gold.Chemscore.Hbonds>
donor molecule, donor type, donor heavy atom, donor atom, acceptor molecule, acceptor atom, score
      L1  H    16    44       P1 10171  0.77
      L1  H    19    48       P1 10171  0.57
      P1  H  7989  7998       L1    22  0.98

> <Gold.PLP.Chemscore.Internal.Correction>
0.0301

> <Gold.Rescore>
     Score         DG    S(hbond)    S(metal)    S(lipo)     H(rot)  DE(clash)    DE(int)     intcor
     22.54     -25.10       3.64        0.00     129.56       3.01       1.94       0.62       ----

> <Gold.Chemscore.Fitness>
22.5427

> <Gold.Chemscore.DG>
-25.0981

> <Gold.Chemscore.ZeroCoef>
-5.4800

> <Gold.Chemscore.Hbond>
3.6437

> <Gold.Chemscore.Metal>
0.0000

> <Gold.Chemscore.Lipo>
129.5647

> <Gold.Chemscore.Internal_Hbond>
0.0000

> <Gold.Chemscore.DEClash>
1.9385

> <Gold.Chemscore.DEInternal>
0.6170

> <Gold.Chemscore.Rot>
3.0120

> <Gold.Chemscore.Internal.Correction>
   9.000000E+99

> <Gold.Chemscore.Hbonds>
donor molecule, donor type, donor heavy atom, donor atom, acceptor molecule, acceptor atom, score
      L1  H    16    44       P1 10171  0.74
      L1  H    19    48       P1 10171  0.57
      P1  H  7989  7998       L1    22  0.92

> <Gold.Chemscore.Hbond.Weighted>
-12.1699

> <Gold.Chemscore.Metal.Weighted>
-0.0000

> <Gold.Chemscore.Lipo.Weighted>
-15.1591

> <Gold.Chemscore.Internal_Hbond.Weighted>
0.0000

> <Gold.Chemscore.DEClash.Weighted>
1.9385

> <Gold.Chemscore.DEInternal.Weighted>
0.6170

> <Gold.Chemscore.Rot.Weighted>
7.7108

> <Gold.Chemscore.Internal.Correction.Weighted>
   9.000000E+99

> <Gold.Protein.RotatedTorsions>
[ 6907 6896 6895 6894 ] final   71.32 input  -60.11 | X-H torsion
[ 7974 7965 7964 7962 ] final  106.99 input  175.53 | X-H torsion
[ 8008 7997 7996 7995 ] final  -59.95 input   59.86 | X-H torsion
[ 10167 10162 10161 10158 ] final  -68.99 input  -65.29 | X-H torsion
[ 10718 10713 10712 10709 ] final  -30.91 input   66.30 | X-H torsion
[ 10763 10752 10751 10750 ] final  167.31 input  -60.55 | X-H torsion
[ 11005 11000 10999 10996 ] final -139.51 input  -57.11 | X-H torsion

> <Gold.Protein.ActiveResidues>
 VAL166  LYS551  ARG553  GLY616  TRP617  ASP618  TYR619  PRO620  LYS621  CYS622 
 ASP623  PHE694  ASN695  SER759  ASP760  ASP761  ALA762  ILE779  LEU786  VAL792 
 PHE793  MET794  SER795  GLU796  ALA797  LYS798  CYS799  TRP800  GLU811  SER814 

> <Gold.Protein.RotatedAtoms>
  152.4803  134.4738  159.9643 H   0  0  0  0  0  0  0  0  0  0  0  0  # atno 6907 bound_to 6896
  151.4745  133.3555  159.2836 H   0  0  0  0  0  0  0  0  0  0  0  0  # atno 6908 bound_to 6896
  150.8870  134.8295  159.7327 H   0  0  0  0  0  0  0  0  0  0  0  0  # atno 6909 bound_to 6896
  145.2994  139.2574  143.3822 H   0  0  0  0  0  0  0  0  0  0  0  0  # atno 7974 bound_to 7965
  154.4376  140.1050  156.6196 H   0  0  0  0  0  0  0  0  0  0  0  0  # atno 8008 bound_to 7997
  155.5722  140.3489  155.4499 H   0  0  0  0  0  0  0  0  0  0  0  0  # atno 8009 bound_to 7997
  156.0381  140.1276  157.0175 H   0  0  0  0  0  0  0  0  0  0  0  0  # atno 8010 bound_to 7997
  140.5465  143.2313  151.6992 H   0  0  0  0  0  0  0  0  0  0  0  0  # atno 10167 bound_to 10162
  156.3939  130.4378  149.7373 H   0  0  0  0  0  0  0  0  0  0  0  0  # atno 10718 bound_to 10713
  154.3519  135.2753  155.2367 H   0  0  0  0  0  0  0  0  0  0  0  0  # atno 10763 bound_to 10752
  154.4593  135.5911  153.6248 H   0  0  0  0  0  0  0  0  0  0  0  0  # atno 10764 bound_to 10752
  152.9849  135.6061  154.3730 H   0  0  0  0  0  0  0  0  0  0  0  0  # atno 10765 bound_to 10752
  140.8513  134.2283  157.4759 H   0  0  0  0  0  0  0  0  0  0  0  0  # atno 11005 bound_to 11000
  146.3157  140.3505  142.8655 LP  0  0  0  0  0  0  0  0  0  0  0  0  # atno 17320 bound_to 7965
  144.9106  140.7752  143.5810 LP  0  0  0  0  0  0  0  0  0  0  0  0  # atno 17321 bound_to 7965
  139.5009  144.3887  152.0302 LP  0  0  0  0  0  0  0  0  0  0  0  0  # atno 17342 bound_to 10162
  140.3000  144.3657  150.6063 LP  0  0  0  0  0  0  0  0  0  0  0  0  # atno 17343 bound_to 10162
  156.4416  130.7864  151.2885 LP  0  0  0  0  0  0  0  0  0  0  0  0  # atno 17370 bound_to 10713
  157.7500  131.0123  150.3379 LP  0  0  0  0  0  0  0  0  0  0  0  0  # atno 17371 bound_to 10713
  139.8704  134.9684  156.4631 LP  0  0  0  0  0  0  0  0  0  0  0  0  # atno 17394 bound_to 11000
  140.8787  133.7934  155.9443 LP  0  0  0  0  0  0  0  0  0  0  0  0  # atno 17395 bound_to 11000

$$$$
