AV-unprocessed.smi:433|AV-procd|sdf|2551|dock5
  -GOLD-   2262022513D 1   1.00000     0.00000
 Structure written by MMmdl.
 36 37  0  0  0  0  0  0  0  0  1 V2000
  152.9341  143.4148  163.0359 C   0  0  0  0  0  0  0  0  0  0  0  0
  153.1095  142.5586  161.8984 N   0  0  0  0  0  0  0  0  0  0  0  0
  153.7640  141.3451  161.9775 C   0  0  0  0  0  0  0  0  0  0  0  0
  153.9466  140.5405  160.9080 C   0  0  0  0  0  0  0  0  0  0  0  0
  153.4483  140.9195  159.5902 C   0  0  0  0  0  0  0  0  0  0  0  0
  153.6163  140.2290  158.5844 O   0  0  0  0  0  0  0  0  0  0  0  0
  152.7652  142.1599  159.5491 N   0  0  0  0  0  0  0  0  0  0  0  0
  152.2606  142.6138  158.2651 C   0  0  0  0  0  0  0  0  0  0  0  0
  151.0386  141.8023  157.7778 C   0  0  1  0  0  0  0  0  0  0  0  0
  149.8771  142.3045  158.4069 O   0  0  0  0  0  0  0  0  0  0  0  0
  150.8264  141.9231  156.2616 C   0  0  0  0  0  0  0  0  0  0  0  0
  150.4804  140.6413  155.7545 O   0  0  0  0  0  0  0  0  0  0  0  0
  149.4518  140.5520  154.8427 C   0  0  0  0  0  0  0  0  0  0  0  0
  149.1365  139.2646  154.3615 C   0  0  0  0  0  0  0  0  0  0  0  0
  148.0985  139.0780  153.4286 C   0  0  0  0  0  0  0  0  0  0  0  0
  147.3615  140.1836  152.9663 C   0  0  0  0  0  0  0  0  0  0  0  0
  147.6656  141.4743  153.4380 C   0  0  0  0  0  0  0  0  0  0  0  0
  148.7046  141.6609  154.3709 C   0  0  0  0  0  0  0  0  0  0  0  0
  152.5915  143.0121  160.6659 C   0  0  0  0  0  0  0  0  0  0  0  0
  152.0250  144.1050  160.5735 O   0  0  0  0  0  0  0  0  0  0  0  0
  153.3594  142.9118  163.9049 H   0  0  0  0  0  0  0  0  0  0  0  0
  151.8623  143.5723  163.1694 H   0  0  0  0  0  0  0  0  0  0  0  0
  153.4653  144.3458  162.8299 H   0  0  0  0  0  0  0  0  0  0  0  0
  154.1525  141.0233  162.9329 H   0  0  0  0  0  0  0  0  0  0  0  0
  154.4721  139.6046  161.0275 H   0  0  0  0  0  0  0  0  0  0  0  0
  152.0619  143.6854  158.3271 H   0  0  0  0  0  0  0  0  0  0  0  0
  153.0937  142.5457  157.5633 H   0  0  0  0  0  0  0  0  0  0  0  0
  151.1395  140.7471  158.0362 H   0  0  0  0  0  0  0  0  0  0  0  0
  150.1071  143.0923  158.8761 H   0  0  0  0  0  0  0  0  0  0  0  0
  150.0149  142.6239  156.0569 H   0  0  0  0  0  0  0  0  0  0  0  0
  151.7316  142.3004  155.7824 H   0  0  0  0  0  0  0  0  0  0  0  0
  149.6981  138.4109  154.7122 H   0  0  0  0  0  0  0  0  0  0  0  0
  147.8681  138.0860  153.0687 H   0  0  0  0  0  0  0  0  0  0  0  0
  146.5643  140.0422  152.2513 H   0  0  0  0  0  0  0  0  0  0  0  0
  147.1006  142.3238  153.0840 H   0  0  0  0  0  0  0  0  0  0  0  0
  148.9080  142.6650  154.7106 H   0  0  0  0  0  0  0  0  0  0  0  0
  1  2  1  0  0  0  0
  1 21  1  0  0  0  0
  1 22  1  0  0  0  0
  1 23  1  0  0  0  0
  2 19  1  0  0  0  0
  2  3  1  0  0  0  0
  3  4  2  0  0  0  0
  3 24  1  0  0  0  0
  4  5  1  0  0  0  0
  4 25  1  0  0  0  0
  5  6  2  0  0  0  0
  5  7  1  0  0  0  0
  7  8  1  0  0  0  0
  7 19  1  0  0  0  0
  8  9  1  0  0  0  0
  8 26  1  0  0  0  0
  8 27  1  0  0  0  0
  9 10  1  0  0  0  0
  9 11  1  0  0  0  0
  9 28  1  0  0  0  0
 10 29  1  0  0  0  0
 11 12  1  0  0  0  0
 11 30  1  0  0  0  0
 11 31  1  0  0  0  0
 12 13  1  0  0  0  0
 13 18  1  0  0  0  0
 13 14  2  0  0  0  0
 14 15  1  0  0  0  0
 14 32  1  0  0  0  0
 15 16  2  0  0  0  0
 15 33  1  0  0  0  0
 16 17  1  0  0  0  0
 16 34  1  0  0  0  0
 17 18  2  0  0  0  0
 17 35  1  0  0  0  0
 18 36  1  0  0  0  0
 19 20  2  0  0  0  0
M  END
> <s_m_source_file>
AV-unprocessed.smi

> <i_m_source_file_index>
433

> <i_lp_mmshare_version>
43012

> <i_f3d_flags>
0

> <s_epik_input>
W0NIM11uMVtjSF1bY0hdYyg9TyluKGMxPU8pW0NIMl1bQ0BIXShbT0hdKVtDSDJdT2MyW2NIXVtjSF1bY0hdW2NIXVtjSF0y

> <s_epik_cmdline>
J2VwaWtfcHl0aG9uJywgJy1waCcsICc3LjAnLCAnLXRuJywgJzgnLCAnLW1hJywgJzIwMCcsICctbWV0YWxfYmluZGluZycsICctaW1hZScsICc8aW5maWxlLm1hZT4nLCAnLW9tYWUnLCAnPG91dGZpbGUubWFlPic=

> <r_lp_tautomer_probability>
1

> <r_epik_Ionization_Penalty>
2.21742e-07

> <r_epik_Ionization_Penalty_Charging>
1.04568e-07

> <r_epik_Ionization_Penalty_Neutral>
1.17174e-07

> <r_epik_State_Penalty>
-0

> <r_epik_Charging_Adjusted_Penalty>
1.04568e-07

> <i_epik_Tot_Q>
0

> <i_epik_Tot_abs_Q>
0

> <r_epik_Metal_State_Penalty>
-0

> <b_epik_Metal_Only>
0

> <s_lp_Force_Field>
OPLS_2005

> <r_lp_Energy>
22.7461

> <b_lp_Chiralities_Consistent>
1

> <s_lp_Variant>
AV-unprocessed.smi:433-2

> <Gold.Version>
5.8.1

> <Gold.Id.Protein>
6NUR|6NUR_protein|mol2

> <Gold.PLP.Fitness>
46.1225

> <Gold.PLP.PLP>
-45.6346

> <Gold.PLP.part.hbond>
-1.0000

> <Gold.PLP.part.metal>
0.0000

> <Gold.PLP.part.buried>
-3.8215

> <Gold.PLP.part.nonpolar>
-39.5087

> <Gold.PLP.part.repulsive>
0.1312

> <Gold.PLP.ligand.clash>
0.0000

> <Gold.PLP.ligand.torsion>
1.2205

> <Gold.PLP.Chemscore.Hbond>
0.9600

> <Gold.PLP.Chemscore.CHOScore>
0.0000

> <Gold.PLP.Chemscore.Metal>
0.0000

> <Gold.Chemscore.Hbonds>
donor molecule, donor type, donor heavy atom, donor atom, acceptor molecule, acceptor atom, score
      P1  H  7997  8008       L1     6  0.91

> <Gold.PLP.Chemscore.Internal.Correction>
0.0489

> <Gold.Rescore>
     Score         DG    S(hbond)    S(metal)    S(lipo)     H(rot)  DE(clash)    DE(int)     intcor
     12.15     -13.61       0.99        0.00      95.05       2.46       0.19       1.26       ----

> <Gold.Chemscore.Fitness>
12.1519

> <Gold.Chemscore.DG>
-13.6098

> <Gold.Chemscore.ZeroCoef>
-5.4800

> <Gold.Chemscore.Hbond>
0.9905

> <Gold.Chemscore.Metal>
0.0000

> <Gold.Chemscore.Lipo>
95.0531

> <Gold.Chemscore.Internal_Hbond>
0.0000

> <Gold.Chemscore.DEClash>
0.1946

> <Gold.Chemscore.DEInternal>
1.2632

> <Gold.Chemscore.Rot>
2.4608

> <Gold.Chemscore.Internal.Correction>
   9.000000E+99

> <Gold.Chemscore.Hbonds>
donor molecule, donor type, donor heavy atom, donor atom, acceptor molecule, acceptor atom, score
      P1  H  7997  8008       L1     6  0.90

> <Gold.Chemscore.Hbond.Weighted>
-3.3082

> <Gold.Chemscore.Metal.Weighted>
-0.0000

> <Gold.Chemscore.Lipo.Weighted>
-11.1212

> <Gold.Chemscore.Internal_Hbond.Weighted>
0.0000

> <Gold.Chemscore.DEClash.Weighted>
0.1946

> <Gold.Chemscore.DEInternal.Weighted>
1.2632

> <Gold.Chemscore.Rot.Weighted>
6.2997

> <Gold.Chemscore.Internal.Correction.Weighted>
   9.000000E+99

> <Gold.Protein.RotatedTorsions>
[ 6907 6896 6895 6894 ] final -143.91 input  -60.11 | X-H torsion
[ 7974 7965 7964 7962 ] final  166.35 input  175.53 | X-H torsion
[ 8008 7997 7996 7995 ] final  -92.64 input   59.86 | X-H torsion
[ 10167 10162 10161 10158 ] final -132.76 input  -65.29 | X-H torsion
[ 10718 10713 10712 10709 ] final -137.64 input   66.30 | X-H torsion
[ 10763 10752 10751 10750 ] final  -69.98 input  -60.55 | X-H torsion
[ 11005 11000 10999 10996 ] final  -40.82 input  -57.11 | X-H torsion

> <Gold.Protein.ActiveResidues>
 VAL166  LYS551  ARG553  GLY616  TRP617  ASP618  TYR619  PRO620  LYS621  CYS622 
 ASP623  PHE694  ASN695  SER759  ASP760  ASP761  ALA762  ILE779  LEU786  VAL792 
 PHE793  MET794  SER795  GLU796  ALA797  LYS798  CYS799  TRP800  GLU811  SER814 

> <Gold.Protein.RotatedAtoms>
  151.1068  133.5202  159.2607 H   0  0  0  0  0  0  0  0  0  0  0  0  # atno 6907 bound_to 6896
  151.2012  135.0443  159.8883 H   0  0  0  0  0  0  0  0  0  0  0  0  # atno 6908 bound_to 6896
  152.5447  134.0896  159.8324 H   0  0  0  0  0  0  0  0  0  0  0  0  # atno 6909 bound_to 6896
  144.7466  139.8602  143.6380 H   0  0  0  0  0  0  0  0  0  0  0  0  # atno 7974 bound_to 7965
  154.7256  140.0507  157.0680 H   0  0  0  0  0  0  0  0  0  0  0  0  # atno 8008 bound_to 7997
  155.0369  140.3164  155.4719 H   0  0  0  0  0  0  0  0  0  0  0  0  # atno 8009 bound_to 7997
  156.2828  140.2140  156.5492 H   0  0  0  0  0  0  0  0  0  0  0  0  # atno 8010 bound_to 7997
  139.9052  143.6560  152.2587 H   0  0  0  0  0  0  0  0  0  0  0  0  # atno 10167 bound_to 10162
  156.2903  130.7371  151.1395 H   0  0  0  0  0  0  0  0  0  0  0  0  # atno 10718 bound_to 10713
  154.4111  135.6008  153.5953 H   0  0  0  0  0  0  0  0  0  0  0  0  # atno 10763 bound_to 10752
  152.9790  135.5929  154.4068 H   0  0  0  0  0  0  0  0  0  0  0  0  # atno 10764 bound_to 10752
  154.3881  135.2841  155.2150 H   0  0  0  0  0  0  0  0  0  0  0  0  # atno 10765 bound_to 10752
  141.0202  133.6866  156.2373 H   0  0  0  0  0  0  0  0  0  0  0  0  # atno 11005 bound_to 11000
  146.1354  139.4398  143.0142 LP  0  0  0  0  0  0  0  0  0  0  0  0  # atno 17320 bound_to 7965
  145.7100  141.0109  143.1458 LP  0  0  0  0  0  0  0  0  0  0  0  0  # atno 17321 bound_to 7965
  139.6990  144.7637  151.1305 LP  0  0  0  0  0  0  0  0  0  0  0  0  # atno 17342 bound_to 10162
  140.7698  143.5483  150.9233 LP  0  0  0  0  0  0  0  0  0  0  0  0  # atno 17343 bound_to 10162
  157.7340  131.0585  150.5544 LP  0  0  0  0  0  0  0  0  0  0  0  0  # atno 17370 bound_to 10713
  156.5660  130.4267  149.6041 LP  0  0  0  0  0  0  0  0  0  0  0  0  # atno 17371 bound_to 10713
  140.6586  134.4991  157.5582 LP  0  0  0  0  0  0  0  0  0  0  0  0  # atno 17394 bound_to 11000
  139.9141  134.8283  156.1426 LP  0  0  0  0  0  0  0  0  0  0  0  0  # atno 17395 bound_to 11000

$$$$
