AV-unprocessed.smi:1244|AV-procd|sdf|5234|dock9
  -GOLD-   22720 4343D 1   1.00000     0.00000
 Structure written by MMmdl.
 56 58  0  0  0  0  0  0  0  0  3 V2000
  148.7144  140.7511  154.1679 C   0  0  0  0  0  0  0  0  0  0  0  0
  149.6040  139.8876  155.0689 C   0  0  1  0  0  0  0  0  0  0  0  0
  149.1951  138.4042  155.0321 C   0  0  0  0  0  0  0  0  0  0  0  0
  150.1275  137.5877  155.8436 N   0  3  1  0  0  0  0  0  0  0  0  0
  149.7115  136.1648  155.9215 C   0  0  0  0  0  0  0  0  0  0  0  0
  150.4346  135.2824  154.8860 C   0  0  0  0  0  0  0  0  0  0  0  0
  149.4958  134.4595  154.1322 N   0  0  0  0  0  0  0  0  0  0  0  0
  149.2583  133.1602  154.3612 C   0  0  0  0  0  0  0  0  0  0  0  0
  149.8055  132.5190  155.2580 O   0  0  0  0  0  0  0  0  0  0  0  0
  148.3712  132.6644  153.4819 N   0  0  0  0  0  0  0  0  0  0  0  0
  147.9050  131.3238  153.3583 C   0  0  0  0  0  0  0  0  0  0  0  0
  148.5988  130.2410  153.9584 C   0  0  0  0  0  0  0  0  0  0  0  0
  148.1251  128.9255  153.7970 C   0  0  0  0  0  0  0  0  0  0  0  0
  146.9608  128.7102  153.0406 C   0  0  0  0  0  0  0  0  0  0  0  0
  146.3111  129.7615  152.5004 N   0  3  0  0  0  0  0  0  0  0  0  0
  146.7076  131.0521  152.6330 C   0  0  0  0  0  0  0  0  0  0  0  0
  145.9143  132.0508  152.0227 N   0  0  0  0  0  0  0  0  0  0  0  0
  146.5221  133.0455  151.1460 C   0  0  0  0  0  0  0  0  0  0  0  0
  145.3513  133.6991  150.4165 C   0  0  0  0  0  0  0  0  0  0  0  0
  144.3779  132.5364  150.2490 C   0  0  0  0  0  0  0  0  0  0  0  0
  144.5932  131.6970  151.5130 C   0  0  0  0  0  0  0  0  0  0  0  0
  151.5207  137.7753  155.3678 C   0  0  0  0  0  0  0  0  0  0  0  0
  151.9085  139.2672  155.3547 C   0  0  2  0  0  0  0  0  0  0  0  0
  152.1538  139.8518  156.7575 C   0  0  0  0  0  0  0  0  0  0  0  0
  150.9482  140.0205  154.6144 O   0  0  0  0  0  0  0  0  0  0  0  0
  147.6706  140.6970  154.4781 H   0  0  0  0  0  0  0  0  0  0  0  0
  148.7723  140.4279  153.1280 H   0  0  0  0  0  0  0  0  0  0  0  0
  149.0181  141.7975  154.2087 H   0  0  0  0  0  0  0  0  0  0  0  0
  149.5194  140.2666  156.0876 H   0  0  0  0  0  0  0  0  0  0  0  0
  148.1799  138.2980  155.4172 H   0  0  0  0  0  0  0  0  0  0  0  0
  149.1885  138.0359  154.0045 H   0  0  0  0  0  0  0  0  0  0  0  0
  149.9444  135.7867  156.9182 H   0  0  0  0  0  0  0  0  0  0  0  0
  148.6290  136.0883  155.8084 H   0  0  0  0  0  0  0  0  0  0  0  0
  150.9741  135.8936  154.1637 H   0  0  0  0  0  0  0  0  0  0  0  0
  151.1783  134.6504  155.3746 H   0  0  0  0  0  0  0  0  0  0  0  0
  149.0060  134.9087  153.3718 H   0  0  0  0  0  0  0  0  0  0  0  0
  148.0779  133.2935  152.7490 H   0  0  0  0  0  0  0  0  0  0  0  0
  149.4886  130.3974  154.5486 H   0  0  0  0  0  0  0  0  0  0  0  0
  148.6492  128.0944  154.2461 H   0  0  0  0  0  0  0  0  0  0  0  0
  146.5262  127.7377  152.8596 H   0  0  0  0  0  0  0  0  0  0  0  0
  147.1026  133.7742  151.7128 H   0  0  0  0  0  0  0  0  0  0  0  0
  147.1826  132.5659  150.4223 H   0  0  0  0  0  0  0  0  0  0  0  0
  144.9039  134.4715  151.0438 H   0  0  0  0  0  0  0  0  0  0  0  0
  145.6410  134.1556  149.4697 H   0  0  0  0  0  0  0  0  0  0  0  0
  143.3440  132.8598  150.1258 H   0  0  0  0  0  0  0  0  0  0  0  0
  144.6538  131.9533  149.3693 H   0  0  0  0  0  0  0  0  0  0  0  0
  144.5051  130.6307  151.2998 H   0  0  0  0  0  0  0  0  0  0  0  0
  143.8470  131.9583  152.2638 H   0  0  0  0  0  0  0  0  0  0  0  0
  152.2242  137.2247  155.9910 H   0  0  0  0  0  0  0  0  0  0  0  0
  151.6091  137.3671  154.3594 H   0  0  0  0  0  0  0  0  0  0  0  0
  152.8479  139.3593  154.8089 H   0  0  0  0  0  0  0  0  0  0  0  0
  152.9827  139.3415  157.2488 H   0  0  0  0  0  0  0  0  0  0  0  0
  151.2844  139.7535  157.4071 H   0  0  0  0  0  0  0  0  0  0  0  0
  152.4093  140.9100  156.6979 H   0  0  0  0  0  0  0  0  0  0  0  0
  150.0810  137.9549  156.7836 H   0  0  0  0  0  0  0  0  0  0  0  0
  145.4628  129.5735  151.9660 H   0  0  0  0  0  0  0  0  0  0  0  0
  1  2  1  0  0  0  0
  1 26  1  0  0  0  0
  1 27  1  0  0  0  0
  1 28  1  0  0  0  0
  2 25  1  0  0  0  0
  2  3  1  0  0  0  0
  2 29  1  0  0  0  0
  3  4  1  0  0  0  0
  3 30  1  0  0  0  0
  3 31  1  0  0  0  0
  4  5  1  0  0  0  0
  4 22  1  0  0  0  0
  4 55  1  0  0  0  0
  5  6  1  0  0  0  0
  5 32  1  0  0  0  0
  5 33  1  0  0  0  0
  6  7  1  0  0  0  0
  6 34  1  0  0  0  0
  6 35  1  0  0  0  0
  7  8  1  0  0  0  0
  7 36  1  0  0  0  0
  8  9  2  0  0  0  0
  8 10  1  0  0  0  0
 10 11  1  0  0  0  0
 10 37  1  0  0  0  0
 11 16  1  0  0  0  0
 11 12  2  0  0  0  0
 12 13  1  0  0  0  0
 12 38  1  0  0  0  0
 13 14  2  0  0  0  0
 13 39  1  0  0  0  0
 14 15  1  0  0  0  0
 14 40  1  0  0  0  0
 15 16  2  0  0  0  0
 15 56  1  0  0  0  0
 16 17  1  0  0  0  0
 17 21  1  0  0  0  0
 17 18  1  0  0  0  0
 18 19  1  0  0  0  0
 18 41  1  0  0  0  0
 18 42  1  0  0  0  0
 19 20  1  0  0  0  0
 19 43  1  0  0  0  0
 19 44  1  0  0  0  0
 20 21  1  0  0  0  0
 20 45  1  0  0  0  0
 20 46  1  0  0  0  0
 21 47  1  0  0  0  0
 21 48  1  0  0  0  0
 22 23  1  0  0  0  0
 22 49  1  0  0  0  0
 22 50  1  0  0  0  0
 23 24  1  0  0  0  0
 23 25  1  0  0  0  0
 23 51  1  0  0  0  0
 24 52  1  0  0  0  0
 24 53  1  0  0  0  0
 24 54  1  0  0  0  0
M  CHG  1   4   1
M  CHG  1  15   1
M  END
> <s_m_source_file>
AV-unprocessed.smi

> <i_m_source_file_index>
1244

> <i_lp_mmshare_version>
43012

> <i_f3d_flags>
0

> <s_epik_input>
W0NIM11bQ0BASF0xW0NIMl1OKFtDSDJdW0NASF0oTzEpW0NIM10pW0NIMl1bQ0gyXVtOSF1DKD1PKVtOSF1jMltjSF1bY0hdW2NIXW5jMk4zW0NIMl1bQ0gyXVtDSDJdW0NIMl0z

> <s_epik_cmdline>
J2VwaWtfcHl0aG9uJywgJy1waCcsICc3LjAnLCAnLXRuJywgJzgnLCAnLW1hJywgJzIwMCcsICctbWV0YWxfYmluZGluZycsICctaW1hZScsICc8aW5maWxlLm1hZT4nLCAnLW9tYWUnLCAnPG91dGZpbGUubWFlPic=

> <r_lp_tautomer_probability>
0.999994

> <r_epik_Ionization_Penalty>
1.81601

> <r_epik_Ionization_Penalty_Charging>
1.81599

> <r_epik_Ionization_Penalty_Neutral>
2.01972e-05

> <r_epik_State_Penalty>
1.85672

> <r_epik_Charging_Adjusted_Penalty>
3.6727

> <i_epik_Tot_Q>
2

> <i_epik_Tot_abs_Q>
2

> <r_epik_Metal_State_Penalty>
1.93796

> <b_epik_Metal_Only>
0

> <s_lp_Force_Field>
OPLS_2005

> <r_lp_Energy>
54.6365

> <b_lp_Chiralities_Consistent>
1

> <s_lp_Variant>
AV-unprocessed.smi:1244-14

> <Gold.Version>
5.8.1

> <Gold.Id.Protein>
6NUR|6NUR_protein|mol2

> <Gold.PLP.Fitness>
44.3561

> <Gold.PLP.PLP>
-40.3760

> <Gold.PLP.part.hbond>
-2.0000

> <Gold.PLP.part.metal>
0.0000

> <Gold.PLP.part.buried>
-4.4686

> <Gold.PLP.part.nonpolar>
-33.7635

> <Gold.PLP.part.repulsive>
0.2588

> <Gold.PLP.ligand.clash>
0.0000

> <Gold.PLP.ligand.torsion>
1.1868

> <Gold.PLP.Chemscore.Hbond>
1.9760

> <Gold.PLP.Chemscore.CHOScore>
0.0000

> <Gold.PLP.Chemscore.Metal>
0.0000

> <Gold.Chemscore.Hbonds>
donor molecule, donor type, donor heavy atom, donor atom, acceptor molecule, acceptor atom, score
      L1  H     7    36       P1  7948  0.94
      P1  H  7989  7998       L1    25  1.00

> <Gold.PLP.Chemscore.Internal.Correction>
0.4258

> <Gold.Rescore>
     Score         DG    S(hbond)    S(metal)    S(lipo)     H(rot)  DE(clash)    DE(int)     intcor
     14.69     -17.21       1.27        0.00      99.62       1.63       0.09       2.43       ----

> <Gold.Chemscore.Fitness>
14.6873

> <Gold.Chemscore.DG>
-17.2136

> <Gold.Chemscore.ZeroCoef>
-5.4800

> <Gold.Chemscore.Hbond>
1.2722

> <Gold.Chemscore.Metal>
0.0000

> <Gold.Chemscore.Lipo>
99.6192

> <Gold.Chemscore.Internal_Hbond>
0.0000

> <Gold.Chemscore.DEClash>
0.0931

> <Gold.Chemscore.DEInternal>
2.4332

> <Gold.Chemscore.Rot>
1.6293

> <Gold.Chemscore.Internal.Correction>
   9.000000E+99

> <Gold.Chemscore.Hbonds>
donor molecule, donor type, donor heavy atom, donor atom, acceptor molecule, acceptor atom, score
      L1  H     7    36       P1  7948  0.20
      P1  H  7989  7998       L1    25  0.75

> <Gold.Chemscore.Hbond.Weighted>
-4.2491

> <Gold.Chemscore.Metal.Weighted>
-0.0000

> <Gold.Chemscore.Lipo.Weighted>
-11.6554

> <Gold.Chemscore.Internal_Hbond.Weighted>
0.0000

> <Gold.Chemscore.DEClash.Weighted>
0.0931

> <Gold.Chemscore.DEInternal.Weighted>
2.4332

> <Gold.Chemscore.Rot.Weighted>
4.1709

> <Gold.Chemscore.Internal.Correction.Weighted>
   9.000000E+99

> <Gold.Protein.RotatedTorsions>
[ 6907 6896 6895 6894 ] final   11.28 input  -60.11 | X-H torsion
[ 7974 7965 7964 7962 ] final  102.38 input  175.53 | X-H torsion
[ 8008 7997 7996 7995 ] final  -42.15 input   59.86 | X-H torsion
[ 10167 10162 10161 10158 ] final -113.45 input  -65.29 | X-H torsion
[ 10718 10713 10712 10709 ] final   82.41 input   66.30 | X-H torsion
[ 10763 10752 10751 10750 ] final   62.11 input  -60.55 | X-H torsion
[ 11005 11000 10999 10996 ] final   37.38 input  -57.11 | X-H torsion

> <Gold.Protein.ActiveResidues>
 VAL166  LYS551  ARG553  GLY616  TRP617  ASP618  TYR619  PRO620  LYS621  CYS622 
 ASP623  PHE694  ASN695  SER759  ASP760  ASP761  ALA762  ILE779  LEU786  VAL792 
 PHE793  MET794  SER795  GLU796  ALA797  LYS798  CYS799  TRP800  GLU811  SER814 

> <Gold.Protein.RotatedAtoms>
  151.7518  135.0831  160.0331 H   0  0  0  0  0  0  0  0  0  0  0  0  # atno 6907 bound_to 6896
  152.3412  133.6064  159.5886 H   0  0  0  0  0  0  0  0  0  0  0  0  # atno 6908 bound_to 6896
  150.7480  133.9636  159.3565 H   0  0  0  0  0  0  0  0  0  0  0  0  # atno 6909 bound_to 6896
  145.3599  139.2420  143.3512 H   0  0  0  0  0  0  0  0  0  0  0  0  # atno 7974 bound_to 7965
  154.4000  140.1481  156.3308 H   0  0  0  0  0  0  0  0  0  0  0  0  # atno 8008 bound_to 7997
  155.8445  140.3460  155.5632 H   0  0  0  0  0  0  0  0  0  0  0  0  # atno 8009 bound_to 7997
  155.8051  140.0876  157.1926 H   0  0  0  0  0  0  0  0  0  0  0  0  # atno 8010 bound_to 7997
  140.1117  143.4521  152.1748 H   0  0  0  0  0  0  0  0  0  0  0  0  # atno 10167 bound_to 10162
  157.6856  131.0046  150.2371 H   0  0  0  0  0  0  0  0  0  0  0  0  # atno 10718 bound_to 10713
  152.9972  135.5476  154.6141 H   0  0  0  0  0  0  0  0  0  0  0  0  # atno 10763 bound_to 10752
  154.5455  135.2823  155.1058 H   0  0  0  0  0  0  0  0  0  0  0  0  # atno 10764 bound_to 10752
  154.2319  135.6432  153.5230 H   0  0  0  0  0  0  0  0  0  0  0  0  # atno 10765 bound_to 10752
  140.2231  134.3617  155.7996 H   0  0  0  0  0  0  0  0  0  0  0  0  # atno 11005 bound_to 11000
  146.2932  140.4231  142.8731 LP  0  0  0  0  0  0  0  0  0  0  0  0  # atno 17320 bound_to 7965
  144.8654  140.7199  143.6080 LP  0  0  0  0  0  0  0  0  0  0  0  0  # atno 17321 bound_to 7965
  139.5615  144.7409  151.4140 LP  0  0  0  0  0  0  0  0  0  0  0  0  # atno 17342 bound_to 10162
  140.6922  143.7835  150.7272 LP  0  0  0  0  0  0  0  0  0  0  0  0  # atno 17343 bound_to 10162
  156.2992  130.3756  149.7766 LP  0  0  0  0  0  0  0  0  0  0  0  0  # atno 17370 bound_to 10713
  156.5402  130.8296  151.3266 LP  0  0  0  0  0  0  0  0  0  0  0  0  # atno 17371 bound_to 10713
  141.2222  133.7204  156.8608 LP  0  0  0  0  0  0  0  0  0  0  0  0  # atno 17394 bound_to 11000
  140.1829  134.9020  157.2970 LP  0  0  0  0  0  0  0  0  0  0  0  0  # atno 17395 bound_to 11000

$$$$
