AV-unprocessed.smi:544|AV-procd|sdf|2880|dock6
  -GOLD-   2262023373D 1   1.00000     0.00000
 Structure written by MMmdl.
 48 50  0  0  0  0  0  0  0  0  2 V2000
  151.3437  131.9392  155.9282 C   0  0  0  0  0  0  0  0  0  0  0  0
  150.7900  131.7728  157.3450 C   0  0  0  0  0  0  0  0  0  0  0  0
  150.0429  132.9300  157.6740 O   0  0  0  0  0  0  0  0  0  0  0  0
  148.9956  133.2036  156.7602 C   0  0  0  0  0  0  0  0  0  0  0  0
  148.1713  134.4261  157.2166 C   0  0  0  0  0  0  0  0  0  0  0  0
  148.9946  135.5025  157.7690 N   0  0  0  0  0  0  0  0  0  0  0  0
  148.9516  136.0780  159.0101 C   0  0  0  0  0  0  0  0  0  0  0  0
  148.0819  135.6896  160.0453 N   0  0  0  0  0  0  0  0  0  0  0  0
  147.3560  134.4309  160.2340 C   0  0  0  0  0  0  0  0  0  0  0  0
  147.6817  133.7804  161.5901 C   0  0  0  0  0  0  0  0  0  0  0  0
  147.3284  134.7333  162.7384 C   0  0  0  0  0  0  0  0  0  0  0  0
  147.9752  136.1080  162.5026 C   0  0  2  0  0  0  0  0  0  0  0  0
  147.5585  137.1177  163.5804 C   0  0  0  0  0  0  0  0  0  0  0  0
  147.6295  136.6173  161.0881 C   0  0  0  0  0  0  0  0  0  0  0  0
  149.8626  137.0382  159.1907 N   0  0  0  0  0  0  0  0  0  0  0  0
  150.5482  137.0733  157.9910 C   0  0  0  0  0  0  0  0  0  0  0  0
  150.0695  136.1398  157.1278 C   0  0  0  0  0  0  0  0  0  0  0  0
  150.6563  135.8973  155.7861 C   0  0  0  0  0  0  0  0  0  0  0  0
  150.2448  134.9952  155.0597 O   0  0  0  0  0  0  0  0  0  0  0  0
  151.6759  136.7668  155.4987 N   0  5  0  0  0  0  0  0  0  0  0  0
  152.1733  137.7378  156.3393 C   0  0  0  0  0  0  0  0  0  0  0  0
  153.0966  138.4799  156.0015 O   0  0  0  0  0  0  0  0  0  0  0  0
  151.6370  137.8938  157.5893 N   0  0  0  0  0  0  0  0  0  0  0  0
  152.1576  138.9064  158.5125 C   0  0  0  0  0  0  0  0  0  0  0  0
  151.9280  131.0678  155.6320 H   0  0  0  0  0  0  0  0  0  0  0  0
  151.9903  132.8152  155.8631 H   0  0  0  0  0  0  0  0  0  0  0  0
  150.5371  132.0644  155.2053 H   0  0  0  0  0  0  0  0  0  0  0  0
  150.1557  130.8866  157.3971 H   0  0  0  0  0  0  0  0  0  0  0  0
  151.6089  131.6388  158.0531 H   0  0  0  0  0  0  0  0  0  0  0  0
  149.4323  133.3684  155.7766 H   0  0  0  0  0  0  0  0  0  0  0  0
  148.3404  132.3353  156.6801 H   0  0  0  0  0  0  0  0  0  0  0  0
  147.5652  134.8096  156.4006 H   0  0  0  0  0  0  0  0  0  0  0  0
  147.4396  134.1226  157.9633 H   0  0  0  0  0  0  0  0  0  0  0  0
  146.2857  134.6347  160.1766 H   0  0  0  0  0  0  0  0  0  0  0  0
  147.5500  133.7334  159.4291 H   0  0  0  0  0  0  0  0  0  0  0  0
  147.1302  132.8464  161.6986 H   0  0  0  0  0  0  0  0  0  0  0  0
  148.7402  133.5241  161.6392 H   0  0  0  0  0  0  0  0  0  0  0  0
  146.2446  134.8406  162.7984 H   0  0  0  0  0  0  0  0  0  0  0  0
  147.6550  134.3140  163.6904 H   0  0  0  0  0  0  0  0  0  0  0  0
  149.0584  135.9901  162.5617 H   0  0  0  0  0  0  0  0  0  0  0  0
  146.4800  137.2788  163.5769 H   0  0  0  0  0  0  0  0  0  0  0  0
  148.0391  138.0829  163.4197 H   0  0  0  0  0  0  0  0  0  0  0  0
  147.8406  136.7699  164.5743 H   0  0  0  0  0  0  0  0  0  0  0  0
  148.0895  137.5955  160.9469 H   0  0  0  0  0  0  0  0  0  0  0  0
  146.5540  136.7736  160.9918 H   0  0  0  0  0  0  0  0  0  0  0  0
  153.2193  138.7424  158.7013 H   0  0  0  0  0  0  0  0  0  0  0  0
  151.6522  138.8971  159.4779 H   0  0  0  0  0  0  0  0  0  0  0  0
  152.0360  139.9047  158.0904 H   0  0  0  0  0  0  0  0  0  0  0  0
  1  2  1  0  0  0  0
  1 25  1  0  0  0  0
  1 26  1  0  0  0  0
  1 27  1  0  0  0  0
  2  3  1  0  0  0  0
  2 28  1  0  0  0  0
  2 29  1  0  0  0  0
  3  4  1  0  0  0  0
  4  5  1  0  0  0  0
  4 30  1  0  0  0  0
  4 31  1  0  0  0  0
  5  6  1  0  0  0  0
  5 32  1  0  0  0  0
  5 33  1  0  0  0  0
  6 17  1  0  0  0  0
  6  7  1  0  0  0  0
  7  8  1  0  0  0  0
  7 15  2  0  0  0  0
  8 14  1  0  0  0  0
  8  9  1  0  0  0  0
  9 10  1  0  0  0  0
  9 34  1  0  0  0  0
  9 35  1  0  0  0  0
 10 11  1  0  0  0  0
 10 36  1  0  0  0  0
 10 37  1  0  0  0  0
 11 12  1  0  0  0  0
 11 38  1  0  0  0  0
 11 39  1  0  0  0  0
 12 13  1  0  0  0  0
 12 14  1  0  0  0  0
 12 40  1  0  0  0  0
 13 41  1  0  0  0  0
 13 42  1  0  0  0  0
 13 43  1  0  0  0  0
 14 44  1  0  0  0  0
 14 45  1  0  0  0  0
 15 16  1  0  0  0  0
 16 23  1  0  0  0  0
 16 17  2  0  0  0  0
 17 18  1  0  0  0  0
 18 19  2  0  0  0  0
 18 20  1  0  0  0  0
 20 21  1  0  0  0  0
 21 22  2  0  0  0  0
 21 23  1  0  0  0  0
 23 24  1  0  0  0  0
 24 46  1  0  0  0  0
 24 47  1  0  0  0  0
 24 48  1  0  0  0  0
M  CHG  1  20  -1
M  END
> <s_m_source_file>
AV-unprocessed.smi

> <i_m_source_file_index>
544

> <i_lp_mmshare_version>
43012

> <i_f3d_flags>
0

> <s_epik_input>
W0NIM11uMWMoPU8pW25IXWMoPU8pYyhjMTIpbihbQ0gyXVtDSDJdT1tDSDJdW0NIM10pYyhuMilOM1tDSDJdW0NIMl1bQ0gyXVtDQEBIXShbQ0gzXSlbQ0gyXTM=

> <s_epik_cmdline>
J2VwaWtfcHl0aG9uJywgJy1waCcsICc3LjAnLCAnLXRuJywgJzgnLCAnLW1hJywgJzIwMCcsICctbWV0YWxfYmluZGluZycsICctaW1hZScsICc8aW5maWxlLm1hZT4nLCAnLW9tYWUnLCAnPG91dGZpbGUubWFlPic=

> <r_lp_tautomer_probability>
1

> <r_epik_Ionization_Penalty>
5.1213

> <r_epik_Ionization_Penalty_Charging>
0.0741877

> <r_epik_Ionization_Penalty_Neutral>
5.04711

> <r_epik_State_Penalty>
5.04142

> <r_epik_Charging_Adjusted_Penalty>
5.11561

> <i_epik_Tot_Q>
-1

> <i_epik_Tot_abs_Q>
1

> <r_epik_Metal_State_Penalty>
1.14934

> <b_epik_Metal_Only>
1

> <s_lp_Force_Field>
OPLS_2005

> <r_lp_Energy>
42.4298

> <b_lp_Chiralities_Consistent>
1

> <s_lp_Variant>
AV-unprocessed.smi:544-4

> <Gold.Version>
5.8.1

> <Gold.Id.Protein>
6NUR|6NUR_protein|mol2

> <Gold.PLP.Fitness>
45.1794

> <Gold.PLP.PLP>
-33.9286

> <Gold.PLP.part.hbond>
-3.0000

> <Gold.PLP.part.metal>
0.0000

> <Gold.PLP.part.buried>
-5.0532

> <Gold.PLP.part.nonpolar>
-26.1815

> <Gold.PLP.part.repulsive>
0.1986

> <Gold.PLP.ligand.clash>
0.0000

> <Gold.PLP.ligand.torsion>
0.3851

> <Gold.PLP.Chemscore.Hbond>
3.9920

> <Gold.PLP.Chemscore.CHOScore>
0.0000

> <Gold.PLP.Chemscore.Metal>
0.0000

> <Gold.Chemscore.Hbonds>
donor molecule, donor type, donor heavy atom, donor atom, acceptor molecule, acceptor atom, score
      P1  H  6896  6908       L1     3  1.00
      P1  H  7997  8010       L1    22  0.89
      P1  H 10752 10764       L1    20  2.00

> <Gold.PLP.Chemscore.Internal.Correction>
0.0450

> <Gold.Rescore>
     Score         DG    S(hbond)    S(metal)    S(lipo)     H(rot)  DE(clash)    DE(int)     intcor
     14.73     -16.92       2.00        0.00      74.69       1.55       0.33       1.86       ----

> <Gold.Chemscore.Fitness>
14.7286

> <Gold.Chemscore.DG>
-16.9165

> <Gold.Chemscore.ZeroCoef>
-5.4800

> <Gold.Chemscore.Hbond>
1.9982

> <Gold.Chemscore.Metal>
0.0000

> <Gold.Chemscore.Lipo>
74.6946

> <Gold.Chemscore.Internal_Hbond>
0.0000

> <Gold.Chemscore.DEClash>
0.3260

> <Gold.Chemscore.DEInternal>
1.8618

> <Gold.Chemscore.Rot>
1.5534

> <Gold.Chemscore.Internal.Correction>
   9.000000E+99

> <Gold.Chemscore.Hbonds>
donor molecule, donor type, donor heavy atom, donor atom, acceptor molecule, acceptor atom, score
      P1  H  6896  6908       L1     3  0.45
      P1  H  7997  8010       L1    22  0.82
      P1  H 10752 10764       L1    20  0.25

> <Gold.Chemscore.Hbond.Weighted>
-6.6740

> <Gold.Chemscore.Metal.Weighted>
-0.0000

> <Gold.Chemscore.Lipo.Weighted>
-8.7393

> <Gold.Chemscore.Internal_Hbond.Weighted>
0.0000

> <Gold.Chemscore.DEClash.Weighted>
0.3260

> <Gold.Chemscore.DEInternal.Weighted>
1.8618

> <Gold.Chemscore.Rot.Weighted>
3.9768

> <Gold.Chemscore.Internal.Correction.Weighted>
   9.000000E+99

> <Gold.Protein.RotatedTorsions>
[ 6907 6896 6895 6894 ] final  107.78 input  -60.11 | X-H torsion
[ 7974 7965 7964 7962 ] final  -72.62 input  175.53 | X-H torsion
[ 8008 7997 7996 7995 ] final   77.76 input   59.86 | X-H torsion
[ 10167 10162 10161 10158 ] final  -65.91 input  -65.29 | X-H torsion
[ 10718 10713 10712 10709 ] final  173.47 input   66.30 | X-H torsion
[ 10763 10752 10751 10750 ] final  -41.69 input  -60.55 | X-H torsion
[ 11005 11000 10999 10996 ] final    7.80 input  -57.11 | X-H torsion

> <Gold.Protein.ActiveResidues>
 VAL166  LYS551  ARG553  GLY616  TRP617  ASP618  TYR619  PRO620  LYS621  CYS622 
 ASP623  PHE694  ASN695  SER759  ASP760  ASP761  ALA762  ILE779  LEU786  VAL792 
 PHE793  MET794  SER795  GLU796  ALA797  LYS798  CYS799  TRP800  GLU811  SER814 

> <Gold.Protein.RotatedAtoms>
  152.5140  133.9185  159.7522 H   0  0  0  0  0  0  0  0  0  0  0  0  # atno 6907 bound_to 6896
  150.9562  133.6486  159.2769 H   0  0  0  0  0  0  0  0  0  0  0  0  # atno 6908 bound_to 6896
  151.3747  135.0934  159.9530 H   0  0  0  0  0  0  0  0  0  0  0  0  # atno 6909 bound_to 6896
  145.6628  140.9247  143.0924 H   0  0  0  0  0  0  0  0  0  0  0  0  # atno 7974 bound_to 7965
  155.8462  140.3460  155.5663 H   0  0  0  0  0  0  0  0  0  0  0  0  # atno 8008 bound_to 7997
  155.8087  140.0896  157.1935 H   0  0  0  0  0  0  0  0  0  0  0  0  # atno 8009 bound_to 7997
  154.4006  140.1452  156.3349 H   0  0  0  0  0  0  0  0  0  0  0  0  # atno 8010 bound_to 7997
  140.5695  143.2317  151.6566 H   0  0  0  0  0  0  0  0  0  0  0  0  # atno 10167 bound_to 10162
  156.9638  131.0069  151.2921 H   0  0  0  0  0  0  0  0  0  0  0  0  # atno 10718 bound_to 10713
  153.9666  135.6733  153.4746 H   0  0  0  0  0  0  0  0  0  0  0  0  # atno 10763 bound_to 10752
  153.0813  135.4922  154.8504 H   0  0  0  0  0  0  0  0  0  0  0  0  # atno 10764 bound_to 10752
  154.7243  135.3124  154.8957 H   0  0  0  0  0  0  0  0  0  0  0  0  # atno 10765 bound_to 10752
  140.5442  134.0345  155.7914 H   0  0  0  0  0  0  0  0  0  0  0  0  # atno 11005 bound_to 11000
  144.7083  139.8471  143.7423 LP  0  0  0  0  0  0  0  0  0  0  0  0  # atno 17320 bound_to 7965
  146.1111  139.4116  143.0287 LP  0  0  0  0  0  0  0  0  0  0  0  0  # atno 17321 bound_to 7965
  139.5110  144.3523  152.0640 LP  0  0  0  0  0  0  0  0  0  0  0  0  # atno 17342 bound_to 10162
  140.2659  144.4017  150.6169 LP  0  0  0  0  0  0  0  0  0  0  0  0  # atno 17343 bound_to 10162
  157.5639  130.8264  149.8302 LP  0  0  0  0  0  0  0  0  0  0  0  0  # atno 17370 bound_to 10713
  156.0311  130.3764  150.1686 LP  0  0  0  0  0  0  0  0  0  0  0  0  # atno 17371 bound_to 10713
  141.1210  133.9462  157.2730 LP  0  0  0  0  0  0  0  0  0  0  0  0  # atno 17394 bound_to 11000
  139.9488  135.0179  156.8933 LP  0  0  0  0  0  0  0  0  0  0  0  0  # atno 17395 bound_to 11000

$$$$
