AV-unprocessed.smi:1727|AV-procd|sdf|6965|dock9
  -GOLD-   22720 8183D 1   1.00000     0.00000
 Structure written by MMmdl.
 49 51  0  0  0  0  0  0  0  0  1 V2000
  152.3092  144.8953  161.9910 C   0  0  0  0  0  0  0  0  0  0  0  0
  152.3117  143.4327  161.5404 C   0  0  0  0  0  0  0  0  0  0  0  0
  151.9528  142.5780  162.3504 O   0  0  0  0  0  0  0  0  0  0  0  0
  152.7009  143.1285  160.2788 N   0  0  0  0  0  0  0  0  0  0  0  0
  152.6671  141.7612  159.7464 C   0  0  0  0  0  0  0  0  0  0  0  0
  151.5428  141.6626  158.6997 C   0  0  0  0  0  0  0  0  0  0  0  0
  151.7212  142.7139  157.5838 C   0  0  0  0  0  0  0  0  0  0  0  0
  150.5482  142.7109  156.7154 N   0  0  0  0  0  0  0  0  0  0  0  0
  150.0542  141.6350  156.0870 C   0  0  0  0  0  0  0  0  0  0  0  0
  150.5426  140.5082  156.1758 O   0  0  0  0  0  0  0  0  0  0  0  0
  148.9843  141.9574  155.3416 N   0  0  0  0  0  0  0  0  0  0  0  0
  148.2241  141.1041  154.4939 C   0  0  0  0  0  0  0  0  0  0  0  0
  148.7308  139.8532  154.0647 C   0  0  0  0  0  0  0  0  0  0  0  0
  147.9184  139.0095  153.2882 C   0  0  0  0  0  0  0  0  0  0  0  0
  146.6173  139.4400  152.9802 C   0  0  0  0  0  0  0  0  0  0  0  0
  146.1155  140.6215  153.3919 N   0  0  0  0  0  0  0  0  0  0  0  0
  146.8918  141.4535  154.1296 C   0  0  0  0  0  0  0  0  0  0  0  0
  146.3179  142.6864  154.5169 N   0  0  0  0  0  0  0  0  0  0  0  0
  145.3495  142.7432  155.6073 C   0  0  0  0  0  0  0  0  0  0  0  0
  144.6784  144.1066  155.4702 C   0  0  0  0  0  0  0  0  0  0  0  0
  144.6306  144.2949  153.9574 C   0  0  0  0  0  0  0  0  0  0  0  0
  145.9148  143.6182  153.4673 C   0  0  0  0  0  0  0  0  0  0  0  0
  151.9599  144.1243  158.1708 C   0  0  0  0  0  0  0  0  0  0  0  0
  153.0640  144.1034  159.2428 C   0  0  0  0  0  0  0  0  0  0  0  0
  151.6523  145.4939  161.3594 H   0  0  0  0  0  0  0  0  0  0  0  0
  153.3156  145.3129  161.9543 H   0  0  0  0  0  0  0  0  0  0  0  0
  151.9513  144.9803  163.0177 H   0  0  0  0  0  0  0  0  0  0  0  0
  153.6289  141.5276  159.2875 H   0  0  0  0  0  0  0  0  0  0  0  0
  152.5185  141.0088  160.5220 H   0  0  0  0  0  0  0  0  0  0  0  0
  151.5213  140.6604  158.2705 H   0  0  0  0  0  0  0  0  0  0  0  0
  150.5816  141.8073  159.1958 H   0  0  0  0  0  0  0  0  0  0  0  0
  152.5996  142.4299  157.0012 H   0  0  0  0  0  0  0  0  0  0  0  0
  150.0816  143.5957  156.5799 H   0  0  0  0  0  0  0  0  0  0  0  0
  148.7578  142.9396  155.2843 H   0  0  0  0  0  0  0  0  0  0  0  0
  149.7200  139.5191  154.3393 H   0  0  0  0  0  0  0  0  0  0  0  0
  148.2799  138.0502  152.9485 H   0  0  0  0  0  0  0  0  0  0  0  0
  145.9591  138.8176  152.3924 H   0  0  0  0  0  0  0  0  0  0  0  0
  144.5993  141.9584  155.5016 H   0  0  0  0  0  0  0  0  0  0  0  0
  145.8353  142.6265  156.5766 H   0  0  0  0  0  0  0  0  0  0  0  0
  143.6947  144.1461  155.9386 H   0  0  0  0  0  0  0  0  0  0  0  0
  145.3028  144.8783  155.9226 H   0  0  0  0  0  0  0  0  0  0  0  0
  143.7631  143.7729  153.5513 H   0  0  0  0  0  0  0  0  0  0  0  0
  144.5631  145.3412  153.6594 H   0  0  0  0  0  0  0  0  0  0  0  0
  146.7001  144.3636  153.3390 H   0  0  0  0  0  0  0  0  0  0  0  0
  145.7618  143.1190  152.5095 H   0  0  0  0  0  0  0  0  0  0  0  0
  152.2288  144.8222  157.3769 H   0  0  0  0  0  0  0  0  0  0  0  0
  151.0377  144.5021  158.6148 H   0  0  0  0  0  0  0  0  0  0  0  0
  153.2264  145.1095  159.6261 H   0  0  0  0  0  0  0  0  0  0  0  0
  154.0128  143.8092  158.7918 H   0  0  0  0  0  0  0  0  0  0  0  0
  1  2  1  0  0  0  0
  1 25  1  0  0  0  0
  1 26  1  0  0  0  0
  1 27  1  0  0  0  0
  2  3  2  0  0  0  0
  2  4  1  0  0  0  0
  4 24  1  0  0  0  0
  4  5  1  0  0  0  0
  5  6  1  0  0  0  0
  5 28  1  0  0  0  0
  5 29  1  0  0  0  0
  6  7  1  0  0  0  0
  6 30  1  0  0  0  0
  6 31  1  0  0  0  0
  7  8  1  0  0  0  0
  7 23  1  0  0  0  0
  7 32  1  0  0  0  0
  8  9  1  0  0  0  0
  8 33  1  0  0  0  0
  9 10  2  0  0  0  0
  9 11  1  0  0  0  0
 11 12  1  0  0  0  0
 11 34  1  0  0  0  0
 12 17  1  0  0  0  0
 12 13  2  0  0  0  0
 13 14  1  0  0  0  0
 13 35  1  0  0  0  0
 14 15  2  0  0  0  0
 14 36  1  0  0  0  0
 15 16  1  0  0  0  0
 15 37  1  0  0  0  0
 16 17  2  0  0  0  0
 17 18  1  0  0  0  0
 18 22  1  0  0  0  0
 18 19  1  0  0  0  0
 19 20  1  0  0  0  0
 19 38  1  0  0  0  0
 19 39  1  0  0  0  0
 20 21  1  0  0  0  0
 20 40  1  0  0  0  0
 20 41  1  0  0  0  0
 21 22  1  0  0  0  0
 21 42  1  0  0  0  0
 21 43  1  0  0  0  0
 22 44  1  0  0  0  0
 22 45  1  0  0  0  0
 23 24  1  0  0  0  0
 23 46  1  0  0  0  0
 23 47  1  0  0  0  0
 24 48  1  0  0  0  0
 24 49  1  0  0  0  0
M  END
> <s_m_source_file>
AV-unprocessed.smi

> <i_m_source_file_index>
1727

> <i_lp_mmshare_version>
43012

> <i_f3d_flags>
0

> <s_epik_input>
W0NIM11DKD1PKU4xW0NIMl1bQ0gyXVtDSF0oW0NIMl1bQ0gyXTEpW05IXUMoPU8pW05IXWMyW2NIXVtjSF1bY0hdbmMyTjNbQ0gyXVtDSDJdW0NIMl1bQ0gyXTM=

> <s_epik_cmdline>
J2VwaWtfcHl0aG9uJywgJy1waCcsICc3LjAnLCAnLXRuJywgJzgnLCAnLW1hJywgJzIwMCcsICctbWV0YWxfYmluZGluZycsICctaW1hZScsICc8aW5maWxlLm1hZT4nLCAnLW9tYWUnLCAnPG91dGZpbGUubWFlPic=

> <r_lp_tautomer_probability>
1

> <r_epik_Ionization_Penalty>
0.102256

> <r_epik_Ionization_Penalty_Charging>
0

> <r_epik_Ionization_Penalty_Neutral>
0.102256

> <r_epik_State_Penalty>
0.0916633

> <r_epik_Charging_Adjusted_Penalty>
0.0916633

> <i_epik_Tot_Q>
0

> <i_epik_Tot_abs_Q>
0

> <r_epik_Metal_State_Penalty>
0.0781079

> <b_epik_Metal_Only>
0

> <s_lp_Force_Field>
OPLS_2005

> <r_lp_Energy>
49.5361

> <b_lp_Chiralities_Consistent>
1

> <s_lp_Variant>
AV-unprocessed.smi:1727-1

> <Gold.Version>
5.8.1

> <Gold.Id.Protein>
6NUR|6NUR_protein|mol2

> <Gold.PLP.Fitness>
47.0623

> <Gold.PLP.PLP>
-38.3492

> <Gold.PLP.part.hbond>
-3.0000

> <Gold.PLP.part.metal>
0.0000

> <Gold.PLP.part.buried>
-0.8083

> <Gold.PLP.part.nonpolar>
-40.2978

> <Gold.PLP.part.repulsive>
5.6939

> <Gold.PLP.ligand.clash>
0.0000

> <Gold.PLP.ligand.torsion>
0.3231

> <Gold.PLP.Chemscore.Hbond>
2.8775

> <Gold.PLP.Chemscore.CHOScore>
0.1281

> <Gold.PLP.Chemscore.Metal>
0.0000

> <Gold.Chemscore.Hbonds>
donor molecule, donor type, donor heavy atom, donor atom, acceptor molecule, acceptor atom, score
      L1  H     8    33       P1  8028  1.00
      L1  H    11    34       P1  8028  1.00
      P1  H  6933  6945       L1     3  0.89
      L1  C    15    37       P1 10175  0.11

> <Gold.PLP.Chemscore.Internal.Correction>
0.3427

> <Gold.Rescore>
     Score         DG    S(hbond)    S(metal)    S(lipo)     H(rot)  DE(clash)    DE(int)     intcor
     17.77     -25.24       2.92        0.00     112.10       1.21       4.73       2.74       ----

> <Gold.Chemscore.Fitness>
17.7741

> <Gold.Chemscore.DG>
-25.2391

> <Gold.Chemscore.ZeroCoef>
-5.4800

> <Gold.Chemscore.Hbond>
2.9177

> <Gold.Chemscore.Metal>
0.0000

> <Gold.Chemscore.Lipo>
112.1025

> <Gold.Chemscore.Internal_Hbond>
0.0000

> <Gold.Chemscore.DEClash>
4.7298

> <Gold.Chemscore.DEInternal>
2.7352

> <Gold.Chemscore.Rot>
1.2117

> <Gold.Chemscore.Internal.Correction>
   9.000000E+99

> <Gold.Chemscore.Hbonds>
donor molecule, donor type, donor heavy atom, donor atom, acceptor molecule, acceptor atom, score
      L1  H     8    33       P1  8028  0.97
      L1  H    11    34       P1  8028  0.99
      P1  H  6933  6945       L1     3  0.84

> <Gold.Chemscore.Hbond.Weighted>
-9.7450

> <Gold.Chemscore.Metal.Weighted>
-0.0000

> <Gold.Chemscore.Lipo.Weighted>
-13.1160

> <Gold.Chemscore.Internal_Hbond.Weighted>
0.0000

> <Gold.Chemscore.DEClash.Weighted>
4.7298

> <Gold.Chemscore.DEInternal.Weighted>
2.7352

> <Gold.Chemscore.Rot.Weighted>
3.1019

> <Gold.Chemscore.Internal.Correction.Weighted>
   9.000000E+99

> <Gold.Protein.RotatedTorsions>
[ 6907 6896 6895 6894 ] final   28.67 input  -60.11 | X-H torsion
[ 7974 7965 7964 7962 ] final   50.91 input  175.53 | X-H torsion
[ 8008 7997 7996 7995 ] final  178.54 input   59.86 | X-H torsion
[ 10167 10162 10161 10158 ] final  119.95 input  -65.29 | X-H torsion
[ 10718 10713 10712 10709 ] final  -41.37 input   66.30 | X-H torsion
[ 10763 10752 10751 10750 ] final  -38.11 input  -60.55 | X-H torsion
[ 11005 11000 10999 10996 ] final   56.03 input  -57.11 | X-H torsion

> <Gold.Protein.ActiveResidues>
 VAL166  LYS551  ARG553  GLY616  TRP617  ASP618  TYR619  PRO620  LYS621  CYS622 
 ASP623  PHE694  ASN695  SER759  ASP760  ASP761  ALA762  ILE779  LEU786  VAL792 
 PHE793  MET794  SER795  GLU796  ALA797  LYS798  CYS799  TRP800  GLU811  SER814 

> <Gold.Protein.RotatedAtoms>
  152.0204  134.9826  160.0570 H   0  0  0  0  0  0  0  0  0  0  0  0  # atno 6907 bound_to 6896
  152.1342  133.4421  159.4744 H   0  0  0  0  0  0  0  0  0  0  0  0  # atno 6908 bound_to 6896
  150.6859  134.2302  159.4474 H   0  0  0  0  0  0  0  0  0  0  0  0  # atno 6909 bound_to 6896
  145.9966  139.4394  143.0041 H   0  0  0  0  0  0  0  0  0  0  0  0  # atno 7974 bound_to 7965
  156.0535  140.1331  157.0023 H   0  0  0  0  0  0  0  0  0  0  0  0  # atno 8008 bound_to 7997
  154.4446  140.1006  156.6482 H   0  0  0  0  0  0  0  0  0  0  0  0  # atno 8009 bound_to 7997
  155.5487  140.3462  155.4465 H   0  0  0  0  0  0  0  0  0  0  0  0  # atno 8010 bound_to 7997
  139.6013  144.7057  151.3056 H   0  0  0  0  0  0  0  0  0  0  0  0  # atno 10167 bound_to 10162
  156.2711  130.4207  149.8437 H   0  0  0  0  0  0  0  0  0  0  0  0  # atno 10718 bound_to 10713
  153.9074  135.6796  153.4752 H   0  0  0  0  0  0  0  0  0  0  0  0  # atno 10763 bound_to 10752
  153.1096  135.4789  154.9010 H   0  0  0  0  0  0  0  0  0  0  0  0  # atno 10764 bound_to 10752
  154.7544  135.3193  154.8452 H   0  0  0  0  0  0  0  0  0  0  0  0  # atno 10765 bound_to 10752
  140.0561  134.5668  155.9206 H   0  0  0  0  0  0  0  0  0  0  0  0  # atno 11005 bound_to 11000
  145.7551  140.9957  143.1230 LP  0  0  0  0  0  0  0  0  0  0  0  0  # atno 17320 bound_to 7965
  144.6905  139.9262  143.7470 LP  0  0  0  0  0  0  0  0  0  0  0  0  # atno 17321 bound_to 7965
  140.7252  143.7025  150.7834 LP  0  0  0  0  0  0  0  0  0  0  0  0  # atno 17342 bound_to 10162
  140.0602  143.5163  152.2631 LP  0  0  0  0  0  0  0  0  0  0  0  0  # atno 17343 bound_to 10162
  156.5918  130.8509  151.3410 LP  0  0  0  0  0  0  0  0  0  0  0  0  # atno 17370 bound_to 10713
  157.7284  130.9656  150.1741 LP  0  0  0  0  0  0  0  0  0  0  0  0  # atno 17371 bound_to 10713
  141.1952  133.6586  156.5634 LP  0  0  0  0  0  0  0  0  0  0  0  0  # atno 17394 bound_to 11000
  140.3842  134.7497  157.4680 LP  0  0  0  0  0  0  0  0  0  0  0  0  # atno 17395 bound_to 11000

$$$$
