AV-unprocessed.smi:3086|AV-procd|sdf|11765|dock2
  -GOLD-   2272017143D 1   1.00000     0.00000
 Structure written by MMmdl.
 30 31  0  0  0  0  0  0  0  0  2 V2000
  152.9043  138.3373  154.7047 C   0  0  0  0  0  0  0  0  0  0  0  0
  152.1198  139.4006  155.3943 C   0  0  0  0  0  0  0  0  0  0  0  0
  150.9925  139.9549  154.8627 N   0  0  0  0  0  0  0  0  0  0  0  0
  150.6737  140.8123  155.8261 C   0  0  0  0  0  0  0  0  0  0  0  0
  149.4723  141.7002  155.7936 C   0  0  0  0  0  0  0  0  0  0  0  0
  151.5446  140.7999  156.8469 N   0  0  0  0  0  0  0  0  0  0  0  0
  151.5433  141.5339  158.1082 C   0  0  1  0  0  0  0  0  0  0  0  0
  152.6797  141.0462  159.0270 C   0  0  0  0  0  0  0  0  0  0  0  0
  152.6759  141.8311  160.3478 C   0  0  0  0  0  0  0  0  0  0  0  0
  152.7357  143.3459  160.0891 C   0  0  0  0  0  0  0  0  0  0  0  0
  151.6317  143.7704  159.2006 N   0  3  0  0  0  0  0  0  0  0  0  0
  151.6344  143.0635  157.9012 C   0  0  0  0  0  0  0  0  0  0  0  0
  152.4876  139.8608  156.5872 N   0  0  0  0  0  0  0  0  0  0  0  0
  152.4109  138.0303  153.7821 H   0  0  0  0  0  0  0  0  0  0  0  0
  153.0046  137.4633  155.3488 H   0  0  0  0  0  0  0  0  0  0  0  0
  153.9011  138.7033  154.4573 H   0  0  0  0  0  0  0  0  0  0  0  0
  148.8365  141.4501  154.9437 H   0  0  0  0  0  0  0  0  0  0  0  0
  149.7787  142.7424  155.7029 H   0  0  0  0  0  0  0  0  0  0  0  0
  148.8884  141.5807  156.7065 H   0  0  0  0  0  0  0  0  0  0  0  0
  150.5937  141.3290  158.6044 H   0  0  0  0  0  0  0  0  0  0  0  0
  152.5716  139.9796  159.2288 H   0  0  0  0  0  0  0  0  0  0  0  0
  153.6428  141.1727  158.5301 H   0  0  0  0  0  0  0  0  0  0  0  0
  151.7747  141.5906  160.9135 H   0  0  0  0  0  0  0  0  0  0  0  0
  153.5197  141.5237  160.9661 H   0  0  0  0  0  0  0  0  0  0  0  0
  152.6676  143.8936  161.0293 H   0  0  0  0  0  0  0  0  0  0  0  0
  153.6885  143.6147  159.6311 H   0  0  0  0  0  0  0  0  0  0  0  0
  150.7545  143.5852  159.6659 H   0  0  0  0  0  0  0  0  0  0  0  0
  152.5437  143.3360  157.3636 H   0  0  0  0  0  0  0  0  0  0  0  0
  150.7927  143.4175  157.3052 H   0  0  0  0  0  0  0  0  0  0  0  0
  151.7088  144.7638  159.0332 H   0  0  0  0  0  0  0  0  0  0  0  0
  1  2  1  0  0  0  0
  1 14  1  0  0  0  0
  1 15  1  0  0  0  0
  1 16  1  0  0  0  0
  2 13  2  0  0  0  0
  2  3  1  0  0  0  0
  3  4  2  0  0  0  0
  4  5  1  0  0  0  0
  4  6  1  0  0  0  0
  5 17  1  0  0  0  0
  5 18  1  0  0  0  0
  5 19  1  0  0  0  0
  6  7  1  0  0  0  0
  6 13  1  0  0  0  0
  7 12  1  0  0  0  0
  7  8  1  0  0  0  0
  7 20  1  0  0  0  0
  8  9  1  0  0  0  0
  8 21  1  0  0  0  0
  8 22  1  0  0  0  0
  9 10  1  0  0  0  0
  9 23  1  0  0  0  0
  9 24  1  0  0  0  0
 10 11  1  0  0  0  0
 10 25  1  0  0  0  0
 10 26  1  0  0  0  0
 11 12  1  0  0  0  0
 11 27  1  0  0  0  0
 11 30  1  0  0  0  0
 12 28  1  0  0  0  0
 12 29  1  0  0  0  0
M  CHG  1  11   1
M  END
> <s_m_source_file>
AV-unprocessed.smi

> <i_m_source_file_index>
3086

> <i_lp_mmshare_version>
43012

> <i_f3d_flags>
0

> <s_epik_input>
W0NIM11jMW5jKFtDSDNdKW4objEpW0NAQEhdMltDSDJdW0NIMl1bQ0gyXVtOSF1bQ0gyXTI=

> <s_epik_cmdline>
J2VwaWtfcHl0aG9uJywgJy1waCcsICc3LjAnLCAnLXRuJywgJzgnLCAnLW1hJywgJzIwMCcsICctbWV0YWxfYmluZGluZycsICctaW1hZScsICc8aW5maWxlLm1hZT4nLCAnLW9tYWUnLCAnPG91dGZpbGUubWFlPic=

> <r_lp_tautomer_probability>
1

> <r_epik_Ionization_Penalty>
0.000522417

> <r_epik_Ionization_Penalty_Charging>
0.000474443

> <r_epik_Ionization_Penalty_Neutral>
4.79736e-05

> <r_epik_State_Penalty>
-0

> <r_epik_Charging_Adjusted_Penalty>
0.000474443

> <i_epik_Tot_Q>
1

> <i_epik_Tot_abs_Q>
1

> <r_epik_Metal_State_Penalty>
-0

> <b_epik_Metal_Only>
0

> <s_lp_Force_Field>
OPLS_2005

> <r_lp_Energy>
16.4369

> <b_lp_Chiralities_Consistent>
1

> <s_lp_Variant>
AV-unprocessed.smi:3086-2

> <Gold.Version>
5.8.1

> <Gold.Id.Protein>
6NUR|6NUR_protein|mol2

> <Gold.PLP.Fitness>
36.0542

> <Gold.PLP.PLP>
-30.0735

> <Gold.PLP.part.hbond>
-2.0000

> <Gold.PLP.part.metal>
0.0000

> <Gold.PLP.part.buried>
-2.7879

> <Gold.PLP.part.nonpolar>
-25.7137

> <Gold.PLP.part.repulsive>
0.1120

> <Gold.PLP.ligand.clash>
0.0000

> <Gold.PLP.ligand.torsion>
0.0302

> <Gold.PLP.Chemscore.Hbond>
2.0000

> <Gold.PLP.Chemscore.CHOScore>
0.0000

> <Gold.PLP.Chemscore.Metal>
0.0000

> <Gold.Chemscore.Hbonds>
donor molecule, donor type, donor heavy atom, donor atom, acceptor molecule, acceptor atom, score
      P1  H  7989  7998       L1     3  1.00
      P1  H  7997  8010       L1    13  0.95

> <Gold.PLP.Chemscore.Internal.Correction>
0.0412

> <Gold.Rescore>
     Score         DG    S(hbond)    S(metal)    S(lipo)     H(rot)  DE(clash)    DE(int)     intcor
     13.69     -13.78       0.97        0.00      65.18       1.00       0.06       0.04       ----

> <Gold.Chemscore.Fitness>
13.6857

> <Gold.Chemscore.DG>
-13.7806

> <Gold.Chemscore.ZeroCoef>
-5.4800

> <Gold.Chemscore.Hbond>
0.9685

> <Gold.Chemscore.Metal>
0.0000

> <Gold.Chemscore.Lipo>
65.1780

> <Gold.Chemscore.Internal_Hbond>
0.0000

> <Gold.Chemscore.DEClash>
0.0554

> <Gold.Chemscore.DEInternal>
0.0395

> <Gold.Chemscore.Rot>
1.0000

> <Gold.Chemscore.Internal.Correction>
   9.000000E+99

> <Gold.Chemscore.Hbonds>
donor molecule, donor type, donor heavy atom, donor atom, acceptor molecule, acceptor atom, score
      P1  H  7989  7998       L1     3  0.23
      P1  H  7997  8010       L1    13  0.21

> <Gold.Chemscore.Hbond.Weighted>
-3.2348

> <Gold.Chemscore.Metal.Weighted>
-0.0000

> <Gold.Chemscore.Lipo.Weighted>
-7.6258

> <Gold.Chemscore.Internal_Hbond.Weighted>
0.0000

> <Gold.Chemscore.DEClash.Weighted>
0.0554

> <Gold.Chemscore.DEInternal.Weighted>
0.0395

> <Gold.Chemscore.Rot.Weighted>
2.5600

> <Gold.Chemscore.Internal.Correction.Weighted>
   9.000000E+99

> <Gold.Protein.RotatedTorsions>
[ 6907 6896 6895 6894 ] final  -88.96 input  -60.11 | X-H torsion
[ 7974 7965 7964 7962 ] final   64.17 input  175.53 | X-H torsion
[ 8008 7997 7996 7995 ] final   83.82 input   59.86 | X-H torsion
[ 10167 10162 10161 10158 ] final  -13.69 input  -65.29 | X-H torsion
[ 10718 10713 10712 10709 ] final  -94.52 input   66.30 | X-H torsion
[ 10763 10752 10751 10750 ] final   29.84 input  -60.55 | X-H torsion
[ 11005 11000 10999 10996 ] final   49.19 input  -57.11 | X-H torsion

> <Gold.Protein.ActiveResidues>
 VAL166  LYS551  ARG553  GLY616  TRP617  ASP618  TYR619  PRO620  LYS621  CYS622 
 ASP623  PHE694  ASN695  SER759  ASP760  ASP761  ALA762  ILE779  LEU786  VAL792 
 PHE793  MET794  SER795  GLU796  ALA797  LYS798  CYS799  TRP800  GLU811  SER814 

> <Gold.Protein.RotatedAtoms>
  150.6871  134.2661  159.4568 H   0  0  0  0  0  0  0  0  0  0  0  0  # atno 6907 bound_to 6896
  152.0587  134.9605  160.0584 H   0  0  0  0  0  0  0  0  0  0  0  0  # atno 6908 bound_to 6896
  152.1041  133.4230  159.4637 H   0  0  0  0  0  0  0  0  0  0  0  0  # atno 6909 bound_to 6896
  145.8533  139.3268  143.0862 H   0  0  0  0  0  0  0  0  0  0  0  0  # atno 7974 bound_to 7965
  155.9290  140.3416  155.6233 H   0  0  0  0  0  0  0  0  0  0  0  0  # atno 8008 bound_to 7997
  155.7181  140.0780  157.2361 H   0  0  0  0  0  0  0  0  0  0  0  0  # atno 8009 bound_to 7997
  154.4082  140.1610  156.2359 H   0  0  0  0  0  0  0  0  0  0  0  0  # atno 8010 bound_to 7997
  140.7187  143.5399  150.9421 H   0  0  0  0  0  0  0  0  0  0  0  0  # atno 10167 bound_to 10162
  156.0028  130.5071  150.5939 H   0  0  0  0  0  0  0  0  0  0  0  0  # atno 10718 bound_to 10713
  153.0406  135.6479  154.0953 H   0  0  0  0  0  0  0  0  0  0  0  0  # atno 10763 bound_to 10752
  154.0660  135.2884  155.3318 H   0  0  0  0  0  0  0  0  0  0  0  0  # atno 10764 bound_to 10752
  154.6626  135.5386  153.8102 H   0  0  0  0  0  0  0  0  0  0  0  0  # atno 10765 bound_to 10752
  140.1125  134.4936  155.8665 H   0  0  0  0  0  0  0  0  0  0  0  0  # atno 11005 bound_to 11000
  145.9333  140.9033  143.0345 LP  0  0  0  0  0  0  0  0  0  0  0  0  # atno 17320 bound_to 7965
  144.6728  140.1448  143.7434 LP  0  0  0  0  0  0  0  0  0  0  0  0  # atno 17321 bound_to 7965
  139.9122  143.6707  152.3113 LP  0  0  0  0  0  0  0  0  0  0  0  0  # atno 17342 bound_to 10162
  139.7094  144.7623  151.1138 LP  0  0  0  0  0  0  0  0  0  0  0  0  # atno 17343 bound_to 10162
  157.3799  131.0779  151.1485 LP  0  0  0  0  0  0  0  0  0  0  0  0  # atno 17370 bound_to 10713
  157.2211  130.6482  149.5811 LP  0  0  0  0  0  0  0  0  0  0  0  0  # atno 17371 bound_to 10713
  141.2133  133.6732  156.6733 LP  0  0  0  0  0  0  0  0  0  0  0  0  # atno 17394 bound_to 11000
  140.3072  134.8116  157.4146 LP  0  0  0  0  0  0  0  0  0  0  0  0  # atno 17395 bound_to 11000

$$$$
