AV-unprocessed.smi:703|AV-procd|sdf|3436|dock2
  -GOLD-   22720 0423D 1   1.00000     0.00000
 Structure written by MMmdl.
 37 38  0  0  0  0  0  0  0  0  3 V2000
  147.7563  140.6553  153.7347 C   0  0  0  0  0  0  0  0  0  0  0  0
  147.8127  139.2470  153.1279 C   0  0  0  0  0  0  0  0  0  0  0  0
  148.6228  138.3153  153.9483 N   0  3  1  0  0  0  0  0  0  0  0  0
  150.0431  138.7151  154.1061 C   0  0  0  0  0  0  0  0  0  0  0  0
  150.3929  138.5601  155.5967 C   0  0  2  0  0  0  0  0  0  0  0  0
  151.8436  138.0993  155.8388 C   0  0  0  0  0  0  0  0  0  0  0  0
  149.2993  137.6189  156.1221 C   0  0  1  0  0  0  0  0  0  0  0  0
  149.0625  137.7970  157.5458 N   0  5  0  0  0  0  0  0  0  0  0  0
  149.2000  136.5205  158.5355 S   0  0  0  0  0  0  0  0  0  0  0  0
  149.5539  135.2883  157.8119 O   0  0  0  0  0  0  0  0  0  0  0  0
  149.9753  136.8272  159.7486 O   0  0  0  0  0  0  0  0  0  0  0  0
  147.4506  136.3156  159.0800 C   0  0  0  0  0  0  0  0  0  0  0  0
  147.3916  136.1420  160.5720 C   0  0  0  0  0  0  0  0  0  0  0  0
  146.9144  135.0270  161.3159 C   0  0  0  0  0  0  0  0  0  0  0  0
  147.0924  135.4093  162.6140 C   0  0  0  0  0  0  0  0  0  0  0  0
  147.6236  136.6566  162.6736 O   0  0  0  0  0  0  0  0  0  0  0  0
  147.8080  137.1175  161.3652 N   0  0  0  0  0  0  0  0  0  0  0  0
  148.0840  138.0336  155.2965 C   0  0  0  0  0  0  0  0  0  0  0  0
  147.1084  141.3032  153.1439 H   0  0  0  0  0  0  0  0  0  0  0  0
  148.7421  141.1200  153.7663 H   0  0  0  0  0  0  0  0  0  0  0  0
  147.3626  140.6312  154.7513 H   0  0  0  0  0  0  0  0  0  0  0  0
  146.7968  138.8564  153.0582 H   0  0  0  0  0  0  0  0  0  0  0  0
  148.2058  139.2854  152.1109 H   0  0  0  0  0  0  0  0  0  0  0  0
  150.6534  138.0655  153.4758 H   0  0  0  0  0  0  0  0  0  0  0  0
  150.2210  139.7408  153.7781 H   0  0  0  0  0  0  0  0  0  0  0  0
  150.2623  139.5380  156.0647 H   0  0  0  0  0  0  0  0  0  0  0  0
  152.0513  137.1277  155.3864 H   0  0  0  0  0  0  0  0  0  0  0  0
  152.0737  138.0273  156.9033 H   0  0  0  0  0  0  0  0  0  0  0  0
  152.5468  138.8128  155.4088 H   0  0  0  0  0  0  0  0  0  0  0  0
  149.5585  136.5924  155.8569 H   0  0  0  0  0  0  0  0  0  0  0  0
  146.8895  137.1940  158.7598 H   0  0  0  0  0  0  0  0  0  0  0  0
  147.0313  135.4492  158.5693 H   0  0  0  0  0  0  0  0  0  0  0  0
  146.5134  134.0926  160.9523 H   0  0  0  0  0  0  0  0  0  0  0  0
  146.8980  134.9304  163.5623 H   0  0  0  0  0  0  0  0  0  0  0  0
  147.6342  138.9404  155.7066 H   0  0  0  0  0  0  0  0  0  0  0  0
  147.3175  137.2582  155.2697 H   0  0  0  0  0  0  0  0  0  0  0  0
  148.6437  137.4290  153.4645 H   0  0  0  0  0  0  0  0  0  0  0  0
  1  2  1  0  0  0  0
  1 19  1  0  0  0  0
  1 20  1  0  0  0  0
  1 21  1  0  0  0  0
  2  3  1  0  0  0  0
  2 22  1  0  0  0  0
  2 23  1  0  0  0  0
  3 18  1  0  0  0  0
  3  4  1  0  0  0  0
  3 37  1  0  0  0  0
  4  5  1  0  0  0  0
  4 24  1  0  0  0  0
  4 25  1  0  0  0  0
  5  6  1  0  0  0  0
  5  7  1  0  0  0  0
  5 26  1  0  0  0  0
  6 27  1  0  0  0  0
  6 28  1  0  0  0  0
  6 29  1  0  0  0  0
  7  8  1  0  0  0  0
  7 18  1  0  0  0  0
  7 30  1  0  0  0  0
  8  9  1  0  0  0  0
  9 10  2  0  0  0  0
  9 11  2  0  0  0  0
  9 12  1  0  0  0  0
 12 13  1  0  0  0  0
 12 31  1  0  0  0  0
 12 32  1  0  0  0  0
 13 17  2  0  0  0  0
 13 14  1  0  0  0  0
 14 15  2  0  0  0  0
 14 33  1  0  0  0  0
 15 16  1  0  0  0  0
 15 34  1  0  0  0  0
 16 17  1  0  0  0  0
 18 35  1  0  0  0  0
 18 36  1  0  0  0  0
M  CHG  1   3   1
M  CHG  1   8  -1
M  END
> <s_m_source_file>
AV-unprocessed.smi

> <i_m_source_file_index>
703

> <i_lp_mmshare_version>
43012

> <i_f3d_flags>
0

> <s_epik_input>
W0NIM11bQ0gyXU4xW0NIMl1bQ0BASF0oW0NIM10pW0NASF0oW0NIMl0xKVtOSF1TKD1PKSg9TylbQ0gyXWMyW2NIXVtjSF1vbjI=

> <s_epik_cmdline>
J2VwaWtfcHl0aG9uJywgJy1waCcsICc3LjAnLCAnLXRuJywgJzgnLCAnLW1hJywgJzIwMCcsICctbWV0YWxfYmluZGluZycsICctaW1hZScsICc8aW5maWxlLm1hZT4nLCAnLW9tYWUnLCAnPG91dGZpbGUubWFlPic=

> <r_epik_Ionization_Penalty>
3.62494

> <r_epik_Ionization_Penalty_Charging>
3.62494

> <r_epik_Ionization_Penalty_Neutral>
2.0321e-10

> <r_epik_State_Penalty>
3.62558

> <r_epik_Charging_Adjusted_Penalty>
7.25052

> <i_epik_Tot_Q>
0

> <i_epik_Tot_abs_Q>
2

> <r_epik_Metal_State_Penalty>
0.530836

> <b_epik_Metal_Only>
1

> <s_lp_Force_Field>
OPLS_2005

> <r_lp_Energy>
15.7231

> <b_lp_Chiralities_Consistent>
1

> <s_lp_Variant>
AV-unprocessed.smi:703-11

> <Gold.Version>
5.8.1

> <Gold.Id.Protein>
6NUR|6NUR_protein|mol2

> <Gold.PLP.Fitness>
38.2823

> <Gold.PLP.PLP>
-27.0301

> <Gold.PLP.part.hbond>
-5.9669

> <Gold.PLP.part.metal>
0.0000

> <Gold.PLP.part.buried>
-1.1574

> <Gold.PLP.part.nonpolar>
-20.0605

> <Gold.PLP.part.repulsive>
0.0120

> <Gold.PLP.ligand.clash>
0.0000

> <Gold.PLP.ligand.torsion>
0.7551

> <Gold.PLP.Chemscore.Hbond>
3.9068

> <Gold.PLP.Chemscore.CHOScore>
0.0000

> <Gold.PLP.Chemscore.Metal>
0.0000

> <Gold.Chemscore.Hbonds>
donor molecule, donor type, donor heavy atom, donor atom, acceptor molecule, acceptor atom, score
      L1  H     3    37       P1  7948  2.00
      P1  H  6896  6908       L1    11  0.83
      P1  H  6931  6943       L1    17  0.55
      P1  H  6934  6947       L1    17  0.74

> <Gold.PLP.Chemscore.Internal.Correction>
1.0419

> <Gold.Rescore>
     Score         DG    S(hbond)    S(metal)    S(lipo)     H(rot)  DE(clash)    DE(int)     intcor
     13.60     -17.30       2.68        0.00      60.21       1.63       1.49       2.22       ----

> <Gold.Chemscore.Fitness>
13.6000

> <Gold.Chemscore.DG>
-17.3010

> <Gold.Chemscore.ZeroCoef>
-5.4800

> <Gold.Chemscore.Hbond>
2.6824

> <Gold.Chemscore.Metal>
0.0000

> <Gold.Chemscore.Lipo>
60.2070

> <Gold.Chemscore.Internal_Hbond>
0.0000

> <Gold.Chemscore.DEClash>
1.4852

> <Gold.Chemscore.DEInternal>
2.2158

> <Gold.Chemscore.Rot>
1.6338

> <Gold.Chemscore.Internal.Correction>
   9.000000E+99

> <Gold.Chemscore.Hbonds>
donor molecule, donor type, donor heavy atom, donor atom, acceptor molecule, acceptor atom, score
      L1  H     3    37       P1  7948  0.93
      P1  H  6896  6908       L1    11  0.21
      P1  H  6931  6943       L1    17  0.03
      P1  H  6934  6947       L1    17  0.64

> <Gold.Chemscore.Hbond.Weighted>
-8.9593

> <Gold.Chemscore.Metal.Weighted>
-0.0000

> <Gold.Chemscore.Lipo.Weighted>
-7.0442

> <Gold.Chemscore.Internal_Hbond.Weighted>
0.0000

> <Gold.Chemscore.DEClash.Weighted>
1.4852

> <Gold.Chemscore.DEInternal.Weighted>
2.2158

> <Gold.Chemscore.Rot.Weighted>
4.1825

> <Gold.Chemscore.Internal.Correction.Weighted>
   9.000000E+99

> <Gold.Protein.RotatedTorsions>
[ 6907 6896 6895 6894 ] final -143.72 input  -60.11 | X-H torsion
[ 7974 7965 7964 7962 ] final  -88.64 input  175.53 | X-H torsion
[ 8008 7997 7996 7995 ] final  -23.11 input   59.86 | X-H torsion
[ 10167 10162 10161 10158 ] final   40.89 input  -65.29 | X-H torsion
[ 10718 10713 10712 10709 ] final  -12.05 input   66.30 | X-H torsion
[ 10763 10752 10751 10750 ] final   53.41 input  -60.55 | X-H torsion
[ 11005 11000 10999 10996 ] final  -52.27 input  -57.11 | X-H torsion

> <Gold.Protein.ActiveResidues>
 VAL166  LYS551  ARG553  GLY616  TRP617  ASP618  TYR619  PRO620  LYS621  CYS622 
 ASP623  PHE694  ASN695  SER759  ASP760  ASP761  ALA762  ILE779  LEU786  VAL792 
 PHE793  MET794  SER795  GLU796  ALA797  LYS798  CYS799  TRP800  GLU811  SER814 

> <Gold.Protein.RotatedAtoms>
  151.1043  133.5220  159.2608 H   0  0  0  0  0  0  0  0  0  0  0  0  # atno 6907 bound_to 6896
  151.2038  135.0453  159.8893 H   0  0  0  0  0  0  0  0  0  0  0  0  # atno 6908 bound_to 6896
  152.5445  134.0868  159.8313 H   0  0  0  0  0  0  0  0  0  0  0  0  # atno 6909 bound_to 6896
  145.4504  140.9560  143.2025 H   0  0  0  0  0  0  0  0  0  0  0  0  # atno 7974 bound_to 7965
  154.4604  140.1989  156.0261 H   0  0  0  0  0  0  0  0  0  0  0  0  # atno 8008 bound_to 7997
  156.0829  140.3269  155.7688 H   0  0  0  0  0  0  0  0  0  0  0  0  # atno 8009 bound_to 7997
  155.5083  140.0559  157.2918 H   0  0  0  0  0  0  0  0  0  0  0  0  # atno 8010 bound_to 7997
  140.3697  144.2121  150.6133 H   0  0  0  0  0  0  0  0  0  0  0  0  # atno 10167 bound_to 10162
  156.6501  130.4952  149.6065 H   0  0  0  0  0  0  0  0  0  0  0  0  # atno 10718 bound_to 10713
  152.9795  135.5779  154.4737 H   0  0  0  0  0  0  0  0  0  0  0  0  # atno 10763 bound_to 10752
  154.4296  135.2773  155.1923 H   0  0  0  0  0  0  0  0  0  0  0  0  # atno 10764 bound_to 10752
  154.3637  135.6183  153.5757 H   0  0  0  0  0  0  0  0  0  0  0  0  # atno 10765 bound_to 10752
  141.0915  133.6632  156.3999 H   0  0  0  0  0  0  0  0  0  0  0  0  # atno 11005 bound_to 11000
  144.8065  139.6042  143.7048 LP  0  0  0  0  0  0  0  0  0  0  0  0  # atno 17320 bound_to 7965
  146.2507  139.6194  142.9429 LP  0  0  0  0  0  0  0  0  0  0  0  0  # atno 17321 bound_to 7965
  140.5045  143.2308  151.8628 LP  0  0  0  0  0  0  0  0  0  0  0  0  # atno 17342 bound_to 10162
  139.4805  144.5021  151.9047 LP  0  0  0  0  0  0  0  0  0  0  0  0  # atno 17343 bound_to 10162
  156.2091  130.6667  151.1250 LP  0  0  0  0  0  0  0  0  0  0  0  0  # atno 17370 bound_to 10713
  157.7143  131.0718  150.6384 LP  0  0  0  0  0  0  0  0  0  0  0  0  # atno 17371 bound_to 10713
  140.5240  134.6277  157.5328 LP  0  0  0  0  0  0  0  0  0  0  0  0  # atno 17394 bound_to 11000
  139.9742  134.7242  155.9981 LP  0  0  0  0  0  0  0  0  0  0  0  0  # atno 17395 bound_to 11000

$$$$
