AV-unprocessed.smi:3279|AV-procd|sdf|12550|dock7
  -GOLD-   2272018463D 1   1.00000     0.00000
 Structure written by MMmdl.
 36 36  0  0  0  0  0  0  0  0  1 V2000
  151.2306  137.8376  155.2994 C   0  0  0  0  0  0  0  0  0  0  0  0
  151.2982  139.1974  156.0169 C   0  0  2  0  0  0  0  0  0  0  0  0
  151.0025  139.1166  157.5302 C   0  0  0  0  0  0  0  0  0  0  0  0
  151.4040  140.3232  158.2480 N   0  0  0  0  0  0  0  0  0  0  0  0
  152.6170  140.5527  158.7749 C   0  0  0  0  0  0  0  0  0  0  0  0
  153.5584  139.7649  158.6865 O   0  0  0  0  0  0  0  0  0  0  0  0
  152.7977  141.8838  159.4995 C   0  0  0  0  0  0  0  0  0  0  0  0
  151.5873  142.6260  159.3832 O   0  0  0  0  0  0  0  0  0  0  0  0
  151.6495  144.0470  159.5291 C   0  0  0  0  0  0  0  0  0  0  0  0
  152.5099  144.6664  158.4103 C   0  0  0  0  0  0  0  0  0  0  0  0
  152.1707  144.4520  160.9228 C   0  0  0  0  0  0  0  0  0  0  0  0
  150.1924  144.5102  159.3720 C   0  0  0  0  0  0  0  0  0  0  0  0
  150.4038  140.1969  155.3501 C   0  0  0  0  0  0  0  0  0  0  0  0
  150.3525  140.4670  154.0509 N   0  0  0  0  0  0  0  0  0  0  0  0
  149.3804  141.4495  153.9566 N   0  0  0  0  0  0  0  0  0  0  0  0
  148.8875  141.7444  155.1264 N   0  0  0  0  0  0  0  0  0  0  0  0
  149.5305  140.9556  156.0164 N   0  0  0  0  0  0  0  0  0  0  0  0
  149.3483  140.9729  157.0095 H   0  0  0  0  0  0  0  0  0  0  0  0
  151.4542  137.9459  154.2375 H   0  0  0  0  0  0  0  0  0  0  0  0
  150.2384  137.3939  155.3862 H   0  0  0  0  0  0  0  0  0  0  0  0
  151.9494  137.1285  155.7086 H   0  0  0  0  0  0  0  0  0  0  0  0
  152.3200  139.5641  155.9068 H   0  0  0  0  0  0  0  0  0  0  0  0
  149.9291  138.9989  157.6828 H   0  0  0  0  0  0  0  0  0  0  0  0
  151.4670  138.2295  157.9645 H   0  0  0  0  0  0  0  0  0  0  0  0
  150.6973  141.0332  158.3754 H   0  0  0  0  0  0  0  0  0  0  0  0
  153.0415  141.6893  160.5440 H   0  0  0  0  0  0  0  0  0  0  0  0
  153.6396  142.4084  159.0487 H   0  0  0  0  0  0  0  0  0  0  0  0
  152.4440  145.7550  158.4246 H   0  0  0  0  0  0  0  0  0  0  0  0
  152.1801  144.3299  157.4271 H   0  0  0  0  0  0  0  0  0  0  0  0
  153.5646  144.4123  158.5133 H   0  0  0  0  0  0  0  0  0  0  0  0
  153.2231  144.2010  161.0555 H   0  0  0  0  0  0  0  0  0  0  0  0
  151.6062  143.9580  161.7144 H   0  0  0  0  0  0  0  0  0  0  0  0
  152.0800  145.5278  161.0765 H   0  0  0  0  0  0  0  0  0  0  0  0
  150.1072  145.5942  159.4555 H   0  0  0  0  0  0  0  0  0  0  0  0
  149.5539  144.0697  160.1387 H   0  0  0  0  0  0  0  0  0  0  0  0
  149.7870  144.2207  158.4017 H   0  0  0  0  0  0  0  0  0  0  0  0
  1  2  1  0  0  0  0
  1 19  1  0  0  0  0
  1 20  1  0  0  0  0
  1 21  1  0  0  0  0
  2  3  1  0  0  0  0
  2 13  1  0  0  0  0
  2 22  1  0  0  0  0
  3  4  1  0  0  0  0
  3 23  1  0  0  0  0
  3 24  1  0  0  0  0
  4  5  1  0  0  0  0
  4 25  1  0  0  0  0
  5  6  2  0  0  0  0
  5  7  1  0  0  0  0
  7  8  1  0  0  0  0
  7 26  1  0  0  0  0
  7 27  1  0  0  0  0
  8  9  1  0  0  0  0
  9 10  1  0  0  0  0
  9 11  1  0  0  0  0
  9 12  1  0  0  0  0
 10 28  1  0  0  0  0
 10 29  1  0  0  0  0
 10 30  1  0  0  0  0
 11 31  1  0  0  0  0
 11 32  1  0  0  0  0
 11 33  1  0  0  0  0
 12 34  1  0  0  0  0
 12 35  1  0  0  0  0
 12 36  1  0  0  0  0
 13 17  1  0  0  0  0
 13 14  2  0  0  0  0
 14 15  1  0  0  0  0
 15 16  2  0  0  0  0
 16 17  1  0  0  0  0
 17 18  1  0  0  0  0
M  END
> <s_m_source_file>
AV-unprocessed.smi

> <i_m_source_file_index>
3279

> <i_lp_mmshare_version>
43012

> <i_f3d_flags>
0

> <s_epik_input>
W25IXTFubm5jMVtDQEhdKFtDSDNdKVtDSDJdW05IXUMoPU8pW0NIMl1PQyhbQ0gzXSkoW0NIM10pW0NIM10=

> <s_epik_cmdline>
J2VwaWtfcHl0aG9uJywgJy1waCcsICc3LjAnLCAnLXRuJywgJzgnLCAnLW1hJywgJzIwMCcsICctbWV0YWxfYmluZGluZycsICctaW1hZScsICc8aW5maWxlLm1hZT4nLCAnLW9tYWUnLCAnPG91dGZpbGUubWFlPic=

> <r_lp_tautomer_probability>
0.3

> <r_epik_Ionization_Penalty>
1.45055

> <r_epik_Ionization_Penalty_Charging>
0

> <r_epik_Ionization_Penalty_Neutral>
1.45055

> <r_epik_State_Penalty>
2.31845

> <r_epik_Charging_Adjusted_Penalty>
2.31845

> <i_epik_Tot_Q>
0

> <i_epik_Tot_abs_Q>
0

> <r_epik_Metal_State_Penalty>
2.36898

> <b_epik_Metal_Only>
0

> <s_lp_Force_Field>
OPLS_2005

> <r_lp_Energy>
6.97201

> <b_lp_Chiralities_Consistent>
1

> <s_lp_Variant>
AV-unprocessed.smi:3279-3

> <Gold.Version>
5.8.1

> <Gold.Id.Protein>
6NUR|6NUR_protein|mol2

> <Gold.PLP.Fitness>
38.5224

> <Gold.PLP.PLP>
-31.6789

> <Gold.PLP.part.hbond>
-3.6121

> <Gold.PLP.part.metal>
0.0000

> <Gold.PLP.part.buried>
-5.6665

> <Gold.PLP.part.nonpolar>
-23.5557

> <Gold.PLP.part.repulsive>
1.4781

> <Gold.PLP.ligand.clash>
0.0000

> <Gold.PLP.ligand.torsion>
0.5095

> <Gold.PLP.Chemscore.Hbond>
2.5811

> <Gold.PLP.Chemscore.CHOScore>
0.0000

> <Gold.PLP.Chemscore.Metal>
0.0000

> <Gold.Chemscore.Hbonds>
donor molecule, donor type, donor heavy atom, donor atom, acceptor molecule, acceptor atom, score
      P1  H  7989  7998       L1    14  0.66
      P1  H  7997  8008       L1     6  1.00
      P1  H  8011  8017       L1    15  0.72

> <Gold.PLP.Chemscore.Internal.Correction>
0.1194

> <Gold.Rescore>
     Score         DG    S(hbond)    S(metal)    S(lipo)     H(rot)  DE(clash)    DE(int)     intcor
     12.68     -13.23       1.85        0.00      72.77       2.71       0.01       0.54       ----

> <Gold.Chemscore.Fitness>
12.6806

> <Gold.Chemscore.DG>
-13.2290

> <Gold.Chemscore.ZeroCoef>
-5.4800

> <Gold.Chemscore.Hbond>
1.8477

> <Gold.Chemscore.Metal>
0.0000

> <Gold.Chemscore.Lipo>
72.7667

> <Gold.Chemscore.Internal_Hbond>
0.0000

> <Gold.Chemscore.DEClash>
0.0060

> <Gold.Chemscore.DEInternal>
0.5424

> <Gold.Chemscore.Rot>
2.7094

> <Gold.Chemscore.Internal.Correction>
   9.000000E+99

> <Gold.Chemscore.Hbonds>
donor molecule, donor type, donor heavy atom, donor atom, acceptor molecule, acceptor atom, score
      P1  H  7989  7998       L1    14  0.48
      P1  H  7997  8008       L1     6  0.79
      P1  H  8011  8017       L1    15  0.36

> <Gold.Chemscore.Hbond.Weighted>
-6.1713

> <Gold.Chemscore.Metal.Weighted>
-0.0000

> <Gold.Chemscore.Lipo.Weighted>
-8.5137

> <Gold.Chemscore.Internal_Hbond.Weighted>
0.0000

> <Gold.Chemscore.DEClash.Weighted>
0.0060

> <Gold.Chemscore.DEInternal.Weighted>
0.5424

> <Gold.Chemscore.Rot.Weighted>
6.9360

> <Gold.Chemscore.Internal.Correction.Weighted>
   9.000000E+99

> <Gold.Protein.RotatedTorsions>
[ 6907 6896 6895 6894 ] final  113.62 input  -60.11 | X-H torsion
[ 7974 7965 7964 7962 ] final  178.02 input  175.53 | X-H torsion
[ 8008 7997 7996 7995 ] final  -85.12 input   59.86 | X-H torsion
[ 10167 10162 10161 10158 ] final  -51.65 input  -65.29 | X-H torsion
[ 10718 10713 10712 10709 ] final  -14.37 input   66.30 | X-H torsion
[ 10763 10752 10751 10750 ] final   57.39 input  -60.55 | X-H torsion
[ 11005 11000 10999 10996 ] final  -89.00 input  -57.11 | X-H torsion

> <Gold.Protein.ActiveResidues>
 VAL166  LYS551  ARG553  GLY616  TRP617  ASP618  TYR619  PRO620  LYS621  CYS622 
 ASP623  PHE694  ASN695  SER759  ASP760  ASP761  ALA762  ILE779  LEU786  VAL792 
 PHE793  MET794  SER795  GLU796  ALA797  LYS798  CYS799  TRP800  GLU811  SER814 

> <Gold.Protein.RotatedAtoms>
  152.4850  133.8351  159.7122 H   0  0  0  0  0  0  0  0  0  0  0  0  # atno 6907 bound_to 6896
  150.8930  133.7209  159.2906 H   0  0  0  0  0  0  0  0  0  0  0  0  # atno 6908 bound_to 6896
  151.4675  135.1047  159.9794 H   0  0  0  0  0  0  0  0  0  0  0  0  # atno 6909 bound_to 6896
  144.7161  140.0335  143.6438 H   0  0  0  0  0  0  0  0  0  0  0  0  # atno 7974 bound_to 7965
  154.6372  140.0596  156.9803 H   0  0  0  0  0  0  0  0  0  0  0  0  # atno 8008 bound_to 7997
  155.1573  140.3279  155.4400 H   0  0  0  0  0  0  0  0  0  0  0  0  # atno 8009 bound_to 7997
  156.2513  140.1937  156.6682 H   0  0  0  0  0  0  0  0  0  0  0  0  # atno 8010 bound_to 7997
  140.6577  143.2612  151.4534 H   0  0  0  0  0  0  0  0  0  0  0  0  # atno 10167 bound_to 10162
  156.6169  130.4865  149.6179 H   0  0  0  0  0  0  0  0  0  0  0  0  # atno 10718 bound_to 10713
  152.9849  135.5643  154.5383 H   0  0  0  0  0  0  0  0  0  0  0  0  # atno 10763 bound_to 10752
  154.4842  135.2790  155.1549 H   0  0  0  0  0  0  0  0  0  0  0  0  # atno 10764 bound_to 10752
  154.3045  135.6300  153.5492 H   0  0  0  0  0  0  0  0  0  0  0  0  # atno 10765 bound_to 10752
  141.1592  133.7603  156.9532 H   0  0  0  0  0  0  0  0  0  0  0  0  # atno 11005 bound_to 11000
  146.0083  139.3148  143.0886 LP  0  0  0  0  0  0  0  0  0  0  0  0  # atno 17320 bound_to 7965
  145.8712  140.9419  143.0649 LP  0  0  0  0  0  0  0  0  0  0  0  0  # atno 17321 bound_to 7965
  139.5804  144.1723  152.1960 LP  0  0  0  0  0  0  0  0  0  0  0  0  # atno 17342 bound_to 10162
  140.1046  144.5509  150.6965 LP  0  0  0  0  0  0  0  0  0  0  0  0  # atno 17343 bound_to 10162
  156.2343  130.6813  151.1494 LP  0  0  0  0  0  0  0  0  0  0  0  0  # atno 17370 bound_to 10713
  157.7238  131.0663  150.6019 LP  0  0  0  0  0  0  0  0  0  0  0  0  # atno 17371 bound_to 10713
  140.1243  134.9397  157.2248 LP  0  0  0  0  0  0  0  0  0  0  0  0  # atno 17394 bound_to 11000
  140.3032  134.3107  155.7284 LP  0  0  0  0  0  0  0  0  0  0  0  0  # atno 17395 bound_to 11000

$$$$
