AV-unprocessed.smi:769|AV-procd|sdf|3677|dock5
  -GOLD-   22720 1 93D 1   1.00000     0.00000
 Structure written by MMmdl.
 51 53  0  0  0  0  0  0  0  0  3 V2000
  145.8522  136.4856  155.1201 O   0  0  0  0  0  0  0  0  0  0  0  0
  146.7738  136.3995  154.3089 C   0  0  0  0  0  0  0  0  0  0  0  0
  148.0283  136.7884  154.5790 N   0  0  0  0  0  0  0  0  0  0  0  0
  148.4765  137.3278  155.8583 C   0  0  0  0  0  0  0  0  0  0  0  0
  148.4449  138.8688  155.8694 C   0  0  0  0  0  0  0  0  0  0  0  0
  149.7626  139.4633  156.2063 N   0  3  0  0  0  0  0  0  0  0  0  0
  149.8394  140.9015  155.8304 C   0  0  0  0  0  0  0  0  0  0  0  0
  151.2090  141.5098  156.1850 C   0  0  0  0  0  0  0  0  0  0  0  0
  151.4673  141.2938  157.6112 N   0  0  0  0  0  0  0  0  0  0  0  0
  151.5145  142.3051  158.5125 C   0  0  0  0  0  0  0  0  0  0  0  0
  151.6381  142.0959  159.7199 O   0  0  0  0  0  0  0  0  0  0  0  0
  151.4558  143.7624  158.0053 C   0  0  0  0  0  0  0  0  0  0  0  0
  152.6775  144.6499  158.3181 C   0  0  0  0  0  0  0  0  0  0  0  0
  151.8945  145.2943  159.4659 C   0  0  0  0  0  0  0  0  0  0  0  0
  150.6085  144.6968  158.8859 C   0  0  0  0  0  0  0  0  0  0  0  0
  151.5429  139.8632  157.9201 C   0  0  0  0  0  0  0  0  0  0  0  0
  150.1810  139.2136  157.6149 C   0  0  0  0  0  0  0  0  0  0  0  0
  146.6658  135.9323  153.0527 N   0  0  0  0  0  0  0  0  0  0  0  0
  145.5189  135.4139  152.3903 C   0  0  0  0  0  0  0  0  0  0  0  0
  145.4284  135.6126  150.9945 C   0  0  0  0  0  0  0  0  0  0  0  0
  144.3183  135.1056  150.2889 C   0  0  0  0  0  0  0  0  0  0  0  0
  143.3553  134.4274  150.9485 N   0  3  0  0  0  0  0  0  0  0  0  0
  143.4034  134.2001  152.2786 C   0  0  0  0  0  0  0  0  0  0  0  0
  144.4896  134.6826  153.0373 C   0  0  0  0  0  0  0  0  0  0  0  0
  148.7267  136.6878  153.8563 H   0  0  0  0  0  0  0  0  0  0  0  0
  147.8596  136.9082  156.6535 H   0  0  0  0  0  0  0  0  0  0  0  0
  149.4930  136.9760  156.0363 H   0  0  0  0  0  0  0  0  0  0  0  0
  148.1440  139.2073  154.8766 H   0  0  0  0  0  0  0  0  0  0  0  0
  147.6904  139.2439  156.5628 H   0  0  0  0  0  0  0  0  0  0  0  0
  149.6591  141.0109  154.7603 H   0  0  0  0  0  0  0  0  0  0  0  0
  149.0483  141.4507  156.3440 H   0  0  0  0  0  0  0  0  0  0  0  0
  151.9963  141.0319  155.6000 H   0  0  0  0  0  0  0  0  0  0  0  0
  151.2275  142.5630  155.9018 H   0  0  0  0  0  0  0  0  0  0  0  0
  151.2021  143.8163  156.9460 H   0  0  0  0  0  0  0  0  0  0  0  0
  153.5862  144.1375  158.6358 H   0  0  0  0  0  0  0  0  0  0  0  0
  152.8936  145.3530  157.5128 H   0  0  0  0  0  0  0  0  0  0  0  0
  152.1524  144.8723  160.4384 H   0  0  0  0  0  0  0  0  0  0  0  0
  151.9228  146.3842  159.4774 H   0  0  0  0  0  0  0  0  0  0  0  0
  150.0321  145.4131  158.2987 H   0  0  0  0  0  0  0  0  0  0  0  0
  149.9827  144.1995  159.6285 H   0  0  0  0  0  0  0  0  0  0  0  0
  152.3163  139.4083  157.2995 H   0  0  0  0  0  0  0  0  0  0  0  0
  151.8398  139.6485  158.9454 H   0  0  0  0  0  0  0  0  0  0  0  0
  149.4246  139.6096  158.2945 H   0  0  0  0  0  0  0  0  0  0  0  0
  150.2491  138.1435  157.8060 H   0  0  0  0  0  0  0  0  0  0  0  0
  147.4981  135.9976  152.4848 H   0  0  0  0  0  0  0  0  0  0  0  0
  146.1994  136.1532  150.4646 H   0  0  0  0  0  0  0  0  0  0  0  0
  144.1739  135.2201  149.2243 H   0  0  0  0  0  0  0  0  0  0  0  0
  142.5798  133.6372  152.6934 H   0  0  0  0  0  0  0  0  0  0  0  0
  144.5137  134.4700  154.0948 H   0  0  0  0  0  0  0  0  0  0  0  0
  150.4424  138.9973  155.6223 H   0  0  0  0  0  0  0  0  0  0  0  0
  142.5601  134.0677  150.4196 H   0  0  0  0  0  0  0  0  0  0  0  0
  1  2  2  0  0  0  0
  2  3  1  0  0  0  0
  2 18  1  0  0  0  0
  3  4  1  0  0  0  0
  3 25  1  0  0  0  0
  4  5  1  0  0  0  0
  4 26  1  0  0  0  0
  4 27  1  0  0  0  0
  5  6  1  0  0  0  0
  5 28  1  0  0  0  0
  5 29  1  0  0  0  0
  6 17  1  0  0  0  0
  6  7  1  0  0  0  0
  6 50  1  0  0  0  0
  7  8  1  0  0  0  0
  7 30  1  0  0  0  0
  7 31  1  0  0  0  0
  8  9  1  0  0  0  0
  8 32  1  0  0  0  0
  8 33  1  0  0  0  0
  9 10  1  0  0  0  0
  9 16  1  0  0  0  0
 10 11  2  0  0  0  0
 10 12  1  0  0  0  0
 12 15  1  0  0  0  0
 12 13  1  0  0  0  0
 12 34  1  0  0  0  0
 13 14  1  0  0  0  0
 13 35  1  0  0  0  0
 13 36  1  0  0  0  0
 14 15  1  0  0  0  0
 14 37  1  0  0  0  0
 14 38  1  0  0  0  0
 15 39  1  0  0  0  0
 15 40  1  0  0  0  0
 16 17  1  0  0  0  0
 16 41  1  0  0  0  0
 16 42  1  0  0  0  0
 17 43  1  0  0  0  0
 17 44  1  0  0  0  0
 18 19  1  0  0  0  0
 18 45  1  0  0  0  0
 19 24  1  0  0  0  0
 19 20  2  0  0  0  0
 20 21  1  0  0  0  0
 20 46  1  0  0  0  0
 21 22  2  0  0  0  0
 21 47  1  0  0  0  0
 22 23  1  0  0  0  0
 22 51  1  0  0  0  0
 23 24  2  0  0  0  0
 23 48  1  0  0  0  0
 24 49  1  0  0  0  0
M  CHG  1   6   1
M  CHG  1  22   1
M  END
> <s_m_source_file>
AV-unprocessed.smi

> <i_m_source_file_index>
769

> <i_lp_mmshare_version>
43012

> <i_f3d_flags>
0

> <s_epik_input>
W2NIXTFbY0hdbltjSF1bY0hdYzFbTkhdQyg9TylbTkhdW0NIMl1bQ0gyXU4yW0NIMl1bQ0gyXU4oW0NIMl1bQ0gyXTIpQyg9TylbQ0hdM1tDSDJdW0NIMl1bQ0gyXTM=

> <s_epik_cmdline>
J2VwaWtfcHl0aG9uJywgJy1waCcsICc3LjAnLCAnLXRuJywgJzgnLCAnLW1hJywgJzIwMCcsICctbWV0YWxfYmluZGluZycsICctaW1hZScsICc8aW5maWxlLm1hZT4nLCAnLW9tYWUnLCAnPG91dGZpbGUubWFlPic=

> <r_epik_Ionization_Penalty>
1.74797

> <r_epik_Ionization_Penalty_Charging>
1.74795

> <r_epik_Ionization_Penalty_Neutral>
1.97893e-05

> <r_epik_State_Penalty>
1.75255

> <r_epik_Charging_Adjusted_Penalty>
3.5005

> <i_epik_Tot_Q>
2

> <i_epik_Tot_abs_Q>
2

> <r_epik_Metal_State_Penalty>
1.84999

> <b_epik_Metal_Only>
0

> <s_lp_Force_Field>
OPLS_2005

> <r_lp_Energy>
63.8018

> <b_lp_Chiralities_Consistent>
1

> <s_lp_Variant>
AV-unprocessed.smi:769-4

> <Gold.Version>
5.8.1

> <Gold.Id.Protein>
6NUR|6NUR_protein|mol2

> <Gold.PLP.Fitness>
50.8406

> <Gold.PLP.PLP>
-41.2848

> <Gold.PLP.part.hbond>
-3.2541

> <Gold.PLP.part.metal>
0.0000

> <Gold.PLP.part.buried>
-5.2340

> <Gold.PLP.part.nonpolar>
-32.4223

> <Gold.PLP.part.repulsive>
0.0647

> <Gold.PLP.ligand.clash>
0.0000

> <Gold.PLP.ligand.torsion>
1.1316

> <Gold.PLP.Chemscore.Hbond>
3.7952

> <Gold.PLP.Chemscore.CHOScore>
0.0000

> <Gold.PLP.Chemscore.Metal>
0.0000

> <Gold.Chemscore.Hbonds>
donor molecule, donor type, donor heavy atom, donor atom, acceptor molecule, acceptor atom, score
      L1  H     3    25       P1  7948  0.83
      L1  H    18    45       P1  7948  1.00
      L1  H    22    51       P1 10186  1.89

> <Gold.PLP.Chemscore.Internal.Correction>
0.4334

> <Gold.Rescore>
     Score         DG    S(hbond)    S(metal)    S(lipo)     H(rot)  DE(clash)    DE(int)     intcor
     20.25     -21.42       2.71        0.00      97.42       1.76       0.01       1.16       ----

> <Gold.Chemscore.Fitness>
20.2491

> <Gold.Chemscore.DG>
-21.4202

> <Gold.Chemscore.ZeroCoef>
-5.4800

> <Gold.Chemscore.Hbond>
2.7099

> <Gold.Chemscore.Metal>
0.0000

> <Gold.Chemscore.Lipo>
97.4200

> <Gold.Chemscore.Internal_Hbond>
0.0000

> <Gold.Chemscore.DEClash>
0.0149

> <Gold.Chemscore.DEInternal>
1.1563

> <Gold.Chemscore.Rot>
1.7614

> <Gold.Chemscore.Internal.Correction>
   9.000000E+99

> <Gold.Chemscore.Hbonds>
donor molecule, donor type, donor heavy atom, donor atom, acceptor molecule, acceptor atom, score
      L1  H     3    25       P1  7948  0.76
      L1  H    18    45       P1  7948  0.98
      L1  H    22    51       P1 10186  0.78

> <Gold.Chemscore.Hbond.Weighted>
-9.0512

> <Gold.Chemscore.Metal.Weighted>
-0.0000

> <Gold.Chemscore.Lipo.Weighted>
-11.3981

> <Gold.Chemscore.Internal_Hbond.Weighted>
0.0000

> <Gold.Chemscore.DEClash.Weighted>
0.0149

> <Gold.Chemscore.DEInternal.Weighted>
1.1563

> <Gold.Chemscore.Rot.Weighted>
4.5091

> <Gold.Chemscore.Internal.Correction.Weighted>
   9.000000E+99

> <Gold.Protein.RotatedTorsions>
[ 6907 6896 6895 6894 ] final  139.21 input  -60.11 | X-H torsion
[ 7974 7965 7964 7962 ] final  127.12 input  175.53 | X-H torsion
[ 8008 7997 7996 7995 ] final  155.58 input   59.86 | X-H torsion
[ 10167 10162 10161 10158 ] final   83.57 input  -65.29 | X-H torsion
[ 10718 10713 10712 10709 ] final -114.92 input   66.30 | X-H torsion
[ 10763 10752 10751 10750 ] final  -73.04 input  -60.55 | X-H torsion
[ 11005 11000 10999 10996 ] final  -22.31 input  -57.11 | X-H torsion

> <Gold.Protein.ActiveResidues>
 VAL166  LYS551  ARG553  GLY616  TRP617  ASP618  TYR619  PRO620  LYS621  CYS622 
 ASP623  PHE694  ASN695  SER759  ASP760  ASP761  ALA762  ILE779  LEU786  VAL792 
 PHE793  MET794  SER795  GLU796  ALA797  LYS798  CYS799  TRP800  GLU811  SER814 

> <Gold.Protein.RotatedAtoms>
  152.2576  133.5269  159.5362 H   0  0  0  0  0  0  0  0  0  0  0  0  # atno 6907 bound_to 6896
  150.7114  134.0874  159.3928 H   0  0  0  0  0  0  0  0  0  0  0  0  # atno 6908 bound_to 6896
  151.8792  135.0460  160.0538 H   0  0  0  0  0  0  0  0  0  0  0  0  # atno 6909 bound_to 6896
  145.0541  139.3858  143.5039 H   0  0  0  0  0  0  0  0  0  0  0  0  # atno 7974 bound_to 7965
  156.2470  140.1935  156.6823 H   0  0  0  0  0  0  0  0  0  0  0  0  # atno 8008 bound_to 7997
  154.6313  140.0595  156.9761 H   0  0  0  0  0  0  0  0  0  0  0  0  # atno 8009 bound_to 7997
  155.1707  140.3268  155.4396 H   0  0  0  0  0  0  0  0  0  0  0  0  # atno 8010 bound_to 7997
  139.9171  144.6236  150.8478 H   0  0  0  0  0  0  0  0  0  0  0  0  # atno 10167 bound_to 10162
  156.0862  130.6053  150.8838 H   0  0  0  0  0  0  0  0  0  0  0  0  # atno 10718 bound_to 10713
  154.4540  135.5910  153.6210 H   0  0  0  0  0  0  0  0  0  0  0  0  # atno 10763 bound_to 10752
  152.9816  135.6028  154.3569 H   0  0  0  0  0  0  0  0  0  0  0  0  # atno 10764 bound_to 10752
  154.3434  135.2841  155.2389 H   0  0  0  0  0  0  0  0  0  0  0  0  # atno 10765 bound_to 10752
  140.8645  133.7764  156.0113 H   0  0  0  0  0  0  0  0  0  0  0  0  # atno 11005 bound_to 11000
  146.3520  140.0207  142.8659 LP  0  0  0  0  0  0  0  0  0  0  0  0  # atno 17320 bound_to 7965
  145.1490  140.9612  143.4444 LP  0  0  0  0  0  0  0  0  0  0  0  0  # atno 17321 bound_to 7965
  140.7671  143.3324  151.2382 LP  0  0  0  0  0  0  0  0  0  0  0  0  # atno 17342 bound_to 10162
  139.6893  143.9719  152.2851 LP  0  0  0  0  0  0  0  0  0  0  0  0  # atno 17343 bound_to 10162
  157.5996  131.0941  150.8982 LP  0  0  0  0  0  0  0  0  0  0  0  0  # atno 17370 bound_to 10713
  156.9142  130.5291  149.5280 LP  0  0  0  0  0  0  0  0  0  0  0  0  # atno 17371 bound_to 10713
  140.8645  134.2801  157.5219 LP  0  0  0  0  0  0  0  0  0  0  0  0  # atno 17394 bound_to 11000
  139.8708  134.9535  156.4148 LP  0  0  0  0  0  0  0  0  0  0  0  0  # atno 17395 bound_to 11000

$$$$
