AV-unprocessed.smi:2858|AV-procd|sdf|11001|dock8
  -GOLD-   2272015453D 1   1.00000     0.00000
 Structure written by MMmdl.
 39 40  0  0  0  0  0  0  0  0  1 V2000
  152.5403  139.6283  155.7880 O   0  0  0  0  0  0  0  0  0  0  0  0
  151.4676  140.2210  155.8780 C   0  0  0  0  0  0  0  0  0  0  0  0
  150.4038  140.0497  154.7796 C   0  0  0  0  0  0  0  0  0  0  0  0
  149.2935  141.0330  154.8112 N   0  0  0  0  0  0  0  0  0  0  0  0
  148.2422  140.6176  153.8783 C   0  0  0  0  0  0  0  0  0  0  0  0
  147.7473  139.1771  154.1184 C   0  0  0  0  0  0  0  0  0  0  0  0
  146.5796  138.7744  153.1999 C   0  0  0  0  0  0  0  0  0  0  0  0
  146.8039  137.4702  152.5870 N   0  0  0  0  0  0  0  0  0  0  0  0
  145.8378  136.6238  152.2013 C   0  0  0  0  0  0  0  0  0  0  0  0
  144.6364  136.8667  152.3194 O   0  0  0  0  0  0  0  0  0  0  0  0
  146.3566  135.4991  151.6769 N   0  0  0  0  0  0  0  0  0  0  0  0
  145.6658  134.3628  151.1766 C   0  0  0  0  0  0  0  0  0  0  0  0
  146.4916  133.3479  150.6419 C   0  0  0  0  0  0  0  0  0  0  0  0
  145.9038  132.1784  150.1223 C   0  0  0  0  0  0  0  0  0  0  0  0
  144.5035  132.0528  150.1514 C   0  0  0  0  0  0  0  0  0  0  0  0
  143.7545  133.1096  150.7007 C   0  0  0  0  0  0  0  0  0  0  0  0
  144.3158  134.2317  151.1986 N   0  0  0  0  0  0  0  0  0  0  0  0
  148.8050  141.2122  156.1803 C   0  0  0  0  0  0  0  0  0  0  0  0
  149.9428  141.7717  157.0542 C   0  0  0  0  0  0  0  0  0  0  0  0
  151.1745  141.0012  156.9290 N   0  0  0  0  0  0  0  0  0  0  0  0
  150.8955  140.0922  153.8066 H   0  0  0  0  0  0  0  0  0  0  0  0
  150.0008  139.0410  154.8856 H   0  0  0  0  0  0  0  0  0  0  0  0
  147.3839  141.2839  153.9799 H   0  0  0  0  0  0  0  0  0  0  0  0
  148.5937  140.7282  152.8510 H   0  0  0  0  0  0  0  0  0  0  0  0
  148.5846  138.5026  153.9354 H   0  0  0  0  0  0  0  0  0  0  0  0
  147.4761  139.0202  155.1614 H   0  0  0  0  0  0  0  0  0  0  0  0
  145.6544  138.7171  153.7734 H   0  0  0  0  0  0  0  0  0  0  0  0
  146.4192  139.5304  152.4293 H   0  0  0  0  0  0  0  0  0  0  0  0
  147.7645  137.1910  152.4519 H   0  0  0  0  0  0  0  0  0  0  0  0
  147.3634  135.4458  151.6381 H   0  0  0  0  0  0  0  0  0  0  0  0
  147.5660  133.4600  150.6284 H   0  0  0  0  0  0  0  0  0  0  0  0
  146.5177  131.3917  149.7093 H   0  0  0  0  0  0  0  0  0  0  0  0
  144.0165  131.1706  149.7632 H   0  0  0  0  0  0  0  0  0  0  0  0
  142.6769  133.0537  150.7420 H   0  0  0  0  0  0  0  0  0  0  0  0
  147.9679  141.9073  156.2171 H   0  0  0  0  0  0  0  0  0  0  0  0
  148.4482  140.2609  156.5790 H   0  0  0  0  0  0  0  0  0  0  0  0
  150.1577  142.8027  156.7701 H   0  0  0  0  0  0  0  0  0  0  0  0
  149.6389  141.7908  158.1009 H   0  0  0  0  0  0  0  0  0  0  0  0
  151.8618  141.0982  157.6624 H   0  0  0  0  0  0  0  0  0  0  0  0
  1  2  2  0  0  0  0
  2 20  1  0  0  0  0
  2  3  1  0  0  0  0
  3  4  1  0  0  0  0
  3 21  1  0  0  0  0
  3 22  1  0  0  0  0
  4  5  1  0  0  0  0
  4 18  1  0  0  0  0
  5  6  1  0  0  0  0
  5 23  1  0  0  0  0
  5 24  1  0  0  0  0
  6  7  1  0  0  0  0
  6 25  1  0  0  0  0
  6 26  1  0  0  0  0
  7  8  1  0  0  0  0
  7 27  1  0  0  0  0
  7 28  1  0  0  0  0
  8  9  1  0  0  0  0
  8 29  1  0  0  0  0
  9 10  2  0  0  0  0
  9 11  1  0  0  0  0
 11 12  1  0  0  0  0
 11 30  1  0  0  0  0
 12 17  1  0  0  0  0
 12 13  2  0  0  0  0
 13 14  1  0  0  0  0
 13 31  1  0  0  0  0
 14 15  2  0  0  0  0
 14 32  1  0  0  0  0
 15 16  1  0  0  0  0
 15 33  1  0  0  0  0
 16 17  2  0  0  0  0
 16 34  1  0  0  0  0
 18 19  1  0  0  0  0
 18 35  1  0  0  0  0
 18 36  1  0  0  0  0
 19 20  1  0  0  0  0
 19 37  1  0  0  0  0
 19 38  1  0  0  0  0
 20 39  1  0  0  0  0
M  END
> <s_m_source_file>
AV-unprocessed.smi

> <i_m_source_file_index>
2858

> <i_lp_mmshare_version>
43012

> <i_f3d_flags>
0

> <s_epik_input>
Tz1DMVtDSDJdTihbQ0gyXVtDSDJdW05IXTEpW0NIMl1bQ0gyXVtDSDJdW05IXUMoPU8pW05IXWMyW2NIXVtjSF1bY0hdW2NIXW4y

> <s_epik_cmdline>
J2VwaWtfcHl0aG9uJywgJy1waCcsICc3LjAnLCAnLXRuJywgJzgnLCAnLW1hJywgJzIwMCcsICctbWV0YWxfYmluZGluZycsICctaW1hZScsICc8aW5maWxlLm1hZT4nLCAnLW9tYWUnLCAnPG91dGZpbGUubWFlPic=

> <r_epik_Ionization_Penalty>
1.05093

> <r_epik_Ionization_Penalty_Charging>
0

> <r_epik_Ionization_Penalty_Neutral>
1.05093

> <r_epik_State_Penalty>
1.10373

> <r_epik_Charging_Adjusted_Penalty>
1.10373

> <i_epik_Tot_Q>
0

> <i_epik_Tot_abs_Q>
0

> <r_epik_Metal_State_Penalty>
1.17671

> <b_epik_Metal_Only>
0

> <s_lp_Force_Field>
OPLS_2005

> <r_lp_Energy>
22.2327

> <b_lp_Chiralities_Consistent>
1

> <s_lp_Variant>
AV-unprocessed.smi:2858-3

> <Gold.Version>
5.8.1

> <Gold.Id.Protein>
6NUR|6NUR_protein|mol2

> <Gold.PLP.Fitness>
43.8746

> <Gold.PLP.PLP>
-32.9695

> <Gold.PLP.part.hbond>
-3.0000

> <Gold.PLP.part.metal>
0.0000

> <Gold.PLP.part.buried>
-3.5634

> <Gold.PLP.part.nonpolar>
-27.8222

> <Gold.PLP.part.repulsive>
0.8110

> <Gold.PLP.ligand.clash>
0.0000

> <Gold.PLP.ligand.torsion>
0.5604

> <Gold.PLP.Chemscore.Hbond>
3.0000

> <Gold.PLP.Chemscore.CHOScore>
1.0000

> <Gold.PLP.Chemscore.Metal>
0.0000

> <Gold.Chemscore.Hbonds>
donor molecule, donor type, donor heavy atom, donor atom, acceptor molecule, acceptor atom, score
      L1  H     8    29       P1  7948  1.00
      L1  H    11    30       P1  7948  1.00
      P1  H  7997  8009       L1     1  1.00
      L1  C    16    34       P1 10186  0.99

> <Gold.PLP.Chemscore.Internal.Correction>
0.0259

> <Gold.Rescore>
     Score         DG    S(hbond)    S(metal)    S(lipo)     H(rot)  DE(clash)    DE(int)     intcor
     16.32     -18.32       2.90        0.00      71.25       2.02       0.15       1.84       ----

> <Gold.Chemscore.Fitness>
16.3171

> <Gold.Chemscore.DG>
-18.3156

> <Gold.Chemscore.ZeroCoef>
-5.4800

> <Gold.Chemscore.Hbond>
2.8964

> <Gold.Chemscore.Metal>
0.0000

> <Gold.Chemscore.Lipo>
71.2484

> <Gold.Chemscore.Internal_Hbond>
0.0000

> <Gold.Chemscore.DEClash>
0.1542

> <Gold.Chemscore.DEInternal>
1.8443

> <Gold.Chemscore.Rot>
2.0213

> <Gold.Chemscore.Internal.Correction>
   9.000000E+99

> <Gold.Chemscore.Hbonds>
donor molecule, donor type, donor heavy atom, donor atom, acceptor molecule, acceptor atom, score
      L1  H     8    29       P1  7948  0.97
      L1  H    11    30       P1  7948  0.93
      P1  H  7997  8009       L1     1  0.96

> <Gold.Chemscore.Hbond.Weighted>
-9.6740

> <Gold.Chemscore.Metal.Weighted>
-0.0000

> <Gold.Chemscore.Lipo.Weighted>
-8.3361

> <Gold.Chemscore.Internal_Hbond.Weighted>
0.0000

> <Gold.Chemscore.DEClash.Weighted>
0.1542

> <Gold.Chemscore.DEInternal.Weighted>
1.8443

> <Gold.Chemscore.Rot.Weighted>
5.1744

> <Gold.Chemscore.Internal.Correction.Weighted>
   9.000000E+99

> <Gold.Protein.RotatedTorsions>
[ 6907 6896 6895 6894 ] final -107.72 input  -60.11 | X-H torsion
[ 7974 7965 7964 7962 ] final  -27.78 input  175.53 | X-H torsion
[ 8008 7997 7996 7995 ] final -170.48 input   59.86 | X-H torsion
[ 10167 10162 10161 10158 ] final   40.38 input  -65.29 | X-H torsion
[ 10718 10713 10712 10709 ] final   52.62 input   66.30 | X-H torsion
[ 10763 10752 10751 10750 ] final   53.03 input  -60.55 | X-H torsion
[ 11005 11000 10999 10996 ] final  -26.06 input  -57.11 | X-H torsion

> <Gold.Protein.ActiveResidues>
 VAL166  LYS551  ARG553  GLY616  TRP617  ASP618  TYR619  PRO620  LYS621  CYS622 
 ASP623  PHE694  ASN695  SER759  ASP760  ASP761  ALA762  ILE779  LEU786  VAL792 
 PHE793  MET794  SER795  GLU796  ALA797  LYS798  CYS799  TRP800  GLU811  SER814 

> <Gold.Protein.RotatedAtoms>
  150.7460  133.9784  159.3567 H   0  0  0  0  0  0  0  0  0  0  0  0  # atno 6907 bound_to 6896
  151.7723  135.0781  160.0371 H   0  0  0  0  0  0  0  0  0  0  0  0  # atno 6908 bound_to 6896
  152.3330  133.5943  159.5859 H   0  0  0  0  0  0  0  0  0  0  0  0  # atno 6909 bound_to 6896
  146.1334  140.5197  142.8683 H   0  0  0  0  0  0  0  0  0  0  0  0  # atno 7974 bound_to 7965
  155.9190  140.1070  157.1222 H   0  0  0  0  0  0  0  0  0  0  0  0  # atno 8008 bound_to 7997
  154.4051  140.1259  156.4719 H   0  0  0  0  0  0  0  0  0  0  0  0  # atno 8009 bound_to 7997
  155.7219  140.3469  155.5022 H   0  0  0  0  0  0  0  0  0  0  0  0  # atno 8010 bound_to 7997
  140.3747  144.2058  150.6132 H   0  0  0  0  0  0  0  0  0  0  0  0  # atno 10167 bound_to 10162
  157.5092  130.8489  149.8413 H   0  0  0  0  0  0  0  0  0  0  0  0  # atno 10718 bound_to 10713
  152.9792  135.5792  154.4676 H   0  0  0  0  0  0  0  0  0  0  0  0  # atno 10763 bound_to 10752
  154.4243  135.2772  155.1957 H   0  0  0  0  0  0  0  0  0  0  0  0  # atno 10764 bound_to 10752
  154.3692  135.6171  153.5785 H   0  0  0  0  0  0  0  0  0  0  0  0  # atno 10765 bound_to 10752
  140.8995  133.7533  156.0525 H   0  0  0  0  0  0  0  0  0  0  0  0  # atno 11005 bound_to 11000
  144.7714  140.5646  143.6667 LP  0  0  0  0  0  0  0  0  0  0  0  0  # atno 17320 bound_to 7965
  145.5210  139.1476  143.3552 LP  0  0  0  0  0  0  0  0  0  0  0  0  # atno 17321 bound_to 7965
  140.4998  143.2321  151.8696 LP  0  0  0  0  0  0  0  0  0  0  0  0  # atno 17342 bound_to 10162
  139.4800  144.5072  151.8981 LP  0  0  0  0  0  0  0  0  0  0  0  0  # atno 17343 bound_to 10162
  156.0278  130.3774  150.1773 LP  0  0  0  0  0  0  0  0  0  0  0  0  # atno 17370 bound_to 10713
  156.9963  130.9909  151.3402 LP  0  0  0  0  0  0  0  0  0  0  0  0  # atno 17371 bound_to 10713
  140.8247  134.3248  157.5369 LP  0  0  0  0  0  0  0  0  0  0  0  0  # atno 17394 bound_to 11000
  139.8740  134.9329  156.3567 LP  0  0  0  0  0  0  0  0  0  0  0  0  # atno 17395 bound_to 11000

$$$$
