AV-unprocessed.smi:681|AV-procd|sdf|3325|dock4
  -GOLD-   22720 0293D 1   1.00000     0.00000
 Structure written by MMmdl.
 41 42  0  0  0  0  0  0  0  0  1 V2000
  145.4613  137.4574  155.9481 C   0  0  0  0  0  0  0  0  0  0  0  0
  146.0774  138.3643  154.9388 C   0  0  0  0  0  0  0  0  0  0  0  0
  145.9784  138.1544  153.5939 N   0  0  0  0  0  0  0  0  0  0  0  0
  146.6718  139.1937  153.1415 C   0  0  0  0  0  0  0  0  0  0  0  0
  146.9071  139.4837  151.6951 C   0  0  0  0  0  0  0  0  0  0  0  0
  147.1508  139.9683  154.1260 N   0  0  0  0  0  0  0  0  0  0  0  0
  147.9581  141.1773  154.0844 C   0  0  0  0  0  0  0  0  0  0  0  0
  149.3186  140.9552  154.7461 C   0  0  0  0  0  0  0  0  0  0  0  0
  150.0574  140.0557  154.3465 O   0  0  0  0  0  0  0  0  0  0  0  0
  149.6336  141.7785  155.7581 N   0  0  0  0  0  0  0  0  0  0  0  0
  150.8669  141.7203  156.5323 C   0  0  0  0  0  0  0  0  0  0  0  0
  150.7976  142.6389  157.7643 C   0  0  0  0  0  0  0  0  0  0  0  0
  151.6968  142.1724  158.8971 C   0  0  0  0  0  0  0  0  0  0  0  0
  152.3922  141.0204  158.8266 C   0  0  0  0  0  0  0  0  0  0  0  0
  153.3178  140.5138  159.9189 C   0  0  0  0  0  0  0  0  0  0  0  0
  153.6490  141.5997  160.9560 C   0  0  0  0  0  0  0  0  0  0  0  0
  152.3968  142.3958  161.3436 C   0  0  0  0  0  0  0  0  0  0  0  0
  151.7686  143.0833  160.1179 C   0  0  0  0  0  0  0  0  0  0  0  0
  146.7683  139.4384  155.3125 N   0  0  0  0  0  0  0  0  0  0  0  0
  144.8850  136.6707  155.4604 H   0  0  0  0  0  0  0  0  0  0  0  0
  144.7938  138.0178  156.6030 H   0  0  0  0  0  0  0  0  0  0  0  0
  146.2359  136.9904  156.5566 H   0  0  0  0  0  0  0  0  0  0  0  0
  146.3678  138.7707  151.0707 H   0  0  0  0  0  0  0  0  0  0  0  0
  147.9702  139.4099  151.4660 H   0  0  0  0  0  0  0  0  0  0  0  0
  146.5612  140.4877  151.4496 H   0  0  0  0  0  0  0  0  0  0  0  0
  148.0925  141.4822  153.0460 H   0  0  0  0  0  0  0  0  0  0  0  0
  147.4261  141.9876  154.5858 H   0  0  0  0  0  0  0  0  0  0  0  0
  148.9615  142.4852  156.0211 H   0  0  0  0  0  0  0  0  0  0  0  0
  151.0752  140.6917  156.8326 H   0  0  0  0  0  0  0  0  0  0  0  0
  151.6840  142.0241  155.8777 H   0  0  0  0  0  0  0  0  0  0  0  0
  151.0786  143.6564  157.4902 H   0  0  0  0  0  0  0  0  0  0  0  0
  149.7688  142.6927  158.1234 H   0  0  0  0  0  0  0  0  0  0  0  0
  152.3014  140.3904  157.9537 H   0  0  0  0  0  0  0  0  0  0  0  0
  152.8340  139.6651  160.4031 H   0  0  0  0  0  0  0  0  0  0  0  0
  154.2370  140.1403  159.4667 H   0  0  0  0  0  0  0  0  0  0  0  0
  154.1016  141.1468  161.8387 H   0  0  0  0  0  0  0  0  0  0  0  0
  154.3928  142.2826  160.5432 H   0  0  0  0  0  0  0  0  0  0  0  0
  151.6691  141.7202  161.7951 H   0  0  0  0  0  0  0  0  0  0  0  0
  152.6397  143.1394  162.1032 H   0  0  0  0  0  0  0  0  0  0  0  0
  152.3542  143.9637  159.8522 H   0  0  0  0  0  0  0  0  0  0  0  0
  150.7678  143.4341  160.3717 H   0  0  0  0  0  0  0  0  0  0  0  0
  1  2  1  0  0  0  0
  1 20  1  0  0  0  0
  1 21  1  0  0  0  0
  1 22  1  0  0  0  0
  2 19  2  0  0  0  0
  2  3  1  0  0  0  0
  3  4  2  0  0  0  0
  4  5  1  0  0  0  0
  4  6  1  0  0  0  0
  5 23  1  0  0  0  0
  5 24  1  0  0  0  0
  5 25  1  0  0  0  0
  6  7  1  0  0  0  0
  6 19  1  0  0  0  0
  7  8  1  0  0  0  0
  7 26  1  0  0  0  0
  7 27  1  0  0  0  0
  8  9  2  0  0  0  0
  8 10  1  0  0  0  0
 10 11  1  0  0  0  0
 10 28  1  0  0  0  0
 11 12  1  0  0  0  0
 11 29  1  0  0  0  0
 11 30  1  0  0  0  0
 12 13  1  0  0  0  0
 12 31  1  0  0  0  0
 12 32  1  0  0  0  0
 13 18  1  0  0  0  0
 13 14  2  0  0  0  0
 14 15  1  0  0  0  0
 14 33  1  0  0  0  0
 15 16  1  0  0  0  0
 15 34  1  0  0  0  0
 15 35  1  0  0  0  0
 16 17  1  0  0  0  0
 16 36  1  0  0  0  0
 16 37  1  0  0  0  0
 17 18  1  0  0  0  0
 17 38  1  0  0  0  0
 17 39  1  0  0  0  0
 18 40  1  0  0  0  0
 18 41  1  0  0  0  0
M  END
> <s_m_source_file>
AV-unprocessed.smi

> <i_m_source_file_index>
681

> <i_lp_mmshare_version>
43012

> <i_f3d_flags>
0

> <s_epik_input>
W0NIM11jMW5jKFtDSDNdKW4objEpW0NIMl1DKD1PKVtOSF1bQ0gyXVtDSDJdQzI9W0NIXVtDSDJdW0NIMl1bQ0gyXVtDSDJdMg==

> <s_epik_cmdline>
J2VwaWtfcHl0aG9uJywgJy1waCcsICc3LjAnLCAnLXRuJywgJzgnLCAnLW1hJywgJzIwMCcsICctbWV0YWxfYmluZGluZycsICctaW1hZScsICc8aW5maWxlLm1hZT4nLCAnLW9tYWUnLCAnPG91dGZpbGUubWFlPic=

> <r_lp_tautomer_probability>
1

> <r_epik_Ionization_Penalty>
0.000426663

> <r_epik_Ionization_Penalty_Charging>
0

> <r_epik_Ionization_Penalty_Neutral>
0.000426663

> <r_epik_State_Penalty>
0.000262586

> <r_epik_Charging_Adjusted_Penalty>
0.000262586

> <i_epik_Tot_Q>
0

> <i_epik_Tot_abs_Q>
0

> <r_epik_Metal_State_Penalty>
-0

> <b_epik_Metal_Only>
0

> <s_lp_Force_Field>
OPLS_2005

> <r_lp_Energy>
6.45034

> <b_lp_Chiralities_Consistent>
1

> <s_lp_Variant>
AV-unprocessed.smi:681-1

> <Gold.Version>
5.8.1

> <Gold.Id.Protein>
6NUR|6NUR_protein|mol2

> <Gold.PLP.Fitness>
43.2695

> <Gold.PLP.PLP>
-37.7327

> <Gold.PLP.part.hbond>
-2.0000

> <Gold.PLP.part.metal>
0.0000

> <Gold.PLP.part.buried>
-1.2547

> <Gold.PLP.part.nonpolar>
-35.2340

> <Gold.PLP.part.repulsive>
0.4937

> <Gold.PLP.ligand.clash>
0.0000

> <Gold.PLP.ligand.torsion>
0.2428

> <Gold.PLP.Chemscore.Hbond>
2.0000

> <Gold.PLP.Chemscore.CHOScore>
0.0000

> <Gold.PLP.Chemscore.Metal>
0.0000

> <Gold.Chemscore.Hbonds>
donor molecule, donor type, donor heavy atom, donor atom, acceptor molecule, acceptor atom, score
      L1  H    10    28       P1  8028  0.28
      P1  H  7989  7998       L1     9  1.00

> <Gold.PLP.Chemscore.Internal.Correction>
0.0224

> <Gold.Rescore>
     Score         DG    S(hbond)    S(metal)    S(lipo)     H(rot)  DE(clash)    DE(int)     intcor
     16.18     -16.70       1.41        0.00      96.82       1.87       0.22       0.30       ----

> <Gold.Chemscore.Fitness>
16.1784

> <Gold.Chemscore.DG>
-16.7049

> <Gold.Chemscore.ZeroCoef>
-5.4800

> <Gold.Chemscore.Hbond>
1.4062

> <Gold.Chemscore.Metal>
0.0000

> <Gold.Chemscore.Lipo>
96.8218

> <Gold.Chemscore.Internal_Hbond>
0.0000

> <Gold.Chemscore.DEClash>
0.2230

> <Gold.Chemscore.DEInternal>
0.3035

> <Gold.Chemscore.Rot>
1.8750

> <Gold.Chemscore.Internal.Correction>
   9.000000E+99

> <Gold.Chemscore.Hbonds>
donor molecule, donor type, donor heavy atom, donor atom, acceptor molecule, acceptor atom, score
      L1  H    10    28       P1  8028  0.27
      P1  H  7989  7998       L1     9  0.62

> <Gold.Chemscore.Hbond.Weighted>
-4.6967

> <Gold.Chemscore.Metal.Weighted>
-0.0000

> <Gold.Chemscore.Lipo.Weighted>
-11.3281

> <Gold.Chemscore.Internal_Hbond.Weighted>
0.0000

> <Gold.Chemscore.DEClash.Weighted>
0.2230

> <Gold.Chemscore.DEInternal.Weighted>
0.3035

> <Gold.Chemscore.Rot.Weighted>
4.7999

> <Gold.Chemscore.Internal.Correction.Weighted>
   9.000000E+99

> <Gold.Protein.RotatedTorsions>
[ 6907 6896 6895 6894 ] final   51.39 input  -60.11 | X-H torsion
[ 7974 7965 7964 7962 ] final   98.16 input  175.53 | X-H torsion
[ 8008 7997 7996 7995 ] final  177.77 input   59.86 | X-H torsion
[ 10167 10162 10161 10158 ] final  125.23 input  -65.29 | X-H torsion
[ 10718 10713 10712 10709 ] final  -41.45 input   66.30 | X-H torsion
[ 10763 10752 10751 10750 ] final  115.06 input  -60.55 | X-H torsion
[ 11005 11000 10999 10996 ] final   74.13 input  -57.11 | X-H torsion

> <Gold.Protein.ActiveResidues>
 VAL166  LYS551  ARG553  GLY616  TRP617  ASP618  TYR619  PRO620  LYS621  CYS622 
 ASP623  PHE694  ASN695  SER759  ASP760  ASP761  ALA762  ILE779  LEU786  VAL792 
 PHE793  MET794  SER795  GLU796  ALA797  LYS798  CYS799  TRP800  GLU811  SER814 

> <Gold.Protein.RotatedAtoms>
  152.3122  134.7484  160.0333 H   0  0  0  0  0  0  0  0  0  0  0  0  # atno 6907 bound_to 6896
  151.7961  133.3359  159.3521 H   0  0  0  0  0  0  0  0  0  0  0  0  # atno 6908 bound_to 6896
  150.7326  134.5728  159.5943 H   0  0  0  0  0  0  0  0  0  0  0  0  # atno 6909 bound_to 6896
  145.4159  139.2327  143.3223 H   0  0  0  0  0  0  0  0  0  0  0  0  # atno 7974 bound_to 7965
  156.0621  140.1350  156.9929 H   0  0  0  0  0  0  0  0  0  0  0  0  # atno 8008 bound_to 7997
  154.4487  140.0989  156.6603 H   0  0  0  0  0  0  0  0  0  0  0  0  # atno 8009 bound_to 7997
  155.5361  140.3460  155.4439 H   0  0  0  0  0  0  0  0  0  0  0  0  # atno 8010 bound_to 7997
  139.5697  144.6932  151.3812 H   0  0  0  0  0  0  0  0  0  0  0  0  # atno 10167 bound_to 10162
  156.2702  130.4206  149.8446 H   0  0  0  0  0  0  0  0  0  0  0  0  # atno 10718 bound_to 10713
  153.5166  135.3607  155.2612 H   0  0  0  0  0  0  0  0  0  0  0  0  # atno 10763 bound_to 10752
  154.8738  135.4035  154.3308 H   0  0  0  0  0  0  0  0  0  0  0  0  # atno 10764 bound_to 10752
  153.3971  135.7074  153.6520 H   0  0  0  0  0  0  0  0  0  0  0  0  # atno 10765 bound_to 10752
  139.9406  134.7406  156.1110 H   0  0  0  0  0  0  0  0  0  0  0  0  # atno 11005 bound_to 11000
  146.2681  140.4877  142.8825 LP  0  0  0  0  0  0  0  0  0  0  0  0  # atno 17320 bound_to 7965
  144.8278  140.6657  143.6311 LP  0  0  0  0  0  0  0  0  0  0  0  0  # atno 17321 bound_to 7965
  140.6981  143.7699  150.7359 LP  0  0  0  0  0  0  0  0  0  0  0  0  # atno 17342 bound_to 10162
  140.1201  143.4620  152.2318 LP  0  0  0  0  0  0  0  0  0  0  0  0  # atno 17343 bound_to 10162
  156.5930  130.8514  151.3413 LP  0  0  0  0  0  0  0  0  0  0  0  0  # atno 17370 bound_to 10713
  157.7281  130.9652  150.1728 LP  0  0  0  0  0  0  0  0  0  0  0  0  # atno 17371 bound_to 10713
  141.1039  133.6667  156.2818 LP  0  0  0  0  0  0  0  0  0  0  0  0  # atno 17394 bound_to 11000
  140.5961  134.5601  157.5509 LP  0  0  0  0  0  0  0  0  0  0  0  0  # atno 17395 bound_to 11000

$$$$
