AV-unprocessed.smi:273|AV-procd|sdf|2056|dock2
  -GOLD-   2262021293D 1   1.00000     0.00000
 Structure written by MMmdl.
 59 62  0  0  0  0  0  0  0  0  1 V2000
  152.0670  145.0549  159.2552 C   0  0  0  0  0  0  0  0  0  0  0  0
  152.2038  144.7401  157.7625 C   0  0  0  0  0  0  0  0  0  0  0  0
  151.3334  143.6332  157.3927 N   0  0  0  0  0  0  0  0  0  0  0  0
  151.4511  142.3794  157.8574 C   0  0  0  0  0  0  0  0  0  0  0  0
  152.3266  142.0542  158.6597 O   0  0  0  0  0  0  0  0  0  0  0  0
  150.4326  141.3283  157.3724 C   0  0  0  0  0  0  0  0  0  0  0  0
  150.7537  139.9306  157.9457 C   0  0  0  0  0  0  0  0  0  0  0  0
  149.7274  138.8838  157.4835 C   0  0  0  0  0  0  0  0  0  0  0  0
  149.6142  138.8672  156.0261 N   0  0  0  0  0  0  0  0  0  0  0  0
  148.9977  137.7661  155.5264 C   0  0  0  0  0  0  0  0  0  0  0  0
  149.5787  136.5428  155.6568 N   0  0  0  0  0  0  0  0  0  0  0  0
  148.9870  135.4563  155.1519 C   0  0  0  0  0  0  0  0  0  0  0  0
  147.8319  135.3669  154.4901 N   0  0  0  0  0  0  0  0  0  0  0  0
  147.2398  136.5886  154.3646 C   0  0  0  0  0  0  0  0  0  0  0  0
  147.7467  137.8270  154.8497 C   0  0  0  0  0  0  0  0  0  0  0  0
  146.8589  138.8526  154.5441 N   0  0  0  0  0  0  0  0  0  0  0  0
  145.8889  138.2564  153.9061 C   0  0  0  0  0  0  0  0  0  0  0  0
  146.0418  136.8978  153.7470 N   0  0  0  0  0  0  0  0  0  0  0  0
  145.1295  135.9891  153.0758 C   0  0  0  0  0  0  0  0  0  0  0  0
  145.8120  135.1571  151.9619 C   0  0  2  0  0  0  0  0  0  0  0  0
  145.8404  135.8929  150.6001 C   0  0  0  0  0  0  0  0  0  0  0  0
  146.3803  137.1927  150.7255 O   0  0  0  0  0  0  0  0  0  0  0  0
  145.1995  133.7379  151.8551 C   0  0  1  0  0  0  0  0  0  0  0  0
  143.7508  133.6981  151.4005 C   0  0  0  0  0  0  0  0  0  0  0  0
  143.5927  132.2544  150.9341 C   0  0  0  0  0  0  0  0  0  0  0  0
  144.8752  131.8545  150.4637 O   0  0  0  0  0  0  0  0  0  0  0  0
  145.8437  132.8457  150.7893 C   0  0  0  0  0  0  0  0  0  0  0  0
  149.2876  140.1587  155.4210 C   0  0  0  0  0  0  0  0  0  0  0  0
  150.3074  141.2322  155.8326 C   0  0  0  0  0  0  0  0  0  0  0  0
  152.7253  145.8758  159.5402 H   0  0  0  0  0  0  0  0  0  0  0  0
  152.3290  144.1908  159.8667 H   0  0  0  0  0  0  0  0  0  0  0  0
  151.0459  145.3463  159.5037 H   0  0  0  0  0  0  0  0  0  0  0  0
  151.9503  145.6229  157.1733 H   0  0  0  0  0  0  0  0  0  0  0  0
  153.2375  144.4803  157.5290 H   0  0  0  0  0  0  0  0  0  0  0  0
  150.5899  143.8311  156.7388 H   0  0  0  0  0  0  0  0  0  0  0  0
  149.4648  141.6406  157.7673 H   0  0  0  0  0  0  0  0  0  0  0  0
  151.7510  139.6205  157.6291 H   0  0  0  0  0  0  0  0  0  0  0  0
  150.7689  139.9547  159.0361 H   0  0  0  0  0  0  0  0  0  0  0  0
  150.0132  137.9071  157.8724 H   0  0  0  0  0  0  0  0  0  0  0  0
  148.7487  139.1126  157.9075 H   0  0  0  0  0  0  0  0  0  0  0  0
  149.5164  134.5259  155.2961 H   0  0  0  0  0  0  0  0  0  0  0  0
  145.0338  138.7953  153.5242 H   0  0  0  0  0  0  0  0  0  0  0  0
  144.6978  135.3366  153.8349 H   0  0  0  0  0  0  0  0  0  0  0  0
  144.3034  136.5697  152.6634 H   0  0  0  0  0  0  0  0  0  0  0  0
  146.8544  135.0309  152.2587 H   0  0  0  0  0  0  0  0  0  0  0  0
  146.4280  135.3389  149.8681 H   0  0  0  0  0  0  0  0  0  0  0  0
  144.8385  135.9696  150.1784 H   0  0  0  0  0  0  0  0  0  0  0  0
  145.6911  137.8207  150.5705 H   0  0  0  0  0  0  0  0  0  0  0  0
  145.2739  133.2324  152.8194 H   0  0  0  0  0  0  0  0  0  0  0  0
  143.0437  133.9587  152.1886 H   0  0  0  0  0  0  0  0  0  0  0  0
  143.5952  134.3794  150.5626 H   0  0  0  0  0  0  0  0  0  0  0  0
  143.3149  131.6119  151.7706 H   0  0  0  0  0  0  0  0  0  0  0  0
  142.8333  132.1494  150.1591 H   0  0  0  0  0  0  0  0  0  0  0  0
  146.0636  133.4182  149.8870 H   0  0  0  0  0  0  0  0  0  0  0  0
  146.7715  132.3866  151.1314 H   0  0  0  0  0  0  0  0  0  0  0  0
  149.2756  140.0703  154.3337 H   0  0  0  0  0  0  0  0  0  0  0  0
  148.2859  140.4598  155.7317 H   0  0  0  0  0  0  0  0  0  0  0  0
  149.9999  142.1895  155.4098 H   0  0  0  0  0  0  0  0  0  0  0  0
  151.2767  140.9906  155.3930 H   0  0  0  0  0  0  0  0  0  0  0  0
  1  2  1  0  0  0  0
  1 30  1  0  0  0  0
  1 31  1  0  0  0  0
  1 32  1  0  0  0  0
  2  3  1  0  0  0  0
  2 33  1  0  0  0  0
  2 34  1  0  0  0  0
  3  4  1  0  0  0  0
  3 35  1  0  0  0  0
  4  5  2  0  0  0  0
  4  6  1  0  0  0  0
  6 29  1  0  0  0  0
  6  7  1  0  0  0  0
  6 36  1  0  0  0  0
  7  8  1  0  0  0  0
  7 37  1  0  0  0  0
  7 38  1  0  0  0  0
  8  9  1  0  0  0  0
  8 39  1  0  0  0  0
  8 40  1  0  0  0  0
  9 10  1  0  0  0  0
  9 28  1  0  0  0  0
 10 15  1  0  0  0  0
 10 11  2  0  0  0  0
 11 12  1  0  0  0  0
 12 13  2  0  0  0  0
 12 41  1  0  0  0  0
 13 14  1  0  0  0  0
 14 18  1  0  0  0  0
 14 15  2  0  0  0  0
 15 16  1  0  0  0  0
 16 17  2  0  0  0  0
 17 18  1  0  0  0  0
 17 42  1  0  0  0  0
 18 19  1  0  0  0  0
 19 20  1  0  0  0  0
 19 43  1  0  0  0  0
 19 44  1  0  0  0  0
 20 21  1  0  0  0  0
 20 23  1  0  0  0  0
 20 45  1  0  0  0  0
 21 22  1  0  0  0  0
 21 46  1  0  0  0  0
 21 47  1  0  0  0  0
 22 48  1  0  0  0  0
 23 27  1  0  0  0  0
 23 24  1  0  0  0  0
 23 49  1  0  0  0  0
 24 25  1  0  0  0  0
 24 50  1  0  0  0  0
 24 51  1  0  0  0  0
 25 26  1  0  0  0  0
 25 52  1  0  0  0  0
 25 53  1  0  0  0  0
 26 27  1  0  0  0  0
 27 54  1  0  0  0  0
 27 55  1  0  0  0  0
 28 29  1  0  0  0  0
 28 56  1  0  0  0  0
 28 57  1  0  0  0  0
 29 58  1  0  0  0  0
 29 59  1  0  0  0  0
M  END
> <s_m_source_file>
AV-unprocessed.smi

> <i_m_source_file_index>
273

> <i_lp_mmshare_version>
43012

> <i_f3d_flags>
0

> <s_epik_input>
W0NIM11bQ0gyXVtOSF1DKD1PKVtDSF0xW0NIMl1bQ0gyXU4oW0NIMl1bQ0gyXTEpYyhuW2NIXW4yKWMoYzIzKW5bY0hdbjNbQ0gyXVtDQEhdKFtDSDJdW09IXSlbQ0BASF00W0NIMl1bQ0gyXU9bQ0gyXTQ=

> <s_epik_cmdline>
J2VwaWtfcHl0aG9uJywgJy1waCcsICc3LjAnLCAnLXRuJywgJzgnLCAnLW1hJywgJzIwMCcsICctbWV0YWxfYmluZGluZycsICctaW1hZScsICc8aW5maWxlLm1hZT4nLCAnLW9tYWUnLCAnPG91dGZpbGUubWFlPic=

> <r_lp_tautomer_probability>
1

> <r_epik_Ionization_Penalty>
0.00226556

> <r_epik_Ionization_Penalty_Charging>
0

> <r_epik_Ionization_Penalty_Neutral>
0.00226556

> <r_epik_State_Penalty>
0.00139883

> <r_epik_Charging_Adjusted_Penalty>
0.00139883

> <i_epik_Tot_Q>
0

> <i_epik_Tot_abs_Q>
0

> <r_epik_Metal_State_Penalty>
-0

> <b_epik_Metal_Only>
0

> <s_lp_Force_Field>
OPLS_2005

> <r_lp_Energy>
43.2491

> <b_lp_Chiralities_Consistent>
1

> <s_lp_Variant>
AV-unprocessed.smi:273-3

> <Gold.Version>
5.8.1

> <Gold.Id.Protein>
6NUR|6NUR_protein|mol2

> <Gold.PLP.Fitness>
50.1492

> <Gold.PLP.PLP>
-39.4536

> <Gold.PLP.part.hbond>
-3.9968

> <Gold.PLP.part.metal>
0.0000

> <Gold.PLP.part.buried>
-7.6079

> <Gold.PLP.part.nonpolar>
-29.6006

> <Gold.PLP.part.repulsive>
1.7336

> <Gold.PLP.ligand.clash>
0.0000

> <Gold.PLP.ligand.torsion>
0.8959

> <Gold.PLP.Chemscore.Hbond>
2.9575

> <Gold.PLP.Chemscore.CHOScore>
1.0000

> <Gold.PLP.Chemscore.Metal>
0.0000

> <Gold.Chemscore.Hbonds>
donor molecule, donor type, donor heavy atom, donor atom, acceptor molecule, acceptor atom, score
      L1  H     3    35       P1  8028  0.60
      L1  H    22    48       P1 10171  0.81
      P1  H  7954  7966       L1    22  0.89
      L1  C    17    42       P1 10175  1.00

> <Gold.PLP.Chemscore.Internal.Correction>
0.6148

> <Gold.Rescore>
     Score         DG    S(hbond)    S(metal)    S(lipo)     H(rot)  DE(clash)    DE(int)     intcor
     13.30     -16.77       2.62        0.00      92.16       3.22       1.20       2.28       ----

> <Gold.Chemscore.Fitness>
13.3007

> <Gold.Chemscore.DG>
-16.7744

> <Gold.Chemscore.ZeroCoef>
-5.4800

> <Gold.Chemscore.Hbond>
2.6245

> <Gold.Chemscore.Metal>
0.0000

> <Gold.Chemscore.Lipo>
92.1645

> <Gold.Chemscore.Internal_Hbond>
0.0000

> <Gold.Chemscore.DEClash>
1.1986

> <Gold.Chemscore.DEInternal>
2.2751

> <Gold.Chemscore.Rot>
3.2244

> <Gold.Chemscore.Internal.Correction>
   9.000000E+99

> <Gold.Chemscore.Hbonds>
donor molecule, donor type, donor heavy atom, donor atom, acceptor molecule, acceptor atom, score
      L1  H     3    35       P1  8028  0.60
      L1  H    22    48       P1 10171  0.80
      P1  H  7954  7966       L1    22  0.61

> <Gold.Chemscore.Hbond.Weighted>
-8.7657

> <Gold.Chemscore.Metal.Weighted>
-0.0000

> <Gold.Chemscore.Lipo.Weighted>
-10.7832

> <Gold.Chemscore.Internal_Hbond.Weighted>
0.0000

> <Gold.Chemscore.DEClash.Weighted>
1.1986

> <Gold.Chemscore.DEInternal.Weighted>
2.2751

> <Gold.Chemscore.Rot.Weighted>
8.2545

> <Gold.Chemscore.Internal.Correction.Weighted>
   9.000000E+99

> <Gold.Protein.RotatedTorsions>
[ 6907 6896 6895 6894 ] final  -55.54 input  -60.11 | X-H torsion
[ 7974 7965 7964 7962 ] final    9.41 input  175.53 | X-H torsion
[ 8008 7997 7996 7995 ] final   28.33 input   59.86 | X-H torsion
[ 10167 10162 10161 10158 ] final  -32.75 input  -65.29 | X-H torsion
[ 10718 10713 10712 10709 ] final   56.04 input   66.30 | X-H torsion
[ 10763 10752 10751 10750 ] final   10.41 input  -60.55 | X-H torsion
[ 11005 11000 10999 10996 ] final   99.76 input  -57.11 | X-H torsion

> <Gold.Protein.ActiveResidues>
 VAL166  LYS551  ARG553  GLY616  TRP617  ASP618  TYR619  PRO620  LYS621  CYS622 
 ASP623  PHE694  ASN695  SER759  ASP760  ASP761  ALA762  ILE779  LEU786  VAL792 
 PHE793  MET794  SER795  GLU796  ALA797  LYS798  CYS799  TRP800  GLU811  SER814 

> <Gold.Protein.RotatedAtoms>
  150.8243  134.7467  159.6799 H   0  0  0  0  0  0  0  0  0  0  0  0  # atno 6907 bound_to 6896
  152.4356  134.5690  159.9925 H   0  0  0  0  0  0  0  0  0  0  0  0  # atno 6908 bound_to 6896
  151.5866  133.3334  159.3055 H   0  0  0  0  0  0  0  0  0  0  0  0  # atno 6909 bound_to 6896
  146.2404  139.9787  142.8438 H   0  0  0  0  0  0  0  0  0  0  0  0  # atno 7974 bound_to 7965
  155.0569  140.3186  155.4673 H   0  0  0  0  0  0  0  0  0  0  0  0  # atno 8008 bound_to 7997
  156.2822  140.2136  156.5640 H   0  0  0  0  0  0  0  0  0  0  0  0  # atno 8009 bound_to 7997
  154.7164  140.0493  157.0586 H   0  0  0  0  0  0  0  0  0  0  0  0  # atno 8010 bound_to 7997
  140.7216  143.3671  151.1849 H   0  0  0  0  0  0  0  0  0  0  0  0  # atno 10167 bound_to 10162
  157.5397  130.8688  149.8804 H   0  0  0  0  0  0  0  0  0  0  0  0  # atno 10718 bound_to 10713
  153.2035  135.6859  153.8202 H   0  0  0  0  0  0  0  0  0  0  0  0  # atno 10763 bound_to 10752
  153.7460  135.3231  155.3313 H   0  0  0  0  0  0  0  0  0  0  0  0  # atno 10764 bound_to 10752
  154.8184  135.4669  154.0811 H   0  0  0  0  0  0  0  0  0  0  0  0  # atno 10765 bound_to 10752
  139.8770  134.9110  156.4655 H   0  0  0  0  0  0  0  0  0  0  0  0  # atno 11005 bound_to 11000
  145.1612  140.9674  143.4376 LP  0  0  0  0  0  0  0  0  0  0  0  0  # atno 17320 bound_to 7965
  145.0114  139.3506  143.6118 LP  0  0  0  0  0  0  0  0  0  0  0  0  # atno 17321 bound_to 7965
  139.7235  143.9185  152.2994 LP  0  0  0  0  0  0  0  0  0  0  0  0  # atno 17342 bound_to 10162
  139.8950  144.6944  150.8728 LP  0  0  0  0  0  0  0  0  0  0  0  0  # atno 17343 bound_to 10162
  156.0487  130.3722  150.1254 LP  0  0  0  0  0  0  0  0  0  0  0  0  # atno 17370 bound_to 10713
  156.9435  130.9752  151.3512 LP  0  0  0  0  0  0  0  0  0  0  0  0  # atno 17371 bound_to 10713
  140.8833  133.7901  155.9491 LP  0  0  0  0  0  0  0  0  0  0  0  0  # atno 17394 bound_to 11000
  140.8830  134.2587  157.5134 LP  0  0  0  0  0  0  0  0  0  0  0  0  # atno 17395 bound_to 11000

$$$$
