AV-unprocessed.smi:1702|AV-procd|sdf|6847|dock2
  -GOLD-   22720 8 23D 1   1.00000     0.00000
 Structure written by MMmdl.
 44 46  0  0  0  0  0  0  0  0  2 V2000
  144.4426  132.0929  152.7538 C   0  0  0  0  0  0  0  0  0  0  0  0
  145.9032  132.5757  152.7775 C   0  0  2  0  0  0  0  0  0  0  0  0
  146.1482  133.6781  153.8241 C   0  0  0  0  0  0  0  0  0  0  0  0
  145.5691  135.0364  153.3881 C   0  0  0  0  0  0  0  0  0  0  0  0
  146.1013  135.4460  152.0633 N   0  3  2  0  0  0  0  0  0  0  0  0
  145.6800  136.8194  151.6834 C   0  0  0  0  0  0  0  0  0  0  0  0
  146.2006  137.8887  152.6643 C   0  0  2  0  0  0  0  0  0  0  0  0
  145.1362  138.7626  152.9902 O   0  0  0  0  0  0  0  0  0  0  0  0
  147.3644  138.7003  152.0626 C   0  0  0  0  0  0  0  0  0  0  0  0
  147.8134  139.7652  152.9424 N   0  0  0  0  0  0  0  0  0  0  0  0
  147.5677  141.0827  152.8075 C   0  0  0  0  0  0  0  0  0  0  0  0
  148.0766  141.8952  153.7287 N   0  0  0  0  0  0  0  0  0  0  0  0
  148.7271  141.0014  154.5618 C   0  0  0  0  0  0  0  0  0  0  0  0
  149.4731  141.2238  155.7411 C   0  0  0  0  0  0  0  0  0  0  0  0
  150.0537  140.1417  156.4346 C   0  0  0  0  0  0  0  0  0  0  0  0
  150.7653  140.3724  157.5634 F   0  0  0  0  0  0  0  0  0  0  0  0
  149.8976  138.8226  155.9594 C   0  0  0  0  0  0  0  0  0  0  0  0
  150.4579  137.7890  156.6311 F   0  0  0  0  0  0  0  0  0  0  0  0
  149.1592  138.5764  154.7861 C   0  0  0  0  0  0  0  0  0  0  0  0
  148.5809  139.6590  154.0979 C   0  0  0  0  0  0  0  0  0  0  0  0
  145.8068  134.4288  151.0194 C   0  0  0  0  0  0  0  0  0  0  0  0
  146.3946  133.0582  151.4005 C   0  0  0  0  0  0  0  0  0  0  0  0
  143.7492  132.8899  152.4866 H   0  0  0  0  0  0  0  0  0  0  0  0
  144.1430  131.7106  153.7301 H   0  0  0  0  0  0  0  0  0  0  0  0
  144.3100  131.2856  152.0333 H   0  0  0  0  0  0  0  0  0  0  0  0
  146.5082  131.7126  153.0589 H   0  0  0  0  0  0  0  0  0  0  0  0
  145.7312  133.3847  154.7881 H   0  0  0  0  0  0  0  0  0  0  0  0
  147.2221  133.7873  153.9817 H   0  0  0  0  0  0  0  0  0  0  0  0
  144.4797  134.9972  153.3511 H   0  0  0  0  0  0  0  0  0  0  0  0
  145.8305  135.7861  154.1359 H   0  0  0  0  0  0  0  0  0  0  0  0
  146.0198  137.0306  150.6682 H   0  0  0  0  0  0  0  0  0  0  0  0
  144.5909  136.8807  151.6551 H   0  0  0  0  0  0  0  0  0  0  0  0
  146.5470  137.4215  153.5857 H   0  0  0  0  0  0  0  0  0  0  0  0
  144.9761  139.3349  152.2550 H   0  0  0  0  0  0  0  0  0  0  0  0
  148.2142  138.0464  151.8623 H   0  0  0  0  0  0  0  0  0  0  0  0
  147.0757  139.1352  151.1048 H   0  0  0  0  0  0  0  0  0  0  0  0
  146.9839  141.4672  151.9839 H   0  0  0  0  0  0  0  0  0  0  0  0
  149.5997  142.2292  156.1142 H   0  0  0  0  0  0  0  0  0  0  0  0
  149.0403  137.5670  154.4222 H   0  0  0  0  0  0  0  0  0  0  0  0
  144.7283  134.3536  150.8741 H   0  0  0  0  0  0  0  0  0  0  0  0
  146.2269  134.7351  150.0624 H   0  0  0  0  0  0  0  0  0  0  0  0
  147.4828  133.1336  151.4164 H   0  0  0  0  0  0  0  0  0  0  0  0
  146.1552  132.3207  150.6335 H   0  0  0  0  0  0  0  0  0  0  0  0
  147.1059  135.4805  152.1655 H   0  0  0  0  0  0  0  0  0  0  0  0
  1  2  1  0  0  0  0
  1 23  1  0  0  0  0
  1 24  1  0  0  0  0
  1 25  1  0  0  0  0
  2 22  1  0  0  0  0
  2  3  1  0  0  0  0
  2 26  1  0  0  0  0
  3  4  1  0  0  0  0
  3 27  1  0  0  0  0
  3 28  1  0  0  0  0
  4  5  1  0  0  0  0
  4 29  1  0  0  0  0
  4 30  1  0  0  0  0
  5  6  1  0  0  0  0
  5 21  1  0  0  0  0
  5 44  1  0  0  0  0
  6  7  1  0  0  0  0
  6 31  1  0  0  0  0
  6 32  1  0  0  0  0
  7  8  1  0  0  0  0
  7  9  1  0  0  0  0
  7 33  1  0  0  0  0
  8 34  1  0  0  0  0
  9 10  1  0  0  0  0
  9 35  1  0  0  0  0
  9 36  1  0  0  0  0
 10 20  1  0  0  0  0
 10 11  1  0  0  0  0
 11 12  2  0  0  0  0
 11 37  1  0  0  0  0
 12 13  1  0  0  0  0
 13 20  2  0  0  0  0
 13 14  1  0  0  0  0
 14 15  2  0  0  0  0
 14 38  1  0  0  0  0
 15 16  1  0  0  0  0
 15 17  1  0  0  0  0
 17 18  1  0  0  0  0
 17 19  2  0  0  0  0
 19 20  1  0  0  0  0
 19 39  1  0  0  0  0
 21 22  1  0  0  0  0
 21 40  1  0  0  0  0
 21 41  1  0  0  0  0
 22 42  1  0  0  0  0
 22 43  1  0  0  0  0
M  CHG  1   5   1
M  END
> <s_m_source_file>
AV-unprocessed.smi

> <i_m_source_file_index>
1702

> <i_lp_mmshare_version>
43012

> <i_f3d_flags>
0

> <s_epik_input>
W0NIM11bQ0hdMVtDSDJdW0NIMl1OKFtDSDJdW0NIMl0xKVtDSDJdW0NASF0oW09IXSlbQ0gyXW4oW2NIXW4yKWMoYzIzKVtjSF1jKEYpYyhGKVtjSF0z

> <s_epik_cmdline>
J2VwaWtfcHl0aG9uJywgJy1waCcsICc3LjAnLCAnLXRuJywgJzgnLCAnLW1hJywgJzIwMCcsICctbWV0YWxfYmluZGluZycsICctaW1hZScsICc8aW5maWxlLm1hZT4nLCAnLW9tYWUnLCAnPG91dGZpbGUubWFlPic=

> <r_epik_Ionization_Penalty>
0.0135195

> <r_epik_Ionization_Penalty_Charging>
0.00181365

> <r_epik_Ionization_Penalty_Neutral>
0.0117059

> <r_epik_State_Penalty>
0.00902283

> <r_epik_Charging_Adjusted_Penalty>
0.0108365

> <i_epik_Tot_Q>
1

> <i_epik_Tot_abs_Q>
1

> <r_epik_Metal_State_Penalty>
9.09181e-06

> <b_epik_Metal_Only>
0

> <s_lp_Force_Field>
OPLS_2005

> <r_lp_Energy>
24.0829

> <b_lp_Chiralities_Consistent>
1

> <s_lp_Variant>
AV-unprocessed.smi:1702-3

> <Gold.Version>
5.8.1

> <Gold.Id.Protein>
6NUR|6NUR_protein|mol2

> <Gold.PLP.Fitness>
51.5540

> <Gold.PLP.PLP>
-42.5754

> <Gold.PLP.part.hbond>
-2.0000

> <Gold.PLP.part.metal>
0.0000

> <Gold.PLP.part.buried>
-0.9653

> <Gold.PLP.part.nonpolar>
-39.5728

> <Gold.PLP.part.repulsive>
0.1870

> <Gold.PLP.ligand.clash>
0.0000

> <Gold.PLP.ligand.torsion>
0.8792

> <Gold.PLP.Chemscore.Hbond>
2.9913

> <Gold.PLP.Chemscore.CHOScore>
0.5515

> <Gold.PLP.Chemscore.Metal>
0.0000

> <Gold.Chemscore.Hbonds>
donor molecule, donor type, donor heavy atom, donor atom, acceptor molecule, acceptor atom, score
      L1  H     5    44       P1  7948  2.00
      L1  H     8    34       P1 10175  0.32
      P1  H  8011  8017       L1    12  0.09

> <Gold.PLP.Chemscore.Internal.Correction>
0.1088

> <Gold.Rescore>
     Score         DG    S(hbond)    S(metal)    S(lipo)     H(rot)  DE(clash)    DE(int)     intcor
     15.14     -16.56       1.93        0.00      89.12       2.26       0.45       0.97       ----

> <Gold.Chemscore.Fitness>
15.1357

> <Gold.Chemscore.DG>
-16.5581

> <Gold.Chemscore.ZeroCoef>
-5.4800

> <Gold.Chemscore.Hbond>
1.9287

> <Gold.Chemscore.Metal>
0.0000

> <Gold.Chemscore.Lipo>
89.1177

> <Gold.Chemscore.Internal_Hbond>
0.0000

> <Gold.Chemscore.DEClash>
0.4523

> <Gold.Chemscore.DEInternal>
0.9701

> <Gold.Chemscore.Rot>
2.2619

> <Gold.Chemscore.Internal.Correction>
   9.000000E+99

> <Gold.Chemscore.Hbonds>
donor molecule, donor type, donor heavy atom, donor atom, acceptor molecule, acceptor atom, score
      L1  H     5    44       P1  7948  0.95
      L1  H     8    34       P1 10175  0.32

> <Gold.Chemscore.Hbond.Weighted>
-6.4417

> <Gold.Chemscore.Metal.Weighted>
-0.0000

> <Gold.Chemscore.Lipo.Weighted>
-10.4268

> <Gold.Chemscore.Internal_Hbond.Weighted>
0.0000

> <Gold.Chemscore.DEClash.Weighted>
0.4523

> <Gold.Chemscore.DEInternal.Weighted>
0.9701

> <Gold.Chemscore.Rot.Weighted>
5.7904

> <Gold.Chemscore.Internal.Correction.Weighted>
   9.000000E+99

> <Gold.Protein.RotatedTorsions>
[ 6907 6896 6895 6894 ] final   83.09 input  -60.11 | X-H torsion
[ 7974 7965 7964 7962 ] final  124.98 input  175.53 | X-H torsion
[ 8008 7997 7996 7995 ] final -151.37 input   59.86 | X-H torsion
[ 10167 10162 10161 10158 ] final -157.65 input  -65.29 | X-H torsion
[ 10718 10713 10712 10709 ] final  148.46 input   66.30 | X-H torsion
[ 10763 10752 10751 10750 ] final   63.48 input  -60.55 | X-H torsion
[ 11005 11000 10999 10996 ] final  147.81 input  -57.11 | X-H torsion

> <Gold.Protein.ActiveResidues>
 VAL166  LYS551  ARG553  GLY616  TRP617  ASP618  TYR619  PRO620  LYS621  CYS622 
 ASP623  PHE694  ASN695  SER759  ASP760  ASP761  ALA762  ILE779  LEU786  VAL792 
 PHE793  MET794  SER795  GLU796  ALA797  LYS798  CYS799  TRP800  GLU811  SER814 

> <Gold.Protein.RotatedAtoms>
  152.5317  134.2949  159.9056 H   0  0  0  0  0  0  0  0  0  0  0  0  # atno 6907 bound_to 6896
  151.2901  133.4163  159.2640 H   0  0  0  0  0  0  0  0  0  0  0  0  # atno 6908 bound_to 6896
  151.0209  134.9484  159.8115 H   0  0  0  0  0  0  0  0  0  0  0  0  # atno 6909 bound_to 6896
  145.0782  139.3677  143.4922 H   0  0  0  0  0  0  0  0  0  0  0  0  # atno 7974 bound_to 7965
  155.6383  140.0699  157.2626 H   0  0  0  0  0  0  0  0  0  0  0  0  # atno 8008 bound_to 7997
  154.4189  140.1755  156.1595 H   0  0  0  0  0  0  0  0  0  0  0  0  # atno 8009 bound_to 7997
  155.9876  140.3348  155.6725 H   0  0  0  0  0  0  0  0  0  0  0  0  # atno 8010 bound_to 7997
  139.6753  143.9673  152.2307 H   0  0  0  0  0  0  0  0  0  0  0  0  # atno 10167 bound_to 10162
  157.3083  131.0883  151.1336 H   0  0  0  0  0  0  0  0  0  0  0  0  # atno 10718 bound_to 10713
  153.0019  135.5427  154.6359 H   0  0  0  0  0  0  0  0  0  0  0  0  # atno 10763 bound_to 10752
  154.5625  135.2835  155.0907 H   0  0  0  0  0  0  0  0  0  0  0  0  # atno 10764 bound_to 10752
  154.2104  135.6468  153.5166 H   0  0  0  0  0  0  0  0  0  0  0  0  # atno 10765 bound_to 10752
  140.0907  134.9043  157.1646 H   0  0  0  0  0  0  0  0  0  0  0  0  # atno 11005 bound_to 11000
  146.3530  140.0560  142.8632 LP  0  0  0  0  0  0  0  0  0  0  0  0  # atno 17320 bound_to 7965
  145.1210  140.9462  143.4600 LP  0  0  0  0  0  0  0  0  0  0  0  0  # atno 17321 bound_to 7965
  139.9449  144.6658  150.8229 LP  0  0  0  0  0  0  0  0  0  0  0  0  # atno 17342 bound_to 10162
  140.7633  143.3220  151.2600 LP  0  0  0  0  0  0  0  0  0  0  0  0  # atno 17343 bound_to 10162
  157.2668  130.6685  149.6000 LP  0  0  0  0  0  0  0  0  0  0  0  0  # atno 17370 bound_to 10713
  155.9676  130.4491  150.5647 LP  0  0  0  0  0  0  0  0  0  0  0  0  # atno 17371 bound_to 10713
  140.3356  134.2760  155.7220 LP  0  0  0  0  0  0  0  0  0  0  0  0  # atno 17394 bound_to 11000
  141.2077  133.7799  157.0104 LP  0  0  0  0  0  0  0  0  0  0  0  0  # atno 17395 bound_to 11000

$$$$
