AV-unprocessed.smi:3345|AV-procd|sdf|12901|dock4
  -GOLD-   2272019313D 1   1.00000     0.00000
 Structure written by MMmdl.
 40 41  0  0  0  0  0  0  0  0  1 V2000
  152.8322  138.3411  158.4764 C   0  0  0  0  0  0  0  0  0  0  0  0
  152.4061  139.6988  157.8965 C   0  0  2  0  0  0  0  0  0  0  0  0
  151.8518  140.6349  158.9927 C   0  0  0  0  0  0  0  0  0  0  0  0
  152.1234  142.0586  158.7919 N   0  0  0  0  0  0  0  0  0  0  0  0
  151.2222  142.6748  157.8206 C   0  0  0  0  0  0  0  0  0  0  0  0
  151.5073  144.1764  157.6437 C   0  0  0  0  0  0  0  0  0  0  0  0
  151.4220  144.8322  158.9046 O   0  0  0  0  0  0  0  0  0  0  0  0
  152.3229  144.2919  159.8655 C   0  0  0  0  0  0  0  0  0  0  0  0
  152.0375  142.7915  160.0509 C   0  0  0  0  0  0  0  0  0  0  0  0
  151.3859  139.4701  156.8758 N   0  0  0  0  0  0  0  0  0  0  0  0
  151.5685  139.5800  155.5503 C   0  0  0  0  0  0  0  0  0  0  0  0
  152.6408  139.9057  155.0401 O   0  0  0  0  0  0  0  0  0  0  0  0
  150.3535  139.2613  154.6677 C   0  0  1  0  0  0  0  0  0  0  0  0
  149.9288  137.7834  154.7858 C   0  0  0  0  0  0  0  0  0  0  0  0
  149.2661  140.1864  154.9665 N   0  0  0  0  0  0  0  0  0  0  0  0
  148.6787  141.0956  154.1852 C   0  0  0  0  0  0  0  0  0  0  0  0
  147.7485  141.8144  154.7981 N   0  0  0  0  0  0  0  0  0  0  0  0
  147.8278  141.2702  156.0485 C   0  0  0  0  0  0  0  0  0  0  0  0
  148.7286  140.3010  156.2071 N   0  0  0  0  0  0  0  0  0  0  0  0
  153.6144  138.4627  159.2262 H   0  0  0  0  0  0  0  0  0  0  0  0
  153.2259  137.6865  157.6982 H   0  0  0  0  0  0  0  0  0  0  0  0
  151.9935  137.8293  158.9497 H   0  0  0  0  0  0  0  0  0  0  0  0
  153.2930  140.1603  157.4576 H   0  0  0  0  0  0  0  0  0  0  0  0
  150.7825  140.4680  159.1351 H   0  0  0  0  0  0  0  0  0  0  0  0
  152.3139  140.3435  159.9369 H   0  0  0  0  0  0  0  0  0  0  0  0
  151.3220  142.1874  156.8514 H   0  0  0  0  0  0  0  0  0  0  0  0
  150.1870  142.5377  158.1370 H   0  0  0  0  0  0  0  0  0  0  0  0
  152.4970  144.3327  157.2114 H   0  0  0  0  0  0  0  0  0  0  0  0
  150.7851  144.6220  156.9595 H   0  0  0  0  0  0  0  0  0  0  0  0
  153.3525  144.4531  159.5420 H   0  0  0  0  0  0  0  0  0  0  0  0
  152.1965  144.8212  160.8099 H   0  0  0  0  0  0  0  0  0  0  0  0
  151.0445  142.6658  160.4852 H   0  0  0  0  0  0  0  0  0  0  0  0
  152.7466  142.3786  160.7690 H   0  0  0  0  0  0  0  0  0  0  0  0
  150.4703  139.2003  157.2047 H   0  0  0  0  0  0  0  0  0  0  0  0
  150.6355  139.4322  153.6271 H   0  0  0  0  0  0  0  0  0  0  0  0
  150.7437  137.1187  154.4966 H   0  0  0  0  0  0  0  0  0  0  0  0
  149.0843  137.5682  154.1306 H   0  0  0  0  0  0  0  0  0  0  0  0
  149.6345  137.5183  155.8022 H   0  0  0  0  0  0  0  0  0  0  0  0
  148.9406  141.2377  153.1471 H   0  0  0  0  0  0  0  0  0  0  0  0
  147.2078  141.6026  156.8680 H   0  0  0  0  0  0  0  0  0  0  0  0
  1  2  1  0  0  0  0
  1 20  1  0  0  0  0
  1 21  1  0  0  0  0
  1 22  1  0  0  0  0
  2  3  1  0  0  0  0
  2 10  1  0  0  0  0
  2 23  1  0  0  0  0
  3  4  1  0  0  0  0
  3 24  1  0  0  0  0
  3 25  1  0  0  0  0
  4  9  1  0  0  0  0
  4  5  1  0  0  0  0
  5  6  1  0  0  0  0
  5 26  1  0  0  0  0
  5 27  1  0  0  0  0
  6  7  1  0  0  0  0
  6 28  1  0  0  0  0
  6 29  1  0  0  0  0
  7  8  1  0  0  0  0
  8  9  1  0  0  0  0
  8 30  1  0  0  0  0
  8 31  1  0  0  0  0
  9 32  1  0  0  0  0
  9 33  1  0  0  0  0
 10 11  1  0  0  0  0
 10 34  1  0  0  0  0
 11 12  2  0  0  0  0
 11 13  1  0  0  0  0
 13 14  1  0  0  0  0
 13 15  1  0  0  0  0
 13 35  1  0  0  0  0
 14 36  1  0  0  0  0
 14 37  1  0  0  0  0
 14 38  1  0  0  0  0
 15 19  1  0  0  0  0
 15 16  1  0  0  0  0
 16 17  2  0  0  0  0
 16 39  1  0  0  0  0
 17 18  1  0  0  0  0
 18 19  2  0  0  0  0
 18 40  1  0  0  0  0
M  END
> <s_m_source_file>
AV-unprocessed.smi

> <i_m_source_file_index>
3345

> <i_lp_mmshare_version>
43012

> <i_f3d_flags>
0

> <s_epik_input>
W0NIMl0xW0NIMl1PW0NIMl1bQ0gyXU4xW0NIMl1bQ0BASF0oW0NIM10pW05IXUMoPU8pW0NASF0oW0NIM10pbjJbY0hdbltjSF1uMg==

> <s_epik_cmdline>
J2VwaWtfcHl0aG9uJywgJy1waCcsICc3LjAnLCAnLXRuJywgJzgnLCAnLW1hJywgJzIwMCcsICctbWV0YWxfYmluZGluZycsICctaW1hZScsICc8aW5maWxlLm1hZT4nLCAnLW9tYWUnLCAnPG91dGZpbGUubWFlPic=

> <r_lp_tautomer_probability>
1

> <r_epik_Ionization_Penalty>
0.211373

> <r_epik_Ionization_Penalty_Charging>
0

> <r_epik_Ionization_Penalty_Neutral>
0.211373

> <r_epik_State_Penalty>
0.201459

> <r_epik_Charging_Adjusted_Penalty>
0.201459

> <i_epik_Tot_Q>
0

> <i_epik_Tot_abs_Q>
0

> <r_epik_Metal_State_Penalty>
0.201458

> <b_epik_Metal_Only>
0

> <s_lp_Force_Field>
OPLS_2005

> <r_lp_Energy>
31.9389

> <b_lp_Chiralities_Consistent>
1

> <s_lp_Variant>
AV-unprocessed.smi:3345-3

> <Gold.Version>
5.8.1

> <Gold.Id.Protein>
6NUR|6NUR_protein|mol2

> <Gold.PLP.Fitness>
40.6852

> <Gold.PLP.PLP>
-35.4034

> <Gold.PLP.part.hbond>
-2.0000

> <Gold.PLP.part.metal>
0.0000

> <Gold.PLP.part.buried>
-4.7613

> <Gold.PLP.part.nonpolar>
-29.7307

> <Gold.PLP.part.repulsive>
0.5493

> <Gold.PLP.ligand.clash>
0.0000

> <Gold.PLP.ligand.torsion>
0.8170

> <Gold.PLP.Chemscore.Hbond>
1.2574

> <Gold.PLP.Chemscore.CHOScore>
1.0000

> <Gold.PLP.Chemscore.Metal>
0.0000

> <Gold.Chemscore.Hbonds>
donor molecule, donor type, donor heavy atom, donor atom, acceptor molecule, acceptor atom, score
      P1  H  7989  7998       L1    12  0.30
      P1  H  7997  8010       L1    12  1.00
      L1  C    16    39       P1  7957  1.00

> <Gold.PLP.Chemscore.Internal.Correction>
0.1436

> <Gold.Rescore>
     Score         DG    S(hbond)    S(metal)    S(lipo)     H(rot)  DE(clash)    DE(int)     intcor
      8.93     -11.12       1.02        0.00      74.63       2.54       0.06       2.14       ----

> <Gold.Chemscore.Fitness>
8.9251

> <Gold.Chemscore.DG>
-11.1161

> <Gold.Chemscore.ZeroCoef>
-5.4800

> <Gold.Chemscore.Hbond>
1.0165

> <Gold.Chemscore.Metal>
0.0000

> <Gold.Chemscore.Lipo>
74.6274

> <Gold.Chemscore.Internal_Hbond>
0.0000

> <Gold.Chemscore.DEClash>
0.0550

> <Gold.Chemscore.DEInternal>
2.1360

> <Gold.Chemscore.Rot>
2.5353

> <Gold.Chemscore.Internal.Correction>
   9.000000E+99

> <Gold.Chemscore.Hbonds>
donor molecule, donor type, donor heavy atom, donor atom, acceptor molecule, acceptor atom, score
      P1  H  7989  7998       L1    12  0.02
      P1  H  7997  8010       L1    12  0.93

> <Gold.Chemscore.Hbond.Weighted>
-3.3952

> <Gold.Chemscore.Metal.Weighted>
-0.0000

> <Gold.Chemscore.Lipo.Weighted>
-8.7314

> <Gold.Chemscore.Internal_Hbond.Weighted>
0.0000

> <Gold.Chemscore.DEClash.Weighted>
0.0550

> <Gold.Chemscore.DEInternal.Weighted>
2.1360

> <Gold.Chemscore.Rot.Weighted>
6.4905

> <Gold.Chemscore.Internal.Correction.Weighted>
   9.000000E+99

> <Gold.Protein.RotatedTorsions>
[ 6907 6896 6895 6894 ] final -122.61 input  -60.11 | X-H torsion
[ 7974 7965 7964 7962 ] final  142.53 input  175.53 | X-H torsion
[ 8008 7997 7996 7995 ] final  107.16 input   59.86 | X-H torsion
[ 10167 10162 10161 10158 ] final -177.43 input  -65.29 | X-H torsion
[ 10718 10713 10712 10709 ] final -163.49 input   66.30 | X-H torsion
[ 10763 10752 10751 10750 ] final  -55.92 input  -60.55 | X-H torsion
[ 11005 11000 10999 10996 ] final  -19.07 input  -57.11 | X-H torsion

> <Gold.Protein.ActiveResidues>
 VAL166  LYS551  ARG553  GLY616  TRP617  ASP618  TYR619  PRO620  LYS621  CYS622 
 ASP623  PHE694  ASN695  SER759  ASP760  ASP761  ALA762  ILE779  LEU786  VAL792 
 PHE793  MET794  SER795  GLU796  ALA797  LYS798  CYS799  TRP800  GLU811  SER814 

> <Gold.Protein.RotatedAtoms>
  150.8592  133.7669  159.2998 H   0  0  0  0  0  0  0  0  0  0  0  0  # atno 6907 bound_to 6896
  151.5317  135.1067  159.9914 H   0  0  0  0  0  0  0  0  0  0  0  0  # atno 6908 bound_to 6896
  152.4613  133.7785  159.6893 H   0  0  0  0  0  0  0  0  0  0  0  0  # atno 6909 bound_to 6896
  144.9000  139.5437  143.5758 H   0  0  0  0  0  0  0  0  0  0  0  0  # atno 7974 bound_to 7965
  156.1802  140.3100  155.9134 H   0  0  0  0  0  0  0  0  0  0  0  0  # atno 8008 bound_to 7997
  155.3401  140.0465  157.3061 H   0  0  0  0  0  0  0  0  0  0  0  0  # atno 8009 bound_to 7997
  154.5334  140.2238  155.8775 H   0  0  0  0  0  0  0  0  0  0  0  0  # atno 8010 bound_to 7997
  139.5480  144.2183  152.1025 H   0  0  0  0  0  0  0  0  0  0  0  0  # atno 10167 bound_to 10162
  156.6254  130.8908  151.2966 H   0  0  0  0  0  0  0  0  0  0  0  0  # atno 10718 bound_to 10713
  154.1984  135.6415  153.5080 H   0  0  0  0  0  0  0  0  0  0  0  0  # atno 10763 bound_to 10752
  153.0018  135.5445  154.6341 H   0  0  0  0  0  0  0  0  0  0  0  0  # atno 10764 bound_to 10752
  154.5748  135.2920  155.0765 H   0  0  0  0  0  0  0  0  0  0  0  0  # atno 10765 bound_to 10752
  140.8330  133.7983  155.9779 H   0  0  0  0  0  0  0  0  0  0  0  0  # atno 11005 bound_to 11000
  146.3103  139.7722  142.9025 LP  0  0  0  0  0  0  0  0  0  0  0  0  # atno 17320 bound_to 7965
  145.3633  141.0330  143.3272 LP  0  0  0  0  0  0  0  0  0  0  0  0  # atno 17321 bound_to 7965
  140.1673  144.4969  150.6599 LP  0  0  0  0  0  0  0  0  0  0  0  0  # atno 17342 bound_to 10162
  140.6735  143.2295  151.5566 LP  0  0  0  0  0  0  0  0  0  0  0  0  # atno 17343 bound_to 10162
  157.7215  130.9565  150.1460 LP  0  0  0  0  0  0  0  0  0  0  0  0  # atno 17370 bound_to 10713
  156.2277  130.3679  149.8481 LP  0  0  0  0  0  0  0  0  0  0  0  0  # atno 17371 bound_to 10713
  140.8977  134.2416  157.5059 LP  0  0  0  0  0  0  0  0  0  0  0  0  # atno 17394 bound_to 11000
  139.8704  134.9692  156.4657 LP  0  0  0  0  0  0  0  0  0  0  0  0  # atno 17395 bound_to 11000

$$$$
