AV-unprocessed.smi:1958|AV-procd|sdf|7906|dock5
  -GOLD-   2272010 63D 1   1.00000     0.00000
 Structure written by MMmdl.
 47 48  0  0  0  0  0  0  0  0  1 V2000
  151.6647  145.7223  160.0631 C   0  0  0  0  0  0  0  0  0  0  0  0
  151.5765  144.9092  158.9064 O   0  0  0  0  0  0  0  0  0  0  0  0
  152.5361  143.8647  158.9013 C   0  0  0  0  0  0  0  0  0  0  0  0
  152.3479  142.9908  160.1523 C   0  0  0  0  0  0  0  0  0  0  0  0
  152.9144  141.6496  159.9707 N   0  0  0  0  0  0  0  0  0  0  0  0
  152.4914  141.0115  158.8170 N   0  0  0  0  0  0  0  0  0  0  0  0
  152.9022  139.8145  158.5471 C   0  0  0  0  0  0  0  0  0  0  0  0
  152.4661  139.0929  157.3199 C   0  0  0  0  0  0  0  0  0  0  0  0
  152.3215  137.8694  157.3006 O   0  0  0  0  0  0  0  0  0  0  0  0
  152.2538  139.8719  156.2444 N   0  0  0  0  0  0  0  0  0  0  0  0
  151.8679  139.4131  154.9120 C   0  0  0  0  0  0  0  0  0  0  0  0
  150.5403  138.6098  154.9252 C   0  0  2  0  0  0  0  0  0  0  0  0
  150.8556  137.1347  154.5895 C   0  0  0  0  0  0  0  0  0  0  0  0
  149.4771  139.1934  154.0778 N   0  0  0  0  0  0  0  0  0  0  0  0
  149.1985  140.5937  154.4107 C   0  0  0  0  0  0  0  0  0  0  0  0
  148.0869  141.1980  153.5360 C   0  0  0  0  0  0  0  0  0  0  0  0
  146.9045  140.4188  153.6608 O   0  0  0  0  0  0  0  0  0  0  0  0
  147.1110  139.0634  153.2847 C   0  0  0  0  0  0  0  0  0  0  0  0
  148.2189  138.4460  154.1558 C   0  0  0  0  0  0  0  0  0  0  0  0
  153.8155  139.1225  159.4407 C   0  0  0  0  0  0  0  0  0  0  0  0
  154.2198  139.7580  160.5625 C   0  0  0  0  0  0  0  0  0  0  0  0
  153.7648  141.1089  160.8947 C   0  0  0  0  0  0  0  0  0  0  0  0
  154.1113  141.7040  161.9146 O   0  0  0  0  0  0  0  0  0  0  0  0
  150.9115  146.5089  160.0163 H   0  0  0  0  0  0  0  0  0  0  0  0
  152.6435  146.1978  160.1374 H   0  0  0  0  0  0  0  0  0  0  0  0
  151.4880  145.1405  160.9687 H   0  0  0  0  0  0  0  0  0  0  0  0
  152.4023  143.2538  158.0077 H   0  0  0  0  0  0  0  0  0  0  0  0
  153.5469  144.2736  158.8643 H   0  0  0  0  0  0  0  0  0  0  0  0
  152.8026  143.4826  161.0142 H   0  0  0  0  0  0  0  0  0  0  0  0
  151.2857  142.9165  160.3921 H   0  0  0  0  0  0  0  0  0  0  0  0
  152.4010  140.8652  156.3523 H   0  0  0  0  0  0  0  0  0  0  0  0
  151.7977  140.2524  154.2183 H   0  0  0  0  0  0  0  0  0  0  0  0
  152.6810  138.8035  154.5190 H   0  0  0  0  0  0  0  0  0  0  0  0
  150.1884  138.6187  155.9581 H   0  0  0  0  0  0  0  0  0  0  0  0
  151.7209  136.7780  155.1484 H   0  0  0  0  0  0  0  0  0  0  0  0
  151.0717  137.0023  153.5289 H   0  0  0  0  0  0  0  0  0  0  0  0
  150.0319  136.4709  154.8503 H   0  0  0  0  0  0  0  0  0  0  0  0
  148.9159  140.6748  155.4614 H   0  0  0  0  0  0  0  0  0  0  0  0
  150.0896  141.2045  154.2760 H   0  0  0  0  0  0  0  0  0  0  0  0
  147.8734  142.2205  153.8478 H   0  0  0  0  0  0  0  0  0  0  0  0
  148.3971  141.2398  152.4908 H   0  0  0  0  0  0  0  0  0  0  0  0
  146.1788  138.5127  153.4118 H   0  0  0  0  0  0  0  0  0  0  0  0
  147.3749  139.0074  152.2274 H   0  0  0  0  0  0  0  0  0  0  0  0
  148.3630  137.4196  153.8216 H   0  0  0  0  0  0  0  0  0  0  0  0
  147.8810  138.3969  155.1920 H   0  0  0  0  0  0  0  0  0  0  0  0
  154.1675  138.1250  159.2210 H   0  0  0  0  0  0  0  0  0  0  0  0
  154.8983  139.2552  161.2362 H   0  0  0  0  0  0  0  0  0  0  0  0
  1  2  1  0  0  0  0
  1 24  1  0  0  0  0
  1 25  1  0  0  0  0
  1 26  1  0  0  0  0
  2  3  1  0  0  0  0
  3  4  1  0  0  0  0
  3 27  1  0  0  0  0
  3 28  1  0  0  0  0
  4  5  1  0  0  0  0
  4 29  1  0  0  0  0
  4 30  1  0  0  0  0
  5 22  1  0  0  0  0
  5  6  1  0  0  0  0
  6  7  2  0  0  0  0
  7  8  1  0  0  0  0
  7 20  1  0  0  0  0
  8  9  2  0  0  0  0
  8 10  1  0  0  0  0
 10 11  1  0  0  0  0
 10 31  1  0  0  0  0
 11 12  1  0  0  0  0
 11 32  1  0  0  0  0
 11 33  1  0  0  0  0
 12 13  1  0  0  0  0
 12 14  1  0  0  0  0
 12 34  1  0  0  0  0
 13 35  1  0  0  0  0
 13 36  1  0  0  0  0
 13 37  1  0  0  0  0
 14 19  1  0  0  0  0
 14 15  1  0  0  0  0
 15 16  1  0  0  0  0
 15 38  1  0  0  0  0
 15 39  1  0  0  0  0
 16 17  1  0  0  0  0
 16 40  1  0  0  0  0
 16 41  1  0  0  0  0
 17 18  1  0  0  0  0
 18 19  1  0  0  0  0
 18 42  1  0  0  0  0
 18 43  1  0  0  0  0
 19 44  1  0  0  0  0
 19 45  1  0  0  0  0
 20 21  2  0  0  0  0
 20 46  1  0  0  0  0
 21 22  1  0  0  0  0
 21 47  1  0  0  0  0
 22 23  2  0  0  0  0
M  END
> <s_m_source_file>
AV-unprocessed.smi

> <i_m_source_file_index>
1958

> <i_lp_mmshare_version>
43012

> <i_f3d_flags>
0

> <s_epik_input>
W0NIM11PW0NIMl1bQ0gyXW4xbmMoW2NIXVtjSF1jMT1PKUMoPU8pW05IXVtDSDJdW0NASF0oW0NIM10pTjJbQ0gyXVtDSDJdT1tDSDJdW0NIMl0y

> <s_epik_cmdline>
J2VwaWtfcHl0aG9uJywgJy1waCcsICc3LjAnLCAnLXRuJywgJzgnLCAnLW1hJywgJzIwMCcsICctbWV0YWxfYmluZGluZycsICctaW1hZScsICc8aW5maWxlLm1hZT4nLCAnLW9tYWUnLCAnPG91dGZpbGUubWFlPic=

> <r_lp_tautomer_probability>
1

> <r_epik_Ionization_Penalty>
0.206669

> <r_epik_Ionization_Penalty_Charging>
5.75808e-09

> <r_epik_Ionization_Penalty_Neutral>
0.206669

> <r_epik_State_Penalty>
0.196651

> <r_epik_Charging_Adjusted_Penalty>
0.196651

> <i_epik_Tot_Q>
0

> <i_epik_Tot_abs_Q>
0

> <r_epik_Metal_State_Penalty>
0.198415

> <b_epik_Metal_Only>
0

> <s_lp_Force_Field>
OPLS_2005

> <r_lp_Energy>
53.7992

> <b_lp_Chiralities_Consistent>
1

> <s_lp_Variant>
AV-unprocessed.smi:1958-1

> <Gold.Version>
5.8.1

> <Gold.Id.Protein>
6NUR|6NUR_protein|mol2

> <Gold.PLP.Fitness>
41.3990

> <Gold.PLP.PLP>
-44.0364

> <Gold.PLP.part.hbond>
-1.0000

> <Gold.PLP.part.metal>
0.0000

> <Gold.PLP.part.buried>
-4.3758

> <Gold.PLP.part.nonpolar>
-38.6785

> <Gold.PLP.part.repulsive>
0.6131

> <Gold.PLP.ligand.clash>
0.0000

> <Gold.PLP.ligand.torsion>
1.3834

> <Gold.PLP.Chemscore.Hbond>
0.0000

> <Gold.PLP.Chemscore.CHOScore>
0.0000

> <Gold.PLP.Chemscore.Metal>
0.0000

> <Gold.PLP.Chemscore.Internal.Correction>
0.1294

> <Gold.Rescore>
     Score         DG    S(hbond)    S(metal)    S(lipo)     H(rot)  DE(clash)    DE(int)     intcor
     10.40     -11.66       0.00        0.00      97.46       2.04       0.04       1.22       ----

> <Gold.Chemscore.Fitness>
10.3974

> <Gold.Chemscore.DG>
-11.6566

> <Gold.Chemscore.ZeroCoef>
-5.4800

> <Gold.Chemscore.Hbond>
0.0000

> <Gold.Chemscore.Metal>
0.0000

> <Gold.Chemscore.Lipo>
97.4553

> <Gold.Chemscore.Internal_Hbond>
0.0000

> <Gold.Chemscore.DEClash>
0.0354

> <Gold.Chemscore.DEInternal>
1.2239

> <Gold.Chemscore.Rot>
2.0413

> <Gold.Chemscore.Internal.Correction>
   9.000000E+99

> <Gold.Chemscore.Hbond.Weighted>
-0.0000

> <Gold.Chemscore.Metal.Weighted>
-0.0000

> <Gold.Chemscore.Lipo.Weighted>
-11.4023

> <Gold.Chemscore.Internal_Hbond.Weighted>
0.0000

> <Gold.Chemscore.DEClash.Weighted>
0.0354

> <Gold.Chemscore.DEInternal.Weighted>
1.2239

> <Gold.Chemscore.Rot.Weighted>
5.2257

> <Gold.Chemscore.Internal.Correction.Weighted>
   9.000000E+99

> <Gold.Protein.RotatedTorsions>
[ 6907 6896 6895 6894 ] final  110.29 input  -60.11 | X-H torsion
[ 7974 7965 7964 7962 ] final   -5.06 input  175.53 | X-H torsion
[ 8008 7997 7996 7995 ] final  100.76 input   59.86 | X-H torsion
[ 10167 10162 10161 10158 ] final  -97.20 input  -65.29 | X-H torsion
[ 10718 10713 10712 10709 ] final   72.59 input   66.30 | X-H torsion
[ 10763 10752 10751 10750 ] final  170.93 input  -60.55 | X-H torsion
[ 11005 11000 10999 10996 ] final  -65.65 input  -57.11 | X-H torsion

> <Gold.Protein.ActiveResidues>
 VAL166  LYS551  ARG553  GLY616  TRP617  ASP618  TYR619  PRO620  LYS621  CYS622 
 ASP623  PHE694  ASN695  SER759  ASP760  ASP761  ALA762  ILE779  LEU786  VAL792 
 PHE793  MET794  SER795  GLU796  ALA797  LYS798  CYS799  TRP800  GLU811  SER814 

> <Gold.Protein.RotatedAtoms>
  152.5027  133.8821  159.7351 H   0  0  0  0  0  0  0  0  0  0  0  0  # atno 6907 bound_to 6896
  150.9281  133.6791  159.2823 H   0  0  0  0  0  0  0  0  0  0  0  0  # atno 6908 bound_to 6896
  151.4145  135.0994  159.9647 H   0  0  0  0  0  0  0  0  0  0  0  0  # atno 6909 bound_to 6896
  146.2360  140.1964  142.8333 H   0  0  0  0  0  0  0  0  0  0  0  0  # atno 7974 bound_to 7965
  156.1234  140.3208  155.8241 H   0  0  0  0  0  0  0  0  0  0  0  0  # atno 8008 bound_to 7997
  155.4464  140.0529  157.3022 H   0  0  0  0  0  0  0  0  0  0  0  0  # atno 8009 bound_to 7997
  154.4844  140.2066  155.9702 H   0  0  0  0  0  0  0  0  0  0  0  0  # atno 8010 bound_to 7997
  140.2859  143.3252  152.0395 H   0  0  0  0  0  0  0  0  0  0  0  0  # atno 10167 bound_to 10162
  157.6508  130.9586  150.0950 H   0  0  0  0  0  0  0  0  0  0  0  0  # atno 10718 bound_to 10713
  154.4046  135.2755  155.2075 H   0  0  0  0  0  0  0  0  0  0  0  0  # atno 10763 bound_to 10752
  154.4086  135.6027  153.5943 H   0  0  0  0  0  0  0  0  0  0  0  0  # atno 10764 bound_to 10752
  152.9831  135.5944  154.4319 H   0  0  0  0  0  0  0  0  0  0  0  0  # atno 10765 bound_to 10752
  141.1460  133.6685  156.6019 H   0  0  0  0  0  0  0  0  0  0  0  0  # atno 11005 bound_to 11000
  144.9817  140.8465  143.5393 LP  0  0  0  0  0  0  0  0  0  0  0  0  # atno 17320 bound_to 7965
  145.1958  139.2277  143.5219 LP  0  0  0  0  0  0  0  0  0  0  0  0  # atno 17321 bound_to 7965
  139.4950  144.6559  151.6573 LP  0  0  0  0  0  0  0  0  0  0  0  0  # atno 17342 bound_to 10162
  140.5773  144.0007  150.6248 LP  0  0  0  0  0  0  0  0  0  0  0  0  # atno 17343 bound_to 10162
  156.1889  130.3653  149.8936 LP  0  0  0  0  0  0  0  0  0  0  0  0  # atno 17370 bound_to 10713
  156.6870  130.8880  151.3583 LP  0  0  0  0  0  0  0  0  0  0  0  0  # atno 17371 bound_to 10713
  140.3682  134.7629  157.4580 LP  0  0  0  0  0  0  0  0  0  0  0  0  # atno 17394 bound_to 11000
  140.0731  134.5834  155.8620 LP  0  0  0  0  0  0  0  0  0  0  0  0  # atno 17395 bound_to 11000

$$$$
