AV-unprocessed.smi:2727|AV-procd|sdf|10524|dock7
  -GOLD-   2272014563D 1   1.00000     0.00000
 Structure written by MMmdl.
 39 40  0  0  0  0  0  0  0  0  2 V2000
  148.4834  137.9147  158.3706 O   0  0  0  0  0  0  0  0  0  0  0  0
  149.5825  137.6058  158.8369 C   0  0  0  0  0  0  0  0  0  0  0  0
  150.6992  138.1250  158.3094 N   0  0  0  0  0  0  0  0  0  0  0  0
  150.7454  139.0612  157.1902 C   0  0  0  0  0  0  0  0  0  0  0  0
  152.1209  139.7493  157.0813 C   0  0  0  0  0  0  0  0  0  0  0  0
  152.6736  140.2911  158.4153 C   0  0  0  0  0  0  0  0  0  0  0  0
  153.7565  139.8700  158.8257 O   0  0  0  0  0  0  0  0  0  0  0  0
  151.9592  141.2144  159.1055 N   0  0  0  0  0  0  0  0  0  0  0  0
  150.7156  141.7784  158.5659 C   0  0  0  0  0  0  0  0  0  0  0  0
  150.9864  142.9268  157.5725 C   0  0  0  0  0  0  0  0  0  0  0  0
  152.2007  143.8260  157.8956 C   0  0  0  0  0  0  0  0  0  0  0  0
  152.3776  144.1874  159.3841 C   0  0  0  0  0  0  0  0  0  0  0  0
  153.1321  143.1148  160.1987 C   0  0  0  0  0  0  0  0  0  0  0  0
  152.3555  141.7987  160.3943 C   0  0  0  0  0  0  0  0  0  0  0  0
  149.8084  136.7631  159.8700 N   0  5  0  0  0  0  0  0  0  0  0  0
  148.7808  136.3393  160.6235 C   0  0  0  0  0  0  0  0  0  0  0  0
  148.4029  136.8411  161.8007 N   0  0  0  0  0  0  0  0  0  0  0  0
  147.3114  136.0864  162.2017 C   0  0  0  0  0  0  0  0  0  0  0  0
  147.0775  135.1423  161.2394 C   0  0  0  0  0  0  0  0  0  0  0  0
  148.0002  135.2891  160.2408 O   0  0  0  0  0  0  0  0  0  0  0  0
  151.5806  137.8443  158.7131 H   0  0  0  0  0  0  0  0  0  0  0  0
  150.5010  138.5402  156.2629 H   0  0  0  0  0  0  0  0  0  0  0  0
  149.9743  139.8194  157.3339 H   0  0  0  0  0  0  0  0  0  0  0  0
  152.8469  139.0420  156.6798 H   0  0  0  0  0  0  0  0  0  0  0  0
  152.0307  140.5536  156.3523 H   0  0  0  0  0  0  0  0  0  0  0  0
  150.1091  141.0060  158.0898 H   0  0  0  0  0  0  0  0  0  0  0  0
  150.0889  142.1572  159.3738 H   0  0  0  0  0  0  0  0  0  0  0  0
  151.1294  142.5103  156.5746 H   0  0  0  0  0  0  0  0  0  0  0  0
  150.0886  143.5419  157.5066 H   0  0  0  0  0  0  0  0  0  0  0  0
  153.1141  143.3544  157.5302 H   0  0  0  0  0  0  0  0  0  0  0  0
  152.1008  144.7445  157.3165 H   0  0  0  0  0  0  0  0  0  0  0  0
  152.9566  145.1098  159.4401 H   0  0  0  0  0  0  0  0  0  0  0  0
  151.4135  144.4137  159.8411 H   0  0  0  0  0  0  0  0  0  0  0  0
  154.0933  142.9137  159.7249 H   0  0  0  0  0  0  0  0  0  0  0  0
  153.3685  143.5236  161.1816 H   0  0  0  0  0  0  0  0  0  0  0  0
  151.4762  141.9881  161.0109 H   0  0  0  0  0  0  0  0  0  0  0  0
  152.9455  141.0985  160.9856 H   0  0  0  0  0  0  0  0  0  0  0  0
  146.7949  136.2777  163.1305 H   0  0  0  0  0  0  0  0  0  0  0  0
  146.3524  134.3513  161.1204 H   0  0  0  0  0  0  0  0  0  0  0  0
  1  2  2  0  0  0  0
  2  3  1  0  0  0  0
  2 15  1  0  0  0  0
  3  4  1  0  0  0  0
  3 21  1  0  0  0  0
  4  5  1  0  0  0  0
  4 22  1  0  0  0  0
  4 23  1  0  0  0  0
  5  6  1  0  0  0  0
  5 24  1  0  0  0  0
  5 25  1  0  0  0  0
  6  7  2  0  0  0  0
  6  8  1  0  0  0  0
  8 14  1  0  0  0  0
  8  9  1  0  0  0  0
  9 10  1  0  0  0  0
  9 26  1  0  0  0  0
  9 27  1  0  0  0  0
 10 11  1  0  0  0  0
 10 28  1  0  0  0  0
 10 29  1  0  0  0  0
 11 12  1  0  0  0  0
 11 30  1  0  0  0  0
 11 31  1  0  0  0  0
 12 13  1  0  0  0  0
 12 32  1  0  0  0  0
 12 33  1  0  0  0  0
 13 14  1  0  0  0  0
 13 34  1  0  0  0  0
 13 35  1  0  0  0  0
 14 36  1  0  0  0  0
 14 37  1  0  0  0  0
 15 16  1  0  0  0  0
 16 20  1  0  0  0  0
 16 17  2  0  0  0  0
 17 18  1  0  0  0  0
 18 19  2  0  0  0  0
 18 38  1  0  0  0  0
 19 20  1  0  0  0  0
 19 39  1  0  0  0  0
M  CHG  1  15  -1
M  END
> <s_m_source_file>
AV-unprocessed.smi

> <i_m_source_file_index>
2727

> <i_lp_mmshare_version>
43012

> <i_f3d_flags>
0

> <s_epik_input>
bzFbY0hdW2NIXW5jMVtOSF1DKD1PKVtOSF1bQ0gyXVtDSDJdQyg9TylOMltDSDJdW0NIMl1bQ0gyXVtDSDJdW0NIMl1bQ0gyXTI=

> <s_epik_cmdline>
J2VwaWtfcHl0aG9uJywgJy1waCcsICc3LjAnLCAnLXRuJywgJzgnLCAnLW1hJywgJzIwMCcsICctbWV0YWxfYmluZGluZycsICctaW1hZScsICc8aW5maWxlLm1hZT4nLCAnLW9tYWUnLCAnPG91dGZpbGUubWFlPic=

> <r_lp_tautomer_probability>
0.785861

> <r_epik_Ionization_Penalty>
9.14426

> <r_epik_Ionization_Penalty_Charging>
6.65642

> <r_epik_Ionization_Penalty_Neutral>
2.48784

> <r_epik_State_Penalty>
6.67734

> <r_epik_Charging_Adjusted_Penalty>
13.3338

> <i_epik_Tot_Q>
-1

> <i_epik_Tot_abs_Q>
1

> <r_epik_Metal_State_Penalty>
2.58025

> <b_epik_Metal_Only>
1

> <s_lp_Force_Field>
OPLS_2005

> <r_lp_Energy>
17.6318

> <b_lp_Chiralities_Consistent>
1

> <s_lp_Variant>
AV-unprocessed.smi:2727-4

> <Gold.Version>
5.8.1

> <Gold.Id.Protein>
6NUR|6NUR_protein|mol2

> <Gold.PLP.Fitness>
45.1966

> <Gold.PLP.PLP>
-35.4100

> <Gold.PLP.part.hbond>
-3.0620

> <Gold.PLP.part.metal>
0.0000

> <Gold.PLP.part.buried>
-4.5049

> <Gold.PLP.part.nonpolar>
-29.1392

> <Gold.PLP.part.repulsive>
0.0997

> <Gold.PLP.ligand.clash>
0.0000

> <Gold.PLP.ligand.torsion>
0.9086

> <Gold.PLP.Chemscore.Hbond>
3.8525

> <Gold.PLP.Chemscore.CHOScore>
0.0000

> <Gold.PLP.Chemscore.Metal>
0.0000

> <Gold.Chemscore.Hbonds>
donor molecule, donor type, donor heavy atom, donor atom, acceptor molecule, acceptor atom, score
      P1  H  6896  6907       L1    15  1.59
      P1  H  6931  6943       L1    17  1.00
      P1  H  7997  8008       L1     7  0.99

> <Gold.PLP.Chemscore.Internal.Correction>
0.0462

> <Gold.Rescore>
     Score         DG    S(hbond)    S(metal)    S(lipo)     H(rot)  DE(clash)    DE(int)     intcor
     16.04     -18.09       2.18        0.00      82.14       1.67       0.00       2.05       ----

> <Gold.Chemscore.Fitness>
16.0363

> <Gold.Chemscore.DG>
-18.0918

> <Gold.Chemscore.ZeroCoef>
-5.4800

> <Gold.Chemscore.Hbond>
2.1821

> <Gold.Chemscore.Metal>
0.0000

> <Gold.Chemscore.Lipo>
82.1371

> <Gold.Chemscore.Internal_Hbond>
0.0000

> <Gold.Chemscore.DEClash>
0.0021

> <Gold.Chemscore.DEInternal>
2.0533

> <Gold.Chemscore.Rot>
1.6745

> <Gold.Chemscore.Internal.Correction>
   9.000000E+99

> <Gold.Chemscore.Hbonds>
donor molecule, donor type, donor heavy atom, donor atom, acceptor molecule, acceptor atom, score
      P1  H  6896  6907       L1    15  0.24
      P1  H  6931  6943       L1    17  0.57
      P1  H  7997  8008       L1     7  0.46

> <Gold.Chemscore.Hbond.Weighted>
-7.2884

> <Gold.Chemscore.Metal.Weighted>
-0.0000

> <Gold.Chemscore.Lipo.Weighted>
-9.6100

> <Gold.Chemscore.Internal_Hbond.Weighted>
0.0000

> <Gold.Chemscore.DEClash.Weighted>
0.0021

> <Gold.Chemscore.DEInternal.Weighted>
2.0533

> <Gold.Chemscore.Rot.Weighted>
4.2866

> <Gold.Chemscore.Internal.Correction.Weighted>
   9.000000E+99

> <Gold.Protein.RotatedTorsions>
[ 6907 6896 6895 6894 ] final  -35.72 input  -60.11 | X-H torsion
[ 7974 7965 7964 7962 ] final  127.67 input  175.53 | X-H torsion
[ 8008 7997 7996 7995 ] final -114.03 input   59.86 | X-H torsion
[ 10167 10162 10161 10158 ] final  -33.13 input  -65.29 | X-H torsion
[ 10718 10713 10712 10709 ] final   28.69 input   66.30 | X-H torsion
[ 10763 10752 10751 10750 ] final -148.43 input  -60.55 | X-H torsion
[ 11005 11000 10999 10996 ] final   53.32 input  -57.11 | X-H torsion

> <Gold.Protein.ActiveResidues>
 VAL166  LYS551  ARG553  GLY616  TRP617  ASP618  TYR619  PRO620  LYS621  CYS622 
 ASP623  PHE694  ASN695  SER759  ASP760  ASP761  ALA762  ILE779  LEU786  VAL792 
 PHE793  MET794  SER795  GLU796  ALA797  LYS798  CYS799  TRP800  GLU811  SER814 

> <Gold.Protein.RotatedAtoms>
  151.0363  134.9575  159.8137 H   0  0  0  0  0  0  0  0  0  0  0  0  # atno 6907 bound_to 6896
  152.5355  134.2716  159.8983 H   0  0  0  0  0  0  0  0  0  0  0  0  # atno 6908 bound_to 6896
  151.2727  133.4205  159.2656 H   0  0  0  0  0  0  0  0  0  0  0  0  # atno 6909 bound_to 6896
  145.0480  139.3906  143.5068 H   0  0  0  0  0  0  0  0  0  0  0  0  # atno 7974 bound_to 7965
  155.0300  140.0393  157.2470 H   0  0  0  0  0  0  0  0  0  0  0  0  # atno 8008 bound_to 7997
  154.7305  140.2729  155.6437 H   0  0  0  0  0  0  0  0  0  0  0  0  # atno 8009 bound_to 7997
  156.2840  140.2685  156.2003 H   0  0  0  0  0  0  0  0  0  0  0  0  # atno 8010 bound_to 7997
  140.7210  143.3643  151.1901 H   0  0  0  0  0  0  0  0  0  0  0  0  # atno 10167 bound_to 10162
  157.2368  130.7050  149.6339 H   0  0  0  0  0  0  0  0  0  0  0  0  # atno 10718 bound_to 10713
  154.8233  135.3334  154.6973 H   0  0  0  0  0  0  0  0  0  0  0  0  # atno 10763 bound_to 10752
  153.7602  135.6933  153.4931 H   0  0  0  0  0  0  0  0  0  0  0  0  # atno 10764 bound_to 10752
  153.2115  135.4480  155.0335 H   0  0  0  0  0  0  0  0  0  0  0  0  # atno 10765 bound_to 10752
  140.0777  134.5382  155.8979 H   0  0  0  0  0  0  0  0  0  0  0  0  # atno 11005 bound_to 11000
  146.3515  140.0116  142.8666 LP  0  0  0  0  0  0  0  0  0  0  0  0  # atno 17320 bound_to 7965
  145.1563  140.9649  143.4403 LP  0  0  0  0  0  0  0  0  0  0  0  0  # atno 17321 bound_to 7965
  139.7202  143.9236  152.2982 LP  0  0  0  0  0  0  0  0  0  0  0  0  # atno 17342 bound_to 10162
  139.8990  144.6922  150.8686 LP  0  0  0  0  0  0  0  0  0  0  0  0  # atno 17343 bound_to 10162
  155.9672  130.4471  150.5567 LP  0  0  0  0  0  0  0  0  0  0  0  0  # atno 17370 bound_to 10713
  157.3421  131.0718  151.1780 LP  0  0  0  0  0  0  0  0  0  0  0  0  # atno 17371 bound_to 10713
  141.2035  133.6632  156.6068 LP  0  0  0  0  0  0  0  0  0  0  0  0  # atno 17394 bound_to 11000
  140.3534  134.7749  157.4483 LP  0  0  0  0  0  0  0  0  0  0  0  0  # atno 17395 bound_to 11000

$$$$
