AV-unprocessed.smi:1076|AV-procd|sdf|4698|dock1
  -GOLD-   22720 3213D 1   1.00000     0.00000
 Structure written by MMmdl.
 45 46  0  0  0  0  0  0  0  0  2 V2000
  151.6122  136.7799  156.3080 C   0  0  0  0  0  0  0  0  0  0  0  0
  151.0834  138.0141  155.6358 C   0  0  0  0  0  0  0  0  0  0  0  0
  151.8083  139.1781  155.2524 C   0  0  0  0  0  0  0  0  0  0  0  0
  151.0450  140.0912  154.6743 N   0  0  0  0  0  0  0  0  0  0  0  0
  149.8100  139.5452  154.6710 N   0  0  0  0  0  0  0  0  0  0  0  0
  148.6994  140.2785  154.0903 C   0  0  0  0  0  0  0  0  0  0  0  0
  148.4512  141.6347  154.7826 C   0  0  1  0  0  0  0  0  0  0  0  0
  147.4192  141.4921  155.9091 C   0  0  0  0  0  0  0  0  0  0  0  0
  149.7080  142.1863  155.3361 N   0  3  0  0  0  0  0  0  0  0  0  0
  150.0228  141.7626  156.7192 C   0  0  0  0  0  0  0  0  0  0  0  0
  151.2471  142.5066  157.2883 C   0  0  0  0  0  0  0  0  0  0  0  0
  151.9343  141.8105  158.4785 C   0  0  0  0  0  0  0  0  0  0  0  0
  151.9582  140.5792  158.5170 O   0  0  0  0  0  0  0  0  0  0  0  0
  152.5033  142.5726  159.4430 N   0  0  0  0  0  0  0  0  0  0  0  0
  152.3885  144.0328  159.4841 C   0  0  0  0  0  0  0  0  0  0  0  0
  151.5653  144.4147  160.7282 C   0  0  0  0  0  0  0  0  0  0  0  0
  152.1903  143.8935  161.8992 O   0  0  0  0  0  0  0  0  0  0  0  0
  152.3501  142.4768  161.8697 C   0  0  0  0  0  0  0  0  0  0  0  0
  153.1884  142.0800  160.6418 C   0  0  0  0  0  0  0  0  0  0  0  0
  149.8039  138.2925  155.2461 C   0  0  0  0  0  0  0  0  0  0  0  0
  152.4997  136.9928  156.9043 H   0  0  0  0  0  0  0  0  0  0  0  0
  151.8885  136.0150  155.5820 H   0  0  0  0  0  0  0  0  0  0  0  0
  150.8749  136.3372  156.9779 H   0  0  0  0  0  0  0  0  0  0  0  0
  152.8616  139.3843  155.3746 H   0  0  0  0  0  0  0  0  0  0  0  0
  148.9188  140.4344  153.0331 H   0  0  0  0  0  0  0  0  0  0  0  0
  147.8039  139.6559  154.1305 H   0  0  0  0  0  0  0  0  0  0  0  0
  148.0404  142.3345  154.0525 H   0  0  0  0  0  0  0  0  0  0  0  0
  146.4731  141.1047  155.5295 H   0  0  0  0  0  0  0  0  0  0  0  0
  147.2144  142.4554  156.3775 H   0  0  0  0  0  0  0  0  0  0  0  0
  147.7690  140.8116  156.6863 H   0  0  0  0  0  0  0  0  0  0  0  0
  150.4724  141.8890  154.7459 H   0  0  0  0  0  0  0  0  0  0  0  0
  149.1630  141.9583  157.3602 H   0  0  0  0  0  0  0  0  0  0  0  0
  150.1861  140.6839  156.7406 H   0  0  0  0  0  0  0  0  0  0  0  0
  151.9730  142.6455  156.4859 H   0  0  0  0  0  0  0  0  0  0  0  0
  150.9336  143.5003  157.6106 H   0  0  0  0  0  0  0  0  0  0  0  0
  153.3841  144.4750  159.5399 H   0  0  0  0  0  0  0  0  0  0  0  0
  151.9218  144.4498  158.5908 H   0  0  0  0  0  0  0  0  0  0  0  0
  151.4959  145.4989  160.8178 H   0  0  0  0  0  0  0  0  0  0  0  0
  150.5455  144.0340  160.6507 H   0  0  0  0  0  0  0  0  0  0  0  0
  152.8470  142.1579  162.7860 H   0  0  0  0  0  0  0  0  0  0  0  0
  151.3736  141.9905  161.8483 H   0  0  0  0  0  0  0  0  0  0  0  0
  153.3637  141.0055  160.6419 H   0  0  0  0  0  0  0  0  0  0  0  0
  154.1769  142.5379  160.7026 H   0  0  0  0  0  0  0  0  0  0  0  0
  148.8995  137.7072  155.3271 H   0  0  0  0  0  0  0  0  0  0  0  0
  149.6521  143.1945  155.3049 H   0  0  0  0  0  0  0  0  0  0  0  0
  1  2  1  0  0  0  0
  1 21  1  0  0  0  0
  1 22  1  0  0  0  0
  1 23  1  0  0  0  0
  2 20  2  0  0  0  0
  2  3  1  0  0  0  0
  3  4  2  0  0  0  0
  3 24  1  0  0  0  0
  4  5  1  0  0  0  0
  5  6  1  0  0  0  0
  5 20  1  0  0  0  0
  6  7  1  0  0  0  0
  6 25  1  0  0  0  0
  6 26  1  0  0  0  0
  7  8  1  0  0  0  0
  7  9  1  0  0  0  0
  7 27  1  0  0  0  0
  8 28  1  0  0  0  0
  8 29  1  0  0  0  0
  8 30  1  0  0  0  0
  9 10  1  0  0  0  0
  9 31  1  0  0  0  0
  9 45  1  0  0  0  0
 10 11  1  0  0  0  0
 10 32  1  0  0  0  0
 10 33  1  0  0  0  0
 11 12  1  0  0  0  0
 11 34  1  0  0  0  0
 11 35  1  0  0  0  0
 12 13  2  0  0  0  0
 12 14  1  0  0  0  0
 14 19  1  0  0  0  0
 14 15  1  0  0  0  0
 15 16  1  0  0  0  0
 15 36  1  0  0  0  0
 15 37  1  0  0  0  0
 16 17  1  0  0  0  0
 16 38  1  0  0  0  0
 16 39  1  0  0  0  0
 17 18  1  0  0  0  0
 18 19  1  0  0  0  0
 18 40  1  0  0  0  0
 18 41  1  0  0  0  0
 19 42  1  0  0  0  0
 19 43  1  0  0  0  0
 20 44  1  0  0  0  0
M  CHG  1   9   1
M  END
> <s_m_source_file>
AV-unprocessed.smi

> <i_m_source_file_index>
1076

> <i_lp_mmshare_version>
43012

> <i_f3d_flags>
0

> <s_epik_input>
W0NIM11jMVtjSF1ubihbY0hdMSlbQ0gyXVtDQEhdKFtDSDNdKVtOSF1bQ0gyXVtDSDJdQyg9TylOMltDSDJdW0NIMl1PW0NIMl1bQ0gyXTI=

> <s_epik_cmdline>
J2VwaWtfcHl0aG9uJywgJy1waCcsICc3LjAnLCAnLXRuJywgJzgnLCAnLW1hJywgJzIwMCcsICctbWV0YWxfYmluZGluZycsICctaW1hZScsICc8aW5maWxlLm1hZT4nLCAnLW9tYWUnLCAnPG91dGZpbGUubWFlPic=

> <r_lp_tautomer_probability>
1

> <r_epik_Ionization_Penalty>
0.00797518

> <r_epik_Ionization_Penalty_Charging>
0.0079672

> <r_epik_Ionization_Penalty_Neutral>
7.97619e-06

> <r_epik_State_Penalty>
0.00597998

> <r_epik_Charging_Adjusted_Penalty>
0.0139472

> <i_epik_Tot_Q>
1

> <i_epik_Tot_abs_Q>
1

> <r_epik_Metal_State_Penalty>
0.00598062

> <b_epik_Metal_Only>
0

> <s_lp_Force_Field>
OPLS_2005

> <r_lp_Energy>
23.7914

> <b_lp_Chiralities_Consistent>
1

> <s_lp_Variant>
AV-unprocessed.smi:1076-2

> <Gold.Version>
5.8.1

> <Gold.Id.Protein>
6NUR|6NUR_protein|mol2

> <Gold.PLP.Fitness>
50.0761

> <Gold.PLP.PLP>
-43.7458

> <Gold.PLP.part.hbond>
-2.0000

> <Gold.PLP.part.metal>
0.0000

> <Gold.PLP.part.buried>
-5.2421

> <Gold.PLP.part.nonpolar>
-37.0947

> <Gold.PLP.part.repulsive>
0.4514

> <Gold.PLP.ligand.clash>
0.3562

> <Gold.PLP.ligand.torsion>
1.2071

> <Gold.PLP.Chemscore.Hbond>
3.0000

> <Gold.PLP.Chemscore.CHOScore>
0.0000

> <Gold.PLP.Chemscore.Metal>
0.0000

> <Gold.Chemscore.Hbonds>
donor molecule, donor type, donor heavy atom, donor atom, acceptor molecule, acceptor atom, score
      L1  H     9    45       P1  8028  2.00
      P1  H  7989  7998       L1     4  0.99

> <Gold.PLP.Chemscore.Internal.Correction>
0.1007

> <Gold.Rescore>
     Score         DG    S(hbond)    S(metal)    S(lipo)     H(rot)  DE(clash)    DE(int)     intcor
     16.16     -18.74       1.94        0.00     101.33       1.98       0.05       2.53       ----

> <Gold.Chemscore.Fitness>
16.1598

> <Gold.Chemscore.DG>
-18.7390

> <Gold.Chemscore.ZeroCoef>
-5.4800

> <Gold.Chemscore.Hbond>
1.9407

> <Gold.Chemscore.Metal>
0.0000

> <Gold.Chemscore.Lipo>
101.3281

> <Gold.Chemscore.Internal_Hbond>
0.0000

> <Gold.Chemscore.DEClash>
0.0456

> <Gold.Chemscore.DEInternal>
2.5336

> <Gold.Chemscore.Rot>
1.9837

> <Gold.Chemscore.Internal.Correction>
   9.000000E+99

> <Gold.Chemscore.Hbonds>
donor molecule, donor type, donor heavy atom, donor atom, acceptor molecule, acceptor atom, score
      L1  H     9    45       P1  8028  0.98
      P1  H  7989  7998       L1     4  0.88

> <Gold.Chemscore.Hbond.Weighted>
-6.4818

> <Gold.Chemscore.Metal.Weighted>
-0.0000

> <Gold.Chemscore.Lipo.Weighted>
-11.8554

> <Gold.Chemscore.Internal_Hbond.Weighted>
0.0000

> <Gold.Chemscore.DEClash.Weighted>
0.0456

> <Gold.Chemscore.DEInternal.Weighted>
2.5336

> <Gold.Chemscore.Rot.Weighted>
5.0782

> <Gold.Chemscore.Internal.Correction.Weighted>
   9.000000E+99

> <Gold.Protein.RotatedTorsions>
[ 6907 6896 6895 6894 ] final   44.29 input  -60.11 | X-H torsion
[ 7974 7965 7964 7962 ] final  -98.74 input  175.53 | X-H torsion
[ 8008 7997 7996 7995 ] final   -0.00 input   59.86 | X-H torsion
[ 10167 10162 10161 10158 ] final  -29.97 input  -65.29 | X-H torsion
[ 10718 10713 10712 10709 ] final  122.01 input   66.30 | X-H torsion
[ 10763 10752 10751 10750 ] final -111.20 input  -60.55 | X-H torsion
[ 11005 11000 10999 10996 ] final  -19.52 input  -57.11 | X-H torsion

> <Gold.Protein.ActiveResidues>
 VAL166  LYS551  ARG553  GLY616  TRP617  ASP618  TYR619  PRO620  LYS621  CYS622 
 ASP623  PHE694  ASN695  SER759  ASP760  ASP761  ALA762  ILE779  LEU786  VAL792 
 PHE793  MET794  SER795  GLU796  ALA797  LYS798  CYS799  TRP800  GLU811  SER814 

> <Gold.Protein.RotatedAtoms>
  152.2307  134.8325  160.0473 H   0  0  0  0  0  0  0  0  0  0  0  0  # atno 6907 bound_to 6896
  151.9075  133.3548  159.3860 H   0  0  0  0  0  0  0  0  0  0  0  0  # atno 6908 bound_to 6896
  150.7025  134.4692  159.5461 H   0  0  0  0  0  0  0  0  0  0  0  0  # atno 6909 bound_to 6896
  145.3166  140.9412  143.2739 H   0  0  0  0  0  0  0  0  0  0  0  0  # atno 7974 bound_to 7965
  154.6630  140.2595  155.7088 H   0  0  0  0  0  0  0  0  0  0  0  0  # atno 8008 bound_to 7997
  156.2627  140.2844  156.1032 H   0  0  0  0  0  0  0  0  0  0  0  0  # atno 8009 bound_to 7997
  155.1280  140.0378  157.2757 H   0  0  0  0  0  0  0  0  0  0  0  0  # atno 8010 bound_to 7997
  140.7255  143.3886  151.1471 H   0  0  0  0  0  0  0  0  0  0  0  0  # atno 10167 bound_to 10162
  157.5774  131.1078  150.8252 H   0  0  0  0  0  0  0  0  0  0  0  0  # atno 10718 bound_to 10713
  154.8288  135.4536  154.1002 H   0  0  0  0  0  0  0  0  0  0  0  0  # atno 10763 bound_to 10752
  153.2294  135.6903  153.7914 H   0  0  0  0  0  0  0  0  0  0  0  0  # atno 10764 bound_to 10752
  153.7302  135.3328  155.3261 H   0  0  0  0  0  0  0  0  0  0  0  0  # atno 10765 bound_to 10752
  140.8375  133.7951  155.9825 H   0  0  0  0  0  0  0  0  0  0  0  0  # atno 11005 bound_to 11000
  144.8973  139.4696  143.6649 LP  0  0  0  0  0  0  0  0  0  0  0  0  # atno 17320 bound_to 7965
  146.3098  139.7706  142.9028 LP  0  0  0  0  0  0  0  0  0  0  0  0  # atno 17321 bound_to 7965
  139.7487  143.8812  152.3071 LP  0  0  0  0  0  0  0  0  0  0  0  0  # atno 17342 bound_to 10162
  139.8658  144.7094  150.9045 LP  0  0  0  0  0  0  0  0  0  0  0  0  # atno 17343 bound_to 10162
  156.8707  130.5145  149.5297 LP  0  0  0  0  0  0  0  0  0  0  0  0  # atno 17370 bound_to 10713
  156.0819  130.5827  150.9579 LP  0  0  0  0  0  0  0  0  0  0  0  0  # atno 17371 bound_to 10713
  140.8931  134.2470  157.5083 LP  0  0  0  0  0  0  0  0  0  0  0  0  # atno 17394 bound_to 11000
  139.8704  134.9671  156.4585 LP  0  0  0  0  0  0  0  0  0  0  0  0  # atno 17395 bound_to 11000

$$$$
