AV-unprocessed.smi:237|AV-procd|sdf|1817|dock1
  -GOLD-   2262020403D 1   1.00000     0.00000
 Structure written by MMmdl.
 53 56  0  0  0  0  0  0  0  0  1 V2000
  152.4033  137.9557  159.5907 C   0  0  0  0  0  0  0  0  0  0  0  0
  152.7108  138.1481  158.1038 C   0  0  0  0  0  0  0  0  0  0  0  0
  152.6931  139.5378  157.8132 O   0  0  0  0  0  0  0  0  0  0  0  0
  151.5014  140.2096  158.2044 C   0  0  0  0  0  0  0  0  0  0  0  0
  151.6077  141.7566  158.1362 C   0  0  2  0  0  0  0  0  0  0  0  0
  152.7244  142.2262  159.0952 C   0  0  0  0  0  0  0  0  0  0  0  0
  152.8444  143.7559  159.1325 C   0  0  0  0  0  0  0  0  0  0  0  0
  151.4907  144.3749  159.4973 C   0  0  0  0  0  0  0  0  0  0  0  0
  150.4067  143.8956  158.5225 C   0  0  0  0  0  0  0  0  0  0  0  0
  150.3448  142.4348  158.4749 N   0  0  0  0  0  0  0  0  0  0  0  0
  149.2622  142.0282  157.7750 C   0  0  0  0  0  0  0  0  0  0  0  0
  148.0890  141.9347  158.4472 N   0  0  0  0  0  0  0  0  0  0  0  0
  146.9905  141.5113  157.8144 C   0  0  0  0  0  0  0  0  0  0  0  0
  146.8511  141.1408  156.5395 N   0  0  0  0  0  0  0  0  0  0  0  0
  148.0285  141.2487  155.8587 C   0  0  0  0  0  0  0  0  0  0  0  0
  149.2722  141.6849  156.3933 C   0  0  0  0  0  0  0  0  0  0  0  0
  150.2487  141.6594  155.4053 N   0  0  0  0  0  0  0  0  0  0  0  0
  149.6197  141.2214  154.3494 C   0  0  0  0  0  0  0  0  0  0  0  0
  148.2792  140.9602  154.5283 N   0  0  0  0  0  0  0  0  0  0  0  0
  147.3413  140.4545  153.5361 C   0  0  0  0  0  0  0  0  0  0  0  0
  146.8718  138.9978  153.7672 C   0  0  0  0  0  0  0  0  0  0  0  0
  146.3617  138.4449  152.4295 C   0  0  0  0  0  0  0  0  0  0  0  0
  147.3726  138.4735  151.4422 O   0  0  0  0  0  0  0  0  0  0  0  0
  147.7863  138.0672  154.5841 C   0  0  0  0  0  0  0  0  0  0  0  0
  146.9969  138.2533  155.7780 O   0  0  0  0  0  0  0  0  0  0  0  0
  145.9299  138.7830  154.9638 C   0  0  0  0  0  0  0  0  0  0  0  0
  152.3972  136.8978  159.8539 H   0  0  0  0  0  0  0  0  0  0  0  0
  151.4280  138.3693  159.8468 H   0  0  0  0  0  0  0  0  0  0  0  0
  153.1501  138.4514  160.2112 H   0  0  0  0  0  0  0  0  0  0  0  0
  153.6903  137.7274  157.8722 H   0  0  0  0  0  0  0  0  0  0  0  0
  151.9739  137.6132  157.5054 H   0  0  0  0  0  0  0  0  0  0  0  0
  150.6907  139.8732  157.5571 H   0  0  0  0  0  0  0  0  0  0  0  0
  151.2303  139.8844  159.2102 H   0  0  0  0  0  0  0  0  0  0  0  0
  151.9024  142.0612  157.1326 H   0  0  0  0  0  0  0  0  0  0  0  0
  152.5227  141.8575  160.1022 H   0  0  0  0  0  0  0  0  0  0  0  0
  153.6804  141.7956  158.7954 H   0  0  0  0  0  0  0  0  0  0  0  0
  153.6040  144.0572  159.8542 H   0  0  0  0  0  0  0  0  0  0  0  0
  153.1707  144.1254  158.1595 H   0  0  0  0  0  0  0  0  0  0  0  0
  151.2191  144.0947  160.5160 H   0  0  0  0  0  0  0  0  0  0  0  0
  151.5565  145.4630  159.4795 H   0  0  0  0  0  0  0  0  0  0  0  0
  149.4393  144.2988  158.8270 H   0  0  0  0  0  0  0  0  0  0  0  0
  150.6142  144.2859  157.5252 H   0  0  0  0  0  0  0  0  0  0  0  0
  146.0955  141.4588  158.4164 H   0  0  0  0  0  0  0  0  0  0  0  0
  150.1244  141.0720  153.4064 H   0  0  0  0  0  0  0  0  0  0  0  0
  146.4840  141.1284  153.5190 H   0  0  0  0  0  0  0  0  0  0  0  0
  147.8158  140.5603  152.5601 H   0  0  0  0  0  0  0  0  0  0  0  0
  146.0297  137.4117  152.5356 H   0  0  0  0  0  0  0  0  0  0  0  0
  145.5020  139.0128  152.0722 H   0  0  0  0  0  0  0  0  0  0  0  0
  148.0610  139.0524  151.7324 H   0  0  0  0  0  0  0  0  0  0  0  0
  147.7672  137.0287  154.2494 H   0  0  0  0  0  0  0  0  0  0  0  0
  148.8137  138.4105  154.6945 H   0  0  0  0  0  0  0  0  0  0  0  0
  145.4952  139.6953  155.3702 H   0  0  0  0  0  0  0  0  0  0  0  0
  145.1523  138.0376  154.7887 H   0  0  0  0  0  0  0  0  0  0  0  0
  1  2  1  0  0  0  0
  1 27  1  0  0  0  0
  1 28  1  0  0  0  0
  1 29  1  0  0  0  0
  2  3  1  0  0  0  0
  2 30  1  0  0  0  0
  2 31  1  0  0  0  0
  3  4  1  0  0  0  0
  4  5  1  0  0  0  0
  4 32  1  0  0  0  0
  4 33  1  0  0  0  0
  5 10  1  0  0  0  0
  5  6  1  0  0  0  0
  5 34  1  0  0  0  0
  6  7  1  0  0  0  0
  6 35  1  0  0  0  0
  6 36  1  0  0  0  0
  7  8  1  0  0  0  0
  7 37  1  0  0  0  0
  7 38  1  0  0  0  0
  8  9  1  0  0  0  0
  8 39  1  0  0  0  0
  8 40  1  0  0  0  0
  9 10  1  0  0  0  0
  9 41  1  0  0  0  0
  9 42  1  0  0  0  0
 10 11  1  0  0  0  0
 11 16  1  0  0  0  0
 11 12  2  0  0  0  0
 12 13  1  0  0  0  0
 13 14  2  0  0  0  0
 13 43  1  0  0  0  0
 14 15  1  0  0  0  0
 15 19  1  0  0  0  0
 15 16  2  0  0  0  0
 16 17  1  0  0  0  0
 17 18  2  0  0  0  0
 18 19  1  0  0  0  0
 18 44  1  0  0  0  0
 19 20  1  0  0  0  0
 20 21  1  0  0  0  0
 20 45  1  0  0  0  0
 20 46  1  0  0  0  0
 21 26  1  0  0  0  0
 21 22  1  0  0  0  0
 21 24  1  0  0  0  0
 22 23  1  0  0  0  0
 22 47  1  0  0  0  0
 22 48  1  0  0  0  0
 23 49  1  0  0  0  0
 24 25  1  0  0  0  0
 24 50  1  0  0  0  0
 24 51  1  0  0  0  0
 25 26  1  0  0  0  0
 26 52  1  0  0  0  0
 26 53  1  0  0  0  0
M  END
> <s_m_source_file>
AV-unprocessed.smi

> <i_m_source_file_index>
237

> <i_lp_mmshare_version>
43012

> <i_f3d_flags>
0

> <s_epik_input>
W0NIM11bQ0gyXU9bQ0gyXVtDQEBIXTFbQ0gyXVtDSDJdW0NIMl1bQ0gyXU4xYyhuW2NIXW4yKWMoYzIzKW5bY0hdbjNbQ0gyXUM0KFtDSDJdW09IXSlbQ0gyXU9bQ0gyXTQ=

> <s_epik_cmdline>
J2VwaWtfcHl0aG9uJywgJy1waCcsICc3LjAnLCAnLXRuJywgJzgnLCAnLW1hJywgJzIwMCcsICctbWV0YWxfYmluZGluZycsICctaW1hZScsICc8aW5maWxlLm1hZT4nLCAnLW9tYWUnLCAnPG91dGZpbGUubWFlPic=

> <r_lp_tautomer_probability>
1

> <r_epik_Ionization_Penalty>
0.00358373

> <r_epik_Ionization_Penalty_Charging>
0

> <r_epik_Ionization_Penalty_Neutral>
0.00358373

> <r_epik_State_Penalty>
0.00240903

> <r_epik_Charging_Adjusted_Penalty>
0.00240903

> <i_epik_Tot_Q>
0

> <i_epik_Tot_abs_Q>
0

> <r_epik_Metal_State_Penalty>
-0

> <b_epik_Metal_Only>
0

> <s_lp_Force_Field>
OPLS_2005

> <r_lp_Energy>
38.4441

> <b_lp_Chiralities_Consistent>
1

> <s_lp_Variant>
AV-unprocessed.smi:237-1

> <Gold.Version>
5.8.1

> <Gold.Id.Protein>
6NUR|6NUR_protein|mol2

> <Gold.PLP.Fitness>
48.9938

> <Gold.PLP.PLP>
-39.1829

> <Gold.PLP.part.hbond>
-5.3205

> <Gold.PLP.part.metal>
0.0000

> <Gold.PLP.part.buried>
-0.9693

> <Gold.PLP.part.nonpolar>
-32.3430

> <Gold.PLP.part.repulsive>
0.3375

> <Gold.PLP.ligand.clash>
0.0000

> <Gold.PLP.ligand.torsion>
1.2567

> <Gold.PLP.Chemscore.Hbond>
2.8480

> <Gold.PLP.Chemscore.CHOScore>
1.0000

> <Gold.PLP.Chemscore.Metal>
0.0000

> <Gold.Chemscore.Hbonds>
donor molecule, donor type, donor heavy atom, donor atom, acceptor molecule, acceptor atom, score
      L1  H    23    49       P1  7957  0.85
      P1  H  7954  7966       L1    23  0.90
      P1  H  7997  8008       L1     3  0.78
      L1  C    18    44       P1  7957  1.00

> <Gold.PLP.Chemscore.Internal.Correction>
0.7802

> <Gold.Rescore>
     Score         DG    S(hbond)    S(metal)    S(lipo)     H(rot)  DE(clash)    DE(int)     intcor
     12.14     -14.95       1.89        0.00      93.99       3.06       0.89       1.92       ----

> <Gold.Chemscore.Fitness>
12.1435

> <Gold.Chemscore.DG>
-14.9480

> <Gold.Chemscore.ZeroCoef>
-5.4800

> <Gold.Chemscore.Hbond>
1.8890

> <Gold.Chemscore.Metal>
0.0000

> <Gold.Chemscore.Lipo>
93.9946

> <Gold.Chemscore.Internal_Hbond>
0.0000

> <Gold.Chemscore.DEClash>
0.8869

> <Gold.Chemscore.DEInternal>
1.9176

> <Gold.Chemscore.Rot>
3.0620

> <Gold.Chemscore.Internal.Correction>
   9.000000E+99

> <Gold.Chemscore.Hbonds>
donor molecule, donor type, donor heavy atom, donor atom, acceptor molecule, acceptor atom, score
      L1  H    23    49       P1  7957  0.78
      P1  H  7954  7966       L1    23  0.18
      P1  H  7997  8008       L1     3  0.60

> <Gold.Chemscore.Hbond.Weighted>
-6.3094

> <Gold.Chemscore.Metal.Weighted>
-0.0000

> <Gold.Chemscore.Lipo.Weighted>
-10.9974

> <Gold.Chemscore.Internal_Hbond.Weighted>
0.0000

> <Gold.Chemscore.DEClash.Weighted>
0.8869

> <Gold.Chemscore.DEInternal.Weighted>
1.9176

> <Gold.Chemscore.Rot.Weighted>
7.8388

> <Gold.Chemscore.Internal.Correction.Weighted>
   9.000000E+99

> <Gold.Protein.RotatedTorsions>
[ 6907 6896 6895 6894 ] final  148.50 input  -60.11 | X-H torsion
[ 7974 7965 7964 7962 ] final   77.31 input  175.53 | X-H torsion
[ 8008 7997 7996 7995 ] final  -60.29 input   59.86 | X-H torsion
[ 10167 10162 10161 10158 ] final  -37.04 input  -65.29 | X-H torsion
[ 10718 10713 10712 10709 ] final   95.52 input   66.30 | X-H torsion
[ 10763 10752 10751 10750 ] final -103.43 input  -60.55 | X-H torsion
[ 11005 11000 10999 10996 ] final  170.80 input  -57.11 | X-H torsion

> <Gold.Protein.ActiveResidues>
 VAL166  LYS551  ARG553  GLY616  TRP617  ASP618  TYR619  PRO620  LYS621  CYS622 
 ASP623  PHE694  ASN695  SER759  ASP760  ASP761  ALA762  ILE779  LEU786  VAL792 
 PHE793  MET794  SER795  GLU796  ALA797  LYS798  CYS799  TRP800  GLU811  SER814 

> <Gold.Protein.RotatedAtoms>
  152.1406  133.4462  159.4764 H   0  0  0  0  0  0  0  0  0  0  0  0  # atno 6907 bound_to 6896
  150.6886  134.2310  159.4443 H   0  0  0  0  0  0  0  0  0  0  0  0  # atno 6908 bound_to 6896
  152.0200  134.9828  160.0621 H   0  0  0  0  0  0  0  0  0  0  0  0  # atno 6909 bound_to 6896
  145.6917  139.2554  143.1756 H   0  0  0  0  0  0  0  0  0  0  0  0  # atno 7974 bound_to 7965
  154.4391  140.1043  156.6250 H   0  0  0  0  0  0  0  0  0  0  0  0  # atno 8008 bound_to 7997
  155.5667  140.3488  155.4486 H   0  0  0  0  0  0  0  0  0  0  0  0  # atno 8009 bound_to 7997
  156.0420  140.1284  157.0134 H   0  0  0  0  0  0  0  0  0  0  0  0  # atno 8010 bound_to 7997
  140.7128  143.3368  151.2444 H   0  0  0  0  0  0  0  0  0  0  0  0  # atno 10167 bound_to 10162
  157.6938  131.0548  150.4351 H   0  0  0  0  0  0  0  0  0  0  0  0  # atno 10718 bound_to 10713
  154.7806  135.4824  153.9837 H   0  0  0  0  0  0  0  0  0  0  0  0  # atno 10763 bound_to 10752
  153.1489  135.6787  153.8919 H   0  0  0  0  0  0  0  0  0  0  0  0  # atno 10764 bound_to 10752
  153.8570  135.3160  155.3414 H   0  0  0  0  0  0  0  0  0  0  0  0  # atno 10765 bound_to 10752
  140.3122  134.7507  157.4000 H   0  0  0  0  0  0  0  0  0  0  0  0  # atno 11005 bound_to 11000
  146.0876  140.7693  142.9611 LP  0  0  0  0  0  0  0  0  0  0  0  0  # atno 17320 bound_to 7965
  144.6995  140.3586  143.7168 LP  0  0  0  0  0  0  0  0  0  0  0  0  # atno 17321 bound_to 7965
  139.6866  143.9764  152.2837 LP  0  0  0  0  0  0  0  0  0  0  0  0  # atno 17342 bound_to 10162
  139.9411  144.6681  150.8265 LP  0  0  0  0  0  0  0  0  0  0  0  0  # atno 17343 bound_to 10162
  156.4714  130.4053  149.6515 LP  0  0  0  0  0  0  0  0  0  0  0  0  # atno 17370 bound_to 10713
  156.3594  130.7474  151.2444 LP  0  0  0  0  0  0  0  0  0  0  0  0  # atno 17371 bound_to 10713
  140.1015  134.5466  155.8348 LP  0  0  0  0  0  0  0  0  0  0  0  0  # atno 17394 bound_to 11000
  141.2105  133.6696  156.6518 LP  0  0  0  0  0  0  0  0  0  0  0  0  # atno 17395 bound_to 11000

$$$$
