AV-unprocessed.smi:701|AV-procd|sdf|3412|dock3
  -GOLD-   22720 0393D 1   1.00000     0.00000
 Structure written by MMmdl.
 48 50  0  0  0  0  0  0  0  0  2 V2000
  144.1115  131.8398  150.4303 C   0  0  0  0  0  0  0  0  0  0  0  0
  144.3188  133.3383  150.2011 C   0  0  0  0  0  0  0  0  0  0  0  0
  144.3717  133.9882  151.4597 O   0  0  0  0  0  0  0  0  0  0  0  0
  144.2289  135.4003  151.3666 C   0  0  2  0  0  0  0  0  0  0  0  0
  145.5056  136.0759  150.8498 C   0  0  0  0  0  0  0  0  0  0  0  0
  145.9453  136.1602  152.3120 C   0  0  1  0  0  0  0  0  0  0  0  0
  146.6183  137.4147  152.6195 N   0  0  0  0  0  0  0  0  0  0  0  0
  146.9454  137.8328  153.8525 C   0  0  0  0  0  0  0  0  0  0  0  0
  146.7549  137.1516  154.8593 O   0  0  0  0  0  0  0  0  0  0  0  0
  147.5701  139.2315  153.9972 C   0  0  0  0  0  0  0  0  0  0  0  0
  149.0049  139.2304  154.3384 N   0  0  0  0  0  0  0  0  0  0  0  0
  149.6671  137.9904  154.3676 C   0  0  0  0  0  0  0  0  0  0  0  0
  150.9812  137.8930  154.6446 C   0  0  0  0  0  0  0  0  0  0  0  0
  151.7214  139.1183  154.9189 C   0  0  0  0  0  0  0  0  0  0  0  0
  152.9228  139.0490  155.1694 O   0  0  0  0  0  0  0  0  0  0  0  0
  151.0338  140.2970  154.8810 N   0  5  0  0  0  0  0  0  0  0  0  0
  149.6974  140.3812  154.5971 C   0  0  0  0  0  0  0  0  0  0  0  0
  149.0991  141.4565  154.5570 O   0  0  0  0  0  0  0  0  0  0  0  0
  144.4512  136.1150  152.7270 C   0  0  0  0  0  0  0  0  0  0  0  0
  144.1393  135.3053  153.9980 C   0  0  0  0  0  0  0  0  0  0  0  0
  142.6317  135.0888  154.2085 C   0  0  0  0  0  0  0  0  0  0  0  0
  141.8885  136.4285  154.2914 C   0  0  0  0  0  0  0  0  0  0  0  0
  142.2030  137.3158  153.0801 C   0  0  0  0  0  0  0  0  0  0  0  0
  143.7209  137.4710  152.8804 C   0  0  0  0  0  0  0  0  0  0  0  0
  144.0644  131.3031  149.4825 H   0  0  0  0  0  0  0  0  0  0  0  0
  143.1823  131.6516  150.9686 H   0  0  0  0  0  0  0  0  0  0  0  0
  144.9296  131.4174  151.0142 H   0  0  0  0  0  0  0  0  0  0  0  0
  145.2415  133.5047  149.6439 H   0  0  0  0  0  0  0  0  0  0  0  0
  143.4973  133.7408  149.6068 H   0  0  0  0  0  0  0  0  0  0  0  0
  143.3180  135.7080  150.8508 H   0  0  0  0  0  0  0  0  0  0  0  0
  146.1443  135.4545  150.2220 H   0  0  0  0  0  0  0  0  0  0  0  0
  145.3144  137.0471  150.3898 H   0  0  0  0  0  0  0  0  0  0  0  0
  146.4981  135.2685  152.6170 H   0  0  0  0  0  0  0  0  0  0  0  0
  146.8045  138.0374  151.8462 H   0  0  0  0  0  0  0  0  0  0  0  0
  147.4060  139.7829  153.0699 H   0  0  0  0  0  0  0  0  0  0  0  0
  147.0042  139.7765  154.7536 H   0  0  0  0  0  0  0  0  0  0  0  0
  149.0482  137.1332  154.1461 H   0  0  0  0  0  0  0  0  0  0  0  0
  151.4755  136.9329  154.6594 H   0  0  0  0  0  0  0  0  0  0  0  0
  144.6380  134.3362  153.9706 H   0  0  0  0  0  0  0  0  0  0  0  0
  144.5520  135.8139  154.8704 H   0  0  0  0  0  0  0  0  0  0  0  0
  142.2292  134.4948  153.3872 H   0  0  0  0  0  0  0  0  0  0  0  0
  142.4618  134.5136  155.1189 H   0  0  0  0  0  0  0  0  0  0  0  0
  140.8138  136.2587  154.3637 H   0  0  0  0  0  0  0  0  0  0  0  0
  142.1820  136.9479  155.2045 H   0  0  0  0  0  0  0  0  0  0  0  0
  141.7536  136.8850  152.1852 H   0  0  0  0  0  0  0  0  0  0  0  0
  141.7445  138.2964  153.2113 H   0  0  0  0  0  0  0  0  0  0  0  0
  144.1270  138.0201  153.7310 H   0  0  0  0  0  0  0  0  0  0  0  0
  143.8963  138.1086  152.0133 H   0  0  0  0  0  0  0  0  0  0  0  0
  1  2  1  0  0  0  0
  1 25  1  0  0  0  0
  1 26  1  0  0  0  0
  1 27  1  0  0  0  0
  2  3  1  0  0  0  0
  2 28  1  0  0  0  0
  2 29  1  0  0  0  0
  3  4  1  0  0  0  0
  4 19  1  0  0  0  0
  4  5  1  0  0  0  0
  4 30  1  0  0  0  0
  5  6  1  0  0  0  0
  5 31  1  0  0  0  0
  5 32  1  0  0  0  0
  6  7  1  0  0  0  0
  6 19  1  0  0  0  0
  6 33  1  0  0  0  0
  7  8  1  0  0  0  0
  7 34  1  0  0  0  0
  8  9  2  0  0  0  0
  8 10  1  0  0  0  0
 10 11  1  0  0  0  0
 10 35  1  0  0  0  0
 10 36  1  0  0  0  0
 11 17  1  0  0  0  0
 11 12  1  0  0  0  0
 12 13  2  0  0  0  0
 12 37  1  0  0  0  0
 13 14  1  0  0  0  0
 13 38  1  0  0  0  0
 14 15  2  0  0  0  0
 14 16  1  0  0  0  0
 16 17  1  0  0  0  0
 17 18  2  0  0  0  0
 19 24  1  0  0  0  0
 19 20  1  0  0  0  0
 20 21  1  0  0  0  0
 20 39  1  0  0  0  0
 20 40  1  0  0  0  0
 21 22  1  0  0  0  0
 21 41  1  0  0  0  0
 21 42  1  0  0  0  0
 22 23  1  0  0  0  0
 22 43  1  0  0  0  0
 22 44  1  0  0  0  0
 23 24  1  0  0  0  0
 23 45  1  0  0  0  0
 23 46  1  0  0  0  0
 24 47  1  0  0  0  0
 24 48  1  0  0  0  0
M  CHG  1  16  -1
M  END
> <s_m_source_file>
AV-unprocessed.smi

> <i_m_source_file_index>
701

> <i_lp_mmshare_version>
43012

> <i_f3d_flags>
0

> <s_epik_input>
W0NIMl0xW0NIMl1bQ0gyXVtDSDJdW0NIMl1DMTJbQ0BIXShPW0NIMl1bQ0gzXSlbQ0gyXVtDQEhdMltOSF1DKD1PKVtDSDJdbjNbY0hdW2NIXWMoPU8pW25IXWMzPU8=

> <s_epik_cmdline>
J2VwaWtfcHl0aG9uJywgJy1waCcsICc3LjAnLCAnLXRuJywgJzgnLCAnLW1hJywgJzIwMCcsICctbWV0YWxfYmluZGluZycsICctaW1hZScsICc8aW5maWxlLm1hZT4nLCAnLW9tYWUnLCAnPG91dGZpbGUubWFlPic=

> <r_lp_tautomer_probability>
0.999537

> <r_epik_Ionization_Penalty>
3.12423

> <r_epik_Ionization_Penalty_Charging>
2.92877e-08

> <r_epik_Ionization_Penalty_Neutral>
3.12423

> <r_epik_State_Penalty>
3.12332

> <r_epik_Charging_Adjusted_Penalty>
3.12332

> <i_epik_Tot_Q>
-1

> <i_epik_Tot_abs_Q>
1

> <r_epik_Metal_State_Penalty>
0.463873

> <b_epik_Metal_Only>
1

> <s_lp_Force_Field>
OPLS_2005

> <r_lp_Energy>
34.5124

> <b_lp_Chiralities_Consistent>
1

> <s_lp_Variant>
AV-unprocessed.smi:701-5

> <Gold.Version>
5.8.1

> <Gold.Id.Protein>
6NUR|6NUR_protein|mol2

> <Gold.PLP.Fitness>
45.3441

> <Gold.PLP.PLP>
-37.5903

> <Gold.PLP.part.hbond>
-3.3348

> <Gold.PLP.part.metal>
0.0000

> <Gold.PLP.part.buried>
-1.8257

> <Gold.PLP.part.nonpolar>
-32.9719

> <Gold.PLP.part.repulsive>
0.4423

> <Gold.PLP.ligand.clash>
0.0000

> <Gold.PLP.ligand.torsion>
0.3761

> <Gold.PLP.Chemscore.Hbond>
1.9500

> <Gold.PLP.Chemscore.CHOScore>
0.7719

> <Gold.PLP.Chemscore.Metal>
0.0000

> <Gold.Chemscore.Hbonds>
donor molecule, donor type, donor heavy atom, donor atom, acceptor molecule, acceptor atom, score
      P1  H  7989  7998       L1    16  0.90
      P1  H  7997  8010       L1    15  0.99
      L1  C    12    37       P1  7948  0.79

> <Gold.PLP.Chemscore.Internal.Correction>
0.3404

> <Gold.Rescore>
     Score         DG    S(hbond)    S(metal)    S(lipo)     H(rot)  DE(clash)    DE(int)     intcor
     10.79     -12.53       1.00        0.00      76.25       2.04       1.31       0.43       ----

> <Gold.Chemscore.Fitness>
10.7876

> <Gold.Chemscore.DG>
-12.5266

> <Gold.Chemscore.ZeroCoef>
-5.4800

> <Gold.Chemscore.Hbond>
1.0022

> <Gold.Chemscore.Metal>
0.0000

> <Gold.Chemscore.Lipo>
76.2522

> <Gold.Chemscore.Internal_Hbond>
0.0000

> <Gold.Chemscore.DEClash>
1.3109

> <Gold.Chemscore.DEInternal>
0.4281

> <Gold.Chemscore.Rot>
2.0399

> <Gold.Chemscore.Internal.Correction>
   9.000000E+99

> <Gold.Chemscore.Hbonds>
donor molecule, donor type, donor heavy atom, donor atom, acceptor molecule, acceptor atom, score
      P1  H  7989  7998       L1    16  0.04
      P1  H  7997  8010       L1    15  0.92

> <Gold.Chemscore.Hbond.Weighted>
-3.3473

> <Gold.Chemscore.Metal.Weighted>
-0.0000

> <Gold.Chemscore.Lipo.Weighted>
-8.9215

> <Gold.Chemscore.Internal_Hbond.Weighted>
0.0000

> <Gold.Chemscore.DEClash.Weighted>
1.3109

> <Gold.Chemscore.DEInternal.Weighted>
0.4281

> <Gold.Chemscore.Rot.Weighted>
5.2222

> <Gold.Chemscore.Internal.Correction.Weighted>
   9.000000E+99

> <Gold.Protein.RotatedTorsions>
[ 6907 6896 6895 6894 ] final -156.53 input  -60.11 | X-H torsion
[ 7974 7965 7964 7962 ] final -157.21 input  175.53 | X-H torsion
[ 8008 7997 7996 7995 ] final  102.57 input   59.86 | X-H torsion
[ 10167 10162 10161 10158 ] final   29.81 input  -65.29 | X-H torsion
[ 10718 10713 10712 10709 ] final   -5.82 input   66.30 | X-H torsion
[ 10763 10752 10751 10750 ] final   79.95 input  -60.55 | X-H torsion
[ 11005 11000 10999 10996 ] final -133.07 input  -57.11 | X-H torsion

> <Gold.Protein.ActiveResidues>
 VAL166  LYS551  ARG553  GLY616  TRP617  ASP618  TYR619  PRO620  LYS621  CYS622 
 ASP623  PHE694  ASN695  SER759  ASP760  ASP761  ALA762  ILE779  LEU786  VAL792 
 PHE793  MET794  SER795  GLU796  ALA797  LYS798  CYS799  TRP800  GLU811  SER814 

> <Gold.Protein.RotatedAtoms>
  151.2890  133.4174  159.2631 H   0  0  0  0  0  0  0  0  0  0  0  0  # atno 6907 bound_to 6896
  151.0294  134.9528  159.8113 H   0  0  0  0  0  0  0  0  0  0  0  0  # atno 6908 bound_to 6896
  152.5342  134.2852  159.9075 H   0  0  0  0  0  0  0  0  0  0  0  0  # atno 6909 bound_to 6896
  144.7558  140.4000  143.6013 H   0  0  0  0  0  0  0  0  0  0  0  0  # atno 7974 bound_to 7965
  156.1405  140.3179  155.8487 H   0  0  0  0  0  0  0  0  0  0  0  0  # atno 8008 bound_to 7997
  155.4164  140.0509  157.3045 H   0  0  0  0  0  0  0  0  0  0  0  0  # atno 8009 bound_to 7997
  154.4972  140.2115  155.9434 H   0  0  0  0  0  0  0  0  0  0  0  0  # atno 8010 bound_to 7997
  140.4733  144.0729  150.6243 H   0  0  0  0  0  0  0  0  0  0  0  0  # atno 10167 bound_to 10162
  156.7410  130.5209  149.5824 H   0  0  0  0  0  0  0  0  0  0  0  0  # atno 10718 bound_to 10713
  153.0993  135.4821  154.8838 H   0  0  0  0  0  0  0  0  0  0  0  0  # atno 10763 bound_to 10752
  154.7361  135.3071  154.8811 H   0  0  0  0  0  0  0  0  0  0  0  0  # atno 10764 bound_to 10752
  153.9433  135.6831  153.4797 H   0  0  0  0  0  0  0  0  0  0  0  0  # atno 10765 bound_to 10752
  140.9113  134.1564  157.4387 H   0  0  0  0  0  0  0  0  0  0  0  0  # atno 11005 bound_to 11000
  145.6784  139.1613  143.2714 LP  0  0  0  0  0  0  0  0  0  0  0  0  # atno 17320 bound_to 7965
  146.1566  140.6849  142.9297 LP  0  0  0  0  0  0  0  0  0  0  0  0  # atno 17321 bound_to 7965
  140.3950  143.2733  152.0015 LP  0  0  0  0  0  0  0  0  0  0  0  0  # atno 17342 bound_to 10162
  139.4821  144.6045  151.7545 LP  0  0  0  0  0  0  0  0  0  0  0  0  # atno 17343 bound_to 10162
  156.1465  130.6280  151.0538 LP  0  0  0  0  0  0  0  0  0  0  0  0  # atno 17370 bound_to 10713
  157.6818  131.0836  150.7348 LP  0  0  0  0  0  0  0  0  0  0  0  0  # atno 17371 bound_to 10713
  139.8758  134.9937  156.5656 LP  0  0  0  0  0  0  0  0  0  0  0  0  # atno 17394 bound_to 11000
  140.8106  133.8432  155.8807 LP  0  0  0  0  0  0  0  0  0  0  0  0  # atno 17395 bound_to 11000

$$$$
