AV-unprocessed.smi:516|AV-procd|sdf|2787|dock8
  -GOLD-   2262023263D 1   1.00000     0.00000
 Structure written by MMmdl.
 44 46  0  0  0  0  0  0  0  0  3 V2000
  150.5887  131.8904  156.5168 C   0  0  0  0  0  0  0  0  0  0  0  0
  150.7382  133.0987  157.2399 O   0  0  0  0  0  0  0  0  0  0  0  0
  149.6816  134.0135  157.0016 C   0  0  0  0  0  0  0  0  0  0  0  0
  149.4779  134.2018  155.4908 C   0  0  0  0  0  0  0  0  0  0  0  0
  149.0669  135.5625  155.1543 N   0  0  0  0  0  0  0  0  0  0  0  0
  147.8539  135.9599  154.6867 C   0  0  0  0  0  0  0  0  0  0  0  0
  146.7075  135.0221  154.4334 C   0  0  0  0  0  0  0  0  0  0  0  0
  146.5533  135.0110  152.9568 N   0  3  0  0  0  0  0  0  0  0  0  0
  146.1709  133.6766  152.4396 C   0  0  0  0  0  0  0  0  0  0  0  0
  146.0930  133.6978  150.9037 C   0  0  0  0  0  0  0  0  0  0  0  0
  145.1727  134.6984  150.4858 O   0  0  0  0  0  0  0  0  0  0  0  0
  145.5742  135.9979  150.9018 C   0  0  0  0  0  0  0  0  0  0  0  0
  145.6324  136.0537  152.4372 C   0  0  0  0  0  0  0  0  0  0  0  0
  147.7550  137.2735  154.4670 N   0  0  0  0  0  0  0  0  0  0  0  0
  149.0081  137.7497  154.8203 C   0  0  0  0  0  0  0  0  0  0  0  0
  149.8191  136.7394  155.2329 C   0  0  0  0  0  0  0  0  0  0  0  0
  151.2223  136.9362  155.6625 C   0  0  0  0  0  0  0  0  0  0  0  0
  151.9227  135.9864  156.0051 O   0  0  0  0  0  0  0  0  0  0  0  0
  151.5948  138.2546  155.6223 N   0  5  0  0  0  0  0  0  0  0  0  0
  150.8032  139.3090  155.2206 C   0  0  0  0  0  0  0  0  0  0  0  0
  151.2160  140.4693  155.2206 O   0  0  0  0  0  0  0  0  0  0  0  0
  149.5173  139.0764  154.8093 N   0  0  0  0  0  0  0  0  0  0  0  0
  148.6540  140.1772  154.3716 C   0  0  0  0  0  0  0  0  0  0  0  0
  151.4281  131.2294  156.7325 H   0  0  0  0  0  0  0  0  0  0  0  0
  150.5726  132.0738  155.4418 H   0  0  0  0  0  0  0  0  0  0  0  0
  149.6708  131.3729  156.7983 H   0  0  0  0  0  0  0  0  0  0  0  0
  148.7636  133.6404  157.4581 H   0  0  0  0  0  0  0  0  0  0  0  0
  149.9077  134.9750  157.4647 H   0  0  0  0  0  0  0  0  0  0  0  0
  150.3943  133.9602  154.9539 H   0  0  0  0  0  0  0  0  0  0  0  0
  148.7444  133.4918  155.1151 H   0  0  0  0  0  0  0  0  0  0  0  0
  146.9859  134.0343  154.8031 H   0  0  0  0  0  0  0  0  0  0  0  0
  145.7883  135.3167  154.9380 H   0  0  0  0  0  0  0  0  0  0  0  0
  146.9021  132.9331  152.7593 H   0  0  0  0  0  0  0  0  0  0  0  0
  145.2078  133.3830  152.8603 H   0  0  0  0  0  0  0  0  0  0  0  0
  147.0752  133.8834  150.4658 H   0  0  0  0  0  0  0  0  0  0  0  0
  145.7562  132.7302  150.5310 H   0  0  0  0  0  0  0  0  0  0  0  0
  146.5423  136.2511  150.4664 H   0  0  0  0  0  0  0  0  0  0  0  0
  144.8554  136.7265  150.5266 H   0  0  0  0  0  0  0  0  0  0  0  0
  144.6355  135.9031  152.8543 H   0  0  0  0  0  0  0  0  0  0  0  0
  145.9614  137.0459  152.7467 H   0  0  0  0  0  0  0  0  0  0  0  0
  149.1228  140.7342  153.5593 H   0  0  0  0  0  0  0  0  0  0  0  0
  148.4712  140.8672  155.1961 H   0  0  0  0  0  0  0  0  0  0  0  0
  147.6852  139.8344  154.0095 H   0  0  0  0  0  0  0  0  0  0  0  0
  147.4689  135.2111  152.5785 H   0  0  0  0  0  0  0  0  0  0  0  0
  1  2  1  0  0  0  0
  1 24  1  0  0  0  0
  1 25  1  0  0  0  0
  1 26  1  0  0  0  0
  2  3  1  0  0  0  0
  3  4  1  0  0  0  0
  3 27  1  0  0  0  0
  3 28  1  0  0  0  0
  4  5  1  0  0  0  0
  4 29  1  0  0  0  0
  4 30  1  0  0  0  0
  5 16  1  0  0  0  0
  5  6  1  0  0  0  0
  6  7  1  0  0  0  0
  6 14  2  0  0  0  0
  7  8  1  0  0  0  0
  7 31  1  0  0  0  0
  7 32  1  0  0  0  0
  8 13  1  0  0  0  0
  8  9  1  0  0  0  0
  8 44  1  0  0  0  0
  9 10  1  0  0  0  0
  9 33  1  0  0  0  0
  9 34  1  0  0  0  0
 10 11  1  0  0  0  0
 10 35  1  0  0  0  0
 10 36  1  0  0  0  0
 11 12  1  0  0  0  0
 12 13  1  0  0  0  0
 12 37  1  0  0  0  0
 12 38  1  0  0  0  0
 13 39  1  0  0  0  0
 13 40  1  0  0  0  0
 14 15  1  0  0  0  0
 15 22  1  0  0  0  0
 15 16  2  0  0  0  0
 16 17  1  0  0  0  0
 17 18  2  0  0  0  0
 17 19  1  0  0  0  0
 19 20  1  0  0  0  0
 20 21  2  0  0  0  0
 20 22  1  0  0  0  0
 22 23  1  0  0  0  0
 23 41  1  0  0  0  0
 23 42  1  0  0  0  0
 23 43  1  0  0  0  0
M  CHG  1   8   1
M  CHG  1  19  -1
M  END
> <s_m_source_file>
AV-unprocessed.smi

> <i_m_source_file_index>
516

> <i_lp_mmshare_version>
43012

> <i_f3d_flags>
0

> <s_epik_input>
W0NIM11uMWMoPU8pW25IXWMoPU8pYyhjMTIpbihbQ0gyXVtDSDJdT1tDSDNdKWMobjIpW0NIMl1OM1tDSDJdW0NIMl1PW0NIMl1bQ0gyXTM=

> <s_epik_cmdline>
J2VwaWtfcHl0aG9uJywgJy1waCcsICc3LjAnLCAnLXRuJywgJzgnLCAnLW1hJywgJzIwMCcsICctbWV0YWxfYmluZGluZycsICctaW1hZScsICc8aW5maWxlLm1hZT4nLCAnLW9tYWUnLCAnPG91dGZpbGUubWFlPic=

> <r_epik_Ionization_Penalty>
5.20946

> <r_epik_Ionization_Penalty_Charging>
1.12908

> <r_epik_Ionization_Penalty_Neutral>
4.08038

> <r_epik_State_Penalty>
5.2587

> <r_epik_Charging_Adjusted_Penalty>
6.38778

> <i_epik_Tot_Q>
0

> <i_epik_Tot_abs_Q>
2

> <r_epik_Metal_State_Penalty>
1.732

> <b_epik_Metal_Only>
1

> <s_lp_Force_Field>
OPLS_2005

> <r_lp_Energy>
35.9619

> <b_lp_Chiralities_Consistent>
1

> <s_lp_Variant>
AV-unprocessed.smi:516-4

> <Gold.Version>
5.8.1

> <Gold.Id.Protein>
6NUR|6NUR_protein|mol2

> <Gold.PLP.Fitness>
40.7400

> <Gold.PLP.PLP>
-27.5634

> <Gold.PLP.part.hbond>
-4.0000

> <Gold.PLP.part.metal>
0.0000

> <Gold.PLP.part.buried>
-4.5318

> <Gold.PLP.part.nonpolar>
-21.8088

> <Gold.PLP.part.repulsive>
1.5992

> <Gold.PLP.ligand.clash>
0.0000

> <Gold.PLP.ligand.torsion>
0.8305

> <Gold.PLP.Chemscore.Hbond>
4.9360

> <Gold.PLP.Chemscore.CHOScore>
0.0000

> <Gold.PLP.Chemscore.Metal>
0.0000

> <Gold.Chemscore.Hbonds>
donor molecule, donor type, donor heavy atom, donor atom, acceptor molecule, acceptor atom, score
      L1  H     8    44       P1  7948  2.00
      P1  H  6896  6908       L1     2  0.99
      P1  H  7989  7998       L1    21  0.96
      P1  H 10752 10765       L1    18  1.00

> <Gold.PLP.Chemscore.Internal.Correction>
0.0297

> <Gold.Rescore>
     Score         DG    S(hbond)    S(metal)    S(lipo)     H(rot)  DE(clash)    DE(int)     intcor
     16.19     -17.38       3.60        0.00      44.20       2.07       0.18       1.01       ----

> <Gold.Chemscore.Fitness>
16.1934

> <Gold.Chemscore.DG>
-17.3801

> <Gold.Chemscore.ZeroCoef>
-5.4800

> <Gold.Chemscore.Hbond>
3.6006

> <Gold.Chemscore.Metal>
0.0000

> <Gold.Chemscore.Lipo>
44.2032

> <Gold.Chemscore.Internal_Hbond>
0.0000

> <Gold.Chemscore.DEClash>
0.1765

> <Gold.Chemscore.DEInternal>
1.0103

> <Gold.Chemscore.Rot>
2.0693

> <Gold.Chemscore.Internal.Correction>
   9.000000E+99

> <Gold.Chemscore.Hbonds>
donor molecule, donor type, donor heavy atom, donor atom, acceptor molecule, acceptor atom, score
      L1  H     8    44       P1  7948  0.99
      P1  H  6896  6908       L1     2  0.23
      P1  H  7989  7998       L1    21  0.56
      P1  H 10752 10765       L1    18  0.97

> <Gold.Chemscore.Hbond.Weighted>
-12.0259

> <Gold.Chemscore.Metal.Weighted>
-0.0000

> <Gold.Chemscore.Lipo.Weighted>
-5.1718

> <Gold.Chemscore.Internal_Hbond.Weighted>
0.0000

> <Gold.Chemscore.DEClash.Weighted>
0.1765

> <Gold.Chemscore.DEInternal.Weighted>
1.0103

> <Gold.Chemscore.Rot.Weighted>
5.2975

> <Gold.Chemscore.Internal.Correction.Weighted>
   9.000000E+99

> <Gold.Protein.RotatedTorsions>
[ 6907 6896 6895 6894 ] final   93.35 input  -60.11 | X-H torsion
[ 7974 7965 7964 7962 ] final -103.39 input  175.53 | X-H torsion
[ 8008 7997 7996 7995 ] final  -59.21 input   59.86 | X-H torsion
[ 10167 10162 10161 10158 ] final -128.96 input  -65.29 | X-H torsion
[ 10718 10713 10712 10709 ] final  -86.11 input   66.30 | X-H torsion
[ 10763 10752 10751 10750 ] final -135.60 input  -60.55 | X-H torsion
[ 11005 11000 10999 10996 ] final  157.52 input  -57.11 | X-H torsion

> <Gold.Protein.ActiveResidues>
 VAL166  LYS551  ARG553  GLY616  TRP617  ASP618  TYR619  PRO620  LYS621  CYS622 
 ASP623  PHE694  ASN695  SER759  ASP760  ASP761  ALA762  ILE779  LEU786  VAL792 
 PHE793  MET794  SER795  GLU796  ALA797  LYS798  CYS799  TRP800  GLU811  SER814 

> <Gold.Protein.RotatedAtoms>
  152.5452  134.1362  159.8459 H   0  0  0  0  0  0  0  0  0  0  0  0  # atno 6907 bound_to 6896
  151.1402  133.4969  159.2604 H   0  0  0  0  0  0  0  0  0  0  0  0  # atno 6908 bound_to 6896
  151.1581  135.0270  159.8753 H   0  0  0  0  0  0  0  0  0  0  0  0  # atno 6909 bound_to 6896
  145.2565  140.9255  143.3065 H   0  0  0  0  0  0  0  0  0  0  0  0  # atno 7974 bound_to 7965
  154.4342  140.1067  156.6079 H   0  0  0  0  0  0  0  0  0  0  0  0  # atno 8008 bound_to 7997
  155.5841  140.3491  155.4529 H   0  0  0  0  0  0  0  0  0  0  0  0  # atno 8009 bound_to 7997
  156.0296  140.1257  157.0261 H   0  0  0  0  0  0  0  0  0  0  0  0  # atno 8010 bound_to 7997
  139.9448  143.6122  152.2493 H   0  0  0  0  0  0  0  0  0  0  0  0  # atno 10167 bound_to 10162
  155.9992  130.4753  150.4664 H   0  0  0  0  0  0  0  0  0  0  0  0  # atno 10718 bound_to 10713
  154.8700  135.3698  154.4924 H   0  0  0  0  0  0  0  0  0  0  0  0  # atno 10763 bound_to 10752
  153.5570  135.7023  153.5570 H   0  0  0  0  0  0  0  0  0  0  0  0  # atno 10764 bound_to 10752
  153.3663  135.4033  155.1719 H   0  0  0  0  0  0  0  0  0  0  0  0  # atno 10765 bound_to 10752
  140.1777  134.8498  157.2766 H   0  0  0  0  0  0  0  0  0  0  0  0  # atno 11005 bound_to 11000
  144.9456  139.4140  143.6427 LP  0  0  0  0  0  0  0  0  0  0  0  0  # atno 17320 bound_to 7965
  146.3287  139.8438  142.8885 LP  0  0  0  0  0  0  0  0  0  0  0  0  # atno 17321 bound_to 7965
  139.6675  144.7662  151.1845 LP  0  0  0  0  0  0  0  0  0  0  0  0  # atno 17342 bound_to 10162
  140.7600  143.5915  150.8791 LP  0  0  0  0  0  0  0  0  0  0  0  0  # atno 17343 bound_to 10162
  157.2683  131.0581  151.2276 LP  0  0  0  0  0  0  0  0  0  0  0  0  # atno 17370 bound_to 10713
  157.3365  130.7012  149.6356 LP  0  0  0  0  0  0  0  0  0  0  0  0  # atno 17371 bound_to 10713
  140.2303  134.3916  155.7524 LP  0  0  0  0  0  0  0  0  0  0  0  0  # atno 17394 bound_to 11000
  141.2221  133.7212  156.8631 LP  0  0  0  0  0  0  0  0  0  0  0  0  # atno 17395 bound_to 11000

$$$$
