AV-unprocessed.smi:658|AV-procd|sdf|3231|dock3
  -GOLD-   22720 0173D 1   1.00000     0.00000
 Structure written by MMmdl.
 38 38  0  0  0  0  0  0  0  0  2 V2000
  149.2239  141.4180  154.7772 C   0  0  0  0  0  0  0  0  0  0  0  0
  150.1055  141.7124  156.0046 C   0  0  1  0  0  0  0  0  0  0  0  0
  149.3490  142.5820  156.9341 N   0  3  0  0  0  0  0  0  0  0  0  0
  148.0825  142.0076  157.4329 C   0  0  0  0  0  0  0  0  0  0  0  0
  147.6320  142.7063  158.7211 C   0  0  0  0  0  0  0  0  0  0  0  0
  146.1389  142.5028  159.0084 C   0  0  0  0  0  0  0  0  0  0  0  0
  145.7150  143.0970  160.6986 S   0  0  0  0  0  0  0  0  0  0  0  0
  145.0390  141.6970  161.4338 N   0  0  0  0  0  0  0  0  0  0  0  0
  146.9633  143.4174  161.4070 O   0  0  0  0  0  0  0  0  0  0  0  0
  144.6484  144.1026  160.5843 O   0  0  0  0  0  0  0  0  0  0  0  0
  150.5873  140.4270  156.7295 C   0  0  2  0  0  0  0  0  0  0  0  0
  151.5460  140.7132  157.9002 C   0  0  0  0  0  0  0  0  0  0  0  0
  151.2079  139.4868  155.8043 N   0  0  0  0  0  0  0  0  0  0  0  0
  150.6126  138.4909  155.0553 C   0  0  0  0  0  0  0  0  0  0  0  0
  151.5996  137.8644  154.3503 C   0  0  0  0  0  0  0  0  0  0  0  0
  152.7822  138.5519  154.7410 C   0  0  0  0  0  0  0  0  0  0  0  0
  152.5448  139.5193  155.6121 N   0  0  0  0  0  0  0  0  0  0  0  0
  149.7683  140.8712  154.0068 H   0  0  0  0  0  0  0  0  0  0  0  0
  148.8693  142.3422  154.3196 H   0  0  0  0  0  0  0  0  0  0  0  0
  148.3497  140.8260  155.0502 H   0  0  0  0  0  0  0  0  0  0  0  0
  150.9808  142.2546  155.6421 H   0  0  0  0  0  0  0  0  0  0  0  0
  149.9367  142.7723  157.7332 H   0  0  0  0  0  0  0  0  0  0  0  0
  147.3097  142.1039  156.6696 H   0  0  0  0  0  0  0  0  0  0  0  0
  148.2228  140.9416  157.6160 H   0  0  0  0  0  0  0  0  0  0  0  0
  148.2160  142.3321  159.5630 H   0  0  0  0  0  0  0  0  0  0  0  0
  147.8426  143.7740  158.6487 H   0  0  0  0  0  0  0  0  0  0  0  0
  145.5260  143.0512  158.2926 H   0  0  0  0  0  0  0  0  0  0  0  0
  145.8701  141.4483  158.9411 H   0  0  0  0  0  0  0  0  0  0  0  0
  144.1630  141.8838  161.9212 H   0  0  0  0  0  0  0  0  0  0  0  0
  145.7179  141.1595  161.9723 H   0  0  0  0  0  0  0  0  0  0  0  0
  149.7081  139.9335  157.1487 H   0  0  0  0  0  0  0  0  0  0  0  0
  151.0570  141.2881  158.6865 H   0  0  0  0  0  0  0  0  0  0  0  0
  152.4224  141.2737  157.5734 H   0  0  0  0  0  0  0  0  0  0  0  0
  151.8960  139.7854  158.3542 H   0  0  0  0  0  0  0  0  0  0  0  0
  149.5479  138.3125  155.0849 H   0  0  0  0  0  0  0  0  0  0  0  0
  151.4935  137.0398  153.6611 H   0  0  0  0  0  0  0  0  0  0  0  0
  153.7987  138.3772  154.4207 H   0  0  0  0  0  0  0  0  0  0  0  0
  149.1538  143.4563  156.4674 H   0  0  0  0  0  0  0  0  0  0  0  0
  1  2  1  0  0  0  0
  1 18  1  0  0  0  0
  1 19  1  0  0  0  0
  1 20  1  0  0  0  0
  2  3  1  0  0  0  0
  2 11  1  0  0  0  0
  2 21  1  0  0  0  0
  3  4  1  0  0  0  0
  3 22  1  0  0  0  0
  3 38  1  0  0  0  0
  4  5  1  0  0  0  0
  4 23  1  0  0  0  0
  4 24  1  0  0  0  0
  5  6  1  0  0  0  0
  5 25  1  0  0  0  0
  5 26  1  0  0  0  0
  6  7  1  0  0  0  0
  6 27  1  0  0  0  0
  6 28  1  0  0  0  0
  7  8  1  0  0  0  0
  7  9  2  0  0  0  0
  7 10  2  0  0  0  0
  8 29  1  0  0  0  0
  8 30  1  0  0  0  0
 11 12  1  0  0  0  0
 11 13  1  0  0  0  0
 11 31  1  0  0  0  0
 12 32  1  0  0  0  0
 12 33  1  0  0  0  0
 12 34  1  0  0  0  0
 13 17  1  0  0  0  0
 13 14  1  0  0  0  0
 14 15  2  0  0  0  0
 14 35  1  0  0  0  0
 15 16  1  0  0  0  0
 15 36  1  0  0  0  0
 16 17  2  0  0  0  0
 16 37  1  0  0  0  0
M  CHG  1   3   1
M  END
> <s_m_source_file>
AV-unprocessed.smi

> <i_m_source_file_index>
658

> <i_lp_mmshare_version>
43012

> <i_f3d_flags>
0

> <s_epik_input>
bjFbY0hdW2NIXVtjSF1uMVtDQEBIXShbQ0gzXSlbQ0BIXShbQ0gzXSlbTkhdW0NIMl1bQ0gyXVtDSDJdUyg9TykoPU8pW05IMl0=

> <s_epik_cmdline>
J2VwaWtfcHl0aG9uJywgJy1waCcsICc3LjAnLCAnLXRuJywgJzgnLCAnLW1hJywgJzIwMCcsICctbWV0YWxfYmluZGluZycsICctaW1hZScsICc8aW5maWxlLm1hZT4nLCAnLW9tYWUnLCAnPG91dGZpbGUubWFlPic=

> <r_lp_tautomer_probability>
1

> <r_epik_Ionization_Penalty>
0.00535781

> <r_epik_Ionization_Penalty_Charging>
0.00511015

> <r_epik_Ionization_Penalty_Neutral>
0.000247661

> <r_epik_State_Penalty>
-0

> <r_epik_Charging_Adjusted_Penalty>
0.00511015

> <i_epik_Tot_Q>
1

> <i_epik_Tot_abs_Q>
1

> <r_epik_Metal_State_Penalty>
0.149106

> <b_epik_Metal_Only>
0

> <s_lp_Force_Field>
OPLS_2005

> <r_lp_Energy>
8.89673

> <b_lp_Chiralities_Consistent>
1

> <s_lp_Variant>
AV-unprocessed.smi:658-2

> <Gold.Version>
5.8.1

> <Gold.Id.Protein>
6NUR|6NUR_protein|mol2

> <Gold.PLP.Fitness>
43.0556

> <Gold.PLP.PLP>
-32.7677

> <Gold.PLP.part.hbond>
-5.0729

> <Gold.PLP.part.metal>
0.0000

> <Gold.PLP.part.buried>
-5.8884

> <Gold.PLP.part.nonpolar>
-23.1505

> <Gold.PLP.part.repulsive>
0.0840

> <Gold.PLP.ligand.clash>
0.0000

> <Gold.PLP.ligand.torsion>
1.0257

> <Gold.PLP.Chemscore.Hbond>
4.0000

> <Gold.PLP.Chemscore.CHOScore>
0.0000

> <Gold.PLP.Chemscore.Metal>
0.0000

> <Gold.Chemscore.Hbonds>
donor molecule, donor type, donor heavy atom, donor atom, acceptor molecule, acceptor atom, score
      L1  H     3    38       P1  8028  1.95
      P1  H  6933  6944       L1     9  1.00
      P1  H  7997  8008       L1    17  1.00

> <Gold.PLP.Chemscore.Internal.Correction>
0.3393

> <Gold.Rescore>
     Score         DG    S(hbond)    S(metal)    S(lipo)     H(rot)  DE(clash)    DE(int)     intcor
     13.01     -14.11       2.92        0.00      58.98       3.13       0.04       1.05       ----

> <Gold.Chemscore.Fitness>
13.0140

> <Gold.Chemscore.DG>
-14.1052

> <Gold.Chemscore.ZeroCoef>
-5.4800

> <Gold.Chemscore.Hbond>
2.9162

> <Gold.Chemscore.Metal>
0.0000

> <Gold.Chemscore.Lipo>
58.9844

> <Gold.Chemscore.Internal_Hbond>
0.0000

> <Gold.Chemscore.DEClash>
0.0402

> <Gold.Chemscore.DEInternal>
1.0510

> <Gold.Chemscore.Rot>
3.1312

> <Gold.Chemscore.Internal.Correction>
   9.000000E+99

> <Gold.Chemscore.Hbonds>
donor molecule, donor type, donor heavy atom, donor atom, acceptor molecule, acceptor atom, score
      L1  H     3    38       P1  8028  0.91
      P1  H  6933  6944       L1     9  0.98
      P1  H  7997  8008       L1    17  0.33

> <Gold.Chemscore.Hbond.Weighted>
-9.7400

> <Gold.Chemscore.Metal.Weighted>
-0.0000

> <Gold.Chemscore.Lipo.Weighted>
-6.9012

> <Gold.Chemscore.Internal_Hbond.Weighted>
0.0000

> <Gold.Chemscore.DEClash.Weighted>
0.0402

> <Gold.Chemscore.DEInternal.Weighted>
1.0510

> <Gold.Chemscore.Rot.Weighted>
8.0160

> <Gold.Chemscore.Internal.Correction.Weighted>
   9.000000E+99

> <Gold.Protein.RotatedTorsions>
[ 6907 6896 6895 6894 ] final  -58.39 input  -60.11 | X-H torsion
[ 7974 7965 7964 7962 ] final  179.92 input  175.53 | X-H torsion
[ 8008 7997 7996 7995 ] final  -23.27 input   59.86 | X-H torsion
[ 10167 10162 10161 10158 ] final  -13.99 input  -65.29 | X-H torsion
[ 10718 10713 10712 10709 ] final    9.78 input   66.30 | X-H torsion
[ 10763 10752 10751 10750 ] final  -65.88 input  -60.55 | X-H torsion
[ 11005 11000 10999 10996 ] final -146.41 input  -57.11 | X-H torsion

> <Gold.Protein.ActiveResidues>
 VAL166  LYS551  ARG553  GLY616  TRP617  ASP618  TYR619  PRO620  LYS621  CYS622 
 ASP623  PHE694  ASN695  SER759  ASP760  ASP761  ALA762  ILE779  LEU786  VAL792 
 PHE793  MET794  SER795  GLU796  ALA797  LYS798  CYS799  TRP800  GLU811  SER814 

> <Gold.Protein.RotatedAtoms>
  150.8011  134.7104  159.6600 H   0  0  0  0  0  0  0  0  0  0  0  0  # atno 6907 bound_to 6896
  152.4127  134.6092  160.0031 H   0  0  0  0  0  0  0  0  0  0  0  0  # atno 6908 bound_to 6896
  151.6330  133.3294  159.3149 H   0  0  0  0  0  0  0  0  0  0  0  0  # atno 6909 bound_to 6896
  144.7141  140.0620  143.6432 H   0  0  0  0  0  0  0  0  0  0  0  0  # atno 7974 bound_to 7965
  154.4595  140.1985  156.0285 H   0  0  0  0  0  0  0  0  0  0  0  0  # atno 8008 bound_to 7997
  156.0812  140.3271  155.7668 H   0  0  0  0  0  0  0  0  0  0  0  0  # atno 8009 bound_to 7997
  155.5108  140.0561  157.2914 H   0  0  0  0  0  0  0  0  0  0  0  0  # atno 8010 bound_to 7997
  140.7193  143.5368  150.9455 H   0  0  0  0  0  0  0  0  0  0  0  0  # atno 10167 bound_to 10162
  156.9713  130.5970  149.5669 H   0  0  0  0  0  0  0  0  0  0  0  0  # atno 10718 bound_to 10713
  154.3516  135.6135  153.5645 H   0  0  0  0  0  0  0  0  0  0  0  0  # atno 10763 bound_to 10752
  152.9798  135.5793  154.4737 H   0  0  0  0  0  0  0  0  0  0  0  0  # atno 10764 bound_to 10752
  154.4459  135.2851  155.1792 H   0  0  0  0  0  0  0  0  0  0  0  0  # atno 10765 bound_to 10752
  140.7823  134.3065  157.5041 H   0  0  0  0  0  0  0  0  0  0  0  0  # atno 11005 bound_to 11000
  145.9856  139.2975  143.1016 LP  0  0  0  0  0  0  0  0  0  0  0  0  # atno 17320 bound_to 7965
  145.8961  140.9273  143.0527 LP  0  0  0  0  0  0  0  0  0  0  0  0  # atno 17321 bound_to 7965
  139.9090  143.6743  152.3118 LP  0  0  0  0  0  0  0  0  0  0  0  0  # atno 17342 bound_to 10162
  139.7120  144.7618  151.1097 LP  0  0  0  0  0  0  0  0  0  0  0  0  # atno 17343 bound_to 10162
  156.0282  130.5374  150.8463 LP  0  0  0  0  0  0  0  0  0  0  0  0  # atno 17370 bound_to 10713
  157.5591  131.0945  150.9586 LP  0  0  0  0  0  0  0  0  0  0  0  0  # atno 17371 bound_to 10713
  139.8741  134.9325  156.3557 LP  0  0  0  0  0  0  0  0  0  0  0  0  # atno 17394 bound_to 11000
  140.9471  133.7476  156.0222 LP  0  0  0  0  0  0  0  0  0  0  0  0  # atno 17395 bound_to 11000

$$$$
