AV-unprocessed.smi:686|AV-procd|sdf|3352|dock10
  -GOLD-   22720 0323D 1   1.00000     0.00000
 Structure written by MMmdl.
 40 41  0  0  0  0  0  0  0  0  3 V2000
  147.8678  140.3205  153.8267 C   0  0  0  0  0  0  0  0  0  0  0  0
  148.7007  139.3280  154.6614 C   0  0  1  0  0  0  0  0  0  0  0  0
  148.1564  137.8893  154.6190 C   0  0  0  0  0  0  0  0  0  0  0  0
  149.3265  136.9747  154.5845 N   0  3  2  0  0  0  0  0  0  0  0  0
  149.2157  135.7604  155.4417 C   0  0  0  0  0  0  0  0  0  0  0  0
  150.4326  134.8307  155.2718 C   0  0  0  0  0  0  0  0  0  0  0  0
  147.9248  134.9787  155.1329 C   0  0  0  0  0  0  0  0  0  0  0  0
  150.5281  137.8066  154.8082 C   0  0  0  0  0  0  0  0  0  0  0  0
  150.1705  139.1808  154.2408 C   0  0  2  0  0  0  0  0  0  0  0  0
  150.9925  140.2395  154.8075 N   0  5  0  0  0  0  0  0  0  0  0  0
  151.0622  140.4391  156.4167 S   0  0  0  0  0  0  0  0  0  0  0  0
  149.9104  139.8388  157.1103 O   0  0  0  0  0  0  0  0  0  0  0  0
  152.3993  140.1381  156.9526 O   0  0  0  0  0  0  0  0  0  0  0  0
  150.8633  142.2700  156.5498 C   0  0  0  0  0  0  0  0  0  0  0  0
  151.1637  142.7338  157.9495 C   0  0  0  0  0  0  0  0  0  0  0  0
  152.0363  143.7774  158.3664 C   0  0  0  0  0  0  0  0  0  0  0  0
  151.9271  143.7617  159.7267 C   0  0  0  0  0  0  0  0  0  0  0  0
  151.0683  142.7890  160.1229 O   0  0  0  0  0  0  0  0  0  0  0  0
  150.5891  142.1354  158.9818 N   0  0  0  0  0  0  0  0  0  0  0  0
  147.8260  140.0407  152.7724 H   0  0  0  0  0  0  0  0  0  0  0  0
  148.2645  141.3355  153.8876 H   0  0  0  0  0  0  0  0  0  0  0  0
  146.8412  140.3571  154.1920 H   0  0  0  0  0  0  0  0  0  0  0  0
  148.6704  139.6521  155.7038 H   0  0  0  0  0  0  0  0  0  0  0  0
  147.5247  137.7124  155.4910 H   0  0  0  0  0  0  0  0  0  0  0  0
  147.5462  137.7068  153.7327 H   0  0  0  0  0  0  0  0  0  0  0  0
  149.1812  136.0837  156.4834 H   0  0  0  0  0  0  0  0  0  0  0  0
  150.3163  133.9228  155.8644 H   0  0  0  0  0  0  0  0  0  0  0  0
  151.3583  135.3034  155.6005 H   0  0  0  0  0  0  0  0  0  0  0  0
  150.5605  134.5309  154.2309 H   0  0  0  0  0  0  0  0  0  0  0  0
  147.8591  134.0776  155.7435 H   0  0  0  0  0  0  0  0  0  0  0  0
  147.8894  134.6717  154.0871 H   0  0  0  0  0  0  0  0  0  0  0  0
  147.0290  135.5646  155.3379 H   0  0  0  0  0  0  0  0  0  0  0  0
  150.7304  137.8748  155.8793 H   0  0  0  0  0  0  0  0  0  0  0  0
  151.4042  137.3778  154.3208 H   0  0  0  0  0  0  0  0  0  0  0  0
  150.2282  139.1417  153.1520 H   0  0  0  0  0  0  0  0  0  0  0  0
  151.5482  142.7282  155.8362 H   0  0  0  0  0  0  0  0  0  0  0  0
  149.8512  142.5360  156.2460 H   0  0  0  0  0  0  0  0  0  0  0  0
  152.6404  144.4362  157.7603 H   0  0  0  0  0  0  0  0  0  0  0  0
  152.3754  144.3492  160.5143 H   0  0  0  0  0  0  0  0  0  0  0  0
  149.3970  136.6568  153.6285 H   0  0  0  0  0  0  0  0  0  0  0  0
  1  2  1  0  0  0  0
  1 20  1  0  0  0  0
  1 21  1  0  0  0  0
  1 22  1  0  0  0  0
  2  9  1  0  0  0  0
  2  3  1  0  0  0  0
  2 23  1  0  0  0  0
  3  4  1  0  0  0  0
  3 24  1  0  0  0  0
  3 25  1  0  0  0  0
  4  5  1  0  0  0  0
  4  8  1  0  0  0  0
  4 40  1  0  0  0  0
  5  6  1  0  0  0  0
  5  7  1  0  0  0  0
  5 26  1  0  0  0  0
  6 27  1  0  0  0  0
  6 28  1  0  0  0  0
  6 29  1  0  0  0  0
  7 30  1  0  0  0  0
  7 31  1  0  0  0  0
  7 32  1  0  0  0  0
  8  9  1  0  0  0  0
  8 33  1  0  0  0  0
  8 34  1  0  0  0  0
  9 10  1  0  0  0  0
  9 35  1  0  0  0  0
 10 11  1  0  0  0  0
 11 12  2  0  0  0  0
 11 13  2  0  0  0  0
 11 14  1  0  0  0  0
 14 15  1  0  0  0  0
 14 36  1  0  0  0  0
 14 37  1  0  0  0  0
 15 19  2  0  0  0  0
 15 16  1  0  0  0  0
 16 17  2  0  0  0  0
 16 38  1  0  0  0  0
 17 18  1  0  0  0  0
 17 39  1  0  0  0  0
 18 19  1  0  0  0  0
M  CHG  1   4   1
M  CHG  1  10  -1
M  END
> <s_m_source_file>
AV-unprocessed.smi

> <i_m_source_file_index>
686

> <i_lp_mmshare_version>
43012

> <i_f3d_flags>
0

> <s_epik_input>
W0NIM11bQ0BASF0xW0NIMl1OKFtDSF0oW0NIM10pW0NIM10pW0NIMl1bQ0BIXTFbTkhdUyg9TykoPU8pW0NIMl1jMltjSF1bY0hdb24y

> <s_epik_cmdline>
J2VwaWtfcHl0aG9uJywgJy1waCcsICc3LjAnLCAnLXRuJywgJzgnLCAnLW1hJywgJzIwMCcsICctbWV0YWxfYmluZGluZycsICctaW1hZScsICc8aW5maWxlLm1hZT4nLCAnLW9tYWUnLCAnPG91dGZpbGUubWFlPic=

> <r_epik_Ionization_Penalty>
3.62478

> <r_epik_Ionization_Penalty_Charging>
3.62478

> <r_epik_Ionization_Penalty_Neutral>
2.03645e-10

> <r_epik_State_Penalty>
3.6247

> <r_epik_Charging_Adjusted_Penalty>
7.24949

> <i_epik_Tot_Q>
0

> <i_epik_Tot_abs_Q>
2

> <r_epik_Metal_State_Penalty>
0.530836

> <b_epik_Metal_Only>
1

> <s_lp_Force_Field>
OPLS_2005

> <r_lp_Energy>
17.1192

> <b_lp_Chiralities_Consistent>
1

> <s_lp_Variant>
AV-unprocessed.smi:686-16

> <Gold.Version>
5.8.1

> <Gold.Id.Protein>
6NUR|6NUR_protein|mol2

> <Gold.PLP.Fitness>
44.3968

> <Gold.PLP.PLP>
-33.0229

> <Gold.PLP.part.hbond>
-4.1544

> <Gold.PLP.part.metal>
0.0000

> <Gold.PLP.part.buried>
-3.0996

> <Gold.PLP.part.nonpolar>
-25.1361

> <Gold.PLP.part.repulsive>
0.1208

> <Gold.PLP.ligand.clash>
0.0000

> <Gold.PLP.ligand.torsion>
0.8332

> <Gold.PLP.Chemscore.Hbond>
4.0000

> <Gold.PLP.Chemscore.CHOScore>
0.0000

> <Gold.PLP.Chemscore.Metal>
0.0000

> <Gold.Chemscore.Hbonds>
donor molecule, donor type, donor heavy atom, donor atom, acceptor molecule, acceptor atom, score
      L1  H     4    40       P1  7948  2.00
      P1  H  7989  7998       L1    10  1.00
      P1  H  7997  8010       L1    13  1.00

> <Gold.PLP.Chemscore.Internal.Correction>
1.0402

> <Gold.Rescore>
     Score         DG    S(hbond)    S(metal)    S(lipo)     H(rot)  DE(clash)    DE(int)     intcor
     16.21     -19.64       2.59        0.00      82.34       1.61       0.05       3.38       ----

> <Gold.Chemscore.Fitness>
16.2131

> <Gold.Chemscore.DG>
-19.6429

> <Gold.Chemscore.ZeroCoef>
-5.4800

> <Gold.Chemscore.Hbond>
2.5939

> <Gold.Chemscore.Metal>
0.0000

> <Gold.Chemscore.Lipo>
82.3367

> <Gold.Chemscore.Internal_Hbond>
0.0000

> <Gold.Chemscore.DEClash>
0.0505

> <Gold.Chemscore.DEInternal>
3.3792

> <Gold.Chemscore.Rot>
1.6149

> <Gold.Chemscore.Internal.Correction>
   9.000000E+99

> <Gold.Chemscore.Hbonds>
donor molecule, donor type, donor heavy atom, donor atom, acceptor molecule, acceptor atom, score
      L1  H     4    40       P1  7948  0.88
      P1  H  7989  7998       L1    10  0.34
      P1  H  7997  8010       L1    13  0.94

> <Gold.Chemscore.Hbond.Weighted>
-8.6636

> <Gold.Chemscore.Metal.Weighted>
-0.0000

> <Gold.Chemscore.Lipo.Weighted>
-9.6334

> <Gold.Chemscore.Internal_Hbond.Weighted>
0.0000

> <Gold.Chemscore.DEClash.Weighted>
0.0505

> <Gold.Chemscore.DEInternal.Weighted>
3.3792

> <Gold.Chemscore.Rot.Weighted>
4.1341

> <Gold.Chemscore.Internal.Correction.Weighted>
   9.000000E+99

> <Gold.Protein.RotatedTorsions>
[ 6907 6896 6895 6894 ] final   81.63 input  -60.11 | X-H torsion
[ 7974 7965 7964 7962 ] final   52.62 input  175.53 | X-H torsion
[ 8008 7997 7996 7995 ] final   59.77 input   59.86 | X-H torsion
[ 10167 10162 10161 10158 ] final  -77.78 input  -65.29 | X-H torsion
[ 10718 10713 10712 10709 ] final  -86.73 input   66.30 | X-H torsion
[ 10763 10752 10751 10750 ] final  174.65 input  -60.55 | X-H torsion
[ 11005 11000 10999 10996 ] final  -21.59 input  -57.11 | X-H torsion

> <Gold.Protein.ActiveResidues>
 VAL166  LYS551  ARG553  GLY616  TRP617  ASP618  TYR619  PRO620  LYS621  CYS622 
 ASP623  PHE694  ASN695  SER759  ASP760  ASP761  ALA762  ILE779  LEU786  VAL792 
 PHE793  MET794  SER795  GLU796  ALA797  LYS798  CYS799  TRP800  GLU811  SER814 

> <Gold.Protein.RotatedAtoms>
  152.5274  134.3173  159.9135 H   0  0  0  0  0  0  0  0  0  0  0  0  # atno 6907 bound_to 6896
  151.3123  133.4069  159.2655 H   0  0  0  0  0  0  0  0  0  0  0  0  # atno 6908 bound_to 6896
  151.0028  134.9352  159.8021 H   0  0  0  0  0  0  0  0  0  0  0  0  # atno 6909 bound_to 6896
  145.9795  139.4228  143.0141 H   0  0  0  0  0  0  0  0  0  0  0  0  # atno 7974 bound_to 7965
  155.5715  140.3490  155.4516 H   0  0  0  0  0  0  0  0  0  0  0  0  # atno 8008 bound_to 7997
  156.0441  140.1302  157.0149 H   0  0  0  0  0  0  0  0  0  0  0  0  # atno 8009 bound_to 7997
  154.4404  140.1018  156.6265 H   0  0  0  0  0  0  0  0  0  0  0  0  # atno 8010 bound_to 7997
  140.4740  143.2419  151.8161 H   0  0  0  0  0  0  0  0  0  0  0  0  # atno 10167 bound_to 10162
  155.9988  130.4775  150.4759 H   0  0  0  0  0  0  0  0  0  0  0  0  # atno 10718 bound_to 10713
  154.4569  135.2766  155.1741 H   0  0  0  0  0  0  0  0  0  0  0  0  # atno 10763 bound_to 10752
  154.3545  135.6143  153.5663 H   0  0  0  0  0  0  0  0  0  0  0  0  # atno 10764 bound_to 10752
  152.9851  135.5819  154.4924 H   0  0  0  0  0  0  0  0  0  0  0  0  # atno 10765 bound_to 10752
  140.8576  133.7811  156.0037 H   0  0  0  0  0  0  0  0  0  0  0  0  # atno 11005 bound_to 11000
  145.7790  140.9864  143.1109 LP  0  0  0  0  0  0  0  0  0  0  0  0  # atno 17320 bound_to 7965
  144.6857  139.9541  143.7478 LP  0  0  0  0  0  0  0  0  0  0  0  0  # atno 17321 bound_to 7965
  139.4823  144.4856  151.9251 LP  0  0  0  0  0  0  0  0  0  0  0  0  # atno 17342 bound_to 10162
  140.3941  144.2577  150.5897 LP  0  0  0  0  0  0  0  0  0  0  0  0  # atno 17343 bound_to 10162
  157.2769  131.0599  151.2223 LP  0  0  0  0  0  0  0  0  0  0  0  0  # atno 17370 bound_to 10713
  157.3283  130.6972  149.6309 LP  0  0  0  0  0  0  0  0  0  0  0  0  # atno 17371 bound_to 10713
  140.8720  134.2715  157.5186 LP  0  0  0  0  0  0  0  0  0  0  0  0  # atno 17394 bound_to 11000
  139.8706  134.9572  156.4260 LP  0  0  0  0  0  0  0  0  0  0  0  0  # atno 17395 bound_to 11000

$$$$
