AV-unprocessed.smi:1947|AV-procd|sdf|7869|dock4
  -GOLD-   2272010 23D 1   1.00000     0.00000
 Structure written by MMmdl.
 38 39  0  0  0  0  0  0  0  0  2 V2000
  150.5126  142.0873  156.3844 C   0  0  0  0  0  0  0  0  0  0  0  0
  150.9366  142.5866  157.7757 C   0  0  2  0  0  0  0  0  0  0  0  0
  151.6498  143.9494  157.6705 C   0  0  0  0  0  0  0  0  0  0  0  0
  152.0907  144.4696  159.0468 C   0  0  0  0  0  0  0  0  0  0  0  0
  152.9836  143.4467  159.7623 C   0  0  0  0  0  0  0  0  0  0  0  0
  152.2780  142.0881  159.8840 C   0  0  0  0  0  0  0  0  0  0  0  0
  151.8292  141.5570  158.5057 C   0  0  1  0  0  0  0  0  0  0  0  0
  151.0682  140.3665  158.6665 O   0  0  0  0  0  0  0  0  0  0  0  0
  151.5890  139.2291  157.9934 C   0  0  0  0  0  0  0  0  0  0  0  0
  150.4833  138.1743  157.8830 C   0  0  0  0  0  0  0  0  0  0  0  0
  149.7499  138.0725  159.1378 N   0  0  0  0  0  0  0  0  0  0  0  0
  148.6902  137.2825  159.3528 C   0  0  0  0  0  0  0  0  0  0  0  0
  148.2636  136.5674  158.4433 O   0  0  0  0  0  0  0  0  0  0  0  0
  148.1921  137.3688  160.6074 N   0  5  0  0  0  0  0  0  0  0  0  0
  147.8131  136.2566  161.2583 C   0  0  0  0  0  0  0  0  0  0  0  0
  147.4900  135.1224  160.6159 N   0  0  0  0  0  0  0  0  0  0  0  0
  147.1198  134.0953  161.4736 N   0  0  0  0  0  0  0  0  0  0  0  0
  147.1652  134.4859  162.7470 C   0  0  0  0  0  0  0  0  0  0  0  0
  147.6619  136.1437  163.0141 S   0  0  0  0  0  0  0  0  0  0  0  0
  151.3790  141.9005  155.7493 H   0  0  0  0  0  0  0  0  0  0  0  0
  149.8819  142.8194  155.8798 H   0  0  0  0  0  0  0  0  0  0  0  0
  149.9441  141.1591  156.4507 H   0  0  0  0  0  0  0  0  0  0  0  0
  150.0303  142.7291  158.3662 H   0  0  0  0  0  0  0  0  0  0  0  0
  152.5220  143.8593  157.0213 H   0  0  0  0  0  0  0  0  0  0  0  0
  150.9903  144.6795  157.2000 H   0  0  0  0  0  0  0  0  0  0  0  0
  152.6238  145.4142  158.9346 H   0  0  0  0  0  0  0  0  0  0  0  0
  151.2119  144.6804  159.6576 H   0  0  0  0  0  0  0  0  0  0  0  0
  153.9167  143.3260  159.2109 H   0  0  0  0  0  0  0  0  0  0  0  0
  153.2535  143.8164  160.7518 H   0  0  0  0  0  0  0  0  0  0  0  0
  152.9496  141.3797  160.3682 H   0  0  0  0  0  0  0  0  0  0  0  0
  151.4102  142.1867  160.5375 H   0  0  0  0  0  0  0  0  0  0  0  0
  152.7061  141.3617  157.8854 H   0  0  0  0  0  0  0  0  0  0  0  0
  151.9480  139.4958  156.9979 H   0  0  0  0  0  0  0  0  0  0  0  0
  152.4331  138.8184  158.5471 H   0  0  0  0  0  0  0  0  0  0  0  0
  149.7897  138.4499  157.0874 H   0  0  0  0  0  0  0  0  0  0  0  0
  150.9103  137.2054  157.6199 H   0  0  0  0  0  0  0  0  0  0  0  0
  150.0749  138.6399  159.9068 H   0  0  0  0  0  0  0  0  0  0  0  0
  146.9009  133.7951  163.5335 H   0  0  0  0  0  0  0  0  0  0  0  0
  1  2  1  0  0  0  0
  1 20  1  0  0  0  0
  1 21  1  0  0  0  0
  1 22  1  0  0  0  0
  2  7  1  0  0  0  0
  2  3  1  0  0  0  0
  2 23  1  0  0  0  0
  3  4  1  0  0  0  0
  3 24  1  0  0  0  0
  3 25  1  0  0  0  0
  4  5  1  0  0  0  0
  4 26  1  0  0  0  0
  4 27  1  0  0  0  0
  5  6  1  0  0  0  0
  5 28  1  0  0  0  0
  5 29  1  0  0  0  0
  6  7  1  0  0  0  0
  6 30  1  0  0  0  0
  6 31  1  0  0  0  0
  7  8  1  0  0  0  0
  7 32  1  0  0  0  0
  8  9  1  0  0  0  0
  9 10  1  0  0  0  0
  9 33  1  0  0  0  0
  9 34  1  0  0  0  0
 10 11  1  0  0  0  0
 10 35  1  0  0  0  0
 10 36  1  0  0  0  0
 11 12  1  0  0  0  0
 11 37  1  0  0  0  0
 12 13  2  0  0  0  0
 12 14  1  0  0  0  0
 14 15  1  0  0  0  0
 15 19  1  0  0  0  0
 15 16  2  0  0  0  0
 16 17  1  0  0  0  0
 17 18  2  0  0  0  0
 18 19  1  0  0  0  0
 18 38  1  0  0  0  0
M  CHG  1  14  -1
M  END
> <s_m_source_file>
AV-unprocessed.smi

> <i_m_source_file_index>
1947

> <i_lp_mmshare_version>
43012

> <i_f3d_flags>
0

> <s_epik_input>
W0NIM11bQ0BASF0xW0NIMl1bQ0gyXVtDSDJdW0NIMl1bQ0BIXTFPW0NIMl1bQ0gyXVtOSF1DKD1PKVtOSF1jMm5uW2NIXXMy

> <s_epik_cmdline>
J2VwaWtfcHl0aG9uJywgJy1waCcsICc3LjAnLCAnLXRuJywgJzgnLCAnLW1hJywgJzIwMCcsICctbWV0YWxfYmluZGluZycsICctaW1hZScsICc8aW5maWxlLm1hZT4nLCAnLW9tYWUnLCAnPG91dGZpbGUubWFlPic=

> <r_lp_tautomer_probability>
1

> <r_epik_Ionization_Penalty>
3.35961

> <r_epik_Ionization_Penalty_Charging>
3.31977

> <r_epik_Ionization_Penalty_Neutral>
0.0398394

> <r_epik_State_Penalty>
3.31759

> <r_epik_Charging_Adjusted_Penalty>
6.63736

> <i_epik_Tot_Q>
-1

> <i_epik_Tot_abs_Q>
1

> <r_epik_Metal_State_Penalty>
0.484557

> <b_epik_Metal_Only>
1

> <s_lp_Force_Field>
OPLS_2005

> <r_lp_Energy>
9.33336

> <b_lp_Chiralities_Consistent>
1

> <s_lp_Variant>
AV-unprocessed.smi:1947-5

> <Gold.Version>
5.8.1

> <Gold.Id.Protein>
6NUR|6NUR_protein|mol2

> <Gold.PLP.Fitness>
46.5844

> <Gold.PLP.PLP>
-41.3848

> <Gold.PLP.part.hbond>
-2.0000

> <Gold.PLP.part.metal>
0.0000

> <Gold.PLP.part.buried>
-5.4787

> <Gold.PLP.part.nonpolar>
-35.3115

> <Gold.PLP.part.repulsive>
0.2321

> <Gold.PLP.ligand.clash>
0.0000

> <Gold.PLP.ligand.torsion>
1.3313

> <Gold.PLP.Chemscore.Hbond>
2.6126

> <Gold.PLP.Chemscore.CHOScore>
0.0000

> <Gold.PLP.Chemscore.Metal>
0.0000

> <Gold.Chemscore.Hbonds>
donor molecule, donor type, donor heavy atom, donor atom, acceptor molecule, acceptor atom, score
      P1  H  6931  6943       L1    14  1.44
      P1  H  6934  6947       L1    14  1.25

> <Gold.PLP.Chemscore.Internal.Correction>
0.0246

> <Gold.Rescore>
     Score         DG    S(hbond)    S(metal)    S(lipo)     H(rot)  DE(clash)    DE(int)     intcor
     12.29     -15.06       0.84        0.00      99.36       1.90       0.00       2.77       ----

> <Gold.Chemscore.Fitness>
12.2853

> <Gold.Chemscore.DG>
-15.0619

> <Gold.Chemscore.ZeroCoef>
-5.4800

> <Gold.Chemscore.Hbond>
0.8432

> <Gold.Chemscore.Metal>
0.0000

> <Gold.Chemscore.Lipo>
99.3625

> <Gold.Chemscore.Internal_Hbond>
0.0000

> <Gold.Chemscore.DEClash>
0.0029

> <Gold.Chemscore.DEInternal>
2.7737

> <Gold.Chemscore.Rot>
1.8984

> <Gold.Chemscore.Internal.Correction>
   9.000000E+99

> <Gold.Chemscore.Hbonds>
donor molecule, donor type, donor heavy atom, donor atom, acceptor molecule, acceptor atom, score
      P1  H  6931  6943       L1    14  0.25
      P1  H  6934  6947       L1    14  0.51

> <Gold.Chemscore.Hbond.Weighted>
-2.8163

> <Gold.Chemscore.Metal.Weighted>
-0.0000

> <Gold.Chemscore.Lipo.Weighted>
-11.6254

> <Gold.Chemscore.Internal_Hbond.Weighted>
0.0000

> <Gold.Chemscore.DEClash.Weighted>
0.0029

> <Gold.Chemscore.DEInternal.Weighted>
2.7737

> <Gold.Chemscore.Rot.Weighted>
4.8598

> <Gold.Chemscore.Internal.Correction.Weighted>
   9.000000E+99

> <Gold.Protein.RotatedTorsions>
[ 6907 6896 6895 6894 ] final  151.78 input  -60.11 | X-H torsion
[ 7974 7965 7964 7962 ] final   91.83 input  175.53 | X-H torsion
[ 8008 7997 7996 7995 ] final  170.63 input   59.86 | X-H torsion
[ 10167 10162 10161 10158 ] final  -96.73 input  -65.29 | X-H torsion
[ 10718 10713 10712 10709 ] final  -60.12 input   66.30 | X-H torsion
[ 10763 10752 10751 10750 ] final  -58.45 input  -60.55 | X-H torsion
[ 11005 11000 10999 10996 ] final  -31.29 input  -57.11 | X-H torsion

> <Gold.Protein.ActiveResidues>
 VAL166  LYS551  ARG553  GLY616  TRP617  ASP618  TYR619  PRO620  LYS621  CYS622 
 ASP623  PHE694  ASN695  SER759  ASP760  ASP761  ALA762  ILE779  LEU786  VAL792 
 PHE793  MET794  SER795  GLU796  ALA797  LYS798  CYS799  TRP800  GLU811  SER814 

> <Gold.Protein.RotatedAtoms>
  152.0959  133.4224  159.4564 H   0  0  0  0  0  0  0  0  0  0  0  0  # atno 6907 bound_to 6896
  150.6863  134.2817  159.4639 H   0  0  0  0  0  0  0  0  0  0  0  0  # atno 6908 bound_to 6896
  152.0672  134.9556  160.0625 H   0  0  0  0  0  0  0  0  0  0  0  0  # atno 6909 bound_to 6896
  145.5004  139.2276  143.2780 H   0  0  0  0  0  0  0  0  0  0  0  0  # atno 7974 bound_to 7965
  156.1347  140.1533  156.9012 H   0  0  0  0  0  0  0  0  0  0  0  0  # atno 8008 bound_to 7997
  154.4938  140.0844  156.7691 H   0  0  0  0  0  0  0  0  0  0  0  0  # atno 8009 bound_to 7997
  155.4190  140.3422  155.4272 H   0  0  0  0  0  0  0  0  0  0  0  0  # atno 8010 bound_to 7997
  140.2908  143.3223  152.0348 H   0  0  0  0  0  0  0  0  0  0  0  0  # atno 10167 bound_to 10162
  156.1013  130.4186  150.0810 H   0  0  0  0  0  0  0  0  0  0  0  0  # atno 10718 bound_to 10713
  154.2383  135.6348  153.5198 H   0  0  0  0  0  0  0  0  0  0  0  0  # atno 10763 bound_to 10752
  152.9935  135.5536  154.5938 H   0  0  0  0  0  0  0  0  0  0  0  0  # atno 10764 bound_to 10752
  154.5438  135.2896  155.1046 H   0  0  0  0  0  0  0  0  0  0  0  0  # atno 10765 bound_to 10752
  140.9455  133.7252  156.1141 H   0  0  0  0  0  0  0  0  0  0  0  0  # atno 11005 bound_to 11000
  146.2229  140.5804  142.9009 LP  0  0  0  0  0  0  0  0  0  0  0  0  # atno 17320 bound_to 7965
  144.7783  140.5787  143.6623 LP  0  0  0  0  0  0  0  0  0  0  0  0  # atno 17321 bound_to 7965
  139.4938  144.6526  151.6642 LP  0  0  0  0  0  0  0  0  0  0  0  0  # atno 17342 bound_to 10162
  140.5734  144.0070  150.6228 LP  0  0  0  0  0  0  0  0  0  0  0  0  # atno 17343 bound_to 10162
  156.8797  130.9552  151.3601 LP  0  0  0  0  0  0  0  0  0  0  0  0  # atno 17370 bound_to 10713
  157.6183  130.8635  149.9066 LP  0  0  0  0  0  0  0  0  0  0  0  0  # atno 17371 bound_to 10713
  140.7674  134.3870  157.5514 LP  0  0  0  0  0  0  0  0  0  0  0  0  # atno 17394 bound_to 11000
  139.8832  134.9000  156.2780 LP  0  0  0  0  0  0  0  0  0  0  0  0  # atno 17395 bound_to 11000

$$$$
