AV-unprocessed.smi:1643|AV-procd|sdf|6582|dock5
  -GOLD-   22720 7273D 1   1.00000     0.00000
 Structure written by MMmdl.
 54 56  0  0  0  0  0  0  0  0  2 V2000
  147.4859  134.0615  153.9808 C   0  0  0  0  0  0  0  0  0  0  0  0
  147.3967  134.4215  155.4661 C   0  0  0  0  0  0  0  0  0  0  0  0
  146.3322  134.8684  155.8941 O   0  0  0  0  0  0  0  0  0  0  0  0
  148.4840  134.2428  156.2540 N   0  0  0  0  0  0  0  0  0  0  0  0
  148.4932  134.6187  157.6722 C   0  0  0  0  0  0  0  0  0  0  0  0
  148.9924  136.0628  157.8409 C   0  0  0  0  0  0  0  0  0  0  0  0
  150.3785  136.3417  157.2223 C   0  0  0  0  0  0  0  0  0  0  0  0
  150.3952  136.2899  155.7532 N   0  0  0  0  0  0  0  0  0  0  0  0
  151.3510  137.2341  155.1695 C   0  0  0  0  0  0  0  0  0  0  0  0
  150.9528  138.7198  155.2803 C   0  0  2  0  0  0  0  0  0  0  0  0
  151.2825  139.3638  154.0652 O   0  0  0  0  0  0  0  0  0  0  0  0
  151.6959  139.4210  156.4328 C   0  0  0  0  0  0  0  0  0  0  0  0
  151.2194  140.7909  156.6609 N   0  0  0  0  0  0  0  0  0  0  0  0
  150.4165  141.5777  155.8947 C   0  0  0  0  0  0  0  0  0  0  0  0
  150.2630  142.7640  156.5462 N   0  3  0  0  0  0  0  0  0  0  0  0
  150.9789  142.7330  157.7454 C   0  0  0  0  0  0  0  0  0  0  0  0
  151.1329  143.6907  158.7408 C   0  0  0  0  0  0  0  0  0  0  0  0
  151.9360  143.3437  159.8509 C   0  0  0  0  0  0  0  0  0  0  0  0
  152.1286  144.3694  160.9549 C   0  0  0  0  0  0  0  0  0  0  0  0
  152.5497  142.0669  159.9382 C   0  0  0  0  0  0  0  0  0  0  0  0
  153.4073  141.7029  161.1383 C   0  0  0  0  0  0  0  0  0  0  0  0
  152.3811  141.1068  158.9150 C   0  0  0  0  0  0  0  0  0  0  0  0
  151.5916  141.4676  157.8262 C   0  0  0  0  0  0  0  0  0  0  0  0
  150.6754  134.9360  155.2500 C   0  0  0  0  0  0  0  0  0  0  0  0
  149.7900  133.7813  155.7709 C   0  0  0  0  0  0  0  0  0  0  0  0
  148.2994  134.6005  153.4955 H   0  0  0  0  0  0  0  0  0  0  0  0
  146.5614  134.3259  153.4664 H   0  0  0  0  0  0  0  0  0  0  0  0
  147.6437  132.9906  153.8515 H   0  0  0  0  0  0  0  0  0  0  0  0
  147.5002  134.5173  158.1130 H   0  0  0  0  0  0  0  0  0  0  0  0
  149.1241  133.9414  158.2490 H   0  0  0  0  0  0  0  0  0  0  0  0
  148.2641  136.7532  157.4134 H   0  0  0  0  0  0  0  0  0  0  0  0
  149.0292  136.2934  158.9060 H   0  0  0  0  0  0  0  0  0  0  0  0
  150.6774  137.3288  157.5694 H   0  0  0  0  0  0  0  0  0  0  0  0
  151.1262  135.6625  157.6345 H   0  0  0  0  0  0  0  0  0  0  0  0
  152.3271  137.0820  155.6327 H   0  0  0  0  0  0  0  0  0  0  0  0
  151.4905  137.0087  154.1108 H   0  0  0  0  0  0  0  0  0  0  0  0
  149.8809  138.8287  155.4384 H   0  0  0  0  0  0  0  0  0  0  0  0
  150.9295  138.8511  153.3534 H   0  0  0  0  0  0  0  0  0  0  0  0
  151.5946  138.8605  157.3630 H   0  0  0  0  0  0  0  0  0  0  0  0
  152.7646  139.4757  156.2206 H   0  0  0  0  0  0  0  0  0  0  0  0
  149.9768  141.3070  154.9454 H   0  0  0  0  0  0  0  0  0  0  0  0
  150.6599  144.6592  158.6692 H   0  0  0  0  0  0  0  0  0  0  0  0
  153.1880  144.5795  161.1038 H   0  0  0  0  0  0  0  0  0  0  0  0
  151.7117  144.0032  161.8933 H   0  0  0  0  0  0  0  0  0  0  0  0
  151.6340  145.3110  160.7153 H   0  0  0  0  0  0  0  0  0  0  0  0
  153.7580  140.6720  161.0804 H   0  0  0  0  0  0  0  0  0  0  0  0
  152.8395  141.8083  162.0631 H   0  0  0  0  0  0  0  0  0  0  0  0
  154.2823  142.3510  161.1924 H   0  0  0  0  0  0  0  0  0  0  0  0
  152.8472  140.1347  158.9801 H   0  0  0  0  0  0  0  0  0  0  0  0
  150.5793  134.9540  154.1638 H   0  0  0  0  0  0  0  0  0  0  0  0
  151.7191  134.6814  155.4409 H   0  0  0  0  0  0  0  0  0  0  0  0
  150.3223  133.2779  156.5784 H   0  0  0  0  0  0  0  0  0  0  0  0
  149.6875  133.0116  155.0056 H   0  0  0  0  0  0  0  0  0  0  0  0
  149.7080  143.5346  156.1965 H   0  0  0  0  0  0  0  0  0  0  0  0
  1  2  1  0  0  0  0
  1 26  1  0  0  0  0
  1 27  1  0  0  0  0
  1 28  1  0  0  0  0
  2  3  2  0  0  0  0
  2  4  1  0  0  0  0
  4 25  1  0  0  0  0
  4  5  1  0  0  0  0
  5  6  1  0  0  0  0
  5 29  1  0  0  0  0
  5 30  1  0  0  0  0
  6  7  1  0  0  0  0
  6 31  1  0  0  0  0
  6 32  1  0  0  0  0
  7  8  1  0  0  0  0
  7 33  1  0  0  0  0
  7 34  1  0  0  0  0
  8  9  1  0  0  0  0
  8 24  1  0  0  0  0
  9 10  1  0  0  0  0
  9 35  1  0  0  0  0
  9 36  1  0  0  0  0
 10 11  1  0  0  0  0
 10 12  1  0  0  0  0
 10 37  1  0  0  0  0
 11 38  1  0  0  0  0
 12 13  1  0  0  0  0
 12 39  1  0  0  0  0
 12 40  1  0  0  0  0
 13 23  1  0  0  0  0
 13 14  1  0  0  0  0
 14 15  2  0  0  0  0
 14 41  1  0  0  0  0
 15 16  1  0  0  0  0
 15 54  1  0  0  0  0
 16 23  2  0  0  0  0
 16 17  1  0  0  0  0
 17 18  2  0  0  0  0
 17 42  1  0  0  0  0
 18 19  1  0  0  0  0
 18 20  1  0  0  0  0
 19 43  1  0  0  0  0
 19 44  1  0  0  0  0
 19 45  1  0  0  0  0
 20 21  1  0  0  0  0
 20 22  2  0  0  0  0
 21 46  1  0  0  0  0
 21 47  1  0  0  0  0
 21 48  1  0  0  0  0
 22 23  1  0  0  0  0
 22 49  1  0  0  0  0
 24 25  1  0  0  0  0
 24 50  1  0  0  0  0
 24 51  1  0  0  0  0
 25 52  1  0  0  0  0
 25 53  1  0  0  0  0
M  CHG  1  15   1
M  END
> <s_m_source_file>
AV-unprocessed.smi

> <i_m_source_file_index>
1643

> <i_lp_mmshare_version>
43012

> <i_f3d_flags>
0

> <s_epik_input>
W0NIM11DKD1PKU4xW0NIMl1bQ0gyXVtDSDJdTihbQ0gyXVtDSDJdMSlbQ0gyXVtDQEhdKFtPSF0pW0NIMl1uKFtjSF1uMiljKGMyMylbY0hdYyhbQ0gzXSljKFtjSF0zKVtDSDNd

> <s_epik_cmdline>
J2VwaWtfcHl0aG9uJywgJy1waCcsICc3LjAnLCAnLXRuJywgJzgnLCAnLW1hJywgJzIwMCcsICctbWV0YWxfYmluZGluZycsICctaW1hZScsICc8aW5maWxlLm1hZT4nLCAnLW9tYWUnLCAnPG91dGZpbGUubWFlPic=

> <r_epik_Ionization_Penalty>
2.25269

> <r_epik_Ionization_Penalty_Charging>
1.20735

> <r_epik_Ionization_Penalty_Neutral>
1.04533

> <r_epik_State_Penalty>
2.37869

> <r_epik_Charging_Adjusted_Penalty>
3.58604

> <i_epik_Tot_Q>
1

> <i_epik_Tot_abs_Q>
1

> <r_epik_Metal_State_Penalty>
6.40045

> <b_epik_Metal_Only>
0

> <s_lp_Force_Field>
OPLS_2005

> <r_lp_Energy>
52.9577

> <b_lp_Chiralities_Consistent>
1

> <s_lp_Variant>
AV-unprocessed.smi:1643-11

> <Gold.Version>
5.8.1

> <Gold.Id.Protein>
6NUR|6NUR_protein|mol2

> <Gold.PLP.Fitness>
48.6001

> <Gold.PLP.PLP>
-41.1794

> <Gold.PLP.part.hbond>
-2.0000

> <Gold.PLP.part.metal>
0.0000

> <Gold.PLP.part.buried>
-3.7723

> <Gold.PLP.part.nonpolar>
-35.6801

> <Gold.PLP.part.repulsive>
0.1395

> <Gold.PLP.ligand.clash>
0.0108

> <Gold.PLP.ligand.torsion>
0.8354

> <Gold.PLP.Chemscore.Hbond>
3.0000

> <Gold.PLP.Chemscore.CHOScore>
0.0000

> <Gold.PLP.Chemscore.Metal>
0.0000

> <Gold.Chemscore.Hbonds>
donor molecule, donor type, donor heavy atom, donor atom, acceptor molecule, acceptor atom, score
      L1  H    15    54       P1  8028  2.00
      P1  H  7989  7998       L1    11  1.00

> <Gold.PLP.Chemscore.Internal.Correction>
0.1022

> <Gold.Rescore>
     Score         DG    S(hbond)    S(metal)    S(lipo)     H(rot)  DE(clash)    DE(int)     intcor
     18.29     -20.26       1.93        0.00     117.73       2.12       1.28       0.69       ----

> <Gold.Chemscore.Fitness>
18.2871

> <Gold.Chemscore.DG>
-20.2580

> <Gold.Chemscore.ZeroCoef>
-5.4800

> <Gold.Chemscore.Hbond>
1.9268

> <Gold.Chemscore.Metal>
0.0000

> <Gold.Chemscore.Lipo>
117.7327

> <Gold.Chemscore.Internal_Hbond>
0.0000

> <Gold.Chemscore.DEClash>
1.2837

> <Gold.Chemscore.DEInternal>
0.6872

> <Gold.Chemscore.Rot>
2.1220

> <Gold.Chemscore.Internal.Correction>
   9.000000E+99

> <Gold.Chemscore.Hbonds>
donor molecule, donor type, donor heavy atom, donor atom, acceptor molecule, acceptor atom, score
      L1  H    15    54       P1  8028  0.93
      P1  H  7989  7998       L1    11  0.64

> <Gold.Chemscore.Hbond.Weighted>
-6.4355

> <Gold.Chemscore.Metal.Weighted>
-0.0000

> <Gold.Chemscore.Lipo.Weighted>
-13.7747

> <Gold.Chemscore.Internal_Hbond.Weighted>
0.0000

> <Gold.Chemscore.DEClash.Weighted>
1.2837

> <Gold.Chemscore.DEInternal.Weighted>
0.6872

> <Gold.Chemscore.Rot.Weighted>
5.4322

> <Gold.Chemscore.Internal.Correction.Weighted>
   9.000000E+99

> <Gold.Protein.RotatedTorsions>
[ 6907 6896 6895 6894 ] final -137.99 input  -60.11 | X-H torsion
[ 7974 7965 7964 7962 ] final  -35.69 input  175.53 | X-H torsion
[ 8008 7997 7996 7995 ] final  -36.64 input   59.86 | X-H torsion
[ 10167 10162 10161 10158 ] final   15.21 input  -65.29 | X-H torsion
[ 10718 10713 10712 10709 ] final  105.64 input   66.30 | X-H torsion
[ 10763 10752 10751 10750 ] final  164.29 input  -60.55 | X-H torsion
[ 11005 11000 10999 10996 ] final   85.70 input  -57.11 | X-H torsion

> <Gold.Protein.ActiveResidues>
 VAL166  LYS551  ARG553  GLY616  TRP617  ASP618  TYR619  PRO620  LYS621  CYS622 
 ASP623  PHE694  ASN695  SER759  ASP760  ASP761  ALA762  ILE779  LEU786  VAL792 
 PHE793  MET794  SER795  GLU796  ALA797  LYS798  CYS799  TRP800  GLU811  SER814 

> <Gold.Protein.RotatedAtoms>
  151.0294  133.5804  159.2662 H   0  0  0  0  0  0  0  0  0  0  0  0  # atno 6907 bound_to 6896
  151.2892  135.0736  159.9207 H   0  0  0  0  0  0  0  0  0  0  0  0  # atno 6908 bound_to 6896
  152.5341  133.9995  159.7942 H   0  0  0  0  0  0  0  0  0  0  0  0  # atno 6909 bound_to 6896
  146.0725  140.6190  142.8946 H   0  0  0  0  0  0  0  0  0  0  0  0  # atno 7974 bound_to 7965
  154.4069  140.1625  156.2406 H   0  0  0  0  0  0  0  0  0  0  0  0  # atno 8008 bound_to 7997
  155.9204  140.3421  155.6146 H   0  0  0  0  0  0  0  0  0  0  0  0  # atno 8009 bound_to 7997
  155.7229  140.0770  157.2313 H   0  0  0  0  0  0  0  0  0  0  0  0  # atno 8010 bound_to 7997
  140.5883  143.8846  150.6850 H   0  0  0  0  0  0  0  0  0  0  0  0  # atno 10167 bound_to 10162
  157.6698  131.0832  150.5887 H   0  0  0  0  0  0  0  0  0  0  0  0  # atno 10718 bound_to 10713
  154.3067  135.2758  155.2585 H   0  0  0  0  0  0  0  0  0  0  0  0  # atno 10763 bound_to 10752
  154.4999  135.5811  153.6526 H   0  0  0  0  0  0  0  0  0  0  0  0  # atno 10764 bound_to 10752
  152.9893  135.6155  154.3241 H   0  0  0  0  0  0  0  0  0  0  0  0  # atno 10765 bound_to 10752
  139.8964  134.8305  156.2619 H   0  0  0  0  0  0  0  0  0  0  0  0  # atno 11005 bound_to 11000
  144.7240  140.4466  143.6987 LP  0  0  0  0  0  0  0  0  0  0  0  0  # atno 17320 bound_to 7965
  145.6366  139.1544  143.2939 LP  0  0  0  0  0  0  0  0  0  0  0  0  # atno 17321 bound_to 7965
  140.2363  143.3698  152.1524 LP  0  0  0  0  0  0  0  0  0  0  0  0  # atno 17342 bound_to 10162
  139.5211  144.7042  151.5404 LP  0  0  0  0  0  0  0  0  0  0  0  0  # atno 17343 bound_to 10162
  156.6188  130.4400  149.5830 LP  0  0  0  0  0  0  0  0  0  0  0  0  # atno 17370 bound_to 10713
  156.2372  130.6830  151.1521 LP  0  0  0  0  0  0  0  0  0  0  0  0  # atno 17371 bound_to 10713
  141.0157  133.7070  156.1184 LP  0  0  0  0  0  0  0  0  0  0  0  0  # atno 17394 bound_to 11000
  140.7305  134.4260  157.5566 LP  0  0  0  0  0  0  0  0  0  0  0  0  # atno 17395 bound_to 11000

$$$$
