AV-unprocessed.smi:1531|AV-procd|sdf|6157|dock7
  -GOLD-   22720 6303D 1   1.00000     0.00000
 Structure written by MMmdl.
 44 45  0  0  0  0  0  0  0  0  1 V2000
  145.9447  132.8121  151.3550 C   0  0  0  0  0  0  0  0  0  0  0  0
  146.1846  133.7498  152.5465 C   0  0  0  0  0  0  0  0  0  0  0  0
  146.8678  133.0729  153.7569 C   0  0  1  0  0  0  0  0  0  0  0  0
  148.1152  132.2794  153.3098 C   0  0  0  0  0  0  0  0  0  0  0  0
  148.7843  131.5512  154.4863 C   0  0  0  0  0  0  0  0  0  0  0  0
  149.1480  132.5284  155.6130 C   0  0  0  0  0  0  0  0  0  0  0  0
  147.9153  133.3214  156.0766 C   0  0  0  0  0  0  0  0  0  0  0  0
  147.2173  134.0508  154.9104 C   0  0  1  0  0  0  0  0  0  0  0  0
  148.0463  135.1585  154.4327 N   0  0  0  0  0  0  0  0  0  0  0  0
  148.5745  136.1304  155.1895 C   0  0  0  0  0  0  0  0  0  0  0  0
  148.4292  136.2052  156.4097 O   0  0  0  0  0  0  0  0  0  0  0  0
  149.2756  136.9978  154.4416 N   0  0  0  0  0  0  0  0  0  0  0  0
  149.9433  138.1688  154.8798 C   0  0  0  0  0  0  0  0  0  0  0  0
  150.4463  139.1823  154.0235 C   0  0  0  0  0  0  0  0  0  0  0  0
  151.0127  140.1578  154.7170 N   0  0  0  0  0  0  0  0  0  0  0  0
  150.8810  139.7894  156.0162 N   0  0  0  0  0  0  0  0  0  0  0  0
  151.3950  140.6526  157.0647 C   0  0  0  0  0  0  0  0  0  0  0  0
  150.8705  142.0817  156.9112 C   0  0  0  0  0  0  0  0  0  0  0  0
  150.0191  142.3156  155.9085 N   0  0  0  0  0  0  0  0  0  0  0  0
  151.2278  142.9640  157.6887 O   0  0  0  0  0  0  0  0  0  0  0  0
  150.2331  138.5767  156.1508 C   0  0  0  0  0  0  0  0  0  0  0  0
  145.5524  133.3664  150.5022 H   0  0  0  0  0  0  0  0  0  0  0  0
  145.2213  132.0330  151.5958 H   0  0  0  0  0  0  0  0  0  0  0  0
  146.8697  132.3291  151.0395 H   0  0  0  0  0  0  0  0  0  0  0  0
  146.8120  134.5742  152.2060 H   0  0  0  0  0  0  0  0  0  0  0  0
  145.2396  134.2033  152.8472 H   0  0  0  0  0  0  0  0  0  0  0  0
  146.1585  132.3462  154.1563 H   0  0  0  0  0  0  0  0  0  0  0  0
  147.8389  131.5503  152.5474 H   0  0  0  0  0  0  0  0  0  0  0  0
  148.8354  132.9512  152.8410 H   0  0  0  0  0  0  0  0  0  0  0  0
  148.1117  130.7835  154.8711 H   0  0  0  0  0  0  0  0  0  0  0  0
  149.6796  131.0327  154.1418 H   0  0  0  0  0  0  0  0  0  0  0  0
  149.5747  131.9821  156.4544 H   0  0  0  0  0  0  0  0  0  0  0  0
  149.9218  133.2156  155.2683 H   0  0  0  0  0  0  0  0  0  0  0  0
  147.2069  132.6348  156.5418 H   0  0  0  0  0  0  0  0  0  0  0  0
  148.1993  134.0330  156.8531 H   0  0  0  0  0  0  0  0  0  0  0  0
  146.2806  134.4504  155.3018 H   0  0  0  0  0  0  0  0  0  0  0  0
  148.2258  135.1856  153.4396 H   0  0  0  0  0  0  0  0  0  0  0  0
  149.3270  136.8070  153.4516 H   0  0  0  0  0  0  0  0  0  0  0  0
  150.4192  139.2427  152.9455 H   0  0  0  0  0  0  0  0  0  0  0  0
  151.1016  140.2445  158.0329 H   0  0  0  0  0  0  0  0  0  0  0  0
  152.4859  140.6511  157.0347 H   0  0  0  0  0  0  0  0  0  0  0  0
  149.6433  143.2422  155.7690 H   0  0  0  0  0  0  0  0  0  0  0  0
  149.7515  141.5602  155.2938 H   0  0  0  0  0  0  0  0  0  0  0  0
  150.0411  138.1337  157.1168 H   0  0  0  0  0  0  0  0  0  0  0  0
  1  2  1  0  0  0  0
  1 22  1  0  0  0  0
  1 23  1  0  0  0  0
  1 24  1  0  0  0  0
  2  3  1  0  0  0  0
  2 25  1  0  0  0  0
  2 26  1  0  0  0  0
  3  8  1  0  0  0  0
  3  4  1  0  0  0  0
  3 27  1  0  0  0  0
  4  5  1  0  0  0  0
  4 28  1  0  0  0  0
  4 29  1  0  0  0  0
  5  6  1  0  0  0  0
  5 30  1  0  0  0  0
  5 31  1  0  0  0  0
  6  7  1  0  0  0  0
  6 32  1  0  0  0  0
  6 33  1  0  0  0  0
  7  8  1  0  0  0  0
  7 34  1  0  0  0  0
  7 35  1  0  0  0  0
  8  9  1  0  0  0  0
  8 36  1  0  0  0  0
  9 10  1  0  0  0  0
  9 37  1  0  0  0  0
 10 11  2  0  0  0  0
 10 12  1  0  0  0  0
 12 13  1  0  0  0  0
 12 38  1  0  0  0  0
 13 21  2  0  0  0  0
 13 14  1  0  0  0  0
 14 15  2  0  0  0  0
 14 39  1  0  0  0  0
 15 16  1  0  0  0  0
 16 17  1  0  0  0  0
 16 21  1  0  0  0  0
 17 18  1  0  0  0  0
 17 40  1  0  0  0  0
 17 41  1  0  0  0  0
 18 19  1  0  0  0  0
 18 20  2  0  0  0  0
 19 42  1  0  0  0  0
 19 43  1  0  0  0  0
 21 44  1  0  0  0  0
M  END
> <s_m_source_file>
AV-unprocessed.smi

> <i_m_source_file_index>
1531

> <i_lp_mmshare_version>
43012

> <i_f3d_flags>
0

> <s_epik_input>
W0NIM11bQ0gyXVtDQEBIXTFbQ0gyXVtDSDJdW0NIMl1bQ0gyXVtDQEhdMVtOSF1DKD1PKVtOSF1jMltjSF1ubihbY0hdMilbQ0gyXUMoPU8pW05IMl0=

> <s_epik_cmdline>
J2VwaWtfcHl0aG9uJywgJy1waCcsICc3LjAnLCAnLXRuJywgJzgnLCAnLW1hJywgJzIwMCcsICctbWV0YWxfYmluZGluZycsICctaW1hZScsICc8aW5maWxlLm1hZT4nLCAnLW9tYWUnLCAnPG91dGZpbGUubWFlPic=

> <r_lp_tautomer_probability>
1

> <r_epik_Ionization_Penalty>
4.83437e-05

> <r_epik_Ionization_Penalty_Charging>
0

> <r_epik_Ionization_Penalty_Neutral>
4.83437e-05

> <r_epik_State_Penalty>
-0

> <r_epik_Charging_Adjusted_Penalty>
0

> <i_epik_Tot_Q>
0

> <i_epik_Tot_abs_Q>
0

> <r_epik_Metal_State_Penalty>
-0

> <b_epik_Metal_Only>
0

> <s_lp_Force_Field>
OPLS_2005

> <r_lp_Energy>
14.4879

> <b_lp_Chiralities_Consistent>
1

> <s_lp_Variant>
AV-unprocessed.smi:1531-2

> <Gold.Version>
5.8.1

> <Gold.Id.Protein>
6NUR|6NUR_protein|mol2

> <Gold.PLP.Fitness>
42.2529

> <Gold.PLP.PLP>
-28.2191

> <Gold.PLP.part.hbond>
-4.0000

> <Gold.PLP.part.metal>
0.0000

> <Gold.PLP.part.buried>
-2.5018

> <Gold.PLP.part.nonpolar>
-22.0530

> <Gold.PLP.part.repulsive>
0.2911

> <Gold.PLP.ligand.clash>
0.0000

> <Gold.PLP.ligand.torsion>
0.1698

> <Gold.PLP.Chemscore.Hbond>
3.7760

> <Gold.PLP.Chemscore.CHOScore>
1.0000

> <Gold.PLP.Chemscore.Metal>
0.0000

> <Gold.Chemscore.Hbonds>
donor molecule, donor type, donor heavy atom, donor atom, acceptor molecule, acceptor atom, score
      L1  H     9    37       P1  7948  0.96
      L1  H    12    38       P1  7948  1.00
      L1  H    19    42       P1  8028  1.00
      P1  H  7989  7998       L1    15  0.80
      L1  C    14    39       P1  7957  1.00

> <Gold.PLP.Chemscore.Internal.Correction>
0.0454

> <Gold.Rescore>
     Score         DG    S(hbond)    S(metal)    S(lipo)     H(rot)  DE(clash)    DE(int)     intcor
     15.36     -16.77       2.93        0.00      59.54       2.13       0.17       1.23       ----

> <Gold.Chemscore.Fitness>
15.3613

> <Gold.Chemscore.DG>
-16.7663

> <Gold.Chemscore.ZeroCoef>
-5.4800

> <Gold.Chemscore.Hbond>
2.9286

> <Gold.Chemscore.Metal>
0.0000

> <Gold.Chemscore.Lipo>
59.5427

> <Gold.Chemscore.Internal_Hbond>
0.0000

> <Gold.Chemscore.DEClash>
0.1736

> <Gold.Chemscore.DEInternal>
1.2314

> <Gold.Chemscore.Rot>
2.1335

> <Gold.Chemscore.Internal.Correction>
   9.000000E+99

> <Gold.Chemscore.Hbonds>
donor molecule, donor type, donor heavy atom, donor atom, acceptor molecule, acceptor atom, score
      L1  H     9    37       P1  7948  0.86
      L1  H    12    38       P1  7948  0.94
      L1  H    19    42       P1  8028  1.00
      P1  H  7989  7998       L1    15  0.11

> <Gold.Chemscore.Hbond.Weighted>
-9.7816

> <Gold.Chemscore.Metal.Weighted>
-0.0000

> <Gold.Chemscore.Lipo.Weighted>
-6.9665

> <Gold.Chemscore.Internal_Hbond.Weighted>
0.0000

> <Gold.Chemscore.DEClash.Weighted>
0.1736

> <Gold.Chemscore.DEInternal.Weighted>
1.2314

> <Gold.Chemscore.Rot.Weighted>
5.4618

> <Gold.Chemscore.Internal.Correction.Weighted>
   9.000000E+99

> <Gold.Protein.RotatedTorsions>
[ 6907 6896 6895 6894 ] final  -53.92 input  -60.11 | X-H torsion
[ 7974 7965 7964 7962 ] final  -75.82 input  175.53 | X-H torsion
[ 8008 7997 7996 7995 ] final -175.16 input   59.86 | X-H torsion
[ 10167 10162 10161 10158 ] final -125.43 input  -65.29 | X-H torsion
[ 10718 10713 10712 10709 ] final -124.18 input   66.30 | X-H torsion
[ 10763 10752 10751 10750 ] final  174.39 input  -60.55 | X-H torsion
[ 11005 11000 10999 10996 ] final   67.49 input  -57.11 | X-H torsion

> <Gold.Protein.ActiveResidues>
 VAL166  LYS551  ARG553  GLY616  TRP617  ASP618  TYR619  PRO620  LYS621  CYS622 
 ASP623  PHE694  ASN695  SER759  ASP760  ASP761  ALA762  ILE779  LEU786  VAL792 
 PHE793  MET794  SER795  GLU796  ALA797  LYS798  CYS799  TRP800  GLU811  SER814 

> <Gold.Protein.RotatedAtoms>
  150.8383  134.7666  159.6911 H   0  0  0  0  0  0  0  0  0  0  0  0  # atno 6907 bound_to 6896
  152.4476  134.5459  159.9862 H   0  0  0  0  0  0  0  0  0  0  0  0  # atno 6908 bound_to 6896
  151.5604  133.3366  159.3006 H   0  0  0  0  0  0  0  0  0  0  0  0  # atno 6909 bound_to 6896
  145.6210  140.9363  143.1138 H   0  0  0  0  0  0  0  0  0  0  0  0  # atno 7974 bound_to 7965
  155.9791  140.1178  157.0743 H   0  0  0  0  0  0  0  0  0  0  0  0  # atno 8008 bound_to 7997
  154.4177  140.1148  156.5478 H   0  0  0  0  0  0  0  0  0  0  0  0  # atno 8009 bound_to 7997
  155.6495  140.3473  155.4745 H   0  0  0  0  0  0  0  0  0  0  0  0  # atno 8010 bound_to 7997
  139.9822  143.5730  152.2374 H   0  0  0  0  0  0  0  0  0  0  0  0  # atno 10167 bound_to 10162
  156.1566  130.6572  150.9990 H   0  0  0  0  0  0  0  0  0  0  0  0  # atno 10718 bound_to 10713
  154.4532  135.2765  155.1766 H   0  0  0  0  0  0  0  0  0  0  0  0  # atno 10763 bound_to 10752
  154.3585  135.6134  153.5682 H   0  0  0  0  0  0  0  0  0  0  0  0  # atno 10764 bound_to 10752
  152.9848  135.5828  154.4880 H   0  0  0  0  0  0  0  0  0  0  0  0  # atno 10765 bound_to 10752
  139.9768  134.6809  156.0339 H   0  0  0  0  0  0  0  0  0  0  0  0  # atno 11005 bound_to 11000
  144.7231  139.7963  143.7374 LP  0  0  0  0  0  0  0  0  0  0  0  0  # atno 17320 bound_to 7965
  146.1431  139.4493  143.0096 LP  0  0  0  0  0  0  0  0  0  0  0  0  # atno 17321 bound_to 7965
  139.6401  144.7654  151.2356 LP  0  0  0  0  0  0  0  0  0  0  0  0  # atno 17342 bound_to 10162
  140.7485  143.6331  150.8404 LP  0  0  0  0  0  0  0  0  0  0  0  0  # atno 17343 bound_to 10162
  157.6699  131.0863  150.7637 LP  0  0  0  0  0  0  0  0  0  0  0  0  # atno 17370 bound_to 10713
  156.7702  130.4826  149.5420 LP  0  0  0  0  0  0  0  0  0  0  0  0  # atno 17371 bound_to 10713
  141.1444  133.6558  156.3824 LP  0  0  0  0  0  0  0  0  0  0  0  0  # atno 17394 bound_to 11000
  140.5179  134.6333  157.5307 LP  0  0  0  0  0  0  0  0  0  0  0  0  # atno 17395 bound_to 11000

$$$$
