AV-unprocessed.smi:2976|AV-procd|sdf|11359|dock9
  -GOLD-   2272016273D 1   1.00000     0.00000
 Structure written by MMmdl.
 40 41  0  0  0  0  0  0  0  0  1 V2000
  147.7626  141.6536  155.3152 C   0  0  0  0  0  0  0  0  0  0  0  0
  148.8371  140.5539  155.3815 C   0  0  2  0  0  0  0  0  0  0  0  0
  150.1745  141.1593  155.8567 C   0  0  0  0  0  0  0  0  0  0  0  0
  151.2855  140.1052  155.9569 C   0  0  0  0  0  0  0  0  0  0  0  0
  151.4692  139.3676  154.6219 C   0  0  0  0  0  0  0  0  0  0  0  0
  150.1527  138.7403  154.1270 C   0  0  1  0  0  0  0  0  0  0  0  0
  149.7815  137.6259  155.0012 N   0  0  0  0  0  0  0  0  0  0  0  0
  150.5079  136.5222  155.2356 C   0  0  0  0  0  0  0  0  0  0  0  0
  151.6244  136.3259  154.7548 O   0  0  0  0  0  0  0  0  0  0  0  0
  149.8724  135.4803  156.1644 C   0  0  0  0  0  0  0  0  0  0  0  0
  149.7842  134.1546  155.5364 N   0  0  0  0  0  0  0  0  0  0  0  0
  148.9463  134.1024  154.4364 N   0  0  0  0  0  0  0  0  0  0  0  0
  148.7822  132.9844  153.8172 C   0  0  0  0  0  0  0  0  0  0  0  0
  149.4506  131.7697  154.2288 C   0  0  0  0  0  0  0  0  0  0  0  0
  149.1909  130.2992  153.3584 Cl  0  0  0  0  0  0  0  0  0  0  0  0
  150.2746  131.8332  155.3047 C   0  0  0  0  0  0  0  0  0  0  0  0
  151.1105  130.4224  155.8570 Cl  0  0  0  0  0  0  0  0  0  0  0  0
  150.4867  133.0906  156.0351 C   0  0  0  0  0  0  0  0  0  0  0  0
  151.2297  133.1902  157.0128 O   0  0  0  0  0  0  0  0  0  0  0  0
  149.0251  139.8052  154.0323 C   0  0  1  0  0  0  0  0  0  0  0  0
  147.7129  139.2075  153.4847 C   0  0  0  0  0  0  0  0  0  0  0  0
  147.9798  142.3740  154.5262 H   0  0  0  0  0  0  0  0  0  0  0  0
  147.7045  142.2006  156.2566 H   0  0  0  0  0  0  0  0  0  0  0  0
  146.7719  141.2392  155.1300 H   0  0  0  0  0  0  0  0  0  0  0  0
  148.5128  139.8317  156.1324 H   0  0  0  0  0  0  0  0  0  0  0  0
  150.4860  141.9467  155.1689 H   0  0  0  0  0  0  0  0  0  0  0  0
  150.0434  141.6362  156.8287 H   0  0  0  0  0  0  0  0  0  0  0  0
  152.2219  140.5815  156.2487 H   0  0  0  0  0  0  0  0  0  0  0  0
  151.0449  139.3932  156.7471 H   0  0  0  0  0  0  0  0  0  0  0  0
  151.8357  140.0710  153.8731 H   0  0  0  0  0  0  0  0  0  0  0  0
  152.2397  138.6017  154.7204 H   0  0  0  0  0  0  0  0  0  0  0  0
  150.3422  138.3546  153.1237 H   0  0  0  0  0  0  0  0  0  0  0  0
  148.8775  137.6909  155.4460 H   0  0  0  0  0  0  0  0  0  0  0  0
  150.4706  135.4322  157.0760 H   0  0  0  0  0  0  0  0  0  0  0  0
  148.8807  135.8083  156.4825 H   0  0  0  0  0  0  0  0  0  0  0  0
  148.1300  132.8942  152.9483 H   0  0  0  0  0  0  0  0  0  0  0  0
  149.3547  140.5419  153.2978 H   0  0  0  0  0  0  0  0  0  0  0  0
  147.2260  138.5632  154.2168 H   0  0  0  0  0  0  0  0  0  0  0  0
  147.8977  138.6134  152.5895 H   0  0  0  0  0  0  0  0  0  0  0  0
  147.0031  139.9853  153.2046 H   0  0  0  0  0  0  0  0  0  0  0  0
  1  2  1  0  0  0  0
  1 22  1  0  0  0  0
  1 23  1  0  0  0  0
  1 24  1  0  0  0  0
  2 20  1  0  0  0  0
  2  3  1  0  0  0  0
  2 25  1  0  0  0  0
  3  4  1  0  0  0  0
  3 26  1  0  0  0  0
  3 27  1  0  0  0  0
  4  5  1  0  0  0  0
  4 28  1  0  0  0  0
  4 29  1  0  0  0  0
  5  6  1  0  0  0  0
  5 30  1  0  0  0  0
  5 31  1  0  0  0  0
  6  7  1  0  0  0  0
  6 20  1  0  0  0  0
  6 32  1  0  0  0  0
  7  8  1  0  0  0  0
  7 33  1  0  0  0  0
  8  9  2  0  0  0  0
  8 10  1  0  0  0  0
 10 11  1  0  0  0  0
 10 34  1  0  0  0  0
 10 35  1  0  0  0  0
 11 18  1  0  0  0  0
 11 12  1  0  0  0  0
 12 13  2  0  0  0  0
 13 14  1  0  0  0  0
 13 36  1  0  0  0  0
 14 15  1  0  0  0  0
 14 16  2  0  0  0  0
 16 17  1  0  0  0  0
 16 18  1  0  0  0  0
 18 19  2  0  0  0  0
 20 21  1  0  0  0  0
 20 37  1  0  0  0  0
 21 38  1  0  0  0  0
 21 39  1  0  0  0  0
 21 40  1  0  0  0  0
M  END
> <s_m_source_file>
AV-unprocessed.smi

> <i_m_source_file_index>
2976

> <i_lp_mmshare_version>
43012

> <i_f3d_flags>
0

> <s_epik_input>
W0NIM11bQ0BASF0xW0NIMl1bQ0gyXVtDSDJdW0NASF0oW0NASF0xW0NIM10pW05IXUMoPU8pW0NIMl1uMm5bY0hdYyhDbCljKENsKWMyPU8=

> <s_epik_cmdline>
J2VwaWtfcHl0aG9uJywgJy1waCcsICc3LjAnLCAnLXRuJywgJzgnLCAnLW1hJywgJzIwMCcsICctbWV0YWxfYmluZGluZycsICctaW1hZScsICc8aW5maWxlLm1hZT4nLCAnLW9tYWUnLCAnPG91dGZpbGUubWFlPic=

> <r_lp_tautomer_probability>
1

> <r_epik_Ionization_Penalty>
1.90777e-08

> <r_epik_Ionization_Penalty_Charging>
3.07942e-11

> <r_epik_Ionization_Penalty_Neutral>
1.90469e-08

> <r_epik_State_Penalty>
-0

> <r_epik_Charging_Adjusted_Penalty>
3.07942e-11

> <i_epik_Tot_Q>
0

> <i_epik_Tot_abs_Q>
0

> <r_epik_Metal_State_Penalty>
-0

> <b_epik_Metal_Only>
0

> <s_lp_Force_Field>
OPLS_2005

> <r_lp_Energy>
25.2962

> <b_lp_Chiralities_Consistent>
1

> <s_lp_Variant>
AV-unprocessed.smi:2976-1

> <Gold.Version>
5.8.1

> <Gold.Id.Protein>
6NUR|6NUR_protein|mol2

> <Gold.PLP.Fitness>
39.8356

> <Gold.PLP.PLP>
-34.4219

> <Gold.PLP.part.hbond>
-2.0000

> <Gold.PLP.part.metal>
0.0000

> <Gold.PLP.part.buried>
-0.1500

> <Gold.PLP.part.nonpolar>
-32.5132

> <Gold.PLP.part.repulsive>
0.2676

> <Gold.PLP.ligand.clash>
0.0000

> <Gold.PLP.ligand.torsion>
0.0453

> <Gold.PLP.Chemscore.Hbond>
1.8320

> <Gold.PLP.Chemscore.CHOScore>
0.0000

> <Gold.PLP.Chemscore.Metal>
0.0000

> <Gold.Chemscore.Hbonds>
donor molecule, donor type, donor heavy atom, donor atom, acceptor molecule, acceptor atom, score
      P1  H  6896  6907       L1    19  0.48
      P1  H 10752 10763       L1     9  0.94

> <Gold.PLP.Chemscore.Internal.Correction>
0.0084

> <Gold.Rescore>
     Score         DG    S(hbond)    S(metal)    S(lipo)     H(rot)  DE(clash)    DE(int)     intcor
     17.01     -17.25       1.89        0.00      79.10       1.49       0.17       0.07       ----

> <Gold.Chemscore.Fitness>
17.0100

> <Gold.Chemscore.DG>
-17.2522

> <Gold.Chemscore.ZeroCoef>
-5.4800

> <Gold.Chemscore.Hbond>
1.8930

> <Gold.Chemscore.Metal>
0.0000

> <Gold.Chemscore.Lipo>
79.1041

> <Gold.Chemscore.Internal_Hbond>
0.0000

> <Gold.Chemscore.DEClash>
0.1734

> <Gold.Chemscore.DEInternal>
0.0688

> <Gold.Chemscore.Rot>
1.4866

> <Gold.Chemscore.Internal.Correction>
   9.000000E+99

> <Gold.Chemscore.Hbonds>
donor molecule, donor type, donor heavy atom, donor atom, acceptor molecule, acceptor atom, score
      P1  H  6896  6907       L1    19  0.46
      P1  H 10752 10763       L1     9  0.90

> <Gold.Chemscore.Hbond.Weighted>
-6.3227

> <Gold.Chemscore.Metal.Weighted>
-0.0000

> <Gold.Chemscore.Lipo.Weighted>
-9.2552

> <Gold.Chemscore.Internal_Hbond.Weighted>
0.0000

> <Gold.Chemscore.DEClash.Weighted>
0.1734

> <Gold.Chemscore.DEInternal.Weighted>
0.0688

> <Gold.Chemscore.Rot.Weighted>
3.8057

> <Gold.Chemscore.Internal.Correction.Weighted>
   9.000000E+99

> <Gold.Protein.RotatedTorsions>
[ 6907 6896 6895 6894 ] final -151.67 input  -60.11 | X-H torsion
[ 7974 7965 7964 7962 ] final    0.89 input  175.53 | X-H torsion
[ 8008 7997 7996 7995 ] final  179.53 input   59.86 | X-H torsion
[ 10167 10162 10161 10158 ] final   31.73 input  -65.29 | X-H torsion
[ 10718 10713 10712 10709 ] final  154.53 input   66.30 | X-H torsion
[ 10763 10752 10751 10750 ] final   51.41 input  -60.55 | X-H torsion
[ 11005 11000 10999 10996 ] final  125.30 input  -57.11 | X-H torsion

> <Gold.Protein.ActiveResidues>
 VAL166  LYS551  ARG553  GLY616  TRP617  ASP618  TYR619  PRO620  LYS621  CYS622 
 ASP623  PHE694  ASN695  SER759  ASP760  ASP761  ALA762  ILE779  LEU786  VAL792 
 PHE793  MET794  SER795  GLU796  ALA797  LYS798  CYS799  TRP800  GLU811  SER814 

> <Gold.Protein.RotatedAtoms>
  151.2164  133.4527  159.2599 H   0  0  0  0  0  0  0  0  0  0  0  0  # atno 6907 bound_to 6896
  151.0926  134.9925  159.8420 H   0  0  0  0  0  0  0  0  0  0  0  0  # atno 6908 bound_to 6896
  152.5436  134.2097  159.8798 H   0  0  0  0  0  0  0  0  0  0  0  0  # atno 6909 bound_to 6896
  146.2437  140.1069  142.8345 H   0  0  0  0  0  0  0  0  0  0  0  0  # atno 7974 bound_to 7965
  156.0424  140.1306  157.0141 H   0  0  0  0  0  0  0  0  0  0  0  0  # atno 8008 bound_to 7997
  154.4397  140.1027  156.6326 H   0  0  0  0  0  0  0  0  0  0  0  0  # atno 8009 bound_to 7997
  155.5647  140.3465  155.4502 H   0  0  0  0  0  0  0  0  0  0  0  0  # atno 8010 bound_to 7997
  140.4562  144.0975  150.6202 H   0  0  0  0  0  0  0  0  0  0  0  0  # atno 10167 bound_to 10162
  157.2303  131.0737  151.1857 H   0  0  0  0  0  0  0  0  0  0  0  0  # atno 10718 bound_to 10713
  152.9785  135.5847  154.4411 H   0  0  0  0  0  0  0  0  0  0  0  0  # atno 10763 bound_to 10752
  154.4012  135.2769  155.2097 H   0  0  0  0  0  0  0  0  0  0  0  0  # atno 10764 bound_to 10752
  154.3927  135.6121  153.5906 H   0  0  0  0  0  0  0  0  0  0  0  0  # atno 10765 bound_to 10752
  139.9400  134.9636  156.8537 H   0  0  0  0  0  0  0  0  0  0  0  0  # atno 11005 bound_to 11000
  145.0520  140.9025  143.4990 LP  0  0  0  0  0  0  0  0  0  0  0  0  # atno 17320 bound_to 7965
  145.1169  139.2719  143.5608 LP  0  0  0  0  0  0  0  0  0  0  0  0  # atno 17321 bound_to 7965
  140.4148  143.2639  151.9788 LP  0  0  0  0  0  0  0  0  0  0  0  0  # atno 17342 bound_to 10162
  139.4801  144.5883  151.7815 LP  0  0  0  0  0  0  0  0  0  0  0  0  # atno 17343 bound_to 10162
  157.3485  130.7070  149.6425 LP  0  0  0  0  0  0  0  0  0  0  0  0  # atno 17370 bound_to 10713
  155.9676  130.4259  150.4676 LP  0  0  0  0  0  0  0  0  0  0  0  0  # atno 17371 bound_to 10713
  140.5977  134.0201  155.7525 LP  0  0  0  0  0  0  0  0  0  0  0  0  # atno 17394 bound_to 11000
  141.1030  133.9738  157.3046 LP  0  0  0  0  0  0  0  0  0  0  0  0  # atno 17395 bound_to 11000

$$$$
