AV-unprocessed.smi:1827|AV-procd|sdf|7420|dock1
  -GOLD-   22720 9103D 1   1.00000     0.00000
 Structure written by MMmdl.
 44 45  0  0  0  0  0  0  0  0  2 V2000
  149.4480  139.3897  154.1926 C   0  0  0  0  0  0  0  0  0  0  0  0
  148.4901  140.5124  154.4805 C   0  0  0  0  0  0  0  0  0  0  0  0
  148.9422  141.5875  155.1131 N   0  0  0  0  0  0  0  0  0  0  0  0
  147.8853  142.4262  155.1648 N   0  0  0  0  0  0  0  0  0  0  0  0
  146.7505  141.9159  154.5758 C   0  0  0  0  0  0  0  0  0  0  0  0
  145.4701  142.6793  154.5057 C   0  0  0  0  0  0  0  0  0  0  0  0
  147.1069  140.6688  154.1511 C   0  0  0  0  0  0  0  0  0  0  0  0
  146.2432  139.7871  153.4542 N   0  0  0  0  0  0  0  0  0  0  0  0
  146.3576  138.4541  153.3549 C   0  0  0  0  0  0  0  0  0  0  0  0
  147.2401  137.7792  153.8838 O   0  0  0  0  0  0  0  0  0  0  0  0
  145.3685  137.9325  152.6151 N   0  0  0  0  0  0  0  0  0  0  0  0
  145.1995  136.5123  152.3221 C   0  0  2  0  0  0  0  0  0  0  0  0
  145.4395  136.2260  150.8281 C   0  0  0  0  0  0  0  0  0  0  0  0
  145.1634  134.7512  150.4931 C   0  0  0  0  0  0  0  0  0  0  0  0
  143.7844  134.3610  150.8827 N   0  3  1  0  0  0  0  0  0  0  0  0
  143.4416  132.9828  150.4457 C   0  0  0  0  0  0  0  0  0  0  0  0
  143.6167  132.7708  148.9384 C   0  0  0  0  0  0  0  0  0  0  0  0
  142.6262  133.1963  148.1513 N   0  0  0  0  0  0  0  0  0  0  0  0
  144.6198  132.2189  148.4895 O   0  0  0  0  0  0  0  0  0  0  0  0
  143.5416  134.5917  152.3323 C   0  0  0  0  0  0  0  0  0  0  0  0
  143.7809  136.0636  152.7082 C   0  0  0  0  0  0  0  0  0  0  0  0
  147.9552  143.3374  155.5948 H   0  0  0  0  0  0  0  0  0  0  0  0
  149.2136  138.9021  153.2464 H   0  0  0  0  0  0  0  0  0  0  0  0
  149.4137  138.6356  154.9786 H   0  0  0  0  0  0  0  0  0  0  0  0
  150.4757  139.7484  154.1256 H   0  0  0  0  0  0  0  0  0  0  0  0
  144.7724  142.2146  153.8090 H   0  0  0  0  0  0  0  0  0  0  0  0
  145.6453  143.7021  154.1717 H   0  0  0  0  0  0  0  0  0  0  0  0
  144.9914  142.7192  155.4843 H   0  0  0  0  0  0  0  0  0  0  0  0
  145.4040  140.2007  153.0756 H   0  0  0  0  0  0  0  0  0  0  0  0
  144.6824  138.5640  152.2280 H   0  0  0  0  0  0  0  0  0  0  0  0
  145.9150  135.9398  152.9161 H   0  0  0  0  0  0  0  0  0  0  0  0
  144.7949  136.8625  150.2198 H   0  0  0  0  0  0  0  0  0  0  0  0
  146.4654  136.4755  150.5543 H   0  0  0  0  0  0  0  0  0  0  0  0
  145.3015  134.5976  149.4223 H   0  0  0  0  0  0  0  0  0  0  0  0
  145.8832  134.1078  151.0020 H   0  0  0  0  0  0  0  0  0  0  0  0
  144.1017  132.2677  150.9383 H   0  0  0  0  0  0  0  0  0  0  0  0
  142.4247  132.7342  150.7540 H   0  0  0  0  0  0  0  0  0  0  0  0
  142.6897  133.0873  147.1493 H   0  0  0  0  0  0  0  0  0  0  0  0
  141.8133  133.6334  148.5623 H   0  0  0  0  0  0  0  0  0  0  0  0
  142.5175  134.3210  152.5903 H   0  0  0  0  0  0  0  0  0  0  0  0
  144.1946  133.9442  152.9194 H   0  0  0  0  0  0  0  0  0  0  0  0
  143.6235  136.1996  153.7790 H   0  0  0  0  0  0  0  0  0  0  0  0
  143.0420  136.6894  152.2049 H   0  0  0  0  0  0  0  0  0  0  0  0
  143.1618  134.9762  150.3778 H   0  0  0  0  0  0  0  0  0  0  0  0
  1  2  1  0  0  0  0
  1 23  1  0  0  0  0
  1 24  1  0  0  0  0
  1 25  1  0  0  0  0
  2  7  1  0  0  0  0
  2  3  2  0  0  0  0
  3  4  1  0  0  0  0
  4 22  1  0  0  0  0
  4  5  1  0  0  0  0
  5  6  1  0  0  0  0
  5  7  2  0  0  0  0
  6 26  1  0  0  0  0
  6 27  1  0  0  0  0
  6 28  1  0  0  0  0
  7  8  1  0  0  0  0
  8  9  1  0  0  0  0
  8 29  1  0  0  0  0
  9 10  2  0  0  0  0
  9 11  1  0  0  0  0
 11 12  1  0  0  0  0
 11 30  1  0  0  0  0
 12 21  1  0  0  0  0
 12 13  1  0  0  0  0
 12 31  1  0  0  0  0
 13 14  1  0  0  0  0
 13 32  1  0  0  0  0
 13 33  1  0  0  0  0
 14 15  1  0  0  0  0
 14 34  1  0  0  0  0
 14 35  1  0  0  0  0
 15 16  1  0  0  0  0
 15 20  1  0  0  0  0
 15 44  1  0  0  0  0
 16 17  1  0  0  0  0
 16 36  1  0  0  0  0
 16 37  1  0  0  0  0
 17 18  1  0  0  0  0
 17 19  2  0  0  0  0
 18 38  1  0  0  0  0
 18 39  1  0  0  0  0
 20 21  1  0  0  0  0
 20 40  1  0  0  0  0
 20 41  1  0  0  0  0
 21 42  1  0  0  0  0
 21 43  1  0  0  0  0
M  CHG  1  15   1
M  END
> <s_m_source_file>
AV-unprocessed.smi

> <i_m_source_file_index>
1827

> <i_lp_mmshare_version>
43012

> <i_f3d_flags>
0

> <s_epik_input>
W0NIM11jMW5bbkhdYyhbQ0gzXSljMVtOSF1DKD1PKVtOSF1bQ0hdMltDSDJdW0NIMl1OKFtDSDJdW0NIMl0yKVtDSDJdQyg9TylbTkgyXQ==

> <s_epik_cmdline>
J2VwaWtfcHl0aG9uJywgJy1waCcsICc3LjAnLCAnLXRuJywgJzgnLCAnLW1hJywgJzIwMCcsICctbWV0YWxfYmluZGluZycsICctaW1hZScsICc8aW5maWxlLm1hZT4nLCAnLW9tYWUnLCAnPG91dGZpbGUubWFlPic=

> <r_lp_tautomer_probability>
0.5

> <r_epik_Ionization_Penalty>
0.839233

> <r_epik_Ionization_Penalty_Charging>
0.838844

> <r_epik_Ionization_Penalty_Neutral>
0.000388936

> <r_epik_State_Penalty>
0.8734

> <r_epik_Charging_Adjusted_Penalty>
1.71224

> <i_epik_Tot_Q>
1

> <i_epik_Tot_abs_Q>
1

> <r_epik_Metal_State_Penalty>
0.890753

> <b_epik_Metal_Only>
0

> <s_lp_Force_Field>
OPLS_2005

> <r_lp_Energy>
15.4281

> <b_lp_Chiralities_Consistent>
1

> <s_lp_Variant>
AV-unprocessed.smi:1827-2

> <Gold.Version>
5.8.1

> <Gold.Id.Protein>
6NUR|6NUR_protein|mol2

> <Gold.PLP.Fitness>
52.0554

> <Gold.PLP.PLP>
-39.1728

> <Gold.PLP.part.hbond>
-8.2229

> <Gold.PLP.part.metal>
0.0000

> <Gold.PLP.part.buried>
-2.1351

> <Gold.PLP.part.nonpolar>
-32.4302

> <Gold.PLP.part.repulsive>
1.4370

> <Gold.PLP.ligand.clash>
0.0000

> <Gold.PLP.ligand.torsion>
0.4740

> <Gold.PLP.Chemscore.Hbond>
4.4969

> <Gold.PLP.Chemscore.CHOScore>
0.0000

> <Gold.PLP.Chemscore.Metal>
0.0000

> <Gold.Chemscore.Hbonds>
donor molecule, donor type, donor heavy atom, donor atom, acceptor molecule, acceptor atom, score
      L1  H     4    22       P1  8028  0.88
      L1  H     8    29       P1 10175  1.00
      L1  H    11    30       P1 10175  0.66
      L1  H    15    44       P1 10186  0.19
      L1  H    18    38       P1 10195  0.91
      L1  H    18    39       P1 10186  0.84

> <Gold.PLP.Chemscore.Internal.Correction>
0.3400

> <Gold.Rescore>
     Score         DG    S(hbond)    S(metal)    S(lipo)     H(rot)  DE(clash)    DE(int)     intcor
     17.87     -22.65       4.19        0.00      70.70       1.98       1.78       3.01       ----

> <Gold.Chemscore.Fitness>
17.8700

> <Gold.Chemscore.DG>
-22.6516

> <Gold.Chemscore.ZeroCoef>
-5.4800

> <Gold.Chemscore.Hbond>
4.1857

> <Gold.Chemscore.Metal>
0.0000

> <Gold.Chemscore.Lipo>
70.7045

> <Gold.Chemscore.Internal_Hbond>
0.0000

> <Gold.Chemscore.DEClash>
1.7753

> <Gold.Chemscore.DEInternal>
3.0063

> <Gold.Chemscore.Rot>
1.9848

> <Gold.Chemscore.Internal.Correction>
   9.000000E+99

> <Gold.Chemscore.Hbonds>
donor molecule, donor type, donor heavy atom, donor atom, acceptor molecule, acceptor atom, score
      L1  H     4    22       P1  8028  0.43
      L1  H     8    29       P1 10175  0.99
      L1  H    11    30       P1 10175  0.63
      L1  H    15    44       P1 10186  0.03
      L1  H    18    38       P1 10195  0.90
      L1  H    18    39       P1 10186  0.82

> <Gold.Chemscore.Hbond.Weighted>
-13.9801

> <Gold.Chemscore.Metal.Weighted>
-0.0000

> <Gold.Chemscore.Lipo.Weighted>
-8.2724

> <Gold.Chemscore.Internal_Hbond.Weighted>
0.0000

> <Gold.Chemscore.DEClash.Weighted>
1.7753

> <Gold.Chemscore.DEInternal.Weighted>
3.0063

> <Gold.Chemscore.Rot.Weighted>
5.0810

> <Gold.Chemscore.Internal.Correction.Weighted>
   9.000000E+99

> <Gold.Protein.RotatedTorsions>
[ 6907 6896 6895 6894 ] final -108.16 input  -60.11 | X-H torsion
[ 7974 7965 7964 7962 ] final  109.18 input  175.53 | X-H torsion
[ 8008 7997 7996 7995 ] final   43.77 input   59.86 | X-H torsion
[ 10167 10162 10161 10158 ] final  -45.80 input  -65.29 | X-H torsion
[ 10718 10713 10712 10709 ] final -155.93 input   66.30 | X-H torsion
[ 10763 10752 10751 10750 ] final  178.82 input  -60.55 | X-H torsion
[ 11005 11000 10999 10996 ] final  -64.04 input  -57.11 | X-H torsion

> <Gold.Protein.ActiveResidues>
 VAL166  LYS551  ARG553  GLY616  TRP617  ASP618  TYR619  PRO620  LYS621  CYS622 
 ASP623  PHE694  ASN695  SER759  ASP760  ASP761  ALA762  ILE779  LEU786  VAL792 
 PHE793  MET794  SER795  GLU796  ALA797  LYS798  CYS799  TRP800  GLU811  SER814 

> <Gold.Protein.RotatedAtoms>
  150.7485  133.9719  159.3548 H   0  0  0  0  0  0  0  0  0  0  0  0  # atno 6907 bound_to 6896
  151.7654  135.0798  160.0361 H   0  0  0  0  0  0  0  0  0  0  0  0  # atno 6908 bound_to 6896
  152.3375  133.5991  159.5889 H   0  0  0  0  0  0  0  0  0  0  0  0  # atno 6909 bound_to 6896
  145.2711  139.2666  143.3966 H   0  0  0  0  0  0  0  0  0  0  0  0  # atno 7974 bound_to 7965
  155.3082  140.3389  155.4245 H   0  0  0  0  0  0  0  0  0  0  0  0  # atno 8008 bound_to 7997
  156.1968  140.1718  156.8019 H   0  0  0  0  0  0  0  0  0  0  0  0  # atno 8009 bound_to 7997
  154.5509  140.0706  156.8650 H   0  0  0  0  0  0  0  0  0  0  0  0  # atno 8010 bound_to 7997
  140.6843  143.2862  151.3690 H   0  0  0  0  0  0  0  0  0  0  0  0  # atno 10167 bound_to 10162
  156.5196  130.8472  151.2677 H   0  0  0  0  0  0  0  0  0  0  0  0  # atno 10718 bound_to 10713
  154.5126  135.2789  155.1330 H   0  0  0  0  0  0  0  0  0  0  0  0  # atno 10763 bound_to 10752
  154.2919  135.6265  153.5392 H   0  0  0  0  0  0  0  0  0  0  0  0  # atno 10764 bound_to 10752
  152.9921  135.5676  154.5596 H   0  0  0  0  0  0  0  0  0  0  0  0  # atno 10765 bound_to 10752
  141.1412  133.6660  156.5772 H   0  0  0  0  0  0  0  0  0  0  0  0  # atno 11005 bound_to 11000
  146.3246  140.3154  142.8629 LP  0  0  0  0  0  0  0  0  0  0  0  0  # atno 17320 bound_to 7965
  144.9334  140.8000  143.5675 LP  0  0  0  0  0  0  0  0  0  0  0  0  # atno 17321 bound_to 7965
  139.6190  144.0945  152.2373 LP  0  0  0  0  0  0  0  0  0  0  0  0  # atno 17342 bound_to 10162
  140.0383  144.6027  150.7431 LP  0  0  0  0  0  0  0  0  0  0  0  0  # atno 17343 bound_to 10162
  157.7439  130.9922  150.2627 LP  0  0  0  0  0  0  0  0  0  0  0  0  # atno 17370 bound_to 10713
  156.3162  130.3779  149.7616 LP  0  0  0  0  0  0  0  0  0  0  0  0  # atno 17371 bound_to 10713
  140.3866  134.7477  157.4695 LP  0  0  0  0  0  0  0  0  0  0  0  0  # atno 17394 bound_to 11000
  140.0597  134.6013  155.8763 LP  0  0  0  0  0  0  0  0  0  0  0  0  # atno 17395 bound_to 11000

$$$$
