AV-unprocessed.smi:1010|AV-procd|sdf|4418|dock5
  -GOLD-   22720 2363D 1   1.00000     0.00000
 Structure written by MMmdl.
 55 57  0  0  0  0  0  0  0  0  4 V2000
  147.8272  136.1963  155.8914 C   0  0  0  0  0  0  0  0  0  0  0  0
  148.8236  135.3205  156.5708 N   0  3  0  0  0  0  0  0  0  0  0  0
  148.6617  135.4020  158.0518 C   0  0  0  0  0  0  0  0  0  0  0  0
  150.2417  135.2807  156.0125 C   0  0  0  0  0  0  0  0  0  0  0  0
  151.0625  136.6131  156.2395 C   0  0  0  0  0  0  0  0  0  0  0  0
  151.3021  136.8877  157.6580 N   0  5  0  0  0  0  0  0  0  0  0  0
  151.5086  138.1210  158.1904 C   0  0  0  0  0  0  0  0  0  0  0  0
  152.0850  138.4048  159.2463 O   0  0  0  0  0  0  0  0  0  0  0  0
  150.9995  139.0927  157.4156 N   0  0  0  0  0  0  0  0  0  0  0  0
  151.1514  140.4978  157.5648 C   0  0  0  0  0  0  0  0  0  0  0  0
  152.0928  141.0436  158.4722 C   0  0  0  0  0  0  0  0  0  0  0  0
  152.1893  142.4408  158.6233 C   0  0  0  0  0  0  0  0  0  0  0  0
  151.3348  143.2695  157.8731 C   0  0  0  0  0  0  0  0  0  0  0  0
  150.4380  142.7182  157.0283 N   0  3  0  0  0  0  0  0  0  0  0  0
  150.3058  141.3855  156.8424 C   0  0  0  0  0  0  0  0  0  0  0  0
  149.3186  140.9942  155.9219 N   0  0  0  0  0  0  0  0  0  0  0  0
  147.9335  141.2928  156.2740 C   0  0  0  0  0  0  0  0  0  0  0  0
  147.3272  142.0243  155.0727 C   0  0  0  0  0  0  0  0  0  0  0  0
  148.1845  141.5499  153.9044 C   0  0  0  0  0  0  0  0  0  0  0  0
  149.5644  141.3849  154.5394 C   0  0  0  0  0  0  0  0  0  0  0  0
  151.0123  134.1007  156.6907 C   0  0  0  0  0  0  0  0  0  0  0  0
  150.3865  132.7301  156.3697 C   0  0  0  0  0  0  0  0  0  0  0  0
  150.3988  132.5133  154.9656 O   0  0  0  0  0  0  0  0  0  0  0  0
  149.6557  133.4882  154.2472 C   0  0  0  0  0  0  0  0  0  0  0  0
  150.2447  134.8909  154.4963 C   0  0  0  0  0  0  0  0  0  0  0  0
  148.0109  137.2531  156.0755 H   0  0  0  0  0  0  0  0  0  0  0  0
  146.8287  135.9799  156.2724 H   0  0  0  0  0  0  0  0  0  0  0  0
  147.7755  136.0348  154.8170 H   0  0  0  0  0  0  0  0  0  0  0  0
  148.8937  136.3980  158.4307 H   0  0  0  0  0  0  0  0  0  0  0  0
  149.2751  134.6802  158.5863 H   0  0  0  0  0  0  0  0  0  0  0  0
  147.6280  135.1884  158.3249 H   0  0  0  0  0  0  0  0  0  0  0  0
  151.9871  136.5519  155.6642 H   0  0  0  0  0  0  0  0  0  0  0  0
  150.5141  137.4405  155.7887 H   0  0  0  0  0  0  0  0  0  0  0  0
  150.6214  138.7838  156.5319 H   0  0  0  0  0  0  0  0  0  0  0  0
  152.7321  140.4049  159.0635 H   0  0  0  0  0  0  0  0  0  0  0  0
  152.9047  142.8688  159.3099 H   0  0  0  0  0  0  0  0  0  0  0  0
  151.3369  144.3486  157.9265 H   0  0  0  0  0  0  0  0  0  0  0  0
  147.4172  140.3463  156.4356 H   0  0  0  0  0  0  0  0  0  0  0  0
  147.8382  141.8750  157.1914 H   0  0  0  0  0  0  0  0  0  0  0  0
  146.2667  141.8116  154.9384 H   0  0  0  0  0  0  0  0  0  0  0  0
  147.4385  143.1021  155.1959 H   0  0  0  0  0  0  0  0  0  0  0  0
  147.8215  140.5847  153.5489 H   0  0  0  0  0  0  0  0  0  0  0  0
  148.1837  142.2436  153.0634 H   0  0  0  0  0  0  0  0  0  0  0  0
  150.1172  142.3240  154.4941 H   0  0  0  0  0  0  0  0  0  0  0  0
  150.1527  140.6278  154.0207 H   0  0  0  0  0  0  0  0  0  0  0  0
  152.0468  134.0561  156.3394 H   0  0  0  0  0  0  0  0  0  0  0  0
  151.0908  134.2143  157.7721 H   0  0  0  0  0  0  0  0  0  0  0  0
  150.9643  131.9379  156.8459 H   0  0  0  0  0  0  0  0  0  0  0  0
  149.3697  132.6521  156.7566 H   0  0  0  0  0  0  0  0  0  0  0  0
  149.7067  133.2478  153.1851 H   0  0  0  0  0  0  0  0  0  0  0  0
  148.6036  133.4370  154.5291 H   0  0  0  0  0  0  0  0  0  0  0  0
  149.7246  135.6211  153.8749 H   0  0  0  0  0  0  0  0  0  0  0  0
  151.2656  134.8744  154.1058 H   0  0  0  0  0  0  0  0  0  0  0  0
  148.4871  134.3942  156.3517 H   0  0  0  0  0  0  0  0  0  0  0  0
  149.8278  143.3408  156.4984 H   0  0  0  0  0  0  0  0  0  0  0  0
  1  2  1  0  0  0  0
  1 26  1  0  0  0  0
  1 27  1  0  0  0  0
  1 28  1  0  0  0  0
  2  3  1  0  0  0  0
  2  4  1  0  0  0  0
  2 54  1  0  0  0  0
  3 29  1  0  0  0  0
  3 30  1  0  0  0  0
  3 31  1  0  0  0  0
  4 25  1  0  0  0  0
  4  5  1  0  0  0  0
  4 21  1  0  0  0  0
  5  6  1  0  0  0  0
  5 32  1  0  0  0  0
  5 33  1  0  0  0  0
  6  7  1  0  0  0  0
  7  8  2  0  0  0  0
  7  9  1  0  0  0  0
  9 10  1  0  0  0  0
  9 34  1  0  0  0  0
 10 15  1  0  0  0  0
 10 11  2  0  0  0  0
 11 12  1  0  0  0  0
 11 35  1  0  0  0  0
 12 13  2  0  0  0  0
 12 36  1  0  0  0  0
 13 14  1  0  0  0  0
 13 37  1  0  0  0  0
 14 15  2  0  0  0  0
 14 55  1  0  0  0  0
 15 16  1  0  0  0  0
 16 20  1  0  0  0  0
 16 17  1  0  0  0  0
 17 18  1  0  0  0  0
 17 38  1  0  0  0  0
 17 39  1  0  0  0  0
 18 19  1  0  0  0  0
 18 40  1  0  0  0  0
 18 41  1  0  0  0  0
 19 20  1  0  0  0  0
 19 42  1  0  0  0  0
 19 43  1  0  0  0  0
 20 44  1  0  0  0  0
 20 45  1  0  0  0  0
 21 22  1  0  0  0  0
 21 46  1  0  0  0  0
 21 47  1  0  0  0  0
 22 23  1  0  0  0  0
 22 48  1  0  0  0  0
 22 49  1  0  0  0  0
 23 24  1  0  0  0  0
 24 25  1  0  0  0  0
 24 50  1  0  0  0  0
 24 51  1  0  0  0  0
 25 52  1  0  0  0  0
 25 53  1  0  0  0  0
M  CHG  1   2   1
M  CHG  1   6  -1
M  CHG  1  14   1
M  END
> <s_m_source_file>
AV-unprocessed.smi

> <i_m_source_file_index>
1010

> <i_lp_mmshare_version>
43012

> <i_f3d_flags>
0

> <s_epik_input>
W0NIMl0xW0NIMl1PW0NIMl1bQ0gyXUMxKE4oW0NIM10pW0NIM10pW0NIMl1bTkhdQyg9TylbTkhdYzJbY0hdW2NIXVtjSF1uYzJOM1tDSDJdW0NIMl1bQ0gyXVtDSDJdMw==

> <s_epik_cmdline>
J2VwaWtfcHl0aG9uJywgJy1waCcsICc3LjAnLCAnLXRuJywgJzgnLCAnLW1hJywgJzIwMCcsICctbWV0YWxfYmluZGluZycsICctaW1hZScsICc8aW5maWxlLm1hZT4nLCAnLW9tYWUnLCAnPG91dGZpbGUubWFlPic=

> <r_lp_tautomer_probability>
0.999994

> <r_epik_Ionization_Penalty>
8.43521

> <r_epik_Ionization_Penalty_Charging>
8.43521

> <r_epik_Ionization_Penalty_Neutral>
3.38325e-06

> <r_epik_State_Penalty>
7.95094

> <r_epik_Charging_Adjusted_Penalty>
16.3861

> <i_epik_Tot_Q>
1

> <i_epik_Tot_abs_Q>
3

> <r_epik_Metal_State_Penalty>
3.94206

> <b_epik_Metal_Only>
1

> <s_lp_Force_Field>
OPLS_2005

> <r_lp_Energy>
62.009

> <b_lp_Chiralities_Consistent>
1

> <s_lp_Variant>
AV-unprocessed.smi:1010-4

> <Gold.Version>
5.8.1

> <Gold.Id.Protein>
6NUR|6NUR_protein|mol2

> <Gold.PLP.Fitness>
37.8761

> <Gold.PLP.PLP>
-32.5894

> <Gold.PLP.part.hbond>
-1.0000

> <Gold.PLP.part.metal>
0.0000

> <Gold.PLP.part.buried>
-3.7769

> <Gold.PLP.part.nonpolar>
-28.1307

> <Gold.PLP.part.repulsive>
0.1352

> <Gold.PLP.ligand.clash>
0.1795

> <Gold.PLP.ligand.torsion>
0.5431

> <Gold.PLP.Chemscore.Hbond>
2.0000

> <Gold.PLP.Chemscore.CHOScore>
0.0000

> <Gold.PLP.Chemscore.Metal>
0.0000

> <Gold.Chemscore.Hbonds>
donor molecule, donor type, donor heavy atom, donor atom, acceptor molecule, acceptor atom, score
      L1  H    14    55       P1  8028  2.00

> <Gold.PLP.Chemscore.Internal.Correction>
0.5523

> <Gold.Rescore>
     Score         DG    S(hbond)    S(metal)    S(lipo)     H(rot)  DE(clash)    DE(int)     intcor
     13.35     -15.41       1.00        0.00      91.43       1.60       0.04       2.02       ----

> <Gold.Chemscore.Fitness>
13.3473

> <Gold.Chemscore.DG>
-15.4125

> <Gold.Chemscore.ZeroCoef>
-5.4800

> <Gold.Chemscore.Hbond>
0.9999

> <Gold.Chemscore.Metal>
0.0000

> <Gold.Chemscore.Lipo>
91.4293

> <Gold.Chemscore.Internal_Hbond>
0.0000

> <Gold.Chemscore.DEClash>
0.0450

> <Gold.Chemscore.DEInternal>
2.0202

> <Gold.Chemscore.Rot>
1.6033

> <Gold.Chemscore.Internal.Correction>
   9.000000E+99

> <Gold.Chemscore.Hbonds>
donor molecule, donor type, donor heavy atom, donor atom, acceptor molecule, acceptor atom, score
      L1  H    14    55       P1  8028  1.00

> <Gold.Chemscore.Hbond.Weighted>
-3.3398

> <Gold.Chemscore.Metal.Weighted>
-0.0000

> <Gold.Chemscore.Lipo.Weighted>
-10.6972

> <Gold.Chemscore.Internal_Hbond.Weighted>
0.0000

> <Gold.Chemscore.DEClash.Weighted>
0.0450

> <Gold.Chemscore.DEInternal.Weighted>
2.0202

> <Gold.Chemscore.Rot.Weighted>
4.1046

> <Gold.Chemscore.Internal.Correction.Weighted>
   9.000000E+99

> <Gold.Protein.RotatedTorsions>
[ 6907 6896 6895 6894 ] final    4.40 input  -60.11 | X-H torsion
[ 7974 7965 7964 7962 ] final  139.77 input  175.53 | X-H torsion
[ 8008 7997 7996 7995 ] final -117.48 input   59.86 | X-H torsion
[ 10167 10162 10161 10158 ] final  -74.98 input  -65.29 | X-H torsion
[ 10718 10713 10712 10709 ] final   79.32 input   66.30 | X-H torsion
[ 10763 10752 10751 10750 ] final -103.86 input  -60.55 | X-H torsion
[ 11005 11000 10999 10996 ] final  -36.28 input  -57.11 | X-H torsion

> <Gold.Protein.ActiveResidues>
 VAL166  LYS551  ARG553  GLY616  TRP617  ASP618  TYR619  PRO620  LYS621  CYS622 
 ASP623  PHE694  ASN695  SER759  ASP760  ASP761  ALA762  ILE779  LEU786  VAL792 
 PHE793  MET794  SER795  GLU796  ALA797  LYS798  CYS799  TRP800  GLU811  SER814 

> <Gold.Protein.RotatedAtoms>
  151.6406  135.1013  160.0140 H   0  0  0  0  0  0  0  0  0  0  0  0  # atno 6907 bound_to 6896
  152.4056  133.6879  159.6362 H   0  0  0  0  0  0  0  0  0  0  0  0  # atno 6908 bound_to 6896
  150.7951  133.8632  159.3278 H   0  0  0  0  0  0  0  0  0  0  0  0  # atno 6909 bound_to 6896
  144.9248  139.5121  143.5646 H   0  0  0  0  0  0  0  0  0  0  0  0  # atno 7974 bound_to 7965
  155.0844  140.0394  157.2649 H   0  0  0  0  0  0  0  0  0  0  0  0  # atno 8008 bound_to 7997
  154.6881  140.2647  155.6815 H   0  0  0  0  0  0  0  0  0  0  0  0  # atno 8009 bound_to 7997
  156.2719  140.2765  156.1450 H   0  0  0  0  0  0  0  0  0  0  0  0  # atno 8010 bound_to 7997
  140.4981  143.2366  151.7797 H   0  0  0  0  0  0  0  0  0  0  0  0  # atno 10167 bound_to 10162
  157.6773  130.9908  150.1915 H   0  0  0  0  0  0  0  0  0  0  0  0  # atno 10718 bound_to 10713
  154.7837  135.4808  153.9900 H   0  0  0  0  0  0  0  0  0  0  0  0  # atno 10763 bound_to 10752
  153.1530  135.6794  153.8861 H   0  0  0  0  0  0  0  0  0  0  0  0  # atno 10764 bound_to 10752
  153.8499  135.3168  155.3410 H   0  0  0  0  0  0  0  0  0  0  0  0  # atno 10765 bound_to 10752
  140.9862  133.7029  156.1769 H   0  0  0  0  0  0  0  0  0  0  0  0  # atno 11005 bound_to 11000
  146.3221  139.8155  142.8937 LP  0  0  0  0  0  0  0  0  0  0  0  0  # atno 17320 bound_to 7965
  145.3237  141.0250  143.3486 LP  0  0  0  0  0  0  0  0  0  0  0  0  # atno 17321 bound_to 7965
  139.4866  144.4559  151.9599 LP  0  0  0  0  0  0  0  0  0  0  0  0  # atno 17342 bound_to 10162
  140.3647  144.2930  150.5928 LP  0  0  0  0  0  0  0  0  0  0  0  0  # atno 17343 bound_to 10162
  156.2625  130.3712  149.8115 LP  0  0  0  0  0  0  0  0  0  0  0  0  # atno 17370 bound_to 10713
  156.5856  130.8484  151.3394 LP  0  0  0  0  0  0  0  0  0  0  0  0  # atno 17371 bound_to 10713
  140.7111  134.4461  157.5581 LP  0  0  0  0  0  0  0  0  0  0  0  0  # atno 17394 bound_to 11000
  139.8971  134.8643  156.2056 LP  0  0  0  0  0  0  0  0  0  0  0  0  # atno 17395 bound_to 11000

$$$$
