AV-unprocessed.smi:3269|AV-procd|sdf|12511|dock10
  -GOLD-   2272018423D 1   1.00000     0.00000
 Structure written by MMmdl.
 39 40  0  0  0  0  0  0  0  0  1 V2000
  150.5375  141.4285  156.3108 C   0  0  0  0  0  0  0  0  0  0  0  0
  151.2080  142.0923  157.4794 C   0  0  0  0  0  0  0  0  0  0  0  0
  151.3770  143.4040  157.4729 N   0  0  0  0  0  0  0  0  0  0  0  0
  151.9848  143.6785  158.6443 N   0  0  0  0  0  0  0  0  0  0  0  0
  152.3124  145.0526  158.9714 C   0  0  0  0  0  0  0  0  0  0  0  0
  152.2057  142.5371  159.3901 C   0  0  0  0  0  0  0  0  0  0  0  0
  152.8600  142.5804  160.7336 C   0  0  0  0  0  0  0  0  0  0  0  0
  151.7132  141.4836  158.6656 C   0  0  0  0  0  0  0  0  0  0  0  0
  151.6856  140.0188  159.0234 C   0  0  0  0  0  0  0  0  0  0  0  0
  153.1147  139.5348  159.2648 C   0  0  0  0  0  0  0  0  0  0  0  0
  153.9315  139.5388  158.3437 O   0  0  0  0  0  0  0  0  0  0  0  0
  153.3908  139.0888  160.4994 N   0  0  0  0  0  0  0  0  0  0  0  0
  154.6343  138.4438  160.8998 C   0  0  0  0  0  0  0  0  0  0  0  0
  154.6895  138.2679  162.4260 C   0  0  1  0  0  0  0  0  0  0  0  0
  153.6247  137.3280  162.9866 C   0  0  0  0  0  0  0  0  0  0  0  0
  154.2518  136.8039  164.2706 C   0  0  0  0  0  0  0  0  0  0  0  0
  155.7265  137.2034  164.1604 C   0  0  0  0  0  0  0  0  0  0  0  0
  155.8935  137.6258  162.8153 O   0  0  0  0  0  0  0  0  0  0  0  0
  149.7275  140.7797  156.6444 H   0  0  0  0  0  0  0  0  0  0  0  0
  151.2456  140.8155  155.7532 H   0  0  0  0  0  0  0  0  0  0  0  0
  150.1125  142.1571  155.6193 H   0  0  0  0  0  0  0  0  0  0  0  0
  153.3885  145.1484  159.1184 H   0  0  0  0  0  0  0  0  0  0  0  0
  151.7991  145.3425  159.8885 H   0  0  0  0  0  0  0  0  0  0  0  0
  152.0055  145.7242  158.1683 H   0  0  0  0  0  0  0  0  0  0  0  0
  153.0742  141.5780  161.1030 H   0  0  0  0  0  0  0  0  0  0  0  0
  152.2145  143.0736  161.4603 H   0  0  0  0  0  0  0  0  0  0  0  0
  153.8027  143.1260  160.6910 H   0  0  0  0  0  0  0  0  0  0  0  0
  151.0982  139.8378  159.9241 H   0  0  0  0  0  0  0  0  0  0  0  0
  151.2201  139.4236  158.2367 H   0  0  0  0  0  0  0  0  0  0  0  0
  152.6568  139.1269  161.1915 H   0  0  0  0  0  0  0  0  0  0  0  0
  154.7357  137.4788  160.4006 H   0  0  0  0  0  0  0  0  0  0  0  0
  155.4675  139.0597  160.5602 H   0  0  0  0  0  0  0  0  0  0  0  0
  154.6244  139.2355  162.9281 H   0  0  0  0  0  0  0  0  0  0  0  0
  152.6704  137.8287  163.1533 H   0  0  0  0  0  0  0  0  0  0  0  0
  153.4533  136.4978  162.2999 H   0  0  0  0  0  0  0  0  0  0  0  0
  153.7963  137.2530  165.1539 H   0  0  0  0  0  0  0  0  0  0  0  0
  154.1333  135.7225  164.3446 H   0  0  0  0  0  0  0  0  0  0  0  0
  155.9495  138.0381  164.8268 H   0  0  0  0  0  0  0  0  0  0  0  0
  156.4035  136.3841  164.4030 H   0  0  0  0  0  0  0  0  0  0  0  0
  1  2  1  0  0  0  0
  1 19  1  0  0  0  0
  1 20  1  0  0  0  0
  1 21  1  0  0  0  0
  2  8  1  0  0  0  0
  2  3  2  0  0  0  0
  3  4  1  0  0  0  0
  4  5  1  0  0  0  0
  4  6  1  0  0  0  0
  5 22  1  0  0  0  0
  5 23  1  0  0  0  0
  5 24  1  0  0  0  0
  6  7  1  0  0  0  0
  6  8  2  0  0  0  0
  7 25  1  0  0  0  0
  7 26  1  0  0  0  0
  7 27  1  0  0  0  0
  8  9  1  0  0  0  0
  9 10  1  0  0  0  0
  9 28  1  0  0  0  0
  9 29  1  0  0  0  0
 10 11  2  0  0  0  0
 10 12  1  0  0  0  0
 12 13  1  0  0  0  0
 12 30  1  0  0  0  0
 13 14  1  0  0  0  0
 13 31  1  0  0  0  0
 13 32  1  0  0  0  0
 14 18  1  0  0  0  0
 14 15  1  0  0  0  0
 14 33  1  0  0  0  0
 15 16  1  0  0  0  0
 15 34  1  0  0  0  0
 15 35  1  0  0  0  0
 16 17  1  0  0  0  0
 16 36  1  0  0  0  0
 16 37  1  0  0  0  0
 17 18  1  0  0  0  0
 17 38  1  0  0  0  0
 17 39  1  0  0  0  0
M  END
> <s_m_source_file>
AV-unprocessed.smi

> <i_m_source_file_index>
3269

> <i_lp_mmshare_version>
43012

> <i_f3d_flags>
0

> <s_epik_input>
W0NIM11jMW5uKFtDSDNdKWMoW0NIM10pYzFbQ0gyXUMoPU8pW05IXVtDSDJdW0NAQEhdMltDSDJdW0NIMl1bQ0gyXU8y

> <s_epik_cmdline>
J2VwaWtfcHl0aG9uJywgJy1waCcsICc3LjAnLCAnLXRuJywgJzgnLCAnLW1hJywgJzIwMCcsICctbWV0YWxfYmluZGluZycsICctaW1hZScsICc8aW5maWxlLm1hZT4nLCAnLW9tYWUnLCAnPG91dGZpbGUubWFlPic=

> <r_lp_tautomer_probability>
1

> <r_epik_Ionization_Penalty>
0.00306713

> <r_epik_Ionization_Penalty_Charging>
0

> <r_epik_Ionization_Penalty_Neutral>
0.00306713

> <r_epik_State_Penalty>
0.00215672

> <r_epik_Charging_Adjusted_Penalty>
0.00215672

> <i_epik_Tot_Q>
0

> <i_epik_Tot_abs_Q>
0

> <r_epik_Metal_State_Penalty>
-0

> <b_epik_Metal_Only>
0

> <s_lp_Force_Field>
OPLS_2005

> <r_lp_Energy>
10.8306

> <b_lp_Chiralities_Consistent>
1

> <s_lp_Variant>
AV-unprocessed.smi:3269-2

> <Gold.Version>
5.8.1

> <Gold.Id.Protein>
6NUR|6NUR_protein|mol2

> <Gold.PLP.Fitness>
41.3506

> <Gold.PLP.PLP>
-38.4542

> <Gold.PLP.part.hbond>
-0.8570

> <Gold.PLP.part.metal>
0.0000

> <Gold.PLP.part.buried>
-3.7969

> <Gold.PLP.part.nonpolar>
-34.3128

> <Gold.PLP.part.repulsive>
0.1750

> <Gold.PLP.ligand.clash>
0.0000

> <Gold.PLP.ligand.torsion>
0.0588

> <Gold.PLP.Chemscore.Hbond>
1.0000

> <Gold.PLP.Chemscore.CHOScore>
0.0000

> <Gold.PLP.Chemscore.Metal>
0.0000

> <Gold.Chemscore.Hbonds>
donor molecule, donor type, donor heavy atom, donor atom, acceptor molecule, acceptor atom, score
      P1  H  7997  8009       L1    11  1.00

> <Gold.PLP.Chemscore.Internal.Correction>
0.0139

> <Gold.Rescore>
     Score         DG    S(hbond)    S(metal)    S(lipo)     H(rot)  DE(clash)    DE(int)     intcor
     16.60     -16.83       0.94        0.00     103.03       1.50       0.12       0.11       ----

> <Gold.Chemscore.Fitness>
16.6014

> <Gold.Chemscore.DG>
-16.8255

> <Gold.Chemscore.ZeroCoef>
-5.4800

> <Gold.Chemscore.Hbond>
0.9365

> <Gold.Chemscore.Metal>
0.0000

> <Gold.Chemscore.Lipo>
103.0324

> <Gold.Chemscore.Internal_Hbond>
0.0000

> <Gold.Chemscore.DEClash>
0.1156

> <Gold.Chemscore.DEInternal>
0.1084

> <Gold.Chemscore.Rot>
1.4989

> <Gold.Chemscore.Internal.Correction>
   9.000000E+99

> <Gold.Chemscore.Hbonds>
donor molecule, donor type, donor heavy atom, donor atom, acceptor molecule, acceptor atom, score
      P1  H  7997  8009       L1    11  0.94

> <Gold.Chemscore.Hbond.Weighted>
-3.1277

> <Gold.Chemscore.Metal.Weighted>
-0.0000

> <Gold.Chemscore.Lipo.Weighted>
-12.0548

> <Gold.Chemscore.Internal_Hbond.Weighted>
0.0000

> <Gold.Chemscore.DEClash.Weighted>
0.1156

> <Gold.Chemscore.DEInternal.Weighted>
0.1084

> <Gold.Chemscore.Rot.Weighted>
3.8371

> <Gold.Chemscore.Internal.Correction.Weighted>
   9.000000E+99

> <Gold.Protein.RotatedTorsions>
[ 6907 6896 6895 6894 ] final  164.71 input  -60.11 | X-H torsion
[ 7974 7965 7964 7962 ] final  -54.34 input  175.53 | X-H torsion
[ 8008 7997 7996 7995 ] final  124.06 input   59.86 | X-H torsion
[ 10167 10162 10161 10158 ] final  132.11 input  -65.29 | X-H torsion
[ 10718 10713 10712 10709 ] final -124.53 input   66.30 | X-H torsion
[ 10763 10752 10751 10750 ] final  -75.13 input  -60.55 | X-H torsion
[ 11005 11000 10999 10996 ] final   81.62 input  -57.11 | X-H torsion

> <Gold.Protein.ActiveResidues>
 VAL166  LYS551  ARG553  GLY616  TRP617  ASP618  TYR619  PRO620  LYS621  CYS622 
 ASP623  PHE694  ASN695  SER759  ASP760  ASP761  ALA762  ILE779  LEU786  VAL792 
 PHE793  MET794  SER795  GLU796  ALA797  LYS798  CYS799  TRP800  GLU811  SER814 

> <Gold.Protein.RotatedAtoms>
  151.9057  133.3548  159.3845 H   0  0  0  0  0  0  0  0  0  0  0  0  # atno 6907 bound_to 6896
  150.7070  134.4783  159.5467 H   0  0  0  0  0  0  0  0  0  0  0  0  # atno 6908 bound_to 6896
  152.2380  134.8257  160.0515 H   0  0  0  0  0  0  0  0  0  0  0  0  # atno 6909 bound_to 6896
  145.8867  140.8103  142.9812 H   0  0  0  0  0  0  0  0  0  0  0  0  # atno 7974 bound_to 7965
  156.2788  140.2748  156.1727 H   0  0  0  0  0  0  0  0  0  0  0  0  # atno 8008 bound_to 7997
  155.0638  140.0387  157.2603 H   0  0  0  0  0  0  0  0  0  0  0  0  # atno 8009 bound_to 7997
  154.7095  140.2666  155.6648 H   0  0  0  0  0  0  0  0  0  0  0  0  # atno 8010 bound_to 7997
  139.5354  144.6676  151.4805 H   0  0  0  0  0  0  0  0  0  0  0  0  # atno 10167 bound_to 10162
  156.1596  130.6592  151.0030 H   0  0  0  0  0  0  0  0  0  0  0  0  # atno 10718 bound_to 10713
  154.4824  135.5841  153.6399 H   0  0  0  0  0  0  0  0  0  0  0  0  # atno 10763 bound_to 10752
  152.9849  135.6093  154.3229 H   0  0  0  0  0  0  0  0  0  0  0  0  # atno 10764 bound_to 10752
  154.3121  135.2845  155.2540 H   0  0  0  0  0  0  0  0  0  0  0  0  # atno 10765 bound_to 10752
  139.9092  134.8010  156.2065 H   0  0  0  0  0  0  0  0  0  0  0  0  # atno 11005 bound_to 11000
  144.6729  140.1466  143.7433 LP  0  0  0  0  0  0  0  0  0  0  0  0  # atno 17320 bound_to 7965
  145.8958  139.2402  143.1522 LP  0  0  0  0  0  0  0  0  0  0  0  0  # atno 17321 bound_to 7965
  140.6557  143.8604  150.6832 LP  0  0  0  0  0  0  0  0  0  0  0  0  # atno 17342 bound_to 10162
  140.1983  143.3980  152.1811 LP  0  0  0  0  0  0  0  0  0  0  0  0  # atno 17343 bound_to 10162
  157.6722  131.0859  150.7584 LP  0  0  0  0  0  0  0  0  0  0  0  0  # atno 17370 bound_to 10713
  156.7648  130.4810  149.5430 LP  0  0  0  0  0  0  0  0  0  0  0  0  # atno 17371 bound_to 10713
  141.0492  133.6897  156.1740 LP  0  0  0  0  0  0  0  0  0  0  0  0  # atno 17394 bound_to 11000
  140.6836  134.4740  157.5589 LP  0  0  0  0  0  0  0  0  0  0  0  0  # atno 17395 bound_to 11000

$$$$
