AV-unprocessed.smi:35|AV-procd|sdf|257|dock4
  -GOLD-   2262016 23D 1   1.00000     0.00000
 Structure written by MMmdl.
 29 30  0  0  0  0  0  0  0  0  1 V2000
  140.2409  135.1339  153.8928 O   0  0  0  0  0  0  0  0  0  0  0  0
  141.4084  135.5003  153.7782 C   0  0  0  0  0  0  0  0  0  0  0  0
  142.4544  134.5869  153.9421 N   0  0  0  0  0  0  0  0  0  0  0  0
  143.8154  134.8833  153.8380 C   0  0  0  0  0  0  0  0  0  0  0  0
  144.6500  133.9920  153.9884 O   0  0  0  0  0  0  0  0  0  0  0  0
  144.1611  136.2223  153.5470 N   0  0  0  0  0  0  0  0  0  0  0  0
  145.6152  136.6282  153.4373 C   0  0  2  0  0  0  0  0  0  0  0  0
  145.8171  137.7101  154.2915 O   0  0  0  0  0  0  0  0  0  0  0  0
  146.7001  138.6359  153.6782 C   0  0  2  0  0  0  0  0  0  0  0  0
  146.4829  140.0248  154.2992 C   0  0  0  0  0  0  0  0  0  0  0  0
  145.1689  140.1451  154.8000 O   0  0  0  0  0  0  0  0  0  0  0  0
  146.3599  138.5331  152.1864 C   0  0  1  0  0  0  0  0  0  0  0  0
  147.4766  138.8879  151.3945 O   0  0  0  0  0  0  0  0  0  0  0  0
  146.0248  137.0562  152.0084 C   0  0  2  0  0  0  0  0  0  0  0  0
  145.0159  136.8833  151.0287 O   0  0  0  0  0  0  0  0  0  0  0  0
  143.1560  137.1632  153.3697 C   0  0  0  0  0  0  0  0  0  0  0  0
  141.8414  136.8589  153.4707 C   0  0  0  0  0  0  0  0  0  0  0  0
  140.5638  138.3441  153.1776 Br  0  0  0  0  0  0  0  0  0  0  0  0
  142.2040  133.6312  154.1511 H   0  0  0  0  0  0  0  0  0  0  0  0
  146.2201  135.8002  153.8098 H   0  0  0  0  0  0  0  0  0  0  0  0
  147.7169  138.2843  153.8660 H   0  0  0  0  0  0  0  0  0  0  0  0
  147.2019  140.2157  155.0965 H   0  0  0  0  0  0  0  0  0  0  0  0
  146.6279  140.7975  153.5438 H   0  0  0  0  0  0  0  0  0  0  0  0
  144.5617  139.9798  154.0950 H   0  0  0  0  0  0  0  0  0  0  0  0
  145.4999  139.1609  151.9468 H   0  0  0  0  0  0  0  0  0  0  0  0
  148.0125  139.4942  151.8822 H   0  0  0  0  0  0  0  0  0  0  0  0
  146.9083  136.4790  151.7308 H   0  0  0  0  0  0  0  0  0  0  0  0
  144.8719  137.7126  150.5985 H   0  0  0  0  0  0  0  0  0  0  0  0
  143.4294  138.1818  153.1337 H   0  0  0  0  0  0  0  0  0  0  0  0
  1  2  2  0  0  0  0
  2 17  1  0  0  0  0
  2  3  1  0  0  0  0
  3 19  1  0  0  0  0
  3  4  1  0  0  0  0
  4  5  2  0  0  0  0
  4  6  1  0  0  0  0
  6  7  1  0  0  0  0
  6 16  1  0  0  0  0
  7 14  1  0  0  0  0
  7  8  1  0  0  0  0
  7 20  1  0  0  0  0
  8  9  1  0  0  0  0
  9 10  1  0  0  0  0
  9 12  1  0  0  0  0
  9 21  1  0  0  0  0
 10 11  1  0  0  0  0
 10 22  1  0  0  0  0
 10 23  1  0  0  0  0
 11 24  1  0  0  0  0
 12 13  1  0  0  0  0
 12 14  1  0  0  0  0
 12 25  1  0  0  0  0
 13 26  1  0  0  0  0
 14 15  1  0  0  0  0
 14 27  1  0  0  0  0
 15 28  1  0  0  0  0
 16 17  2  0  0  0  0
 16 29  1  0  0  0  0
 17 18  1  0  0  0  0
M  END
> <s_m_source_file>
AV-unprocessed.smi

> <i_m_source_file_index>
35

> <i_lp_mmshare_version>
43012

> <i_f3d_flags>
0

> <s_epik_input>
Tz1jMVtuSF1jKD1PKW4oW2NIXWMxQnIpW0NAQEhdMk9bQ0BASF0oW0NIMl1bT0hdKVtDQEBIXShbT0hdKVtDQEhdMltPSF0=

> <s_epik_cmdline>
J2VwaWtfcHl0aG9uJywgJy1waCcsICc3LjAnLCAnLXRuJywgJzgnLCAnLW1hJywgJzIwMCcsICctbWV0YWxfYmluZGluZycsICctaW1hZScsICc8aW5maWxlLm1hZT4nLCAnLW9tYWUnLCAnPG91dGZpbGUubWFlPic=

> <r_lp_tautomer_probability>
0.999537

> <r_epik_Ionization_Penalty>
0.10812

> <r_epik_Ionization_Penalty_Charging>
0.108119

> <r_epik_Ionization_Penalty_Neutral>
4.93006e-07

> <r_epik_State_Penalty>
0.0979238

> <r_epik_Charging_Adjusted_Penalty>
0.206043

> <i_epik_Tot_Q>
0

> <i_epik_Tot_abs_Q>
0

> <r_epik_Metal_State_Penalty>
3.07911

> <b_epik_Metal_Only>
0

> <s_epik_Chemistry_Notes>
This compound contains an acetal/aminal-like group ( X-CH(R)-Y where X, Y are N, S, or O) that may be acid/base labile, releasing an aldehyde.

> <s_lp_Force_Field>
OPLS_2005

> <r_lp_Energy>
32.3775

> <b_lp_Chiralities_Consistent>
1

> <s_lp_Variant>
AV-unprocessed.smi:35-11

> <Gold.Version>
5.8.1

> <Gold.Id.Protein>
6NUR|6NUR_protein|mol2

> <Gold.PLP.Fitness>
41.1530

> <Gold.PLP.PLP>
-23.5014

> <Gold.PLP.part.hbond>
-7.0473

> <Gold.PLP.part.metal>
0.0000

> <Gold.PLP.part.buried>
-1.4878

> <Gold.PLP.part.nonpolar>
-17.0811

> <Gold.PLP.part.repulsive>
0.7437

> <Gold.PLP.ligand.clash>
0.0000

> <Gold.PLP.ligand.torsion>
0.4943

> <Gold.PLP.Chemscore.Hbond>
5.1513

> <Gold.PLP.Chemscore.CHOScore>
1.0000

> <Gold.PLP.Chemscore.Metal>
0.0000

> <Gold.Chemscore.Hbonds>
donor molecule, donor type, donor heavy atom, donor atom, acceptor molecule, acceptor atom, score
      L1  H     3    19       P1 10957  1.00
      L1  H    11    24       P1 10175  1.00
      L1  H    13    26       P1  7957  0.34
      L1  H    15    28       P1 10171  0.93
      P1  H  7954  7966       L1    13  0.85
      P1  H 11000 11005       L1     1  1.00
      L1  C    16    29       P1 10175  1.00

> <Gold.PLP.Chemscore.Internal.Correction>
0.1864

> <Gold.Rescore>
     Score         DG    S(hbond)    S(metal)    S(lipo)     H(rot)  DE(clash)    DE(int)     intcor
     14.74     -16.99       4.89        0.00      38.91       3.67       0.61       1.63       ----

> <Gold.Chemscore.Fitness>
14.7393

> <Gold.Chemscore.DG>
-16.9862

> <Gold.Chemscore.ZeroCoef>
-5.4800

> <Gold.Chemscore.Hbond>
4.8949

> <Gold.Chemscore.Metal>
0.0000

> <Gold.Chemscore.Lipo>
38.9132

> <Gold.Chemscore.Internal_Hbond>
0.0000

> <Gold.Chemscore.DEClash>
0.6119

> <Gold.Chemscore.DEInternal>
1.6350

> <Gold.Chemscore.Rot>
3.6701

> <Gold.Chemscore.Internal.Correction>
   9.000000E+99

> <Gold.Chemscore.Hbonds>
donor molecule, donor type, donor heavy atom, donor atom, acceptor molecule, acceptor atom, score
      L1  H     3    19       P1 10957  0.92
      L1  H    11    24       P1 10175  0.96
      L1  H    13    26       P1  7957  0.34
      L1  H    15    28       P1 10171  0.85
      P1  H  7954  7966       L1    13  0.83
      P1  H 11000 11005       L1     1  0.43

> <Gold.Chemscore.Hbond.Weighted>
-16.3488

> <Gold.Chemscore.Metal.Weighted>
-0.0000

> <Gold.Chemscore.Lipo.Weighted>
-4.5528

> <Gold.Chemscore.Internal_Hbond.Weighted>
0.0000

> <Gold.Chemscore.DEClash.Weighted>
0.6119

> <Gold.Chemscore.DEInternal.Weighted>
1.6350

> <Gold.Chemscore.Rot.Weighted>
9.3955

> <Gold.Chemscore.Internal.Correction.Weighted>
   9.000000E+99

> <Gold.Protein.RotatedTorsions>
[ 6907 6896 6895 6894 ] final  -96.19 input  -60.11 | X-H torsion
[ 7974 7965 7964 7962 ] final  134.97 input  175.53 | X-H torsion
[ 8008 7997 7996 7995 ] final -178.86 input   59.86 | X-H torsion
[ 10167 10162 10161 10158 ] final  140.71 input  -65.29 | X-H torsion
[ 10718 10713 10712 10709 ] final -130.96 input   66.30 | X-H torsion
[ 10763 10752 10751 10750 ] final   96.72 input  -60.55 | X-H torsion
[ 11005 11000 10999 10996 ] final   47.41 input  -57.11 | X-H torsion

> <Gold.Protein.ActiveResidues>
 VAL166  LYS551  ARG553  GLY616  TRP617  ASP618  TYR619  PRO620  LYS621  CYS622 
 ASP623  PHE694  ASN695  SER759  ASP760  ASP761  ALA762  ILE779  LEU786  VAL792 
 PHE793  MET794  SER795  GLU796  ALA797  LYS798  CYS799  TRP800  GLU811  SER814 

> <Gold.Protein.RotatedAtoms>
  150.6982  134.1542  159.4151 H   0  0  0  0  0  0  0  0  0  0  0  0  # atno 6907 bound_to 6896
  151.9524  135.0160  160.0552 H   0  0  0  0  0  0  0  0  0  0  0  0  # atno 6908 bound_to 6896
  152.1999  133.4798  159.5090 H   0  0  0  0  0  0  0  0  0  0  0  0  # atno 6909 bound_to 6896
  144.9710  139.4605  143.5433 H   0  0  0  0  0  0  0  0  0  0  0  0  # atno 7974 bound_to 7965
  156.0238  140.1267  157.0330 H   0  0  0  0  0  0  0  0  0  0  0  0  # atno 8008 bound_to 7997
  154.4322  140.1063  156.6071 H   0  0  0  0  0  0  0  0  0  0  0  0  # atno 8009 bound_to 7997
  155.5906  140.3469  155.4568 H   0  0  0  0  0  0  0  0  0  0  0  0  # atno 8010 bound_to 7997
  139.5041  144.6217  151.6034 H   0  0  0  0  0  0  0  0  0  0  0  0  # atno 10167 bound_to 10162
  156.2196  130.6970  151.0741 H   0  0  0  0  0  0  0  0  0  0  0  0  # atno 10718 bound_to 10713
  153.2684  135.4208  155.0963 H   0  0  0  0  0  0  0  0  0  0  0  0  # atno 10763 bound_to 10752
  154.8446  135.3466  154.6279 H   0  0  0  0  0  0  0  0  0  0  0  0  # atno 10764 bound_to 10752
  153.6699  135.7044  153.5207 H   0  0  0  0  0  0  0  0  0  0  0  0  # atno 10765 bound_to 10752
  140.1281  134.4741  155.8543 H   0  0  0  0  0  0  0  0  0  0  0  0  # atno 11005 bound_to 11000
  146.3382  139.8922  142.8807 LP  0  0  0  0  0  0  0  0  0  0  0  0  # atno 17320 bound_to 7965
  145.2559  141.0060  143.3854 LP  0  0  0  0  0  0  0  0  0  0  0  0  # atno 17321 bound_to 7965
  140.5922  143.9760  150.6331 LP  0  0  0  0  0  0  0  0  0  0  0  0  # atno 17342 bound_to 10162
  140.2944  143.3302  152.1032 LP  0  0  0  0  0  0  0  0  0  0  0  0  # atno 17343 bound_to 10162
  157.7081  131.0747  150.6597 LP  0  0  0  0  0  0  0  0  0  0  0  0  # atno 17370 bound_to 10713
  156.6660  130.4526  149.5672 LP  0  0  0  0  0  0  0  0  0  0  0  0  # atno 17371 bound_to 10713
  141.2165  133.6785  156.7017 LP  0  0  0  0  0  0  0  0  0  0  0  0  # atno 17394 bound_to 11000
  140.2877  134.8266  157.3989 LP  0  0  0  0  0  0  0  0  0  0  0  0  # atno 17395 bound_to 11000

$$$$
