AV-unprocessed.smi:513|AV-procd|sdf|2775|dock4
  -GOLD-   2262023243D 1   1.00000     0.00000
 Structure written by MMmdl.
 41 43  0  0  0  0  0  0  0  0  2 V2000
  150.5589  135.3258  154.4501 C   0  0  0  0  0  0  0  0  0  0  0  0
  151.0209  136.6609  154.3567 O   0  0  0  0  0  0  0  0  0  0  0  0
  150.3872  137.5252  155.2850 C   0  0  0  0  0  0  0  0  0  0  0  0
  150.3892  138.9680  154.7579 C   0  0  0  0  0  0  0  0  0  0  0  0
  150.5636  139.9477  155.8272 N   0  0  0  0  0  0  0  0  0  0  0  0
  149.7800  141.0241  156.0860 C   0  0  0  0  0  0  0  0  0  0  0  0
  148.6630  141.2960  155.3046 N   0  0  0  0  0  0  0  0  0  0  0  0
  147.4696  141.9837  155.7837 C   0  0  0  0  0  0  0  0  0  0  0  0
  146.1886  141.3236  155.2382 C   0  0  0  0  0  0  0  0  0  0  0  0
  146.1951  141.3660  153.7801 N   0  0  0  0  0  0  0  0  0  0  0  0
  147.3646  140.6364  153.3031 C   0  0  0  0  0  0  0  0  0  0  0  0
  148.6484  141.2945  153.8463 C   0  0  0  0  0  0  0  0  0  0  0  0
  150.1622  141.7678  157.1245 N   0  0  0  0  0  0  0  0  0  0  0  0
  151.2965  141.1023  157.5669 C   0  0  0  0  0  0  0  0  0  0  0  0
  151.5613  140.0068  156.8049 C   0  0  0  0  0  0  0  0  0  0  0  0
  152.7114  139.1055  157.0344 C   0  0  0  0  0  0  0  0  0  0  0  0
  152.9071  138.1274  156.3160 O   0  0  0  0  0  0  0  0  0  0  0  0
  153.4740  139.5047  158.1013 N   0  5  0  0  0  0  0  0  0  0  0  0
  153.2418  140.6046  158.8999 C   0  0  0  0  0  0  0  0  0  0  0  0
  153.9862  140.8861  159.8394 O   0  0  0  0  0  0  0  0  0  0  0  0
  152.1602  141.4108  158.6507 N   0  0  0  0  0  0  0  0  0  0  0  0
  151.8409  142.5940  159.4554 C   0  0  0  0  0  0  0  0  0  0  0  0
  151.0816  134.7063  153.7214 H   0  0  0  0  0  0  0  0  0  0  0  0
  149.4902  135.2642  154.2408 H   0  0  0  0  0  0  0  0  0  0  0  0
  150.7474  134.9112  155.4411 H   0  0  0  0  0  0  0  0  0  0  0  0
  149.3624  137.1933  155.4532 H   0  0  0  0  0  0  0  0  0  0  0  0
  150.9034  137.4837  156.2450 H   0  0  0  0  0  0  0  0  0  0  0  0
  151.1891  139.0922  154.0281 H   0  0  0  0  0  0  0  0  0  0  0  0
  149.4710  139.1804  154.2137 H   0  0  0  0  0  0  0  0  0  0  0  0
  147.4587  141.9621  156.8739 H   0  0  0  0  0  0  0  0  0  0  0  0
  147.5145  143.0338  155.4916 H   0  0  0  0  0  0  0  0  0  0  0  0
  146.1070  140.2912  155.5812 H   0  0  0  0  0  0  0  0  0  0  0  0
  145.3091  141.8538  155.6040 H   0  0  0  0  0  0  0  0  0  0  0  0
  145.3558  140.9308  153.4249 H   0  0  0  0  0  0  0  0  0  0  0  0
  147.3013  139.5922  153.6120 H   0  0  0  0  0  0  0  0  0  0  0  0
  147.3690  140.6490  152.2132 H   0  0  0  0  0  0  0  0  0  0  0  0
  148.7381  142.3189  153.4821 H   0  0  0  0  0  0  0  0  0  0  0  0
  149.5224  140.7547  153.4804 H   0  0  0  0  0  0  0  0  0  0  0  0
  152.5274  142.7761  160.2827 H   0  0  0  0  0  0  0  0  0  0  0  0
  150.8418  142.4938  159.8804 H   0  0  0  0  0  0  0  0  0  0  0  0
  151.8486  143.4835  158.8248 H   0  0  0  0  0  0  0  0  0  0  0  0
  1  2  1  0  0  0  0
  1 23  1  0  0  0  0
  1 24  1  0  0  0  0
  1 25  1  0  0  0  0
  2  3  1  0  0  0  0
  3  4  1  0  0  0  0
  3 26  1  0  0  0  0
  3 27  1  0  0  0  0
  4  5  1  0  0  0  0
  4 28  1  0  0  0  0
  4 29  1  0  0  0  0
  5 15  1  0  0  0  0
  5  6  1  0  0  0  0
  6  7  1  0  0  0  0
  6 13  2  0  0  0  0
  7 12  1  0  0  0  0
  7  8  1  0  0  0  0
  8  9  1  0  0  0  0
  8 30  1  0  0  0  0
  8 31  1  0  0  0  0
  9 10  1  0  0  0  0
  9 32  1  0  0  0  0
  9 33  1  0  0  0  0
 10 11  1  0  0  0  0
 10 34  1  0  0  0  0
 11 12  1  0  0  0  0
 11 35  1  0  0  0  0
 11 36  1  0  0  0  0
 12 37  1  0  0  0  0
 12 38  1  0  0  0  0
 13 14  1  0  0  0  0
 14 21  1  0  0  0  0
 14 15  2  0  0  0  0
 15 16  1  0  0  0  0
 16 17  2  0  0  0  0
 16 18  1  0  0  0  0
 18 19  1  0  0  0  0
 19 20  2  0  0  0  0
 19 21  1  0  0  0  0
 21 22  1  0  0  0  0
 22 39  1  0  0  0  0
 22 40  1  0  0  0  0
 22 41  1  0  0  0  0
M  CHG  1  18  -1
M  END
> <s_m_source_file>
AV-unprocessed.smi

> <i_m_source_file_index>
513

> <i_lp_mmshare_version>
43012

> <i_f3d_flags>
0

> <s_epik_input>
W0NIM11uMWMoPU8pW25IXWMoPU8pYyhjMTIpbihbQ0gyXVtDSDJdT1tDSDNdKWMobjIpTjNbQ0gyXVtDSDJdW05IXVtDSDJdW0NIMl0z

> <s_epik_cmdline>
J2VwaWtfcHl0aG9uJywgJy1waCcsICc3LjAnLCAnLXRuJywgJzgnLCAnLW1hJywgJzIwMCcsICctbWV0YWxfYmluZGluZycsICctaW1hZScsICc8aW5maWxlLm1hZT4nLCAnLW9tYWUnLCAnPG91dGZpbGUubWFlPic=

> <r_epik_Ionization_Penalty>
8.82084

> <r_epik_Ionization_Penalty_Charging>
0.08198

> <r_epik_Ionization_Penalty_Neutral>
8.73886

> <r_epik_State_Penalty>
8.90453

> <r_epik_Charging_Adjusted_Penalty>
8.98651

> <i_epik_Tot_Q>
-1

> <i_epik_Tot_abs_Q>
1

> <r_epik_Metal_State_Penalty>
4.85612

> <b_epik_Metal_Only>
1

> <s_lp_Force_Field>
OPLS_2005

> <r_lp_Energy>
54.8501

> <b_lp_Chiralities_Consistent>
1

> <s_lp_Variant>
AV-unprocessed.smi:513-4

> <Gold.Version>
5.8.1

> <Gold.Id.Protein>
6NUR|6NUR_protein|mol2

> <Gold.PLP.Fitness>
37.7482

> <Gold.PLP.PLP>
-29.7267

> <Gold.PLP.part.hbond>
-2.2711

> <Gold.PLP.part.metal>
0.0000

> <Gold.PLP.part.buried>
-0.8890

> <Gold.PLP.part.nonpolar>
-26.4136

> <Gold.PLP.part.repulsive>
0.2753

> <Gold.PLP.ligand.clash>
0.0000

> <Gold.PLP.ligand.torsion>
1.0297

> <Gold.PLP.Chemscore.Hbond>
3.0234

> <Gold.PLP.Chemscore.CHOScore>
0.0000

> <Gold.PLP.Chemscore.Metal>
0.0000

> <Gold.Chemscore.Hbonds>
donor molecule, donor type, donor heavy atom, donor atom, acceptor molecule, acceptor atom, score
      L1  H    10    34       P1 10175  1.00
      P1  H  7997  8009       L1    18  1.76
      P1  H 10752 10764       L1     2  0.07

> <Gold.PLP.Chemscore.Internal.Correction>
1.0107

> <Gold.Rescore>
     Score         DG    S(hbond)    S(metal)    S(lipo)     H(rot)  DE(clash)    DE(int)     intcor
      8.82     -11.04       0.99        0.00      52.94       1.53       0.07       2.15       ----

> <Gold.Chemscore.Fitness>
8.8227

> <Gold.Chemscore.DG>
-11.0437

> <Gold.Chemscore.ZeroCoef>
-5.4800

> <Gold.Chemscore.Hbond>
0.9878

> <Gold.Chemscore.Metal>
0.0000

> <Gold.Chemscore.Lipo>
52.9367

> <Gold.Chemscore.Internal_Hbond>
0.0000

> <Gold.Chemscore.DEClash>
0.0694

> <Gold.Chemscore.DEInternal>
2.1516

> <Gold.Chemscore.Rot>
1.5348

> <Gold.Chemscore.Internal.Correction>
   9.000000E+99

> <Gold.Chemscore.Hbonds>
donor molecule, donor type, donor heavy atom, donor atom, acceptor molecule, acceptor atom, score
      L1  H    10    34       P1 10175  0.69
      P1  H  7997  8009       L1    18  0.06

> <Gold.Chemscore.Hbond.Weighted>
-3.2991

> <Gold.Chemscore.Metal.Weighted>
-0.0000

> <Gold.Chemscore.Lipo.Weighted>
-6.1936

> <Gold.Chemscore.Internal_Hbond.Weighted>
0.0000

> <Gold.Chemscore.DEClash.Weighted>
0.0694

> <Gold.Chemscore.DEInternal.Weighted>
2.1516

> <Gold.Chemscore.Rot.Weighted>
3.9290

> <Gold.Chemscore.Internal.Correction.Weighted>
   9.000000E+99

> <Gold.Protein.RotatedTorsions>
[ 6907 6896 6895 6894 ] final   64.12 input  -60.11 | X-H torsion
[ 7974 7965 7964 7962 ] final   24.56 input  175.53 | X-H torsion
[ 8008 7997 7996 7995 ] final  130.94 input   59.86 | X-H torsion
[ 10167 10162 10161 10158 ] final  177.52 input  -65.29 | X-H torsion
[ 10718 10713 10712 10709 ] final   -5.81 input   66.30 | X-H torsion
[ 10763 10752 10751 10750 ] final  -79.85 input  -60.55 | X-H torsion
[ 11005 11000 10999 10996 ] final   16.27 input  -57.11 | X-H torsion

> <Gold.Protein.ActiveResidues>
 VAL166  LYS551  ARG553  GLY616  TRP617  ASP618  TYR619  PRO620  LYS621  CYS622 
 ASP623  PHE694  ASN695  SER759  ASP760  ASP761  ALA762  ILE779  LEU786  VAL792 
 PHE793  MET794  SER795  GLU796  ALA797  LYS798  CYS799  TRP800  GLU811  SER814 

> <Gold.Protein.RotatedAtoms>
  152.4307  134.5784  159.9940 H   0  0  0  0  0  0  0  0  0  0  0  0  # atno 6907 bound_to 6896
  151.5908  133.3361  159.3035 H   0  0  0  0  0  0  0  0  0  0  0  0  # atno 6908 bound_to 6896
  150.8199  134.7437  159.6828 H   0  0  0  0  0  0  0  0  0  0  0  0  # atno 6909 bound_to 6896
  146.1931  139.7587  142.8817 H   0  0  0  0  0  0  0  0  0  0  0  0  # atno 7974 bound_to 7965
  156.2962  140.2583  156.2845 H   0  0  0  0  0  0  0  0  0  0  0  0  # atno 8008 bound_to 7997
  154.9570  140.0393  157.2190 H   0  0  0  0  0  0  0  0  0  0  0  0  # atno 8009 bound_to 7997
  154.7983  140.2823  155.5945 H   0  0  0  0  0  0  0  0  0  0  0  0  # atno 8010 bound_to 7997
  139.5256  144.2788  152.0564 H   0  0  0  0  0  0  0  0  0  0  0  0  # atno 10167 bound_to 10162
  156.7410  130.5210  149.5824 H   0  0  0  0  0  0  0  0  0  0  0  0  # atno 10718 bound_to 10713
  154.5438  135.5681  153.6862 H   0  0  0  0  0  0  0  0  0  0  0  0  # atno 10763 bound_to 10752
  152.9970  135.6234  154.2466 H   0  0  0  0  0  0  0  0  0  0  0  0  # atno 10764 bound_to 10752
  154.2398  135.2863  155.2838 H   0  0  0  0  0  0  0  0  0  0  0  0  # atno 10765 bound_to 10752
  140.4490  134.1244  155.7700 H   0  0  0  0  0  0  0  0  0  0  0  0  # atno 11005 bound_to 11000
  145.3729  141.0345  143.3221 LP  0  0  0  0  0  0  0  0  0  0  0  0  # atno 17320 bound_to 7965
  144.8526  139.5298  143.6849 LP  0  0  0  0  0  0  0  0  0  0  0  0  # atno 17321 bound_to 7965
  140.2244  144.4433  150.6327 LP  0  0  0  0  0  0  0  0  0  0  0  0  # atno 17342 bound_to 10162
  140.6397  143.2201  151.6318 LP  0  0  0  0  0  0  0  0  0  0  0  0  # atno 17343 bound_to 10162
  156.1464  130.6280  151.0537 LP  0  0  0  0  0  0  0  0  0  0  0  0  # atno 17370 bound_to 10713
  157.6818  131.0836  150.7349 LP  0  0  0  0  0  0  0  0  0  0  0  0  # atno 17371 bound_to 10713
  141.1672  133.8679  157.1678 LP  0  0  0  0  0  0  0  0  0  0  0  0  # atno 17394 bound_to 11000
  140.0019  135.0024  157.0209 LP  0  0  0  0  0  0  0  0  0  0  0  0  # atno 17395 bound_to 11000

$$$$
