AV-unprocessed.smi:296|AV-procd|sdf|2258|dock8
  -GOLD-   2262022143D 1   1.00000     0.00000
 Structure written by MMmdl.
 36 37  0  0  0  0  0  0  0  0  1 V2000
  150.6975  132.9915  157.4055 N   0  0  0  0  0  0  0  0  0  0  0  0
  150.5705  133.9912  156.8363 C   0  0  0  0  0  0  0  0  0  0  0  0
  150.4110  135.2462  156.1215 C   0  0  0  0  0  0  0  0  0  0  0  0
  149.1785  135.7144  155.7690 N   0  0  0  0  0  0  0  0  0  0  0  0
  149.5493  136.8391  155.1694 C   0  0  0  0  0  0  0  0  0  0  0  0
  150.8717  137.0379  155.1571 N   0  0  0  0  0  0  0  0  0  0  0  0
  151.6553  138.1329  154.6154 C   0  0  0  0  0  0  0  0  0  0  0  0
  151.3151  139.4513  155.3107 C   0  0  0  0  0  0  0  0  0  0  0  0
  150.7620  140.3517  154.6804 O   0  0  0  0  0  0  0  0  0  0  0  0
  151.6586  139.5496  156.6050 N   0  0  0  0  0  0  0  0  0  0  0  0
  151.4552  140.7182  157.4565 C   0  0  0  0  0  0  0  0  0  0  0  0
  152.6373  140.9364  158.4193 C   0  0  0  0  0  0  0  0  0  0  0  0
  152.5419  142.2247  159.2221 C   0  0  0  0  0  0  0  0  0  0  0  0
  152.4418  143.4289  158.6262 C   0  0  0  0  0  0  0  0  0  0  0  0
  152.3046  144.7417  159.3761 C   0  0  0  0  0  0  0  0  0  0  0  0
  151.9336  144.5326  160.8536 C   0  0  0  0  0  0  0  0  0  0  0  0
  152.7662  143.4060  161.4771 C   0  0  0  0  0  0  0  0  0  0  0  0
  152.5492  142.0724  160.7395 C   0  0  0  0  0  0  0  0  0  0  0  0
  151.4619  135.9906  155.7838 N   0  0  0  0  0  0  0  0  0  0  0  0
  148.8453  137.5330  154.7337 H   0  0  0  0  0  0  0  0  0  0  0  0
  152.7184  137.9144  154.7283 H   0  0  0  0  0  0  0  0  0  0  0  0
  151.4543  138.2112  153.5459 H   0  0  0  0  0  0  0  0  0  0  0  0
  152.1051  138.7510  157.0328 H   0  0  0  0  0  0  0  0  0  0  0  0
  151.2659  141.6146  156.8644 H   0  0  0  0  0  0  0  0  0  0  0  0
  150.5483  140.5464  158.0365 H   0  0  0  0  0  0  0  0  0  0  0  0
  152.7031  140.1004  159.1164 H   0  0  0  0  0  0  0  0  0  0  0  0
  153.5696  140.9284  157.8526 H   0  0  0  0  0  0  0  0  0  0  0  0
  152.4555  143.4979  157.5484 H   0  0  0  0  0  0  0  0  0  0  0  0
  153.2509  145.2774  159.2954 H   0  0  0  0  0  0  0  0  0  0  0  0
  151.5484  145.3567  158.8877 H   0  0  0  0  0  0  0  0  0  0  0  0
  152.0722  145.4610  161.4083 H   0  0  0  0  0  0  0  0  0  0  0  0
  150.8753  144.2791  160.9319 H   0  0  0  0  0  0  0  0  0  0  0  0
  153.8219  143.6774  161.4350 H   0  0  0  0  0  0  0  0  0  0  0  0
  152.5192  143.2913  162.5329 H   0  0  0  0  0  0  0  0  0  0  0  0
  151.5985  141.6362  161.0449 H   0  0  0  0  0  0  0  0  0  0  0  0
  153.3268  141.3661  161.0320 H   0  0  0  0  0  0  0  0  0  0  0  0
  1  2  3  0  0  0  0
  2  3  1  0  0  0  0
  3 19  2  0  0  0  0
  3  4  1  0  0  0  0
  4  5  2  0  0  0  0
  5  6  1  0  0  0  0
  5 20  1  0  0  0  0
  6  7  1  0  0  0  0
  6 19  1  0  0  0  0
  7  8  1  0  0  0  0
  7 21  1  0  0  0  0
  7 22  1  0  0  0  0
  8  9  2  0  0  0  0
  8 10  1  0  0  0  0
 10 11  1  0  0  0  0
 10 23  1  0  0  0  0
 11 12  1  0  0  0  0
 11 24  1  0  0  0  0
 11 25  1  0  0  0  0
 12 13  1  0  0  0  0
 12 26  1  0  0  0  0
 12 27  1  0  0  0  0
 13 18  1  0  0  0  0
 13 14  2  0  0  0  0
 14 15  1  0  0  0  0
 14 28  1  0  0  0  0
 15 16  1  0  0  0  0
 15 29  1  0  0  0  0
 15 30  1  0  0  0  0
 16 17  1  0  0  0  0
 16 31  1  0  0  0  0
 16 32  1  0  0  0  0
 17 18  1  0  0  0  0
 17 33  1  0  0  0  0
 17 34  1  0  0  0  0
 18 35  1  0  0  0  0
 18 36  1  0  0  0  0
M  END
> <s_m_source_file>
AV-unprocessed.smi

> <i_m_source_file_index>
296

> <i_lp_mmshare_version>
43012

> <i_f3d_flags>
0

> <s_epik_input>
TiNDYzFuW2NIXW4objEpW0NIMl1DKD1PKVtOSF1bQ0gyXVtDSDJdQzI9W0NIXVtDSDJdW0NIMl1bQ0gyXVtDSDJdMg==

> <s_epik_cmdline>
J2VwaWtfcHl0aG9uJywgJy1waCcsICc3LjAnLCAnLXRuJywgJzgnLCAnLW1hJywgJzIwMCcsICctbWV0YWxfYmluZGluZycsICctaW1hZScsICc8aW5maWxlLm1hZT4nLCAnLW9tYWUnLCAnPG91dGZpbGUubWFlPic=

> <r_lp_tautomer_probability>
1

> <r_epik_Ionization_Penalty>
6.69355e-08

> <r_epik_Ionization_Penalty_Charging>
0

> <r_epik_Ionization_Penalty_Neutral>
6.69355e-08

> <r_epik_State_Penalty>
-0

> <r_epik_Charging_Adjusted_Penalty>
0

> <i_epik_Tot_Q>
0

> <i_epik_Tot_abs_Q>
0

> <r_epik_Metal_State_Penalty>
-0

> <b_epik_Metal_Only>
0

> <s_lp_Force_Field>
OPLS_2005

> <r_lp_Energy>
11.6781

> <b_lp_Chiralities_Consistent>
1

> <s_lp_Variant>
AV-unprocessed.smi:296-1

> <Gold.Version>
5.8.1

> <Gold.Id.Protein>
6NUR|6NUR_protein|mol2

> <Gold.PLP.Fitness>
49.3646

> <Gold.PLP.PLP>
-40.8178

> <Gold.PLP.part.hbond>
-3.0000

> <Gold.PLP.part.metal>
0.0000

> <Gold.PLP.part.buried>
-5.1263

> <Gold.PLP.part.nonpolar>
-33.3924

> <Gold.PLP.part.repulsive>
0.3318

> <Gold.PLP.ligand.clash>
0.0000

> <Gold.PLP.ligand.torsion>
0.2231

> <Gold.PLP.Chemscore.Hbond>
2.9833

> <Gold.PLP.Chemscore.CHOScore>
0.0000

> <Gold.PLP.Chemscore.Metal>
0.0000

> <Gold.Chemscore.Hbonds>
donor molecule, donor type, donor heavy atom, donor atom, acceptor molecule, acceptor atom, score
      P1  H  6896  6908       L1     1  1.00
      P1  H  7989  7998       L1     9  1.00
      P1  H 10752 10765       L1    19  1.00

> <Gold.PLP.Chemscore.Internal.Correction>
0.0430

> <Gold.Rescore>
     Score         DG    S(hbond)    S(metal)    S(lipo)     H(rot)  DE(clash)    DE(int)     intcor
     16.85     -17.22       2.25        0.00      93.55       2.63       0.16       0.20       ----

> <Gold.Chemscore.Fitness>
16.8523

> <Gold.Chemscore.DG>
-17.2196

> <Gold.Chemscore.ZeroCoef>
-5.4800

> <Gold.Chemscore.Hbond>
2.2515

> <Gold.Chemscore.Metal>
0.0000

> <Gold.Chemscore.Lipo>
93.5515

> <Gold.Chemscore.Internal_Hbond>
0.0000

> <Gold.Chemscore.DEClash>
0.1623

> <Gold.Chemscore.DEInternal>
0.2050

> <Gold.Chemscore.Rot>
2.6273

> <Gold.Chemscore.Internal.Correction>
   9.000000E+99

> <Gold.Chemscore.Hbonds>
donor molecule, donor type, donor heavy atom, donor atom, acceptor molecule, acceptor atom, score
      P1  H  6896  6908       L1     1  0.58
      P1  H  7989  7998       L1     9  0.81
      P1  H 10752 10765       L1    19  0.65

> <Gold.Chemscore.Hbond.Weighted>
-7.5199

> <Gold.Chemscore.Metal.Weighted>
-0.0000

> <Gold.Chemscore.Lipo.Weighted>
-10.9455

> <Gold.Chemscore.Internal_Hbond.Weighted>
0.0000

> <Gold.Chemscore.DEClash.Weighted>
0.1623

> <Gold.Chemscore.DEInternal.Weighted>
0.2050

> <Gold.Chemscore.Rot.Weighted>
6.7259

> <Gold.Chemscore.Internal.Correction.Weighted>
   9.000000E+99

> <Gold.Protein.RotatedTorsions>
[ 6907 6896 6895 6894 ] final   88.58 input  -60.11 | X-H torsion
[ 7974 7965 7964 7962 ] final   31.11 input  175.53 | X-H torsion
[ 8008 7997 7996 7995 ] final -111.69 input   59.86 | X-H torsion
[ 10167 10162 10161 10158 ] final   -4.61 input  -65.29 | X-H torsion
[ 10718 10713 10712 10709 ] final -121.91 input   66.30 | X-H torsion
[ 10763 10752 10751 10750 ] final -166.43 input  -60.55 | X-H torsion
[ 11005 11000 10999 10996 ] final   72.46 input  -57.11 | X-H torsion

> <Gold.Protein.ActiveResidues>
 VAL166  LYS551  ARG553  GLY616  TRP617  ASP618  TYR619  PRO620  LYS621  CYS622 
 ASP623  PHE694  ASN695  SER759  ASP760  ASP761  ALA762  ILE779  LEU786  VAL792 
 PHE793  MET794  SER795  GLU796  ALA797  LYS798  CYS799  TRP800  GLU811  SER814 

> <Gold.Protein.RotatedAtoms>
  152.5427  134.2100  159.8745 H   0  0  0  0  0  0  0  0  0  0  0  0  # atno 6907 bound_to 6896
  151.2083  133.4564  159.2605 H   0  0  0  0  0  0  0  0  0  0  0  0  # atno 6908 bound_to 6896
  151.0922  134.9935  159.8464 H   0  0  0  0  0  0  0  0  0  0  0  0  # atno 6909 bound_to 6896
  146.1570  139.6699  142.9059 H   0  0  0  0  0  0  0  0  0  0  0  0  # atno 7974 bound_to 7965
  154.9937  140.0395  157.2330 H   0  0  0  0  0  0  0  0  0  0  0  0  # atno 8008 bound_to 7997
  154.7606  140.2784  155.6195 H   0  0  0  0  0  0  0  0  0  0  0  0  # atno 8009 bound_to 7997
  156.2903  140.2629  156.2383 H   0  0  0  0  0  0  0  0  0  0  0  0  # atno 8010 bound_to 7997
  140.6934  143.6403  150.8441 H   0  0  0  0  0  0  0  0  0  0  0  0  # atno 10167 bound_to 10162
  156.1375  130.6442  150.9720 H   0  0  0  0  0  0  0  0  0  0  0  0  # atno 10718 bound_to 10713
  154.6834  135.2958  154.9581 H   0  0  0  0  0  0  0  0  0  0  0  0  # atno 10763 bound_to 10752
  154.0569  135.6637  153.4811 H   0  0  0  0  0  0  0  0  0  0  0  0  # atno 10764 bound_to 10752
  153.0562  135.5143  154.7889 H   0  0  0  0  0  0  0  0  0  0  0  0  # atno 10765 bound_to 10752
  139.9490  134.7261  156.0909 H   0  0  0  0  0  0  0  0  0  0  0  0  # atno 11005 bound_to 11000
  145.4683  141.0435  143.2713 LP  0  0  0  0  0  0  0  0  0  0  0  0  # atno 17320 bound_to 7965
  144.7977  139.6202  143.7085 LP  0  0  0  0  0  0  0  0  0  0  0  0  # atno 17321 bound_to 7965
  140.0119  143.5634  152.2835 LP  0  0  0  0  0  0  0  0  0  0  0  0  # atno 17342 bound_to 10162
  139.6361  144.7650  151.2436 LP  0  0  0  0  0  0  0  0  0  0  0  0  # atno 17343 bound_to 10162
  157.6546  131.0891  150.7976 LP  0  0  0  0  0  0  0  0  0  0  0  0  # atno 17370 bound_to 10713
  156.8054  130.4935  149.5363 LP  0  0  0  0  0  0  0  0  0  0  0  0  # atno 17371 bound_to 10713
  141.1148  133.6631  156.3066 LP  0  0  0  0  0  0  0  0  0  0  0  0  # atno 17394 bound_to 11000
  140.5765  134.5788  157.5470 LP  0  0  0  0  0  0  0  0  0  0  0  0  # atno 17395 bound_to 11000

$$$$
