AV-unprocessed.smi:3289|AV-procd|sdf|12609|dock6
  -GOLD-   2272018533D 1   1.00000     0.00000
 Structure written by MMmdl.
 39 40  0  0  0  0  0  0  0  0  1 V2000
  150.4668  142.0665  156.1642 C   0  0  0  0  0  0  0  0  0  0  0  0
  150.6924  140.7245  156.8751 C   0  0  0  0  0  0  0  0  0  0  0  0
  152.0016  140.7126  157.6787 C   0  0  0  0  0  0  0  0  0  0  0  0
  150.6240  139.5709  155.9106 C   0  0  0  0  0  0  0  0  0  0  0  0
  150.3331  139.7188  154.6201 N   0  0  0  0  0  0  0  0  0  0  0  0
  150.3701  138.4351  154.0906 C   0  0  0  0  0  0  0  0  0  0  0  0
  150.6759  137.5426  155.0877 C   0  0  0  0  0  0  0  0  0  0  0  0
  150.8291  138.2798  156.2561 N   0  0  0  0  0  0  0  0  0  0  0  0
  151.1463  137.7153  157.5621 C   0  0  0  0  0  0  0  0  0  0  0  0
  150.0375  136.8028  158.1015 C   0  0  0  0  0  0  0  0  0  0  0  0
  150.0701  135.5860  157.9131 O   0  0  0  0  0  0  0  0  0  0  0  0
  149.0565  137.4134  158.7834 N   0  0  0  0  0  0  0  0  0  0  0  0
  147.9016  136.7463  159.3740 C   0  0  0  0  0  0  0  0  0  0  0  0
  148.1819  136.3044  160.8201 C   0  0  2  0  0  0  0  0  0  0  0  0
  147.4543  135.0211  161.2183 C   0  0  0  0  0  0  0  0  0  0  0  0
  147.3798  135.1643  162.7210 C   0  0  0  0  0  0  0  0  0  0  0  0
  147.1108  136.6577  162.8746 C   0  0  0  0  0  0  0  0  0  0  0  0
  147.7316  137.2836  161.7549 O   0  0  0  0  0  0  0  0  0  0  0  0
  149.5045  142.0802  155.6517 H   0  0  0  0  0  0  0  0  0  0  0  0
  151.2427  142.2585  155.4224 H   0  0  0  0  0  0  0  0  0  0  0  0
  150.4741  142.8936  156.8744 H   0  0  0  0  0  0  0  0  0  0  0  0
  149.8919  140.6194  157.6049 H   0  0  0  0  0  0  0  0  0  0  0  0
  152.1171  139.7755  158.2242 H   0  0  0  0  0  0  0  0  0  0  0  0
  152.0221  141.5227  158.4080 H   0  0  0  0  0  0  0  0  0  0  0  0
  152.8697  140.8289  157.0292 H   0  0  0  0  0  0  0  0  0  0  0  0
  150.1748  138.2550  153.0438 H   0  0  0  0  0  0  0  0  0  0  0  0
  150.7913  136.4690  155.0645 H   0  0  0  0  0  0  0  0  0  0  0  0
  152.0869  137.1677  157.5053 H   0  0  0  0  0  0  0  0  0  0  0  0
  151.3111  138.5378  158.2598 H   0  0  0  0  0  0  0  0  0  0  0  0
  149.1090  138.4156  158.8935 H   0  0  0  0  0  0  0  0  0  0  0  0
  147.0171  137.3840  159.3295 H   0  0  0  0  0  0  0  0  0  0  0  0
  147.6799  135.8712  158.7627 H   0  0  0  0  0  0  0  0  0  0  0  0
  149.2536  136.1648  160.9714 H   0  0  0  0  0  0  0  0  0  0  0  0
  146.4480  135.0014  160.7970 H   0  0  0  0  0  0  0  0  0  0  0  0
  147.9766  134.1188  160.8989 H   0  0  0  0  0  0  0  0  0  0  0  0
  146.6085  134.5427  163.1762 H   0  0  0  0  0  0  0  0  0  0  0  0
  148.3394  134.9054  163.1704 H   0  0  0  0  0  0  0  0  0  0  0  0
  146.0397  136.8591  162.8321 H   0  0  0  0  0  0  0  0  0  0  0  0
  147.4929  137.0544  163.8154 H   0  0  0  0  0  0  0  0  0  0  0  0
  1  2  1  0  0  0  0
  1 19  1  0  0  0  0
  1 20  1  0  0  0  0
  1 21  1  0  0  0  0
  2  3  1  0  0  0  0
  2  4  1  0  0  0  0
  2 22  1  0  0  0  0
  3 23  1  0  0  0  0
  3 24  1  0  0  0  0
  3 25  1  0  0  0  0
  4  8  1  0  0  0  0
  4  5  2  0  0  0  0
  5  6  1  0  0  0  0
  6  7  2  0  0  0  0
  6 26  1  0  0  0  0
  7  8  1  0  0  0  0
  7 27  1  0  0  0  0
  8  9  1  0  0  0  0
  9 10  1  0  0  0  0
  9 28  1  0  0  0  0
  9 29  1  0  0  0  0
 10 11  2  0  0  0  0
 10 12  1  0  0  0  0
 12 13  1  0  0  0  0
 12 30  1  0  0  0  0
 13 14  1  0  0  0  0
 13 31  1  0  0  0  0
 13 32  1  0  0  0  0
 14 18  1  0  0  0  0
 14 15  1  0  0  0  0
 14 33  1  0  0  0  0
 15 16  1  0  0  0  0
 15 34  1  0  0  0  0
 15 35  1  0  0  0  0
 16 17  1  0  0  0  0
 16 36  1  0  0  0  0
 16 37  1  0  0  0  0
 17 18  1  0  0  0  0
 17 38  1  0  0  0  0
 17 39  1  0  0  0  0
M  END
> <s_m_source_file>
AV-unprocessed.smi

> <i_m_source_file_index>
3289

> <i_lp_mmshare_version>
43012

> <i_f3d_flags>
0

> <s_epik_input>
W0NIM11bQ0hdKFtDSDNdKWMxbltjSF1bY0hdbjFbQ0gyXUMoPU8pW05IXVtDSDJdW0NAQEhdMltDSDJdW0NIMl1bQ0gyXU8y

> <s_epik_cmdline>
J2VwaWtfcHl0aG9uJywgJy1waCcsICc3LjAnLCAnLXRuJywgJzgnLCAnLW1hJywgJzIwMCcsICctbWV0YWxfYmluZGluZycsICctaW1hZScsICc8aW5maWxlLm1hZT4nLCAnLW9tYWUnLCAnPG91dGZpbGUubWFlPic=

> <r_lp_tautomer_probability>
1

> <r_epik_Ionization_Penalty>
0.587725

> <r_epik_Ionization_Penalty_Charging>
0.587725

> <r_epik_Ionization_Penalty_Neutral>
1.43432e-07

> <r_epik_State_Penalty>
0.601029

> <r_epik_Charging_Adjusted_Penalty>
1.18875

> <i_epik_Tot_Q>
0

> <i_epik_Tot_abs_Q>
0

> <r_epik_Metal_State_Penalty>
0.297663

> <b_epik_Metal_Only>
0

> <s_lp_Force_Field>
OPLS_2005

> <r_lp_Energy>
18.7222

> <b_lp_Chiralities_Consistent>
1

> <s_lp_Variant>
AV-unprocessed.smi:3289-3

> <Gold.Version>
5.8.1

> <Gold.Id.Protein>
6NUR|6NUR_protein|mol2

> <Gold.PLP.Fitness>
45.9781

> <Gold.PLP.PLP>
-32.6072

> <Gold.PLP.part.hbond>
-3.9494

> <Gold.PLP.part.metal>
0.0000

> <Gold.PLP.part.buried>
-4.5413

> <Gold.PLP.part.nonpolar>
-25.0939

> <Gold.PLP.part.repulsive>
0.2686

> <Gold.PLP.ligand.clash>
0.0000

> <Gold.PLP.ligand.torsion>
1.0935

> <Gold.PLP.Chemscore.Hbond>
3.3920

> <Gold.PLP.Chemscore.CHOScore>
1.7752

> <Gold.PLP.Chemscore.Metal>
0.0000

> <Gold.Chemscore.Hbonds>
donor molecule, donor type, donor heavy atom, donor atom, acceptor molecule, acceptor atom, score
      P1  H  6896  6907       L1    11  0.83
      P1  H  6931  6943       L1    18  0.99
      P1  H  6934  6947       L1    18  0.66
      P1  H  7989  7998       L1     5  0.91
      L1  C     6    26       P1  7948  0.85
      L1  C     6    26       P1  7949  0.01
      L1  C     6    26       P1  7957  0.73

> <Gold.PLP.Chemscore.Internal.Correction>
0.0561

> <Gold.Rescore>
     Score         DG    S(hbond)    S(metal)    S(lipo)     H(rot)  DE(clash)    DE(int)     intcor
     18.95     -19.89       3.13        0.00      71.51       1.72       0.01       0.94       ----

> <Gold.Chemscore.Fitness>
18.9478

> <Gold.Chemscore.DG>
-19.8926

> <Gold.Chemscore.ZeroCoef>
-5.4800

> <Gold.Chemscore.Hbond>
3.1265

> <Gold.Chemscore.Metal>
0.0000

> <Gold.Chemscore.Lipo>
71.5110

> <Gold.Chemscore.Internal_Hbond>
0.0000

> <Gold.Chemscore.DEClash>
0.0088

> <Gold.Chemscore.DEInternal>
0.9360

> <Gold.Chemscore.Rot>
1.7175

> <Gold.Chemscore.Internal.Correction>
   9.000000E+99

> <Gold.Chemscore.Hbonds>
donor molecule, donor type, donor heavy atom, donor atom, acceptor molecule, acceptor atom, score
      P1  H  6896  6907       L1    11  0.68
      P1  H  6931  6943       L1    18  0.36
      P1  H  6934  6947       L1    18  0.58
      P1  H  7989  7998       L1     5  0.50

> <Gold.Chemscore.Hbond.Weighted>
-10.4425

> <Gold.Chemscore.Metal.Weighted>
-0.0000

> <Gold.Chemscore.Lipo.Weighted>
-8.3668

> <Gold.Chemscore.Internal_Hbond.Weighted>
0.0000

> <Gold.Chemscore.DEClash.Weighted>
0.0088

> <Gold.Chemscore.DEInternal.Weighted>
0.9360

> <Gold.Chemscore.Rot.Weighted>
4.3967

> <Gold.Chemscore.Internal.Correction.Weighted>
   9.000000E+99

> <Gold.Protein.RotatedTorsions>
[ 6907 6896 6895 6894 ] final  -72.48 input  -60.11 | X-H torsion
[ 7974 7965 7964 7962 ] final -104.97 input  175.53 | X-H torsion
[ 8008 7997 7996 7995 ] final   96.98 input   59.86 | X-H torsion
[ 10167 10162 10161 10158 ] final  116.67 input  -65.29 | X-H torsion
[ 10718 10713 10712 10709 ] final -118.88 input   66.30 | X-H torsion
[ 10763 10752 10751 10750 ] final  -82.99 input  -60.55 | X-H torsion
[ 11005 11000 10999 10996 ] final  -29.79 input  -57.11 | X-H torsion

> <Gold.Protein.ActiveResidues>
 VAL166  LYS551  ARG553  GLY616  TRP617  ASP618  TYR619  PRO620  LYS621  CYS622 
 ASP623  PHE694  ASN695  SER759  ASP760  ASP761  ALA762  ILE779  LEU786  VAL792 
 PHE793  MET794  SER795  GLU796  ALA797  LYS798  CYS799  TRP800  GLU811  SER814 

> <Gold.Protein.RotatedAtoms>
  150.7168  134.5156  159.5628 H   0  0  0  0  0  0  0  0  0  0  0  0  # atno 6907 bound_to 6896
  152.2723  134.7916  160.0421 H   0  0  0  0  0  0  0  0  0  0  0  0  # atno 6908 bound_to 6896
  151.8592  133.3419  159.3735 H   0  0  0  0  0  0  0  0  0  0  0  0  # atno 6909 bound_to 6896
  145.2363  140.9189  143.3175 H   0  0  0  0  0  0  0  0  0  0  0  0  # atno 7974 bound_to 7965
  156.0854  140.3265  155.7747 H   0  0  0  0  0  0  0  0  0  0  0  0  # atno 8008 bound_to 7997
  155.5085  140.0575  157.2945 H   0  0  0  0  0  0  0  0  0  0  0  0  # atno 8009 bound_to 7997
  154.4606  140.1964  156.0272 H   0  0  0  0  0  0  0  0  0  0  0  0  # atno 8010 bound_to 7997
  139.6231  144.7104  151.2592 H   0  0  0  0  0  0  0  0  0  0  0  0  # atno 10167 bound_to 10162
  156.1139  130.6270  150.9346 H   0  0  0  0  0  0  0  0  0  0  0  0  # atno 10718 bound_to 10713
  154.5824  135.5572  153.7198 H   0  0  0  0  0  0  0  0  0  0  0  0  # atno 10763 bound_to 10752
  153.0086  135.6323  154.1963 H   0  0  0  0  0  0  0  0  0  0  0  0  # atno 10764 bound_to 10752
  154.1904  135.2882  155.3003 H   0  0  0  0  0  0  0  0  0  0  0  0  # atno 10765 bound_to 10752
  140.9327  133.7328  156.0959 H   0  0  0  0  0  0  0  0  0  0  0  0  # atno 11005 bound_to 11000
  144.9629  139.3960  143.6347 LP  0  0  0  0  0  0  0  0  0  0  0  0  # atno 17320 bound_to 7965
  146.3340  139.8691  142.8843 LP  0  0  0  0  0  0  0  0  0  0  0  0  # atno 17321 bound_to 7965
  140.7394  143.6618  150.8157 LP  0  0  0  0  0  0  0  0  0  0  0  0  # atno 17342 bound_to 10162
  140.0232  143.5520  152.2791 LP  0  0  0  0  0  0  0  0  0  0  0  0  # atno 17343 bound_to 10162
  157.6322  131.0920  150.8420 LP  0  0  0  0  0  0  0  0  0  0  0  0  # atno 17370 bound_to 10713
  156.8526  130.5085  149.5310 LP  0  0  0  0  0  0  0  0  0  0  0  0  # atno 17371 bound_to 10713
  140.7841  134.3692  157.5480 LP  0  0  0  0  0  0  0  0  0  0  0  0  # atno 17394 bound_to 11000
  139.8800  134.9100  156.3003 LP  0  0  0  0  0  0  0  0  0  0  0  0  # atno 17395 bound_to 11000

$$$$
