AV-unprocessed.smi:2319|AV-procd|sdf|9278|dock9
  -GOLD-   2272012503D 1   1.00000     0.00000
 Structure written by MMmdl.
 46 47  0  0  0  0  0  0  0  0  1 V2000
  153.2268  138.6216  154.5823 C   0  0  0  0  0  0  0  0  0  0  0  0
  151.7673  138.1558  154.6048 C   0  0  0  0  0  0  0  0  0  0  0  0
  150.7945  139.2839  154.7112 C   0  0  0  0  0  0  0  0  0  0  0  0
  151.2539  140.4512  155.2339 O   0  0  0  0  0  0  0  0  0  0  0  0
  150.2082  141.3871  155.2452 N   0  0  0  0  0  0  0  0  0  0  0  0
  149.1480  140.7797  154.7330 C   0  0  0  0  0  0  0  0  0  0  0  0
  147.8745  141.5586  154.5567 C   0  0  0  0  0  0  0  0  0  0  0  0
  149.4737  139.4306  154.4058 C   0  0  0  0  0  0  0  0  0  0  0  0
  148.6664  138.4269  153.8152 N   0  0  0  0  0  0  0  0  0  0  0  0
  147.4647  138.0102  154.2411 C   0  0  0  0  0  0  0  0  0  0  0  0
  146.8807  138.4435  155.2338 O   0  0  0  0  0  0  0  0  0  0  0  0
  146.9846  137.0310  153.4630 N   0  0  0  0  0  0  0  0  0  0  0  0
  145.7278  136.3194  153.6869 C   0  0  1  0  0  0  0  0  0  0  0  0
  144.5702  137.2778  153.8845 C   0  0  0  0  0  0  0  0  0  0  0  0
  143.3493  136.4336  153.4979 C   0  0  0  0  0  0  0  0  0  0  0  0
  142.7580  135.6902  154.7077 C   0  0  0  0  0  0  0  0  0  0  0  0
  142.2721  137.2615  152.7802 C   0  0  0  0  0  0  0  0  0  0  0  0
  143.8399  135.4458  152.5923 O   0  0  0  0  0  0  0  0  0  0  0  0
  145.2616  135.4810  152.4769 C   0  0  0  0  0  0  0  0  0  0  0  0
  145.5750  136.1152  151.1052 C   0  0  0  0  0  0  0  0  0  0  0  0
  145.7752  134.0338  152.5356 C   0  0  0  0  0  0  0  0  0  0  0  0
  153.9057  137.7718  154.5105 H   0  0  0  0  0  0  0  0  0  0  0  0
  153.4771  139.1732  155.4890 H   0  0  0  0  0  0  0  0  0  0  0  0
  153.4191  139.2737  153.7295 H   0  0  0  0  0  0  0  0  0  0  0  0
  151.5558  137.5836  153.7011 H   0  0  0  0  0  0  0  0  0  0  0  0
  151.6229  137.4691  155.4391 H   0  0  0  0  0  0  0  0  0  0  0  0
  147.3359  141.2381  153.6648 H   0  0  0  0  0  0  0  0  0  0  0  0
  148.0704  142.6262  154.4515 H   0  0  0  0  0  0  0  0  0  0  0  0
  147.2144  141.4281  155.4142 H   0  0  0  0  0  0  0  0  0  0  0  0
  149.0883  137.9037  153.0623 H   0  0  0  0  0  0  0  0  0  0  0  0
  147.5368  136.7381  152.6706 H   0  0  0  0  0  0  0  0  0  0  0  0
  145.7998  135.6895  154.5759 H   0  0  0  0  0  0  0  0  0  0  0  0
  144.5154  137.6728  154.8997 H   0  0  0  0  0  0  0  0  0  0  0  0
  144.6715  138.1289  153.2092 H   0  0  0  0  0  0  0  0  0  0  0  0
  142.3733  136.3892  155.4508 H   0  0  0  0  0  0  0  0  0  0  0  0
  143.5045  135.0636  155.1965 H   0  0  0  0  0  0  0  0  0  0  0  0
  141.9350  135.0417  154.4060 H   0  0  0  0  0  0  0  0  0  0  0  0
  141.8802  138.0456  153.4288 H   0  0  0  0  0  0  0  0  0  0  0  0
  141.4347  136.6353  152.4715 H   0  0  0  0  0  0  0  0  0  0  0  0
  142.6713  137.7382  151.8842 H   0  0  0  0  0  0  0  0  0  0  0  0
  146.6476  136.1445  150.9110 H   0  0  0  0  0  0  0  0  0  0  0  0
  145.1959  137.1349  151.0363 H   0  0  0  0  0  0  0  0  0  0  0  0
  145.1155  135.5436  150.2985 H   0  0  0  0  0  0  0  0  0  0  0  0
  146.8613  133.9952  152.4504 H   0  0  0  0  0  0  0  0  0  0  0  0
  145.3590  133.4351  151.7250 H   0  0  0  0  0  0  0  0  0  0  0  0
  145.4977  133.5532  153.4740 H   0  0  0  0  0  0  0  0  0  0  0  0
  1  2  1  0  0  0  0
  1 22  1  0  0  0  0
  1 23  1  0  0  0  0
  1 24  1  0  0  0  0
  2  3  1  0  0  0  0
  2 25  1  0  0  0  0
  2 26  1  0  0  0  0
  3  8  2  0  0  0  0
  3  4  1  0  0  0  0
  4  5  1  0  0  0  0
  5  6  2  0  0  0  0
  6  7  1  0  0  0  0
  6  8  1  0  0  0  0
  7 27  1  0  0  0  0
  7 28  1  0  0  0  0
  7 29  1  0  0  0  0
  8  9  1  0  0  0  0
  9 10  1  0  0  0  0
  9 30  1  0  0  0  0
 10 11  2  0  0  0  0
 10 12  1  0  0  0  0
 12 13  1  0  0  0  0
 12 31  1  0  0  0  0
 13 19  1  0  0  0  0
 13 14  1  0  0  0  0
 13 32  1  0  0  0  0
 14 15  1  0  0  0  0
 14 33  1  0  0  0  0
 14 34  1  0  0  0  0
 15 16  1  0  0  0  0
 15 17  1  0  0  0  0
 15 18  1  0  0  0  0
 16 35  1  0  0  0  0
 16 36  1  0  0  0  0
 16 37  1  0  0  0  0
 17 38  1  0  0  0  0
 17 39  1  0  0  0  0
 17 40  1  0  0  0  0
 18 19  1  0  0  0  0
 19 20  1  0  0  0  0
 19 21  1  0  0  0  0
 20 41  1  0  0  0  0
 20 42  1  0  0  0  0
 20 43  1  0  0  0  0
 21 44  1  0  0  0  0
 21 45  1  0  0  0  0
 21 46  1  0  0  0  0
M  END
> <s_m_source_file>
AV-unprocessed.smi

> <i_m_source_file_index>
2319

> <i_lp_mmshare_version>
43012

> <i_f3d_flags>
0

> <s_epik_input>
W0NIM11bQ0gyXWMxb25jKFtDSDNdKWMxW05IXUMoPU8pW05IXVtDQEBIXShDKE8yKShbQ0gzXSlbQ0gzXSlbQ0gyXUMyKFtDSDNdKVtDSDNd

> <s_epik_cmdline>
J2VwaWtfcHl0aG9uJywgJy1waCcsICc3LjAnLCAnLXRuJywgJzgnLCAnLW1hJywgJzIwMCcsICctbWV0YWxfYmluZGluZycsICctaW1hZScsICc8aW5maWxlLm1hZT4nLCAnLW9tYWUnLCAnPG91dGZpbGUubWFlPic=

> <r_lp_tautomer_probability>
1

> <r_epik_Ionization_Penalty>
3.17207e-05

> <r_epik_Ionization_Penalty_Charging>
0

> <r_epik_Ionization_Penalty_Neutral>
3.17207e-05

> <r_epik_State_Penalty>
-0

> <r_epik_Charging_Adjusted_Penalty>
0

> <i_epik_Tot_Q>
0

> <i_epik_Tot_abs_Q>
0

> <r_epik_Metal_State_Penalty>
-0

> <b_epik_Metal_Only>
0

> <s_lp_Force_Field>
OPLS_2005

> <r_lp_Energy>
19.7342

> <b_lp_Chiralities_Consistent>
1

> <s_lp_Variant>
AV-unprocessed.smi:2319-2

> <Gold.Version>
5.8.1

> <Gold.Id.Protein>
6NUR|6NUR_protein|mol2

> <Gold.PLP.Fitness>
37.0738

> <Gold.PLP.PLP>
-32.3205

> <Gold.PLP.part.hbond>
-4.4026

> <Gold.PLP.part.metal>
0.0000

> <Gold.PLP.part.buried>
-4.3307

> <Gold.PLP.part.nonpolar>
-25.4055

> <Gold.PLP.part.repulsive>
0.3385

> <Gold.PLP.ligand.clash>
0.0000

> <Gold.PLP.ligand.torsion>
0.8947

> <Gold.PLP.Chemscore.Hbond>
2.0896

> <Gold.PLP.Chemscore.CHOScore>
0.0000

> <Gold.PLP.Chemscore.Metal>
0.0000

> <Gold.Chemscore.Hbonds>
donor molecule, donor type, donor heavy atom, donor atom, acceptor molecule, acceptor atom, score
      L1  H     9    30       P1  7948  0.94
      L1  H    12    31       P1  7948  1.00
      P1  H  7989  7998       L1     4  0.13

> <Gold.PLP.Chemscore.Internal.Correction>
0.2740

> <Gold.Rescore>
     Score         DG    S(hbond)    S(metal)    S(lipo)     H(rot)  DE(clash)    DE(int)     intcor
     15.24     -17.33       1.90        0.00      72.52       1.16       0.03       2.06       ----

> <Gold.Chemscore.Fitness>
15.2378

> <Gold.Chemscore.DG>
-17.3328

> <Gold.Chemscore.ZeroCoef>
-5.4800

> <Gold.Chemscore.Hbond>
1.8968

> <Gold.Chemscore.Metal>
0.0000

> <Gold.Chemscore.Lipo>
72.5173

> <Gold.Chemscore.Internal_Hbond>
0.0000

> <Gold.Chemscore.DEClash>
0.0308

> <Gold.Chemscore.DEInternal>
2.0642

> <Gold.Chemscore.Rot>
1.1590

> <Gold.Chemscore.Internal.Correction>
   9.000000E+99

> <Gold.Chemscore.Hbonds>
donor molecule, donor type, donor heavy atom, donor atom, acceptor molecule, acceptor atom, score
      L1  H     9    30       P1  7948  0.84
      L1  H    12    31       P1  7948  0.99

> <Gold.Chemscore.Hbond.Weighted>
-6.3354

> <Gold.Chemscore.Metal.Weighted>
-0.0000

> <Gold.Chemscore.Lipo.Weighted>
-8.4845

> <Gold.Chemscore.Internal_Hbond.Weighted>
0.0000

> <Gold.Chemscore.DEClash.Weighted>
0.0308

> <Gold.Chemscore.DEInternal.Weighted>
2.0642

> <Gold.Chemscore.Rot.Weighted>
2.9671

> <Gold.Chemscore.Internal.Correction.Weighted>
   9.000000E+99

> <Gold.Protein.RotatedTorsions>
[ 6907 6896 6895 6894 ] final   -4.07 input  -60.11 | X-H torsion
[ 7974 7965 7964 7962 ] final   92.00 input  175.53 | X-H torsion
[ 8008 7997 7996 7995 ] final  -77.32 input   59.86 | X-H torsion
[ 10167 10162 10161 10158 ] final  100.89 input  -65.29 | X-H torsion
[ 10718 10713 10712 10709 ] final   86.37 input   66.30 | X-H torsion
[ 10763 10752 10751 10750 ] final   32.44 input  -60.55 | X-H torsion
[ 11005 11000 10999 10996 ] final -178.09 input  -57.11 | X-H torsion

> <Gold.Protein.ActiveResidues>
 VAL166  LYS551  ARG553  GLY616  TRP617  ASP618  TYR619  PRO620  LYS621  CYS622 
 ASP623  PHE694  ASN695  SER759  ASP760  ASP761  ALA762  ILE779  LEU786  VAL792 
 PHE793  MET794  SER795  GLU796  ALA797  LYS798  CYS799  TRP800  GLU811  SER814 

> <Gold.Protein.RotatedAtoms>
  151.5036  135.1062  159.9835 H   0  0  0  0  0  0  0  0  0  0  0  0  # atno 6907 bound_to 6896
  152.4691  133.7985  159.6951 H   0  0  0  0  0  0  0  0  0  0  0  0  # atno 6908 bound_to 6896
  150.8691  133.7469  159.2993 H   0  0  0  0  0  0  0  0  0  0  0  0  # atno 6909 bound_to 6896
  145.4982  139.2276  143.2792 H   0  0  0  0  0  0  0  0  0  0  0  0  # atno 7974 bound_to 7965
  154.5585  140.0712  156.8782 H   0  0  0  0  0  0  0  0  0  0  0  0  # atno 8008 bound_to 7997
  155.2856  140.3374  155.4237 H   0  0  0  0  0  0  0  0  0  0  0  0  # atno 8009 bound_to 7997
  156.2022  140.1726  156.7860 H   0  0  0  0  0  0  0  0  0  0  0  0  # atno 8010 bound_to 7997
  139.7487  144.6990  151.0465 H   0  0  0  0  0  0  0  0  0  0  0  0  # atno 10167 bound_to 10162
  157.6928  131.0213  150.2963 H   0  0  0  0  0  0  0  0  0  0  0  0  # atno 10718 bound_to 10713
  153.0262  135.6413  154.1355 H   0  0  0  0  0  0  0  0  0  0  0  0  # atno 10763 bound_to 10752
  154.1083  135.2854  155.3238 H   0  0  0  0  0  0  0  0  0  0  0  0  # atno 10764 bound_to 10752
  154.6349  135.5479  153.7786 H   0  0  0  0  0  0  0  0  0  0  0  0  # atno 10765 bound_to 10752
  140.4337  134.6495  157.4724 H   0  0  0  0  0  0  0  0  0  0  0  0  # atno 11005 bound_to 11000
  146.2242  140.5781  142.9003 LP  0  0  0  0  0  0  0  0  0  0  0  0  # atno 17320 bound_to 7965
  144.7795  140.5810  143.6615 LP  0  0  0  0  0  0  0  0  0  0  0  0  # atno 17321 bound_to 7965
  140.7795  143.4835  150.9986 LP  0  0  0  0  0  0  0  0  0  0  0  0  # atno 17342 bound_to 10162
  139.8523  143.7422  152.3177 LP  0  0  0  0  0  0  0  0  0  0  0  0  # atno 17343 bound_to 10162
  156.3486  130.3827  149.7348 LP  0  0  0  0  0  0  0  0  0  0  0  0  # atno 17370 bound_to 10713
  156.4834  130.8051  151.3065 LP  0  0  0  0  0  0  0  0  0  0  0  0  # atno 17371 bound_to 10713
  140.0117  134.6681  155.9371 LP  0  0  0  0  0  0  0  0  0  0  0  0  # atno 17394 bound_to 11000
  141.1735  133.6538  156.4740 LP  0  0  0  0  0  0  0  0  0  0  0  0  # atno 17395 bound_to 11000

$$$$
