AV-unprocessed.smi:1897|AV-procd|sdf|7689|dock5
  -GOLD-   22720 9433D 1   1.00000     0.00000
 Structure written by MMmdl.
 39 41  0  0  0  0  0  0  0  0  2 V2000
  147.6056  136.2513  163.0997 C   0  0  0  0  0  0  0  0  0  0  0  0
  147.5002  136.1885  161.6143 C   0  0  0  0  0  0  0  0  0  0  0  0
  147.7525  137.2398  160.8256 N   0  0  0  0  0  0  0  0  0  0  0  0
  147.5939  136.9378  159.4812 N   0  0  0  0  0  0  0  0  0  0  0  0
  147.2154  135.6653  159.2913 C   0  0  0  0  0  0  0  0  0  0  0  0
  146.9980  135.0674  158.0153 N   0  0  0  0  0  0  0  0  0  0  0  0
  147.6296  135.2289  156.8332 C   0  0  0  0  0  0  0  0  0  0  0  0
  148.5737  136.0087  156.7197 O   0  0  0  0  0  0  0  0  0  0  0  0
  147.1652  134.4989  155.8058 N   0  0  0  0  0  0  0  0  0  0  0  0
  147.6407  134.5714  154.4285 C   0  0  1  0  0  0  0  0  0  0  0  0
  148.4002  133.3074  153.9872 C   0  0  0  0  0  0  0  0  0  0  0  0
  147.9551  133.0474  152.5345 C   0  0  0  0  0  0  0  0  0  0  0  0
  147.1050  134.1982  152.1751 N   0  3  1  0  0  0  0  0  0  0  0  0
  146.1232  133.9969  151.0871 C   0  0  0  0  0  0  0  0  0  0  0  0
  145.3925  135.3261  150.8092 C   0  0  0  0  0  0  0  0  0  0  0  0
  144.7775  135.9204  152.0929 C   0  0  0  0  0  0  0  0  0  0  0  0
  145.8250  136.0179  153.2187 C   0  0  0  0  0  0  0  0  0  0  0  0
  146.4825  134.6437  153.4304 C   0  0  2  0  0  0  0  0  0  0  0  0
  147.0310  134.7230  160.7615 S   0  0  0  0  0  0  0  0  0  0  0  0
  148.3184  137.0201  163.3997 H   0  0  0  0  0  0  0  0  0  0  0  0
  147.9433  135.2924  163.4933 H   0  0  0  0  0  0  0  0  0  0  0  0
  146.6331  136.4858  163.5323 H   0  0  0  0  0  0  0  0  0  0  0  0
  146.3029  134.3347  158.0175 H   0  0  0  0  0  0  0  0  0  0  0  0
  146.3927  133.8738  155.9885 H   0  0  0  0  0  0  0  0  0  0  0  0
  148.2978  135.4324  154.2892 H   0  0  0  0  0  0  0  0  0  0  0  0
  149.4783  133.4564  154.0583 H   0  0  0  0  0  0  0  0  0  0  0  0
  148.1474  132.4481  154.6105 H   0  0  0  0  0  0  0  0  0  0  0  0
  148.7980  132.9581  151.8488 H   0  0  0  0  0  0  0  0  0  0  0  0
  147.3757  132.1244  152.4822 H   0  0  0  0  0  0  0  0  0  0  0  0
  146.6368  133.6543  150.1883 H   0  0  0  0  0  0  0  0  0  0  0  0
  145.4101  133.2200  151.3682 H   0  0  0  0  0  0  0  0  0  0  0  0
  146.0974  136.0421  150.3843 H   0  0  0  0  0  0  0  0  0  0  0  0
  144.6165  135.1764  150.0579 H   0  0  0  0  0  0  0  0  0  0  0  0
  144.3550  136.9043  151.8867 H   0  0  0  0  0  0  0  0  0  0  0  0
  143.9491  135.2918  152.4223 H   0  0  0  0  0  0  0  0  0  0  0  0
  146.5806  136.7614  152.9616 H   0  0  0  0  0  0  0  0  0  0  0  0
  145.3501  136.3582  154.1393 H   0  0  0  0  0  0  0  0  0  0  0  0
  145.7188  133.9162  153.7161 H   0  0  0  0  0  0  0  0  0  0  0  0
  147.7285  134.9387  151.8868 H   0  0  0  0  0  0  0  0  0  0  0  0
  1  2  1  0  0  0  0
  1 20  1  0  0  0  0
  1 21  1  0  0  0  0
  1 22  1  0  0  0  0
  2 19  1  0  0  0  0
  2  3  2  0  0  0  0
  3  4  1  0  0  0  0
  4  5  2  0  0  0  0
  5  6  1  0  0  0  0
  5 19  1  0  0  0  0
  6  7  1  0  0  0  0
  6 23  1  0  0  0  0
  7  8  2  0  0  0  0
  7  9  1  0  0  0  0
  9 10  1  0  0  0  0
  9 24  1  0  0  0  0
 10 18  1  0  0  0  0
 10 11  1  0  0  0  0
 10 25  1  0  0  0  0
 11 12  1  0  0  0  0
 11 26  1  0  0  0  0
 11 27  1  0  0  0  0
 12 13  1  0  0  0  0
 12 28  1  0  0  0  0
 12 29  1  0  0  0  0
 13 18  1  0  0  0  0
 13 14  1  0  0  0  0
 13 39  1  0  0  0  0
 14 15  1  0  0  0  0
 14 30  1  0  0  0  0
 14 31  1  0  0  0  0
 15 16  1  0  0  0  0
 15 32  1  0  0  0  0
 15 33  1  0  0  0  0
 16 17  1  0  0  0  0
 16 34  1  0  0  0  0
 16 35  1  0  0  0  0
 17 18  1  0  0  0  0
 17 36  1  0  0  0  0
 17 37  1  0  0  0  0
 18 38  1  0  0  0  0
M  CHG  1  13   1
M  END
> <s_m_source_file>
AV-unprocessed.smi

> <i_m_source_file_index>
1897

> <i_lp_mmshare_version>
43012

> <i_f3d_flags>
0

> <s_epik_input>
W0NIM11jMW5uYyhzMSlbTkhdQyg9TylbTkhdW0NASF0oW0NIMl1bQ0gyXTIpW0NAQEhdKE4yMylbQ0gyXVtDSDJdW0NIMl1bQ0gyXTM=

> <s_epik_cmdline>
J2VwaWtfcHl0aG9uJywgJy1waCcsICc3LjAnLCAnLXRuJywgJzgnLCAnLW1hJywgJzIwMCcsICctbWV0YWxfYmluZGluZycsICctaW1hZScsICc8aW5maWxlLm1hZT4nLCAnLW9tYWUnLCAnPG91dGZpbGUubWFlPic=

> <r_lp_tautomer_probability>
1

> <r_epik_Ionization_Penalty>
0.00228891

> <r_epik_Ionization_Penalty_Charging>
0.00107044

> <r_epik_Ionization_Penalty_Neutral>
0.00121847

> <r_epik_State_Penalty>
-0

> <r_epik_Charging_Adjusted_Penalty>
0.00107044

> <i_epik_Tot_Q>
1

> <i_epik_Tot_abs_Q>
1

> <r_epik_Metal_State_Penalty>
0.304057

> <b_epik_Metal_Only>
0

> <s_lp_Force_Field>
OPLS_2005

> <r_lp_Energy>
35.8573

> <b_lp_Chiralities_Consistent>
1

> <s_lp_Variant>
AV-unprocessed.smi:1897-6

> <Gold.Version>
5.8.1

> <Gold.Id.Protein>
6NUR|6NUR_protein|mol2

> <Gold.PLP.Fitness>
38.8412

> <Gold.PLP.PLP>
-28.4738

> <Gold.PLP.part.hbond>
-3.0000

> <Gold.PLP.part.metal>
0.0000

> <Gold.PLP.part.buried>
-2.9512

> <Gold.PLP.part.nonpolar>
-22.6334

> <Gold.PLP.part.repulsive>
0.0334

> <Gold.PLP.ligand.clash>
0.0000

> <Gold.PLP.ligand.torsion>
0.3892

> <Gold.PLP.Chemscore.Hbond>
3.7120

> <Gold.PLP.Chemscore.CHOScore>
0.0000

> <Gold.PLP.Chemscore.Metal>
0.0000

> <Gold.Chemscore.Hbonds>
donor molecule, donor type, donor heavy atom, donor atom, acceptor molecule, acceptor atom, score
      L1  H    13    39       P1  7948  2.00
      P1  H  6931  6943       L1     3  0.83
      P1  H  6934  6947       L1     3  0.88

> <Gold.PLP.Chemscore.Internal.Correction>
0.0099

> <Gold.Rescore>
     Score         DG    S(hbond)    S(metal)    S(lipo)     H(rot)  DE(clash)    DE(int)     intcor
     15.21     -16.55       1.96        0.00      60.54       1.00       0.03       1.31       ----

> <Gold.Chemscore.Fitness>
15.2128

> <Gold.Chemscore.DG>
-16.5508

> <Gold.Chemscore.ZeroCoef>
-5.4800

> <Gold.Chemscore.Hbond>
1.9604

> <Gold.Chemscore.Metal>
0.0000

> <Gold.Chemscore.Lipo>
60.5404

> <Gold.Chemscore.Internal_Hbond>
0.0000

> <Gold.Chemscore.DEClash>
0.0326

> <Gold.Chemscore.DEInternal>
1.3054

> <Gold.Chemscore.Rot>
1.0000

> <Gold.Chemscore.Internal.Correction>
   9.000000E+99

> <Gold.Chemscore.Hbonds>
donor molecule, donor type, donor heavy atom, donor atom, acceptor molecule, acceptor atom, score
      L1  H    13    39       P1  7948  0.65
      P1  H  6931  6943       L1     3  0.28
      P1  H  6934  6947       L1     3  0.34

> <Gold.Chemscore.Hbond.Weighted>
-6.5476

> <Gold.Chemscore.Metal.Weighted>
-0.0000

> <Gold.Chemscore.Lipo.Weighted>
-7.0832

> <Gold.Chemscore.Internal_Hbond.Weighted>
0.0000

> <Gold.Chemscore.DEClash.Weighted>
0.0326

> <Gold.Chemscore.DEInternal.Weighted>
1.3054

> <Gold.Chemscore.Rot.Weighted>
2.5600

> <Gold.Chemscore.Internal.Correction.Weighted>
   9.000000E+99

> <Gold.Protein.RotatedTorsions>
[ 6907 6896 6895 6894 ] final  -95.30 input  -60.11 | X-H torsion
[ 7974 7965 7964 7962 ] final  -43.97 input  175.53 | X-H torsion
[ 8008 7997 7996 7995 ] final   74.49 input   59.86 | X-H torsion
[ 10167 10162 10161 10158 ] final   72.18 input  -65.29 | X-H torsion
[ 10718 10713 10712 10709 ] final  108.66 input   66.30 | X-H torsion
[ 10763 10752 10751 10750 ] final  -12.34 input  -60.55 | X-H torsion
[ 11005 11000 10999 10996 ] final -171.17 input  -57.11 | X-H torsion

> <Gold.Protein.ActiveResidues>
 VAL166  LYS551  ARG553  GLY616  TRP617  ASP618  TYR619  PRO620  LYS621  CYS622 
 ASP623  PHE694  ASN695  SER759  ASP760  ASP761  ALA762  ILE779  LEU786  VAL792 
 PHE793  MET794  SER795  GLU796  ALA797  LYS798  CYS799  TRP800  GLU811  SER814 

> <Gold.Protein.RotatedAtoms>
  150.6960  134.1680  159.4200 H   0  0  0  0  0  0  0  0  0  0  0  0  # atno 6907 bound_to 6896
  151.9658  135.0099  160.0559 H   0  0  0  0  0  0  0  0  0  0  0  0  # atno 6908 bound_to 6896
  152.1886  133.4722  159.5032 H   0  0  0  0  0  0  0  0  0  0  0  0  # atno 6909 bound_to 6896
  145.9967  140.7121  142.9290 H   0  0  0  0  0  0  0  0  0  0  0  0  # atno 7974 bound_to 7965
  155.7991  140.3477  155.5392 H   0  0  0  0  0  0  0  0  0  0  0  0  # atno 8008 bound_to 7997
  155.8556  140.0963  157.1667 H   0  0  0  0  0  0  0  0  0  0  0  0  # atno 8009 bound_to 7997
  154.4009  140.1368  156.3885 H   0  0  0  0  0  0  0  0  0  0  0  0  # atno 8010 bound_to 7997
  140.0381  144.5412  150.7455 H   0  0  0  0  0  0  0  0  0  0  0  0  # atno 10167 bound_to 10162
  157.6576  131.0898  150.6339 H   0  0  0  0  0  0  0  0  0  0  0  0  # atno 10718 bound_to 10713
  153.4971  135.7017  153.5852 H   0  0  0  0  0  0  0  0  0  0  0  0  # atno 10763 bound_to 10752
  153.4000  135.3874  155.1981 H   0  0  0  0  0  0  0  0  0  0  0  0  # atno 10764 bound_to 10752
  154.8713  135.3879  154.4437 H   0  0  0  0  0  0  0  0  0  0  0  0  # atno 10765 bound_to 10752
  140.5113  134.5799  157.5019 H   0  0  0  0  0  0  0  0  0  0  0  0  # atno 11005 bound_to 11000
  144.6906  140.3162  143.7240 LP  0  0  0  0  0  0  0  0  0  0  0  0  # atno 17320 bound_to 7965
  145.7550  139.1806  143.2300 LP  0  0  0  0  0  0  0  0  0  0  0  0  # atno 17321 bound_to 7965
  140.7272  143.2649  151.4078 LP  0  0  0  0  0  0  0  0  0  0  0  0  # atno 17342 bound_to 10162
  139.6032  144.1252  152.2220 LP  0  0  0  0  0  0  0  0  0  0  0  0  # atno 17343 bound_to 10162
  156.6644  130.4521  149.5677 LP  0  0  0  0  0  0  0  0  0  0  0  0  # atno 17370 bound_to 10713
  156.2043  130.6639  151.1201 LP  0  0  0  0  0  0  0  0  0  0  0  0  # atno 17371 bound_to 10713
  139.9657  134.7376  156.0143 LP  0  0  0  0  0  0  0  0  0  0  0  0  # atno 17394 bound_to 11000
  141.1384  133.6570  156.3659 LP  0  0  0  0  0  0  0  0  0  0  0  0  # atno 17395 bound_to 11000

$$$$
