AV-unprocessed.smi:2378|AV-procd|sdf|9449|dock6
  -GOLD-   2272013 83D 1   1.00000     0.00000
 Structure written by MMmdl.
 40 41  0  0  0  0  0  0  0  0  1 V2000
  151.9113  140.0312  155.8266 C   0  0  0  0  0  0  0  0  0  0  0  0
  150.5205  140.2045  155.2533 C   0  0  0  0  0  0  0  0  0  0  0  0
  149.8627  141.4479  155.3122 C   0  0  0  0  0  0  0  0  0  0  0  0
  148.5707  141.5419  154.7629 C   0  0  0  0  0  0  0  0  0  0  0  0
  147.9357  140.5008  154.1847 N   0  0  0  0  0  0  0  0  0  0  0  0
  148.5594  139.2979  154.1212 C   0  0  0  0  0  0  0  0  0  0  0  0
  147.9844  138.1408  153.5310 N   0  0  0  0  0  0  0  0  0  0  0  0
  146.6863  137.7944  153.4712 C   0  0  0  0  0  0  0  0  0  0  0  0
  145.7536  138.4368  153.9552 O   0  0  0  0  0  0  0  0  0  0  0  0
  146.5231  136.6384  152.8114 N   0  0  0  0  0  0  0  0  0  0  0  0
  145.2425  135.9831  152.5719 C   0  0  0  0  0  0  0  0  0  0  0  0
  144.9228  135.9007  151.0695 C   0  0  0  0  0  0  0  0  0  0  0  0
  144.8865  134.4570  150.5440 C   0  0  2  0  0  0  0  0  0  0  0  0
  143.8431  133.5998  151.2868 C   0  0  0  0  0  0  0  0  0  0  0  0
  143.8844  132.1501  150.7901 C   0  0  0  0  0  0  0  0  0  0  0  0
  145.3165  131.6129  150.8791 C   0  0  0  0  0  0  0  0  0  0  0  0
  146.2894  132.5672  150.1686 C   0  0  0  0  0  0  0  0  0  0  0  0
  146.1768  133.8748  150.7221 O   0  0  0  0  0  0  0  0  0  0  0  0
  149.8580  139.1173  154.6487 C   0  0  0  0  0  0  0  0  0  0  0  0
  152.3061  140.9756  156.2023 H   0  0  0  0  0  0  0  0  0  0  0  0
  152.5922  139.6576  155.0613 H   0  0  0  0  0  0  0  0  0  0  0  0
  151.8933  139.3167  156.6499 H   0  0  0  0  0  0  0  0  0  0  0  0
  150.3312  142.3095  155.7650 H   0  0  0  0  0  0  0  0  0  0  0  0
  148.0325  142.4778  154.7876 H   0  0  0  0  0  0  0  0  0  0  0  0
  148.6376  137.5054  153.0976 H   0  0  0  0  0  0  0  0  0  0  0  0
  147.3439  136.1769  152.4472 H   0  0  0  0  0  0  0  0  0  0  0  0
  145.2378  134.9879  153.0197 H   0  0  0  0  0  0  0  0  0  0  0  0
  144.4721  136.5576  153.0869 H   0  0  0  0  0  0  0  0  0  0  0  0
  143.9678  136.3879  150.8681 H   0  0  0  0  0  0  0  0  0  0  0  0
  145.6762  136.4608  150.5137 H   0  0  0  0  0  0  0  0  0  0  0  0
  144.6452  134.4774  149.4797 H   0  0  0  0  0  0  0  0  0  0  0  0
  144.0436  133.6230  152.3589 H   0  0  0  0  0  0  0  0  0  0  0  0
  142.8435  134.0125  151.1469 H   0  0  0  0  0  0  0  0  0  0  0  0
  143.2066  131.5271  151.3744 H   0  0  0  0  0  0  0  0  0  0  0  0
  143.5395  132.1067  149.7564 H   0  0  0  0  0  0  0  0  0  0  0  0
  145.6062  131.5118  151.9257 H   0  0  0  0  0  0  0  0  0  0  0  0
  145.3746  130.6167  150.4397 H   0  0  0  0  0  0  0  0  0  0  0  0
  147.3147  132.2185  150.2940 H   0  0  0  0  0  0  0  0  0  0  0  0
  146.0925  132.5969  149.0960 H   0  0  0  0  0  0  0  0  0  0  0  0
  150.3443  138.1539  154.5917 H   0  0  0  0  0  0  0  0  0  0  0  0
  1  2  1  0  0  0  0
  1 20  1  0  0  0  0
  1 21  1  0  0  0  0
  1 22  1  0  0  0  0
  2 19  1  0  0  0  0
  2  3  2  0  0  0  0
  3  4  1  0  0  0  0
  3 23  1  0  0  0  0
  4  5  2  0  0  0  0
  4 24  1  0  0  0  0
  5  6  1  0  0  0  0
  6  7  1  0  0  0  0
  6 19  2  0  0  0  0
  7  8  1  0  0  0  0
  7 25  1  0  0  0  0
  8  9  2  0  0  0  0
  8 10  1  0  0  0  0
 10 11  1  0  0  0  0
 10 26  1  0  0  0  0
 11 12  1  0  0  0  0
 11 27  1  0  0  0  0
 11 28  1  0  0  0  0
 12 13  1  0  0  0  0
 12 29  1  0  0  0  0
 12 30  1  0  0  0  0
 13 18  1  0  0  0  0
 13 14  1  0  0  0  0
 13 31  1  0  0  0  0
 14 15  1  0  0  0  0
 14 32  1  0  0  0  0
 14 33  1  0  0  0  0
 15 16  1  0  0  0  0
 15 34  1  0  0  0  0
 15 35  1  0  0  0  0
 16 17  1  0  0  0  0
 16 36  1  0  0  0  0
 16 37  1  0  0  0  0
 17 18  1  0  0  0  0
 17 38  1  0  0  0  0
 17 39  1  0  0  0  0
 19 40  1  0  0  0  0
M  END
> <s_m_source_file>
AV-unprocessed.smi

> <i_m_source_file_index>
2378

> <i_lp_mmshare_version>
43012

> <i_f3d_flags>
0

> <s_epik_input>
W0NIM11jMVtjSF1bY0hdbmMoW2NIXTEpW05IXUMoPU8pW05IXVtDSDJdW0NIMl1bQ0BASF0yW0NIMl1bQ0gyXVtDSDJdW0NIMl1PMg==

> <s_epik_cmdline>
J2VwaWtfcHl0aG9uJywgJy1waCcsICc3LjAnLCAnLXRuJywgJzgnLCAnLW1hJywgJzIwMCcsICctbWV0YWxfYmluZGluZycsICctaW1hZScsICc8aW5maWxlLm1hZT4nLCAnLW9tYWUnLCAnPG91dGZpbGUubWFlPic=

> <r_lp_tautomer_probability>
1

> <r_epik_Ionization_Penalty>
8.60919e-05

> <r_epik_Ionization_Penalty_Charging>
0

> <r_epik_Ionization_Penalty_Neutral>
8.60919e-05

> <r_epik_State_Penalty>
-0

> <r_epik_Charging_Adjusted_Penalty>
0

> <i_epik_Tot_Q>
0

> <i_epik_Tot_abs_Q>
0

> <r_epik_Metal_State_Penalty>
-0

> <b_epik_Metal_Only>
0

> <s_lp_Force_Field>
OPLS_2005

> <r_lp_Energy>
11.3516

> <b_lp_Chiralities_Consistent>
1

> <s_lp_Variant>
AV-unprocessed.smi:2378-1

> <Gold.Version>
5.8.1

> <Gold.Id.Protein>
6NUR|6NUR_protein|mol2

> <Gold.PLP.Fitness>
43.3736

> <Gold.PLP.PLP>
-35.5207

> <Gold.PLP.part.hbond>
-2.0000

> <Gold.PLP.part.metal>
0.0000

> <Gold.PLP.part.buried>
-1.7292

> <Gold.PLP.part.nonpolar>
-31.7357

> <Gold.PLP.part.repulsive>
0.5069

> <Gold.PLP.ligand.clash>
0.0000

> <Gold.PLP.ligand.torsion>
0.5758

> <Gold.PLP.Chemscore.Hbond>
2.0000

> <Gold.PLP.Chemscore.CHOScore>
0.9980

> <Gold.PLP.Chemscore.Metal>
0.0000

> <Gold.Chemscore.Hbonds>
donor molecule, donor type, donor heavy atom, donor atom, acceptor molecule, acceptor atom, score
      L1  H     7    25       P1  7948  0.99
      L1  H    10    26       P1  7948  1.00
      L1  C     4    24       P1  8028  0.96

> <Gold.PLP.Chemscore.Internal.Correction>
0.0105

> <Gold.Rescore>
     Score         DG    S(hbond)    S(metal)    S(lipo)     H(rot)  DE(clash)    DE(int)     intcor
     16.51     -18.25       1.87        0.00      86.97       1.42       0.09       1.65       ----

> <Gold.Chemscore.Fitness>
16.5115

> <Gold.Chemscore.DG>
-18.2450

> <Gold.Chemscore.ZeroCoef>
-5.4800

> <Gold.Chemscore.Hbond>
1.8674

> <Gold.Chemscore.Metal>
0.0000

> <Gold.Chemscore.Lipo>
86.9693

> <Gold.Chemscore.Internal_Hbond>
0.0000

> <Gold.Chemscore.DEClash>
0.0861

> <Gold.Chemscore.DEInternal>
1.6475

> <Gold.Chemscore.Rot>
1.4248

> <Gold.Chemscore.Internal.Correction>
   9.000000E+99

> <Gold.Chemscore.Hbonds>
donor molecule, donor type, donor heavy atom, donor atom, acceptor molecule, acceptor atom, score
      L1  H     7    25       P1  7948  0.93
      L1  H    10    26       P1  7948  0.95

> <Gold.Chemscore.Hbond.Weighted>
-6.2372

> <Gold.Chemscore.Metal.Weighted>
-0.0000

> <Gold.Chemscore.Lipo.Weighted>
-10.1754

> <Gold.Chemscore.Internal_Hbond.Weighted>
0.0000

> <Gold.Chemscore.DEClash.Weighted>
0.0861

> <Gold.Chemscore.DEInternal.Weighted>
1.6475

> <Gold.Chemscore.Rot.Weighted>
3.6476

> <Gold.Chemscore.Internal.Correction.Weighted>
   9.000000E+99

> <Gold.Protein.RotatedTorsions>
[ 6907 6896 6895 6894 ] final   51.61 input  -60.11 | X-H torsion
[ 7974 7965 7964 7962 ] final  117.36 input  175.53 | X-H torsion
[ 8008 7997 7996 7995 ] final  141.79 input   59.86 | X-H torsion
[ 10167 10162 10161 10158 ] final -167.46 input  -65.29 | X-H torsion
[ 10718 10713 10712 10709 ] final  153.73 input   66.30 | X-H torsion
[ 10763 10752 10751 10750 ] final  -84.78 input  -60.55 | X-H torsion
[ 11005 11000 10999 10996 ] final  113.50 input  -57.11 | X-H torsion

> <Gold.Protein.ActiveResidues>
 VAL166  LYS551  ARG553  GLY616  TRP617  ASP618  TYR619  PRO620  LYS621  CYS622 
 ASP623  PHE694  ASN695  SER759  ASP760  ASP761  ALA762  ILE779  LEU786  VAL792 
 PHE793  MET794  SER795  GLU796  ALA797  LYS798  CYS799  TRP800  GLU811  SER814 

> <Gold.Protein.RotatedAtoms>
  152.3144  134.7457  160.0328 H   0  0  0  0  0  0  0  0  0  0  0  0  # atno 6907 bound_to 6896
  151.7927  133.3356  159.3512 H   0  0  0  0  0  0  0  0  0  0  0  0  # atno 6908 bound_to 6896
  150.7337  134.5758  159.5958 H   0  0  0  0  0  0  0  0  0  0  0  0  # atno 6909 bound_to 6896
  145.1683  139.3116  143.4481 H   0  0  0  0  0  0  0  0  0  0  0  0  # atno 7974 bound_to 7965
  156.2960  140.2306  156.4622 H   0  0  0  0  0  0  0  0  0  0  0  0  # atno 8008 bound_to 7997
  154.8008  140.0448  157.1292 H   0  0  0  0  0  0  0  0  0  0  0  0  # atno 8009 bound_to 7997
  154.9535  140.3045  155.5067 H   0  0  0  0  0  0  0  0  0  0  0  0  # atno 8010 bound_to 7997
  139.6048  144.0935  152.1781 H   0  0  0  0  0  0  0  0  0  0  0  0  # atno 10167 bound_to 10162
  157.2410  131.0759  151.1792 H   0  0  0  0  0  0  0  0  0  0  0  0  # atno 10718 bound_to 10713
  154.6035  135.5508  153.7399 H   0  0  0  0  0  0  0  0  0  0  0  0  # atno 10763 bound_to 10752
  153.0164  135.6372  154.1680 H   0  0  0  0  0  0  0  0  0  0  0  0  # atno 10764 bound_to 10752
  154.1620  135.2897  155.3086 H   0  0  0  0  0  0  0  0  0  0  0  0  # atno 10765 bound_to 10752
  139.8955  134.9551  156.6749 H   0  0  0  0  0  0  0  0  0  0  0  0  # atno 11005 bound_to 11000
  146.3472  140.1819  142.8589 LP  0  0  0  0  0  0  0  0  0  0  0  0  # atno 17320 bound_to 7965
  145.0259  140.8832  143.5139 LP  0  0  0  0  0  0  0  0  0  0  0  0  # atno 17321 bound_to 7965
  140.0540  144.5910  150.7314 LP  0  0  0  0  0  0  0  0  0  0  0  0  # atno 17342 bound_to 10162
  140.7277  143.2654  151.4063 LP  0  0  0  0  0  0  0  0  0  0  0  0  # atno 17343 bound_to 10162
  157.3379  130.7018  149.6363 LP  0  0  0  0  0  0  0  0  0  0  0  0  # atno 17370 bound_to 10713
  155.9670  130.4288  150.4806 LP  0  0  0  0  0  0  0  0  0  0  0  0  # atno 17371 bound_to 10713
  140.7344  133.9031  155.8234 LP  0  0  0  0  0  0  0  0  0  0  0  0  # atno 17394 bound_to 11000
  141.0127  134.0998  157.4204 LP  0  0  0  0  0  0  0  0  0  0  0  0  # atno 17395 bound_to 11000

$$$$
