AV-unprocessed.smi:1907|AV-procd|sdf|7732|dock2
  -GOLD-   22720 9473D 1   1.00000     0.00000
 Structure written by MMmdl.
 31 32  0  0  0  0  0  0  0  0  2 V2000
  149.0705  142.3191  154.9905 N   0  0  0  0  0  0  0  0  0  0  0  0
  148.1859  141.3223  154.8959 C   0  0  0  0  0  0  0  0  0  0  0  0
  147.0652  141.3886  155.3970 O   0  0  0  0  0  0  0  0  0  0  0  0
  148.6159  140.0767  154.1176 C   0  0  0  0  0  0  0  0  0  0  0  0
  149.9338  139.5663  154.6243 C   0  0  0  0  0  0  0  0  0  0  0  0
  150.6397  138.4904  154.1513 C   0  0  0  0  0  0  0  0  0  0  0  0
  152.1189  138.2513  155.0365 S   0  0  0  0  0  0  0  0  0  0  0  0
  151.7423  139.6623  156.0271 C   0  0  0  0  0  0  0  0  0  0  0  0
  152.5035  140.1211  157.0357 N   0  5  0  0  0  0  0  0  0  0  0  0
  152.0343  140.8858  158.0610 C   0  0  0  0  0  0  0  0  0  0  0  0
  150.8526  140.9661  158.3946 O   0  0  0  0  0  0  0  0  0  0  0  0
  153.0891  141.7003  158.8616 C   0  0  0  0  0  0  0  0  0  0  0  0
  153.1360  141.2725  160.3481 C   0  0  0  0  0  0  0  0  0  0  0  0
  152.7544  142.4991  161.1873 C   0  0  0  0  0  0  0  0  0  0  0  0
  152.0580  143.4513  160.2197 C   0  0  0  0  0  0  0  0  0  0  0  0
  152.7823  143.2125  158.8967 C   0  0  0  0  0  0  0  0  0  0  0  0
  150.5711  140.2124  155.6877 N   0  0  0  0  0  0  0  0  0  0  0  0
  148.8379  143.1511  155.5126 H   0  0  0  0  0  0  0  0  0  0  0  0
  149.9780  142.2264  154.5562 H   0  0  0  0  0  0  0  0  0  0  0  0
  147.8471  139.3090  154.2138 H   0  0  0  0  0  0  0  0  0  0  0  0
  148.6749  140.3195  153.0555 H   0  0  0  0  0  0  0  0  0  0  0  0
  150.3773  137.8230  153.3444 H   0  0  0  0  0  0  0  0  0  0  0  0
  154.0741  141.5961  158.4064 H   0  0  0  0  0  0  0  0  0  0  0  0
  152.4392  140.4580  160.5535 H   0  0  0  0  0  0  0  0  0  0  0  0
  154.1277  140.9107  160.6218 H   0  0  0  0  0  0  0  0  0  0  0  0
  152.1270  142.2418  162.0411 H   0  0  0  0  0  0  0  0  0  0  0  0
  153.6587  142.9712  161.5732 H   0  0  0  0  0  0  0  0  0  0  0  0
  151.0061  143.1796  160.1228 H   0  0  0  0  0  0  0  0  0  0  0  0
  152.1070  144.4909  160.5442 H   0  0  0  0  0  0  0  0  0  0  0  0
  153.7202  143.7692  158.8933 H   0  0  0  0  0  0  0  0  0  0  0  0
  152.2062  143.5685  158.0415 H   0  0  0  0  0  0  0  0  0  0  0  0
  1  2  1  0  0  0  0
  1 18  1  0  0  0  0
  1 19  1  0  0  0  0
  2  3  2  0  0  0  0
  2  4  1  0  0  0  0
  4  5  1  0  0  0  0
  4 20  1  0  0  0  0
  4 21  1  0  0  0  0
  5 17  1  0  0  0  0
  5  6  2  0  0  0  0
  6  7  1  0  0  0  0
  6 22  1  0  0  0  0
  7  8  1  0  0  0  0
  8  9  1  0  0  0  0
  8 17  2  0  0  0  0
  9 10  1  0  0  0  0
 10 11  2  0  0  0  0
 10 12  1  0  0  0  0
 12 16  1  0  0  0  0
 12 13  1  0  0  0  0
 12 23  1  0  0  0  0
 13 14  1  0  0  0  0
 13 24  1  0  0  0  0
 13 25  1  0  0  0  0
 14 15  1  0  0  0  0
 14 26  1  0  0  0  0
 14 27  1  0  0  0  0
 15 16  1  0  0  0  0
 15 28  1  0  0  0  0
 15 29  1  0  0  0  0
 16 30  1  0  0  0  0
 16 31  1  0  0  0  0
M  CHG  1   9  -1
M  END
> <s_m_source_file>
AV-unprocessed.smi

> <i_m_source_file_index>
1907

> <i_lp_mmshare_version>
43012

> <i_f3d_flags>
0

> <s_epik_input>
W05IMl1DKD1PKVtDSDJdYzFbY0hdc2MobjEpW05IXUMoPU8pW0NIXTJbQ0gyXVtDSDJdW0NIMl1bQ0gyXTI=

> <s_epik_cmdline>
J2VwaWtfcHl0aG9uJywgJy1waCcsICc3LjAnLCAnLXRuJywgJzgnLCAnLW1hJywgJzIwMCcsICctbWV0YWxfYmluZGluZycsICctaW1hZScsICc8aW5maWxlLm1hZT4nLCAnLW9tYWUnLCAnPG91dGZpbGUubWFlPic=

> <r_lp_tautomer_probability>
1

> <r_epik_Ionization_Penalty>
5.3563

> <r_epik_Ionization_Penalty_Charging>
4.90463

> <r_epik_Ionization_Penalty_Neutral>
0.451677

> <r_epik_State_Penalty>
4.90447

> <r_epik_Charging_Adjusted_Penalty>
9.8091

> <i_epik_Tot_Q>
-1

> <i_epik_Tot_abs_Q>
1

> <r_epik_Metal_State_Penalty>
1.05508

> <b_epik_Metal_Only>
1

> <s_lp_Force_Field>
OPLS_2005

> <r_lp_Energy>
19.4478

> <b_lp_Chiralities_Consistent>
1

> <s_lp_Variant>
AV-unprocessed.smi:1907-2

> <Gold.Version>
5.8.1

> <Gold.Id.Protein>
6NUR|6NUR_protein|mol2

> <Gold.PLP.Fitness>
48.3921

> <Gold.PLP.PLP>
-36.7672

> <Gold.PLP.part.hbond>
-1.8316

> <Gold.PLP.part.metal>
0.0000

> <Gold.PLP.part.buried>
-4.3863

> <Gold.PLP.part.nonpolar>
-30.5361

> <Gold.PLP.part.repulsive>
0.3412

> <Gold.PLP.ligand.clash>
0.0000

> <Gold.PLP.ligand.torsion>
0.2761

> <Gold.PLP.Chemscore.Hbond>
3.0000

> <Gold.PLP.Chemscore.CHOScore>
1.0466

> <Gold.PLP.Chemscore.Metal>
0.0000

> <Gold.Chemscore.Hbonds>
donor molecule, donor type, donor heavy atom, donor atom, acceptor molecule, acceptor atom, score
      L1  H     1    18       P1  8028  0.99
      P1  H  7997  8009       L1     9  2.00
      L1  C     6    22       P1  7948  0.81
      L1  C     6    22       P1  7949  0.23

> <Gold.PLP.Chemscore.Internal.Correction>
0.0373

> <Gold.Rescore>
     Score         DG    S(hbond)    S(metal)    S(lipo)     H(rot)  DE(clash)    DE(int)     intcor
     13.49     -16.75       1.85        0.00      84.49       1.87       0.38       2.88       ----

> <Gold.Chemscore.Fitness>
13.4920

> <Gold.Chemscore.DG>
-16.7514

> <Gold.Chemscore.ZeroCoef>
-5.4800

> <Gold.Chemscore.Hbond>
1.8516

> <Gold.Chemscore.Metal>
0.0000

> <Gold.Chemscore.Lipo>
84.4912

> <Gold.Chemscore.Internal_Hbond>
0.0000

> <Gold.Chemscore.DEClash>
0.3829

> <Gold.Chemscore.DEInternal>
2.8766

> <Gold.Chemscore.Rot>
1.8743

> <Gold.Chemscore.Internal.Correction>
   9.000000E+99

> <Gold.Chemscore.Hbonds>
donor molecule, donor type, donor heavy atom, donor atom, acceptor molecule, acceptor atom, score
      L1  H     1    18       P1  8028  0.90
      P1  H  7997  8009       L1     9  0.72

> <Gold.Chemscore.Hbond.Weighted>
-6.1842

> <Gold.Chemscore.Metal.Weighted>
-0.0000

> <Gold.Chemscore.Lipo.Weighted>
-9.8855

> <Gold.Chemscore.Internal_Hbond.Weighted>
0.0000

> <Gold.Chemscore.DEClash.Weighted>
0.3829

> <Gold.Chemscore.DEInternal.Weighted>
2.8766

> <Gold.Chemscore.Rot.Weighted>
4.7982

> <Gold.Chemscore.Internal.Correction.Weighted>
   9.000000E+99

> <Gold.Protein.RotatedTorsions>
[ 6907 6896 6895 6894 ] final   74.41 input  -60.11 | X-H torsion
[ 7974 7965 7964 7962 ] final   15.16 input  175.53 | X-H torsion
[ 8008 7997 7996 7995 ] final -171.07 input   59.86 | X-H torsion
[ 10167 10162 10161 10158 ] final  -58.73 input  -65.29 | X-H torsion
[ 10718 10713 10712 10709 ] final  162.21 input   66.30 | X-H torsion
[ 10763 10752 10751 10750 ] final  -40.46 input  -60.55 | X-H torsion
[ 11005 11000 10999 10996 ] final   42.66 input  -57.11 | X-H torsion

> <Gold.Protein.ActiveResidues>
 VAL166  LYS551  ARG553  GLY616  TRP617  ASP618  TYR619  PRO620  LYS621  CYS622 
 ASP623  PHE694  ASN695  SER759  ASP760  ASP761  ALA762  ILE779  LEU786  VAL792 
 PHE793  MET794  SER795  GLU796  ALA797  LYS798  CYS799  TRP800  GLU811  SER814 

> <Gold.Protein.RotatedAtoms>
  152.4974  134.4275  159.9500 H   0  0  0  0  0  0  0  0  0  0  0  0  # atno 6907 bound_to 6896
  151.4252  133.3680  159.2769 H   0  0  0  0  0  0  0  0  0  0  0  0  # atno 6908 bound_to 6896
  150.9194  134.8634  159.7538 H   0  0  0  0  0  0  0  0  0  0  0  0  # atno 6909 bound_to 6896
  146.2286  139.8934  142.8551 H   0  0  0  0  0  0  0  0  0  0  0  0  # atno 7974 bound_to 7965
  155.9266  140.1084  157.1165 H   0  0  0  0  0  0  0  0  0  0  0  0  # atno 8008 bound_to 7997
  154.4063  140.1245  156.4814 H   0  0  0  0  0  0  0  0  0  0  0  0  # atno 8009 bound_to 7997
  155.7131  140.3470  155.4985 H   0  0  0  0  0  0  0  0  0  0  0  0  # atno 8010 bound_to 7997
  140.6179  143.2409  151.5553 H   0  0  0  0  0  0  0  0  0  0  0  0  # atno 10167 bound_to 10162
  157.1257  131.0504  151.2394 H   0  0  0  0  0  0  0  0  0  0  0  0  # atno 10718 bound_to 10713
  153.9463  135.6755  153.4744 H   0  0  0  0  0  0  0  0  0  0  0  0  # atno 10763 bound_to 10752
  153.0906  135.4876  154.8680 H   0  0  0  0  0  0  0  0  0  0  0  0  # atno 10764 bound_to 10752
  154.7350  135.3147  154.8786 H   0  0  0  0  0  0  0  0  0  0  0  0  # atno 10765 bound_to 10752
  140.1718  134.4213  155.8252 H   0  0  0  0  0  0  0  0  0  0  0  0  # atno 11005 bound_to 11000
  145.2395  141.0004  143.3944 LP  0  0  0  0  0  0  0  0  0  0  0  0  # atno 17320 bound_to 7965
  144.9464  139.4131  143.6424 LP  0  0  0  0  0  0  0  0  0  0  0  0  # atno 17321 bound_to 7965
  139.5414  144.2638  152.1357 LP  0  0  0  0  0  0  0  0  0  0  0  0  # atno 17342 bound_to 10162
  140.1852  144.4806  150.6507 LP  0  0  0  0  0  0  0  0  0  0  0  0  # atno 17343 bound_to 10162
  157.4437  130.7558  149.7091 LP  0  0  0  0  0  0  0  0  0  0  0  0  # atno 17370 bound_to 10713
  155.9818  130.4015  150.3448 LP  0  0  0  0  0  0  0  0  0  0  0  0  # atno 17371 bound_to 10713
  141.2218  133.6959  156.7777 LP  0  0  0  0  0  0  0  0  0  0  0  0  # atno 17394 bound_to 11000
  140.2369  134.8643  157.3533 LP  0  0  0  0  0  0  0  0  0  0  0  0  # atno 17395 bound_to 11000

$$$$
