AV-unprocessed.smi:1959|AV-procd|sdf|7912|dock1
  -GOLD-   2272010 73D 1   1.00000     0.00000
 Structure written by MMmdl.
 44 45  0  0  0  0  0  0  0  0  1 V2000
  153.7394  141.1019  160.9713 C   0  0  0  0  0  0  0  0  0  0  0  0
  152.9970  142.0385  160.0651 C   0  0  0  0  0  0  0  0  0  0  0  0
  152.8309  143.4454  160.1957 C   0  0  0  0  0  0  0  0  0  0  0  0
  152.0675  143.7967  159.1183 C   0  0  0  0  0  0  0  0  0  0  0  0
  151.5480  145.1353  158.7077 C   0  0  0  0  0  0  0  0  0  0  0  0
  151.8145  142.6351  158.4081 N   0  0  0  0  0  0  0  0  0  0  0  0
  151.0283  142.4452  157.1961 C   0  0  0  0  0  0  0  0  0  0  0  0
  149.7135  141.7221  157.4975 C   0  0  0  0  0  0  0  0  0  0  0  0
  149.7191  140.6691  158.1341 O   0  0  0  0  0  0  0  0  0  0  0  0
  148.5943  142.3132  157.0519 N   0  0  0  0  0  0  0  0  0  0  0  0
  147.2307  141.9098  157.3789 C   0  0  2  0  0  0  0  0  0  0  0  0
  146.3876  141.8905  156.0941 C   0  0  0  0  0  0  0  0  0  0  0  0
  146.6420  142.8795  158.4273 C   0  0  0  0  0  0  0  0  0  0  0  0
  145.9981  142.2541  159.5860 N   0  0  0  0  0  0  0  0  0  0  0  0
  145.6158  143.2180  160.6173 C   0  0  0  0  0  0  0  0  0  0  0  0
  144.8921  142.5530  161.8003 C   0  0  0  0  0  0  0  0  0  0  0  0
  143.7594  141.8326  161.3278 O   0  0  0  0  0  0  0  0  0  0  0  0
  144.1068  140.8398  160.3688 C   0  0  0  0  0  0  0  0  0  0  0  0
  144.8137  141.5063  159.1762 C   0  0  0  0  0  0  0  0  0  0  0  0
  152.3901  141.5607  158.9918 N   0  0  0  0  0  0  0  0  0  0  0  0
  154.4971  140.5412  160.4235 H   0  0  0  0  0  0  0  0  0  0  0  0
  153.0605  140.3845  161.4328 H   0  0  0  0  0  0  0  0  0  0  0  0
  154.2424  141.6444  161.7719 H   0  0  0  0  0  0  0  0  0  0  0  0
  153.2102  144.0974  160.9685 H   0  0  0  0  0  0  0  0  0  0  0  0
  151.8711  145.9076  159.4061 H   0  0  0  0  0  0  0  0  0  0  0  0
  150.4585  145.1415  158.6850 H   0  0  0  0  0  0  0  0  0  0  0  0
  151.9123  145.4075  157.7172 H   0  0  0  0  0  0  0  0  0  0  0  0
  150.8216  143.4118  156.7370 H   0  0  0  0  0  0  0  0  0  0  0  0
  151.6155  141.8711  156.4776 H   0  0  0  0  0  0  0  0  0  0  0  0
  148.6956  143.1691  156.5262 H   0  0  0  0  0  0  0  0  0  0  0  0
  147.2285  140.9013  157.7973 H   0  0  0  0  0  0  0  0  0  0  0  0
  145.3654  141.5720  156.3003 H   0  0  0  0  0  0  0  0  0  0  0  0
  146.8018  141.1979  155.3604 H   0  0  0  0  0  0  0  0  0  0  0  0
  146.3426  142.8776  155.6327 H   0  0  0  0  0  0  0  0  0  0  0  0
  147.4047  143.5881  158.7552 H   0  0  0  0  0  0  0  0  0  0  0  0
  145.8881  143.4836  157.9207 H   0  0  0  0  0  0  0  0  0  0  0  0
  146.4979  143.7237  161.0064 H   0  0  0  0  0  0  0  0  0  0  0  0
  144.9731  143.9869  160.1858 H   0  0  0  0  0  0  0  0  0  0  0  0
  145.5645  141.8796  162.3339 H   0  0  0  0  0  0  0  0  0  0  0  0
  144.5624  143.3083  162.5138 H   0  0  0  0  0  0  0  0  0  0  0  0
  144.7479  140.0859  160.8285 H   0  0  0  0  0  0  0  0  0  0  0  0
  143.2010  140.3323  160.0373 H   0  0  0  0  0  0  0  0  0  0  0  0
  144.1123  142.1724  158.6711 H   0  0  0  0  0  0  0  0  0  0  0  0
  145.0921  140.7402  158.4517 H   0  0  0  0  0  0  0  0  0  0  0  0
  1  2  1  0  0  0  0
  1 21  1  0  0  0  0
  1 22  1  0  0  0  0
  1 23  1  0  0  0  0
  2 20  2  0  0  0  0
  2  3  1  0  0  0  0
  3  4  2  0  0  0  0
  3 24  1  0  0  0  0
  4  5  1  0  0  0  0
  4  6  1  0  0  0  0
  5 25  1  0  0  0  0
  5 26  1  0  0  0  0
  5 27  1  0  0  0  0
  6  7  1  0  0  0  0
  6 20  1  0  0  0  0
  7  8  1  0  0  0  0
  7 28  1  0  0  0  0
  7 29  1  0  0  0  0
  8  9  2  0  0  0  0
  8 10  1  0  0  0  0
 10 11  1  0  0  0  0
 10 30  1  0  0  0  0
 11 12  1  0  0  0  0
 11 13  1  0  0  0  0
 11 31  1  0  0  0  0
 12 32  1  0  0  0  0
 12 33  1  0  0  0  0
 12 34  1  0  0  0  0
 13 14  1  0  0  0  0
 13 35  1  0  0  0  0
 13 36  1  0  0  0  0
 14 19  1  0  0  0  0
 14 15  1  0  0  0  0
 15 16  1  0  0  0  0
 15 37  1  0  0  0  0
 15 38  1  0  0  0  0
 16 17  1  0  0  0  0
 16 39  1  0  0  0  0
 16 40  1  0  0  0  0
 17 18  1  0  0  0  0
 18 19  1  0  0  0  0
 18 41  1  0  0  0  0
 18 42  1  0  0  0  0
 19 43  1  0  0  0  0
 19 44  1  0  0  0  0
M  END
> <s_m_source_file>
AV-unprocessed.smi

> <i_m_source_file_index>
1959

> <i_lp_mmshare_version>
43012

> <i_f3d_flags>
0

> <s_epik_input>
W0NIM11jMVtjSF1jKFtDSDNdKW4objEpW0NIMl1DKD1PKVtOSF1bQ0BIXShbQ0gzXSlbQ0gyXU4yW0NIMl1bQ0gyXU9bQ0gyXVtDSDJdMg==

> <s_epik_cmdline>
J2VwaWtfcHl0aG9uJywgJy1waCcsICc3LjAnLCAnLXRuJywgJzgnLCAnLW1hJywgJzIwMCcsICctbWV0YWxfYmluZGluZycsICctaW1hZScsICc8aW5maWxlLm1hZT4nLCAnLW9tYWUnLCAnPG91dGZpbGUubWFlPic=

> <r_lp_tautomer_probability>
1

> <r_epik_Ionization_Penalty>
0.197284

> <r_epik_Ionization_Penalty_Charging>
0

> <r_epik_Ionization_Penalty_Neutral>
0.197284

> <r_epik_State_Penalty>
0.186684

> <r_epik_Charging_Adjusted_Penalty>
0.186684

> <i_epik_Tot_Q>
0

> <i_epik_Tot_abs_Q>
0

> <r_epik_Metal_State_Penalty>
0.186639

> <b_epik_Metal_Only>
0

> <s_lp_Force_Field>
OPLS_2005

> <r_lp_Energy>
23.1408

> <b_lp_Chiralities_Consistent>
1

> <s_lp_Variant>
AV-unprocessed.smi:1959-1

> <Gold.Version>
5.8.1

> <Gold.Id.Protein>
6NUR|6NUR_protein|mol2

> <Gold.PLP.Fitness>
41.5870

> <Gold.PLP.PLP>
-37.6455

> <Gold.PLP.part.hbond>
-3.1071

> <Gold.PLP.part.metal>
0.0000

> <Gold.PLP.part.buried>
-5.5745

> <Gold.PLP.part.nonpolar>
-30.5440

> <Gold.PLP.part.repulsive>
0.0442

> <Gold.PLP.ligand.clash>
0.0000

> <Gold.PLP.ligand.torsion>
1.0816

> <Gold.PLP.Chemscore.Hbond>
2.0000

> <Gold.PLP.Chemscore.CHOScore>
0.0000

> <Gold.PLP.Chemscore.Metal>
0.0000

> <Gold.Chemscore.Hbonds>
donor molecule, donor type, donor heavy atom, donor atom, acceptor molecule, acceptor atom, score
      L1  H    10    30       P1  8028  1.00
      P1  H  6934  6946       L1    14  1.00

> <Gold.PLP.Chemscore.Internal.Correction>
0.1047

> <Gold.Rescore>
     Score         DG    S(hbond)    S(metal)    S(lipo)     H(rot)  DE(clash)    DE(int)     intcor
     12.71     -14.93       1.10        0.00      86.57       1.70       0.03       2.19       ----

> <Gold.Chemscore.Fitness>
12.7087

> <Gold.Chemscore.DG>
-14.9277

> <Gold.Chemscore.ZeroCoef>
-5.4800

> <Gold.Chemscore.Hbond>
1.0956

> <Gold.Chemscore.Metal>
0.0000

> <Gold.Chemscore.Lipo>
86.5653

> <Gold.Chemscore.Internal_Hbond>
0.0000

> <Gold.Chemscore.DEClash>
0.0318

> <Gold.Chemscore.DEInternal>
2.1872

> <Gold.Chemscore.Rot>
1.6952

> <Gold.Chemscore.Internal.Correction>
   9.000000E+99

> <Gold.Chemscore.Hbonds>
donor molecule, donor type, donor heavy atom, donor atom, acceptor molecule, acceptor atom, score
      L1  H    10    30       P1  8028  0.88
      P1  H  6934  6946       L1    14  0.07

> <Gold.Chemscore.Hbond.Weighted>
-3.6593

> <Gold.Chemscore.Metal.Weighted>
-0.0000

> <Gold.Chemscore.Lipo.Weighted>
-10.1281

> <Gold.Chemscore.Internal_Hbond.Weighted>
0.0000

> <Gold.Chemscore.DEClash.Weighted>
0.0318

> <Gold.Chemscore.DEInternal.Weighted>
2.1872

> <Gold.Chemscore.Rot.Weighted>
4.3398

> <Gold.Chemscore.Internal.Correction.Weighted>
   9.000000E+99

> <Gold.Protein.RotatedTorsions>
[ 6907 6896 6895 6894 ] final   25.42 input  -60.11 | X-H torsion
[ 7974 7965 7964 7962 ] final  -31.25 input  175.53 | X-H torsion
[ 8008 7997 7996 7995 ] final  102.65 input   59.86 | X-H torsion
[ 10167 10162 10161 10158 ] final  -87.00 input  -65.29 | X-H torsion
[ 10718 10713 10712 10709 ] final   91.52 input   66.30 | X-H torsion
[ 10763 10752 10751 10750 ] final -116.05 input  -60.55 | X-H torsion
[ 11005 11000 10999 10996 ] final    8.24 input  -57.11 | X-H torsion

> <Gold.Protein.ActiveResidues>
 VAL166  LYS551  ARG553  GLY616  TRP617  ASP618  TYR619  PRO620  LYS621  CYS622 
 ASP623  PHE694  ASN695  SER759  ASP760  ASP761  ALA762  ILE779  LEU786  VAL792 
 PHE793  MET794  SER795  GLU796  ALA797  LYS798  CYS799  TRP800  GLU811  SER814 

> <Gold.Protein.RotatedAtoms>
  151.9723  135.0070  160.0553 H   0  0  0  0  0  0  0  0  0  0  0  0  # atno 6907 bound_to 6896
  152.1772  133.4678  159.4947 H   0  0  0  0  0  0  0  0  0  0  0  0  # atno 6908 bound_to 6896
  150.6911  134.1796  159.4286 H   0  0  0  0  0  0  0  0  0  0  0  0  # atno 6909 bound_to 6896
  146.1081  140.5644  142.8790 H   0  0  0  0  0  0  0  0  0  0  0  0  # atno 7974 bound_to 7965
  156.1412  140.3178  155.8499 H   0  0  0  0  0  0  0  0  0  0  0  0  # atno 8008 bound_to 7997
  155.4150  140.0508  157.3046 H   0  0  0  0  0  0  0  0  0  0  0  0  # atno 8009 bound_to 7997
  154.4978  140.2117  155.9422 H   0  0  0  0  0  0  0  0  0  0  0  0  # atno 8010 bound_to 7997
  140.3887  143.2715  151.9292 H   0  0  0  0  0  0  0  0  0  0  0  0  # atno 10167 bound_to 10162
  157.6960  131.0410  150.3742 H   0  0  0  0  0  0  0  0  0  0  0  0  # atno 10718 bound_to 10713
  154.8505  135.4359  154.1760 H   0  0  0  0  0  0  0  0  0  0  0  0  # atno 10763 bound_to 10752
  153.2862  135.6957  153.7343 H   0  0  0  0  0  0  0  0  0  0  0  0  # atno 10764 bound_to 10752
  153.6528  135.3448  155.3079 H   0  0  0  0  0  0  0  0  0  0  0  0  # atno 10765 bound_to 10752
  140.5392  134.0391  155.7898 H   0  0  0  0  0  0  0  0  0  0  0  0  # atno 11005 bound_to 11000
  144.7488  140.5138  143.6816 LP  0  0  0  0  0  0  0  0  0  0  0  0  # atno 17320 bound_to 7965
  145.5719  139.1484  143.3283 LP  0  0  0  0  0  0  0  0  0  0  0  0  # atno 17321 bound_to 7965
  139.4790  144.5748  151.8029 LP  0  0  0  0  0  0  0  0  0  0  0  0  # atno 17342 bound_to 10162
  140.4862  144.1377  150.5941 LP  0  0  0  0  0  0  0  0  0  0  0  0  # atno 17343 bound_to 10162
  156.4163  130.3944  149.6856 LP  0  0  0  0  0  0  0  0  0  0  0  0  # atno 17370 bound_to 10713
  156.4123  130.7728  151.2741 LP  0  0  0  0  0  0  0  0  0  0  0  0  # atno 17371 bound_to 10713
  141.1237  133.9419  157.2679 LP  0  0  0  0  0  0  0  0  0  0  0  0  # atno 17394 bound_to 11000
  139.9513  135.0175  156.9001 LP  0  0  0  0  0  0  0  0  0  0  0  0  # atno 17395 bound_to 11000

$$$$
