AV-unprocessed.smi:2510|AV-procd|sdf|9872|dock2
  -GOLD-   2272013503D 1   1.00000     0.00000
 Structure written by MMmdl.
 48 49  0  0  0  0  0  0  0  0  1 V2000
  147.6953  141.9154  154.1803 C   0  0  0  0  0  0  0  0  0  0  0  0
  147.7638  140.4157  153.8407 C   0  0  0  0  0  0  0  0  0  0  0  0
  148.1588  139.4591  155.0030 C   0  0  0  0  0  0  0  0  0  0  0  0
  147.2928  139.7590  156.2420 C   0  0  0  0  0  0  0  0  0  0  0  0
  147.6428  138.9228  157.4831 C   0  0  0  0  0  0  0  0  0  0  0  0
  148.3207  137.9493  154.6647 C   0  0  1  0  0  0  0  0  0  0  0  0
  147.5804  137.4779  153.4994 N   0  0  0  0  0  0  0  0  0  0  0  0
  146.2531  137.2857  153.4586 C   0  0  0  0  0  0  0  0  0  0  0  0
  145.5052  137.5159  154.4088 O   0  0  0  0  0  0  0  0  0  0  0  0
  145.6818  136.7427  152.1470 C   0  0  0  0  0  0  0  0  0  0  0  0
  145.3257  135.2866  152.2893 C   0  0  0  0  0  0  0  0  0  0  0  0
  145.8067  134.1863  151.5193 C   0  0  0  0  0  0  0  0  0  0  0  0
  145.1895  133.0961  152.0647 C   0  0  0  0  0  0  0  0  0  0  0  0
  145.2678  131.6462  151.7281 C   0  0  0  0  0  0  0  0  0  0  0  0
  144.3974  133.5724  153.0836 N   0  0  0  0  0  0  0  0  0  0  0  0
  144.4690  134.9082  153.2290 N   0  0  0  0  0  0  0  0  0  0  0  0
  149.8010  138.1863  154.3454 C   0  0  2  0  0  0  0  0  0  0  0  0
  150.7999  137.0743  154.6382 C   0  0  0  0  0  0  0  0  0  0  0  0
  149.6811  139.3822  155.3002 C   0  0  1  0  0  0  0  0  0  0  0  0
  150.3852  140.5478  154.8965 O   0  0  0  0  0  0  0  0  0  0  0  0
  150.2276  141.6352  155.7905 C   0  0  0  0  0  0  0  0  0  0  0  0
  143.8104  133.0052  153.6787 H   0  0  0  0  0  0  0  0  0  0  0  0
  147.2369  142.4722  153.3631 H   0  0  0  0  0  0  0  0  0  0  0  0
  148.6869  142.3386  154.3379 H   0  0  0  0  0  0  0  0  0  0  0  0
  147.1094  142.1068  155.0757 H   0  0  0  0  0  0  0  0  0  0  0  0
  146.7941  140.1268  153.4354 H   0  0  0  0  0  0  0  0  0  0  0  0
  148.4538  140.2964  153.0052 H   0  0  0  0  0  0  0  0  0  0  0  0
  147.3212  140.8193  156.4914 H   0  0  0  0  0  0  0  0  0  0  0  0
  146.2459  139.5662  156.0056 H   0  0  0  0  0  0  0  0  0  0  0  0
  146.9498  139.1366  158.2968 H   0  0  0  0  0  0  0  0  0  0  0  0
  148.6470  139.1371  157.8477 H   0  0  0  0  0  0  0  0  0  0  0  0
  147.5833  137.8549  157.2720 H   0  0  0  0  0  0  0  0  0  0  0  0
  148.2105  137.3118  155.5459 H   0  0  0  0  0  0  0  0  0  0  0  0
  148.1157  137.2738  152.6674 H   0  0  0  0  0  0  0  0  0  0  0  0
  144.8095  137.3331  151.8635 H   0  0  0  0  0  0  0  0  0  0  0  0
  146.4156  136.8745  151.3510 H   0  0  0  0  0  0  0  0  0  0  0  0
  146.5070  134.1979  150.6973 H   0  0  0  0  0  0  0  0  0  0  0  0
  145.9994  131.4681  150.9397 H   0  0  0  0  0  0  0  0  0  0  0  0
  144.3027  131.2766  151.3817 H   0  0  0  0  0  0  0  0  0  0  0  0
  145.5633  131.0614  152.5994 H   0  0  0  0  0  0  0  0  0  0  0  0
  149.9147  138.5463  153.3211 H   0  0  0  0  0  0  0  0  0  0  0  0
  150.7539  136.7615  155.6816 H   0  0  0  0  0  0  0  0  0  0  0  0
  151.8222  137.3907  154.4332 H   0  0  0  0  0  0  0  0  0  0  0  0
  150.6000  136.1967  154.0231 H   0  0  0  0  0  0  0  0  0  0  0  0
  149.8799  139.1088  156.3396 H   0  0  0  0  0  0  0  0  0  0  0  0
  150.7531  142.5066  155.3997 H   0  0  0  0  0  0  0  0  0  0  0  0
  150.6448  141.4080  156.7710 H   0  0  0  0  0  0  0  0  0  0  0  0
  149.1764  141.9014  155.9077 H   0  0  0  0  0  0  0  0  0  0  0  0
  1  2  1  0  0  0  0
  1 23  1  0  0  0  0
  1 24  1  0  0  0  0
  1 25  1  0  0  0  0
  2  3  1  0  0  0  0
  2 26  1  0  0  0  0
  2 27  1  0  0  0  0
  3 19  1  0  0  0  0
  3  4  1  0  0  0  0
  3  6  1  0  0  0  0
  4  5  1  0  0  0  0
  4 28  1  0  0  0  0
  4 29  1  0  0  0  0
  5 30  1  0  0  0  0
  5 31  1  0  0  0  0
  5 32  1  0  0  0  0
  6  7  1  0  0  0  0
  6 17  1  0  0  0  0
  6 33  1  0  0  0  0
  7  8  1  0  0  0  0
  7 34  1  0  0  0  0
  8  9  2  0  0  0  0
  8 10  1  0  0  0  0
 10 11  1  0  0  0  0
 10 35  1  0  0  0  0
 10 36  1  0  0  0  0
 11 16  2  0  0  0  0
 11 12  1  0  0  0  0
 12 13  2  0  0  0  0
 12 37  1  0  0  0  0
 13 14  1  0  0  0  0
 13 15  1  0  0  0  0
 14 38  1  0  0  0  0
 14 39  1  0  0  0  0
 14 40  1  0  0  0  0
 15 22  1  0  0  0  0
 15 16  1  0  0  0  0
 17 18  1  0  0  0  0
 17 19  1  0  0  0  0
 17 41  1  0  0  0  0
 18 42  1  0  0  0  0
 18 43  1  0  0  0  0
 18 44  1  0  0  0  0
 19 20  1  0  0  0  0
 19 45  1  0  0  0  0
 20 21  1  0  0  0  0
 21 46  1  0  0  0  0
 21 47  1  0  0  0  0
 21 48  1  0  0  0  0
M  END
> <s_m_source_file>
AV-unprocessed.smi

> <i_m_source_file_index>
2510

> <i_lp_mmshare_version>
43012

> <i_f3d_flags>
0

> <s_epik_input>
W0NIM11PW0NAQEhdMVtDQEhdKFtDSDNdKVtDQEBIXShDMShbQ0gyXVtDSDNdKVtDSDJdW0NIM10pW05IXUMoPU8pW0NIMl1jMltjSF1jKFtDSDNdKVtuSF1uMg==

> <s_epik_cmdline>
J2VwaWtfcHl0aG9uJywgJy1waCcsICc3LjAnLCAnLXRuJywgJzgnLCAnLW1hJywgJzIwMCcsICctbWV0YWxfYmluZGluZycsICctaW1hZScsICc8aW5maWxlLm1hZT4nLCAnLW9tYWUnLCAnPG91dGZpbGUubWFlPic=

> <r_lp_tautomer_probability>
0.5

> <r_epik_Ionization_Penalty>
9.73156e-05

> <r_epik_Ionization_Penalty_Charging>
0

> <r_epik_Ionization_Penalty_Neutral>
9.73156e-05

> <r_epik_State_Penalty>
0.41068

> <r_epik_Charging_Adjusted_Penalty>
0.41068

> <i_epik_Tot_Q>
0

> <i_epik_Tot_abs_Q>
0

> <r_epik_Metal_State_Penalty>
0.410699

> <b_epik_Metal_Only>
0

> <s_lp_Force_Field>
OPLS_2005

> <r_lp_Energy>
23.9763

> <b_lp_Chiralities_Consistent>
1

> <s_lp_Variant>
AV-unprocessed.smi:2510-3

> <Gold.Version>
5.8.1

> <Gold.Id.Protein>
6NUR|6NUR_protein|mol2

> <Gold.PLP.Fitness>
36.0273

> <Gold.PLP.PLP>
-27.5732

> <Gold.PLP.part.hbond>
-2.9335

> <Gold.PLP.part.metal>
0.0000

> <Gold.PLP.part.buried>
-5.5774

> <Gold.PLP.part.nonpolar>
-21.5324

> <Gold.PLP.part.repulsive>
0.2385

> <Gold.PLP.ligand.clash>
0.0000

> <Gold.PLP.ligand.torsion>
0.5758

> <Gold.PLP.Chemscore.Hbond>
2.9920

> <Gold.PLP.Chemscore.CHOScore>
0.0000

> <Gold.PLP.Chemscore.Metal>
0.0000

> <Gold.Chemscore.Hbonds>
donor molecule, donor type, donor heavy atom, donor atom, acceptor molecule, acceptor atom, score
      L1  H     7    34       P1  7948  0.98
      L1  H    15    22       P1 10957  1.00
      P1  H  7989  7998       L1    20  0.96

> <Gold.PLP.Chemscore.Internal.Correction>
0.6296

> <Gold.Rescore>
     Score         DG    S(hbond)    S(metal)    S(lipo)     H(rot)  DE(clash)    DE(int)     intcor
     17.64     -18.36       2.65        0.00      74.02       1.81       0.03       0.69       ----

> <Gold.Chemscore.Fitness>
17.6399

> <Gold.Chemscore.DG>
-18.3645

> <Gold.Chemscore.ZeroCoef>
-5.4800

> <Gold.Chemscore.Hbond>
2.6523

> <Gold.Chemscore.Metal>
0.0000

> <Gold.Chemscore.Lipo>
74.0151

> <Gold.Chemscore.Internal_Hbond>
0.0000

> <Gold.Chemscore.DEClash>
0.0299

> <Gold.Chemscore.DEInternal>
0.6947

> <Gold.Chemscore.Rot>
1.8102

> <Gold.Chemscore.Internal.Correction>
   9.000000E+99

> <Gold.Chemscore.Hbonds>
donor molecule, donor type, donor heavy atom, donor atom, acceptor molecule, acceptor atom, score
      L1  H     7    34       P1  7948  0.89
      L1  H    15    22       P1 10957  0.88
      P1  H  7989  7998       L1    20  0.79

> <Gold.Chemscore.Hbond.Weighted>
-8.8588

> <Gold.Chemscore.Metal.Weighted>
-0.0000

> <Gold.Chemscore.Lipo.Weighted>
-8.6598

> <Gold.Chemscore.Internal_Hbond.Weighted>
0.0000

> <Gold.Chemscore.DEClash.Weighted>
0.0299

> <Gold.Chemscore.DEInternal.Weighted>
0.6947

> <Gold.Chemscore.Rot.Weighted>
4.6341

> <Gold.Chemscore.Internal.Correction.Weighted>
   9.000000E+99

> <Gold.Protein.RotatedTorsions>
[ 6907 6896 6895 6894 ] final  -43.89 input  -60.11 | X-H torsion
[ 7974 7965 7964 7962 ] final   45.47 input  175.53 | X-H torsion
[ 8008 7997 7996 7995 ] final   -7.75 input   59.86 | X-H torsion
[ 10167 10162 10161 10158 ] final   10.08 input  -65.29 | X-H torsion
[ 10718 10713 10712 10709 ] final   49.68 input   66.30 | X-H torsion
[ 10763 10752 10751 10750 ] final  -41.03 input  -60.55 | X-H torsion
[ 11005 11000 10999 10996 ] final  -61.04 input  -57.11 | X-H torsion

> <Gold.Protein.ActiveResidues>
 VAL166  LYS551  ARG553  GLY616  TRP617  ASP618  TYR619  PRO620  LYS621  CYS622 
 ASP623  PHE694  ASN695  SER759  ASP760  ASP761  ALA762  ILE779  LEU786  VAL792 
 PHE793  MET794  SER795  GLU796  ALA797  LYS798  CYS799  TRP800  GLU811  SER814 

> <Gold.Protein.RotatedAtoms>
  150.9389  134.8800  159.7599 H   0  0  0  0  0  0  0  0  0  0  0  0  # atno 6907 bound_to 6896
  152.5071  134.3970  159.9413 H   0  0  0  0  0  0  0  0  0  0  0  0  # atno 6908 bound_to 6896
  151.3992  133.3723  159.2765 H   0  0  0  0  0  0  0  0  0  0  0  0  # atno 6909 bound_to 6896
  146.0477  139.4961  142.9738 H   0  0  0  0  0  0  0  0  0  0  0  0  # atno 7974 bound_to 7965
  154.5808  140.2399  155.8057 H   0  0  0  0  0  0  0  0  0  0  0  0  # atno 8008 bound_to 7997
  156.2177  140.3007  155.9835 H   0  0  0  0  0  0  0  0  0  0  0  0  # atno 8009 bound_to 7997
  155.2545  140.0412  157.2981 H   0  0  0  0  0  0  0  0  0  0  0  0  # atno 8010 bound_to 7997
  140.6216  143.8192  150.7182 H   0  0  0  0  0  0  0  0  0  0  0  0  # atno 10167 bound_to 10162
  157.4810  130.8315  149.8093 H   0  0  0  0  0  0  0  0  0  0  0  0  # atno 10718 bound_to 10713
  153.9557  135.6745  153.4744 H   0  0  0  0  0  0  0  0  0  0  0  0  # atno 10763 bound_to 10752
  153.0862  135.4897  154.8598 H   0  0  0  0  0  0  0  0  0  0  0  0  # atno 10764 bound_to 10752
  154.7300  135.3136  154.8866 H   0  0  0  0  0  0  0  0  0  0  0  0  # atno 10765 bound_to 10752
  141.1310  133.6627  156.5315 H   0  0  0  0  0  0  0  0  0  0  0  0  # atno 11005 bound_to 11000
  145.6777  141.0199  143.1623 LP  0  0  0  0  0  0  0  0  0  0  0  0  # atno 17320 bound_to 7965
  144.7106  139.8385  143.7416 LP  0  0  0  0  0  0  0  0  0  0  0  0  # atno 17321 bound_to 7965
  140.1783  143.4136  152.1951 LP  0  0  0  0  0  0  0  0  0  0  0  0  # atno 17342 bound_to 10162
  139.5443  144.7285  151.4632 LP  0  0  0  0  0  0  0  0  0  0  0  0  # atno 17343 bound_to 10162
  156.0122  130.3828  150.2228 LP  0  0  0  0  0  0  0  0  0  0  0  0  # atno 17370 bound_to 10713
  157.0414  131.0036  151.3282 LP  0  0  0  0  0  0  0  0  0  0  0  0  # atno 17371 bound_to 10713
  140.4212  134.7186  157.4891 LP  0  0  0  0  0  0  0  0  0  0  0  0  # atno 17394 bound_to 11000
  140.0359  134.6338  155.9044 LP  0  0  0  0  0  0  0  0  0  0  0  0  # atno 17395 bound_to 11000

$$$$
