AV-unprocessed.smi:1615|AV-procd|sdf|6481|dock2
  -GOLD-   22720 7143D 1   1.00000     0.00000
 Structure written by MMmdl.
 32 33  0  0  0  0  0  0  0  0  1 V2000
  151.3934  140.8644  157.2227 O   0  0  0  0  0  0  0  0  0  0  0  0
  150.7709  141.7380  156.6199 C   0  0  0  0  0  0  0  0  0  0  0  0
  149.8176  141.3517  155.4886 C   0  0  0  0  0  0  0  0  0  0  0  0
  149.7463  139.9091  155.3372 N   0  0  0  0  0  0  0  0  0  0  0  0
  148.8522  139.0317  155.9216 C   0  0  0  0  0  0  0  0  0  0  0  0
  149.2080  137.7975  155.4709 C   0  0  0  0  0  0  0  0  0  0  0  0
  148.3725  136.1439  155.9027 Br  0  0  0  0  0  0  0  0  0  0  0  0
  150.3243  137.9882  154.6177 C   0  0  0  0  0  0  0  0  0  0  0  0
  150.6438  139.2718  154.5413 N   0  0  0  0  0  0  0  0  0  0  0  0
  150.8667  143.0484  156.8956 N   0  0  0  0  0  0  0  0  0  0  0  0
  151.6793  143.6459  157.9511 C   0  0  0  0  0  0  0  0  0  0  0  0
  151.6161  142.7623  159.2113 C   0  0  0  0  0  0  0  0  0  0  0  0
  152.3810  143.3971  160.3839 C   0  0  0  0  0  0  0  0  0  0  0  0
  151.8706  144.8162  160.6789 C   0  0  0  0  0  0  0  0  0  0  0  0
  151.9461  145.7021  159.4255 C   0  0  0  0  0  0  0  0  0  0  0  0
  151.1802  145.0727  158.2503 C   0  0  0  0  0  0  0  0  0  0  0  0
  148.8168  141.7362  155.6905 H   0  0  0  0  0  0  0  0  0  0  0  0
  150.1498  141.7999  154.5508 H   0  0  0  0  0  0  0  0  0  0  0  0
  148.0661  139.3535  156.5886 H   0  0  0  0  0  0  0  0  0  0  0  0
  150.8987  137.2592  154.0655 H   0  0  0  0  0  0  0  0  0  0  0  0
  150.3182  143.6860  156.3370 H   0  0  0  0  0  0  0  0  0  0  0  0
  152.7226  143.7114  157.6371 H   0  0  0  0  0  0  0  0  0  0  0  0
  150.5764  142.6062  159.5026 H   0  0  0  0  0  0  0  0  0  0  0  0
  152.0275  141.7752  158.9957 H   0  0  0  0  0  0  0  0  0  0  0  0
  152.2823  142.7738  161.2730 H   0  0  0  0  0  0  0  0  0  0  0  0
  153.4454  143.4336  160.1485 H   0  0  0  0  0  0  0  0  0  0  0  0
  150.8399  144.7688  161.0328 H   0  0  0  0  0  0  0  0  0  0  0  0
  152.4542  145.2615  161.4852 H   0  0  0  0  0  0  0  0  0  0  0  0
  151.5435  146.6914  159.6444 H   0  0  0  0  0  0  0  0  0  0  0  0
  152.9898  145.8483  159.1445 H   0  0  0  0  0  0  0  0  0  0  0  0
  151.2881  145.6994  157.3640 H   0  0  0  0  0  0  0  0  0  0  0  0
  150.1152  145.0507  158.4858 H   0  0  0  0  0  0  0  0  0  0  0  0
  1  2  2  0  0  0  0
  2  3  1  0  0  0  0
  2 10  1  0  0  0  0
  3  4  1  0  0  0  0
  3 17  1  0  0  0  0
  3 18  1  0  0  0  0
  4  9  1  0  0  0  0
  4  5  1  0  0  0  0
  5  6  2  0  0  0  0
  5 19  1  0  0  0  0
  6  7  1  0  0  0  0
  6  8  1  0  0  0  0
  8  9  2  0  0  0  0
  8 20  1  0  0  0  0
 10 11  1  0  0  0  0
 10 21  1  0  0  0  0
 11 16  1  0  0  0  0
 11 12  1  0  0  0  0
 11 22  1  0  0  0  0
 12 13  1  0  0  0  0
 12 23  1  0  0  0  0
 12 24  1  0  0  0  0
 13 14  1  0  0  0  0
 13 25  1  0  0  0  0
 13 26  1  0  0  0  0
 14 15  1  0  0  0  0
 14 27  1  0  0  0  0
 14 28  1  0  0  0  0
 15 16  1  0  0  0  0
 15 29  1  0  0  0  0
 15 30  1  0  0  0  0
 16 31  1  0  0  0  0
 16 32  1  0  0  0  0
M  END
> <s_m_source_file>
AV-unprocessed.smi

> <i_m_source_file_index>
1615

> <i_lp_mmshare_version>
43012

> <i_f3d_flags>
0

> <s_epik_input>
bjFbY0hdYyhCcilbY0hdbjFbQ0gyXUMoPU8pW05IXVtDSF0yW0NIMl1bQ0gyXVtDSDJdW0NIMl1bQ0gyXTI=

> <s_epik_cmdline>
J2VwaWtfcHl0aG9uJywgJy1waCcsICc3LjAnLCAnLXRuJywgJzgnLCAnLW1hJywgJzIwMCcsICctbWV0YWxfYmluZGluZycsICctaW1hZScsICc8aW5maWxlLm1hZT4nLCAnLW9tYWUnLCAnPG91dGZpbGUubWFlPic=

> <r_lp_tautomer_probability>
1

> <r_epik_Ionization_Penalty>
2.45271e-07

> <r_epik_Ionization_Penalty_Charging>
0

> <r_epik_Ionization_Penalty_Neutral>
2.45271e-07

> <r_epik_State_Penalty>
-0

> <r_epik_Charging_Adjusted_Penalty>
0

> <i_epik_Tot_Q>
0

> <i_epik_Tot_abs_Q>
0

> <r_epik_Metal_State_Penalty>
-0

> <b_epik_Metal_Only>
0

> <s_lp_Force_Field>
OPLS_2005

> <r_lp_Energy>
11.9835

> <b_lp_Chiralities_Consistent>
1

> <s_lp_Variant>
AV-unprocessed.smi:1615-1

> <Gold.Version>
5.8.1

> <Gold.Id.Protein>
6NUR|6NUR_protein|mol2

> <Gold.PLP.Fitness>
44.5120

> <Gold.PLP.PLP>
-36.8936

> <Gold.PLP.part.hbond>
-2.0000

> <Gold.PLP.part.metal>
0.0000

> <Gold.PLP.part.buried>
-3.3762

> <Gold.PLP.part.nonpolar>
-30.4664

> <Gold.PLP.part.repulsive>
0.2207

> <Gold.PLP.ligand.clash>
0.0000

> <Gold.PLP.ligand.torsion>
0.6533

> <Gold.PLP.Chemscore.Hbond>
2.0000

> <Gold.PLP.Chemscore.CHOScore>
0.9726

> <Gold.PLP.Chemscore.Metal>
0.0000

> <Gold.Chemscore.Hbonds>
donor molecule, donor type, donor heavy atom, donor atom, acceptor molecule, acceptor atom, score
      L1  H    10    21       P1  8028  1.00
      P1  H  7989  7998       L1     9  0.71
      L1  C     8    20       P1  7949  0.12

> <Gold.PLP.Chemscore.Internal.Correction>
0.0071

> <Gold.Rescore>
     Score         DG    S(hbond)    S(metal)    S(lipo)     H(rot)  DE(clash)    DE(int)     intcor
     16.45     -18.78       1.77        0.00      93.84       1.40       0.53       1.80       ----

> <Gold.Chemscore.Fitness>
16.4538

> <Gold.Chemscore.DG>
-18.7836

> <Gold.Chemscore.ZeroCoef>
-5.4800

> <Gold.Chemscore.Hbond>
1.7663

> <Gold.Chemscore.Metal>
0.0000

> <Gold.Chemscore.Lipo>
93.8364

> <Gold.Chemscore.Internal_Hbond>
0.0000

> <Gold.Chemscore.DEClash>
0.5290

> <Gold.Chemscore.DEInternal>
1.8007

> <Gold.Chemscore.Rot>
1.3963

> <Gold.Chemscore.Internal.Correction>
   9.000000E+99

> <Gold.Chemscore.Hbonds>
donor molecule, donor type, donor heavy atom, donor atom, acceptor molecule, acceptor atom, score
      L1  H    10    21       P1  8028  1.00
      P1  H  7989  7998       L1     9  0.32

> <Gold.Chemscore.Hbond.Weighted>
-5.8993

> <Gold.Chemscore.Metal.Weighted>
-0.0000

> <Gold.Chemscore.Lipo.Weighted>
-10.9789

> <Gold.Chemscore.Internal_Hbond.Weighted>
0.0000

> <Gold.Chemscore.DEClash.Weighted>
0.5290

> <Gold.Chemscore.DEInternal.Weighted>
1.8007

> <Gold.Chemscore.Rot.Weighted>
3.5746

> <Gold.Chemscore.Internal.Correction.Weighted>
   9.000000E+99

> <Gold.Protein.RotatedTorsions>
[ 6907 6896 6895 6894 ] final -109.35 input  -60.11 | X-H torsion
[ 7974 7965 7964 7962 ] final  -99.90 input  175.53 | X-H torsion
[ 8008 7997 7996 7995 ] final  -29.13 input   59.86 | X-H torsion
[ 10167 10162 10161 10158 ] final  -45.82 input  -65.29 | X-H torsion
[ 10718 10713 10712 10709 ] final -160.66 input   66.30 | X-H torsion
[ 10763 10752 10751 10750 ] final   19.79 input  -60.55 | X-H torsion
[ 11005 11000 10999 10996 ] final   17.07 input  -57.11 | X-H torsion

> <Gold.Protein.ActiveResidues>
 VAL166  LYS551  ARG553  GLY616  TRP617  ASP618  TYR619  PRO620  LYS621  CYS622 
 ASP623  PHE694  ASN695  SER759  ASP760  ASP761  ALA762  ILE779  LEU786  VAL792 
 PHE793  MET794  SER795  GLU796  ALA797  LYS798  CYS799  TRP800  GLU811  SER814 

> <Gold.Protein.RotatedAtoms>
  150.7556  133.9543  159.3495 H   0  0  0  0  0  0  0  0  0  0  0  0  # atno 6907 bound_to 6896
  151.7463  135.0841  160.0333 H   0  0  0  0  0  0  0  0  0  0  0  0  # atno 6908 bound_to 6896
  152.3496  133.6126  159.5971 H   0  0  0  0  0  0  0  0  0  0  0  0  # atno 6909 bound_to 6896
  145.3016  140.9378  143.2820 H   0  0  0  0  0  0  0  0  0  0  0  0  # atno 7974 bound_to 7965
  154.4303  140.1826  156.1199 H   0  0  0  0  0  0  0  0  0  0  0  0  # atno 8008 bound_to 7997
  156.0151  140.3346  155.6955 H   0  0  0  0  0  0  0  0  0  0  0  0  # atno 8009 bound_to 7997
  155.6055  140.0644  157.2711 H   0  0  0  0  0  0  0  0  0  0  0  0  # atno 8010 bound_to 7997
  140.6843  143.2861  151.3693 H   0  0  0  0  0  0  0  0  0  0  0  0  # atno 10167 bound_to 10162
  156.5852  130.8747  151.2875 H   0  0  0  0  0  0  0  0  0  0  0  0  # atno 10718 bound_to 10713
  153.1132  135.6701  153.9464 H   0  0  0  0  0  0  0  0  0  0  0  0  # atno 10763 bound_to 10752
  153.9001  135.3037  155.3450 H   0  0  0  0  0  0  0  0  0  0  0  0  # atno 10764 bound_to 10752
  154.7550  135.5016  153.9436 H   0  0  0  0  0  0  0  0  0  0  0  0  # atno 10765 bound_to 10752
  140.4400  134.1331  155.7689 H   0  0  0  0  0  0  0  0  0  0  0  0  # atno 11005 bound_to 11000
  144.9089  139.4554  143.6596 LP  0  0  0  0  0  0  0  0  0  0  0  0  # atno 17320 bound_to 7965
  146.3150  139.7886  142.8990 LP  0  0  0  0  0  0  0  0  0  0  0  0  # atno 17321 bound_to 7965
  139.6188  144.0948  152.2372 LP  0  0  0  0  0  0  0  0  0  0  0  0  # atno 17342 bound_to 10162
  140.0386  144.6025  150.7429 LP  0  0  0  0  0  0  0  0  0  0  0  0  # atno 17343 bound_to 10162
  157.7317  130.9704  150.1892 LP  0  0  0  0  0  0  0  0  0  0  0  0  # atno 17370 bound_to 10713
  156.2597  130.3709  149.8144 LP  0  0  0  0  0  0  0  0  0  0  0  0  # atno 17371 bound_to 10713
  141.1709  133.8610  157.1572 LP  0  0  0  0  0  0  0  0  0  0  0  0  # atno 17394 bound_to 11000
  140.0076  135.0002  157.0326 LP  0  0  0  0  0  0  0  0  0  0  0  0  # atno 17395 bound_to 11000

$$$$
