AV-unprocessed.smi:106|AV-procd|sdf|1011|dock8
  -GOLD-   2262018 13D 1   1.00000     0.00000
 Structure written by MMmdl.
 51 54  0  0  0  0  0  0  0  0  1 V2000
  152.8244  137.1915  157.6224 O   0  0  0  0  0  0  0  0  0  0  0  0
  152.2972  137.4334  156.5342 C   0  0  0  0  0  0  0  0  0  0  0  0
  152.6650  138.7407  155.7984 C   0  0  0  0  0  0  0  0  0  0  0  0
  151.7651  139.8732  156.1152 N   0  0  0  0  0  0  0  0  0  0  0  0
  150.7551  140.2146  155.1821 C   0  0  0  0  0  0  0  0  0  0  0  0
  150.6240  139.5929  154.1265 O   0  0  0  0  0  0  0  0  0  0  0  0
  149.9033  141.3362  155.5588 C   0  0  0  0  0  0  0  0  0  0  0  0
  148.8998  141.7125  154.7481 F   0  0  0  0  0  0  0  0  0  0  0  0
  150.1040  142.0023  156.7142 C   0  0  0  0  0  0  0  0  0  0  0  0
  151.1163  141.6860  157.5989 N   0  0  0  0  0  0  0  0  0  0  0  0
  151.2369  142.4762  158.8839 C   0  0  2  0  0  0  0  0  0  0  0  0
  150.1730  143.5732  159.0394 C   0  0  0  0  0  0  0  0  0  0  0  0
  150.9608  144.6454  159.7606 C   0  0  0  0  0  0  0  0  0  0  0  0
  152.3487  144.4841  159.1499 C   0  0  0  0  0  0  0  0  0  0  0  0
  152.4963  143.0828  158.9344 O   0  0  0  0  0  0  0  0  0  0  0  0
  151.9623  140.5858  157.3234 C   0  0  0  0  0  0  0  0  0  0  0  0
  152.8502  140.2528  158.1092 O   0  0  0  0  0  0  0  0  0  0  0  0
  151.4034  136.5874  155.9651 N   0  0  0  0  0  0  0  0  0  0  0  0
  150.7129  136.8657  154.6967 C   0  0  0  0  0  0  0  0  0  0  0  0
  149.3544  136.1455  154.5915 C   0  0  0  0  0  0  0  0  0  0  0  0
  149.4562  134.6922  154.7886 N   0  0  0  0  0  0  0  0  0  0  0  0
  148.4724  133.8759  154.3314 C   0  0  0  0  0  0  0  0  0  0  0  0
  147.4191  134.3203  153.8706 O   0  0  0  0  0  0  0  0  0  0  0  0
  148.6699  132.4048  154.3661 C   0  0  0  0  0  0  0  0  0  0  0  0
  149.7946  131.6152  154.3920 C   0  0  0  0  0  0  0  0  0  0  0  0
  149.5035  130.2197  154.3648 C   0  0  0  0  0  0  0  0  0  0  0  0
  148.1618  129.9576  154.2903 C   0  0  0  0  0  0  0  0  0  0  0  0
  147.2256  131.4256  154.2398 S   0  0  0  0  0  0  0  0  0  0  0  0
  150.6017  134.2421  155.5946 C   0  0  0  0  0  0  0  0  0  0  0  0
  151.0674  135.3072  156.6057 C   0  0  0  0  0  0  0  0  0  0  0  0
  153.6978  139.0052  156.0311 H   0  0  0  0  0  0  0  0  0  0  0  0
  152.6718  138.5467  154.7253 H   0  0  0  0  0  0  0  0  0  0  0  0
  149.4414  142.8234  156.9463 H   0  0  0  0  0  0  0  0  0  0  0  0
  151.1844  141.7466  159.6929 H   0  0  0  0  0  0  0  0  0  0  0  0
  149.8254  143.9373  158.0736 H   0  0  0  0  0  0  0  0  0  0  0  0
  149.3150  143.2078  159.6041 H   0  0  0  0  0  0  0  0  0  0  0  0
  150.5480  145.6454  159.6249 H   0  0  0  0  0  0  0  0  0  0  0  0
  150.9951  144.4296  160.8293 H   0  0  0  0  0  0  0  0  0  0  0  0
  152.4095  145.0067  158.1951 H   0  0  0  0  0  0  0  0  0  0  0  0
  153.1369  144.8719  159.7955 H   0  0  0  0  0  0  0  0  0  0  0  0
  150.5230  137.9306  154.5664 H   0  0  0  0  0  0  0  0  0  0  0  0
  151.3608  136.5597  153.8742 H   0  0  0  0  0  0  0  0  0  0  0  0
  148.6644  136.5493  155.3344 H   0  0  0  0  0  0  0  0  0  0  0  0
  148.9264  136.3716  153.6132 H   0  0  0  0  0  0  0  0  0  0  0  0
  150.8092  131.9826  154.4274 H   0  0  0  0  0  0  0  0  0  0  0  0
  150.2782  129.4677  154.3916 H   0  0  0  0  0  0  0  0  0  0  0  0
  147.6681  128.9979  154.2494 H   0  0  0  0  0  0  0  0  0  0  0  0
  150.3568  133.3429  156.1609 H   0  0  0  0  0  0  0  0  0  0  0  0
  151.4239  133.9862  154.9255 H   0  0  0  0  0  0  0  0  0  0  0  0
  151.9240  134.9019  157.1471 H   0  0  0  0  0  0  0  0  0  0  0  0
  150.2867  135.4835  157.3471 H   0  0  0  0  0  0  0  0  0  0  0  0
  1  2  2  0  0  0  0
  2  3  1  0  0  0  0
  2 18  1  0  0  0  0
  3  4  1  0  0  0  0
  3 31  1  0  0  0  0
  3 32  1  0  0  0  0
  4 16  1  0  0  0  0
  4  5  1  0  0  0  0
  5  6  2  0  0  0  0
  5  7  1  0  0  0  0
  7  8  1  0  0  0  0
  7  9  2  0  0  0  0
  9 10  1  0  0  0  0
  9 33  1  0  0  0  0
 10 11  1  0  0  0  0
 10 16  1  0  0  0  0
 11 15  1  0  0  0  0
 11 12  1  0  0  0  0
 11 34  1  0  0  0  0
 12 13  1  0  0  0  0
 12 35  1  0  0  0  0
 12 36  1  0  0  0  0
 13 14  1  0  0  0  0
 13 37  1  0  0  0  0
 13 38  1  0  0  0  0
 14 15  1  0  0  0  0
 14 39  1  0  0  0  0
 14 40  1  0  0  0  0
 16 17  2  0  0  0  0
 18 30  1  0  0  0  0
 18 19  1  0  0  0  0
 19 20  1  0  0  0  0
 19 41  1  0  0  0  0
 19 42  1  0  0  0  0
 20 21  1  0  0  0  0
 20 43  1  0  0  0  0
 20 44  1  0  0  0  0
 21 22  1  0  0  0  0
 21 29  1  0  0  0  0
 22 23  2  0  0  0  0
 22 24  1  0  0  0  0
 24 28  1  0  0  0  0
 24 25  2  0  0  0  0
 25 26  1  0  0  0  0
 25 45  1  0  0  0  0
 26 27  2  0  0  0  0
 26 46  1  0  0  0  0
 27 28  1  0  0  0  0
 27 47  1  0  0  0  0
 29 30  1  0  0  0  0
 29 48  1  0  0  0  0
 29 49  1  0  0  0  0
 30 50  1  0  0  0  0
 30 51  1  0  0  0  0
M  END
> <s_m_source_file>
AV-unprocessed.smi

> <i_m_source_file_index>
106

> <i_lp_mmshare_version>
43012

> <i_f3d_flags>
0

> <s_epik_input>
czFbY0hdW2NIXVtjSF1jMUMoPU8pTihbQ0gyXVtDSDJdMilbQ0gyXVtDSDJdTjJDKD1PKVtDSDJdbjNjKD1PKWMoRilbY0hdbihjMz1PKVtDQEBIXTRbQ0gyXVtDSDJdW0NIMl1PNA==

> <s_epik_cmdline>
J2VwaWtfcHl0aG9uJywgJy1waCcsICc3LjAnLCAnLXRuJywgJzgnLCAnLW1hJywgJzIwMCcsICctbWV0YWxfYmluZGluZycsICctaW1hZScsICc8aW5maWxlLm1hZT4nLCAnLW9tYWUnLCAnPG91dGZpbGUubWFlPic=

> <r_lp_tautomer_probability>
1

> <r_epik_Ionization_Penalty>
4.82844e-09

> <r_epik_Ionization_Penalty_Charging>
4.20153e-09

> <r_epik_Ionization_Penalty_Neutral>
6.26919e-10

> <r_epik_State_Penalty>
-0

> <r_epik_Charging_Adjusted_Penalty>
4.20153e-09

> <i_epik_Tot_Q>
0

> <i_epik_Tot_abs_Q>
0

> <r_epik_Metal_State_Penalty>
-0

> <b_epik_Metal_Only>
0

> <s_epik_Chemistry_Notes>
This compound contains an acetal/aminal-like group ( X-CH(R)-Y where X, Y are N, S, or O) that may be acid/base labile, releasing an aldehyde.

> <s_lp_Force_Field>
OPLS_2005

> <r_lp_Energy>
67.8789

> <b_lp_Chiralities_Consistent>
1

> <s_lp_Variant>
AV-unprocessed.smi:106-1

> <Gold.Version>
5.8.1

> <Gold.Id.Protein>
6NUR|6NUR_protein|mol2

> <Gold.PLP.Fitness>
53.2893

> <Gold.PLP.PLP>
-48.0823

> <Gold.PLP.part.hbond>
-2.0000

> <Gold.PLP.part.metal>
0.0000

> <Gold.PLP.part.buried>
1.1317

> <Gold.PLP.part.nonpolar>
-47.4459

> <Gold.PLP.part.repulsive>
0.2831

> <Gold.PLP.ligand.clash>
0.0093

> <Gold.PLP.ligand.torsion>
0.9113

> <Gold.PLP.Chemscore.Hbond>
1.1600

> <Gold.PLP.Chemscore.CHOScore>
0.9977

> <Gold.PLP.Chemscore.Metal>
0.0000

> <Gold.Chemscore.Hbonds>
donor molecule, donor type, donor heavy atom, donor atom, acceptor molecule, acceptor atom, score
      P1  H  7989  7998       L1     6  0.20
      P1  H  7997  8008       L1    17  0.92
      L1  C     9    33       P1  8028  1.00

> <Gold.PLP.Chemscore.Internal.Correction>
0.5659

> <Gold.Rescore>
     Score         DG    S(hbond)    S(metal)    S(lipo)     H(rot)  DE(clash)    DE(int)     intcor
     10.22     -14.18       0.85        0.00      85.77       1.63       0.22       3.74       ----

> <Gold.Chemscore.Fitness>
10.2177

> <Gold.Chemscore.DG>
-14.1775

> <Gold.Chemscore.ZeroCoef>
-5.4800

> <Gold.Chemscore.Hbond>
0.8451

> <Gold.Chemscore.Metal>
0.0000

> <Gold.Chemscore.Lipo>
85.7713

> <Gold.Chemscore.Internal_Hbond>
0.0000

> <Gold.Chemscore.DEClash>
0.2242

> <Gold.Chemscore.DEInternal>
3.7355

> <Gold.Chemscore.Rot>
1.6252

> <Gold.Chemscore.Internal.Correction>
   9.000000E+99

> <Gold.Chemscore.Hbonds>
donor molecule, donor type, donor heavy atom, donor atom, acceptor molecule, acceptor atom, score
      P1  H  7997  8008       L1    17  0.38

> <Gold.Chemscore.Hbond.Weighted>
-2.8227

> <Gold.Chemscore.Metal.Weighted>
-0.0000

> <Gold.Chemscore.Lipo.Weighted>
-10.0352

> <Gold.Chemscore.Internal_Hbond.Weighted>
0.0000

> <Gold.Chemscore.DEClash.Weighted>
0.2242

> <Gold.Chemscore.DEInternal.Weighted>
3.7355

> <Gold.Chemscore.Rot.Weighted>
4.1605

> <Gold.Chemscore.Internal.Correction.Weighted>
   9.000000E+99

> <Gold.Protein.RotatedTorsions>
[ 6907 6896 6895 6894 ] final  -82.18 input  -60.11 | X-H torsion
[ 7974 7965 7964 7962 ] final  138.04 input  175.53 | X-H torsion
[ 8008 7997 7996 7995 ] final  -78.79 input   59.86 | X-H torsion
[ 10167 10162 10161 10158 ] final -174.88 input  -65.29 | X-H torsion
[ 10718 10713 10712 10709 ] final   43.76 input   66.30 | X-H torsion
[ 10763 10752 10751 10750 ] final  -86.29 input  -60.55 | X-H torsion
[ 11005 11000 10999 10996 ] final   75.60 input  -57.11 | X-H torsion

> <Gold.Protein.ActiveResidues>
 VAL166  LYS551  ARG553  GLY616  TRP617  ASP618  TYR619  PRO620  LYS621  CYS622 
 ASP623  PHE694  ASN695  SER759  ASP760  ASP761  ALA762  ILE779  LEU786  VAL792 
 PHE793  MET794  SER795  GLU796  ALA797  LYS798  CYS799  TRP800  GLU811  SER814 

> <Gold.Protein.RotatedAtoms>
  150.6901  134.3705  159.4989 H   0  0  0  0  0  0  0  0  0  0  0  0  # atno 6907 bound_to 6896
  152.1521  134.8977  160.0556 H   0  0  0  0  0  0  0  0  0  0  0  0  # atno 6908 bound_to 6896
  152.0070  133.3812  159.4241 H   0  0  0  0  0  0  0  0  0  0  0  0  # atno 6909 bound_to 6896
  144.9410  139.4931  143.5572 H   0  0  0  0  0  0  0  0  0  0  0  0  # atno 7974 bound_to 7965
  154.5723  140.0688  156.8982 H   0  0  0  0  0  0  0  0  0  0  0  0  # atno 8008 bound_to 7997
  155.2612  140.3358  155.4255 H   0  0  0  0  0  0  0  0  0  0  0  0  # atno 8009 bound_to 7997
  156.2127  140.1766  156.7643 H   0  0  0  0  0  0  0  0  0  0  0  0  # atno 8010 bound_to 7997
  139.5610  144.1869  152.1239 H   0  0  0  0  0  0  0  0  0  0  0  0  # atno 10167 bound_to 10162
  157.4194  130.7960  149.7502 H   0  0  0  0  0  0  0  0  0  0  0  0  # atno 10718 bound_to 10713
  154.6208  135.5454  153.7573 H   0  0  0  0  0  0  0  0  0  0  0  0  # atno 10763 bound_to 10752
  153.0237  135.6412  154.1444 H   0  0  0  0  0  0  0  0  0  0  0  0  # atno 10764 bound_to 10752
  154.1378  135.2910  155.3148 H   0  0  0  0  0  0  0  0  0  0  0  0  # atno 10765 bound_to 10752
  139.9336  134.7531  156.1291 H   0  0  0  0  0  0  0  0  0  0  0  0  # atno 11005 bound_to 11000
  146.3285  139.8429  142.8887 LP  0  0  0  0  0  0  0  0  0  0  0  0  # atno 17320 bound_to 7965
  145.2991  141.0189  143.3619 LP  0  0  0  0  0  0  0  0  0  0  0  0  # atno 17321 bound_to 7965
  140.1383  144.5225  150.6760 LP  0  0  0  0  0  0  0  0  0  0  0  0  # atno 17342 bound_to 10162
  140.6890  143.2365  151.5183 LP  0  0  0  0  0  0  0  0  0  0  0  0  # atno 17343 bound_to 10162
  155.9876  130.3966  150.3159 LP  0  0  0  0  0  0  0  0  0  0  0  0  # atno 17370 bound_to 10713
  157.1305  131.0270  151.2971 LP  0  0  0  0  0  0  0  0  0  0  0  0  # atno 17371 bound_to 10713
  141.0938  133.6703  156.2600 LP  0  0  0  0  0  0  0  0  0  0  0  0  # atno 17394 bound_to 11000
  140.6135  134.5434  157.5537 LP  0  0  0  0  0  0  0  0  0  0  0  0  # atno 17395 bound_to 11000

$$$$
