AV-unprocessed.smi:3309|AV-procd|sdf|12716|dock1
  -GOLD-   2272019 53D 1   1.00000     0.00000
 Structure written by MMmdl.
 41 42  0  0  0  0  0  0  0  0  2 V2000
  147.4249  140.2847  154.4462 O   0  0  0  0  0  0  0  0  0  0  0  0
  147.6914  139.4142  153.6175 C   0  0  0  0  0  0  0  0  0  0  0  0
  146.8435  139.2567  152.3513 C   0  0  0  0  0  0  0  0  0  0  0  0
  146.1072  137.9074  152.2806 C   0  0  0  0  0  0  0  0  0  0  0  0
  146.4957  137.1556  151.0714 N   0  3  0  0  0  0  0  0  0  0  0  0
  145.4064  136.3453  150.4929 C   0  0  0  0  0  0  0  0  0  0  0  0
  144.8994  135.3038  151.5012 C   0  0  0  0  0  0  0  0  0  0  0  0
  144.9292  133.9620  150.9520 N   0  0  0  0  0  0  0  0  0  0  0  0
  143.8725  133.1115  150.7022 C   0  0  0  0  0  0  0  0  0  0  0  0
  144.3917  131.9624  150.1781 C   0  0  0  0  0  0  0  0  0  0  0  0
  145.7925  132.2097  150.1414 C   0  0  0  0  0  0  0  0  0  0  0  0
  146.1107  133.4082  150.6040 N   0  0  0  0  0  0  0  0  0  0  0  0
  148.7113  138.5535  153.7570 N   0  0  0  0  0  0  0  0  0  0  0  0
  149.6380  138.5229  154.8860 C   0  0  0  0  0  0  0  0  0  0  0  0
  150.3979  139.8581  155.0068 C   0  0  0  0  0  0  0  0  0  0  0  0
  151.8757  139.4936  155.1604 C   0  0  0  0  0  0  0  0  0  0  0  0
  152.0187  138.1732  154.4107 C   0  0  0  0  0  0  0  0  0  0  0  0
  150.7139  137.4329  154.7055 C   0  0  0  0  0  0  0  0  0  0  0  0
  146.1182  140.0710  152.3072 H   0  0  0  0  0  0  0  0  0  0  0  0
  147.4976  139.3705  151.4859 H   0  0  0  0  0  0  0  0  0  0  0  0
  146.3378  137.3026  153.1591 H   0  0  0  0  0  0  0  0  0  0  0  0
  145.0277  138.0673  152.2711 H   0  0  0  0  0  0  0  0  0  0  0  0
  146.8144  137.8114  150.3724 H   0  0  0  0  0  0  0  0  0  0  0  0
  144.5918  137.0062  150.1934 H   0  0  0  0  0  0  0  0  0  0  0  0
  145.7677  135.8482  149.5915 H   0  0  0  0  0  0  0  0  0  0  0  0
  145.5081  135.3225  152.4061 H   0  0  0  0  0  0  0  0  0  0  0  0
  143.8753  135.5299  151.8027 H   0  0  0  0  0  0  0  0  0  0  0  0
  142.8508  133.3899  150.9153 H   0  0  0  0  0  0  0  0  0  0  0  0
  143.8529  131.0798  149.8663 H   0  0  0  0  0  0  0  0  0  0  0  0
  146.5816  131.5590  149.7942 H   0  0  0  0  0  0  0  0  0  0  0  0
  148.8578  137.8661  153.0320 H   0  0  0  0  0  0  0  0  0  0  0  0
  149.0850  138.3373  155.8088 H   0  0  0  0  0  0  0  0  0  0  0  0
  150.2739  140.4559  154.1023 H   0  0  0  0  0  0  0  0  0  0  0  0
  150.0395  140.4617  155.8413 H   0  0  0  0  0  0  0  0  0  0  0  0
  152.5411  140.2682  154.7783 H   0  0  0  0  0  0  0  0  0  0  0  0
  152.1101  139.3434  156.2153 H   0  0  0  0  0  0  0  0  0  0  0  0
  152.0996  138.3652  153.3399 H   0  0  0  0  0  0  0  0  0  0  0  0
  152.9001  137.6086  154.7164 H   0  0  0  0  0  0  0  0  0  0  0  0
  150.8201  136.8779  155.6385 H   0  0  0  0  0  0  0  0  0  0  0  0
  150.4736  136.7059  153.9282 H   0  0  0  0  0  0  0  0  0  0  0  0
  147.2596  136.5394  151.3103 H   0  0  0  0  0  0  0  0  0  0  0  0
  1  2  2  0  0  0  0
  2  3  1  0  0  0  0
  2 13  1  0  0  0  0
  3  4  1  0  0  0  0
  3 19  1  0  0  0  0
  3 20  1  0  0  0  0
  4  5  1  0  0  0  0
  4 21  1  0  0  0  0
  4 22  1  0  0  0  0
  5  6  1  0  0  0  0
  5 23  1  0  0  0  0
  5 41  1  0  0  0  0
  6  7  1  0  0  0  0
  6 24  1  0  0  0  0
  6 25  1  0  0  0  0
  7  8  1  0  0  0  0
  7 26  1  0  0  0  0
  7 27  1  0  0  0  0
  8 12  1  0  0  0  0
  8  9  1  0  0  0  0
  9 10  2  0  0  0  0
  9 28  1  0  0  0  0
 10 11  1  0  0  0  0
 10 29  1  0  0  0  0
 11 12  2  0  0  0  0
 11 30  1  0  0  0  0
 13 14  1  0  0  0  0
 13 31  1  0  0  0  0
 14 18  1  0  0  0  0
 14 15  1  0  0  0  0
 14 32  1  0  0  0  0
 15 16  1  0  0  0  0
 15 33  1  0  0  0  0
 15 34  1  0  0  0  0
 16 17  1  0  0  0  0
 16 35  1  0  0  0  0
 16 36  1  0  0  0  0
 17 18  1  0  0  0  0
 17 37  1  0  0  0  0
 17 38  1  0  0  0  0
 18 39  1  0  0  0  0
 18 40  1  0  0  0  0
M  CHG  1   5   1
M  END
> <s_m_source_file>
AV-unprocessed.smi

> <i_m_source_file_index>
3309

> <i_lp_mmshare_version>
43012

> <i_f3d_flags>
0

> <s_epik_input>
W0NIMl0xW0NIMl1bQ0gyXVtDSDJdW0NIXTFbTkhdQyg9TylbQ0gyXVtDSDJdW05IXVtDSDJdW0NIMl1uMltjSF1bY0hdW2NIXW4y

> <s_epik_cmdline>
J2VwaWtfcHl0aG9uJywgJy1waCcsICc3LjAnLCAnLXRuJywgJzgnLCAnLW1hJywgJzIwMCcsICctbWV0YWxfYmluZGluZycsICctaW1hZScsICc8aW5maWxlLm1hZT4nLCAnLW9tYWUnLCAnPG91dGZpbGUubWFlPic=

> <r_lp_tautomer_probability>
1

> <r_epik_Ionization_Penalty>
0.00584123

> <r_epik_Ionization_Penalty_Charging>
0.00583842

> <r_epik_Ionization_Penalty_Neutral>
2.81118e-06

> <r_epik_State_Penalty>
-0

> <r_epik_Charging_Adjusted_Penalty>
0.00583842

> <i_epik_Tot_Q>
1

> <i_epik_Tot_abs_Q>
1

> <r_epik_Metal_State_Penalty>
-0

> <b_epik_Metal_Only>
0

> <s_lp_Force_Field>
OPLS_2005

> <r_lp_Energy>
18.8454

> <b_lp_Chiralities_Consistent>
1

> <s_lp_Variant>
AV-unprocessed.smi:3309-1

> <Gold.Version>
5.8.1

> <Gold.Id.Protein>
6NUR|6NUR_protein|mol2

> <Gold.PLP.Fitness>
51.3267

> <Gold.PLP.PLP>
-38.1835

> <Gold.PLP.part.hbond>
-3.0124

> <Gold.PLP.part.metal>
0.0000

> <Gold.PLP.part.buried>
-0.2649

> <Gold.PLP.part.nonpolar>
-36.4650

> <Gold.PLP.part.repulsive>
0.5380

> <Gold.PLP.ligand.clash>
0.0000

> <Gold.PLP.ligand.torsion>
0.9957

> <Gold.PLP.Chemscore.Hbond>
3.0000

> <Gold.PLP.Chemscore.CHOScore>
2.0000

> <Gold.PLP.Chemscore.Metal>
0.0000

> <Gold.Chemscore.Hbonds>
donor molecule, donor type, donor heavy atom, donor atom, acceptor molecule, acceptor atom, score
      L1  H     5    41       P1  7948  2.00
      L1  H    13    31       P1  7948  1.00
      L1  C     9    28       P1 10186  1.00
      L1  C    11    30       P1 10747  1.00

> <Gold.PLP.Chemscore.Internal.Correction>
0.1346

> <Gold.Rescore>
     Score         DG    S(hbond)    S(metal)    S(lipo)     H(rot)  DE(clash)    DE(int)     intcor
     15.23     -17.51       1.95        0.00      96.62       2.27       1.30       0.98       ----

> <Gold.Chemscore.Fitness>
15.2270

> <Gold.Chemscore.DG>
-17.5074

> <Gold.Chemscore.ZeroCoef>
-5.4800

> <Gold.Chemscore.Hbond>
1.9530

> <Gold.Chemscore.Metal>
0.0000

> <Gold.Chemscore.Lipo>
96.6238

> <Gold.Chemscore.Internal_Hbond>
0.0000

> <Gold.Chemscore.DEClash>
1.2971

> <Gold.Chemscore.DEInternal>
0.9833

> <Gold.Chemscore.Rot>
2.2658

> <Gold.Chemscore.Internal.Correction>
   9.000000E+99

> <Gold.Chemscore.Hbonds>
donor molecule, donor type, donor heavy atom, donor atom, acceptor molecule, acceptor atom, score
      L1  H     5    41       P1  7948  0.97
      L1  H    13    31       P1  7948  0.97

> <Gold.Chemscore.Hbond.Weighted>
-6.5230

> <Gold.Chemscore.Metal.Weighted>
-0.0000

> <Gold.Chemscore.Lipo.Weighted>
-11.3050

> <Gold.Chemscore.Internal_Hbond.Weighted>
0.0000

> <Gold.Chemscore.DEClash.Weighted>
1.2971

> <Gold.Chemscore.DEInternal.Weighted>
0.9833

> <Gold.Chemscore.Rot.Weighted>
5.8005

> <Gold.Chemscore.Internal.Correction.Weighted>
   9.000000E+99

> <Gold.Protein.RotatedTorsions>
[ 6907 6896 6895 6894 ] final   22.18 input  -60.11 | X-H torsion
[ 7974 7965 7964 7962 ] final  173.75 input  175.53 | X-H torsion
[ 8008 7997 7996 7995 ] final  -53.25 input   59.86 | X-H torsion
[ 10167 10162 10161 10158 ] final  -34.80 input  -65.29 | X-H torsion
[ 10718 10713 10712 10709 ] final  -70.40 input   66.30 | X-H torsion
[ 10763 10752 10751 10750 ] final -168.51 input  -60.55 | X-H torsion
[ 11005 11000 10999 10996 ] final  -66.28 input  -57.11 | X-H torsion

> <Gold.Protein.ActiveResidues>
 VAL166  LYS551  ARG553  GLY616  TRP617  ASP618  TYR619  PRO620  LYS621  CYS622 
 ASP623  PHE694  ASN695  SER759  ASP760  ASP761  ALA762  ILE779  LEU786  VAL792 
 PHE793  MET794  SER795  GLU796  ALA797  LYS798  CYS799  TRP800  GLU811  SER814 

> <Gold.Protein.RotatedAtoms>
  151.9232  135.0289  160.0523 H   0  0  0  0  0  0  0  0  0  0  0  0  # atno 6907 bound_to 6896
  152.2182  133.4958  159.5156 H   0  0  0  0  0  0  0  0  0  0  0  0  # atno 6908 bound_to 6896
  150.6993  134.1294  159.4107 H   0  0  0  0  0  0  0  0  0  0  0  0  # atno 6909 bound_to 6896
  144.7236  139.9694  143.6436 H   0  0  0  0  0  0  0  0  0  0  0  0  # atno 7974 bound_to 7965
  154.4128  140.1204  156.5123 H   0  0  0  0  0  0  0  0  0  0  0  0  # atno 8008 bound_to 7997
  155.6787  140.3496  155.4827 H   0  0  0  0  0  0  0  0  0  0  0  0  # atno 8009 bound_to 7997
  155.9570  140.1115  157.0918 H   0  0  0  0  0  0  0  0  0  0  0  0  # atno 8010 bound_to 7997
  140.7178  143.3522  151.2132 H   0  0  0  0  0  0  0  0  0  0  0  0  # atno 10167 bound_to 10162
  156.0409  130.4331  150.2290 H   0  0  0  0  0  0  0  0  0  0  0  0  # atno 10718 bound_to 10713
  154.6621  135.2926  154.9852 H   0  0  0  0  0  0  0  0  0  0  0  0  # atno 10763 bound_to 10752
  154.0908  135.6591  153.4856 H   0  0  0  0  0  0  0  0  0  0  0  0  # atno 10764 bound_to 10752
  153.0436  135.5219  154.7577 H   0  0  0  0  0  0  0  0  0  0  0  0  # atno 10765 bound_to 10752
  141.1478  133.6696  156.6115 H   0  0  0  0  0  0  0  0  0  0  0  0  # atno 11005 bound_to 11000
  146.0574  139.3570  143.0602 LP  0  0  0  0  0  0  0  0  0  0  0  0  # atno 17320 bound_to 7965
  145.8136  140.9714  143.0936 LP  0  0  0  0  0  0  0  0  0  0  0  0  # atno 17321 bound_to 7965
  139.7055  143.9462  152.2925 LP  0  0  0  0  0  0  0  0  0  0  0  0  # atno 17342 bound_to 10162
  139.9169  144.6823  150.8502 LP  0  0  0  0  0  0  0  0  0  0  0  0  # atno 17343 bound_to 10162
  157.0385  131.0028  151.3291 LP  0  0  0  0  0  0  0  0  0  0  0  0  # atno 17370 bound_to 10713
  157.5226  130.8008  149.7826 LP  0  0  0  0  0  0  0  0  0  0  0  0  # atno 17371 bound_to 10713
  140.3611  134.7687  157.4534 LP  0  0  0  0  0  0  0  0  0  0  0  0  # atno 17394 bound_to 11000
  140.0784  134.5765  155.8566 LP  0  0  0  0  0  0  0  0  0  0  0  0  # atno 17395 bound_to 11000

$$$$
