AV-unprocessed.smi:1441|AV-procd|sdf|5875|dock1
  -GOLD-   22720 5553D 1   1.00000     0.00000
 Structure written by MMmdl.
 45 46  0  0  0  0  0  0  0  0  1 V2000
  153.1503  141.9469  161.1836 C   0  0  0  0  0  0  0  0  0  0  0  0
  152.5974  141.6156  159.8288 C   0  0  0  0  0  0  0  0  0  0  0  0
  151.8708  142.4599  158.9436 C   0  0  0  0  0  0  0  0  0  0  0  0
  151.6117  141.6692  157.8598 C   0  0  0  0  0  0  0  0  0  0  0  0
  150.8856  141.9798  156.5923 C   0  0  0  0  0  0  0  0  0  0  0  0
  152.1689  140.4304  158.1243 N   0  0  0  0  0  0  0  0  0  0  0  0
  152.1850  139.2334  157.2956 C   0  0  0  0  0  0  0  0  0  0  0  0
  151.3629  138.0912  157.9043 C   0  0  0  0  0  0  0  0  0  0  0  0
  151.9153  137.1557  158.4854 O   0  0  0  0  0  0  0  0  0  0  0  0
  150.0322  138.1795  157.7575 N   0  0  0  0  0  0  0  0  0  0  0  0
  149.0698  137.2131  158.2718 C   0  0  0  0  0  0  0  0  0  0  0  0
  149.2012  137.0504  159.7976 C   0  0  0  0  0  0  0  0  0  0  0  0
  148.1493  136.1757  160.3373 N   0  0  0  0  0  0  0  0  0  0  0  0
  147.3374  136.7462  161.4238 C   0  0  0  0  0  0  0  0  0  0  0  0
  147.5185  135.9975  162.7583 C   0  0  0  0  0  0  0  0  0  0  0  0
  146.6828  134.7138  162.8728 C   0  0  0  0  0  0  0  0  0  0  0  0
  147.0473  133.6276  161.8508 C   0  0  0  0  0  0  0  0  0  0  0  0
  146.8209  134.0649  160.3941 C   0  0  0  0  0  0  0  0  0  0  0  0
  147.9681  134.9253  159.8485 C   0  0  0  0  0  0  0  0  0  0  0  0
  148.6810  134.4488  158.9642 O   0  0  0  0  0  0  0  0  0  0  0  0
  152.7711  140.4016  159.3334 N   0  0  0  0  0  0  0  0  0  0  0  0
  152.9165  142.9741  161.4641 H   0  0  0  0  0  0  0  0  0  0  0  0
  154.2348  141.8369  161.2027 H   0  0  0  0  0  0  0  0  0  0  0  0
  152.7338  141.2912  161.9485 H   0  0  0  0  0  0  0  0  0  0  0  0
  151.5846  143.4918  159.0829 H   0  0  0  0  0  0  0  0  0  0  0  0
  150.6046  143.0323  156.5528 H   0  0  0  0  0  0  0  0  0  0  0  0
  149.9752  141.3858  156.5114 H   0  0  0  0  0  0  0  0  0  0  0  0
  151.5091  141.7673  155.7237 H   0  0  0  0  0  0  0  0  0  0  0  0
  151.8021  139.4860  156.3051 H   0  0  0  0  0  0  0  0  0  0  0  0
  153.2156  138.9044  157.1613 H   0  0  0  0  0  0  0  0  0  0  0  0
  149.6593  138.9790  157.2662 H   0  0  0  0  0  0  0  0  0  0  0  0
  148.0700  137.5607  158.0119 H   0  0  0  0  0  0  0  0  0  0  0  0
  149.2011  136.2516  157.7718 H   0  0  0  0  0  0  0  0  0  0  0  0
  150.1899  136.6639  160.0474 H   0  0  0  0  0  0  0  0  0  0  0  0
  149.1602  138.0296  160.2782 H   0  0  0  0  0  0  0  0  0  0  0  0
  147.6097  137.7884  161.5928 H   0  0  0  0  0  0  0  0  0  0  0  0
  146.2863  136.7726  161.1332 H   0  0  0  0  0  0  0  0  0  0  0  0
  148.5737  135.7819  162.9314 H   0  0  0  0  0  0  0  0  0  0  0  0
  147.2162  136.6635  163.5671 H   0  0  0  0  0  0  0  0  0  0  0  0
  146.8046  134.3047  163.8762 H   0  0  0  0  0  0  0  0  0  0  0  0
  145.6246  134.9606  162.7790 H   0  0  0  0  0  0  0  0  0  0  0  0
  148.0813  133.3101  161.9969 H   0  0  0  0  0  0  0  0  0  0  0  0
  146.4364  132.7467  162.0504 H   0  0  0  0  0  0  0  0  0  0  0  0
  146.7477  133.1723  159.7712 H   0  0  0  0  0  0  0  0  0  0  0  0
  145.8682  134.5831  160.2798 H   0  0  0  0  0  0  0  0  0  0  0  0
  1  2  1  0  0  0  0
  1 22  1  0  0  0  0
  1 23  1  0  0  0  0
  1 24  1  0  0  0  0
  2 21  2  0  0  0  0
  2  3  1  0  0  0  0
  3  4  2  0  0  0  0
  3 25  1  0  0  0  0
  4  5  1  0  0  0  0
  4  6  1  0  0  0  0
  5 26  1  0  0  0  0
  5 27  1  0  0  0  0
  5 28  1  0  0  0  0
  6  7  1  0  0  0  0
  6 21  1  0  0  0  0
  7  8  1  0  0  0  0
  7 29  1  0  0  0  0
  7 30  1  0  0  0  0
  8  9  2  0  0  0  0
  8 10  1  0  0  0  0
 10 11  1  0  0  0  0
 10 31  1  0  0  0  0
 11 12  1  0  0  0  0
 11 32  1  0  0  0  0
 11 33  1  0  0  0  0
 12 13  1  0  0  0  0
 12 34  1  0  0  0  0
 12 35  1  0  0  0  0
 13 19  1  0  0  0  0
 13 14  1  0  0  0  0
 14 15  1  0  0  0  0
 14 36  1  0  0  0  0
 14 37  1  0  0  0  0
 15 16  1  0  0  0  0
 15 38  1  0  0  0  0
 15 39  1  0  0  0  0
 16 17  1  0  0  0  0
 16 40  1  0  0  0  0
 16 41  1  0  0  0  0
 17 18  1  0  0  0  0
 17 42  1  0  0  0  0
 17 43  1  0  0  0  0
 18 19  1  0  0  0  0
 18 44  1  0  0  0  0
 18 45  1  0  0  0  0
 19 20  2  0  0  0  0
M  END
> <s_m_source_file>
AV-unprocessed.smi

> <i_m_source_file_index>
1441

> <i_lp_mmshare_version>
43012

> <i_f3d_flags>
0

> <s_epik_input>
W0NIM11jMVtjSF1jKFtDSDNdKW4objEpW0NIMl1DKD1PKVtOSF1bQ0gyXVtDSDJdTjJbQ0gyXVtDSDJdW0NIMl1bQ0gyXVtDSDJdQzI9Tw==

> <s_epik_cmdline>
J2VwaWtfcHl0aG9uJywgJy1waCcsICc3LjAnLCAnLXRuJywgJzgnLCAnLW1hJywgJzIwMCcsICctbWV0YWxfYmluZGluZycsICctaW1hZScsICc8aW5maWxlLm1hZT4nLCAnLW9tYWUnLCAnPG91dGZpbGUubWFlPic=

> <r_lp_tautomer_probability>
1

> <r_epik_Ionization_Penalty>
0.000341945

> <r_epik_Ionization_Penalty_Charging>
0

> <r_epik_Ionization_Penalty_Neutral>
0.000341945

> <r_epik_State_Penalty>
-0

> <r_epik_Charging_Adjusted_Penalty>
0

> <i_epik_Tot_Q>
0

> <i_epik_Tot_abs_Q>
0

> <r_epik_Metal_State_Penalty>
-0

> <b_epik_Metal_Only>
0

> <s_lp_Force_Field>
OPLS_2005

> <r_lp_Energy>
16.3244

> <b_lp_Chiralities_Consistent>
1

> <s_lp_Variant>
AV-unprocessed.smi:1441-1

> <Gold.Version>
5.8.1

> <Gold.Id.Protein>
6NUR|6NUR_protein|mol2

> <Gold.PLP.Fitness>
42.9628

> <Gold.PLP.PLP>
-40.5955

> <Gold.PLP.part.hbond>
-1.0000

> <Gold.PLP.part.metal>
0.0000

> <Gold.PLP.part.buried>
-4.0118

> <Gold.PLP.part.nonpolar>
-36.0548

> <Gold.PLP.part.repulsive>
0.0576

> <Gold.PLP.ligand.clash>
0.0000

> <Gold.PLP.ligand.torsion>
0.3297

> <Gold.PLP.Chemscore.Hbond>
1.0000

> <Gold.PLP.Chemscore.CHOScore>
0.0000

> <Gold.PLP.Chemscore.Metal>
0.0000

> <Gold.Chemscore.Hbonds>
donor molecule, donor type, donor heavy atom, donor atom, acceptor molecule, acceptor atom, score
      P1  H  6896  6907       L1    20  0.84

> <Gold.PLP.Chemscore.Internal.Correction>
0.0266

> <Gold.Rescore>
     Score         DG    S(hbond)    S(metal)    S(lipo)     H(rot)  DE(clash)    DE(int)     intcor
     14.29     -15.60       0.97        0.00      97.59       1.77       0.00       1.31       ----

> <Gold.Chemscore.Fitness>
14.2884

> <Gold.Chemscore.DG>
-15.5970

> <Gold.Chemscore.ZeroCoef>
-5.4800

> <Gold.Chemscore.Hbond>
0.9682

> <Gold.Chemscore.Metal>
0.0000

> <Gold.Chemscore.Lipo>
97.5927

> <Gold.Chemscore.Internal_Hbond>
0.0000

> <Gold.Chemscore.DEClash>
0.0004

> <Gold.Chemscore.DEInternal>
1.3082

> <Gold.Chemscore.Rot>
1.7715

> <Gold.Chemscore.Internal.Correction>
   9.000000E+99

> <Gold.Chemscore.Hbonds>
donor molecule, donor type, donor heavy atom, donor atom, acceptor molecule, acceptor atom, score
      P1  H  6896  6907       L1    20  0.77

> <Gold.Chemscore.Hbond.Weighted>
-3.2337

> <Gold.Chemscore.Metal.Weighted>
-0.0000

> <Gold.Chemscore.Lipo.Weighted>
-11.4183

> <Gold.Chemscore.Internal_Hbond.Weighted>
0.0000

> <Gold.Chemscore.DEClash.Weighted>
0.0004

> <Gold.Chemscore.DEInternal.Weighted>
1.3082

> <Gold.Chemscore.Rot.Weighted>
4.5351

> <Gold.Chemscore.Internal.Correction.Weighted>
   9.000000E+99

> <Gold.Protein.RotatedTorsions>
[ 6907 6896 6895 6894 ] final -106.78 input  -60.11 | X-H torsion
[ 7974 7965 7964 7962 ] final   17.31 input  175.53 | X-H torsion
[ 8008 7997 7996 7995 ] final  148.84 input   59.86 | X-H torsion
[ 10167 10162 10161 10158 ] final  -28.70 input  -65.29 | X-H torsion
[ 10718 10713 10712 10709 ] final  168.36 input   66.30 | X-H torsion
[ 10763 10752 10751 10750 ] final   71.20 input  -60.55 | X-H torsion
[ 11005 11000 10999 10996 ] final  170.99 input  -57.11 | X-H torsion

> <Gold.Protein.ActiveResidues>
 VAL166  LYS551  ARG553  GLY616  TRP617  ASP618  TYR619  PRO620  LYS621  CYS622 
 ASP623  PHE694  ASN695  SER759  ASP760  ASP761  ALA762  ILE779  LEU786  VAL792 
 PHE793  MET794  SER795  GLU796  ALA797  LYS798  CYS799  TRP800  GLU811  SER814 

> <Gold.Protein.RotatedAtoms>
  150.7408  133.9924  159.3611 H   0  0  0  0  0  0  0  0  0  0  0  0  # atno 6907 bound_to 6896
  151.7873  135.0743  160.0391 H   0  0  0  0  0  0  0  0  0  0  0  0  # atno 6908 bound_to 6896
  152.3232  133.5840  159.5795 H   0  0  0  0  0  0  0  0  0  0  0  0  # atno 6909 bound_to 6896
  146.2222  139.8621  142.8603 H   0  0  0  0  0  0  0  0  0  0  0  0  # atno 7974 bound_to 7965
  156.2777  140.2118  156.5763 H   0  0  0  0  0  0  0  0  0  0  0  0  # atno 8008 bound_to 7997
  154.7095  140.0513  157.0559 H   0  0  0  0  0  0  0  0  0  0  0  0  # atno 8009 bound_to 7997
  155.0625  140.3168  155.4659 H   0  0  0  0  0  0  0  0  0  0  0  0  # atno 8010 bound_to 7997
  140.7267  143.3988  151.1300 H   0  0  0  0  0  0  0  0  0  0  0  0  # atno 10167 bound_to 10162
  157.0382  131.0279  151.2722 H   0  0  0  0  0  0  0  0  0  0  0  0  # atno 10718 bound_to 10713
  153.0385  135.5146  154.7556 H   0  0  0  0  0  0  0  0  0  0  0  0  # atno 10763 bound_to 10752
  154.6513  135.2925  154.9985 H   0  0  0  0  0  0  0  0  0  0  0  0  # atno 10764 bound_to 10752
  154.0868  135.6656  153.4899 H   0  0  0  0  0  0  0  0  0  0  0  0  # atno 10765 bound_to 10752
  140.3142  134.7491  157.4015 H   0  0  0  0  0  0  0  0  0  0  0  0  # atno 11005 bound_to 11000
  145.2694  141.0103  143.3781 LP  0  0  0  0  0  0  0  0  0  0  0  0  # atno 17320 bound_to 7965
  144.9236  139.4382  143.6529 LP  0  0  0  0  0  0  0  0  0  0  0  0  # atno 17321 bound_to 7965
  139.7605  143.8642  152.3099 LP  0  0  0  0  0  0  0  0  0  0  0  0  # atno 17342 bound_to 10162
  139.8527  144.7156  150.9195 LP  0  0  0  0  0  0  0  0  0  0  0  0  # atno 17343 bound_to 10162
  157.5125  130.7947  149.7720 LP  0  0  0  0  0  0  0  0  0  0  0  0  # atno 17370 bound_to 10713
  156.0047  130.3862  150.2476 LP  0  0  0  0  0  0  0  0  0  0  0  0  # atno 17371 bound_to 10713
  140.0998  134.5488  155.8364 LP  0  0  0  0  0  0  0  0  0  0  0  0  # atno 17394 bound_to 11000
  141.2101  133.6691  156.6487 LP  0  0  0  0  0  0  0  0  0  0  0  0  # atno 17395 bound_to 11000

$$$$
