AV-unprocessed.smi:1644|AV-procd|sdf|6587|dock1
  -GOLD-   22720 7283D 1   1.00000     0.00000
 Structure written by MMmdl.
 49 51  0  0  0  0  0  0  0  0  1 V2000
  150.1952  130.9418  154.6033 C   0  0  0  0  0  0  0  0  0  0  0  0
  149.3209  131.7377  155.5778 C   0  0  0  0  0  0  0  0  0  0  0  0
  148.9682  133.1395  155.0400 C   0  0  0  0  0  0  0  0  0  0  0  0
  150.1422  134.1411  154.9538 C   0  0  1  0  0  0  0  0  0  0  0  0
  149.7822  135.3924  154.3203 N   0  0  0  0  0  0  0  0  0  0  0  0
  150.0109  136.4505  155.1086 C   0  0  0  0  0  0  0  0  0  0  0  0
  149.7787  137.6192  154.8039 O   0  0  0  0  0  0  0  0  0  0  0  0
  150.5314  136.0135  156.2721 N   0  0  0  0  0  0  0  0  0  0  0  0
  150.9166  136.8840  157.3925 C   0  0  0  0  0  0  0  0  0  0  0  0
  152.4238  137.2468  157.4299 C   0  0  1  0  0  0  0  0  0  0  0  0
  153.1499  136.1087  157.0162 O   0  0  0  0  0  0  0  0  0  0  0  0
  152.8674  138.4275  156.5352 C   0  0  0  0  0  0  0  0  0  0  0  0
  152.1852  139.6802  156.8108 N   0  0  0  0  0  0  0  0  0  0  0  0
  151.2395  140.2635  156.0490 C   0  0  0  0  0  0  0  0  0  0  0  0
  150.7286  141.4117  156.4829 N   0  0  0  0  0  0  0  0  0  0  0  0
  151.4417  141.6089  157.6518 C   0  0  0  0  0  0  0  0  0  0  0  0
  151.3669  142.6495  158.6028 C   0  0  0  0  0  0  0  0  0  0  0  0
  152.1996  142.6495  159.7440 C   0  0  0  0  0  0  0  0  0  0  0  0
  152.0792  143.7836  160.7464 C   0  0  0  0  0  0  0  0  0  0  0  0
  153.1334  141.6013  159.9411 C   0  0  0  0  0  0  0  0  0  0  0  0
  154.0386  141.5784  161.1599 C   0  0  0  0  0  0  0  0  0  0  0  0
  153.2252  140.5573  158.9975 C   0  0  0  0  0  0  0  0  0  0  0  0
  152.3776  140.5566  157.8754 C   0  0  0  0  0  0  0  0  0  0  0  0
  150.6108  134.6755  156.2944 C   0  0  0  0  0  0  0  0  0  0  0  0
  150.9974  133.9630  157.2206 O   0  0  0  0  0  0  0  0  0  0  0  0
  150.4174  129.9518  155.0020 H   0  0  0  0  0  0  0  0  0  0  0  0
  151.1436  131.4479  154.4216 H   0  0  0  0  0  0  0  0  0  0  0  0
  149.6953  130.8093  153.6435 H   0  0  0  0  0  0  0  0  0  0  0  0
  148.4087  131.1734  155.7734 H   0  0  0  0  0  0  0  0  0  0  0  0
  149.8434  131.8204  156.5312 H   0  0  0  0  0  0  0  0  0  0  0  0
  148.5157  133.0409  154.0523 H   0  0  0  0  0  0  0  0  0  0  0  0
  148.1942  133.5724  155.6749 H   0  0  0  0  0  0  0  0  0  0  0  0
  150.9882  133.6974  154.4274 H   0  0  0  0  0  0  0  0  0  0  0  0
  149.3963  135.4461  153.3888 H   0  0  0  0  0  0  0  0  0  0  0  0
  150.3278  137.7975  157.2911 H   0  0  0  0  0  0  0  0  0  0  0  0
  150.6197  136.4563  158.3515 H   0  0  0  0  0  0  0  0  0  0  0  0
  152.7361  137.4333  158.4557 H   0  0  0  0  0  0  0  0  0  0  0  0
  153.0717  135.4439  157.6835 H   0  0  0  0  0  0  0  0  0  0  0  0
  153.9380  138.6012  156.6523 H   0  0  0  0  0  0  0  0  0  0  0  0
  152.7088  138.1739  155.4858 H   0  0  0  0  0  0  0  0  0  0  0  0
  150.8902  139.8089  155.1334 H   0  0  0  0  0  0  0  0  0  0  0  0
  150.6581  143.4498  158.4492 H   0  0  0  0  0  0  0  0  0  0  0  0
  153.0285  144.3107  160.8430 H   0  0  0  0  0  0  0  0  0  0  0  0
  151.7948  143.3986  161.7257 H   0  0  0  0  0  0  0  0  0  0  0  0
  151.3240  144.5080  160.4400 H   0  0  0  0  0  0  0  0  0  0  0  0
  154.6723  140.6914  161.1680 H   0  0  0  0  0  0  0  0  0  0  0  0
  153.4471  141.5740  162.0756 H   0  0  0  0  0  0  0  0  0  0  0  0
  154.6875  142.4541  161.1697 H   0  0  0  0  0  0  0  0  0  0  0  0
  153.9323  139.7545  159.1416 H   0  0  0  0  0  0  0  0  0  0  0  0
  1  2  1  0  0  0  0
  1 26  1  0  0  0  0
  1 27  1  0  0  0  0
  1 28  1  0  0  0  0
  2  3  1  0  0  0  0
  2 29  1  0  0  0  0
  2 30  1  0  0  0  0
  3  4  1  0  0  0  0
  3 31  1  0  0  0  0
  3 32  1  0  0  0  0
  4 24  1  0  0  0  0
  4  5  1  0  0  0  0
  4 33  1  0  0  0  0
  5  6  1  0  0  0  0
  5 34  1  0  0  0  0
  6  7  2  0  0  0  0
  6  8  1  0  0  0  0
  8  9  1  0  0  0  0
  8 24  1  0  0  0  0
  9 10  1  0  0  0  0
  9 35  1  0  0  0  0
  9 36  1  0  0  0  0
 10 11  1  0  0  0  0
 10 12  1  0  0  0  0
 10 37  1  0  0  0  0
 11 38  1  0  0  0  0
 12 13  1  0  0  0  0
 12 39  1  0  0  0  0
 12 40  1  0  0  0  0
 13 23  1  0  0  0  0
 13 14  1  0  0  0  0
 14 15  2  0  0  0  0
 14 41  1  0  0  0  0
 15 16  1  0  0  0  0
 16 23  2  0  0  0  0
 16 17  1  0  0  0  0
 17 18  2  0  0  0  0
 17 42  1  0  0  0  0
 18 19  1  0  0  0  0
 18 20  1  0  0  0  0
 19 43  1  0  0  0  0
 19 44  1  0  0  0  0
 19 45  1  0  0  0  0
 20 21  1  0  0  0  0
 20 22  2  0  0  0  0
 21 46  1  0  0  0  0
 21 47  1  0  0  0  0
 21 48  1  0  0  0  0
 22 23  1  0  0  0  0
 22 49  1  0  0  0  0
 24 25  2  0  0  0  0
M  END
> <s_m_source_file>
AV-unprocessed.smi

> <i_m_source_file_index>
1644

> <i_lp_mmshare_version>
43012

> <i_f3d_flags>
0

> <s_epik_input>
W0NIM11bQ0gyXVtDSDJdW0NAQEhdMVtOSF1DKD1PKU4oQzE9TylbQ0gyXVtDQEhdKFtPSF0pW0NIMl1uKFtjSF1uMiljKGMyMylbY0hdYyhbQ0gzXSljKFtjSF0zKVtDSDNd

> <s_epik_cmdline>
J2VwaWtfcHl0aG9uJywgJy1waCcsICc3LjAnLCAnLXRuJywgJzgnLCAnLW1hJywgJzIwMCcsICctbWV0YWxfYmluZGluZycsICctaW1hZScsICc8aW5maWxlLm1hZT4nLCAnLW9tYWUnLCAnPG91dGZpbGUubWFlPic=

> <r_lp_tautomer_probability>
1

> <r_epik_Ionization_Penalty>
0.10693

> <r_epik_Ionization_Penalty_Charging>
0

> <r_epik_Ionization_Penalty_Neutral>
0.10693

> <r_epik_State_Penalty>
0.096713

> <r_epik_Charging_Adjusted_Penalty>
0.096713

> <i_epik_Tot_Q>
0

> <i_epik_Tot_abs_Q>
0

> <r_epik_Metal_State_Penalty>
0.102757

> <b_epik_Metal_Only>
0

> <s_lp_Force_Field>
OPLS_2005

> <r_lp_Energy>
20.3603

> <b_lp_Chiralities_Consistent>
1

> <s_lp_Variant>
AV-unprocessed.smi:1644-4

> <Gold.Version>
5.8.1

> <Gold.Id.Protein>
6NUR|6NUR_protein|mol2

> <Gold.PLP.Fitness>
48.1352

> <Gold.PLP.PLP>
-41.5571

> <Gold.PLP.part.hbond>
-3.2917

> <Gold.PLP.part.metal>
0.0000

> <Gold.PLP.part.buried>
-4.4925

> <Gold.PLP.part.nonpolar>
-34.0962

> <Gold.PLP.part.repulsive>
0.2534

> <Gold.PLP.ligand.clash>
0.0000

> <Gold.PLP.ligand.torsion>
0.8303

> <Gold.PLP.Chemscore.Hbond>
2.6240

> <Gold.PLP.Chemscore.CHOScore>
0.0000

> <Gold.PLP.Chemscore.Metal>
0.0000

> <Gold.Chemscore.Hbonds>
donor molecule, donor type, donor heavy atom, donor atom, acceptor molecule, acceptor atom, score
      L1  H     5    34       P1  7948  0.85
      P1  H  6896  6907       L1    25  0.53
      P1  H 10752 10764       L1    11  1.00

> <Gold.PLP.Chemscore.Internal.Correction>
0.3668

> <Gold.Rescore>
     Score         DG    S(hbond)    S(metal)    S(lipo)     H(rot)  DE(clash)    DE(int)     intcor
     17.09     -18.99       2.64        0.00      99.55       2.72       0.06       1.83       ----

> <Gold.Chemscore.Fitness>
17.0934

> <Gold.Chemscore.DG>
-18.9916

> <Gold.Chemscore.ZeroCoef>
-5.4800

> <Gold.Chemscore.Hbond>
2.6439

> <Gold.Chemscore.Metal>
0.0000

> <Gold.Chemscore.Lipo>
99.5496

> <Gold.Chemscore.Internal_Hbond>
0.0000

> <Gold.Chemscore.DEClash>
0.0642

> <Gold.Chemscore.DEInternal>
1.8340

> <Gold.Chemscore.Rot>
2.7212

> <Gold.Chemscore.Internal.Correction>
   9.000000E+99

> <Gold.Chemscore.Hbonds>
donor molecule, donor type, donor heavy atom, donor atom, acceptor molecule, acceptor atom, score
      L1  H     5    34       P1  7948  0.14
      P1  H  6896  6907       L1    25  0.51
      P1  H 10752 10764       L1    11  0.78

> <Gold.Chemscore.Hbond.Weighted>
-8.8306

> <Gold.Chemscore.Metal.Weighted>
-0.0000

> <Gold.Chemscore.Lipo.Weighted>
-11.6473

> <Gold.Chemscore.Internal_Hbond.Weighted>
0.0000

> <Gold.Chemscore.DEClash.Weighted>
0.0642

> <Gold.Chemscore.DEInternal.Weighted>
1.8340

> <Gold.Chemscore.Rot.Weighted>
6.9663

> <Gold.Chemscore.Internal.Correction.Weighted>
   9.000000E+99

> <Gold.Protein.RotatedTorsions>
[ 6907 6896 6895 6894 ] final -136.13 input  -60.11 | X-H torsion
[ 7974 7965 7964 7962 ] final -123.47 input  175.53 | X-H torsion
[ 8008 7997 7996 7995 ] final -165.91 input   59.86 | X-H torsion
[ 10167 10162 10161 10158 ] final -111.03 input  -65.29 | X-H torsion
[ 10718 10713 10712 10709 ] final  -60.16 input   66.30 | X-H torsion
[ 10763 10752 10751 10750 ] final    7.17 input  -60.55 | X-H torsion
[ 11005 11000 10999 10996 ] final   32.10 input  -57.11 | X-H torsion

> <Gold.Protein.ActiveResidues>
 VAL166  LYS551  ARG553  GLY616  TRP617  ASP618  TYR619  PRO620  LYS621  CYS622 
 ASP623  PHE694  ASN695  SER759  ASP760  ASP761  ALA762  ILE779  LEU786  VAL792 
 PHE793  MET794  SER795  GLU796  ALA797  LYS798  CYS799  TRP800  GLU811  SER814 

> <Gold.Protein.RotatedAtoms>
  151.0063  133.6008  159.2688 H   0  0  0  0  0  0  0  0  0  0  0  0  # atno 6907 bound_to 6896
  151.3176  135.0809  159.9304 H   0  0  0  0  0  0  0  0  0  0  0  0  # atno 6908 bound_to 6896
  152.5287  133.9716  159.7819 H   0  0  0  0  0  0  0  0  0  0  0  0  # atno 6909 bound_to 6896
  145.0184  140.7967  143.4396 H   0  0  0  0  0  0  0  0  0  0  0  0  # atno 7974 bound_to 7965
  155.8564  140.0971  157.1641 H   0  0  0  0  0  0  0  0  0  0  0  0  # atno 8008 bound_to 7997
  154.3988  140.1373  156.3969 H   0  0  0  0  0  0  0  0  0  0  0  0  # atno 8009 bound_to 7997
  155.7904  140.3456  155.5349 H   0  0  0  0  0  0  0  0  0  0  0  0  # atno 8010 bound_to 7997
  140.1380  143.4303  152.1581 H   0  0  0  0  0  0  0  0  0  0  0  0  # atno 10167 bound_to 10162
  156.1010  130.4186  150.0816 H   0  0  0  0  0  0  0  0  0  0  0  0  # atno 10718 bound_to 10713
  153.2393  135.6901  153.7801 H   0  0  0  0  0  0  0  0  0  0  0  0  # atno 10763 bound_to 10752
  153.6937  135.3308  155.3209 H   0  0  0  0  0  0  0  0  0  0  0  0  # atno 10764 bound_to 10752
  154.8348  135.4551  154.1308 H   0  0  0  0  0  0  0  0  0  0  0  0  # atno 10765 bound_to 10752
  140.2770  134.3017  155.7811 H   0  0  0  0  0  0  0  0  0  0  0  0  # atno 11005 bound_to 11000
  145.1929  139.2292  143.5233 LP  0  0  0  0  0  0  0  0  0  0  0  0  # atno 17320 bound_to 7965
  146.3481  140.1729  142.8589 LP  0  0  0  0  0  0  0  0  0  0  0  0  # atno 17321 bound_to 7965
  139.5486  144.7319  151.4505 LP  0  0  0  0  0  0  0  0  0  0  0  0  # atno 17342 bound_to 10162
  140.6777  143.8152  150.7080 LP  0  0  0  0  0  0  0  0  0  0  0  0  # atno 17343 bound_to 10162
  156.8803  130.9554  151.3600 LP  0  0  0  0  0  0  0  0  0  0  0  0  # atno 17370 bound_to 10713
  157.6180  130.8633  149.9060 LP  0  0  0  0  0  0  0  0  0  0  0  0  # atno 17371 bound_to 10713
  141.2169  133.7502  156.9422 LP  0  0  0  0  0  0  0  0  0  0  0  0  # atno 17394 bound_to 11000
  140.1319  134.9350  157.2349 LP  0  0  0  0  0  0  0  0  0  0  0  0  # atno 17395 bound_to 11000

$$$$
