AV-unprocessed.smi:2663|AV-procd|sdf|10325|dock10
  -GOLD-   2272014343D 1   1.00000     0.00000
 Structure written by MMmdl.
 38 39  0  0  0  0  0  0  0  0  2 V2000
  149.4984  141.3700  157.4718 C   0  0  0  0  0  0  0  0  0  0  0  0
  150.9976  140.9959  157.3429 C   0  0  2  0  0  0  0  0  0  0  0  0
  151.3426  140.8429  155.8324 C   0  0  0  0  0  0  0  0  0  0  0  0
  150.5296  139.8819  155.1875 O   0  0  0  0  0  0  0  0  0  0  0  0
  151.2590  139.7205  158.0300 N   0  0  0  0  0  0  0  0  0  0  0  0
  152.4237  139.1001  158.2830 C   0  0  0  0  0  0  0  0  0  0  0  0
  153.4929  139.6001  157.9282 O   0  0  0  0  0  0  0  0  0  0  0  0
  152.2732  137.9272  158.9394 N   0  5  0  0  0  0  0  0  0  0  0  0
  153.2061  137.5225  159.8174 C   0  0  0  0  0  0  0  0  0  0  0  0
  153.5667  136.2346  159.9379 N   0  0  0  0  0  0  0  0  0  0  0  0
  154.5414  136.0283  160.9049 N   0  0  0  0  0  0  0  0  0  0  0  0
  154.8861  137.1707  161.4984 C   0  0  0  0  0  0  0  0  0  0  0  0
  154.0499  138.6014  160.9324 S   0  0  0  0  0  0  0  0  0  0  0  0
  151.8884  142.0895  158.0337 C   0  0  0  0  0  0  0  0  0  0  0  0
  151.8334  142.0484  159.5850 C   0  0  0  0  0  0  0  0  0  0  0  0
  152.7584  143.0935  160.2293 C   0  0  0  0  0  0  0  0  0  0  0  0
  152.4323  144.5083  159.7354 C   0  0  0  0  0  0  0  0  0  0  0  0
  152.5017  144.5761  158.2049 C   0  0  0  0  0  0  0  0  0  0  0  0
  151.5748  143.5348  157.5579 C   0  0  0  0  0  0  0  0  0  0  0  0
  149.3192  142.3988  157.1583 H   0  0  0  0  0  0  0  0  0  0  0  0
  149.1349  141.2662  158.4941 H   0  0  0  0  0  0  0  0  0  0  0  0
  148.8648  140.7376  156.8501 H   0  0  0  0  0  0  0  0  0  0  0  0
  151.2413  141.7923  155.3066 H   0  0  0  0  0  0  0  0  0  0  0  0
  152.3795  140.5369  155.6949 H   0  0  0  0  0  0  0  0  0  0  0  0
  150.6189  139.0603  155.6455 H   0  0  0  0  0  0  0  0  0  0  0  0
  150.4346  139.2375  158.3559 H   0  0  0  0  0  0  0  0  0  0  0  0
  155.6346  137.1702  162.2766 H   0  0  0  0  0  0  0  0  0  0  0  0
  152.9236  141.8927  157.7504 H   0  0  0  0  0  0  0  0  0  0  0  0
  150.8120  142.2122  159.9304 H   0  0  0  0  0  0  0  0  0  0  0  0
  152.1302  141.0688  159.9571 H   0  0  0  0  0  0  0  0  0  0  0  0
  152.6675  143.0503  161.3149 H   0  0  0  0  0  0  0  0  0  0  0  0
  153.7970  142.8548  159.9969 H   0  0  0  0  0  0  0  0  0  0  0  0
  151.4347  144.7945  160.0718 H   0  0  0  0  0  0  0  0  0  0  0  0
  153.1264  145.2262  160.1732 H   0  0  0  0  0  0  0  0  0  0  0  0
  152.2296  145.5760  157.8658 H   0  0  0  0  0  0  0  0  0  0  0  0
  153.5278  144.4062  157.8760 H   0  0  0  0  0  0  0  0  0  0  0  0
  151.6807  143.6187  156.4773 H   0  0  0  0  0  0  0  0  0  0  0  0
  150.5401  143.7927  157.7865 H   0  0  0  0  0  0  0  0  0  0  0  0
  1  2  1  0  0  0  0
  1 20  1  0  0  0  0
  1 21  1  0  0  0  0
  1 22  1  0  0  0  0
  2  3  1  0  0  0  0
  2  5  1  0  0  0  0
  2 14  1  0  0  0  0
  3  4  1  0  0  0  0
  3 23  1  0  0  0  0
  3 24  1  0  0  0  0
  4 25  1  0  0  0  0
  5  6  1  0  0  0  0
  5 26  1  0  0  0  0
  6  7  2  0  0  0  0
  6  8  1  0  0  0  0
  8  9  1  0  0  0  0
  9 13  1  0  0  0  0
  9 10  2  0  0  0  0
 10 11  1  0  0  0  0
 11 12  2  0  0  0  0
 12 13  1  0  0  0  0
 12 27  1  0  0  0  0
 14 19  1  0  0  0  0
 14 15  1  0  0  0  0
 14 28  1  0  0  0  0
 15 16  1  0  0  0  0
 15 29  1  0  0  0  0
 15 30  1  0  0  0  0
 16 17  1  0  0  0  0
 16 31  1  0  0  0  0
 16 32  1  0  0  0  0
 17 18  1  0  0  0  0
 17 33  1  0  0  0  0
 17 34  1  0  0  0  0
 18 19  1  0  0  0  0
 18 35  1  0  0  0  0
 18 36  1  0  0  0  0
 19 37  1  0  0  0  0
 19 38  1  0  0  0  0
M  CHG  1   8  -1
M  END
> <s_m_source_file>
AV-unprocessed.smi

> <i_m_source_file_index>
2663

> <i_lp_mmshare_version>
43012

> <i_f3d_flags>
0

> <s_epik_input>
W0NIMl0xW0NIMl1bQ0gyXVtDSDJdW0NIMl1bQ0hdMVtDQF0oW0NIM10pKFtDSDJdW09IXSlbTkhdQyg9TylbTkhdYzJubltjSF1zMg==

> <s_epik_cmdline>
J2VwaWtfcHl0aG9uJywgJy1waCcsICc3LjAnLCAnLXRuJywgJzgnLCAnLW1hJywgJzIwMCcsICctbWV0YWxfYmluZGluZycsICctaW1hZScsICc8aW5maWxlLm1hZT4nLCAnLW9tYWUnLCAnPG91dGZpbGUubWFlPic=

> <r_lp_tautomer_probability>
1

> <r_epik_Ionization_Penalty>
4.39194

> <r_epik_Ionization_Penalty_Charging>
4.34423

> <r_epik_Ionization_Penalty_Neutral>
0.047714

> <r_epik_State_Penalty>
4.34384

> <r_epik_Charging_Adjusted_Penalty>
8.68806

> <i_epik_Tot_Q>
-1

> <i_epik_Tot_abs_Q>
1

> <r_epik_Metal_State_Penalty>
0.746645

> <b_epik_Metal_Only>
1

> <s_lp_Force_Field>
OPLS_2005

> <r_lp_Energy>
18.1486

> <b_lp_Chiralities_Consistent>
1

> <s_lp_Variant>
AV-unprocessed.smi:2663-4

> <Gold.Version>
5.8.1

> <Gold.Id.Protein>
6NUR|6NUR_protein|mol2

> <Gold.PLP.Fitness>
39.7514

> <Gold.PLP.PLP>
-35.2593

> <Gold.PLP.part.hbond>
-2.0000

> <Gold.PLP.part.metal>
0.0000

> <Gold.PLP.part.buried>
-4.3547

> <Gold.PLP.part.nonpolar>
-27.3641

> <Gold.PLP.part.repulsive>
0.1017

> <Gold.PLP.ligand.clash>
0.0000

> <Gold.PLP.ligand.torsion>
0.7886

> <Gold.PLP.Chemscore.Hbond>
2.0000

> <Gold.PLP.Chemscore.CHOScore>
0.0000

> <Gold.PLP.Chemscore.Metal>
0.0000

> <Gold.Chemscore.Hbonds>
donor molecule, donor type, donor heavy atom, donor atom, acceptor molecule, acceptor atom, score
      P1  H  6896  6909       L1    10  1.00
      P1  H  7997  8010       L1     7  0.98

> <Gold.PLP.Chemscore.Internal.Correction>
0.0694

> <Gold.Rescore>
     Score         DG    S(hbond)    S(metal)    S(lipo)     H(rot)  DE(clash)    DE(int)     intcor
     17.27     -17.99       1.98        0.00      98.04       2.18       0.04       0.67       ----

> <Gold.Chemscore.Fitness>
17.2747

> <Gold.Chemscore.DG>
-17.9861

> <Gold.Chemscore.ZeroCoef>
-5.4800

> <Gold.Chemscore.Hbond>
1.9795

> <Gold.Chemscore.Metal>
0.0000

> <Gold.Chemscore.Lipo>
98.0422

> <Gold.Chemscore.Internal_Hbond>
0.0000

> <Gold.Chemscore.DEClash>
0.0402

> <Gold.Chemscore.DEInternal>
0.6711

> <Gold.Chemscore.Rot>
2.1783

> <Gold.Chemscore.Internal.Correction>
   9.000000E+99

> <Gold.Chemscore.Hbonds>
donor molecule, donor type, donor heavy atom, donor atom, acceptor molecule, acceptor atom, score
      P1  H  6896  6909       L1    10  0.60
      P1  H  7997  8010       L1     7  0.91

> <Gold.Chemscore.Hbond.Weighted>
-6.6117

> <Gold.Chemscore.Metal.Weighted>
-0.0000

> <Gold.Chemscore.Lipo.Weighted>
-11.4709

> <Gold.Chemscore.Internal_Hbond.Weighted>
0.0000

> <Gold.Chemscore.DEClash.Weighted>
0.0402

> <Gold.Chemscore.DEInternal.Weighted>
0.6711

> <Gold.Chemscore.Rot.Weighted>
5.5765

> <Gold.Chemscore.Internal.Correction.Weighted>
   9.000000E+99

> <Gold.Protein.RotatedTorsions>
[ 6907 6896 6895 6894 ] final  171.81 input  -60.11 | X-H torsion
[ 7974 7965 7964 7962 ] final -110.12 input  175.53 | X-H torsion
[ 8008 7997 7996 7995 ] final   22.56 input   59.86 | X-H torsion
[ 10167 10162 10161 10158 ] final  142.20 input  -65.29 | X-H torsion
[ 10718 10713 10712 10709 ] final  143.52 input   66.30 | X-H torsion
[ 10763 10752 10751 10750 ] final -145.60 input  -60.55 | X-H torsion
[ 11005 11000 10999 10996 ] final  163.35 input  -57.11 | X-H torsion

> <Gold.Protein.ActiveResidues>
 VAL166  LYS551  ARG553  GLY616  TRP617  ASP618  TYR619  PRO620  LYS621  CYS622 
 ASP623  PHE694  ASN695  SER759  ASP760  ASP761  ALA762  ILE779  LEU786  VAL792 
 PHE793  MET794  SER795  GLU796  ALA797  LYS798  CYS799  TRP800  GLU811  SER814 

> <Gold.Protein.RotatedAtoms>
  151.7943  133.3362  159.3507 H   0  0  0  0  0  0  0  0  0  0  0  0  # atno 6907 bound_to 6896
  150.7381  134.5813  159.5950 H   0  0  0  0  0  0  0  0  0  0  0  0  # atno 6908 bound_to 6896
  152.3188  134.7407  160.0370 H   0  0  0  0  0  0  0  0  0  0  0  0  # atno 6909 bound_to 6896
  145.1721  140.8931  143.3529 H   0  0  0  0  0  0  0  0  0  0  0  0  # atno 7974 bound_to 7965
  154.9675  140.3086  155.5003 H   0  0  0  0  0  0  0  0  0  0  0  0  # atno 8008 bound_to 7997
  156.2970  140.2290  156.4704 H   0  0  0  0  0  0  0  0  0  0  0  0  # atno 8009 bound_to 7997
  154.7907  140.0440  157.1187 H   0  0  0  0  0  0  0  0  0  0  0  0  # atno 8010 bound_to 7997
  139.5000  144.6123  151.6244 H   0  0  0  0  0  0  0  0  0  0  0  0  # atno 10167 bound_to 10162
  157.3680  131.0975  151.0854 H   0  0  0  0  0  0  0  0  0  0  0  0  # atno 10718 bound_to 10713
  154.8376  135.3409  154.6529 H   0  0  0  0  0  0  0  0  0  0  0  0  # atno 10763 bound_to 10752
  153.7142  135.6962  153.5034 H   0  0  0  0  0  0  0  0  0  0  0  0  # atno 10764 bound_to 10752
  153.2429  135.4379  155.0670 H   0  0  0  0  0  0  0  0  0  0  0  0  # atno 10765 bound_to 10752
  140.2349  134.8095  157.3354 H   0  0  0  0  0  0  0  0  0  0  0  0  # atno 11005 bound_to 11000
  145.0222  139.3414  143.6066 LP  0  0  0  0  0  0  0  0  0  0  0  0  # atno 17320 bound_to 7965
  146.3467  139.9527  142.8727 LP  0  0  0  0  0  0  0  0  0  0  0  0  # atno 17321 bound_to 7965
  140.5800  143.9961  150.6263 LP  0  0  0  0  0  0  0  0  0  0  0  0  # atno 17342 bound_to 10162
  140.3107  143.3200  152.0881 LP  0  0  0  0  0  0  0  0  0  0  0  0  # atno 17343 bound_to 10162
  157.1969  130.6377  149.5724 LP  0  0  0  0  0  0  0  0  0  0  0  0  # atno 17370 bound_to 10713
  155.9750  130.4704  150.6427 LP  0  0  0  0  0  0  0  0  0  0  0  0  # atno 17371 bound_to 10713
  140.1712  134.4606  155.7830 LP  0  0  0  0  0  0  0  0  0  0  0  0  # atno 17394 bound_to 11000
  141.2215  133.6942  156.7710 LP  0  0  0  0  0  0  0  0  0  0  0  0  # atno 17395 bound_to 11000

$$$$
