AV-unprocessed.smi:3009|AV-procd|sdf|11451|dock2
  -GOLD-   2272016383D 1   1.00000     0.00000
 Structure written by MMmdl.
 44 45  0  0  0  0  0  0  0  0  2 V2000
  151.8806  140.6226  155.8257 C   0  0  0  0  0  0  0  0  0  0  0  0
  151.6270  139.2466  155.1875 C   0  0  0  0  0  0  0  0  0  0  0  0
  152.8753  138.7704  154.4296 C   0  0  0  0  0  0  0  0  0  0  0  0
  150.3995  139.2631  154.2511 C   0  0  0  0  0  0  0  0  0  0  0  0
  149.1144  139.4716  154.9733 N   0  3  1  0  0  0  0  0  0  0  0  0
  148.7192  140.8971  155.0786 C   0  0  0  0  0  0  0  0  0  0  0  0
  148.1206  141.4062  153.7552 C   0  0  0  0  0  0  0  0  0  0  0  0
  147.0140  140.5896  153.3930 O   0  0  0  0  0  0  0  0  0  0  0  0
  147.3866  139.2327  153.1704 C   0  0  2  0  0  0  0  0  0  0  0  0
  146.1381  138.4567  152.7146 C   0  0  0  0  0  0  0  0  0  0  0  0
  146.4846  137.1529  152.1586 N   0  0  0  0  0  0  0  0  0  0  0  0
  145.5972  136.2167  151.7945 C   0  0  0  0  0  0  0  0  0  0  0  0
  144.3782  136.3670  151.8834 O   0  0  0  0  0  0  0  0  0  0  0  0
  146.2092  135.1113  151.3398 N   0  0  0  0  0  0  0  0  0  0  0  0
  145.5973  133.9188  150.8773 C   0  0  0  0  0  0  0  0  0  0  0  0
  146.2850  132.7001  150.6284 C   0  0  0  0  0  0  0  0  0  0  0  0
  145.4579  131.7565  150.2021 N   0  0  0  0  0  0  0  0  0  0  0  0
  144.2495  132.3623  150.1722 N   0  0  0  0  0  0  0  0  0  0  0  0
  144.2864  133.6794  150.5735 C   0  0  0  0  0  0  0  0  0  0  0  0
  147.9756  138.6564  154.4766 C   0  0  0  0  0  0  0  0  0  0  0  0
  143.4186  131.8698  149.8768 H   0  0  0  0  0  0  0  0  0  0  0  0
  152.0646  141.3839  155.0671 H   0  0  0  0  0  0  0  0  0  0  0  0
  152.7494  140.5942  156.4841 H   0  0  0  0  0  0  0  0  0  0  0  0
  151.0310  140.9485  156.4263 H   0  0  0  0  0  0  0  0  0  0  0  0
  151.4584  138.5307  155.9912 H   0  0  0  0  0  0  0  0  0  0  0  0
  153.1209  139.4418  153.6063 H   0  0  0  0  0  0  0  0  0  0  0  0
  152.7270  137.7737  154.0129 H   0  0  0  0  0  0  0  0  0  0  0  0
  153.7421  138.7233  155.0895 H   0  0  0  0  0  0  0  0  0  0  0  0
  150.5395  140.0677  153.5275 H   0  0  0  0  0  0  0  0  0  0  0  0
  150.3561  138.3441  153.6671 H   0  0  0  0  0  0  0  0  0  0  0  0
  147.9735  140.9890  155.8695 H   0  0  0  0  0  0  0  0  0  0  0  0
  149.5659  141.5122  155.3854 H   0  0  0  0  0  0  0  0  0  0  0  0
  147.7751  142.4335  153.8722 H   0  0  0  0  0  0  0  0  0  0  0  0
  148.8651  141.4114  152.9578 H   0  0  0  0  0  0  0  0  0  0  0  0
  148.1358  139.1897  152.3790 H   0  0  0  0  0  0  0  0  0  0  0  0
  145.4485  138.3231  153.5500 H   0  0  0  0  0  0  0  0  0  0  0  0
  145.5979  139.0245  151.9565 H   0  0  0  0  0  0  0  0  0  0  0  0
  147.4675  136.9481  152.0522 H   0  0  0  0  0  0  0  0  0  0  0  0
  147.2186  135.1180  151.3333 H   0  0  0  0  0  0  0  0  0  0  0  0
  147.3349  132.4731  150.7420 H   0  0  0  0  0  0  0  0  0  0  0  0
  143.4032  134.3001  150.6012 H   0  0  0  0  0  0  0  0  0  0  0  0
  148.2675  137.6161  154.3392 H   0  0  0  0  0  0  0  0  0  0  0  0
  147.2046  138.6526  155.2483 H   0  0  0  0  0  0  0  0  0  0  0  0
  149.2962  139.1672  155.9193 H   0  0  0  0  0  0  0  0  0  0  0  0
  1  2  1  0  0  0  0
  1 22  1  0  0  0  0
  1 23  1  0  0  0  0
  1 24  1  0  0  0  0
  2  3  1  0  0  0  0
  2  4  1  0  0  0  0
  2 25  1  0  0  0  0
  3 26  1  0  0  0  0
  3 27  1  0  0  0  0
  3 28  1  0  0  0  0
  4  5  1  0  0  0  0
  4 29  1  0  0  0  0
  4 30  1  0  0  0  0
  5 20  1  0  0  0  0
  5  6  1  0  0  0  0
  5 44  1  0  0  0  0
  6  7  1  0  0  0  0
  6 31  1  0  0  0  0
  6 32  1  0  0  0  0
  7  8  1  0  0  0  0
  7 33  1  0  0  0  0
  7 34  1  0  0  0  0
  8  9  1  0  0  0  0
  9 10  1  0  0  0  0
  9 20  1  0  0  0  0
  9 35  1  0  0  0  0
 10 11  1  0  0  0  0
 10 36  1  0  0  0  0
 10 37  1  0  0  0  0
 11 12  1  0  0  0  0
 11 38  1  0  0  0  0
 12 13  2  0  0  0  0
 12 14  1  0  0  0  0
 14 15  1  0  0  0  0
 14 39  1  0  0  0  0
 15 19  2  0  0  0  0
 15 16  1  0  0  0  0
 16 17  2  0  0  0  0
 16 40  1  0  0  0  0
 17 18  1  0  0  0  0
 18 21  1  0  0  0  0
 18 19  1  0  0  0  0
 19 41  1  0  0  0  0
 20 42  1  0  0  0  0
 20 43  1  0  0  0  0
M  CHG  1   5   1
M  END
> <s_m_source_file>
AV-unprocessed.smi

> <i_m_source_file_index>
3009

> <i_lp_mmshare_version>
43012

> <i_f3d_flags>
0

> <s_epik_input>
W0NIM11bQ0hdKFtDSDNdKVtDSDJdTjFbQ0gyXVtDSDJdT1tDQEhdKFtDSDJdMSlbQ0gyXVtOSF1DKD1PKVtOSF1jMltjSF1uW25IXVtjSF0y

> <s_epik_cmdline>
J2VwaWtfcHl0aG9uJywgJy1waCcsICc3LjAnLCAnLXRuJywgJzgnLCAnLW1hJywgJzIwMCcsICctbWV0YWxfYmluZGluZycsICctaW1hZScsICc8aW5maWxlLm1hZT4nLCAnLW9tYWUnLCAnPG91dGZpbGUubWFlPic=

> <r_lp_tautomer_probability>
0.5

> <r_epik_Ionization_Penalty>
0.0974064

> <r_epik_Ionization_Penalty_Charging>
0.0973651

> <r_epik_Ionization_Penalty_Neutral>
4.13573e-05

> <r_epik_State_Penalty>
0.0874853

> <r_epik_Charging_Adjusted_Penalty>
0.18485

> <i_epik_Tot_Q>
1

> <i_epik_Tot_abs_Q>
1

> <r_epik_Metal_State_Penalty>
0.0874855

> <b_epik_Metal_Only>
0

> <s_lp_Force_Field>
OPLS_2005

> <r_lp_Energy>
21.5437

> <b_lp_Chiralities_Consistent>
1

> <s_lp_Variant>
AV-unprocessed.smi:3009-3

> <Gold.Version>
5.8.1

> <Gold.Id.Protein>
6NUR|6NUR_protein|mol2

> <Gold.PLP.Fitness>
44.1756

> <Gold.PLP.PLP>
-34.0314

> <Gold.PLP.part.hbond>
-2.0000

> <Gold.PLP.part.metal>
0.0000

> <Gold.PLP.part.buried>
-4.8727

> <Gold.PLP.part.nonpolar>
-28.4175

> <Gold.PLP.part.repulsive>
1.8845

> <Gold.PLP.ligand.clash>
0.0000

> <Gold.PLP.ligand.torsion>
0.6682

> <Gold.PLP.Chemscore.Hbond>
1.8445

> <Gold.PLP.Chemscore.CHOScore>
1.9020

> <Gold.PLP.Chemscore.Metal>
0.0000

> <Gold.Chemscore.Hbonds>
donor molecule, donor type, donor heavy atom, donor atom, acceptor molecule, acceptor atom, score
      L1  H    11    38       P1  7948  1.00
      L1  H    14    39       P1  7948  0.83
      L1  C    16    40       P1 10747  1.00
      L1  C    19    41       P1 10186  0.79

> <Gold.PLP.Chemscore.Internal.Correction>
0.2411

> <Gold.Rescore>
     Score         DG    S(hbond)    S(metal)    S(lipo)     H(rot)  DE(clash)    DE(int)     intcor
     14.43     -16.28       1.86        0.00      78.39       1.80       0.14       1.71       ----

> <Gold.Chemscore.Fitness>
14.4264

> <Gold.Chemscore.DG>
-16.2759

> <Gold.Chemscore.ZeroCoef>
-5.4800

> <Gold.Chemscore.Hbond>
1.8631

> <Gold.Chemscore.Metal>
0.0000

> <Gold.Chemscore.Lipo>
78.3912

> <Gold.Chemscore.Internal_Hbond>
0.0000

> <Gold.Chemscore.DEClash>
0.1412

> <Gold.Chemscore.DEInternal>
1.7084

> <Gold.Chemscore.Rot>
1.7963

> <Gold.Chemscore.Internal.Correction>
   9.000000E+99

> <Gold.Chemscore.Hbonds>
donor molecule, donor type, donor heavy atom, donor atom, acceptor molecule, acceptor atom, score
      L1  H    11    38       P1  7948  1.00
      L1  H    14    39       P1  7948  0.58

> <Gold.Chemscore.Hbond.Weighted>
-6.2227

> <Gold.Chemscore.Metal.Weighted>
-0.0000

> <Gold.Chemscore.Lipo.Weighted>
-9.1718

> <Gold.Chemscore.Internal_Hbond.Weighted>
0.0000

> <Gold.Chemscore.DEClash.Weighted>
0.1412

> <Gold.Chemscore.DEInternal.Weighted>
1.7084

> <Gold.Chemscore.Rot.Weighted>
4.5985

> <Gold.Chemscore.Internal.Correction.Weighted>
   9.000000E+99

> <Gold.Protein.RotatedTorsions>
[ 6907 6896 6895 6894 ] final   29.36 input  -60.11 | X-H torsion
[ 7974 7965 7964 7962 ] final  -17.71 input  175.53 | X-H torsion
[ 8008 7997 7996 7995 ] final   50.21 input   59.86 | X-H torsion
[ 10167 10162 10161 10158 ] final -119.76 input  -65.29 | X-H torsion
[ 10718 10713 10712 10709 ] final  126.73 input   66.30 | X-H torsion
[ 10763 10752 10751 10750 ] final -135.77 input  -60.55 | X-H torsion
[ 11005 11000 10999 10996 ] final   80.99 input  -57.11 | X-H torsion

> <Gold.Protein.ActiveResidues>
 VAL166  LYS551  ARG553  GLY616  TRP617  ASP618  TYR619  PRO620  LYS621  CYS622 
 ASP623  PHE694  ASN695  SER759  ASP760  ASP761  ALA762  ILE779  LEU786  VAL792 
 PHE793  MET794  SER795  GLU796  ALA797  LYS798  CYS799  TRP800  GLU811  SER814 

> <Gold.Protein.RotatedAtoms>
  152.0304  134.9771  160.0572 H   0  0  0  0  0  0  0  0  0  0  0  0  # atno 6907 bound_to 6896
  152.1250  133.4370  159.4701 H   0  0  0  0  0  0  0  0  0  0  0  0  # atno 6908 bound_to 6896
  150.6852  134.2408  159.4515 H   0  0  0  0  0  0  0  0  0  0  0  0  # atno 6909 bound_to 6896
  146.1928  140.3818  142.8452 H   0  0  0  0  0  0  0  0  0  0  0  0  # atno 7974 bound_to 7965
  155.4150  140.3444  155.4266 H   0  0  0  0  0  0  0  0  0  0  0  0  # atno 8008 bound_to 7997
  156.1426  140.1547  156.8928 H   0  0  0  0  0  0  0  0  0  0  0  0  # atno 8009 bound_to 7997
  154.4984  140.0821  156.7726 H   0  0  0  0  0  0  0  0  0  0  0  0  # atno 8010 bound_to 7997
  140.0431  143.5133  152.2120 H   0  0  0  0  0  0  0  0  0  0  0  0  # atno 10167 bound_to 10162
  157.5393  131.1097  150.8884 H   0  0  0  0  0  0  0  0  0  0  0  0  # atno 10718 bound_to 10713
  154.8697  135.3693  154.4952 H   0  0  0  0  0  0  0  0  0  0  0  0  # atno 10763 bound_to 10752
  153.5596  135.7023  153.5558 H   0  0  0  0  0  0  0  0  0  0  0  0  # atno 10764 bound_to 10752
  153.3640  135.4039  155.1703 H   0  0  0  0  0  0  0  0  0  0  0  0  # atno 10765 bound_to 10752
  139.9114  134.7963  156.1982 H   0  0  0  0  0  0  0  0  0  0  0  0  # atno 11005 bound_to 11000
  144.8520  140.7014  143.6162 LP  0  0  0  0  0  0  0  0  0  0  0  0  # atno 17320 bound_to 7965
  145.3740  139.1652  143.4317 LP  0  0  0  0  0  0  0  0  0  0  0  0  # atno 17321 bound_to 7965
  139.6001  144.7580  151.3193 LP  0  0  0  0  0  0  0  0  0  0  0  0  # atno 17342 bound_to 10162
  140.7251  143.7027  150.7832 LP  0  0  0  0  0  0  0  0  0  0  0  0  # atno 17343 bound_to 10162
  156.9441  130.5395  149.5281 LP  0  0  0  0  0  0  0  0  0  0  0  0  # atno 17370 bound_to 10713
  156.0484  130.5557  150.8934 LP  0  0  0  0  0  0  0  0  0  0  0  0  # atno 17371 bound_to 10713
  141.0541  133.6874  156.1827 LP  0  0  0  0  0  0  0  0  0  0  0  0  # atno 17394 bound_to 11000
  140.6764  134.4813  157.5588 LP  0  0  0  0  0  0  0  0  0  0  0  0  # atno 17395 bound_to 11000

$$$$
