AV-unprocessed.smi:2413|AV-procd|sdf|9535|dock9
  -GOLD-   2272013163D 1   1.00000     0.00000
 Structure written by MMmdl.
 45 46  0  0  0  0  0  0  0  0  1 V2000
  153.8705  136.9172  161.7227 C   0  0  0  0  0  0  0  0  0  0  0  0
  153.9470  136.5942  160.2343 C   0  0  0  0  0  0  0  0  0  0  0  0
  153.7322  135.4489  159.8384 O   0  0  0  0  0  0  0  0  0  0  0  0
  154.2548  137.6150  159.4206 N   0  0  0  0  0  0  0  0  0  0  0  0
  154.3930  137.5191  157.9715 C   0  0  0  0  0  0  0  0  0  0  0  0
  153.1592  138.0800  157.2442 C   0  0  1  0  0  0  0  0  0  0  0  0
  152.6651  139.3909  157.8855 C   0  0  0  0  0  0  0  0  0  0  0  0
  151.5715  139.9693  157.1086 N   0  0  0  0  0  0  0  0  0  0  0  0
  150.7993  140.9999  157.6923 C   0  0  0  0  0  0  0  0  0  0  0  0
  149.3851  141.0397  157.6126 C   0  0  0  0  0  0  0  0  0  0  0  0
  148.7439  142.1369  158.2188 C   0  0  0  0  0  0  0  0  0  0  0  0
  149.4353  143.1056  158.8524 N   0  0  0  0  0  0  0  0  0  0  0  0
  150.7652  142.9709  158.9159 C   0  0  0  0  0  0  0  0  0  0  0  0
  151.5663  144.1448  159.5046 C   0  0  0  0  0  0  0  0  0  0  0  0
  152.5296  144.7436  158.4523 C   0  0  0  0  0  0  0  0  0  0  0  0
  152.4546  143.6785  160.6818 C   0  0  0  0  0  0  0  0  0  0  0  0
  150.5941  145.2343  159.9927 C   0  0  0  0  0  0  0  0  0  0  0  0
  151.4656  141.9881  158.3361 N   0  0  0  0  0  0  0  0  0  0  0  0
  151.8491  140.0836  155.6766 C   0  0  0  0  0  0  0  0  0  0  0  0
  152.3878  138.7557  155.1203 C   0  0  0  0  0  0  0  0  0  0  0  0
  153.5096  138.3340  155.8866 O   0  0  0  0  0  0  0  0  0  0  0  0
  154.7707  137.4390  162.0491 H   0  0  0  0  0  0  0  0  0  0  0  0
  153.7721  136.0055  162.3129 H   0  0  0  0  0  0  0  0  0  0  0  0
  153.0086  137.5524  161.9282 H   0  0  0  0  0  0  0  0  0  0  0  0
  154.4218  138.5202  159.8352 H   0  0  0  0  0  0  0  0  0  0  0  0
  155.2939  138.0459  157.6523 H   0  0  0  0  0  0  0  0  0  0  0  0
  154.5391  136.4711  157.7078 H   0  0  0  0  0  0  0  0  0  0  0  0
  152.3561  137.3409  157.2791 H   0  0  0  0  0  0  0  0  0  0  0  0
  152.3322  139.1709  158.9000 H   0  0  0  0  0  0  0  0  0  0  0  0
  153.4791  140.1140  157.9524 H   0  0  0  0  0  0  0  0  0  0  0  0
  148.7965  140.2821  157.1187 H   0  0  0  0  0  0  0  0  0  0  0  0
  147.6694  142.2405  158.1892 H   0  0  0  0  0  0  0  0  0  0  0  0
  153.1334  145.5463  158.8774 H   0  0  0  0  0  0  0  0  0  0  0  0
  151.9935  145.1701  157.6035 H   0  0  0  0  0  0  0  0  0  0  0  0
  153.2144  143.9883  158.0648 H   0  0  0  0  0  0  0  0  0  0  0  0
  153.1383  142.8863  160.3741 H   0  0  0  0  0  0  0  0  0  0  0  0
  151.8625  143.2994  161.5155 H   0  0  0  0  0  0  0  0  0  0  0  0
  153.0583  144.4983  161.0730 H   0  0  0  0  0  0  0  0  0  0  0  0
  151.1285  146.0849  160.4171 H   0  0  0  0  0  0  0  0  0  0  0  0
  149.9232  144.8502  160.7617 H   0  0  0  0  0  0  0  0  0  0  0  0
  149.9763  145.6084  159.1755 H   0  0  0  0  0  0  0  0  0  0  0  0
  150.9575  140.3569  155.1125 H   0  0  0  0  0  0  0  0  0  0  0  0
  152.5807  140.8778  155.5231 H   0  0  0  0  0  0  0  0  0  0  0  0
  151.6140  137.9862  155.1310 H   0  0  0  0  0  0  0  0  0  0  0  0
  152.6948  138.8821  154.0820 H   0  0  0  0  0  0  0  0  0  0  0  0
  1  2  1  0  0  0  0
  1 22  1  0  0  0  0
  1 23  1  0  0  0  0
  1 24  1  0  0  0  0
  2  3  2  0  0  0  0
  2  4  1  0  0  0  0
  4  5  1  0  0  0  0
  4 25  1  0  0  0  0
  5  6  1  0  0  0  0
  5 26  1  0  0  0  0
  5 27  1  0  0  0  0
  6 21  1  0  0  0  0
  6  7  1  0  0  0  0
  6 28  1  0  0  0  0
  7  8  1  0  0  0  0
  7 29  1  0  0  0  0
  7 30  1  0  0  0  0
  8  9  1  0  0  0  0
  8 19  1  0  0  0  0
  9 18  1  0  0  0  0
  9 10  2  0  0  0  0
 10 11  1  0  0  0  0
 10 31  1  0  0  0  0
 11 12  2  0  0  0  0
 11 32  1  0  0  0  0
 12 13  1  0  0  0  0
 13 14  1  0  0  0  0
 13 18  2  0  0  0  0
 14 15  1  0  0  0  0
 14 16  1  0  0  0  0
 14 17  1  0  0  0  0
 15 33  1  0  0  0  0
 15 34  1  0  0  0  0
 15 35  1  0  0  0  0
 16 36  1  0  0  0  0
 16 37  1  0  0  0  0
 16 38  1  0  0  0  0
 17 39  1  0  0  0  0
 17 40  1  0  0  0  0
 17 41  1  0  0  0  0
 19 20  1  0  0  0  0
 19 42  1  0  0  0  0
 19 43  1  0  0  0  0
 20 21  1  0  0  0  0
 20 44  1  0  0  0  0
 20 45  1  0  0  0  0
M  END
> <s_m_source_file>
AV-unprocessed.smi

> <i_m_source_file_index>
2413

> <i_lp_mmshare_version>
43012

> <i_f3d_flags>
0

> <s_epik_input>
W0NIM11DKD1PKVtOSF1bQ0gyXVtDQEBIXTFbQ0gyXU4oW0NIMl1bQ0gyXU8xKWMyW2NIXVtjSF1uYyhuMilDKFtDSDNdKShbQ0gzXSlbQ0gzXQ==

> <s_epik_cmdline>
J2VwaWtfcHl0aG9uJywgJy1waCcsICc3LjAnLCAnLXRuJywgJzgnLCAnLW1hJywgJzIwMCcsICctbWV0YWxfYmluZGluZycsICctaW1hZScsICc8aW5maWxlLm1hZT4nLCAnLW9tYWUnLCAnPG91dGZpbGUubWFlPic=

> <r_lp_tautomer_probability>
1

> <r_epik_Ionization_Penalty>
0.0132021

> <r_epik_Ionization_Penalty_Charging>
0

> <r_epik_Ionization_Penalty_Neutral>
0.0132021

> <r_epik_State_Penalty>
0.0102452

> <r_epik_Charging_Adjusted_Penalty>
0.0102452

> <i_epik_Tot_Q>
0

> <i_epik_Tot_abs_Q>
0

> <r_epik_Metal_State_Penalty>
0.0100219

> <b_epik_Metal_Only>
0

> <s_lp_Force_Field>
OPLS_2005

> <r_lp_Energy>
8.35197

> <b_lp_Chiralities_Consistent>
1

> <s_lp_Variant>
AV-unprocessed.smi:2413-2

> <Gold.Version>
5.8.1

> <Gold.Id.Protein>
6NUR|6NUR_protein|mol2

> <Gold.PLP.Fitness>
40.9126

> <Gold.PLP.PLP>
-37.3258

> <Gold.PLP.part.hbond>
-2.3346

> <Gold.PLP.part.metal>
0.0000

> <Gold.PLP.part.buried>
-3.9291

> <Gold.PLP.part.nonpolar>
-30.1363

> <Gold.PLP.part.repulsive>
0.2204

> <Gold.PLP.ligand.clash>
0.0000

> <Gold.PLP.ligand.torsion>
0.8382

> <Gold.PLP.Chemscore.Hbond>
1.5449

> <Gold.PLP.Chemscore.CHOScore>
0.0000

> <Gold.PLP.Chemscore.Metal>
0.0000

> <Gold.Chemscore.Hbonds>
donor molecule, donor type, donor heavy atom, donor atom, acceptor molecule, acceptor atom, score
      P1  H  6896  6908       L1     3  1.00
      P1  H  7997  8009       L1    21  0.63

> <Gold.PLP.Chemscore.Internal.Correction>
0.6285

> <Gold.Rescore>
     Score         DG    S(hbond)    S(metal)    S(lipo)     H(rot)  DE(clash)    DE(int)     intcor
     14.19     -15.05       1.00        0.00      91.24       1.73       0.02       0.83       ----

> <Gold.Chemscore.Fitness>
14.1926

> <Gold.Chemscore.DG>
-15.0480

> <Gold.Chemscore.ZeroCoef>
-5.4800

> <Gold.Chemscore.Hbond>
0.9971

> <Gold.Chemscore.Metal>
0.0000

> <Gold.Chemscore.Lipo>
91.2374

> <Gold.Chemscore.Internal_Hbond>
0.0000

> <Gold.Chemscore.DEClash>
0.0234

> <Gold.Chemscore.DEInternal>
0.8320

> <Gold.Chemscore.Rot>
1.7332

> <Gold.Chemscore.Internal.Correction>
   9.000000E+99

> <Gold.Chemscore.Hbonds>
donor molecule, donor type, donor heavy atom, donor atom, acceptor molecule, acceptor atom, score
      P1  H  6896  6908       L1     3  0.90
      P1  H  7997  8009       L1    21  0.04

> <Gold.Chemscore.Hbond.Weighted>
-3.3303

> <Gold.Chemscore.Metal.Weighted>
-0.0000

> <Gold.Chemscore.Lipo.Weighted>
-10.6748

> <Gold.Chemscore.Internal_Hbond.Weighted>
0.0000

> <Gold.Chemscore.DEClash.Weighted>
0.0234

> <Gold.Chemscore.DEInternal.Weighted>
0.8320

> <Gold.Chemscore.Rot.Weighted>
4.4370

> <Gold.Chemscore.Internal.Correction.Weighted>
   9.000000E+99

> <Gold.Protein.RotatedTorsions>
[ 6907 6896 6895 6894 ] final  -75.65 input  -60.11 | X-H torsion
[ 7974 7965 7964 7962 ] final -177.06 input  175.53 | X-H torsion
[ 8008 7997 7996 7995 ] final -144.00 input   59.86 | X-H torsion
[ 10167 10162 10161 10158 ] final -141.81 input  -65.29 | X-H torsion
[ 10718 10713 10712 10709 ] final    8.42 input   66.30 | X-H torsion
[ 10763 10752 10751 10750 ] final   69.97 input  -60.55 | X-H torsion
[ 11005 11000 10999 10996 ] final   31.65 input  -57.11 | X-H torsion

> <Gold.Protein.ActiveResidues>
 VAL166  LYS551  ARG553  GLY616  TRP617  ASP618  TYR619  PRO620  LYS621  CYS622 
 ASP623  PHE694  ASN695  SER759  ASP760  ASP761  ALA762  ILE779  LEU786  VAL792 
 PHE793  MET794  SER795  GLU796  ALA797  LYS798  CYS799  TRP800  GLU811  SER814 

> <Gold.Protein.RotatedAtoms>
  150.7052  134.4690  159.5416 H   0  0  0  0  0  0  0  0  0  0  0  0  # atno 6907 bound_to 6896
  152.2350  134.8282  160.0477 H   0  0  0  0  0  0  0  0  0  0  0  0  # atno 6908 bound_to 6896
  151.9084  133.3520  159.3892 H   0  0  0  0  0  0  0  0  0  0  0  0  # atno 6909 bound_to 6896
  144.7127  140.1076  143.6413 H   0  0  0  0  0  0  0  0  0  0  0  0  # atno 7974 bound_to 7965
  155.5197  140.0590  157.2909 H   0  0  0  0  0  0  0  0  0  0  0  0  # atno 8008 bound_to 7997
  154.4522  140.1954  156.0432 H   0  0  0  0  0  0  0  0  0  0  0  0  # atno 8009 bound_to 7997
  156.0727  140.3258  155.7600 H   0  0  0  0  0  0  0  0  0  0  0  0  # atno 8010 bound_to 7997
  139.8149  143.7652  152.2665 H   0  0  0  0  0  0  0  0  0  0  0  0  # atno 10167 bound_to 10162
  156.9513  130.5898  149.5657 H   0  0  0  0  0  0  0  0  0  0  0  0  # atno 10718 bound_to 10713
  153.0316  135.5191  154.7369 H   0  0  0  0  0  0  0  0  0  0  0  0  # atno 10763 bound_to 10752
  154.6380  135.2908  155.0139 H   0  0  0  0  0  0  0  0  0  0  0  0  # atno 10764 bound_to 10752
  154.1067  135.6628  153.4930 H   0  0  0  0  0  0  0  0  0  0  0  0  # atno 10765 bound_to 10752
  140.2817  134.2965  155.7799 H   0  0  0  0  0  0  0  0  0  0  0  0  # atno 11005 bound_to 11000
  145.9483  139.2716  143.1227 LP  0  0  0  0  0  0  0  0  0  0  0  0  # atno 17320 bound_to 7965
  145.9350  140.9021  143.0337 LP  0  0  0  0  0  0  0  0  0  0  0  0  # atno 17321 bound_to 7965
  139.7813  144.7443  151.0085 LP  0  0  0  0  0  0  0  0  0  0  0  0  # atno 17342 bound_to 10162
  140.7816  143.4539  151.0373 LP  0  0  0  0  0  0  0  0  0  0  0  0  # atno 17343 bound_to 10162
  156.0361  130.5449  150.8658 LP  0  0  0  0  0  0  0  0  0  0  0  0  # atno 17370 bound_to 10713
  157.5720  131.0946  150.9404 LP  0  0  0  0  0  0  0  0  0  0  0  0  # atno 17371 bound_to 10713
  141.2161  133.7529  156.9490 LP  0  0  0  0  0  0  0  0  0  0  0  0  # atno 17394 bound_to 11000
  140.1277  134.9376  157.2293 LP  0  0  0  0  0  0  0  0  0  0  0  0  # atno 17395 bound_to 11000

$$$$
