AV-unprocessed.smi:1067|AV-procd|sdf|4672|dock10
  -GOLD-   22720 3183D 1   1.00000     0.00000
 Structure written by MMmdl.
 50 52  0  0  0  0  0  0  0  0  1 V2000
  146.7371  134.2731  153.5210 N   0  0  0  0  0  0  0  0  0  0  0  0
  145.8013  135.2268  153.5617 C   0  0  0  0  0  0  0  0  0  0  0  0
  145.3881  135.6569  154.6376 O   0  0  0  0  0  0  0  0  0  0  0  0
  145.2582  135.7943  152.2185 C   0  0  0  0  0  0  0  0  0  0  0  0
  145.5640  137.3185  152.1530 C   0  0  0  0  0  0  0  0  0  0  0  0
  146.9405  137.6699  152.5074 N   0  0  0  0  0  0  0  0  0  0  0  0
  147.3025  138.5792  153.4232 C   0  0  0  0  0  0  0  0  0  0  0  0
  146.4982  139.2491  154.0710 O   0  0  0  0  0  0  0  0  0  0  0  0
  148.6402  138.6611  153.5223 N   0  0  0  0  0  0  0  0  0  0  0  0
  149.4113  139.4996  154.3712 C   0  0  0  0  0  0  0  0  0  0  0  0
  150.7108  139.1860  154.8325 C   0  0  0  0  0  0  0  0  0  0  0  0
  151.3806  140.1056  155.6619 C   0  0  0  0  0  0  0  0  0  0  0  0
  150.7413  141.3211  156.0022 C   0  0  0  0  0  0  0  0  0  0  0  0
  151.3722  142.2616  156.8399 N   0  0  0  0  0  0  0  0  0  0  0  0
  151.8450  141.9155  158.1709 C   0  0  0  0  0  0  0  0  0  0  0  0
  152.3635  143.2318  158.7480 C   0  0  0  0  0  0  0  0  0  0  0  0
  151.4471  144.2757  158.1091 C   0  0  0  0  0  0  0  0  0  0  0  0
  151.1140  143.6906  156.7314 C   0  0  0  0  0  0  0  0  0  0  0  0
  149.5017  141.6246  155.5489 N   0  0  0  0  0  0  0  0  0  0  0  0
  148.8647  140.7407  154.7529 C   0  0  0  0  0  0  0  0  0  0  0  0
  145.8992  135.1047  150.9818 C   0  0  0  0  0  0  0  0  0  0  0  0
  145.4607  133.6353  150.8245 C   0  0  0  0  0  0  0  0  0  0  0  0
  144.0437  133.5631  150.7302 O   0  0  0  0  0  0  0  0  0  0  0  0
  143.3858  134.0564  151.8907 C   0  0  0  0  0  0  0  0  0  0  0  0
  143.7294  135.5443  152.0967 C   0  0  0  0  0  0  0  0  0  0  0  0
  147.0981  133.8886  154.3822 H   0  0  0  0  0  0  0  0  0  0  0  0
  147.0765  133.9362  152.6319 H   0  0  0  0  0  0  0  0  0  0  0  0
  145.3889  137.6839  151.1403 H   0  0  0  0  0  0  0  0  0  0  0  0
  144.8621  137.8701  152.7809 H   0  0  0  0  0  0  0  0  0  0  0  0
  147.6723  137.1664  152.0272 H   0  0  0  0  0  0  0  0  0  0  0  0
  149.1697  138.1017  152.8697 H   0  0  0  0  0  0  0  0  0  0  0  0
  151.2102  138.2689  154.5612 H   0  0  0  0  0  0  0  0  0  0  0  0
  152.3676  139.8639  156.0267 H   0  0  0  0  0  0  0  0  0  0  0  0
  151.0126  141.5349  158.7644 H   0  0  0  0  0  0  0  0  0  0  0  0
  152.6248  141.1540  158.1384 H   0  0  0  0  0  0  0  0  0  0  0  0
  152.3453  143.2544  159.8379 H   0  0  0  0  0  0  0  0  0  0  0  0
  153.3916  143.3977  158.4231 H   0  0  0  0  0  0  0  0  0  0  0  0
  150.5333  144.3650  158.6980 H   0  0  0  0  0  0  0  0  0  0  0  0
  151.9044  145.2635  158.0493 H   0  0  0  0  0  0  0  0  0  0  0  0
  151.7665  144.1093  155.9646 H   0  0  0  0  0  0  0  0  0  0  0  0
  150.0801  143.9024  156.4570 H   0  0  0  0  0  0  0  0  0  0  0  0
  147.8804  141.0331  154.4170 H   0  0  0  0  0  0  0  0  0  0  0  0
  145.6034  135.6412  150.0789 H   0  0  0  0  0  0  0  0  0  0  0  0
  146.9876  135.1704  151.0069 H   0  0  0  0  0  0  0  0  0  0  0  0
  145.8902  133.2153  149.9149 H   0  0  0  0  0  0  0  0  0  0  0  0
  145.8134  133.0174  151.6511 H   0  0  0  0  0  0  0  0  0  0  0  0
  142.3103  133.9398  151.7556 H   0  0  0  0  0  0  0  0  0  0  0  0
  143.6586  133.4579  152.7609 H   0  0  0  0  0  0  0  0  0  0  0  0
  143.1934  135.9189  152.9696 H   0  0  0  0  0  0  0  0  0  0  0  0
  143.3378  136.1097  151.2498 H   0  0  0  0  0  0  0  0  0  0  0  0
  1  2  1  0  0  0  0
  1 26  1  0  0  0  0
  1 27  1  0  0  0  0
  2  3  2  0  0  0  0
  2  4  1  0  0  0  0
  4 25  1  0  0  0  0
  4  5  1  0  0  0  0
  4 21  1  0  0  0  0
  5  6  1  0  0  0  0
  5 28  1  0  0  0  0
  5 29  1  0  0  0  0
  6  7  1  0  0  0  0
  6 30  1  0  0  0  0
  7  8  2  0  0  0  0
  7  9  1  0  0  0  0
  9 10  1  0  0  0  0
  9 31  1  0  0  0  0
 10 20  1  0  0  0  0
 10 11  2  0  0  0  0
 11 12  1  0  0  0  0
 11 32  1  0  0  0  0
 12 13  2  0  0  0  0
 12 33  1  0  0  0  0
 13 14  1  0  0  0  0
 13 19  1  0  0  0  0
 14 18  1  0  0  0  0
 14 15  1  0  0  0  0
 15 16  1  0  0  0  0
 15 34  1  0  0  0  0
 15 35  1  0  0  0  0
 16 17  1  0  0  0  0
 16 36  1  0  0  0  0
 16 37  1  0  0  0  0
 17 18  1  0  0  0  0
 17 38  1  0  0  0  0
 17 39  1  0  0  0  0
 18 40  1  0  0  0  0
 18 41  1  0  0  0  0
 19 20  2  0  0  0  0
 20 42  1  0  0  0  0
 21 22  1  0  0  0  0
 21 43  1  0  0  0  0
 21 44  1  0  0  0  0
 22 23  1  0  0  0  0
 22 45  1  0  0  0  0
 22 46  1  0  0  0  0
 23 24  1  0  0  0  0
 24 25  1  0  0  0  0
 24 47  1  0  0  0  0
 24 48  1  0  0  0  0
 25 49  1  0  0  0  0
 25 50  1  0  0  0  0
M  END
> <s_m_source_file>
AV-unprocessed.smi

> <i_m_source_file_index>
1067

> <i_lp_mmshare_version>
43012

> <i_f3d_flags>
0

> <s_epik_input>
W0NIMl0xW0NIMl1PW0NIMl1bQ0gyXUMxKEMoPU8pW05IMl0pW0NIMl1bTkhdQyg9TylbTkhdYzJbY0hdW2NIXWMobltjSF0yKU4zW0NIMl1bQ0gyXVtDSDJdW0NIMl0z

> <s_epik_cmdline>
J2VwaWtfcHl0aG9uJywgJy1waCcsICc3LjAnLCAnLXRuJywgJzgnLCAnLW1hJywgJzIwMCcsICctbWV0YWxfYmluZGluZycsICctaW1hZScsICc8aW5maWxlLm1hZT4nLCAnLW9tYWUnLCAnPG91dGZpbGUubWFlPic=

> <r_lp_tautomer_probability>
1

> <r_epik_Ionization_Penalty>
0.0944962

> <r_epik_Ionization_Penalty_Charging>
0

> <r_epik_Ionization_Penalty_Neutral>
0.0944962

> <r_epik_State_Penalty>
0.0841646

> <r_epik_Charging_Adjusted_Penalty>
0.0841646

> <i_epik_Tot_Q>
0

> <i_epik_Tot_abs_Q>
0

> <r_epik_Metal_State_Penalty>
0.0725577

> <b_epik_Metal_Only>
0

> <s_lp_Force_Field>
OPLS_2005

> <r_lp_Energy>
34.2759

> <b_lp_Chiralities_Consistent>
1

> <s_lp_Variant>
AV-unprocessed.smi:1067-1

> <Gold.Version>
5.8.1

> <Gold.Id.Protein>
6NUR|6NUR_protein|mol2

> <Gold.PLP.Fitness>
44.5437

> <Gold.PLP.PLP>
-41.4656

> <Gold.PLP.part.hbond>
-3.0000

> <Gold.PLP.part.metal>
0.0000

> <Gold.PLP.part.buried>
-2.0749

> <Gold.PLP.part.nonpolar>
-37.3321

> <Gold.PLP.part.repulsive>
0.6182

> <Gold.PLP.ligand.clash>
0.0000

> <Gold.PLP.ligand.torsion>
1.0278

> <Gold.PLP.Chemscore.Hbond>
1.6497

> <Gold.PLP.Chemscore.CHOScore>
0.0000

> <Gold.PLP.Chemscore.Metal>
0.0000

> <Gold.Chemscore.Hbonds>
donor molecule, donor type, donor heavy atom, donor atom, acceptor molecule, acceptor atom, score
      L1  H     6    30       P1  7948  1.00
      L1  H     9    31       P1  7948  0.65

> <Gold.PLP.Chemscore.Internal.Correction>
0.1845

> <Gold.Rescore>
     Score         DG    S(hbond)    S(metal)    S(lipo)     H(rot)  DE(clash)    DE(int)     intcor
     15.33     -18.98       1.82        0.00     103.00       1.81       1.29       2.35       ----

> <Gold.Chemscore.Fitness>
15.3322

> <Gold.Chemscore.DG>
-18.9762

> <Gold.Chemscore.ZeroCoef>
-5.4800

> <Gold.Chemscore.Hbond>
1.8182

> <Gold.Chemscore.Metal>
0.0000

> <Gold.Chemscore.Lipo>
102.9966

> <Gold.Chemscore.Internal_Hbond>
0.0000

> <Gold.Chemscore.DEClash>
1.2917

> <Gold.Chemscore.DEInternal>
2.3523

> <Gold.Chemscore.Rot>
1.8075

> <Gold.Chemscore.Internal.Correction>
   9.000000E+99

> <Gold.Chemscore.Hbonds>
donor molecule, donor type, donor heavy atom, donor atom, acceptor molecule, acceptor atom, score
      L1  H     6    30       P1  7948  0.97
      L1  H     9    31       P1  7948  0.61

> <Gold.Chemscore.Hbond.Weighted>
-6.0728

> <Gold.Chemscore.Metal.Weighted>
-0.0000

> <Gold.Chemscore.Lipo.Weighted>
-12.0506

> <Gold.Chemscore.Internal_Hbond.Weighted>
0.0000

> <Gold.Chemscore.DEClash.Weighted>
1.2917

> <Gold.Chemscore.DEInternal.Weighted>
2.3523

> <Gold.Chemscore.Rot.Weighted>
4.6272

> <Gold.Chemscore.Internal.Correction.Weighted>
   9.000000E+99

> <Gold.Protein.RotatedTorsions>
[ 6907 6896 6895 6894 ] final   57.49 input  -60.11 | X-H torsion
[ 7974 7965 7964 7962 ] final    6.55 input  175.53 | X-H torsion
[ 8008 7997 7996 7995 ] final  -21.63 input   59.86 | X-H torsion
[ 10167 10162 10161 10158 ] final  158.83 input  -65.29 | X-H torsion
[ 10718 10713 10712 10709 ] final   56.98 input   66.30 | X-H torsion
[ 10763 10752 10751 10750 ] final -178.61 input  -60.55 | X-H torsion
[ 11005 11000 10999 10996 ] final -169.19 input  -57.11 | X-H torsion

> <Gold.Protein.ActiveResidues>
 VAL166  LYS551  ARG553  GLY616  TRP617  ASP618  TYR619  PRO620  LYS621  CYS622 
 ASP623  PHE694  ASN695  SER759  ASP760  ASP761  ALA762  ILE779  LEU786  VAL792 
 PHE793  MET794  SER795  GLU796  ALA797  LYS798  CYS799  TRP800  GLU811  SER814 

> <Gold.Protein.RotatedAtoms>
  152.3736  134.6697  160.0167 H   0  0  0  0  0  0  0  0  0  0  0  0  # atno 6907 bound_to 6896
  151.6982  133.3305  159.3268 H   0  0  0  0  0  0  0  0  0  0  0  0  # atno 6908 bound_to 6896
  150.7692  134.6574  159.6365 H   0  0  0  0  0  0  0  0  0  0  0  0  # atno 6909 bound_to 6896
  146.2434  140.0217  142.8397 H   0  0  0  0  0  0  0  0  0  0  0  0  # atno 7974 bound_to 7965
  154.4694  140.2029  156.0034 H   0  0  0  0  0  0  0  0  0  0  0  0  # atno 8008 bound_to 7997
  156.0984  140.3247  155.7879 H   0  0  0  0  0  0  0  0  0  0  0  0  # atno 8009 bound_to 7997
  155.4839  140.0541  157.2954 H   0  0  0  0  0  0  0  0  0  0  0  0  # atno 8010 bound_to 7997
  139.4829  144.4788  151.8474 H   0  0  0  0  0  0  0  0  0  0  0  0  # atno 10167 bound_to 10162
  157.5476  130.8742  149.8914 H   0  0  0  0  0  0  0  0  0  0  0  0  # atno 10718 bound_to 10713
  154.5455  135.2809  155.1056 H   0  0  0  0  0  0  0  0  0  0  0  0  # atno 10763 bound_to 10752
  154.2522  135.6337  153.5248 H   0  0  0  0  0  0  0  0  0  0  0  0  # atno 10764 bound_to 10752
  152.9989  135.5585  154.6006 H   0  0  0  0  0  0  0  0  0  0  0  0  # atno 10765 bound_to 10752
  140.5335  134.5593  157.5081 H   0  0  0  0  0  0  0  0  0  0  0  0  # atno 11005 bound_to 11000
  145.1235  140.9476  143.4586 LP  0  0  0  0  0  0  0  0  0  0  0  0  # atno 17320 bound_to 7965
  145.0458  139.3222  143.5954 LP  0  0  0  0  0  0  0  0  0  0  0  0  # atno 17321 bound_to 7965
  140.4262  144.2177  150.5887 LP  0  0  0  0  0  0  0  0  0  0  0  0  # atno 17342 bound_to 10162
  140.4825  143.2374  151.8935 LP  0  0  0  0  0  0  0  0  0  0  0  0  # atno 17343 bound_to 10162
  156.0549  130.3710  150.1115 LP  0  0  0  0  0  0  0  0  0  0  0  0  # atno 17370 bound_to 10713
  156.9290  130.9707  151.3536 LP  0  0  0  0  0  0  0  0  0  0  0  0  # atno 17371 bound_to 10713
  139.9542  134.7565  156.0380 LP  0  0  0  0  0  0  0  0  0  0  0  0  # atno 17394 bound_to 11000
  141.1268  133.6597  156.3358 LP  0  0  0  0  0  0  0  0  0  0  0  0  # atno 17395 bound_to 11000

$$$$
