AV-unprocessed.smi:1994|AV-procd|sdf|8073|dock9
  -GOLD-   2272010283D 1   1.00000     0.00000
 Structure written by MMmdl.
 39 41  0  0  0  0  0  0  0  0  1 V2000
  155.9429  139.4412  162.5682 C   0  0  0  0  0  0  0  0  0  0  0  0
  154.9702  140.4770  162.1010 C   0  0  0  0  0  0  0  0  0  0  0  0
  154.5708  141.4802  162.8834 N   0  0  0  0  0  0  0  0  0  0  0  0
  153.6936  142.1695  162.0684 C   0  0  0  0  0  0  0  0  0  0  0  0
  152.9328  143.3351  162.3143 C   0  0  0  0  0  0  0  0  0  0  0  0
  152.0911  143.8628  161.3131 C   0  0  0  0  0  0  0  0  0  0  0  0
  151.9982  143.2346  160.0542 C   0  0  0  0  0  0  0  0  0  0  0  0
  152.7475  142.0723  159.7883 C   0  0  0  0  0  0  0  0  0  0  0  0
  153.5859  141.5497  160.7910 C   0  0  0  0  0  0  0  0  0  0  0  0
  154.4361  140.4506  160.8547 N   0  0  0  0  0  0  0  0  0  0  0  0
  154.6768  139.4885  159.7882 C   0  0  0  0  0  0  0  0  0  0  0  0
  153.8041  138.2246  159.9271 C   0  0  1  0  0  0  0  0  0  0  0  0
  153.8255  137.7186  161.2472 O   0  0  0  0  0  0  0  0  0  0  0  0
  152.3466  138.4300  159.4823 C   0  0  0  0  0  0  0  0  0  0  0  0
  152.2994  138.7332  158.0935 O   0  0  0  0  0  0  0  0  0  0  0  0
  151.4209  139.7046  157.6629 C   0  0  0  0  0  0  0  0  0  0  0  0
  150.5457  140.4218  158.5181 C   0  0  0  0  0  0  0  0  0  0  0  0
  149.6761  141.3977  157.9930 C   0  0  0  0  0  0  0  0  0  0  0  0
  149.6697  141.6700  156.6126 C   0  0  0  0  0  0  0  0  0  0  0  0
  150.5354  140.9645  155.7567 C   0  0  0  0  0  0  0  0  0  0  0  0
  151.4050  139.9882  156.2802 C   0  0  0  0  0  0  0  0  0  0  0  0
  152.2325  139.3153  155.4450 F   0  0  0  0  0  0  0  0  0  0  0  0
  156.3261  139.6943  163.5574 H   0  0  0  0  0  0  0  0  0  0  0  0
  156.7868  139.3737  161.8818 H   0  0  0  0  0  0  0  0  0  0  0  0
  155.4557  138.4678  162.6269 H   0  0  0  0  0  0  0  0  0  0  0  0
  152.9966  143.8232  163.2756 H   0  0  0  0  0  0  0  0  0  0  0  0
  151.5140  144.7540  161.5120 H   0  0  0  0  0  0  0  0  0  0  0  0
  151.3509  143.6452  159.2932 H   0  0  0  0  0  0  0  0  0  0  0  0
  152.6792  141.5878  158.8256 H   0  0  0  0  0  0  0  0  0  0  0  0
  154.5145  139.9682  158.8230 H   0  0  0  0  0  0  0  0  0  0  0  0
  155.7319  139.2135  159.8145 H   0  0  0  0  0  0  0  0  0  0  0  0
  154.2293  137.4403  159.2998 H   0  0  0  0  0  0  0  0  0  0  0  0
  153.1616  138.1638  161.7509 H   0  0  0  0  0  0  0  0  0  0  0  0
  151.7955  137.5058  159.6630 H   0  0  0  0  0  0  0  0  0  0  0  0
  151.8759  139.2181  160.0725 H   0  0  0  0  0  0  0  0  0  0  0  0
  150.5207  140.2416  159.5819 H   0  0  0  0  0  0  0  0  0  0  0  0
  149.0122  141.9380  158.6519 H   0  0  0  0  0  0  0  0  0  0  0  0
  149.0022  142.4179  156.2110 H   0  0  0  0  0  0  0  0  0  0  0  0
  150.5322  141.1712  154.6965 H   0  0  0  0  0  0  0  0  0  0  0  0
  1  2  1  0  0  0  0
  1 23  1  0  0  0  0
  1 24  1  0  0  0  0
  1 25  1  0  0  0  0
  2 10  1  0  0  0  0
  2  3  2  0  0  0  0
  3  4  1  0  0  0  0
  4  9  2  0  0  0  0
  4  5  1  0  0  0  0
  5  6  2  0  0  0  0
  5 26  1  0  0  0  0
  6  7  1  0  0  0  0
  6 27  1  0  0  0  0
  7  8  2  0  0  0  0
  7 28  1  0  0  0  0
  8  9  1  0  0  0  0
  8 29  1  0  0  0  0
  9 10  1  0  0  0  0
 10 11  1  0  0  0  0
 11 12  1  0  0  0  0
 11 30  1  0  0  0  0
 11 31  1  0  0  0  0
 12 13  1  0  0  0  0
 12 14  1  0  0  0  0
 12 32  1  0  0  0  0
 13 33  1  0  0  0  0
 14 15  1  0  0  0  0
 14 34  1  0  0  0  0
 14 35  1  0  0  0  0
 15 16  1  0  0  0  0
 16 21  1  0  0  0  0
 16 17  2  0  0  0  0
 17 18  1  0  0  0  0
 17 36  1  0  0  0  0
 18 19  2  0  0  0  0
 18 37  1  0  0  0  0
 19 20  1  0  0  0  0
 19 38  1  0  0  0  0
 20 21  2  0  0  0  0
 20 39  1  0  0  0  0
 21 22  1  0  0  0  0
M  END
> <s_m_source_file>
AV-unprocessed.smi

> <i_m_source_file_index>
1994

> <i_lp_mmshare_version>
43012

> <i_f3d_flags>
0

> <s_epik_input>
W2NIXTFbY0hdW2NIXVtjSF1jKGMxMiluKGMobjIpW0NIM10pW0NIMl1bQ0BIXShbT0hdKVtDSDJdT2MzW2NIXVtjSF1bY0hdW2NIXWMzRg==

> <s_epik_cmdline>
J2VwaWtfcHl0aG9uJywgJy1waCcsICc3LjAnLCAnLXRuJywgJzgnLCAnLW1hJywgJzIwMCcsICctbWV0YWxfYmluZGluZycsICctaW1hZScsICc8aW5maWxlLm1hZT4nLCAnLW9tYWUnLCAnPG91dGZpbGUubWFlPic=

> <r_lp_tautomer_probability>
1

> <r_epik_Ionization_Penalty>
0.112614

> <r_epik_Ionization_Penalty_Charging>
0

> <r_epik_Ionization_Penalty_Neutral>
0.112614

> <r_epik_State_Penalty>
0.10231

> <r_epik_Charging_Adjusted_Penalty>
0.10231

> <i_epik_Tot_Q>
0

> <i_epik_Tot_abs_Q>
0

> <r_epik_Metal_State_Penalty>
0.000111664

> <b_epik_Metal_Only>
0

> <s_lp_Force_Field>
OPLS_2005

> <r_lp_Energy>
17.3721

> <b_lp_Chiralities_Consistent>
1

> <s_lp_Variant>
AV-unprocessed.smi:1994-2

> <Gold.Version>
5.8.1

> <Gold.Id.Protein>
6NUR|6NUR_protein|mol2

> <Gold.PLP.Fitness>
46.5955

> <Gold.PLP.PLP>
-48.0965

> <Gold.PLP.part.hbond>
-1.0000

> <Gold.PLP.part.metal>
0.0000

> <Gold.PLP.part.buried>
-3.2993

> <Gold.PLP.part.nonpolar>
-41.7511

> <Gold.PLP.part.repulsive>
0.0000

> <Gold.PLP.ligand.clash>
0.0000

> <Gold.PLP.ligand.torsion>
0.7620

> <Gold.PLP.Chemscore.Hbond>
0.0000

> <Gold.PLP.Chemscore.CHOScore>
0.0000

> <Gold.PLP.Chemscore.Metal>
0.0000

> <Gold.PLP.Chemscore.Internal.Correction>
0.0229

> <Gold.Rescore>
     Score         DG    S(hbond)    S(metal)    S(lipo)     H(rot)  DE(clash)    DE(int)     intcor
     11.67     -13.46       0.00        0.00     116.13       2.19       0.07       1.73       ----

> <Gold.Chemscore.Fitness>
11.6703

> <Gold.Chemscore.DG>
-13.4644

> <Gold.Chemscore.ZeroCoef>
-5.4800

> <Gold.Chemscore.Hbond>
0.0000

> <Gold.Chemscore.Metal>
0.0000

> <Gold.Chemscore.Lipo>
116.1300

> <Gold.Chemscore.Internal_Hbond>
0.0000

> <Gold.Chemscore.DEClash>
0.0677

> <Gold.Chemscore.DEInternal>
1.7263

> <Gold.Chemscore.Rot>
2.1886

> <Gold.Chemscore.Internal.Correction>
   9.000000E+99

> <Gold.Chemscore.Hbond.Weighted>
-0.0000

> <Gold.Chemscore.Metal.Weighted>
-0.0000

> <Gold.Chemscore.Lipo.Weighted>
-13.5872

> <Gold.Chemscore.Internal_Hbond.Weighted>
0.0000

> <Gold.Chemscore.DEClash.Weighted>
0.0677

> <Gold.Chemscore.DEInternal.Weighted>
1.7263

> <Gold.Chemscore.Rot.Weighted>
5.6028

> <Gold.Chemscore.Internal.Correction.Weighted>
   9.000000E+99

> <Gold.Protein.RotatedTorsions>
[ 6907 6896 6895 6894 ] final   69.99 input  -60.11 | X-H torsion
[ 7974 7965 7964 7962 ] final  -11.67 input  175.53 | X-H torsion
[ 8008 7997 7996 7995 ] final   31.85 input   59.86 | X-H torsion
[ 10167 10162 10161 10158 ] final  -30.09 input  -65.29 | X-H torsion
[ 10718 10713 10712 10709 ] final  130.76 input   66.30 | X-H torsion
[ 10763 10752 10751 10750 ] final  -24.49 input  -60.55 | X-H torsion
[ 11005 11000 10999 10996 ] final   28.92 input  -57.11 | X-H torsion

> <Gold.Protein.ActiveResidues>
 VAL166  LYS551  ARG553  GLY616  TRP617  ASP618  TYR619  PRO620  LYS621  CYS622 
 ASP623  PHE694  ASN695  SER759  ASP760  ASP761  ALA762  ILE779  LEU786  VAL792 
 PHE793  MET794  SER795  GLU796  ALA797  LYS798  CYS799  TRP800  GLU811  SER814 

> <Gold.Protein.RotatedAtoms>
  152.4721  134.4934  159.9702 H   0  0  0  0  0  0  0  0  0  0  0  0  # atno 6907 bound_to 6896
  151.4958  133.3509  159.2869 H   0  0  0  0  0  0  0  0  0  0  0  0  # atno 6908 bound_to 6896
  150.8737  134.8144  159.7236 H   0  0  0  0  0  0  0  0  0  0  0  0  # atno 6909 bound_to 6896
  146.2179  140.2944  142.8370 H   0  0  0  0  0  0  0  0  0  0  0  0  # atno 7974 bound_to 7965
  155.1130  140.3241  155.4517 H   0  0  0  0  0  0  0  0  0  0  0  0  # atno 8008 bound_to 7997
  156.2685  140.2041  156.6202 H   0  0  0  0  0  0  0  0  0  0  0  0  # atno 8009 bound_to 7997
  154.6741  140.0533  157.0184 H   0  0  0  0  0  0  0  0  0  0  0  0  # atno 8010 bound_to 7997
  140.7253  143.3876  151.1487 H   0  0  0  0  0  0  0  0  0  0  0  0  # atno 10167 bound_to 10162
  157.5031  131.1095  150.9399 H   0  0  0  0  0  0  0  0  0  0  0  0  # atno 10718 bound_to 10713
  153.6847  135.6965  153.5107 H   0  0  0  0  0  0  0  0  0  0  0  0  # atno 10763 bound_to 10752
  153.2458  135.4291  155.0745 H   0  0  0  0  0  0  0  0  0  0  0  0  # atno 10764 bound_to 10752
  154.8390  135.3519  154.6389 H   0  0  0  0  0  0  0  0  0  0  0  0  # atno 10765 bound_to 10752
  140.3105  134.2655  155.7735 H   0  0  0  0  0  0  0  0  0  0  0  0  # atno 11005 bound_to 11000
  144.9103  140.7749  143.5812 LP  0  0  0  0  0  0  0  0  0  0  0  0  # atno 17320 bound_to 7965
  145.2875  139.1896  143.4758 LP  0  0  0  0  0  0  0  0  0  0  0  0  # atno 17321 bound_to 7965
  139.7476  143.8829  152.3068 LP  0  0  0  0  0  0  0  0  0  0  0  0  # atno 17342 bound_to 10162
  139.8671  144.7087  150.9031 LP  0  0  0  0  0  0  0  0  0  0  0  0  # atno 17343 bound_to 10162
  157.0063  130.5619  149.5316 LP  0  0  0  0  0  0  0  0  0  0  0  0  # atno 17370 bound_to 10713
  156.0241  130.5336  150.8359 LP  0  0  0  0  0  0  0  0  0  0  0  0  # atno 17371 bound_to 10713
  141.2109  133.7705  156.9900 LP  0  0  0  0  0  0  0  0  0  0  0  0  # atno 17394 bound_to 11000
  140.1029  134.9524  157.1950 LP  0  0  0  0  0  0  0  0  0  0  0  0  # atno 17395 bound_to 11000

$$$$
