AV-unprocessed.smi:3115|AV-procd|sdf|11859|dock5
  -GOLD-   2272017243D 1   1.00000     0.00000
 Structure written by MMmdl.
 33 34  0  0  0  0  0  0  0  0  2 V2000
  153.1007  142.0728  161.1765 C   0  0  0  0  0  0  0  0  0  0  0  0
  152.9764  142.5268  159.7185 C   0  0  1  0  0  0  0  0  0  0  0  0
  151.8053  141.8353  158.9937 C   0  0  0  0  0  0  0  0  0  0  0  0
  151.6700  142.3629  157.6414 N   0  0  0  0  0  0  0  0  0  0  0  0
  150.6994  141.6996  156.8773 C   0  0  0  0  0  0  0  0  0  0  0  0
  151.1143  140.7477  155.9218 C   0  0  0  0  0  0  0  0  0  0  0  0
  150.1339  140.0783  155.1612 C   0  0  0  0  0  0  0  0  0  0  0  0
  150.5293  139.0516  154.1205 C   0  0  0  0  0  0  0  0  0  0  0  0
  149.3526  138.6068  153.3569 N   0  3  0  0  0  0  0  0  0  0  0  0
  148.7771  140.3898  155.3819 C   0  0  0  0  0  0  0  0  0  0  0  0
  148.4619  141.3569  156.3562 C   0  0  0  0  0  0  0  0  0  0  0  0
  149.3955  142.0001  157.0888 N   0  0  0  0  0  0  0  0  0  0  0  0
  151.5315  143.8136  157.6233 C   0  0  0  0  0  0  0  0  0  0  0  0
  152.7020  144.4627  158.3812 C   0  0  0  0  0  0  0  0  0  0  0  0
  152.7644  143.9369  159.7041 O   0  0  0  0  0  0  0  0  0  0  0  0
  153.2747  140.9984  161.2395 H   0  0  0  0  0  0  0  0  0  0  0  0
  152.1943  142.2990  161.7385 H   0  0  0  0  0  0  0  0  0  0  0  0
  153.9333  142.5737  161.6709 H   0  0  0  0  0  0  0  0  0  0  0  0
  153.9121  142.3013  159.2034 H   0  0  0  0  0  0  0  0  0  0  0  0
  151.9725  140.7582  158.9518 H   0  0  0  0  0  0  0  0  0  0  0  0
  150.8787  141.9971  159.5470 H   0  0  0  0  0  0  0  0  0  0  0  0
  152.1642  140.5352  155.7802 H   0  0  0  0  0  0  0  0  0  0  0  0
  151.2657  139.4748  153.4366 H   0  0  0  0  0  0  0  0  0  0  0  0
  150.9935  138.1913  154.6041 H   0  0  0  0  0  0  0  0  0  0  0  0
  149.5166  137.6801  152.9906 H   0  0  0  0  0  0  0  0  0  0  0  0
  149.1863  139.2478  152.5943 H   0  0  0  0  0  0  0  0  0  0  0  0
  147.9933  139.9024  154.8207 H   0  0  0  0  0  0  0  0  0  0  0  0
  147.4331  141.6213  156.5515 H   0  0  0  0  0  0  0  0  0  0  0  0
  151.5082  144.1703  156.5928 H   0  0  0  0  0  0  0  0  0  0  0  0
  150.5867  144.1008  158.0872 H   0  0  0  0  0  0  0  0  0  0  0  0
  153.6468  144.2877  157.8642 H   0  0  0  0  0  0  0  0  0  0  0  0
  152.5626  145.5425  158.4341 H   0  0  0  0  0  0  0  0  0  0  0  0
  148.5460  138.5922  153.9644 H   0  0  0  0  0  0  0  0  0  0  0  0
  1  2  1  0  0  0  0
  1 16  1  0  0  0  0
  1 17  1  0  0  0  0
  1 18  1  0  0  0  0
  2 15  1  0  0  0  0
  2  3  1  0  0  0  0
  2 19  1  0  0  0  0
  3  4  1  0  0  0  0
  3 20  1  0  0  0  0
  3 21  1  0  0  0  0
  4  5  1  0  0  0  0
  4 13  1  0  0  0  0
  5 12  1  0  0  0  0
  5  6  2  0  0  0  0
  6  7  1  0  0  0  0
  6 22  1  0  0  0  0
  7  8  1  0  0  0  0
  7 10  2  0  0  0  0
  8  9  1  0  0  0  0
  8 23  1  0  0  0  0
  8 24  1  0  0  0  0
  9 25  1  0  0  0  0
  9 26  1  0  0  0  0
  9 33  1  0  0  0  0
 10 11  1  0  0  0  0
 10 27  1  0  0  0  0
 11 12  2  0  0  0  0
 11 28  1  0  0  0  0
 13 14  1  0  0  0  0
 13 29  1  0  0  0  0
 13 30  1  0  0  0  0
 14 15  1  0  0  0  0
 14 31  1  0  0  0  0
 14 32  1  0  0  0  0
M  CHG  1   9   1
M  END
> <s_m_source_file>
AV-unprocessed.smi

> <i_m_source_file_index>
3115

> <i_lp_mmshare_version>
43012

> <i_f3d_flags>
0

> <s_epik_input>
W0NIM11bQ0BASF0xW0NIMl1OKFtDSDJdW0NIMl1PMSljMltjSF1jKFtDSDJdW05IMl0pW2NIXVtjSF1uMg==

> <s_epik_cmdline>
J2VwaWtfcHl0aG9uJywgJy1waCcsICc3LjAnLCAnLXRuJywgJzgnLCAnLW1hJywgJzIwMCcsICctbWV0YWxfYmluZGluZycsICctaW1hZScsICc8aW5maWxlLm1hZT4nLCAnLW9tYWUnLCAnPG91dGZpbGUubWFlPic=

> <r_lp_tautomer_probability>
1

> <r_epik_Ionization_Penalty>
0.0768907

> <r_epik_Ionization_Penalty_Charging>
0.0768864

> <r_epik_Ionization_Penalty_Neutral>
4.339e-06

> <r_epik_State_Penalty>
0.0093217

> <r_epik_Charging_Adjusted_Penalty>
0.0862081

> <i_epik_Tot_Q>
1

> <i_epik_Tot_abs_Q>
1

> <r_epik_Metal_State_Penalty>
0.0096683

> <b_epik_Metal_Only>
0

> <s_lp_Force_Field>
OPLS_2005

> <r_lp_Energy>
14.3897

> <b_lp_Chiralities_Consistent>
1

> <s_lp_Variant>
AV-unprocessed.smi:3115-2

> <Gold.Version>
5.8.1

> <Gold.Id.Protein>
6NUR|6NUR_protein|mol2

> <Gold.PLP.Fitness>
42.2559

> <Gold.PLP.PLP>
-33.8612

> <Gold.PLP.part.hbond>
-2.0000

> <Gold.PLP.part.metal>
0.0000

> <Gold.PLP.part.buried>
-3.3033

> <Gold.PLP.part.nonpolar>
-28.7280

> <Gold.PLP.part.repulsive>
0.4807

> <Gold.PLP.ligand.clash>
0.0000

> <Gold.PLP.ligand.torsion>
0.3518

> <Gold.PLP.Chemscore.Hbond>
3.0000

> <Gold.PLP.Chemscore.CHOScore>
0.0000

> <Gold.PLP.Chemscore.Metal>
0.0000

> <Gold.Chemscore.Hbonds>
donor molecule, donor type, donor heavy atom, donor atom, acceptor molecule, acceptor atom, score
      L1  H     9    25       P1  7948  1.98
      L1  H     9    26       P1  7957  1.00

> <Gold.PLP.Chemscore.Internal.Correction>
0.0983

> <Gold.Rescore>
     Score         DG    S(hbond)    S(metal)    S(lipo)     H(rot)  DE(clash)    DE(int)     intcor
     18.16     -18.61       1.97        0.00      84.41       1.30       0.02       0.42       ----

> <Gold.Chemscore.Fitness>
18.1646

> <Gold.Chemscore.DG>
-18.6051

> <Gold.Chemscore.ZeroCoef>
-5.4800

> <Gold.Chemscore.Hbond>
1.9725

> <Gold.Chemscore.Metal>
0.0000

> <Gold.Chemscore.Lipo>
84.4142

> <Gold.Chemscore.Internal_Hbond>
0.0000

> <Gold.Chemscore.DEClash>
0.0234

> <Gold.Chemscore.DEInternal>
0.4170

> <Gold.Chemscore.Rot>
1.3045

> <Gold.Chemscore.Internal.Correction>
   9.000000E+99

> <Gold.Chemscore.Hbonds>
donor molecule, donor type, donor heavy atom, donor atom, acceptor molecule, acceptor atom, score
      L1  H     9    25       P1  7948  0.77
      L1  H     9    26       P1  7957  0.97

> <Gold.Chemscore.Hbond.Weighted>
-6.5881

> <Gold.Chemscore.Metal.Weighted>
-0.0000

> <Gold.Chemscore.Lipo.Weighted>
-9.8765

> <Gold.Chemscore.Internal_Hbond.Weighted>
0.0000

> <Gold.Chemscore.DEClash.Weighted>
0.0234

> <Gold.Chemscore.DEInternal.Weighted>
0.4170

> <Gold.Chemscore.Rot.Weighted>
3.3395

> <Gold.Chemscore.Internal.Correction.Weighted>
   9.000000E+99

> <Gold.Protein.RotatedTorsions>
[ 6907 6896 6895 6894 ] final   -2.64 input  -60.11 | X-H torsion
[ 7974 7965 7964 7962 ] final   45.88 input  175.53 | X-H torsion
[ 8008 7997 7996 7995 ] final -111.14 input   59.86 | X-H torsion
[ 10167 10162 10161 10158 ] final -137.33 input  -65.29 | X-H torsion
[ 10718 10713 10712 10709 ] final   39.38 input   66.30 | X-H torsion
[ 10763 10752 10751 10750 ] final   42.86 input  -60.55 | X-H torsion
[ 11005 11000 10999 10996 ] final  167.17 input  -57.11 | X-H torsion

> <Gold.Protein.ActiveResidues>
 VAL166  LYS551  ARG553  GLY616  TRP617  ASP618  TYR619  PRO620  LYS621  CYS622 
 ASP623  PHE694  ASN695  SER759  ASP760  ASP761  ALA762  ILE779  LEU786  VAL792 
 PHE793  MET794  SER795  GLU796  ALA797  LYS798  CYS799  TRP800  GLU811  SER814 

> <Gold.Protein.RotatedAtoms>
  151.5267  135.1068  159.9891 H   0  0  0  0  0  0  0  0  0  0  0  0  # atno 6907 bound_to 6896
  152.4596  133.7791  159.6851 H   0  0  0  0  0  0  0  0  0  0  0  0  # atno 6908 bound_to 6896
  150.8553  133.7659  159.3036 H   0  0  0  0  0  0  0  0  0  0  0  0  # atno 6909 bound_to 6896
  146.0440  139.4916  142.9760 H   0  0  0  0  0  0  0  0  0  0  0  0  # atno 7974 bound_to 7965
  154.9852  140.0396  157.2295 H   0  0  0  0  0  0  0  0  0  0  0  0  # atno 8008 bound_to 7997
  154.7678  140.2796  155.6140 H   0  0  0  0  0  0  0  0  0  0  0  0  # atno 8009 bound_to 7997
  156.2915  140.2616  156.2473 H   0  0  0  0  0  0  0  0  0  0  0  0  # atno 8010 bound_to 7997
  139.8588  143.7103  152.2652 H   0  0  0  0  0  0  0  0  0  0  0  0  # atno 10167 bound_to 10162
  157.3699  130.7695  149.7111 H   0  0  0  0  0  0  0  0  0  0  0  0  # atno 10718 bound_to 10713
  152.9873  135.6119  154.3018 H   0  0  0  0  0  0  0  0  0  0  0  0  # atno 10763 bound_to 10752
  154.2739  135.2779  155.2728 H   0  0  0  0  0  0  0  0  0  0  0  0  # atno 10764 bound_to 10752
  154.5098  135.5844  153.6653 H   0  0  0  0  0  0  0  0  0  0  0  0  # atno 10765 bound_to 10752
  140.2740  134.7803  157.3701 H   0  0  0  0  0  0  0  0  0  0  0  0  # atno 11005 bound_to 11000
  145.6837  141.0184  143.1593 LP  0  0  0  0  0  0  0  0  0  0  0  0  # atno 17320 bound_to 7965
  144.7088  139.8451  143.7421 LP  0  0  0  0  0  0  0  0  0  0  0  0  # atno 17321 bound_to 7965
  139.7393  144.7563  151.0677 LP  0  0  0  0  0  0  0  0  0  0  0  0  # atno 17342 bound_to 10162
  140.7778  143.4991  150.9794 LP  0  0  0  0  0  0  0  0  0  0  0  0  # atno 17343 bound_to 10162
  155.9753  130.4090  150.3857 LP  0  0  0  0  0  0  0  0  0  0  0  0  # atno 17370 bound_to 10713
  157.1946  131.0423  151.2682 LP  0  0  0  0  0  0  0  0  0  0  0  0  # atno 17371 bound_to 10713
  140.1346  134.5051  155.8079 LP  0  0  0  0  0  0  0  0  0  0  0  0  # atno 17394 bound_to 11000
  141.2173  133.6802  156.7100 LP  0  0  0  0  0  0  0  0  0  0  0  0  # atno 17395 bound_to 11000

$$$$
