AV-unprocessed.smi:2355|AV-procd|sdf|9385|dock7
  -GOLD-   2272013 13D 1   1.00000     0.00000
 Structure written by MMmdl.
 48 49  0  0  0  0  0  0  0  0  1 V2000
  153.7607  141.1638  160.0696 C   0  0  0  0  0  0  0  0  0  0  0  0
  152.8436  142.2389  159.5256 C   0  0  0  0  0  0  0  0  0  0  0  0
  152.8226  143.5273  160.0931 C   0  0  0  0  0  0  0  0  0  0  0  0
  151.9463  144.4823  159.5411 C   0  0  0  0  0  0  0  0  0  0  0  0
  151.8685  145.8858  160.1038 C   0  0  0  0  0  0  0  0  0  0  0  0
  151.1313  144.2181  158.4977 N   0  0  0  0  0  0  0  0  0  0  0  0
  151.1441  142.9811  157.9420 C   0  0  0  0  0  0  0  0  0  0  0  0
  150.3312  142.6035  156.8403 N   0  0  0  0  0  0  0  0  0  0  0  0
  149.9240  141.3702  156.4925 C   0  0  0  0  0  0  0  0  0  0  0  0
  150.2246  140.3296  157.0787 O   0  0  0  0  0  0  0  0  0  0  0  0
  149.1317  141.4113  155.4113 N   0  0  0  0  0  0  0  0  0  0  0  0
  148.4742  140.2623  154.7883 C   0  0  2  0  0  0  0  0  0  0  0  0
  149.5343  139.2555  154.3062 C   0  0  0  0  0  0  0  0  0  0  0  0
  147.4727  140.7315  153.6863 C   0  0  2  0  0  0  0  0  0  0  0  0
  146.7774  142.0448  154.1302 C   0  0  0  0  0  0  0  0  0  0  0  0
  146.5022  139.6845  153.2758 N   0  0  0  0  0  0  0  0  0  0  0  0
  147.0168  138.8269  152.2018 C   0  0  0  0  0  0  0  0  0  0  0  0
  146.0220  137.7306  151.7820 C   0  0  0  0  0  0  0  0  0  0  0  0
  145.6715  136.9428  152.9110 O   0  0  0  0  0  0  0  0  0  0  0  0
  145.0931  137.7248  153.9463 C   0  0  0  0  0  0  0  0  0  0  0  0
  146.0824  138.8181  154.3846 C   0  0  0  0  0  0  0  0  0  0  0  0
  151.9921  141.9647  158.4363 C   0  0  0  0  0  0  0  0  0  0  0  0
  154.3692  141.5395  160.8929 H   0  0  0  0  0  0  0  0  0  0  0  0
  154.4300  140.8068  159.2865 H   0  0  0  0  0  0  0  0  0  0  0  0
  153.1762  140.3190  160.4349 H   0  0  0  0  0  0  0  0  0  0  0  0
  153.4597  143.7771  160.9288 H   0  0  0  0  0  0  0  0  0  0  0  0
  152.6299  146.0489  160.8672 H   0  0  0  0  0  0  0  0  0  0  0  0
  150.8909  146.0578  160.5548 H   0  0  0  0  0  0  0  0  0  0  0  0
  152.0166  146.6222  159.3132 H   0  0  0  0  0  0  0  0  0  0  0  0
  150.0081  143.3627  156.2594 H   0  0  0  0  0  0  0  0  0  0  0  0
  148.9406  142.3132  155.0004 H   0  0  0  0  0  0  0  0  0  0  0  0
  147.9146  139.7034  155.5368 H   0  0  0  0  0  0  0  0  0  0  0  0
  149.0760  138.4351  153.7535 H   0  0  0  0  0  0  0  0  0  0  0  0
  150.0632  138.8209  155.1552 H   0  0  0  0  0  0  0  0  0  0  0  0
  150.2874  139.7165  153.6678 H   0  0  0  0  0  0  0  0  0  0  0  0
  148.0749  140.9804  152.8110 H   0  0  0  0  0  0  0  0  0  0  0  0
  147.4889  142.8003  154.4575 H   0  0  0  0  0  0  0  0  0  0  0  0
  146.0777  141.8722  154.9484 H   0  0  0  0  0  0  0  0  0  0  0  0
  146.2299  142.5172  153.3162 H   0  0  0  0  0  0  0  0  0  0  0  0
  147.2348  139.4135  151.3116 H   0  0  0  0  0  0  0  0  0  0  0  0
  147.9539  138.3643  152.5151 H   0  0  0  0  0  0  0  0  0  0  0  0
  145.1259  138.1699  151.3412 H   0  0  0  0  0  0  0  0  0  0  0  0
  146.4678  137.0860  151.0244 H   0  0  0  0  0  0  0  0  0  0  0  0
  144.1574  138.1672  153.6008 H   0  0  0  0  0  0  0  0  0  0  0  0
  144.8485  137.0764  154.7878 H   0  0  0  0  0  0  0  0  0  0  0  0
  146.9562  138.3557  154.8461 H   0  0  0  0  0  0  0  0  0  0  0  0
  145.5810  139.3956  155.1584 H   0  0  0  0  0  0  0  0  0  0  0  0
  151.9927  140.9828  157.9851 H   0  0  0  0  0  0  0  0  0  0  0  0
  1  2  1  0  0  0  0
  1 23  1  0  0  0  0
  1 24  1  0  0  0  0
  1 25  1  0  0  0  0
  2 22  1  0  0  0  0
  2  3  2  0  0  0  0
  3  4  1  0  0  0  0
  3 26  1  0  0  0  0
  4  5  1  0  0  0  0
  4  6  2  0  0  0  0
  5 27  1  0  0  0  0
  5 28  1  0  0  0  0
  5 29  1  0  0  0  0
  6  7  1  0  0  0  0
  7  8  1  0  0  0  0
  7 22  2  0  0  0  0
  8  9  1  0  0  0  0
  8 30  1  0  0  0  0
  9 10  2  0  0  0  0
  9 11  1  0  0  0  0
 11 12  1  0  0  0  0
 11 31  1  0  0  0  0
 12 13  1  0  0  0  0
 12 14  1  0  0  0  0
 12 32  1  0  0  0  0
 13 33  1  0  0  0  0
 13 34  1  0  0  0  0
 13 35  1  0  0  0  0
 14 15  1  0  0  0  0
 14 16  1  0  0  0  0
 14 36  1  0  0  0  0
 15 37  1  0  0  0  0
 15 38  1  0  0  0  0
 15 39  1  0  0  0  0
 16 21  1  0  0  0  0
 16 17  1  0  0  0  0
 17 18  1  0  0  0  0
 17 40  1  0  0  0  0
 17 41  1  0  0  0  0
 18 19  1  0  0  0  0
 18 42  1  0  0  0  0
 18 43  1  0  0  0  0
 19 20  1  0  0  0  0
 20 21  1  0  0  0  0
 20 44  1  0  0  0  0
 20 45  1  0  0  0  0
 21 46  1  0  0  0  0
 21 47  1  0  0  0  0
 22 48  1  0  0  0  0
M  END
> <s_m_source_file>
AV-unprocessed.smi

> <i_m_source_file_index>
2355

> <i_lp_mmshare_version>
43012

> <i_f3d_flags>
0

> <s_epik_input>
W0NIM11jMVtjSF1jKFtDSDNdKW5jKFtjSF0xKVtOSF1DKD1PKVtOSF1bQ0BIXShbQ0gzXSlbQ0BIXShbQ0gzXSlOMltDSDJdW0NIMl1PW0NIMl1bQ0gyXTI=

> <s_epik_cmdline>
J2VwaWtfcHl0aG9uJywgJy1waCcsICc3LjAnLCAnLXRuJywgJzgnLCAnLW1hJywgJzIwMCcsICctbWV0YWxfYmluZGluZycsICctaW1hZScsICc8aW5maWxlLm1hZT4nLCAnLW9tYWUnLCAnPG91dGZpbGUubWFlPic=

> <r_epik_Ionization_Penalty>
0.266238

> <r_epik_Ionization_Penalty_Charging>
0

> <r_epik_Ionization_Penalty_Neutral>
0.266238

> <r_epik_State_Penalty>
0.257924

> <r_epik_Charging_Adjusted_Penalty>
0.257924

> <i_epik_Tot_Q>
0

> <i_epik_Tot_abs_Q>
0

> <r_epik_Metal_State_Penalty>
0.257904

> <b_epik_Metal_Only>
0

> <s_lp_Force_Field>
OPLS_2005

> <r_lp_Energy>
36.7742

> <b_lp_Chiralities_Consistent>
1

> <s_lp_Variant>
AV-unprocessed.smi:2355-1

> <Gold.Version>
5.8.1

> <Gold.Id.Protein>
6NUR|6NUR_protein|mol2

> <Gold.PLP.Fitness>
43.1868

> <Gold.PLP.PLP>
-42.4245

> <Gold.PLP.part.hbond>
-1.1400

> <Gold.PLP.part.metal>
0.0000

> <Gold.PLP.part.buried>
-1.7854

> <Gold.PLP.part.nonpolar>
-41.8325

> <Gold.PLP.part.repulsive>
1.2252

> <Gold.PLP.ligand.clash>
0.0000

> <Gold.PLP.ligand.torsion>
1.1657

> <Gold.PLP.Chemscore.Hbond>
1.0000

> <Gold.PLP.Chemscore.CHOScore>
0.0000

> <Gold.PLP.Chemscore.Metal>
0.0000

> <Gold.Chemscore.Hbonds>
donor molecule, donor type, donor heavy atom, donor atom, acceptor molecule, acceptor atom, score
      L1  H     8    30       P1  8028  1.00

> <Gold.PLP.Chemscore.Internal.Correction>
0.0937

> <Gold.Rescore>
     Score         DG    S(hbond)    S(metal)    S(lipo)     H(rot)  DE(clash)    DE(int)     intcor
     15.31     -17.93       0.99        0.00     108.67       1.40       0.15       2.46       ----

> <Gold.Chemscore.Fitness>
15.3122

> <Gold.Chemscore.DG>
-17.9289

> <Gold.Chemscore.ZeroCoef>
-5.4800

> <Gold.Chemscore.Hbond>
0.9947

> <Gold.Chemscore.Metal>
0.0000

> <Gold.Chemscore.Lipo>
108.6691

> <Gold.Chemscore.Internal_Hbond>
0.0000

> <Gold.Chemscore.DEClash>
0.1527

> <Gold.Chemscore.DEInternal>
2.4640

> <Gold.Chemscore.Rot>
1.4015

> <Gold.Chemscore.Internal.Correction>
   9.000000E+99

> <Gold.Chemscore.Hbonds>
donor molecule, donor type, donor heavy atom, donor atom, acceptor molecule, acceptor atom, score
      L1  H     8    30       P1  8028  0.99
      L1  H    11    31       P1  8028  0.02

> <Gold.Chemscore.Hbond.Weighted>
-3.3224

> <Gold.Chemscore.Metal.Weighted>
-0.0000

> <Gold.Chemscore.Lipo.Weighted>
-12.7143

> <Gold.Chemscore.Internal_Hbond.Weighted>
0.0000

> <Gold.Chemscore.DEClash.Weighted>
0.1527

> <Gold.Chemscore.DEInternal.Weighted>
2.4640

> <Gold.Chemscore.Rot.Weighted>
3.5878

> <Gold.Chemscore.Internal.Correction.Weighted>
   9.000000E+99

> <Gold.Protein.RotatedTorsions>
[ 6907 6896 6895 6894 ] final -172.98 input  -60.11 | X-H torsion
[ 7974 7965 7964 7962 ] final  -87.51 input  175.53 | X-H torsion
[ 8008 7997 7996 7995 ] final   47.13 input   59.86 | X-H torsion
[ 10167 10162 10161 10158 ] final   14.61 input  -65.29 | X-H torsion
[ 10718 10713 10712 10709 ] final  -70.40 input   66.30 | X-H torsion
[ 10763 10752 10751 10750 ] final -142.29 input  -60.55 | X-H torsion
[ 11005 11000 10999 10996 ] final  -16.33 input  -57.11 | X-H torsion

> <Gold.Protein.ActiveResidues>
 VAL166  LYS551  ARG553  GLY616  TRP617  ASP618  TYR619  PRO620  LYS621  CYS622 
 ASP623  PHE694  ASN695  SER759  ASP760  ASP761  ALA762  ILE779  LEU786  VAL792 
 PHE793  MET794  SER795  GLU796  ALA797  LYS798  CYS799  TRP800  GLU811  SER814 

> <Gold.Protein.RotatedAtoms>
  151.5488  133.3421  159.2948 H   0  0  0  0  0  0  0  0  0  0  0  0  # atno 6907 bound_to 6896
  150.8491  134.7813  159.7005 H   0  0  0  0  0  0  0  0  0  0  0  0  # atno 6908 bound_to 6896
  152.4542  134.5336  159.9870 H   0  0  0  0  0  0  0  0  0  0  0  0  # atno 6909 bound_to 6896
  145.4656  140.9560  143.1945 H   0  0  0  0  0  0  0  0  0  0  0  0  # atno 7974 bound_to 7965
  155.3639  140.3420  155.4241 H   0  0  0  0  0  0  0  0  0  0  0  0  # atno 8008 bound_to 7997
  156.1699  140.1628  156.8501 H   0  0  0  0  0  0  0  0  0  0  0  0  # atno 8009 bound_to 7997
  154.5222  140.0764  156.8175 H   0  0  0  0  0  0  0  0  0  0  0  0  # atno 8010 bound_to 7997
  140.5923  143.8770  150.6885 H   0  0  0  0  0  0  0  0  0  0  0  0  # atno 10167 bound_to 10162
  156.0410  130.4331  150.2290 H   0  0  0  0  0  0  0  0  0  0  0  0  # atno 10718 bound_to 10713
  154.8514  135.3500  154.6004 H   0  0  0  0  0  0  0  0  0  0  0  0  # atno 10763 bound_to 10752
  153.6612  135.6989  153.5181 H   0  0  0  0  0  0  0  0  0  0  0  0  # atno 10764 bound_to 10752
  153.2816  135.4262  155.1041 H   0  0  0  0  0  0  0  0  0  0  0  0  # atno 10765 bound_to 10752
  140.8056  133.8180  155.9513 H   0  0  0  0  0  0  0  0  0  0  0  0  # atno 11005 bound_to 11000
  144.7976  139.6204  143.7086 LP  0  0  0  0  0  0  0  0  0  0  0  0  # atno 17320 bound_to 7965
  146.2426  139.6032  142.9481 LP  0  0  0  0  0  0  0  0  0  0  0  0  # atno 17321 bound_to 7965
  140.2296  143.3746  152.1577 LP  0  0  0  0  0  0  0  0  0  0  0  0  # atno 17342 bound_to 10162
  139.5236  144.7073  151.5315 LP  0  0  0  0  0  0  0  0  0  0  0  0  # atno 17343 bound_to 10162
  157.0385  131.0028  151.3291 LP  0  0  0  0  0  0  0  0  0  0  0  0  # atno 17370 bound_to 10713
  157.5227  130.8008  149.7827 LP  0  0  0  0  0  0  0  0  0  0  0  0  # atno 17371 bound_to 10713
  140.9250  134.2094  157.4902 LP  0  0  0  0  0  0  0  0  0  0  0  0  # atno 17394 bound_to 11000
  139.8718  134.9808  156.5092 LP  0  0  0  0  0  0  0  0  0  0  0  0  # atno 17395 bound_to 11000

$$$$
