AV-unprocessed.smi:1978|AV-procd|sdf|8013|dock5
  -GOLD-   2272010203D 1   1.00000     0.00000
 Structure written by MMmdl.
 44 45  0  0  0  0  0  0  0  0  3 V2000
  153.2317  142.4993  160.6354 C   0  0  0  0  0  0  0  0  0  0  0  0
  152.5872  141.9002  159.4328 C   0  0  0  0  0  0  0  0  0  0  0  0
  151.3943  142.1268  158.8063 C   0  0  0  0  0  0  0  0  0  0  0  0
  151.4235  141.2126  157.7196 C   0  0  0  0  0  0  0  0  0  0  0  0
  150.3390  141.1399  156.8059 N   0  0  0  0  0  0  0  0  0  0  0  0
  150.3227  140.6398  155.5571 C   0  0  0  0  0  0  0  0  0  0  0  0
  151.3515  140.1668  155.0596 O   0  0  0  0  0  0  0  0  0  0  0  0
  149.0916  140.7284  154.9818 N   0  5  0  0  0  0  0  0  0  0  0  0
  147.8313  140.8442  155.7176 C   0  0  0  0  0  0  0  0  0  0  0  0
  146.6354  141.1317  154.7476 C   0  0  1  0  0  0  0  0  0  0  0  0
  146.8517  142.3935  153.8762 C   0  0  0  0  0  0  0  0  0  0  0  0
  146.2000  139.9668  153.8912 N   0  3  1  0  0  0  0  0  0  0  0  0
  147.1649  139.5619  152.8195 C   0  0  0  0  0  0  0  0  0  0  0  0
  146.5011  138.6450  151.7836 C   0  0  0  0  0  0  0  0  0  0  0  0
  145.9259  137.4005  152.4619 C   0  0  0  0  0  0  0  0  0  0  0  0
  144.9522  137.8217  153.5667 C   0  0  0  0  0  0  0  0  0  0  0  0
  145.6087  138.7721  154.5923 C   0  0  2  0  0  0  0  0  0  0  0  0
  144.5611  139.1327  155.6664 C   0  0  0  0  0  0  0  0  0  0  0  0
  152.5325  140.4884  157.6908 N   0  0  0  0  0  0  0  0  0  0  0  0
  153.2837  140.9255  158.7881 O   0  0  0  0  0  0  0  0  0  0  0  0
  152.6555  143.3478  161.0049 H   0  0  0  0  0  0  0  0  0  0  0  0
  154.2367  142.8500  160.4003 H   0  0  0  0  0  0  0  0  0  0  0  0
  153.3076  141.7658  161.4380 H   0  0  0  0  0  0  0  0  0  0  0  0
  150.6269  142.8356  159.0796 H   0  0  0  0  0  0  0  0  0  0  0  0
  149.4638  141.5170  157.1378 H   0  0  0  0  0  0  0  0  0  0  0  0
  147.6178  139.9360  156.2816 H   0  0  0  0  0  0  0  0  0  0  0  0
  147.8820  141.6356  156.4660 H   0  0  0  0  0  0  0  0  0  0  0  0
  145.7757  141.3945  155.3605 H   0  0  0  0  0  0  0  0  0  0  0  0
  146.9085  143.2994  154.4827 H   0  0  0  0  0  0  0  0  0  0  0  0
  146.0167  142.5343  153.1891 H   0  0  0  0  0  0  0  0  0  0  0  0
  147.7630  142.3534  153.2780 H   0  0  0  0  0  0  0  0  0  0  0  0
  147.5573  140.4328  152.2975 H   0  0  0  0  0  0  0  0  0  0  0  0
  148.0213  139.0471  153.2576 H   0  0  0  0  0  0  0  0  0  0  0  0
  145.7088  139.1858  151.2639 H   0  0  0  0  0  0  0  0  0  0  0  0
  147.2274  138.3522  151.0246 H   0  0  0  0  0  0  0  0  0  0  0  0
  145.4172  136.7725  151.7298 H   0  0  0  0  0  0  0  0  0  0  0  0
  146.7323  136.8003  152.8856 H   0  0  0  0  0  0  0  0  0  0  0  0
  144.0858  138.3094  153.1172 H   0  0  0  0  0  0  0  0  0  0  0  0
  144.5753  136.9305  154.0701 H   0  0  0  0  0  0  0  0  0  0  0  0
  146.4157  138.2247  155.0818 H   0  0  0  0  0  0  0  0  0  0  0  0
  144.0650  138.2375  156.0422 H   0  0  0  0  0  0  0  0  0  0  0  0
  143.7898  139.7921  155.2674 H   0  0  0  0  0  0  0  0  0  0  0  0
  145.0097  139.6157  156.5337 H   0  0  0  0  0  0  0  0  0  0  0  0
  145.4164  140.3500  153.3830 H   0  0  0  0  0  0  0  0  0  0  0  0
  1  2  1  0  0  0  0
  1 21  1  0  0  0  0
  1 22  1  0  0  0  0
  1 23  1  0  0  0  0
  2 20  1  0  0  0  0
  2  3  2  0  0  0  0
  3  4  1  0  0  0  0
  3 24  1  0  0  0  0
  4  5  1  0  0  0  0
  4 19  2  0  0  0  0
  5  6  1  0  0  0  0
  5 25  1  0  0  0  0
  6  7  2  0  0  0  0
  6  8  1  0  0  0  0
  8  9  1  0  0  0  0
  9 10  1  0  0  0  0
  9 26  1  0  0  0  0
  9 27  1  0  0  0  0
 10 11  1  0  0  0  0
 10 12  1  0  0  0  0
 10 28  1  0  0  0  0
 11 29  1  0  0  0  0
 11 30  1  0  0  0  0
 11 31  1  0  0  0  0
 12 17  1  0  0  0  0
 12 13  1  0  0  0  0
 12 44  1  0  0  0  0
 13 14  1  0  0  0  0
 13 32  1  0  0  0  0
 13 33  1  0  0  0  0
 14 15  1  0  0  0  0
 14 34  1  0  0  0  0
 14 35  1  0  0  0  0
 15 16  1  0  0  0  0
 15 36  1  0  0  0  0
 15 37  1  0  0  0  0
 16 17  1  0  0  0  0
 16 38  1  0  0  0  0
 16 39  1  0  0  0  0
 17 18  1  0  0  0  0
 17 40  1  0  0  0  0
 18 41  1  0  0  0  0
 18 42  1  0  0  0  0
 18 43  1  0  0  0  0
 19 20  1  0  0  0  0
M  CHG  1   8  -1
M  CHG  1  12   1
M  END
> <s_m_source_file>
AV-unprocessed.smi

> <i_m_source_file_index>
1978

> <i_lp_mmshare_version>
43012

> <i_f3d_flags>
0

> <s_epik_input>
W0NIM11jMVtjSF1jKG5vMSlbTkhdQyg9TylbTkhdW0NIMl1bQ0BIXShbQ0gzXSlOMltDSDJdW0NIMl1bQ0gyXVtDSDJdW0NASF0yW0NIM10=

> <s_epik_cmdline>
J2VwaWtfcHl0aG9uJywgJy1waCcsICc3LjAnLCAnLXRuJywgJzgnLCAnLW1hJywgJzIwMCcsICctbWV0YWxfYmluZGluZycsICctaW1hZScsICc8aW5maWxlLm1hZT4nLCAnLW9tYWUnLCAnPG91dGZpbGUubWFlPic=

> <r_epik_Ionization_Penalty>
6.7666

> <r_epik_Ionization_Penalty_Charging>
6.7666

> <r_epik_Ionization_Penalty_Neutral>
5.77131e-06

> <r_epik_State_Penalty>
6.79217

> <r_epik_Charging_Adjusted_Penalty>
13.5588

> <i_epik_Tot_Q>
0

> <i_epik_Tot_abs_Q>
2

> <r_epik_Metal_State_Penalty>
2.72569

> <b_epik_Metal_Only>
1

> <s_lp_Force_Field>
OPLS_2005

> <r_lp_Energy>
22.3243

> <b_lp_Chiralities_Consistent>
1

> <s_lp_Variant>
AV-unprocessed.smi:1978-22

> <Gold.Version>
5.8.1

> <Gold.Id.Protein>
6NUR|6NUR_protein|mol2

> <Gold.PLP.Fitness>
40.9933

> <Gold.PLP.PLP>
-31.6973

> <Gold.PLP.part.hbond>
-3.6311

> <Gold.PLP.part.metal>
0.0000

> <Gold.PLP.part.buried>
-1.5135

> <Gold.PLP.part.nonpolar>
-27.3685

> <Gold.PLP.part.repulsive>
0.1717

> <Gold.PLP.ligand.clash>
0.0135

> <Gold.PLP.ligand.torsion>
0.3620

> <Gold.PLP.Chemscore.Hbond>
3.2574

> <Gold.PLP.Chemscore.CHOScore>
0.0000

> <Gold.PLP.Chemscore.Metal>
0.0000

> <Gold.Chemscore.Hbonds>
donor molecule, donor type, donor heavy atom, donor atom, acceptor molecule, acceptor atom, score
      L1  H    12    44       P1 10175  2.00
      P1  H  7989  7998       L1     7  1.00
      P1  H  7997  8009       L1    19  0.23

> <Gold.PLP.Chemscore.Internal.Correction>
0.2614

> <Gold.Rescore>
     Score         DG    S(hbond)    S(metal)    S(lipo)     H(rot)  DE(clash)    DE(int)     intcor
     15.00     -16.58       1.92        0.00      73.19       1.52       0.09       1.49       ----

> <Gold.Chemscore.Fitness>
14.9986

> <Gold.Chemscore.DG>
-16.5822

> <Gold.Chemscore.ZeroCoef>
-5.4800

> <Gold.Chemscore.Hbond>
1.9245

> <Gold.Chemscore.Metal>
0.0000

> <Gold.Chemscore.Lipo>
73.1872

> <Gold.Chemscore.Internal_Hbond>
0.0000

> <Gold.Chemscore.DEClash>
0.0913

> <Gold.Chemscore.DEInternal>
1.4924

> <Gold.Chemscore.Rot>
1.5190

> <Gold.Chemscore.Internal.Correction>
   9.000000E+99

> <Gold.Chemscore.Hbonds>
donor molecule, donor type, donor heavy atom, donor atom, acceptor molecule, acceptor atom, score
      L1  H    12    44       P1 10175  0.98
      P1  H  7989  7998       L1     7  0.73
      P1  H  7997  8009       L1    19  0.01

> <Gold.Chemscore.Hbond.Weighted>
-6.4279

> <Gold.Chemscore.Metal.Weighted>
-0.0000

> <Gold.Chemscore.Lipo.Weighted>
-8.5629

> <Gold.Chemscore.Internal_Hbond.Weighted>
0.0000

> <Gold.Chemscore.DEClash.Weighted>
0.0913

> <Gold.Chemscore.DEInternal.Weighted>
1.4924

> <Gold.Chemscore.Rot.Weighted>
3.8886

> <Gold.Chemscore.Internal.Correction.Weighted>
   9.000000E+99

> <Gold.Protein.RotatedTorsions>
[ 6907 6896 6895 6894 ] final    3.25 input  -60.11 | X-H torsion
[ 7974 7965 7964 7962 ] final  147.52 input  175.53 | X-H torsion
[ 8008 7997 7996 7995 ] final -179.41 input   59.86 | X-H torsion
[ 10167 10162 10161 10158 ] final -145.36 input  -65.29 | X-H torsion
[ 10718 10713 10712 10709 ] final -104.82 input   66.30 | X-H torsion
[ 10763 10752 10751 10750 ] final -143.70 input  -60.55 | X-H torsion
[ 11005 11000 10999 10996 ] final  -15.74 input  -57.11 | X-H torsion

> <Gold.Protein.ActiveResidues>
 VAL166  LYS551  ARG553  GLY616  TRP617  ASP618  TYR619  PRO620  LYS621  CYS622 
 ASP623  PHE694  ASN695  SER759  ASP760  ASP761  ALA762  ILE779  LEU786  VAL792 
 PHE793  MET794  SER795  GLU796  ALA797  LYS798  CYS799  TRP800  GLU811  SER814 

> <Gold.Protein.RotatedAtoms>
  151.6221  135.1031  160.0103 H   0  0  0  0  0  0  0  0  0  0  0  0  # atno 6907 bound_to 6896
  152.4152  133.7023  159.6441 H   0  0  0  0  0  0  0  0  0  0  0  0  # atno 6908 bound_to 6896
  150.8040  133.8470  159.3235 H   0  0  0  0  0  0  0  0  0  0  0  0  # atno 6909 bound_to 6896
  144.8585  139.6039  143.5941 H   0  0  0  0  0  0  0  0  0  0  0  0  # atno 7974 bound_to 7965
  156.0302  140.1280  157.0266 H   0  0  0  0  0  0  0  0  0  0  0  0  # atno 8008 bound_to 7997
  154.4347  140.1051  156.6159 H   0  0  0  0  0  0  0  0  0  0  0  0  # atno 8009 bound_to 7997
  155.5818  140.3468  155.4544 H   0  0  0  0  0  0  0  0  0  0  0  0  # atno 8010 bound_to 7997
  139.7813  143.8097  152.2639 H   0  0  0  0  0  0  0  0  0  0  0  0  # atno 10167 bound_to 10162
  156.0320  130.5533  150.7451 H   0  0  0  0  0  0  0  0  0  0  0  0  # atno 10718 bound_to 10713
  154.8459  135.3461  154.6228 H   0  0  0  0  0  0  0  0  0  0  0  0  # atno 10763 bound_to 10752
  153.6837  135.6978  153.5115 H   0  0  0  0  0  0  0  0  0  0  0  0  # atno 10764 bound_to 10752
  153.2648  135.4311  155.0886 H   0  0  0  0  0  0  0  0  0  0  0  0  # atno 10765 bound_to 10752
  140.7997  133.8224  155.9458 H   0  0  0  0  0  0  0  0  0  0  0  0  # atno 11005 bound_to 11000
  146.2842  139.6958  142.9207 LP  0  0  0  0  0  0  0  0  0  0  0  0  # atno 17320 bound_to 7965
  145.4359  141.0419  143.2885 LP  0  0  0  0  0  0  0  0  0  0  0  0  # atno 17321 bound_to 7965
  139.8160  144.7316  150.9634 LP  0  0  0  0  0  0  0  0  0  0  0  0  # atno 17342 bound_to 10162
  140.7818  143.4204  151.0850 LP  0  0  0  0  0  0  0  0  0  0  0  0  # atno 17343 bound_to 10162
  157.5009  131.0918  151.0315 LP  0  0  0  0  0  0  0  0  0  0  0  0  # atno 17370 bound_to 10713
  157.0696  130.5858  149.5400 LP  0  0  0  0  0  0  0  0  0  0  0  0  # atno 17371 bound_to 10713
  140.9307  134.2025  157.4865 LP  0  0  0  0  0  0  0  0  0  0  0  0  # atno 17394 bound_to 11000
  139.8723  134.9831  156.5186 LP  0  0  0  0  0  0  0  0  0  0  0  0  # atno 17395 bound_to 11000

$$$$
