AV-unprocessed.smi:34|AV-procd|sdf|223|dock3
  -GOLD-   2262015543D 1   1.00000     0.00000
 Structure written by MMmdl.
 55 59  0  0  0  0  0  0  0  0  1 V2000
  152.8037  140.3110  159.2039 O   0  0  0  0  0  0  0  0  0  0  0  0
  152.2910  141.2422  158.5826 C   0  0  0  0  0  0  0  0  0  0  0  0
  151.8292  141.0969  157.2131 N   0  0  0  0  0  0  0  0  0  0  0  0
  151.8159  139.9802  156.4478 C   0  0  0  0  0  0  0  0  0  0  0  0
  152.6294  139.8240  155.3708 N   0  0  0  0  0  0  0  0  0  0  0  0
  152.5748  138.7045  154.6442 C   0  0  0  0  0  0  0  0  0  0  0  0
  151.7937  137.6367  154.8170 N   0  0  0  0  0  0  0  0  0  0  0  0
  150.9732  137.7817  155.8971 C   0  0  0  0  0  0  0  0  0  0  0  0
  150.9271  138.9168  156.7551 C   0  0  0  0  0  0  0  0  0  0  0  0
  149.9757  138.7199  157.7466 N   0  0  0  0  0  0  0  0  0  0  0  0
  149.4890  137.5370  157.4858 C   0  0  0  0  0  0  0  0  0  0  0  0
  150.0267  136.9015  156.3882 N   0  0  0  0  0  0  0  0  0  0  0  0
  149.6469  135.5498  155.8583 C   0  0  2  0  0  0  0  0  0  0  0  0
  148.7333  134.9383  156.7225 O   0  0  0  0  0  0  0  0  0  0  0  0
  149.2949  133.7421  157.2560 C   0  0  1  0  0  0  0  0  0  0  0  0
  148.1987  132.7275  157.6035 C   0  0  0  0  0  0  0  0  0  0  0  0
  147.5332  133.1409  158.7862 O   0  0  0  0  0  0  0  0  0  0  0  0
  146.9717  134.3639  158.8524 C   0  0  0  0  0  0  0  0  0  0  0  0
  146.5146  134.9585  157.8742 O   0  0  0  0  0  0  0  0  0  0  0  0
  146.9575  134.9230  160.2351 C   0  0  0  0  0  0  0  0  0  0  0  0
  146.7797  136.3144  160.4176 C   0  0  0  0  0  0  0  0  0  0  0  0
  146.7629  136.8721  161.7108 C   0  0  0  0  0  0  0  0  0  0  0  0
  146.9250  136.0456  162.8377 C   0  0  0  0  0  0  0  0  0  0  0  0
  147.1032  134.6600  162.6697 C   0  0  0  0  0  0  0  0  0  0  0  0
  147.1188  134.1001  161.3772 C   0  0  0  0  0  0  0  0  0  0  0  0
  150.2905  133.2856  156.1888 C   0  0  1  0  0  0  0  0  0  0  0  0
  149.6607  132.6700  155.1856 F   0  0  0  0  0  0  0  0  0  0  0  0
  150.8550  134.6038  155.6932 C   0  0  2  0  0  0  0  0  0  0  0  0
  152.0011  134.9761  156.4390 O   0  0  0  0  0  0  0  0  0  0  0  0
  152.1826  142.6184  159.1725 C   0  0  0  0  0  0  0  0  0  0  0  0
  152.1174  143.7470  158.3247 C   0  0  0  0  0  0  0  0  0  0  0  0
  152.0309  145.0435  158.8681 C   0  0  0  0  0  0  0  0  0  0  0  0
  152.0171  145.2234  160.2639 C   0  0  0  0  0  0  0  0  0  0  0  0
  152.0935  144.1059  161.1162 C   0  0  0  0  0  0  0  0  0  0  0  0
  152.1796  142.8085  160.5741 C   0  0  0  0  0  0  0  0  0  0  0  0
  151.4596  141.9316  156.7821 H   0  0  0  0  0  0  0  0  0  0  0  0
  153.2525  138.6583  153.8045 H   0  0  0  0  0  0  0  0  0  0  0  0
  148.7113  137.0931  158.0902 H   0  0  0  0  0  0  0  0  0  0  0  0
  149.1447  135.7593  154.9129 H   0  0  0  0  0  0  0  0  0  0  0  0
  149.8435  134.0007  158.1620 H   0  0  0  0  0  0  0  0  0  0  0  0
  147.4728  132.6724  156.7913 H   0  0  0  0  0  0  0  0  0  0  0  0
  148.6253  131.7311  157.7265 H   0  0  0  0  0  0  0  0  0  0  0  0
  146.6525  136.9689  159.5673 H   0  0  0  0  0  0  0  0  0  0  0  0
  146.6252  137.9357  161.8374 H   0  0  0  0  0  0  0  0  0  0  0  0
  146.9125  136.4739  163.8290 H   0  0  0  0  0  0  0  0  0  0  0  0
  147.2283  134.0240  163.5337 H   0  0  0  0  0  0  0  0  0  0  0  0
  147.2588  133.0331  161.2839 H   0  0  0  0  0  0  0  0  0  0  0  0
  151.0459  132.5960  156.5680 H   0  0  0  0  0  0  0  0  0  0  0  0
  151.1383  134.5558  154.6412 H   0  0  0  0  0  0  0  0  0  0  0  0
  151.7162  135.3505  157.2587 H   0  0  0  0  0  0  0  0  0  0  0  0
  152.1285  143.6264  157.2510 H   0  0  0  0  0  0  0  0  0  0  0  0
  151.9763  145.9003  158.2129 H   0  0  0  0  0  0  0  0  0  0  0  0
  151.9517  146.2179  160.6799 H   0  0  0  0  0  0  0  0  0  0  0  0
  152.0893  144.2434  162.1876 H   0  0  0  0  0  0  0  0  0  0  0  0
  152.2469  141.9660  161.2470 H   0  0  0  0  0  0  0  0  0  0  0  0
  1  2  2  0  0  0  0
  2  3  1  0  0  0  0
  2 30  1  0  0  0  0
  3  4  1  0  0  0  0
  3 36  1  0  0  0  0
  4  9  1  0  0  0  0
  4  5  2  0  0  0  0
  5  6  1  0  0  0  0
  6  7  2  0  0  0  0
  6 37  1  0  0  0  0
  7  8  1  0  0  0  0
  8 12  1  0  0  0  0
  8  9  2  0  0  0  0
  9 10  1  0  0  0  0
 10 11  2  0  0  0  0
 11 12  1  0  0  0  0
 11 38  1  0  0  0  0
 12 13  1  0  0  0  0
 13 28  1  0  0  0  0
 13 14  1  0  0  0  0
 13 39  1  0  0  0  0
 14 15  1  0  0  0  0
 15 16  1  0  0  0  0
 15 26  1  0  0  0  0
 15 40  1  0  0  0  0
 16 17  1  0  0  0  0
 16 41  1  0  0  0  0
 16 42  1  0  0  0  0
 17 18  1  0  0  0  0
 18 19  2  0  0  0  0
 18 20  1  0  0  0  0
 20 25  1  0  0  0  0
 20 21  2  0  0  0  0
 21 22  1  0  0  0  0
 21 43  1  0  0  0  0
 22 23  2  0  0  0  0
 22 44  1  0  0  0  0
 23 24  1  0  0  0  0
 23 45  1  0  0  0  0
 24 25  2  0  0  0  0
 24 46  1  0  0  0  0
 25 47  1  0  0  0  0
 26 27  1  0  0  0  0
 26 28  1  0  0  0  0
 26 48  1  0  0  0  0
 28 29  1  0  0  0  0
 28 49  1  0  0  0  0
 29 50  1  0  0  0  0
 30 35  1  0  0  0  0
 30 31  2  0  0  0  0
 31 32  1  0  0  0  0
 31 51  1  0  0  0  0
 32 33  2  0  0  0  0
 32 52  1  0  0  0  0
 33 34  1  0  0  0  0
 33 53  1  0  0  0  0
 34 35  2  0  0  0  0
 34 54  1  0  0  0  0
 35 55  1  0  0  0  0
M  END
> <s_m_source_file>
AV-unprocessed.smi

> <i_m_source_file_index>
34

> <i_lp_mmshare_version>
43012

> <i_f3d_flags>
0

> <s_epik_input>
W2NIXTFbY0hdW2NIXVtjSF1bY0hdYzFDKD1PKVtOSF1jKG5bY0hdbjIpYyhjMjMpbltjSF1uM1tDQEBIXTRPW0NASF0oW0NAQEhdKEYpW0NASF00W09IXSlbQ0gyXU9DKD1PKWM1W2NIXVtjSF1bY0hdW2NIXVtjSF01

> <s_epik_cmdline>
J2VwaWtfcHl0aG9uJywgJy1waCcsICc3LjAnLCAnLXRuJywgJzgnLCAnLW1hJywgJzIwMCcsICctbWV0YWxfYmluZGluZycsICctaW1hZScsICc8aW5maWxlLm1hZT4nLCAnLW9tYWUnLCAnPG91dGZpbGUubWFlPic=

> <r_lp_tautomer_probability>
1

> <r_epik_Ionization_Penalty>
0.00257489

> <r_epik_Ionization_Penalty_Charging>
0

> <r_epik_Ionization_Penalty_Neutral>
0.00257489

> <r_epik_State_Penalty>
0.00519398

> <r_epik_Charging_Adjusted_Penalty>
0.00519398

> <i_epik_Tot_Q>
0

> <i_epik_Tot_abs_Q>
0

> <r_epik_Metal_State_Penalty>
0.335891

> <b_epik_Metal_Only>
0

> <s_epik_Chemistry_Notes>
This compound has an ester and may undergo hydrolysis at high or low pH. This compound contains an acetal/aminal-like group ( X-CH(R)-Y where X, Y are N, S, or O) that may be acid/base labile, releasing an aldehyde.

> <s_lp_Force_Field>
OPLS_2005

> <r_lp_Energy>
53.1328

> <b_lp_Chiralities_Consistent>
1

> <s_lp_Variant>
AV-unprocessed.smi:34-9

> <Gold.Version>
5.8.1

> <Gold.Id.Protein>
6NUR|6NUR_protein|mol2

> <Gold.PLP.Fitness>
62.9145

> <Gold.PLP.PLP>
-59.5287

> <Gold.PLP.part.hbond>
-3.2602

> <Gold.PLP.part.metal>
0.0000

> <Gold.PLP.part.buried>
-6.5359

> <Gold.PLP.part.nonpolar>
-50.7201

> <Gold.PLP.part.repulsive>
0.2100

> <Gold.PLP.ligand.clash>
0.0019

> <Gold.PLP.ligand.torsion>
1.5881

> <Gold.PLP.Chemscore.Hbond>
2.0608

> <Gold.PLP.Chemscore.CHOScore>
0.0000

> <Gold.PLP.Chemscore.Metal>
0.0000

> <Gold.Chemscore.Hbonds>
donor molecule, donor type, donor heavy atom, donor atom, acceptor molecule, acceptor atom, score
      P1  H  7989  7998       L1     5  0.04
      P1  H  7997  8008       L1     5  1.00
      P1  H 10752 10765       L1    29  1.00

> <Gold.PLP.Chemscore.Internal.Correction>
0.3814

> <Gold.Rescore>
     Score         DG    S(hbond)    S(metal)    S(lipo)     H(rot)  DE(clash)    DE(int)     intcor
     13.15     -18.61       1.29        0.00     134.91       2.72       0.13       5.34       ----

> <Gold.Chemscore.Fitness>
13.1467

> <Gold.Chemscore.DG>
-18.6132

> <Gold.Chemscore.ZeroCoef>
-5.4800

> <Gold.Chemscore.Hbond>
1.2920

> <Gold.Chemscore.Metal>
0.0000

> <Gold.Chemscore.Lipo>
134.9148

> <Gold.Chemscore.Internal_Hbond>
0.0000

> <Gold.Chemscore.DEClash>
0.1289

> <Gold.Chemscore.DEInternal>
5.3376

> <Gold.Chemscore.Rot>
2.7215

> <Gold.Chemscore.Internal.Correction>
   9.000000E+99

> <Gold.Chemscore.Hbonds>
donor molecule, donor type, donor heavy atom, donor atom, acceptor molecule, acceptor atom, score
      P1  H  7997  8008       L1     5  0.45
      P1  H 10752 10765       L1    29  0.48

> <Gold.Chemscore.Hbond.Weighted>
-4.3152

> <Gold.Chemscore.Metal.Weighted>
-0.0000

> <Gold.Chemscore.Lipo.Weighted>
-15.7850

> <Gold.Chemscore.Internal_Hbond.Weighted>
0.0000

> <Gold.Chemscore.DEClash.Weighted>
0.1289

> <Gold.Chemscore.DEInternal.Weighted>
5.3376

> <Gold.Chemscore.Rot.Weighted>
6.9670

> <Gold.Chemscore.Internal.Correction.Weighted>
   9.000000E+99

> <Gold.Protein.RotatedTorsions>
[ 6907 6896 6895 6894 ] final  131.92 input  -60.11 | X-H torsion
[ 7974 7965 7964 7962 ] final  -83.88 input  175.53 | X-H torsion
[ 8008 7997 7996 7995 ] final  -22.70 input   59.86 | X-H torsion
[ 10167 10162 10161 10158 ] final   91.99 input  -65.29 | X-H torsion
[ 10718 10713 10712 10709 ] final -119.53 input   66.30 | X-H torsion
[ 10763 10752 10751 10750 ] final -140.24 input  -60.55 | X-H torsion
[ 11005 11000 10999 10996 ] final  108.69 input  -57.11 | X-H torsion

> <Gold.Protein.ActiveResidues>
 VAL166  LYS551  ARG553  GLY616  TRP617  ASP618  TYR619  PRO620  LYS621  CYS622 
 ASP623  PHE694  ASN695  SER759  ASP760  ASP761  ALA762  ILE779  LEU786  VAL792 
 PHE793  MET794  SER795  GLU796  ALA797  LYS798  CYS799  TRP800  GLU811  SER814 

> <Gold.Protein.RotatedAtoms>
  152.3377  133.6030  159.5853 H   0  0  0  0  0  0  0  0  0  0  0  0  # atno 6907 bound_to 6896
  150.7460  133.9771  159.3573 H   0  0  0  0  0  0  0  0  0  0  0  0  # atno 6908 bound_to 6896
  151.7639  135.0804  160.0401 H   0  0  0  0  0  0  0  0  0  0  0  0  # atno 6909 bound_to 6896
  145.5141  140.9537  143.1691 H   0  0  0  0  0  0  0  0  0  0  0  0  # atno 7974 bound_to 7965
  154.4628  140.2000  156.0198 H   0  0  0  0  0  0  0  0  0  0  0  0  # atno 8008 bound_to 7997
  156.0872  140.3263  155.7740 H   0  0  0  0  0  0  0  0  0  0  0  0  # atno 8009 bound_to 7997
  155.5016  140.0554  157.2929 H   0  0  0  0  0  0  0  0  0  0  0  0  # atno 8010 bound_to 7997
  139.8321  144.6682  150.9387 H   0  0  0  0  0  0  0  0  0  0  0  0  # atno 10167 bound_to 10162
  156.1188  130.6307  150.9427 H   0  0  0  0  0  0  0  0  0  0  0  0  # atno 10718 bound_to 10713
  154.8584  135.3559  154.5676 H   0  0  0  0  0  0  0  0  0  0  0  0  # atno 10763 bound_to 10752
  153.6290  135.7003  153.5287 H   0  0  0  0  0  0  0  0  0  0  0  0  # atno 10764 bound_to 10752
  153.3066  135.4191  155.1258 H   0  0  0  0  0  0  0  0  0  0  0  0  # atno 10765 bound_to 10752
  139.8848  134.9438  156.6012 H   0  0  0  0  0  0  0  0  0  0  0  0  # atno 11005 bound_to 11000
  144.7711  139.6732  143.7194 LP  0  0  0  0  0  0  0  0  0  0  0  0  # atno 17320 bound_to 7965
  146.2148  139.5530  142.9657 LP  0  0  0  0  0  0  0  0  0  0  0  0  # atno 17321 bound_to 7965
  140.7806  143.3991  151.1179 LP  0  0  0  0  0  0  0  0  0  0  0  0  # atno 17342 bound_to 10162
  139.7644  143.8587  152.3107 LP  0  0  0  0  0  0  0  0  0  0  0  0  # atno 17343 bound_to 10162
  157.6371  131.0914  150.8326 LP  0  0  0  0  0  0  0  0  0  0  0  0  # atno 17370 bound_to 10713
  156.8425  130.5053  149.5319 LP  0  0  0  0  0  0  0  0  0  0  0  0  # atno 17371 bound_to 10713
  140.7882  133.8604  155.8624 LP  0  0  0  0  0  0  0  0  0  0  0  0  # atno 17394 bound_to 11000
  140.9700  134.1543  157.4584 LP  0  0  0  0  0  0  0  0  0  0  0  0  # atno 17395 bound_to 11000

$$$$
