AV-unprocessed.smi:1080|AV-procd|sdf|4709|dock1
  -GOLD-   22720 3233D 1   1.00000     0.00000
 Structure written by MMmdl.
 49 51  0  0  0  0  0  0  0  0  2 V2000
  146.4848  131.6818  153.9647 O   0  0  0  0  0  0  0  0  0  0  0  0
  147.1965  131.3518  153.0164 C   0  0  0  0  0  0  0  0  0  0  0  0
  146.9152  131.5822  151.7219 N   0  0  0  0  0  0  0  0  0  0  0  0
  145.7618  132.2008  151.1673 C   0  0  0  0  0  0  0  0  0  0  0  0
  145.6431  132.2264  149.7598 C   0  0  0  0  0  0  0  0  0  0  0  0
  144.5068  132.8153  149.1685 C   0  0  0  0  0  0  0  0  0  0  0  0
  143.5373  133.3390  149.9490 N   0  3  0  0  0  0  0  0  0  0  0  0
  143.5984  133.3241  151.2978 C   0  0  0  0  0  0  0  0  0  0  0  0
  144.7110  132.7493  151.9457 C   0  0  0  0  0  0  0  0  0  0  0  0
  148.3768  130.7297  153.1509 N   0  0  0  0  0  0  0  0  0  0  0  0
  149.0082  130.3495  154.4121 C   0  0  2  0  0  0  0  0  0  0  0  0
  150.1414  131.3369  154.7424 C   0  0  0  0  0  0  0  0  0  0  0  0
  150.9355  130.9104  155.9946 C   0  0  0  0  0  0  0  0  0  0  0  0
  151.4330  129.4416  155.9692 C   0  0  2  0  0  0  0  0  0  0  0  0
  152.6746  129.2151  155.0702 C   0  0  0  0  0  0  0  0  0  0  0  0
  152.5893  128.4211  154.1327 O   0  0  0  0  0  0  0  0  0  0  0  0
  153.8173  129.9104  155.3057 N   0  0  0  0  0  0  0  0  0  0  0  0
  153.9884  130.7553  156.4950 C   0  0  0  0  0  0  0  0  0  0  0  0
  154.8271  129.9914  157.5336 C   0  0  0  0  0  0  0  0  0  0  0  0
  156.4930  129.6306  156.8935 S   0  0  0  0  0  0  0  0  0  0  0  0
  156.0535  128.9138  155.2791 C   0  0  0  0  0  0  0  0  0  0  0  0
  155.0610  129.8185  154.5302 C   0  0  0  0  0  0  0  0  0  0  0  0
  150.2702  128.4929  155.5981 C   0  0  0  0  0  0  0  0  0  0  0  0
  149.5446  128.9115  154.3082 C   0  0  0  0  0  0  0  0  0  0  0  0
  147.6387  131.3390  151.0611 H   0  0  0  0  0  0  0  0  0  0  0  0
  146.4179  131.8059  149.1346 H   0  0  0  0  0  0  0  0  0  0  0  0
  144.3451  132.8812  148.1024 H   0  0  0  0  0  0  0  0  0  0  0  0
  142.7584  133.7637  151.8155 H   0  0  0  0  0  0  0  0  0  0  0  0
  144.7313  132.7288  153.0247 H   0  0  0  0  0  0  0  0  0  0  0  0
  148.8897  130.5050  152.3108 H   0  0  0  0  0  0  0  0  0  0  0  0
  148.2822  130.3792  155.2267 H   0  0  0  0  0  0  0  0  0  0  0  0
  150.8093  131.4304  153.8867 H   0  0  0  0  0  0  0  0  0  0  0  0
  149.7262  132.3327  154.9020 H   0  0  0  0  0  0  0  0  0  0  0  0
  151.7751  131.5909  156.1436 H   0  0  0  0  0  0  0  0  0  0  0  0
  150.2955  131.0420  156.8679 H   0  0  0  0  0  0  0  0  0  0  0  0
  151.7323  129.2361  156.9960 H   0  0  0  0  0  0  0  0  0  0  0  0
  154.4818  131.6906  156.2273 H   0  0  0  0  0  0  0  0  0  0  0  0
  153.0357  131.0513  156.9358 H   0  0  0  0  0  0  0  0  0  0  0  0
  154.9227  130.5743  158.4498 H   0  0  0  0  0  0  0  0  0  0  0  0
  154.3379  129.0541  157.8012 H   0  0  0  0  0  0  0  0  0  0  0  0
  156.9646  128.7827  154.6952 H   0  0  0  0  0  0  0  0  0  0  0  0
  155.6260  127.9226  155.4333 H   0  0  0  0  0  0  0  0  0  0  0  0
  154.9059  129.4564  153.5155 H   0  0  0  0  0  0  0  0  0  0  0  0
  155.4925  130.8123  154.4021 H   0  0  0  0  0  0  0  0  0  0  0  0
  150.6293  127.4686  155.4919 H   0  0  0  0  0  0  0  0  0  0  0  0
  149.5533  128.4713  156.4198 H   0  0  0  0  0  0  0  0  0  0  0  0
  148.7210  128.2224  154.1161 H   0  0  0  0  0  0  0  0  0  0  0  0
  150.2223  128.8239  153.4579 H   0  0  0  0  0  0  0  0  0  0  0  0
  142.7224  133.7593  149.5010 H   0  0  0  0  0  0  0  0  0  0  0  0
  1  2  2  0  0  0  0
  2  3  1  0  0  0  0
  2 10  1  0  0  0  0
  3  4  1  0  0  0  0
  3 25  1  0  0  0  0
  4  9  1  0  0  0  0
  4  5  2  0  0  0  0
  5  6  1  0  0  0  0
  5 26  1  0  0  0  0
  6  7  2  0  0  0  0
  6 27  1  0  0  0  0
  7  8  1  0  0  0  0
  7 49  1  0  0  0  0
  8  9  2  0  0  0  0
  8 28  1  0  0  0  0
  9 29  1  0  0  0  0
 10 11  1  0  0  0  0
 10 30  1  0  0  0  0
 11 24  1  0  0  0  0
 11 12  1  0  0  0  0
 11 31  1  0  0  0  0
 12 13  1  0  0  0  0
 12 32  1  0  0  0  0
 12 33  1  0  0  0  0
 13 14  1  0  0  0  0
 13 34  1  0  0  0  0
 13 35  1  0  0  0  0
 14 15  1  0  0  0  0
 14 23  1  0  0  0  0
 14 36  1  0  0  0  0
 15 16  2  0  0  0  0
 15 17  1  0  0  0  0
 17 22  1  0  0  0  0
 17 18  1  0  0  0  0
 18 19  1  0  0  0  0
 18 37  1  0  0  0  0
 18 38  1  0  0  0  0
 19 20  1  0  0  0  0
 19 39  1  0  0  0  0
 19 40  1  0  0  0  0
 20 21  1  0  0  0  0
 21 22  1  0  0  0  0
 21 41  1  0  0  0  0
 21 42  1  0  0  0  0
 22 43  1  0  0  0  0
 22 44  1  0  0  0  0
 23 24  1  0  0  0  0
 23 45  1  0  0  0  0
 23 46  1  0  0  0  0
 24 47  1  0  0  0  0
 24 48  1  0  0  0  0
M  CHG  1   7   1
M  END
> <s_m_source_file>
AV-unprocessed.smi

> <i_m_source_file_index>
1080

> <i_lp_mmshare_version>
43012

> <i_f3d_flags>
0

> <s_epik_input>
W2NIXTFbY0hdbltjSF1bY0hdYzFbTkhdQyg9TylbTkhdW0NAQEhdMltDSDJdW0NIMl1bQ0BIXShbQ0gyXVtDSDJdMilDKD1PKU4zW0NIMl1bQ0gyXVNbQ0gyXVtDSDJdMw==

> <s_epik_cmdline>
J2VwaWtfcHl0aG9uJywgJy1waCcsICc3LjAnLCAnLXRuJywgJzgnLCAnLW1hJywgJzIwMCcsICctbWV0YWxfYmluZGluZycsICctaW1hZScsICc8aW5maWxlLm1hZT4nLCAnLW9tYWUnLCAnPG91dGZpbGUubWFlPic=

> <r_epik_Ionization_Penalty>
1.01281

> <r_epik_Ionization_Penalty_Charging>
1.01278

> <r_epik_Ionization_Penalty_Neutral>
2.07681e-05

> <r_epik_State_Penalty>
1.06237

> <r_epik_Charging_Adjusted_Penalty>
2.07515

> <i_epik_Tot_Q>
1

> <i_epik_Tot_abs_Q>
1

> <r_epik_Metal_State_Penalty>
1.16243

> <b_epik_Metal_Only>
0

> <s_lp_Force_Field>
OPLS_2005

> <r_lp_Energy>
37.4575

> <b_lp_Chiralities_Consistent>
1

> <s_lp_Variant>
AV-unprocessed.smi:1080-4

> <Gold.Version>
5.8.1

> <Gold.Id.Protein>
6NUR|6NUR_protein|mol2

> <Gold.PLP.Fitness>
48.3382

> <Gold.PLP.PLP>
-37.0126

> <Gold.PLP.part.hbond>
-3.0000

> <Gold.PLP.part.metal>
0.0000

> <Gold.PLP.part.buried>
-5.4745

> <Gold.PLP.part.nonpolar>
-30.2496

> <Gold.PLP.part.repulsive>
2.1661

> <Gold.PLP.ligand.clash>
0.0000

> <Gold.PLP.ligand.torsion>
0.2419

> <Gold.PLP.Chemscore.Hbond>
3.9120

> <Gold.PLP.Chemscore.CHOScore>
0.0000

> <Gold.PLP.Chemscore.Metal>
0.0000

> <Gold.Chemscore.Hbonds>
donor molecule, donor type, donor heavy atom, donor atom, acceptor molecule, acceptor atom, score
      L1  H     3    25       P1 10747  1.00
      L1  H     7    49       P1 10186  2.00
      L1  H    10    30       P1 10747  0.89

> <Gold.PLP.Chemscore.Internal.Correction>
0.0733

> <Gold.Rescore>
     Score         DG    S(hbond)    S(metal)    S(lipo)     H(rot)  DE(clash)    DE(int)     intcor
     18.04     -21.39       2.48        0.00      92.58       1.25       1.31       2.05       ----

> <Gold.Chemscore.Fitness>
18.0394

> <Gold.Chemscore.DG>
-21.3912

> <Gold.Chemscore.ZeroCoef>
-5.4800

> <Gold.Chemscore.Hbond>
2.4779

> <Gold.Chemscore.Metal>
0.0000

> <Gold.Chemscore.Lipo>
92.5753

> <Gold.Chemscore.Internal_Hbond>
0.0000

> <Gold.Chemscore.DEClash>
1.3056

> <Gold.Chemscore.DEInternal>
2.0462

> <Gold.Chemscore.Rot>
1.2486

> <Gold.Chemscore.Internal.Correction>
   9.000000E+99

> <Gold.Chemscore.Hbonds>
donor molecule, donor type, donor heavy atom, donor atom, acceptor molecule, acceptor atom, score
      L1  H     3    25       P1 10747  0.99
      L1  H     7    49       P1 10186  0.96
      L1  H    10    30       P1 10747  0.28

> <Gold.Chemscore.Hbond.Weighted>
-8.2763

> <Gold.Chemscore.Metal.Weighted>
-0.0000

> <Gold.Chemscore.Lipo.Weighted>
-10.8313

> <Gold.Chemscore.Internal_Hbond.Weighted>
0.0000

> <Gold.Chemscore.DEClash.Weighted>
1.3056

> <Gold.Chemscore.DEInternal.Weighted>
2.0462

> <Gold.Chemscore.Rot.Weighted>
3.1963

> <Gold.Chemscore.Internal.Correction.Weighted>
   9.000000E+99

> <Gold.Protein.RotatedTorsions>
[ 6907 6896 6895 6894 ] final  157.45 input  -60.11 | X-H torsion
[ 7974 7965 7964 7962 ] final  133.06 input  175.53 | X-H torsion
[ 8008 7997 7996 7995 ] final  143.12 input   59.86 | X-H torsion
[ 10167 10162 10161 10158 ] final    6.50 input  -65.29 | X-H torsion
[ 10718 10713 10712 10709 ] final -148.33 input   66.30 | X-H torsion
[ 10763 10752 10751 10750 ] final  160.37 input  -60.55 | X-H torsion
[ 11005 11000 10999 10996 ] final  -32.73 input  -57.11 | X-H torsion

> <Gold.Protein.ActiveResidues>
 VAL166  LYS551  ARG553  GLY616  TRP617  ASP618  TYR619  PRO620  LYS621  CYS622 
 ASP623  PHE694  ASN695  SER759  ASP760  ASP761  ALA762  ILE779  LEU786  VAL792 
 PHE793  MET794  SER795  GLU796  ALA797  LYS798  CYS799  TRP800  GLU811  SER814 

> <Gold.Protein.RotatedAtoms>
  152.0150  133.3876  159.4234 H   0  0  0  0  0  0  0  0  0  0  0  0  # atno 6907 bound_to 6896
  150.6895  134.3689  159.4992 H   0  0  0  0  0  0  0  0  0  0  0  0  # atno 6908 bound_to 6896
  152.1455  134.9029  160.0602 H   0  0  0  0  0  0  0  0  0  0  0  0  # atno 6909 bound_to 6896
  144.9904  139.4412  143.5342 H   0  0  0  0  0  0  0  0  0  0  0  0  # atno 7974 bound_to 7965
  156.2936  140.2271  156.4838 H   0  0  0  0  0  0  0  0  0  0  0  0  # atno 8008 bound_to 7997
  154.7829  140.0459  157.1163 H   0  0  0  0  0  0  0  0  0  0  0  0  # atno 8009 bound_to 7997
  154.9736  140.3069  155.4980 H   0  0  0  0  0  0  0  0  0  0  0  0  # atno 8010 bound_to 7997
  140.6424  143.7742  150.7448 H   0  0  0  0  0  0  0  0  0  0  0  0  # atno 10167 bound_to 10162
  156.4188  130.8018  151.2240 H   0  0  0  0  0  0  0  0  0  0  0  0  # atno 10718 bound_to 10713
  154.2464  135.2773  155.2834 H   0  0  0  0  0  0  0  0  0  0  0  0  # atno 10763 bound_to 10752
  154.5502  135.5677  153.6918 H   0  0  0  0  0  0  0  0  0  0  0  0  # atno 10764 bound_to 10752
  152.9989  135.6272  154.2610 H   0  0  0  0  0  0  0  0  0  0  0  0  # atno 10765 bound_to 10752
  140.9576  133.7183  156.1319 H   0  0  0  0  0  0  0  0  0  0  0  0  # atno 11005 bound_to 11000
  146.3430  139.9233  142.8763 LP  0  0  0  0  0  0  0  0  0  0  0  0  # atno 17320 bound_to 7965
  145.2293  140.9966  143.4000 LP  0  0  0  0  0  0  0  0  0  0  0  0  # atno 17321 bound_to 7965
  140.1376  143.4470  152.2214 LP  0  0  0  0  0  0  0  0  0  0  0  0  # atno 17342 bound_to 10162
  139.5634  144.7420  151.4091 LP  0  0  0  0  0  0  0  0  0  0  0  0  # atno 17343 bound_to 10162
  157.7508  131.0234  150.3834 LP  0  0  0  0  0  0  0  0  0  0  0  0  # atno 17370 bound_to 10713
  156.4147  130.3941  149.6866 LP  0  0  0  0  0  0  0  0  0  0  0  0  # atno 17371 bound_to 10713
  140.7513  134.4042  157.5541 LP  0  0  0  0  0  0  0  0  0  0  0  0  # atno 17394 bound_to 11000
  139.8867  134.8901  156.2568 LP  0  0  0  0  0  0  0  0  0  0  0  0  # atno 17395 bound_to 11000

$$$$
