AV-unprocessed.smi:310|AV-procd|sdf|2296|dock1
  -GOLD-   2262022193D 1   1.00000     0.00000
 Structure written by MMmdl.
 40 42  0  0  0  0  0  0  0  0  2 V2000
  150.8785  141.2287  155.8949 C   0  0  0  0  0  0  0  0  0  0  0  0
  151.3389  139.8574  155.5355 C   0  0  0  0  0  0  0  0  0  0  0  0
  150.6774  138.6773  155.3470 C   0  0  0  0  0  0  0  0  0  0  0  0
  151.7219  137.7657  155.0313 C   0  0  0  0  0  0  0  0  0  0  0  0
  151.5732  136.4623  154.7489 N   0  5  0  0  0  0  0  0  0  0  0  0
  150.5334  135.7679  155.2665 C   0  0  0  0  0  0  0  0  0  0  0  0
  150.4161  135.3914  156.4352 O   0  0  0  0  0  0  0  0  0  0  0  0
  149.5703  135.4923  154.3747 N   0  0  0  0  0  0  0  0  0  0  0  0
  148.3359  134.7586  154.6416 C   0  0  0  0  0  0  0  0  0  0  0  0
  148.2666  133.4746  153.7818 C   0  0  0  0  0  0  0  0  0  0  0  0
  146.8874  132.8034  153.9003 C   0  0  0  0  0  0  0  0  0  0  0  0
  145.8531  133.7746  153.5181 N   0  0  0  0  0  0  0  0  0  0  0  0
  145.0927  133.7330  152.3953 C   0  0  0  0  0  0  0  0  0  0  0  0
  144.1967  134.5513  152.1808 O   0  0  0  0  0  0  0  0  0  0  0  0
  145.4024  132.6569  151.3980 C   0  0  0  0  0  0  0  0  0  0  0  0
  144.6828  132.6816  150.0611 C   0  0  0  0  0  0  0  0  0  0  0  0
  144.3014  131.6611  151.1012 C   0  0  0  0  0  0  0  0  0  0  0  0
  145.7977  134.8908  154.4699 C   0  0  0  0  0  0  0  0  0  0  0  0
  147.1202  135.6751  154.3846 C   0  0  0  0  0  0  0  0  0  0  0  0
  152.9104  138.3456  155.0134 N   0  0  0  0  0  0  0  0  0  0  0  0
  152.6743  139.6858  155.3423 O   0  0  0  0  0  0  0  0  0  0  0  0
  150.1830  141.6092  155.1471 H   0  0  0  0  0  0  0  0  0  0  0  0
  151.7177  141.9218  155.9595 H   0  0  0  0  0  0  0  0  0  0  0  0
  150.3700  141.2234  156.8590 H   0  0  0  0  0  0  0  0  0  0  0  0
  149.6168  138.4926  155.4268 H   0  0  0  0  0  0  0  0  0  0  0  0
  149.7093  135.8204  153.4302 H   0  0  0  0  0  0  0  0  0  0  0  0
  148.3118  134.4707  155.6945 H   0  0  0  0  0  0  0  0  0  0  0  0
  148.4603  133.7166  152.7357 H   0  0  0  0  0  0  0  0  0  0  0  0
  149.0458  132.7750  154.0862 H   0  0  0  0  0  0  0  0  0  0  0  0
  146.8611  131.8803  153.3229 H   0  0  0  0  0  0  0  0  0  0  0  0
  146.7192  132.4930  154.9325 H   0  0  0  0  0  0  0  0  0  0  0  0
  146.4301  132.2996  151.3670 H   0  0  0  0  0  0  0  0  0  0  0  0
  143.9622  133.4713  149.8562 H   0  0  0  0  0  0  0  0  0  0  0  0
  145.2443  132.3402  149.1941 H   0  0  0  0  0  0  0  0  0  0  0  0
  144.6012  130.6278  150.9399 H   0  0  0  0  0  0  0  0  0  0  0  0
  143.3430  131.7907  151.6014 H   0  0  0  0  0  0  0  0  0  0  0  0
  144.9586  135.5637  154.2897 H   0  0  0  0  0  0  0  0  0  0  0  0
  145.6549  134.5032  155.4797 H   0  0  0  0  0  0  0  0  0  0  0  0
  147.1129  136.4970  155.1012 H   0  0  0  0  0  0  0  0  0  0  0  0
  147.2013  136.1284  153.3952 H   0  0  0  0  0  0  0  0  0  0  0  0
  1  2  1  0  0  0  0
  1 22  1  0  0  0  0
  1 23  1  0  0  0  0
  1 24  1  0  0  0  0
  2 21  1  0  0  0  0
  2  3  2  0  0  0  0
  3  4  1  0  0  0  0
  3 25  1  0  0  0  0
  4  5  1  0  0  0  0
  4 20  2  0  0  0  0
  5  6  1  0  0  0  0
  6  7  2  0  0  0  0
  6  8  1  0  0  0  0
  8  9  1  0  0  0  0
  8 26  1  0  0  0  0
  9 19  1  0  0  0  0
  9 10  1  0  0  0  0
  9 27  1  0  0  0  0
 10 11  1  0  0  0  0
 10 28  1  0  0  0  0
 10 29  1  0  0  0  0
 11 12  1  0  0  0  0
 11 30  1  0  0  0  0
 11 31  1  0  0  0  0
 12 13  1  0  0  0  0
 12 18  1  0  0  0  0
 13 14  2  0  0  0  0
 13 15  1  0  0  0  0
 15 17  1  0  0  0  0
 15 16  1  0  0  0  0
 15 32  1  0  0  0  0
 16 17  1  0  0  0  0
 16 33  1  0  0  0  0
 16 34  1  0  0  0  0
 17 35  1  0  0  0  0
 17 36  1  0  0  0  0
 18 19  1  0  0  0  0
 18 37  1  0  0  0  0
 18 38  1  0  0  0  0
 19 39  1  0  0  0  0
 19 40  1  0  0  0  0
 20 21  1  0  0  0  0
M  CHG  1   5  -1
M  END
> <s_m_source_file>
AV-unprocessed.smi

> <i_m_source_file_index>
310

> <i_lp_mmshare_version>
43012

> <i_f3d_flags>
0

> <s_epik_input>
W0NIM11jMVtjSF1jKG5vMSlbTkhdQyg9TylbTkhdW0NIXTJbQ0gyXVtDSDJdTihbQ0gyXVtDSDJdMilDKD1PKVtDSF0zW0NIMl1bQ0gyXTM=

> <s_epik_cmdline>
J2VwaWtfcHl0aG9uJywgJy1waCcsICc3LjAnLCAnLXRuJywgJzgnLCAnLW1hJywgJzIwMCcsICctbWV0YWxfYmluZGluZycsICctaW1hZScsICc8aW5maWxlLm1hZT4nLCAnLW9tYWUnLCAnPG91dGZpbGUubWFlPic=

> <r_lp_tautomer_probability>
1

> <r_epik_Ionization_Penalty>
6.54503

> <r_epik_Ionization_Penalty_Charging>
6.5449

> <r_epik_Ionization_Penalty_Neutral>
0.000132868

> <r_epik_State_Penalty>
6.54489

> <r_epik_Charging_Adjusted_Penalty>
13.0898

> <i_epik_Tot_Q>
-1

> <i_epik_Tot_abs_Q>
1

> <r_epik_Metal_State_Penalty>
2.47073

> <b_epik_Metal_Only>
1

> <s_lp_Force_Field>
OPLS_2005

> <r_lp_Energy>
23.2172

> <b_lp_Chiralities_Consistent>
1

> <s_lp_Variant>
AV-unprocessed.smi:310-2

> <Gold.Version>
5.8.1

> <Gold.Id.Protein>
6NUR|6NUR_protein|mol2

> <Gold.PLP.Fitness>
40.7585

> <Gold.PLP.PLP>
-31.2708

> <Gold.PLP.part.hbond>
-3.6159

> <Gold.PLP.part.metal>
0.0000

> <Gold.PLP.part.buried>
-4.4636

> <Gold.PLP.part.nonpolar>
-22.8681

> <Gold.PLP.part.repulsive>
0.3148

> <Gold.PLP.ligand.clash>
0.0000

> <Gold.PLP.ligand.torsion>
0.9246

> <Gold.PLP.Chemscore.Hbond>
3.7320

> <Gold.PLP.Chemscore.CHOScore>
0.0000

> <Gold.PLP.Chemscore.Metal>
0.0000

> <Gold.Chemscore.Hbonds>
donor molecule, donor type, donor heavy atom, donor atom, acceptor molecule, acceptor atom, score
      L1  H     8    26       P1  7948  0.73
      P1  H  7997  8010       L1    21  1.00
      P1  H 10752 10765       L1     5  2.00

> <Gold.PLP.Chemscore.Internal.Correction>
0.1409

> <Gold.Rescore>
     Score         DG    S(hbond)    S(metal)    S(lipo)     H(rot)  DE(clash)    DE(int)     intcor
     13.80     -14.81       1.73        0.00      57.72       1.25       0.03       0.98       ----

> <Gold.Chemscore.Fitness>
13.8004

> <Gold.Chemscore.DG>
-14.8144

> <Gold.Chemscore.ZeroCoef>
-5.4800

> <Gold.Chemscore.Hbond>
1.7305

> <Gold.Chemscore.Metal>
0.0000

> <Gold.Chemscore.Lipo>
57.7163

> <Gold.Chemscore.Internal_Hbond>
0.0000

> <Gold.Chemscore.DEClash>
0.0343

> <Gold.Chemscore.DEInternal>
0.9798

> <Gold.Chemscore.Rot>
1.2493

> <Gold.Chemscore.Internal.Correction>
   9.000000E+99

> <Gold.Chemscore.Hbonds>
donor molecule, donor type, donor heavy atom, donor atom, acceptor molecule, acceptor atom, score
      L1  H     8    26       P1  7948  0.09
      P1  H  7997  8010       L1    21  0.25
      P1  H 10752 10765       L1     5  0.83

> <Gold.Chemscore.Hbond.Weighted>
-5.7798

> <Gold.Chemscore.Metal.Weighted>
-0.0000

> <Gold.Chemscore.Lipo.Weighted>
-6.7528

> <Gold.Chemscore.Internal_Hbond.Weighted>
0.0000

> <Gold.Chemscore.DEClash.Weighted>
0.0343

> <Gold.Chemscore.DEInternal.Weighted>
0.9798

> <Gold.Chemscore.Rot.Weighted>
3.1981

> <Gold.Chemscore.Internal.Correction.Weighted>
   9.000000E+99

> <Gold.Protein.RotatedTorsions>
[ 6907 6896 6895 6894 ] final    2.42 input  -60.11 | X-H torsion
[ 7974 7965 7964 7962 ] final   66.21 input  175.53 | X-H torsion
[ 8008 7997 7996 7995 ] final  105.17 input   59.86 | X-H torsion
[ 10167 10162 10161 10158 ] final   -8.81 input  -65.29 | X-H torsion
[ 10718 10713 10712 10709 ] final   25.65 input   66.30 | X-H torsion
[ 10763 10752 10751 10750 ] final  178.58 input  -60.55 | X-H torsion
[ 11005 11000 10999 10996 ] final -107.91 input  -57.11 | X-H torsion

> <Gold.Protein.ActiveResidues>
 VAL166  LYS551  ARG553  GLY616  TRP617  ASP618  TYR619  PRO620  LYS621  CYS622 
 ASP623  PHE694  ASN695  SER759  ASP760  ASP761  ALA762  ILE779  LEU786  VAL792 
 PHE793  MET794  SER795  GLU796  ALA797  LYS798  CYS799  TRP800  GLU811  SER814 

> <Gold.Protein.RotatedAtoms>
  151.6085  135.1042  160.0075 H   0  0  0  0  0  0  0  0  0  0  0  0  # atno 6907 bound_to 6896
  152.4220  133.7128  159.6499 H   0  0  0  0  0  0  0  0  0  0  0  0  # atno 6908 bound_to 6896
  150.8108  133.8352  159.3205 H   0  0  0  0  0  0  0  0  0  0  0  0  # atno 6909 bound_to 6896
  145.8293  139.3129  143.0997 H   0  0  0  0  0  0  0  0  0  0  0  0  # atno 7974 bound_to 7965
  156.1636  140.3135  155.8850 H   0  0  0  0  0  0  0  0  0  0  0  0  # atno 8008 bound_to 7997
  155.3732  140.0483  157.3062 H   0  0  0  0  0  0  0  0  0  0  0  0  # atno 8009 bound_to 7997
  154.5170  140.2185  155.9057 H   0  0  0  0  0  0  0  0  0  0  0  0  # atno 8010 bound_to 7997
  140.7070  143.5927  150.8877 H   0  0  0  0  0  0  0  0  0  0  0  0  # atno 10167 bound_to 10162
  157.1962  130.6869  149.6170 H   0  0  0  0  0  0  0  0  0  0  0  0  # atno 10718 bound_to 10713
  154.5096  135.2788  155.1354 H   0  0  0  0  0  0  0  0  0  0  0  0  # atno 10763 bound_to 10752
  154.2955  135.6258  153.5406 H   0  0  0  0  0  0  0  0  0  0  0  0  # atno 10764 bound_to 10752
  152.9916  135.5684  154.5558 H   0  0  0  0  0  0  0  0  0  0  0  0  # atno 10765 bound_to 10752
  141.0929  133.9022  157.2031 H   0  0  0  0  0  0  0  0  0  0  0  0  # atno 11005 bound_to 11000
  145.9589  140.8851  143.0221 LP  0  0  0  0  0  0  0  0  0  0  0  0  # atno 17320 bound_to 7965
  144.6741  140.1784  143.7408 LP  0  0  0  0  0  0  0  0  0  0  0  0  # atno 17321 bound_to 7965
  139.9652  143.6118  152.2990 LP  0  0  0  0  0  0  0  0  0  0  0  0  # atno 17342 bound_to 10162
  139.6685  144.7661  151.1827 LP  0  0  0  0  0  0  0  0  0  0  0  0  # atno 17343 bound_to 10162
  155.9705  130.4598  150.6049 LP  0  0  0  0  0  0  0  0  0  0  0  0  # atno 17370 bound_to 10713
  157.3812  131.0781  151.1475 LP  0  0  0  0  0  0  0  0  0  0  0  0  # atno 17371 bound_to 10713
  139.9759  135.0114  156.9630 LP  0  0  0  0  0  0  0  0  0  0  0  0  # atno 17394 bound_to 11000
  140.5208  134.0909  155.7291 LP  0  0  0  0  0  0  0  0  0  0  0  0  # atno 17395 bound_to 11000

$$$$
