AV-unprocessed.smi:2247|AV-procd|sdf|9091|dock3
  -GOLD-   2272012293D 1   1.00000     0.00000
 Structure written by MMmdl.
 34 35  0  0  0  0  0  0  0  0  1 V2000
  152.6867  143.3545  160.3828 C   0  0  0  0  0  0  0  0  0  0  0  0
  152.6865  141.9250  159.8169 C   0  0  0  0  0  0  0  0  0  0  0  0
  154.0897  141.3027  159.7562 C   0  0  0  0  0  0  0  0  0  0  0  0
  152.0243  141.8468  158.5078 N   0  0  0  0  0  0  0  0  0  0  0  0
  151.5890  143.0376  157.7945 C   0  0  0  0  0  0  0  0  0  0  0  0
  150.7442  142.5055  156.6333 C   0  0  0  0  0  0  0  0  0  0  0  0
  151.1501  141.0348  156.4503 C   0  0  2  0  0  0  0  0  0  0  0  0
  149.9646  140.2133  156.2093 N   0  0  0  0  0  0  0  0  0  0  0  0
  149.6687  139.5855  155.0609 C   0  0  0  0  0  0  0  0  0  0  0  0
  150.4061  139.6594  154.0726 O   0  0  0  0  0  0  0  0  0  0  0  0
  148.4553  138.9234  155.1747 N   0  0  0  0  0  0  0  0  0  0  0  0
  147.7016  138.7869  154.1266 C   0  0  0  0  0  0  0  0  0  0  0  0
  147.8313  139.2062  152.8050 N   0  0  0  0  0  0  0  0  0  0  0  0
  146.7230  138.7974  152.1174 C   0  0  0  0  0  0  0  0  0  0  0  0
  145.9290  138.1491  152.9643 C   0  0  0  0  0  0  0  0  0  0  0  0
  146.5013  138.1263  154.2010 O   0  0  0  0  0  0  0  0  0  0  0  0
  151.7807  140.7282  157.8097 C   0  0  0  0  0  0  0  0  0  0  0  0
  152.0513  139.5826  158.1711 O   0  0  0  0  0  0  0  0  0  0  0  0
  153.0567  143.3637  161.4084 H   0  0  0  0  0  0  0  0  0  0  0  0
  151.6805  143.7749  160.3934 H   0  0  0  0  0  0  0  0  0  0  0  0
  153.3255  144.0210  159.8031 H   0  0  0  0  0  0  0  0  0  0  0  0
  152.1119  141.3252  160.5248 H   0  0  0  0  0  0  0  0  0  0  0  0
  154.5521  141.2855  160.7434 H   0  0  0  0  0  0  0  0  0  0  0  0
  154.7473  141.8654  159.0931 H   0  0  0  0  0  0  0  0  0  0  0  0
  154.0487  140.2749  159.3936 H   0  0  0  0  0  0  0  0  0  0  0  0
  151.0110  143.7172  158.4204 H   0  0  0  0  0  0  0  0  0  0  0  0
  152.4628  143.5744  157.4231 H   0  0  0  0  0  0  0  0  0  0  0  0
  149.6880  142.5861  156.8973 H   0  0  0  0  0  0  0  0  0  0  0  0
  150.8927  143.0865  155.7225 H   0  0  0  0  0  0  0  0  0  0  0  0
  151.8998  140.9301  155.6643 H   0  0  0  0  0  0  0  0  0  0  0  0
  149.3170  140.1151  156.9776 H   0  0  0  0  0  0  0  0  0  0  0  0
  148.5912  139.7219  152.3844 H   0  0  0  0  0  0  0  0  0  0  0  0
  146.6180  139.0212  151.0659 H   0  0  0  0  0  0  0  0  0  0  0  0
  144.9688  137.6688  152.8474 H   0  0  0  0  0  0  0  0  0  0  0  0
  1  2  1  0  0  0  0
  1 19  1  0  0  0  0
  1 20  1  0  0  0  0
  1 21  1  0  0  0  0
  2  3  1  0  0  0  0
  2  4  1  0  0  0  0
  2 22  1  0  0  0  0
  3 23  1  0  0  0  0
  3 24  1  0  0  0  0
  3 25  1  0  0  0  0
  4 17  1  0  0  0  0
  4  5  1  0  0  0  0
  5  6  1  0  0  0  0
  5 26  1  0  0  0  0
  5 27  1  0  0  0  0
  6  7  1  0  0  0  0
  6 28  1  0  0  0  0
  6 29  1  0  0  0  0
  7  8  1  0  0  0  0
  7 17  1  0  0  0  0
  7 30  1  0  0  0  0
  8 31  1  0  0  0  0
  8  9  1  0  0  0  0
  9 11  1  0  0  0  0
  9 10  2  0  0  0  0
 11 12  2  0  0  0  0
 12 16  1  0  0  0  0
 12 13  1  0  0  0  0
 13 32  1  0  0  0  0
 13 14  1  0  0  0  0
 14 33  1  0  0  0  0
 14 15  2  0  0  0  0
 15 34  1  0  0  0  0
 15 16  1  0  0  0  0
 17 18  2  0  0  0  0
M  END
> <s_m_source_file>
AV-unprocessed.smi

> <i_m_source_file_index>
2247

> <i_lp_mmshare_version>
43012

> <i_f3d_flags>
0

> <s_epik_input>
W0NIM11bQ0hdKFtDSDNdKU4xW0NIMl1bQ0gyXVtDQEhdKEMxPU8pW05IXUMoPU8pW05IXWMybltjSF1bY0hdbzI=

> <s_epik_cmdline>
J2VwaWtfcHl0aG9uJywgJy1waCcsICc3LjAnLCAnLXRuJywgJzgnLCAnLW1hJywgJzIwMCcsICctbWV0YWxfYmluZGluZycsICctaW1hZScsICc8aW5maWxlLm1hZT4nLCAnLW9tYWUnLCAnPG91dGZpbGUubWFlPic=

> <r_lp_tautomer_probability>
0.107061

> <r_epik_Ionization_Penalty>
0.180736

> <r_epik_Ionization_Penalty_Charging>
0.180388

> <r_epik_Ionization_Penalty_Neutral>
0.000348501

> <r_epik_State_Penalty>
2.44396

> <r_epik_Charging_Adjusted_Penalty>
2.62435

> <i_epik_Tot_Q>
0

> <i_epik_Tot_abs_Q>
0

> <r_epik_Metal_State_Penalty>
4.38331

> <b_epik_Metal_Only>
0

> <s_lp_Force_Field>
OPLS_2005

> <r_lp_Energy>
46.2393

> <b_lp_Chiralities_Consistent>
1

> <s_lp_Variant>
AV-unprocessed.smi:2247-6

> <Gold.Version>
5.8.1

> <Gold.Id.Protein>
6NUR|6NUR_protein|mol2

> <Gold.PLP.Fitness>
37.6263

> <Gold.PLP.PLP>
-32.2624

> <Gold.PLP.part.hbond>
-2.4471

> <Gold.PLP.part.metal>
0.0000

> <Gold.PLP.part.buried>
-2.8050

> <Gold.PLP.part.nonpolar>
-27.5334

> <Gold.PLP.part.repulsive>
0.8229

> <Gold.PLP.ligand.clash>
0.0000

> <Gold.PLP.ligand.torsion>
0.3667

> <Gold.PLP.Chemscore.Hbond>
2.0000

> <Gold.PLP.Chemscore.CHOScore>
0.0000

> <Gold.PLP.Chemscore.Metal>
0.0000

> <Gold.Chemscore.Hbonds>
donor molecule, donor type, donor heavy atom, donor atom, acceptor molecule, acceptor atom, score
      L1  H    13    32       P1  7957  1.00
      P1  H  7989  7998       L1    10  1.00

> <Gold.PLP.Chemscore.Internal.Correction>
0.0973

> <Gold.Rescore>
     Score         DG    S(hbond)    S(metal)    S(lipo)     H(rot)  DE(clash)    DE(int)     intcor
     15.68     -17.05       1.96        0.00      72.09       1.33       0.06       1.32       ----

> <Gold.Chemscore.Fitness>
15.6754

> <Gold.Chemscore.DG>
-17.0543

> <Gold.Chemscore.ZeroCoef>
-5.4800

> <Gold.Chemscore.Hbond>
1.9624

> <Gold.Chemscore.Metal>
0.0000

> <Gold.Chemscore.Lipo>
72.0874

> <Gold.Chemscore.Internal_Hbond>
0.0000

> <Gold.Chemscore.DEClash>
0.0554

> <Gold.Chemscore.DEInternal>
1.3235

> <Gold.Chemscore.Rot>
1.3338

> <Gold.Chemscore.Internal.Correction>
   9.000000E+99

> <Gold.Chemscore.Hbonds>
donor molecule, donor type, donor heavy atom, donor atom, acceptor molecule, acceptor atom, score
      L1  H    13    32       P1  7957  0.95
      P1  H  7989  7998       L1    10  0.99

> <Gold.Chemscore.Hbond.Weighted>
-6.5546

> <Gold.Chemscore.Metal.Weighted>
-0.0000

> <Gold.Chemscore.Lipo.Weighted>
-8.4342

> <Gold.Chemscore.Internal_Hbond.Weighted>
0.0000

> <Gold.Chemscore.DEClash.Weighted>
0.0554

> <Gold.Chemscore.DEInternal.Weighted>
1.3235

> <Gold.Chemscore.Rot.Weighted>
3.4145

> <Gold.Chemscore.Internal.Correction.Weighted>
   9.000000E+99

> <Gold.Protein.RotatedTorsions>
[ 6907 6896 6895 6894 ] final  102.04 input  -60.11 | X-H torsion
[ 7974 7965 7964 7962 ] final  156.07 input  175.53 | X-H torsion
[ 8008 7997 7996 7995 ] final -114.39 input   59.86 | X-H torsion
[ 10167 10162 10161 10158 ] final  -85.30 input  -65.29 | X-H torsion
[ 10718 10713 10712 10709 ] final   61.98 input   66.30 | X-H torsion
[ 10763 10752 10751 10750 ] final   46.49 input  -60.55 | X-H torsion
[ 11005 11000 10999 10996 ] final -150.25 input  -57.11 | X-H torsion

> <Gold.Protein.ActiveResidues>
 VAL166  LYS551  ARG553  GLY616  TRP617  ASP618  TYR619  PRO620  LYS621  CYS622 
 ASP623  PHE694  ASN695  SER759  ASP760  ASP761  ALA762  ILE779  LEU786  VAL792 
 PHE793  MET794  SER795  GLU796  ALA797  LYS798  CYS799  TRP800  GLU811  SER814 

> <Gold.Protein.RotatedAtoms>
  152.5334  134.0034  159.7905 H   0  0  0  0  0  0  0  0  0  0  0  0  # atno 6907 bound_to 6896
  151.0249  133.5835  159.2674 H   0  0  0  0  0  0  0  0  0  0  0  0  # atno 6908 bound_to 6896
  151.2861  135.0735  159.9240 H   0  0  0  0  0  0  0  0  0  0  0  0  # atno 6909 bound_to 6896
  144.7986  139.7153  143.6191 H   0  0  0  0  0  0  0  0  0  0  0  0  # atno 7974 bound_to 7965
  155.0356  140.0392  157.2490 H   0  0  0  0  0  0  0  0  0  0  0  0  # atno 8008 bound_to 7997
  154.7259  140.2721  155.6475 H   0  0  0  0  0  0  0  0  0  0  0  0  # atno 8009 bound_to 7997
  156.2829  140.2693  156.1945 H   0  0  0  0  0  0  0  0  0  0  0  0  # atno 8010 bound_to 7997
  140.4051  143.2646  151.9092 H   0  0  0  0  0  0  0  0  0  0  0  0  # atno 10167 bound_to 10162
  157.5867  130.9025  149.9529 H   0  0  0  0  0  0  0  0  0  0  0  0  # atno 10718 bound_to 10713
  152.9810  135.6006  154.3607 H   0  0  0  0  0  0  0  0  0  0  0  0  # atno 10763 bound_to 10752
  154.3289  135.2769  155.2484 H   0  0  0  0  0  0  0  0  0  0  0  0  # atno 10764 bound_to 10752
  154.4616  135.5964  153.6315 H   0  0  0  0  0  0  0  0  0  0  0  0  # atno 10765 bound_to 10752
  140.7422  134.3501  157.5145 H   0  0  0  0  0  0  0  0  0  0  0  0  # atno 11005 bound_to 11000
  146.2261  139.5725  142.9586 LP  0  0  0  0  0  0  0  0  0  0  0  0  # atno 17320 bound_to 7965
  145.5611  141.0404  143.2226 LP  0  0  0  0  0  0  0  0  0  0  0  0  # atno 17321 bound_to 7965
  139.4783  144.5595  151.8262 LP  0  0  0  0  0  0  0  0  0  0  0  0  # atno 17342 bound_to 10162
  140.4699  144.1602  150.5916 LP  0  0  0  0  0  0  0  0  0  0  0  0  # atno 17343 bound_to 10162
  156.0917  130.3663  150.0382 LP  0  0  0  0  0  0  0  0  0  0  0  0  # atno 17370 bound_to 10713
  156.8512  130.9459  151.3625 LP  0  0  0  0  0  0  0  0  0  0  0  0  # atno 17371 bound_to 10713
  139.8804  134.9088  156.2976 LP  0  0  0  0  0  0  0  0  0  0  0  0  # atno 17394 bound_to 11000
  140.9826  133.7258  156.0695 LP  0  0  0  0  0  0  0  0  0  0  0  0  # atno 17395 bound_to 11000

$$$$
