AV-unprocessed.smi:332|AV-procd|sdf|2353|dock6
  -GOLD-   2262022263D 1   1.00000     0.00000
 Structure written by MMmdl.
 42 44  0  0  0  0  0  0  0  0  1 V2000
  151.6545  140.9178  156.0963 C   0  0  0  0  0  0  0  0  0  0  0  0
  150.6630  142.0039  156.5451 C   0  0  1  0  0  0  0  0  0  0  0  0
  149.3048  141.5020  156.3412 N   0  0  0  0  0  0  0  0  0  0  0  0
  148.6875  141.3618  155.1579 C   0  0  0  0  0  0  0  0  0  0  0  0
  149.2285  141.5925  154.0760 O   0  0  0  0  0  0  0  0  0  0  0  0
  147.2339  140.8743  155.2097 C   0  0  0  0  0  0  0  0  0  0  0  0
  146.2647  141.9722  155.0590 N   0  0  0  0  0  0  0  0  0  0  0  0
  146.2825  142.6863  153.8443 C   0  0  0  0  0  0  0  0  0  0  0  0
  145.4450  143.7088  153.6095 C   0  0  0  0  0  0  0  0  0  0  0  0
  144.5057  144.0736  154.6436 C   0  0  0  0  0  0  0  0  0  0  0  0
  144.4812  143.3984  155.8099 C   0  0  0  0  0  0  0  0  0  0  0  0
  145.3946  142.2797  156.0709 C   0  0  0  0  0  0  0  0  0  0  0  0
  145.3790  141.6576  157.1337 O   0  0  0  0  0  0  0  0  0  0  0  0
  150.8468  142.4148  158.0276 C   0  0  2  0  0  0  0  0  0  0  0  0
  149.8633  143.5163  158.5011 C   0  0  0  0  0  0  0  0  0  0  0  0
  150.7902  144.5899  159.0959 C   0  0  1  0  0  0  0  0  0  0  0  0
  151.4251  144.0639  160.3957 C   0  0  0  0  0  0  0  0  0  0  0  0
  152.4364  143.0231  159.8803 C   0  0  0  0  0  0  0  0  0  0  0  0
  152.2169  143.0607  158.3556 C   0  0  2  0  0  0  0  0  0  0  0  0
  151.9623  144.5474  158.1256 C   0  0  0  0  0  0  0  0  0  0  0  0
  152.6859  141.2640  156.1481 H   0  0  0  0  0  0  0  0  0  0  0  0
  151.4686  140.6244  155.0624 H   0  0  0  0  0  0  0  0  0  0  0  0
  151.5715  140.0235  156.7148 H   0  0  0  0  0  0  0  0  0  0  0  0
  150.8296  142.8847  155.9234 H   0  0  0  0  0  0  0  0  0  0  0  0
  148.7785  141.2774  157.1731 H   0  0  0  0  0  0  0  0  0  0  0  0
  147.1007  140.1272  154.4263 H   0  0  0  0  0  0  0  0  0  0  0  0
  147.0499  140.3437  156.1461 H   0  0  0  0  0  0  0  0  0  0  0  0
  147.0194  142.3568  153.1261 H   0  0  0  0  0  0  0  0  0  0  0  0
  145.4760  144.2474  152.6738 H   0  0  0  0  0  0  0  0  0  0  0  0
  143.8207  144.8929  154.4820 H   0  0  0  0  0  0  0  0  0  0  0  0
  143.7730  143.6862  156.5731 H   0  0  0  0  0  0  0  0  0  0  0  0
  150.7098  141.5225  158.6409 H   0  0  0  0  0  0  0  0  0  0  0  0
  149.3027  143.9421  157.6679 H   0  0  0  0  0  0  0  0  0  0  0  0
  149.1392  143.1426  159.2258 H   0  0  0  0  0  0  0  0  0  0  0  0
  150.3153  145.5656  159.2031 H   0  0  0  0  0  0  0  0  0  0  0  0
  151.9372  144.8639  160.9319 H   0  0  0  0  0  0  0  0  0  0  0  0
  150.6852  143.6285  161.0684 H   0  0  0  0  0  0  0  0  0  0  0  0
  153.4545  143.3245  160.1306 H   0  0  0  0  0  0  0  0  0  0  0  0
  152.2700  142.0320  160.3040 H   0  0  0  0  0  0  0  0  0  0  0  0
  153.0595  142.6533  157.7986 H   0  0  0  0  0  0  0  0  0  0  0  0
  151.6837  144.7908  157.0991 H   0  0  0  0  0  0  0  0  0  0  0  0
  152.7974  145.1818  158.4283 H   0  0  0  0  0  0  0  0  0  0  0  0
  1  2  1  0  0  0  0
  1 21  1  0  0  0  0
  1 22  1  0  0  0  0
  1 23  1  0  0  0  0
  2  3  1  0  0  0  0
  2 14  1  0  0  0  0
  2 24  1  0  0  0  0
  3  4  1  0  0  0  0
  3 25  1  0  0  0  0
  4  5  2  0  0  0  0
  4  6  1  0  0  0  0
  6  7  1  0  0  0  0
  6 26  1  0  0  0  0
  6 27  1  0  0  0  0
  7 12  1  0  0  0  0
  7  8  1  0  0  0  0
  8  9  2  0  0  0  0
  8 28  1  0  0  0  0
  9 10  1  0  0  0  0
  9 29  1  0  0  0  0
 10 11  2  0  0  0  0
 10 30  1  0  0  0  0
 11 12  1  0  0  0  0
 11 31  1  0  0  0  0
 12 13  2  0  0  0  0
 14 19  1  0  0  0  0
 14 15  1  0  0  0  0
 14 32  1  0  0  0  0
 15 16  1  0  0  0  0
 15 33  1  0  0  0  0
 15 34  1  0  0  0  0
 16 20  1  0  0  0  0
 16 17  1  0  0  0  0
 16 35  1  0  0  0  0
 17 18  1  0  0  0  0
 17 36  1  0  0  0  0
 17 37  1  0  0  0  0
 18 19  1  0  0  0  0
 18 38  1  0  0  0  0
 18 39  1  0  0  0  0
 19 20  1  0  0  0  0
 19 40  1  0  0  0  0
 20 41  1  0  0  0  0
 20 42  1  0  0  0  0
M  END
> <s_m_source_file>
AV-unprocessed.smi

> <i_m_source_file_index>
332

> <i_lp_mmshare_version>
43012

> <i_f3d_flags>
0

> <s_epik_input>
W0NIMl0xW0NIMl1bQ0BIXShbQ0gyXTIpW0NAQEhdKFtDSDJdW0NAQEhdMTIpW0NASF0oW0NIM10pW05IXUMoPU8pW0NIMl1uM1tjSF1bY0hdW2NIXVtjSF1jMz1P

> <s_epik_cmdline>
J2VwaWtfcHl0aG9uJywgJy1waCcsICc3LjAnLCAnLXRuJywgJzgnLCAnLW1hJywgJzIwMCcsICctbWV0YWxfYmluZGluZycsICctaW1hZScsICc8aW5maWxlLm1hZT4nLCAnLW9tYWUnLCAnPG91dGZpbGUubWFlPic=

> <r_lp_tautomer_probability>
1

> <r_epik_Ionization_Penalty>
4.05802e-07

> <r_epik_Ionization_Penalty_Charging>
3.84175e-07

> <r_epik_Ionization_Penalty_Neutral>
2.16269e-08

> <r_epik_State_Penalty>
-0

> <r_epik_Charging_Adjusted_Penalty>
3.84175e-07

> <i_epik_Tot_Q>
0

> <i_epik_Tot_abs_Q>
0

> <r_epik_Metal_State_Penalty>
-0

> <b_epik_Metal_Only>
0

> <s_lp_Force_Field>
OPLS_2005

> <r_lp_Energy>
60.1573

> <b_lp_Chiralities_Consistent>
1

> <s_lp_Variant>
AV-unprocessed.smi:332-2

> <Gold.Version>
5.8.1

> <Gold.Id.Protein>
6NUR|6NUR_protein|mol2

> <Gold.PLP.Fitness>
46.6391

> <Gold.PLP.PLP>
-45.6454

> <Gold.PLP.part.hbond>
-2.0132

> <Gold.PLP.part.metal>
0.0000

> <Gold.PLP.part.buried>
-7.0201

> <Gold.PLP.part.nonpolar>
-36.8471

> <Gold.PLP.part.repulsive>
0.2523

> <Gold.PLP.ligand.clash>
0.0000

> <Gold.PLP.ligand.torsion>
0.4909

> <Gold.PLP.Chemscore.Hbond>
0.6503

> <Gold.PLP.Chemscore.CHOScore>
0.0000

> <Gold.PLP.Chemscore.Metal>
0.0000

> <Gold.Chemscore.Hbonds>
donor molecule, donor type, donor heavy atom, donor atom, acceptor molecule, acceptor atom, score
      P1  H  8011  8017       L1     5  0.62

> <Gold.PLP.Chemscore.Internal.Correction>
0.0248

> <Gold.Rescore>
     Score         DG    S(hbond)    S(metal)    S(lipo)     H(rot)  DE(clash)    DE(int)     intcor
     16.56     -17.70       0.84        0.00     114.12       1.54       0.62       0.52       ----

> <Gold.Chemscore.Fitness>
16.5615

> <Gold.Chemscore.DG>
-17.7024

> <Gold.Chemscore.ZeroCoef>
-5.4800

> <Gold.Chemscore.Hbond>
0.8419

> <Gold.Chemscore.Metal>
0.0000

> <Gold.Chemscore.Lipo>
114.1236

> <Gold.Chemscore.Internal_Hbond>
0.0000

> <Gold.Chemscore.DEClash>
0.6248

> <Gold.Chemscore.DEInternal>
0.5160

> <Gold.Chemscore.Rot>
1.5398

> <Gold.Chemscore.Internal.Correction>
   9.000000E+99

> <Gold.Chemscore.Hbonds>
donor molecule, donor type, donor heavy atom, donor atom, acceptor molecule, acceptor atom, score
      P1  H  8011  8017       L1     5  0.59

> <Gold.Chemscore.Hbond.Weighted>
-2.8118

> <Gold.Chemscore.Metal.Weighted>
-0.0000

> <Gold.Chemscore.Lipo.Weighted>
-13.3525

> <Gold.Chemscore.Internal_Hbond.Weighted>
0.0000

> <Gold.Chemscore.DEClash.Weighted>
0.6248

> <Gold.Chemscore.DEInternal.Weighted>
0.5160

> <Gold.Chemscore.Rot.Weighted>
3.9419

> <Gold.Chemscore.Internal.Correction.Weighted>
   9.000000E+99

> <Gold.Protein.RotatedTorsions>
[ 6907 6896 6895 6894 ] final  169.60 input  -60.11 | X-H torsion
[ 7974 7965 7964 7962 ] final   61.97 input  175.53 | X-H torsion
[ 8008 7997 7996 7995 ] final    3.79 input   59.86 | X-H torsion
[ 10167 10162 10161 10158 ] final  -83.01 input  -65.29 | X-H torsion
[ 10718 10713 10712 10709 ] final  -96.86 input   66.30 | X-H torsion
[ 10763 10752 10751 10750 ] final  -12.25 input  -60.55 | X-H torsion
[ 11005 11000 10999 10996 ] final -148.80 input  -57.11 | X-H torsion

> <Gold.Protein.ActiveResidues>
 VAL166  LYS551  ARG553  GLY616  TRP617  ASP618  TYR619  PRO620  LYS621  CYS622 
 ASP623  PHE694  ASN695  SER759  ASP760  ASP761  ALA762  ILE779  LEU786  VAL792 
 PHE793  MET794  SER795  GLU796  ALA797  LYS798  CYS799  TRP800  GLU811  SER814 

> <Gold.Protein.RotatedAtoms>
  151.8294  133.3406  159.3608 H   0  0  0  0  0  0  0  0  0  0  0  0  # atno 6907 bound_to 6896
  150.7269  134.5497  159.5798 H   0  0  0  0  0  0  0  0  0  0  0  0  # atno 6908 bound_to 6896
  152.2947  134.7681  160.0421 H   0  0  0  0  0  0  0  0  0  0  0  0  # atno 6909 bound_to 6896
  145.8787  139.3428  143.0719 H   0  0  0  0  0  0  0  0  0  0  0  0  # atno 7974 bound_to 7965
  154.7080  140.2686  155.6656 H   0  0  0  0  0  0  0  0  0  0  0  0  # atno 8008 bound_to 7997
  156.2786  140.2759  156.1636 H   0  0  0  0  0  0  0  0  0  0  0  0  # atno 8009 bound_to 7997
  155.0674  140.0372  157.2587 H   0  0  0  0  0  0  0  0  0  0  0  0  # atno 8010 bound_to 7997
  140.4266  143.2564  151.8817 H   0  0  0  0  0  0  0  0  0  0  0  0  # atno 10167 bound_to 10162
  156.0071  130.5169  150.6288 H   0  0  0  0  0  0  0  0  0  0  0  0  # atno 10718 bound_to 10713
  153.4956  135.7017  153.5860 H   0  0  0  0  0  0  0  0  0  0  0  0  # atno 10763 bound_to 10752
  153.4013  135.3871  155.1989 H   0  0  0  0  0  0  0  0  0  0  0  0  # atno 10764 bound_to 10752
  154.8714  135.3882  154.4422 H   0  0  0  0  0  0  0  0  0  0  0  0  # atno 10765 bound_to 10752
  140.7575  134.3336  157.5110 H   0  0  0  0  0  0  0  0  0  0  0  0  # atno 11005 bound_to 11000
  145.9050  140.9218  143.0483 LP  0  0  0  0  0  0  0  0  0  0  0  0  # atno 17320 bound_to 7965
  144.6727  140.1084  143.7457 LP  0  0  0  0  0  0  0  0  0  0  0  0  # atno 17321 bound_to 7965
  139.4783  144.5380  151.8570 LP  0  0  0  0  0  0  0  0  0  0  0  0  # atno 17342 bound_to 10162
  140.4474  144.1903  150.5895 LP  0  0  0  0  0  0  0  0  0  0  0  0  # atno 17343 bound_to 10162
  157.4090  131.0821  151.1238 LP  0  0  0  0  0  0  0  0  0  0  0  0  # atno 17370 bound_to 10713
  157.1876  130.6337  149.5693 LP  0  0  0  0  0  0  0  0  0  0  0  0  # atno 17371 bound_to 10713
  139.8776  134.9181  156.3194 LP  0  0  0  0  0  0  0  0  0  0  0  0  # atno 17394 bound_to 11000
  140.9694  133.7337  156.0513 LP  0  0  0  0  0  0  0  0  0  0  0  0  # atno 17395 bound_to 11000

$$$$
