AV-unprocessed.smi:221|AV-procd|sdf|1691|dock8
  -GOLD-   2262020133D 1   1.00000     0.00000
 Structure written by MMmdl.
 50 53  0  0  0  0  0  0  0  0  1 V2000
  151.7975  130.9247  156.3142 N   0  0  0  0  0  0  0  0  0  0  0  0
  150.8089  131.8225  156.3684 C   0  0  0  0  0  0  0  0  0  0  0  0
  150.4166  132.2871  157.4368 O   0  0  0  0  0  0  0  0  0  0  0  0
  150.1577  132.2595  155.0401 C   0  0  1  0  0  0  0  0  0  0  0  0
  148.6804  131.8793  154.8597 C   0  0  0  0  0  0  0  0  0  0  0  0
  148.2133  132.7886  153.7151 C   0  0  1  0  0  0  0  0  0  0  0  0
  147.0857  133.4147  154.0534 F   0  0  0  0  0  0  0  0  0  0  0  0
  149.3575  133.7948  153.5026 C   0  0  0  0  0  0  0  0  0  0  0  0
  150.2304  133.6792  154.6665 N   0  0  0  0  0  0  0  0  0  0  0  0
  149.9881  134.6703  155.5664 C   0  0  0  0  0  0  0  0  0  0  0  0
  149.1608  134.4768  156.6284 N   0  0  0  0  0  0  0  0  0  0  0  0
  148.9244  135.4715  157.4884 C   0  0  0  0  0  0  0  0  0  0  0  0
  149.3958  136.7197  157.4702 N   0  0  0  0  0  0  0  0  0  0  0  0
  150.2152  136.9227  156.3993 C   0  0  0  0  0  0  0  0  0  0  0  0
  150.5594  135.9614  155.4084 C   0  0  0  0  0  0  0  0  0  0  0  0
  151.4146  136.5271  154.4710 N   0  0  0  0  0  0  0  0  0  0  0  0
  151.5659  137.7565  154.8828 C   0  0  0  0  0  0  0  0  0  0  0  0
  150.8770  138.0806  156.0297 N   0  0  0  0  0  0  0  0  0  0  0  0
  150.8657  139.3714  156.6958 C   0  0  0  0  0  0  0  0  0  0  0  0
  150.4670  140.5366  155.7565 C   0  0  1  0  0  0  0  0  0  0  0  0
  149.5247  140.0856  154.6133 C   0  0  0  0  0  0  0  0  0  0  0  0
  149.7619  140.8188  153.4290 O   0  0  0  0  0  0  0  0  0  0  0  0
  149.8969  141.7387  156.5519 C   0  0  2  0  0  0  0  0  0  0  0  0
  150.9284  142.5487  157.3174 C   0  0  0  0  0  0  0  0  0  0  0  0
  150.0643  143.3031  158.3212 C   0  0  0  0  0  0  0  0  0  0  0  0
  148.9824  142.4306  158.6258 O   0  0  0  0  0  0  0  0  0  0  0  0
  148.9426  141.3580  157.6894 C   0  0  0  0  0  0  0  0  0  0  0  0
  150.7252  131.7302  154.2722 H   0  0  0  0  0  0  0  0  0  0  0  0
  148.0086  132.2271  152.8030 H   0  0  0  0  0  0  0  0  0  0  0  0
  152.2472  130.6226  157.1660 H   0  0  0  0  0  0  0  0  0  0  0  0
  152.0943  130.5560  155.4223 H   0  0  0  0  0  0  0  0  0  0  0  0
  148.5553  130.8227  154.6208 H   0  0  0  0  0  0  0  0  0  0  0  0
  148.1093  132.0812  155.7673 H   0  0  0  0  0  0  0  0  0  0  0  0
  149.9376  133.5235  152.6196 H   0  0  0  0  0  0  0  0  0  0  0  0
  148.9812  134.8058  153.3316 H   0  0  0  0  0  0  0  0  0  0  0  0
  148.2605  135.2336  158.3066 H   0  0  0  0  0  0  0  0  0  0  0  0
  152.1847  138.4685  154.3561 H   0  0  0  0  0  0  0  0  0  0  0  0
  150.1852  139.3210  157.5467 H   0  0  0  0  0  0  0  0  0  0  0  0
  151.8610  139.5343  157.1097 H   0  0  0  0  0  0  0  0  0  0  0  0
  151.3847  140.8789  155.2758 H   0  0  0  0  0  0  0  0  0  0  0  0
  149.6537  139.0250  154.3992 H   0  0  0  0  0  0  0  0  0  0  0  0
  148.4787  140.2064  154.8951 H   0  0  0  0  0  0  0  0  0  0  0  0
  149.5764  140.2627  152.6878 H   0  0  0  0  0  0  0  0  0  0  0  0
  149.3688  142.4094  155.8720 H   0  0  0  0  0  0  0  0  0  0  0  0
  151.6210  141.8887  157.8417 H   0  0  0  0  0  0  0  0  0  0  0  0
  151.5082  143.2192  156.6824 H   0  0  0  0  0  0  0  0  0  0  0  0
  150.6156  143.5855  159.2184 H   0  0  0  0  0  0  0  0  0  0  0  0
  149.6625  144.2112  157.8700 H   0  0  0  0  0  0  0  0  0  0  0  0
  147.9250  141.1849  157.3386 H   0  0  0  0  0  0  0  0  0  0  0  0
  149.2828  140.4530  158.1948 H   0  0  0  0  0  0  0  0  0  0  0  0
  1  2  1  0  0  0  0
  1 30  1  0  0  0  0
  1 31  1  0  0  0  0
  2  3  2  0  0  0  0
  2  4  1  0  0  0  0
  4 28  1  0  0  0  0
  4  9  1  0  0  0  0
  4  5  1  0  0  0  0
  5  6  1  0  0  0  0
  5 32  1  0  0  0  0
  5 33  1  0  0  0  0
  6 29  1  0  0  0  0
  6  7  1  0  0  0  0
  6  8  1  0  0  0  0
  8  9  1  0  0  0  0
  8 34  1  0  0  0  0
  8 35  1  0  0  0  0
  9 10  1  0  0  0  0
 10 15  1  0  0  0  0
 10 11  2  0  0  0  0
 11 12  1  0  0  0  0
 12 13  2  0  0  0  0
 12 36  1  0  0  0  0
 13 14  1  0  0  0  0
 14 18  1  0  0  0  0
 14 15  2  0  0  0  0
 15 16  1  0  0  0  0
 16 17  2  0  0  0  0
 17 18  1  0  0  0  0
 17 37  1  0  0  0  0
 18 19  1  0  0  0  0
 19 20  1  0  0  0  0
 19 38  1  0  0  0  0
 19 39  1  0  0  0  0
 20 21  1  0  0  0  0
 20 23  1  0  0  0  0
 20 40  1  0  0  0  0
 21 22  1  0  0  0  0
 21 41  1  0  0  0  0
 21 42  1  0  0  0  0
 22 43  1  0  0  0  0
 23 27  1  0  0  0  0
 23 24  1  0  0  0  0
 23 44  1  0  0  0  0
 24 25  1  0  0  0  0
 24 45  1  0  0  0  0
 24 46  1  0  0  0  0
 25 26  1  0  0  0  0
 25 47  1  0  0  0  0
 25 48  1  0  0  0  0
 26 27  1  0  0  0  0
 27 49  1  0  0  0  0
 27 50  1  0  0  0  0
M  END
> <s_m_source_file>
AV-unprocessed.smi

> <i_m_source_file_index>
221

> <i_lp_mmshare_version>
43012

> <i_f3d_flags>
0

> <s_epik_input>
W05IMl1DKD1PKVtDQEBIXTFbQ0gyXVtDQEBIXShGKVtDSDJdTjFjKG5bY0hdbjIpYyhjMjMpbltjSF1uM1tDSDJdW0NASF0oW0NIMl1bT0hdKVtDQEBIXTRbQ0gyXVtDSDJdT1tDSDJdNA==

> <s_epik_cmdline>
J2VwaWtfcHl0aG9uJywgJy1waCcsICc3LjAnLCAnLXRuJywgJzgnLCAnLW1hJywgJzIwMCcsICctbWV0YWxfYmluZGluZycsICctaW1hZScsICc8aW5maWxlLm1hZT4nLCAnLW9tYWUnLCAnPG91dGZpbGUubWFlPic=

> <r_lp_tautomer_probability>
1

> <r_epik_Ionization_Penalty>
0.000818822

> <r_epik_Ionization_Penalty_Charging>
0

> <r_epik_Ionization_Penalty_Neutral>
0.000818822

> <r_epik_State_Penalty>
0.000440551

> <r_epik_Charging_Adjusted_Penalty>
0.000440551

> <i_epik_Tot_Q>
0

> <i_epik_Tot_abs_Q>
0

> <r_epik_Metal_State_Penalty>
-0

> <b_epik_Metal_Only>
0

> <s_lp_Force_Field>
OPLS_2005

> <r_lp_Energy>
55.0143

> <b_lp_Chiralities_Consistent>
1

> <s_lp_Variant>
AV-unprocessed.smi:221-6

> <Gold.Version>
5.8.1

> <Gold.Id.Protein>
6NUR|6NUR_protein|mol2

> <Gold.PLP.Fitness>
43.6638

> <Gold.PLP.PLP>
-35.5037

> <Gold.PLP.part.hbond>
-5.0372

> <Gold.PLP.part.metal>
0.0000

> <Gold.PLP.part.buried>
-4.6197

> <Gold.PLP.part.nonpolar>
-27.1690

> <Gold.PLP.part.repulsive>
0.9209

> <Gold.PLP.ligand.clash>
0.0000

> <Gold.PLP.ligand.torsion>
1.8320

> <Gold.PLP.Chemscore.Hbond>
3.8672

> <Gold.PLP.Chemscore.CHOScore>
0.0000

> <Gold.PLP.Chemscore.Metal>
0.0000

> <Gold.Chemscore.Hbonds>
donor molecule, donor type, donor heavy atom, donor atom, acceptor molecule, acceptor atom, score
      L1  H    22    43       P1  7957  0.98
      P1  H  6896  6909       L1     3  0.28
      P1  H  7989  7998       L1    22  0.30
      P1  H  8011  8017       L1    22  0.60
      P1  H 10752 10764       L1    16  1.00

> <Gold.PLP.Chemscore.Internal.Correction>
0.2226

> <Gold.Rescore>
     Score         DG    S(hbond)    S(metal)    S(lipo)     H(rot)  DE(clash)    DE(int)     intcor
     10.11     -13.47       2.84        0.00      68.59       3.72       0.00       3.35       ----

> <Gold.Chemscore.Fitness>
10.1144

> <Gold.Chemscore.DG>
-13.4710

> <Gold.Chemscore.ZeroCoef>
-5.4800

> <Gold.Chemscore.Hbond>
2.8411

> <Gold.Chemscore.Metal>
0.0000

> <Gold.Chemscore.Lipo>
68.5937

> <Gold.Chemscore.Internal_Hbond>
0.0000

> <Gold.Chemscore.DEClash>
0.0021

> <Gold.Chemscore.DEInternal>
3.3544

> <Gold.Chemscore.Rot>
3.7202

> <Gold.Chemscore.Internal.Correction>
   9.000000E+99

> <Gold.Chemscore.Hbonds>
donor molecule, donor type, donor heavy atom, donor atom, acceptor molecule, acceptor atom, score
      L1  H    22    43       P1  7957  0.87
      P1  H  6896  6909       L1     3  0.28
      P1  H  7989  7998       L1    22  0.04
      P1  H  8011  8017       L1    22  0.04
      P1  H 10752 10764       L1    16  0.60

> <Gold.Chemscore.Hbond.Weighted>
-9.4893

> <Gold.Chemscore.Metal.Weighted>
-0.0000

> <Gold.Chemscore.Lipo.Weighted>
-8.0255

> <Gold.Chemscore.Internal_Hbond.Weighted>
0.0000

> <Gold.Chemscore.DEClash.Weighted>
0.0021

> <Gold.Chemscore.DEInternal.Weighted>
3.3544

> <Gold.Chemscore.Rot.Weighted>
9.5237

> <Gold.Chemscore.Internal.Correction.Weighted>
   9.000000E+99

> <Gold.Protein.RotatedTorsions>
[ 6907 6896 6895 6894 ] final  -49.45 input  -60.11 | X-H torsion
[ 7974 7965 7964 7962 ] final  -29.17 input  175.53 | X-H torsion
[ 8008 7997 7996 7995 ] final   29.23 input   59.86 | X-H torsion
[ 10167 10162 10161 10158 ] final  103.50 input  -65.29 | X-H torsion
[ 10718 10713 10712 10709 ] final   -5.98 input   66.30 | X-H torsion
[ 10763 10752 10751 10750 ] final  -67.06 input  -60.55 | X-H torsion
[ 11005 11000 10999 10996 ] final  -76.40 input  -57.11 | X-H torsion

> <Gold.Protein.ActiveResidues>
 VAL166  LYS551  ARG553  GLY616  TRP617  ASP618  TYR619  PRO620  LYS621  CYS622 
 ASP623  PHE694  ASN695  SER759  ASP760  ASP761  ALA762  ILE779  LEU786  VAL792 
 PHE793  MET794  SER795  GLU796  ALA797  LYS798  CYS799  TRP800  GLU811  SER814 

> <Gold.Protein.RotatedAtoms>
  150.8804  134.8194  159.7220 H   0  0  0  0  0  0  0  0  0  0  0  0  # atno 6907 bound_to 6896
  152.4774  134.4805  159.9674 H   0  0  0  0  0  0  0  0  0  0  0  0  # atno 6908 bound_to 6896
  151.4881  133.3492  159.2884 H   0  0  0  0  0  0  0  0  0  0  0  0  # atno 6909 bound_to 6896
  146.1236  140.5378  142.8724 H   0  0  0  0  0  0  0  0  0  0  0  0  # atno 7974 bound_to 7965
  155.0712  140.3200  155.4630 H   0  0  0  0  0  0  0  0  0  0  0  0  # atno 8008 bound_to 7997
  156.2790  140.2111  156.5785 H   0  0  0  0  0  0  0  0  0  0  0  0  # atno 8009 bound_to 7997
  154.7053  140.0503  157.0485 H   0  0  0  0  0  0  0  0  0  0  0  0  # atno 8010 bound_to 7997
  139.7258  144.7048  151.0800 H   0  0  0  0  0  0  0  0  0  0  0  0  # atno 10167 bound_to 10162
  156.7386  130.5202  149.5829 H   0  0  0  0  0  0  0  0  0  0  0  0  # atno 10718 bound_to 10713
  154.3689  135.6099  153.5730 H   0  0  0  0  0  0  0  0  0  0  0  0  # atno 10763 bound_to 10752
  152.9791  135.5833  154.4545 H   0  0  0  0  0  0  0  0  0  0  0  0  # atno 10764 bound_to 10752
  154.4295  135.2847  155.1899 H   0  0  0  0  0  0  0  0  0  0  0  0  # atno 10765 bound_to 10752
  141.1653  133.6982  156.7664 H   0  0  0  0  0  0  0  0  0  0  0  0  # atno 11005 bound_to 11000
  144.7620  140.5444  143.6729 LP  0  0  0  0  0  0  0  0  0  0  0  0  # atno 17320 bound_to 7965
  145.5414  139.1475  143.3445 LP  0  0  0  0  0  0  0  0  0  0  0  0  # atno 17321 bound_to 7965
  140.7762  143.5107  150.9656 LP  0  0  0  0  0  0  0  0  0  0  0  0  # atno 17342 bound_to 10162
  139.8795  143.7090  152.3158 LP  0  0  0  0  0  0  0  0  0  0  0  0  # atno 17343 bound_to 10162
  156.1480  130.6290  151.0557 LP  0  0  0  0  0  0  0  0  0  0  0  0  # atno 17370 bound_to 10713
  157.6828  131.0833  150.7324 LP  0  0  0  0  0  0  0  0  0  0  0  0  # atno 17371 bound_to 10713
  140.2496  134.8550  157.3654 LP  0  0  0  0  0  0  0  0  0  0  0  0  # atno 17394 bound_to 11000
  140.1715  134.4602  155.7828 LP  0  0  0  0  0  0  0  0  0  0  0  0  # atno 17395 bound_to 11000

$$$$
