AV-unprocessed.smi:2233|AV-procd|sdf|9040|dock3
  -GOLD-   2272012243D 1   1.00000     0.00000
 Structure written by MMmdl.
 43 44  0  0  0  0  0  0  0  0  2 V2000
  151.2586  145.1805  158.8533 C   0  0  0  0  0  0  0  0  0  0  0  0
  151.9337  144.2003  159.1264 C   0  0  0  0  0  0  0  0  0  0  0  0
  152.7458  143.0206  159.4721 C   0  0  0  0  0  0  0  0  0  0  0  0
  151.9582  141.7005  159.5608 C   0  0  0  0  0  0  0  0  0  0  0  0
  151.7592  140.9907  158.2091 C   0  0  0  0  0  0  0  0  0  0  0  0
  150.8052  141.7617  157.2792 C   0  0  0  0  0  0  0  0  0  0  0  0
  150.4661  140.9911  155.9993 C   0  0  0  0  0  0  0  0  0  0  0  0
  151.3690  140.5140  155.3125 O   0  0  0  0  0  0  0  0  0  0  0  0
  149.1547  140.8852  155.7180 N   0  0  0  0  0  0  0  0  0  0  0  0
  148.5192  140.2207  154.6290 C   0  0  0  0  0  0  0  0  0  0  0  0
  149.0612  139.0687  154.0050 C   0  0  0  0  0  0  0  0  0  0  0  0
  148.4187  138.4904  152.9681 N   0  3  0  0  0  0  0  0  0  0  0  0
  147.2570  138.9620  152.4707 C   0  0  0  0  0  0  0  0  0  0  0  0
  146.6711  140.1115  153.0340 C   0  0  0  0  0  0  0  0  0  0  0  0
  147.3060  140.7567  154.1226 C   0  0  0  0  0  0  0  0  0  0  0  0
  146.7457  141.9082  154.6998 N   0  0  0  0  0  0  0  0  0  0  0  0
  145.7686  142.5785  153.8516 C   0  0  0  0  0  0  0  0  0  0  0  0
  145.3302  143.9012  154.5034 C   0  0  0  0  0  0  0  0  0  0  0  0
  144.8319  143.6442  155.8134 O   0  0  0  0  0  0  0  0  0  0  0  0
  145.8191  143.0585  156.6580 C   0  0  0  0  0  0  0  0  0  0  0  0
  146.2725  141.7135  156.0643 C   0  0  0  0  0  0  0  0  0  0  0  0
  150.6716  146.0392  158.6152 H   0  0  0  0  0  0  0  0  0  0  0  0
  153.5419  142.9364  158.7319 H   0  0  0  0  0  0  0  0  0  0  0  0
  153.2260  143.2283  160.4286 H   0  0  0  0  0  0  0  0  0  0  0  0
  152.4888  141.0291  160.2368 H   0  0  0  0  0  0  0  0  0  0  0  0
  150.9872  141.8850  160.0232 H   0  0  0  0  0  0  0  0  0  0  0  0
  152.7236  140.8637  157.7156 H   0  0  0  0  0  0  0  0  0  0  0  0
  151.3674  139.9877  158.3849 H   0  0  0  0  0  0  0  0  0  0  0  0
  149.8839  141.9940  157.8161 H   0  0  0  0  0  0  0  0  0  0  0  0
  151.2511  142.7163  156.9979 H   0  0  0  0  0  0  0  0  0  0  0  0
  148.5262  141.2673  156.4105 H   0  0  0  0  0  0  0  0  0  0  0  0
  149.9880  138.5893  154.2807 H   0  0  0  0  0  0  0  0  0  0  0  0
  146.8374  138.4137  151.6396 H   0  0  0  0  0  0  0  0  0  0  0  0
  145.7439  140.4917  152.6304 H   0  0  0  0  0  0  0  0  0  0  0  0
  146.2004  142.7705  152.8685 H   0  0  0  0  0  0  0  0  0  0  0  0
  144.9003  141.9350  153.7041 H   0  0  0  0  0  0  0  0  0  0  0  0
  146.1616  144.6064  154.5506 H   0  0  0  0  0  0  0  0  0  0  0  0
  144.5461  144.3715  153.9097 H   0  0  0  0  0  0  0  0  0  0  0  0
  146.6649  143.7385  156.7724 H   0  0  0  0  0  0  0  0  0  0  0  0
  145.3945  142.9077  157.6505 H   0  0  0  0  0  0  0  0  0  0  0  0
  145.4405  141.0080  156.0719 H   0  0  0  0  0  0  0  0  0  0  0  0
  147.0674  141.2836  156.6750 H   0  0  0  0  0  0  0  0  0  0  0  0
  148.8325  137.6615  152.5403 H   0  0  0  0  0  0  0  0  0  0  0  0
  1  2  3  0  0  0  0
  1 22  1  0  0  0  0
  2  3  1  0  0  0  0
  3  4  1  0  0  0  0
  3 23  1  0  0  0  0
  3 24  1  0  0  0  0
  4  5  1  0  0  0  0
  4 25  1  0  0  0  0
  4 26  1  0  0  0  0
  5  6  1  0  0  0  0
  5 27  1  0  0  0  0
  5 28  1  0  0  0  0
  6  7  1  0  0  0  0
  6 29  1  0  0  0  0
  6 30  1  0  0  0  0
  7  8  2  0  0  0  0
  7  9  1  0  0  0  0
  9 10  1  0  0  0  0
  9 31  1  0  0  0  0
 10 15  1  0  0  0  0
 10 11  2  0  0  0  0
 11 12  1  0  0  0  0
 11 32  1  0  0  0  0
 12 13  2  0  0  0  0
 12 43  1  0  0  0  0
 13 14  1  0  0  0  0
 13 33  1  0  0  0  0
 14 15  2  0  0  0  0
 14 34  1  0  0  0  0
 15 16  1  0  0  0  0
 16 21  1  0  0  0  0
 16 17  1  0  0  0  0
 17 18  1  0  0  0  0
 17 35  1  0  0  0  0
 17 36  1  0  0  0  0
 18 19  1  0  0  0  0
 18 37  1  0  0  0  0
 18 38  1  0  0  0  0
 19 20  1  0  0  0  0
 20 21  1  0  0  0  0
 20 39  1  0  0  0  0
 20 40  1  0  0  0  0
 21 41  1  0  0  0  0
 21 42  1  0  0  0  0
M  CHG  1  12   1
M  END
> <s_m_source_file>
AV-unprocessed.smi

> <i_m_source_file_index>
2233

> <i_lp_mmshare_version>
43012

> <i_f3d_flags>
0

> <s_epik_input>
W0NIXSNDW0NIMl1bQ0gyXVtDSDJdW0NIMl1DKD1PKVtOSF1jMVtjSF1uW2NIXVtjSF1jMU4yW0NIMl1bQ0gyXU9bQ0gyXVtDSDJdMg==

> <s_epik_cmdline>
J2VwaWtfcHl0aG9uJywgJy1waCcsICc3LjAnLCAnLXRuJywgJzgnLCAnLW1hJywgJzIwMCcsICctbWV0YWxfYmluZGluZycsICctaW1hZScsICc8aW5maWxlLm1hZT4nLCAnLW9tYWUnLCAnPG91dGZpbGUubWFlPic=

> <r_lp_tautomer_probability>
1

> <r_epik_Ionization_Penalty>
0.153155

> <r_epik_Ionization_Penalty_Charging>
0.153154

> <r_epik_Ionization_Penalty_Neutral>
1.2848e-06

> <r_epik_State_Penalty>
0.142445

> <r_epik_Charging_Adjusted_Penalty>
0.295599

> <i_epik_Tot_Q>
1

> <i_epik_Tot_abs_Q>
1

> <r_epik_Metal_State_Penalty>
0.464899

> <b_epik_Metal_Only>
0

> <s_lp_Force_Field>
OPLS_2005

> <r_lp_Energy>
30.3927

> <b_lp_Chiralities_Consistent>
1

> <s_lp_Variant>
AV-unprocessed.smi:2233-1

> <Gold.Version>
5.8.1

> <Gold.Id.Protein>
6NUR|6NUR_protein|mol2

> <Gold.PLP.Fitness>
46.6511

> <Gold.PLP.PLP>
-39.2860

> <Gold.PLP.part.hbond>
-3.0000

> <Gold.PLP.part.metal>
0.0000

> <Gold.PLP.part.buried>
-1.8406

> <Gold.PLP.part.nonpolar>
-35.1834

> <Gold.PLP.part.repulsive>
0.4603

> <Gold.PLP.ligand.clash>
0.0000

> <Gold.PLP.ligand.torsion>
0.7511

> <Gold.PLP.Chemscore.Hbond>
2.8960

> <Gold.PLP.Chemscore.CHOScore>
0.0000

> <Gold.PLP.Chemscore.Metal>
0.0000

> <Gold.Chemscore.Hbonds>
donor molecule, donor type, donor heavy atom, donor atom, acceptor molecule, acceptor atom, score
      L1  H    12    43       P1  7948  2.00
      P1  H  7989  7998       L1     8  0.88

> <Gold.PLP.Chemscore.Internal.Correction>
0.1794

> <Gold.Rescore>
     Score         DG    S(hbond)    S(metal)    S(lipo)     H(rot)  DE(clash)    DE(int)     intcor
     17.02     -20.72       1.93        0.00     108.84       1.54       1.50       2.20       ----

> <Gold.Chemscore.Fitness>
17.0205

> <Gold.Chemscore.DG>
-20.7207

> <Gold.Chemscore.ZeroCoef>
-5.4800

> <Gold.Chemscore.Hbond>
1.9294

> <Gold.Chemscore.Metal>
0.0000

> <Gold.Chemscore.Lipo>
108.8362

> <Gold.Chemscore.Internal_Hbond>
0.0000

> <Gold.Chemscore.DEClash>
1.5039

> <Gold.Chemscore.DEInternal>
2.1963

> <Gold.Chemscore.Rot>
1.5380

> <Gold.Chemscore.Internal.Correction>
   9.000000E+99

> <Gold.Chemscore.Hbonds>
donor molecule, donor type, donor heavy atom, donor atom, acceptor molecule, acceptor atom, score
      L1  H    12    43       P1  7948  0.96
      P1  H  7989  7998       L1     8  0.86

> <Gold.Chemscore.Hbond.Weighted>
-6.4442

> <Gold.Chemscore.Metal.Weighted>
-0.0000

> <Gold.Chemscore.Lipo.Weighted>
-12.7338

> <Gold.Chemscore.Internal_Hbond.Weighted>
0.0000

> <Gold.Chemscore.DEClash.Weighted>
1.5039

> <Gold.Chemscore.DEInternal.Weighted>
2.1963

> <Gold.Chemscore.Rot.Weighted>
3.9373

> <Gold.Chemscore.Internal.Correction.Weighted>
   9.000000E+99

> <Gold.Protein.RotatedTorsions>
[ 6907 6896 6895 6894 ] final   50.59 input  -60.11 | X-H torsion
[ 7974 7965 7964 7962 ] final  111.34 input  175.53 | X-H torsion
[ 8008 7997 7996 7995 ] final  -11.70 input   59.86 | X-H torsion
[ 10167 10162 10161 10158 ] final   72.30 input  -65.29 | X-H torsion
[ 10718 10713 10712 10709 ] final  133.65 input   66.30 | X-H torsion
[ 10763 10752 10751 10750 ] final   47.95 input  -60.55 | X-H torsion
[ 11005 11000 10999 10996 ] final   -7.56 input  -57.11 | X-H torsion

> <Gold.Protein.ActiveResidues>
 VAL166  LYS551  ARG553  GLY616  TRP617  ASP618  TYR619  PRO620  LYS621  CYS622 
 ASP623  PHE694  ASN695  SER759  ASP760  ASP761  ALA762  ILE779  LEU786  VAL792 
 PHE793  MET794  SER795  GLU796  ALA797  LYS798  CYS799  TRP800  GLU811  SER814 

> <Gold.Protein.RotatedAtoms>
  152.3035  134.7583  160.0352 H   0  0  0  0  0  0  0  0  0  0  0  0  # atno 6907 bound_to 6896
  151.8088  133.3374  159.3557 H   0  0  0  0  0  0  0  0  0  0  0  0  # atno 6908 bound_to 6896
  150.7285  134.5613  159.5888 H   0  0  0  0  0  0  0  0  0  0  0  0  # atno 6909 bound_to 6896
  145.2434  139.2769  143.4105 H   0  0  0  0  0  0  0  0  0  0  0  0  # atno 7974 bound_to 7965
  154.5441  140.2295  155.8592 H   0  0  0  0  0  0  0  0  0  0  0  0  # atno 8008 bound_to 7997
  156.1886  140.3082  155.9250 H   0  0  0  0  0  0  0  0  0  0  0  0  # atno 8009 bound_to 7997
  155.3199  140.0440  157.3029 H   0  0  0  0  0  0  0  0  0  0  0  0  # atno 8010 bound_to 7997
  140.0367  144.5422  150.7465 H   0  0  0  0  0  0  0  0  0  0  0  0  # atno 10167 bound_to 10162
  157.4752  131.1082  150.9752 H   0  0  0  0  0  0  0  0  0  0  0  0  # atno 10718 bound_to 10713
  152.9795  135.5960  154.3846 H   0  0  0  0  0  0  0  0  0  0  0  0  # atno 10763 bound_to 10752
  154.3507  135.2767  155.2375 H   0  0  0  0  0  0  0  0  0  0  0  0  # atno 10764 bound_to 10752
  154.4416  135.6012  153.6188 H   0  0  0  0  0  0  0  0  0  0  0  0  # atno 10765 bound_to 10752
  140.7140  133.8884  155.8772 H   0  0  0  0  0  0  0  0  0  0  0  0  # atno 11005 bound_to 11000
  146.3322  140.2804  142.8610 LP  0  0  0  0  0  0  0  0  0  0  0  0  # atno 17320 bound_to 7965
  144.9568  140.8235  143.5538 LP  0  0  0  0  0  0  0  0  0  0  0  0  # atno 17321 bound_to 7965
  140.7278  143.2655  151.4059 LP  0  0  0  0  0  0  0  0  0  0  0  0  # atno 17342 bound_to 10162
  139.6040  144.1235  152.2229 LP  0  0  0  0  0  0  0  0  0  0  0  0  # atno 17343 bound_to 10162
  157.0504  130.5785  149.5369 LP  0  0  0  0  0  0  0  0  0  0  0  0  # atno 17370 bound_to 10713
  156.0093  130.5183  150.7936 LP  0  0  0  0  0  0  0  0  0  0  0  0  # atno 17371 bound_to 10713
  141.0060  134.1086  157.4270 LP  0  0  0  0  0  0  0  0  0  0  0  0  # atno 17394 bound_to 11000
  139.8864  135.0081  156.6498 LP  0  0  0  0  0  0  0  0  0  0  0  0  # atno 17395 bound_to 11000

$$$$
