AV-unprocessed.smi:1819|AV-procd|sdf|7383|dock5
  -GOLD-   22720 9 53D 1   1.00000     0.00000
 Structure written by MMmdl.
 28 28  0  0  0  0  0  0  0  0  2 V2000
  151.0434  139.7110  154.4017 O   0  0  0  0  0  0  0  0  0  0  0  0
  150.5914  139.2896  155.4670 C   0  0  0  0  0  0  0  0  0  0  0  0
  150.3955  137.7844  155.6831 C   0  0  0  0  0  0  0  0  0  0  0  0
  149.9469  137.4753  157.0500 N   0  0  0  0  0  0  0  0  0  0  0  0
  148.6048  137.7382  157.3763 C   0  0  0  0  0  0  0  0  0  0  0  0
  148.1114  137.4927  158.6050 C   0  0  0  0  0  0  0  0  0  0  0  0
  149.0090  136.9391  159.6115 C   0  0  0  0  0  0  0  0  0  0  0  0
  148.5745  136.7042  160.7375 O   0  0  0  0  0  0  0  0  0  0  0  0
  150.3040  136.7057  159.2477 N   0  5  0  0  0  0  0  0  0  0  0  0
  150.7926  136.9623  157.9947 C   0  0  0  0  0  0  0  0  0  0  0  0
  151.9662  136.7467  157.6880 O   0  0  0  0  0  0  0  0  0  0  0  0
  150.2553  140.0843  156.4944 N   0  0  0  0  0  0  0  0  0  0  0  0
  150.2902  141.5430  156.4855 C   0  0  0  0  0  0  0  0  0  0  0  0
  151.2566  142.0893  157.5493 C   0  0  0  0  0  0  0  0  0  0  0  0
  150.6169  143.5728  158.3821 S   0  0  0  0  0  0  0  0  0  0  0  0
  152.1594  144.2759  159.0244 C   0  0  0  0  0  0  0  0  0  0  0  0
  152.8025  143.3640  159.7513 F   0  0  0  0  0  0  0  0  0  0  0  0
  152.9479  144.6553  158.0195 F   0  0  0  0  0  0  0  0  0  0  0  0
  151.8990  145.3303  159.7965 F   0  0  0  0  0  0  0  0  0  0  0  0
  149.6722  137.4269  154.9492 H   0  0  0  0  0  0  0  0  0  0  0  0
  151.3195  137.2458  155.4632 H   0  0  0  0  0  0  0  0  0  0  0  0
  148.0092  138.1538  156.5768 H   0  0  0  0  0  0  0  0  0  0  0  0
  147.0788  137.7032  158.8409 H   0  0  0  0  0  0  0  0  0  0  0  0
  149.8973  139.6435  157.3292 H   0  0  0  0  0  0  0  0  0  0  0  0
  150.6308  141.8543  155.4979 H   0  0  0  0  0  0  0  0  0  0  0  0
  149.2954  141.9729  156.6134 H   0  0  0  0  0  0  0  0  0  0  0  0
  151.4700  141.3221  158.2944 H   0  0  0  0  0  0  0  0  0  0  0  0
  152.2063  142.3471  157.0807 H   0  0  0  0  0  0  0  0  0  0  0  0
  1  2  2  0  0  0  0
  2  3  1  0  0  0  0
  2 12  1  0  0  0  0
  3  4  1  0  0  0  0
  3 20  1  0  0  0  0
  3 21  1  0  0  0  0
  4 10  1  0  0  0  0
  4  5  1  0  0  0  0
  5  6  2  0  0  0  0
  5 22  1  0  0  0  0
  6  7  1  0  0  0  0
  6 23  1  0  0  0  0
  7  8  2  0  0  0  0
  7  9  1  0  0  0  0
  9 10  1  0  0  0  0
 10 11  2  0  0  0  0
 12 13  1  0  0  0  0
 12 24  1  0  0  0  0
 13 14  1  0  0  0  0
 13 25  1  0  0  0  0
 13 26  1  0  0  0  0
 14 15  1  0  0  0  0
 14 27  1  0  0  0  0
 14 28  1  0  0  0  0
 15 16  1  0  0  0  0
 16 17  1  0  0  0  0
 16 18  1  0  0  0  0
 16 19  1  0  0  0  0
M  CHG  1   9  -1
M  END
> <s_m_source_file>
AV-unprocessed.smi

> <i_m_source_file_index>
1819

> <i_lp_mmshare_version>
43012

> <i_f3d_flags>
0

> <s_epik_input>
RkMoRikoRilTW0NIMl1bQ0gyXVtOSF1DKD1PKVtDSDJdbjFbY0hdW2NIXWMoPU8pW25IXWMxPU8=

> <s_epik_cmdline>
J2VwaWtfcHl0aG9uJywgJy1waCcsICc3LjAnLCAnLXRuJywgJzgnLCAnLW1hJywgJzIwMCcsICctbWV0YWxfYmluZGluZycsICctaW1hZScsICc8aW5maWxlLm1hZT4nLCAnLW9tYWUnLCAnPG91dGZpbGUubWFlPic=

> <r_lp_tautomer_probability>
0.999537

> <r_epik_Ionization_Penalty>
3.04617

> <r_epik_Ionization_Penalty_Charging>
2.49125e-08

> <r_epik_Ionization_Penalty_Neutral>
3.04617

> <r_epik_State_Penalty>
3.04516

> <r_epik_Charging_Adjusted_Penalty>
3.04516

> <i_epik_Tot_Q>
-1

> <i_epik_Tot_abs_Q>
1

> <r_epik_Metal_State_Penalty>
0.457105

> <b_epik_Metal_Only>
1

> <s_lp_Force_Field>
OPLS_2005

> <r_lp_Energy>
9.91428

> <b_lp_Chiralities_Consistent>
1

> <s_lp_Variant>
AV-unprocessed.smi:1819-2

> <Gold.Version>
5.8.1

> <Gold.Id.Protein>
6NUR|6NUR_protein|mol2

> <Gold.PLP.Fitness>
46.6478

> <Gold.PLP.PLP>
-35.8139

> <Gold.PLP.part.hbond>
-3.0000

> <Gold.PLP.part.metal>
0.0000

> <Gold.PLP.part.buried>
-5.6921

> <Gold.PLP.part.nonpolar>
-27.5941

> <Gold.PLP.part.repulsive>
0.1516

> <Gold.PLP.ligand.clash>
0.0000

> <Gold.PLP.ligand.torsion>
0.6230

> <Gold.PLP.Chemscore.Hbond>
4.0000

> <Gold.PLP.Chemscore.CHOScore>
0.0000

> <Gold.PLP.Chemscore.Metal>
0.0000

> <Gold.Chemscore.Hbonds>
donor molecule, donor type, donor heavy atom, donor atom, acceptor molecule, acceptor atom, score
      P1  H  6896  6909       L1     9  2.00
      P1  H  6931  6943       L1     8  0.99
      P1  H  7989  7998       L1     1  1.00

> <Gold.PLP.Chemscore.Internal.Correction>
0.0798

> <Gold.Rescore>
     Score         DG    S(hbond)    S(metal)    S(lipo)     H(rot)  DE(clash)    DE(int)     intcor
      9.73     -11.56       2.47        0.00      44.38       2.88       0.04       1.79       ----

> <Gold.Chemscore.Fitness>
9.7303

> <Gold.Chemscore.DG>
-11.5641

> <Gold.Chemscore.ZeroCoef>
-5.4800

> <Gold.Chemscore.Hbond>
2.4708

> <Gold.Chemscore.Metal>
0.0000

> <Gold.Chemscore.Lipo>
44.3752

> <Gold.Chemscore.Internal_Hbond>
0.0000

> <Gold.Chemscore.DEClash>
0.0389

> <Gold.Chemscore.DEInternal>
1.7949

> <Gold.Chemscore.Rot>
2.8751

> <Gold.Chemscore.Internal.Correction>
   9.000000E+99

> <Gold.Chemscore.Hbonds>
donor molecule, donor type, donor heavy atom, donor atom, acceptor molecule, acceptor atom, score
      P1  H  6896  6909       L1     9  0.45
      P1  H  6931  6943       L1     8  0.55
      P1  H  7989  7998       L1     1  0.97

> <Gold.Chemscore.Hbond.Weighted>
-8.2526

> <Gold.Chemscore.Metal.Weighted>
-0.0000

> <Gold.Chemscore.Lipo.Weighted>
-5.1919

> <Gold.Chemscore.Internal_Hbond.Weighted>
0.0000

> <Gold.Chemscore.DEClash.Weighted>
0.0389

> <Gold.Chemscore.DEInternal.Weighted>
1.7949

> <Gold.Chemscore.Rot.Weighted>
7.3603

> <Gold.Chemscore.Internal.Correction.Weighted>
   9.000000E+99

> <Gold.Protein.RotatedTorsions>
[ 6907 6896 6895 6894 ] final   68.84 input  -60.11 | X-H torsion
[ 7974 7965 7964 7962 ] final  149.13 input  175.53 | X-H torsion
[ 8008 7997 7996 7995 ] final  -32.44 input   59.86 | X-H torsion
[ 10167 10162 10161 10158 ] final -133.43 input  -65.29 | X-H torsion
[ 10718 10713 10712 10709 ] final   47.37 input   66.30 | X-H torsion
[ 10763 10752 10751 10750 ] final -125.83 input  -60.55 | X-H torsion
[ 11005 11000 10999 10996 ] final  -68.25 input  -57.11 | X-H torsion

> <Gold.Protein.ActiveResidues>
 VAL166  LYS551  ARG553  GLY616  TRP617  ASP618  TYR619  PRO620  LYS621  CYS622 
 ASP623  PHE694  ASN695  SER759  ASP760  ASP761  ALA762  ILE779  LEU786  VAL792 
 PHE793  MET794  SER795  GLU796  ALA797  LYS798  CYS799  TRP800  GLU811  SER814 

> <Gold.Protein.RotatedAtoms>
  152.4647  134.5104  159.9751 H   0  0  0  0  0  0  0  0  0  0  0  0  # atno 6907 bound_to 6896
  151.5144  133.3472  159.2898 H   0  0  0  0  0  0  0  0  0  0  0  0  # atno 6908 bound_to 6896
  150.8625  134.8010  159.7156 H   0  0  0  0  0  0  0  0  0  0  0  0  # atno 6909 bound_to 6896
  144.8461  139.6242  143.5995 H   0  0  0  0  0  0  0  0  0  0  0  0  # atno 7974 bound_to 7965
  154.4180  140.1737  156.1728 H   0  0  0  0  0  0  0  0  0  0  0  0  # atno 8008 bound_to 7997
  155.9746  140.3383  155.6583 H   0  0  0  0  0  0  0  0  0  0  0  0  # atno 8009 bound_to 7997
  155.6580  140.0698  157.2554 H   0  0  0  0  0  0  0  0  0  0  0  0  # atno 8010 bound_to 7997
  139.8983  143.6638  152.2599 H   0  0  0  0  0  0  0  0  0  0  0  0  # atno 10167 bound_to 10162
  157.4577  130.8177  149.7854 H   0  0  0  0  0  0  0  0  0  0  0  0  # atno 10718 bound_to 10713
  154.8740  135.4016  154.3332 H   0  0  0  0  0  0  0  0  0  0  0  0  # atno 10763 bound_to 10752
  153.4142  135.7021  153.6343 H   0  0  0  0  0  0  0  0  0  0  0  0  # atno 10764 bound_to 10752
  153.5033  135.3723  155.2521 H   0  0  0  0  0  0  0  0  0  0  0  0  # atno 10765 bound_to 10752
  141.1527  133.6737  156.6418 H   0  0  0  0  0  0  0  0  0  0  0  0  # atno 11005 bound_to 11000
  146.2745  139.6718  142.9273 LP  0  0  0  0  0  0  0  0  0  0  0  0  # atno 17320 bound_to 7965
  145.4595  141.0432  143.2760 LP  0  0  0  0  0  0  0  0  0  0  0  0  # atno 17321 bound_to 7965
  139.7048  144.7630  151.1212 LP  0  0  0  0  0  0  0  0  0  0  0  0  # atno 17342 bound_to 10162
  140.7712  143.5410  150.9313 LP  0  0  0  0  0  0  0  0  0  0  0  0  # atno 17343 bound_to 10162
  156.0015  130.3878  150.2589 LP  0  0  0  0  0  0  0  0  0  0  0  0  # atno 17370 bound_to 10713
  157.0765  131.0131  151.3172 LP  0  0  0  0  0  0  0  0  0  0  0  0  # atno 17371 bound_to 10713
  140.3388  134.7867  157.4382 LP  0  0  0  0  0  0  0  0  0  0  0  0  # atno 17394 bound_to 11000
  140.0955  134.5542  155.8402 LP  0  0  0  0  0  0  0  0  0  0  0  0  # atno 17395 bound_to 11000

$$$$
