AV-unprocessed.smi:54|AV-procd|sdf|545|dock10
  -GOLD-   2262016443D 1   1.00000     0.00000
 Structure written by MMmdl.
 43 45  0  0  0  0  0  0  0  0  2 V2000
  152.3952  142.7651  160.7177 C   0  0  0  0  0  0  0  0  0  0  0  0
  152.4319  143.5432  159.3919 C   0  0  0  0  0  0  0  0  0  0  0  0
  151.7330  144.9065  159.5261 C   0  0  0  0  0  0  0  0  0  0  0  0
  151.8026  142.7177  158.2605 C   0  0  0  0  0  0  0  0  0  0  0  0
  150.8576  143.1932  157.6273 O   0  0  0  0  0  0  0  0  0  0  0  0
  152.3676  141.5082  158.0461 N   0  0  0  0  0  0  0  0  0  0  0  0
  152.0433  140.5313  157.0963 C   0  0  0  0  0  0  0  0  0  0  0  0
  150.9363  140.7969  156.4452 N   0  0  0  0  0  0  0  0  0  0  0  0
  150.6301  139.8329  155.5041 C   0  0  0  0  0  0  0  0  0  0  0  0
  151.3371  138.7022  155.2007 C   0  0  0  0  0  0  0  0  0  0  0  0
  150.7225  137.9734  154.1896 N   0  0  0  0  0  0  0  0  0  0  0  0
  149.6488  138.7157  153.9259 C   0  0  0  0  0  0  0  0  0  0  0  0
  149.5226  139.8376  154.6648 N   0  0  0  0  0  0  0  0  0  0  0  0
  148.4456  140.8737  154.5972 C   0  0  2  0  0  0  0  0  0  0  0  0
  148.0516  141.1708  155.9064 O   0  0  0  0  0  0  0  0  0  0  0  0
  146.6809  140.8342  156.1208 C   0  0  2  0  0  0  0  0  0  0  0  0
  146.4895  140.2987  157.5480 C   0  0  0  0  0  0  0  0  0  0  0  0
  146.7829  141.3102  158.4871 O   0  0  0  0  0  0  0  0  0  0  0  0
  146.3849  139.7992  155.0338 C   0  0  1  0  0  0  0  0  0  0  0  0
  145.0099  139.7005  154.7153 O   0  0  0  0  0  0  0  0  0  0  0  0
  147.2292  140.2941  153.8680 C   0  0  1  0  0  0  0  0  0  0  0  0
  146.5840  141.2882  153.0938 O   0  0  0  0  0  0  0  0  0  0  0  0
  152.5835  138.4676  155.9658 C   0  0  0  0  0  0  0  0  0  0  0  0
  153.2531  137.4649  155.7262 O   0  0  0  0  0  0  0  0  0  0  0  0
  152.8872  139.4199  156.8977 N   0  5  0  0  0  0  0  0  0  0  0  0
  148.9122  141.7270  154.1032 H   0  0  0  0  0  0  0  0  0  0  0  0
  146.0721  141.7237  155.9479 H   0  0  0  0  0  0  0  0  0  0  0  0
  146.7476  138.8190  155.3477 H   0  0  0  0  0  0  0  0  0  0  0  0
  147.5222  139.4833  153.1990 H   0  0  0  0  0  0  0  0  0  0  0  0
  152.8954  141.8004  160.6244 H   0  0  0  0  0  0  0  0  0  0  0  0
  151.3719  142.5796  161.0470 H   0  0  0  0  0  0  0  0  0  0  0  0
  152.9007  143.3197  161.5085 H   0  0  0  0  0  0  0  0  0  0  0  0
  153.4782  143.7290  159.1432 H   0  0  0  0  0  0  0  0  0  0  0  0
  151.7471  145.4533  158.5824 H   0  0  0  0  0  0  0  0  0  0  0  0
  152.2314  145.5274  160.2709 H   0  0  0  0  0  0  0  0  0  0  0  0
  150.6917  144.7967  159.8321 H   0  0  0  0  0  0  0  0  0  0  0  0
  153.1678  141.3087  158.6279 H   0  0  0  0  0  0  0  0  0  0  0  0
  148.9354  138.4334  153.1668 H   0  0  0  0  0  0  0  0  0  0  0  0
  145.4516  140.0014  157.7008 H   0  0  0  0  0  0  0  0  0  0  0  0
  147.1078  139.4200  157.7320 H   0  0  0  0  0  0  0  0  0  0  0  0
  146.5616  142.1467  158.1074 H   0  0  0  0  0  0  0  0  0  0  0  0
  144.8470  140.2103  153.9362 H   0  0  0  0  0  0  0  0  0  0  0  0
  145.6954  141.0097  152.9324 H   0  0  0  0  0  0  0  0  0  0  0  0
  1  2  1  0  0  0  0
  1 30  1  0  0  0  0
  1 31  1  0  0  0  0
  1 32  1  0  0  0  0
  2  3  1  0  0  0  0
  2  4  1  0  0  0  0
  2 33  1  0  0  0  0
  3 34  1  0  0  0  0
  3 35  1  0  0  0  0
  3 36  1  0  0  0  0
  4  5  2  0  0  0  0
  4  6  1  0  0  0  0
  6 37  1  0  0  0  0
  6  7  1  0  0  0  0
  7 25  1  0  0  0  0
  7  8  2  0  0  0  0
  8  9  1  0  0  0  0
  9 13  1  0  0  0  0
  9 10  2  0  0  0  0
 10 11  1  0  0  0  0
 10 23  1  0  0  0  0
 11 12  2  0  0  0  0
 12 13  1  0  0  0  0
 12 38  1  0  0  0  0
 13 14  1  0  0  0  0
 14 26  1  0  0  0  0
 14 21  1  0  0  0  0
 14 15  1  0  0  0  0
 15 16  1  0  0  0  0
 16 27  1  0  0  0  0
 16 17  1  0  0  0  0
 16 19  1  0  0  0  0
 17 18  1  0  0  0  0
 17 39  1  0  0  0  0
 17 40  1  0  0  0  0
 18 41  1  0  0  0  0
 19 28  1  0  0  0  0
 19 20  1  0  0  0  0
 19 21  1  0  0  0  0
 20 42  1  0  0  0  0
 21 29  1  0  0  0  0
 21 22  1  0  0  0  0
 22 43  1  0  0  0  0
 23 24  2  0  0  0  0
 23 25  1  0  0  0  0
M  CHG  1  25  -1
M  END
> <s_m_source_file>
AV-unprocessed.smi

> <i_m_source_file_index>
54

> <i_lp_mmshare_version>
43012

> <i_f3d_flags>
0

> <s_epik_input>
W0NIM11bQ0hdKFtDSDNdKUMoPU8pW05IXWMobjEpW25IXWMoPU8pYyhjMTIpbltjSF1uMltDQEBIXTNPW0NASF0oW0NIMl1bT0hdKVtDQEBIXShbT0hdKVtDQEhdM1tPSF0=

> <s_epik_cmdline>
J2VwaWtfcHl0aG9uJywgJy1waCcsICc3LjAnLCAnLXRuJywgJzgnLCAnLW1hJywgJzIwMCcsICctbWV0YWxfYmluZGluZycsICctaW1hZScsICc8aW5maWxlLm1hZT4nLCAnLW9tYWUnLCAnPG91dGZpbGUubWFlPic=

> <r_lp_tautomer_probability>
0.85571

> <r_epik_Ionization_Penalty>
1.75936

> <r_epik_Ionization_Penalty_Charging>
4.55893e-11

> <r_epik_Ionization_Penalty_Neutral>
1.75936

> <r_epik_State_Penalty>
1.72072

> <r_epik_Charging_Adjusted_Penalty>
1.72072

> <i_epik_Tot_Q>
-1

> <i_epik_Tot_abs_Q>
1

> <r_epik_Metal_State_Penalty>
0.400338

> <b_epik_Metal_Only>
1

> <s_epik_Chemistry_Notes>
This compound contains an acetal/aminal-like group ( X-CH(R)-Y where X, Y are N, S, or O) that may be acid/base labile, releasing an aldehyde.

> <s_lp_Force_Field>
OPLS_2005

> <r_lp_Energy>
58.3918

> <b_lp_Chiralities_Consistent>
1

> <s_lp_Variant>
AV-unprocessed.smi:54-17

> <Gold.Version>
5.8.1

> <Gold.Id.Protein>
6NUR|6NUR_protein|mol2

> <Gold.PLP.Fitness>
52.7442

> <Gold.PLP.PLP>
-36.4371

> <Gold.PLP.part.hbond>
-5.0000

> <Gold.PLP.part.metal>
0.0000

> <Gold.PLP.part.buried>
-4.2379

> <Gold.PLP.part.nonpolar>
-29.1467

> <Gold.PLP.part.repulsive>
0.5714

> <Gold.PLP.ligand.clash>
0.0000

> <Gold.PLP.ligand.torsion>
0.4395

> <Gold.PLP.Chemscore.Hbond>
4.5067

> <Gold.PLP.Chemscore.CHOScore>
1.2096

> <Gold.PLP.Chemscore.Metal>
0.0000

> <Gold.Chemscore.Hbonds>
donor molecule, donor type, donor heavy atom, donor atom, acceptor molecule, acceptor atom, score
      L1  H    20    42       P1 10175  0.90
      L1  H    22    43       P1 10175  0.78
      P1  H  6934  6946       L1    18  0.19
      P1  H  7997  8008       L1    25  2.00
      P1  H 10752 10765       L1    24  0.34
      L1  C    12    38       P1  7948  0.90
      L1  C    12    38       P1  7957  0.32

> <Gold.PLP.Chemscore.Internal.Correction>
0.0371

> <Gold.Rescore>
     Score         DG    S(hbond)    S(metal)    S(lipo)     H(rot)  DE(clash)    DE(int)     intcor
      7.03     -10.36       2.75        0.00      51.09       4.02       0.29       3.04       ----

> <Gold.Chemscore.Fitness>
7.0265

> <Gold.Chemscore.DG>
-10.3611

> <Gold.Chemscore.ZeroCoef>
-5.4800

> <Gold.Chemscore.Hbond>
2.7522

> <Gold.Chemscore.Metal>
0.0000

> <Gold.Chemscore.Lipo>
51.0946

> <Gold.Chemscore.Internal_Hbond>
0.0000

> <Gold.Chemscore.DEClash>
0.2896

> <Gold.Chemscore.DEInternal>
3.0450

> <Gold.Chemscore.Rot>
4.0192

> <Gold.Chemscore.Internal.Correction>
   9.000000E+99

> <Gold.Chemscore.Hbonds>
donor molecule, donor type, donor heavy atom, donor atom, acceptor molecule, acceptor atom, score
      L1  H    20    42       P1 10175  0.88
      L1  H    22    43       P1 10175  0.20
      P1  H  6934  6946       L1    18  0.19
      P1  H  7997  8008       L1    25  0.33
      P1  H 10752 10765       L1    24  0.32

> <Gold.Chemscore.Hbond.Weighted>
-9.1923

> <Gold.Chemscore.Metal.Weighted>
-0.0000

> <Gold.Chemscore.Lipo.Weighted>
-5.9781

> <Gold.Chemscore.Internal_Hbond.Weighted>
0.0000

> <Gold.Chemscore.DEClash.Weighted>
0.2896

> <Gold.Chemscore.DEInternal.Weighted>
3.0450

> <Gold.Chemscore.Rot.Weighted>
10.2893

> <Gold.Chemscore.Internal.Correction.Weighted>
   9.000000E+99

> <Gold.Protein.RotatedTorsions>
[ 6907 6896 6895 6894 ] final   11.79 input  -60.11 | X-H torsion
[ 7974 7965 7964 7962 ] final   60.36 input  175.53 | X-H torsion
[ 8008 7997 7996 7995 ] final  -55.64 input   59.86 | X-H torsion
[ 10167 10162 10161 10158 ] final  168.63 input  -65.29 | X-H torsion
[ 10718 10713 10712 10709 ] final  113.54 input   66.30 | X-H torsion
[ 10763 10752 10751 10750 ] final -143.32 input  -60.55 | X-H torsion
[ 11005 11000 10999 10996 ] final    9.28 input  -57.11 | X-H torsion

> <Gold.Protein.ActiveResidues>
 VAL166  LYS551  ARG553  GLY616  TRP617  ASP618  TYR619  PRO620  LYS621  CYS622 
 ASP623  PHE694  ASN695  SER759  ASP760  ASP761  ALA762  ILE779  LEU786  VAL792 
 PHE793  MET794  SER795  GLU796  ALA797  LYS798  CYS799  TRP800  GLU811  SER814 

> <Gold.Protein.RotatedAtoms>
  151.7599  135.0812  160.0343 H   0  0  0  0  0  0  0  0  0  0  0  0  # atno 6907 bound_to 6896
  152.3360  133.6008  159.5851 H   0  0  0  0  0  0  0  0  0  0  0  0  # atno 6908 bound_to 6896
  150.7450  133.9711  159.3588 H   0  0  0  0  0  0  0  0  0  0  0  0  # atno 6909 bound_to 6896
  145.8968  139.3552  143.0616 H   0  0  0  0  0  0  0  0  0  0  0  0  # atno 7974 bound_to 7965
  154.4202  140.1148  156.5509 H   0  0  0  0  0  0  0  0  0  0  0  0  # atno 8008 bound_to 7997
  155.6411  140.3496  155.4696 H   0  0  0  0  0  0  0  0  0  0  0  0  # atno 8009 bound_to 7997
  155.9870  140.1171  157.0663 H   0  0  0  0  0  0  0  0  0  0  0  0  # atno 8010 bound_to 7997
  139.4972  144.3794  151.9639 H   0  0  0  0  0  0  0  0  0  0  0  0  # atno 10167 bound_to 10162
  157.6332  131.0985  150.7056 H   0  0  0  0  0  0  0  0  0  0  0  0  # atno 10718 bound_to 10713
  154.8474  135.3471  154.6168 H   0  0  0  0  0  0  0  0  0  0  0  0  # atno 10763 bound_to 10752
  153.6777  135.6981  153.5132 H   0  0  0  0  0  0  0  0  0  0  0  0  # atno 10764 bound_to 10752
  153.2693  135.4298  155.0928 H   0  0  0  0  0  0  0  0  0  0  0  0  # atno 10765 bound_to 10752
  140.5275  134.0498  155.7863 H   0  0  0  0  0  0  0  0  0  0  0  0  # atno 11005 bound_to 11000
  145.8840  140.9345  143.0586 LP  0  0  0  0  0  0  0  0  0  0  0  0  # atno 17320 bound_to 7965
  144.6733  140.0817  143.7469 LP  0  0  0  0  0  0  0  0  0  0  0  0  # atno 17321 bound_to 7965
  140.3230  144.3405  150.6005 LP  0  0  0  0  0  0  0  0  0  0  0  0  # atno 17342 bound_to 10162
  140.5707  143.2181  151.7604 LP  0  0  0  0  0  0  0  0  0  0  0  0  # atno 17343 bound_to 10162
  156.7392  130.4733  149.5481 LP  0  0  0  0  0  0  0  0  0  0  0  0  # atno 17370 bound_to 10713
  156.1551  130.6336  151.0647 LP  0  0  0  0  0  0  0  0  0  0  0  0  # atno 17371 bound_to 10713
  141.1300  133.9319  157.2556 LP  0  0  0  0  0  0  0  0  0  0  0  0  # atno 17394 bound_to 11000
  139.9572  135.0163  156.9160 LP  0  0  0  0  0  0  0  0  0  0  0  0  # atno 17395 bound_to 11000

$$$$
