AV-unprocessed.smi:645|AV-procd|sdf|3162|dock1
  -GOLD-   22720 0 83D 1   1.00000     0.00000
 Structure written by MMmdl.
 22 23  0  0  0  0  0  0  0  0  2 V2000
  149.8065  140.0143  158.0350 C   0  0  0  0  0  0  0  0  0  0  0  0
  150.5564  140.9879  157.1017 C   0  0  2  0  0  0  0  0  0  0  0  0
  151.2979  142.0874  157.8823 C   0  0  0  0  0  0  0  0  0  0  0  0
  151.9109  141.8388  159.1351 C   0  0  0  0  0  0  0  0  0  0  0  0
  152.5780  142.8926  159.7906 C   0  0  0  0  0  0  0  0  0  0  0  0
  152.6715  144.1411  159.2879 N   0  0  0  0  0  0  0  0  0  0  0  0
  152.0892  144.3804  158.0949 C   0  0  0  0  0  0  0  0  0  0  0  0
  151.4003  143.3974  157.3580 C   0  0  0  0  0  0  0  0  0  0  0  0
  149.6287  141.5067  156.1146 N   0  0  0  0  0  0  0  0  0  0  0  0
  149.9917  141.1766  154.8767 C   0  0  0  0  0  0  0  0  0  0  0  0
  149.3461  141.5390  153.8959 O   0  0  0  0  0  0  0  0  0  0  0  0
  151.1102  140.4275  154.9055 N   0  5  0  0  0  0  0  0  0  0  0  0
  151.5275  140.2373  156.1764 C   0  0  0  0  0  0  0  0  0  0  0  0
  152.4814  139.5867  156.6031 O   0  0  0  0  0  0  0  0  0  0  0  0
  150.4820  139.5075  158.7246 H   0  0  0  0  0  0  0  0  0  0  0  0
  149.2848  139.2403  157.4700 H   0  0  0  0  0  0  0  0  0  0  0  0
  149.0617  140.5415  158.6316 H   0  0  0  0  0  0  0  0  0  0  0  0
  151.8781  140.8665  159.6029 H   0  0  0  0  0  0  0  0  0  0  0  0
  153.0509  142.7264  160.7473 H   0  0  0  0  0  0  0  0  0  0  0  0
  152.1741  145.3875  157.7142 H   0  0  0  0  0  0  0  0  0  0  0  0
  150.9508  143.6537  156.4103 H   0  0  0  0  0  0  0  0  0  0  0  0
  148.8249  142.0697  156.3496 H   0  0  0  0  0  0  0  0  0  0  0  0
  1  2  1  0  0  0  0
  1 15  1  0  0  0  0
  1 16  1  0  0  0  0
  1 17  1  0  0  0  0
  2 13  1  0  0  0  0
  2  3  1  0  0  0  0
  2  9  1  0  0  0  0
  3  8  1  0  0  0  0
  3  4  2  0  0  0  0
  4  5  1  0  0  0  0
  4 18  1  0  0  0  0
  5  6  2  0  0  0  0
  5 19  1  0  0  0  0
  6  7  1  0  0  0  0
  7  8  2  0  0  0  0
  7 20  1  0  0  0  0
  8 21  1  0  0  0  0
  9 10  1  0  0  0  0
  9 22  1  0  0  0  0
 10 11  2  0  0  0  0
 10 12  1  0  0  0  0
 12 13  1  0  0  0  0
 13 14  2  0  0  0  0
M  CHG  1  12  -1
M  END
> <s_m_source_file>
AV-unprocessed.smi

> <i_m_source_file_index>
645

> <i_lp_mmshare_version>
43012

> <i_f3d_flags>
0

> <s_epik_input>
Tz1DMVtOSF1DKD1PKVtOSF1bQ0BAXTEoW0NIM10pYzJbY0hdW2NIXW5bY0hdW2NIXTI=

> <s_epik_cmdline>
J2VwaWtfcHl0aG9uJywgJy1waCcsICc3LjAnLCAnLXRuJywgJzgnLCAnLW1hJywgJzIwMCcsICctbWV0YWxfYmluZGluZycsICctaW1hZScsICc8aW5maWxlLm1hZT4nLCAnLW9tYWUnLCAnPG91dGZpbGUubWFlPic=

> <r_epik_Ionization_Penalty>
1.83307

> <r_epik_Ionization_Penalty_Charging>
1.82122

> <r_epik_Ionization_Penalty_Neutral>
0.0118514

> <r_epik_State_Penalty>
1.93645

> <r_epik_Charging_Adjusted_Penalty>
3.75767

> <i_epik_Tot_Q>
-1

> <i_epik_Tot_abs_Q>
1

> <r_epik_Metal_State_Penalty>
0.53507

> <b_epik_Metal_Only>
0

> <s_lp_Force_Field>
OPLS_2005

> <r_lp_Energy>
9.09868

> <b_lp_Chiralities_Consistent>
1

> <s_lp_Variant>
AV-unprocessed.smi:645-4

> <Gold.Version>
5.8.1

> <Gold.Id.Protein>
6NUR|6NUR_protein|mol2

> <Gold.PLP.Fitness>
35.3455

> <Gold.PLP.PLP>
-29.3627

> <Gold.PLP.part.hbond>
-3.4687

> <Gold.PLP.part.metal>
0.0000

> <Gold.PLP.part.buried>
-2.9412

> <Gold.PLP.part.nonpolar>
-22.5775

> <Gold.PLP.part.repulsive>
0.3216

> <Gold.PLP.ligand.clash>
0.0000

> <Gold.PLP.ligand.torsion>
1.0090

> <Gold.PLP.Chemscore.Hbond>
2.6396

> <Gold.PLP.Chemscore.CHOScore>
0.0000

> <Gold.PLP.Chemscore.Metal>
0.0000

> <Gold.Chemscore.Hbonds>
donor molecule, donor type, donor heavy atom, donor atom, acceptor molecule, acceptor atom, score
      P1  H  7989  7998       L1    12  0.80
      P1  H  7997  8010       L1    14  1.00
      P1  H  8011  8017       L1    11  0.69

> <Gold.PLP.Chemscore.Internal.Correction>
0.0820

> <Gold.Rescore>
     Score         DG    S(hbond)    S(metal)    S(lipo)     H(rot)  DE(clash)    DE(int)     intcor
     16.74     -17.80       2.25        0.00      62.92       1.00       0.03       1.03       ----

> <Gold.Chemscore.Fitness>
16.7375

> <Gold.Chemscore.DG>
-17.8031

> <Gold.Chemscore.ZeroCoef>
-5.4800

> <Gold.Chemscore.Hbond>
2.2520

> <Gold.Chemscore.Metal>
0.0000

> <Gold.Chemscore.Lipo>
62.9176

> <Gold.Chemscore.Internal_Hbond>
0.0000

> <Gold.Chemscore.DEClash>
0.0316

> <Gold.Chemscore.DEInternal>
1.0340

> <Gold.Chemscore.Rot>
1.0000

> <Gold.Chemscore.Internal.Correction>
   9.000000E+99

> <Gold.Chemscore.Hbonds>
donor molecule, donor type, donor heavy atom, donor atom, acceptor molecule, acceptor atom, score
      P1  H  7989  7998       L1    12  0.11
      P1  H  7997  8010       L1    14  0.92
      P1  H  8011  8017       L1    11  0.70

> <Gold.Chemscore.Hbond.Weighted>
-7.5217

> <Gold.Chemscore.Metal.Weighted>
-0.0000

> <Gold.Chemscore.Lipo.Weighted>
-7.3614

> <Gold.Chemscore.Internal_Hbond.Weighted>
0.0000

> <Gold.Chemscore.DEClash.Weighted>
0.0316

> <Gold.Chemscore.DEInternal.Weighted>
1.0340

> <Gold.Chemscore.Rot.Weighted>
2.5600

> <Gold.Chemscore.Internal.Correction.Weighted>
   9.000000E+99

> <Gold.Protein.RotatedTorsions>
[ 6907 6896 6895 6894 ] final   19.99 input  -60.11 | X-H torsion
[ 7974 7965 7964 7962 ] final    4.34 input  175.53 | X-H torsion
[ 8008 7997 7996 7995 ] final   87.24 input   59.86 | X-H torsion
[ 10167 10162 10161 10158 ] final -114.33 input  -65.29 | X-H torsion
[ 10718 10713 10712 10709 ] final -133.62 input   66.30 | X-H torsion
[ 10763 10752 10751 10750 ] final   91.82 input  -60.55 | X-H torsion
[ 11005 11000 10999 10996 ] final -105.40 input  -57.11 | X-H torsion

> <Gold.Protein.ActiveResidues>
 VAL166  LYS551  ARG553  GLY616  TRP617  ASP618  TYR619  PRO620  LYS621  CYS622 
 ASP623  PHE694  ASN695  SER759  ASP760  ASP761  ALA762  ILE779  LEU786  VAL792 
 PHE793  MET794  SER795  GLU796  ALA797  LYS798  CYS799  TRP800  GLU811  SER814 

> <Gold.Protein.RotatedAtoms>
  151.8894  135.0422  160.0496 H   0  0  0  0  0  0  0  0  0  0  0  0  # atno 6907 bound_to 6896
  152.2448  133.5161  159.5299 H   0  0  0  0  0  0  0  0  0  0  0  0  # atno 6908 bound_to 6896
  150.7065  134.0957  159.3990 H   0  0  0  0  0  0  0  0  0  0  0  0  # atno 6909 bound_to 6896
  146.2444  140.0549  142.8372 H   0  0  0  0  0  0  0  0  0  0  0  0  # atno 7974 bound_to 7965
  155.9728  140.3384  155.6591 H   0  0  0  0  0  0  0  0  0  0  0  0  # atno 8008 bound_to 7997
  155.6651  140.0720  157.2558 H   0  0  0  0  0  0  0  0  0  0  0  0  # atno 8009 bound_to 7997
  154.4171  140.1701  156.1806 H   0  0  0  0  0  0  0  0  0  0  0  0  # atno 8010 bound_to 7997
  140.1022  143.4603  152.1805 H   0  0  0  0  0  0  0  0  0  0  0  0  # atno 10167 bound_to 10162
  156.2468  130.7129  151.1012 H   0  0  0  0  0  0  0  0  0  0  0  0  # atno 10718 bound_to 10713
  153.2124  135.4384  155.0395 H   0  0  0  0  0  0  0  0  0  0  0  0  # atno 10763 bound_to 10752
  154.8207  135.3336  154.7049 H   0  0  0  0  0  0  0  0  0  0  0  0  # atno 10764 bound_to 10752
  153.7486  135.7000  153.5006 H   0  0  0  0  0  0  0  0  0  0  0  0  # atno 10765 bound_to 10752
  141.1055  133.8804  157.1729 H   0  0  0  0  0  0  0  0  0  0  0  0  # atno 11005 bound_to 11000
  145.0951  140.9310  143.4746 LP  0  0  0  0  0  0  0  0  0  0  0  0  # atno 17320 bound_to 7965
  145.0730  139.3017  143.5822 LP  0  0  0  0  0  0  0  0  0  0  0  0  # atno 17321 bound_to 7965
  139.5665  144.7438  151.4008 LP  0  0  0  0  0  0  0  0  0  0  0  0  # atno 17342 bound_to 10162
  140.6972  143.7721  150.7344 LP  0  0  0  0  0  0  0  0  0  0  0  0  # atno 17343 bound_to 10162
  157.7198  131.0688  150.6181 LP  0  0  0  0  0  0  0  0  0  0  0  0  # atno 17370 bound_to 10713
  156.6258  130.4418  149.5805 LP  0  0  0  0  0  0  0  0  0  0  0  0  # atno 17371 bound_to 10713
  139.9924  135.0059  157.0005 LP  0  0  0  0  0  0  0  0  0  0  0  0  # atno 17394 bound_to 11000
  140.4912  134.1191  155.7233 LP  0  0  0  0  0  0  0  0  0  0  0  0  # atno 17395 bound_to 11000

$$$$
