AV-unprocessed.smi:160|AV-procd|sdf|1368|dock1
  -GOLD-   2262019 83D 1   1.00000     0.00000
 Structure written by MMmdl.
 28 29  0  0  0  0  0  0  0  0  2 V2000
  152.0985  137.0509  154.1460 N   0  5  0  0  0  0  0  0  0  0  0  0
  152.4068  138.3231  154.4805 C   0  0  0  0  0  0  0  0  0  0  0  0
  153.5390  138.7839  154.6229 O   0  0  0  0  0  0  0  0  0  0  0  0
  151.2117  139.2234  154.6876 C   0  0  0  0  0  0  0  0  0  0  0  0
  151.3795  140.5465  154.9896 N   0  0  0  0  0  0  0  0  0  0  0  0
  150.1064  140.9073  155.0798 C   0  0  0  0  0  0  0  0  0  0  0  0
  149.2376  139.9186  154.8397 N   0  0  0  0  0  0  0  0  0  0  0  0
  147.7400  139.8818  154.8823 C   0  0  1  0  0  0  0  0  0  0  0  0
  147.3094  140.5460  156.0291 O   0  0  0  0  0  0  0  0  0  0  0  0
  147.1502  141.9275  155.7358 C   0  0  2  0  0  0  0  0  0  0  0  0
  146.2367  142.5821  156.7837 C   0  0  0  0  0  0  0  0  0  0  0  0
  145.1449  141.7363  157.0763 O   0  0  0  0  0  0  0  0  0  0  0  0
  146.5402  141.8950  154.3292 C   0  0  1  0  0  0  0  0  0  0  0  0
  146.9131  143.0542  153.6115 O   0  0  0  0  0  0  0  0  0  0  0  0
  147.1445  140.6459  153.6848 C   0  0  2  0  0  0  0  0  0  0  0  0
  146.1435  139.8880  153.0361 O   0  0  0  0  0  0  0  0  0  0  0  0
  149.9499  138.7910  154.5989 N   0  0  0  0  0  0  0  0  0  0  0  0
  147.5000  138.8182  154.9149 H   0  0  0  0  0  0  0  0  0  0  0  0
  148.1276  142.4140  155.7090 H   0  0  0  0  0  0  0  0  0  0  0  0
  145.4528  141.8189  154.3872 H   0  0  0  0  0  0  0  0  0  0  0  0
  147.9253  140.8934  152.9638 H   0  0  0  0  0  0  0  0  0  0  0  0
  151.6501  136.8799  153.2383 H   0  0  0  0  0  0  0  0  0  0  0  0
  149.8035  141.9137  155.3286 H   0  0  0  0  0  0  0  0  0  0  0  0
  146.7858  142.7385  157.7128 H   0  0  0  0  0  0  0  0  0  0  0  0
  145.8833  143.5574  156.4478 H   0  0  0  0  0  0  0  0  0  0  0  0
  144.6331  142.1339  157.7640 H   0  0  0  0  0  0  0  0  0  0  0  0
  147.5628  143.5202  154.1154 H   0  0  0  0  0  0  0  0  0  0  0  0
  145.3273  140.3611  153.0960 H   0  0  0  0  0  0  0  0  0  0  0  0
  1  2  1  0  0  0  0
  1 22  1  0  0  0  0
  2  3  2  0  0  0  0
  2  4  1  0  0  0  0
  4 17  2  0  0  0  0
  4  5  1  0  0  0  0
  5  6  2  0  0  0  0
  6  7  1  0  0  0  0
  6 23  1  0  0  0  0
  7  8  1  0  0  0  0
  7 17  1  0  0  0  0
  8 18  1  0  0  0  0
  8 15  1  0  0  0  0
  8  9  1  0  0  0  0
  9 10  1  0  0  0  0
 10 19  1  0  0  0  0
 10 11  1  0  0  0  0
 10 13  1  0  0  0  0
 11 12  1  0  0  0  0
 11 24  1  0  0  0  0
 11 25  1  0  0  0  0
 12 26  1  0  0  0  0
 13 20  1  0  0  0  0
 13 14  1  0  0  0  0
 13 15  1  0  0  0  0
 14 27  1  0  0  0  0
 15 21  1  0  0  0  0
 15 16  1  0  0  0  0
 16 28  1  0  0  0  0
M  CHG  1   1  -1
M  END
> <s_m_source_file>
AV-unprocessed.smi

> <i_m_source_file_index>
160

> <i_lp_mmshare_version>
43012

> <i_f3d_flags>
0

> <s_epik_input>
W05IMl1DKD1PKWMxbltjSF1uKG4xKVtDQEBIXTJPW0NASF0oW0NIMl1bT0hdKVtDQEBIXShbT0hdKVtDQEhdMltPSF0=

> <s_epik_cmdline>
J2VwaWtfcHl0aG9uJywgJy1waCcsICc3LjAnLCAnLXRuJywgJzgnLCAnLW1hJywgJzIwMCcsICctbWV0YWxfYmluZGluZycsICctaW1hZScsICc8aW5maWxlLm1hZT4nLCAnLW9tYWUnLCAnPG91dGZpbGUubWFlPic=

> <r_lp_tautomer_probability>
1

> <r_epik_Ionization_Penalty>
6.6993

> <r_epik_Ionization_Penalty_Charging>
6.6993

> <r_epik_Ionization_Penalty_Neutral>
6.01698e-06

> <r_epik_State_Penalty>
6.69929

> <r_epik_Charging_Adjusted_Penalty>
13.3986

> <i_epik_Tot_Q>
-1

> <i_epik_Tot_abs_Q>
1

> <r_epik_Metal_State_Penalty>
2.62798

> <b_epik_Metal_Only>
1

> <s_epik_Chemistry_Notes>
This compound contains an acetal/aminal-like group ( X-CH(R)-Y where X, Y are N, S, or O) that may be acid/base labile, releasing an aldehyde.

> <s_lp_Force_Field>
OPLS_2005

> <r_lp_Energy>
37.5232

> <b_lp_Chiralities_Consistent>
1

> <s_lp_Variant>
AV-unprocessed.smi:160-26

> <Gold.Version>
5.8.1

> <Gold.Id.Protein>
6NUR|6NUR_protein|mol2

> <Gold.PLP.Fitness>
44.5526

> <Gold.PLP.PLP>
-27.2438

> <Gold.PLP.part.hbond>
-7.0000

> <Gold.PLP.part.metal>
0.0000

> <Gold.PLP.part.buried>
-3.7726

> <Gold.PLP.part.nonpolar>
-18.1423

> <Gold.PLP.part.repulsive>
0.2191

> <Gold.PLP.ligand.clash>
0.0000

> <Gold.PLP.ligand.torsion>
0.3849

> <Gold.PLP.Chemscore.Hbond>
6.0117

> <Gold.PLP.Chemscore.CHOScore>
0.0000

> <Gold.PLP.Chemscore.Metal>
0.0000

> <Gold.Chemscore.Hbonds>
donor molecule, donor type, donor heavy atom, donor atom, acceptor molecule, acceptor atom, score
      L1  H     1    22       P1  7949  1.00
      L1  H    14    27       P1  8028  0.32
      L1  H    16    28       P1 10175  0.90
      P1  H  7989  7998       L1     5  0.50
      P1  H  7997  8009       L1     3  0.88
      P1  H 10752 10765       L1     1  1.70

> <Gold.PLP.Chemscore.Internal.Correction>
0.0434

> <Gold.Rescore>
     Score         DG    S(hbond)    S(metal)    S(lipo)     H(rot)  DE(clash)    DE(int)     intcor
      8.71      -9.40       3.66        0.00      17.31       4.04       0.11       0.57       ----

> <Gold.Chemscore.Fitness>
8.7100

> <Gold.Chemscore.DG>
-9.3975

> <Gold.Chemscore.ZeroCoef>
-5.4800

> <Gold.Chemscore.Hbond>
3.6634

> <Gold.Chemscore.Metal>
0.0000

> <Gold.Chemscore.Lipo>
17.3073

> <Gold.Chemscore.Internal_Hbond>
0.0000

> <Gold.Chemscore.DEClash>
0.1130

> <Gold.Chemscore.DEInternal>
0.5744

> <Gold.Chemscore.Rot>
4.0403

> <Gold.Chemscore.Internal.Correction>
   9.000000E+99

> <Gold.Chemscore.Hbonds>
donor molecule, donor type, donor heavy atom, donor atom, acceptor molecule, acceptor atom, score
      L1  H     1    22       P1  7949  0.91
      L1  H    14    27       P1  8028  0.13
      L1  H    16    28       P1 10175  0.85
      P1  H  7989  7998       L1     5  0.01
      P1  H  7997  8009       L1     3  0.82
      P1  H 10752 10765       L1     1  0.14

> <Gold.Chemscore.Hbond.Weighted>
-12.2357

> <Gold.Chemscore.Metal.Weighted>
-0.0000

> <Gold.Chemscore.Lipo.Weighted>
-2.0250

> <Gold.Chemscore.Internal_Hbond.Weighted>
0.0000

> <Gold.Chemscore.DEClash.Weighted>
0.1130

> <Gold.Chemscore.DEInternal.Weighted>
0.5744

> <Gold.Chemscore.Rot.Weighted>
10.3431

> <Gold.Chemscore.Internal.Correction.Weighted>
   9.000000E+99

> <Gold.Protein.RotatedTorsions>
[ 6907 6896 6895 6894 ] final  -26.14 input  -60.11 | X-H torsion
[ 7974 7965 7964 7962 ] final  101.05 input  175.53 | X-H torsion
[ 8008 7997 7996 7995 ] final -132.09 input   59.86 | X-H torsion
[ 10167 10162 10161 10158 ] final  158.47 input  -65.29 | X-H torsion
[ 10718 10713 10712 10709 ] final -114.97 input   66.30 | X-H torsion
[ 10763 10752 10751 10750 ] final  155.58 input  -60.55 | X-H torsion
[ 11005 11000 10999 10996 ] final -152.90 input  -57.11 | X-H torsion

> <Gold.Protein.ActiveResidues>
 VAL166  LYS551  ARG553  GLY616  TRP617  ASP618  TYR619  PRO620  LYS621  CYS622 
 ASP623  PHE694  ASN695  SER759  ASP760  ASP761  ALA762  ILE779  LEU786  VAL792 
 PHE793  MET794  SER795  GLU796  ALA797  LYS798  CYS799  TRP800  GLU811  SER814 

> <Gold.Protein.RotatedAtoms>
  151.1652  135.0292  159.8727 H   0  0  0  0  0  0  0  0  0  0  0  0  # atno 6907 bound_to 6896
  152.5450  134.1233  159.8418 H   0  0  0  0  0  0  0  0  0  0  0  0  # atno 6908 bound_to 6896
  151.1333  133.4975  159.2631 H   0  0  0  0  0  0  0  0  0  0  0  0  # atno 6909 bound_to 6896
  145.3774  139.2386  143.3422 H   0  0  0  0  0  0  0  0  0  0  0  0  # atno 7974 bound_to 7965
  155.3231  140.0463  157.3040 H   0  0  0  0  0  0  0  0  0  0  0  0  # atno 8008 bound_to 7997
  154.5369  140.2275  155.8673 H   0  0  0  0  0  0  0  0  0  0  0  0  # atno 8009 bound_to 7997
  156.1844  140.3066  155.9216 H   0  0  0  0  0  0  0  0  0  0  0  0  # atno 8010 bound_to 7997
  139.4827  144.4821  151.8429 H   0  0  0  0  0  0  0  0  0  0  0  0  # atno 10167 bound_to 10162
  156.0864  130.6055  150.8844 H   0  0  0  0  0  0  0  0  0  0  0  0  # atno 10718 bound_to 10713
  154.1706  135.2805  155.3082 H   0  0  0  0  0  0  0  0  0  0  0  0  # atno 10763 bound_to 10752
  154.6078  135.5508  153.7445 H   0  0  0  0  0  0  0  0  0  0  0  0  # atno 10764 bound_to 10752
  153.0166  135.6408  154.1846 H   0  0  0  0  0  0  0  0  0  0  0  0  # atno 10765 bound_to 10752
  140.7139  134.3802  157.5193 H   0  0  0  0  0  0  0  0  0  0  0  0  # atno 11005 bound_to 11000
  146.2857  140.4436  142.8759 LP  0  0  0  0  0  0  0  0  0  0  0  0  # atno 17320 bound_to 7965
  144.8532  140.7032  143.6155 LP  0  0  0  0  0  0  0  0  0  0  0  0  # atno 17321 bound_to 7965
  140.4298  144.2131  150.5888 LP  0  0  0  0  0  0  0  0  0  0  0  0  # atno 17342 bound_to 10162
  140.4791  143.2385  151.8981 LP  0  0  0  0  0  0  0  0  0  0  0  0  # atno 17343 bound_to 10162
  157.6000  131.0941  150.8976 LP  0  0  0  0  0  0  0  0  0  0  0  0  # atno 17370 bound_to 10713
  156.9135  130.5289  149.5280 LP  0  0  0  0  0  0  0  0  0  0  0  0  # atno 17371 bound_to 10713
  139.8865  134.8909  156.2583 LP  0  0  0  0  0  0  0  0  0  0  0  0  # atno 17394 bound_to 11000
  141.0061  133.7123  156.1037 LP  0  0  0  0  0  0  0  0  0  0  0  0  # atno 17395 bound_to 11000

$$$$
