AV-unprocessed.smi:3199|AV-procd|sdf|12232|dock7
  -GOLD-   2272018 63D 1   1.00000     0.00000
 Structure written by MMmdl.
 35 36  0  0  0  0  0  0  0  0  1 V2000
  153.1494  143.0648  163.0113 C   0  0  0  0  0  0  0  0  0  0  0  0
  152.7837  143.2020  161.5482 C   0  0  0  0  0  0  0  0  0  0  0  0
  153.1641  142.2181  160.6111 C   0  0  0  0  0  0  0  0  0  0  0  0
  152.7948  142.3967  159.2641 C   0  0  0  0  0  0  0  0  0  0  0  0
  152.0628  143.5473  158.9067 C   0  0  0  0  0  0  0  0  0  0  0  0
  151.6334  143.7817  157.4719 C   0  0  0  0  0  0  0  0  0  0  0  0
  151.4413  142.4662  156.7057 C   0  0  0  0  0  0  0  0  0  0  0  0
  150.2088  142.4986  155.9315 N   0  0  0  0  0  0  0  0  0  0  0  0
  149.8031  141.5192  155.1105 C   0  0  0  0  0  0  0  0  0  0  0  0
  150.4399  140.4794  154.9360 O   0  0  0  0  0  0  0  0  0  0  0  0
  148.4688  141.7471  154.3908 C   0  0  1  0  0  0  0  0  0  0  0  0
  147.9672  140.5394  153.5747 C   0  0  0  0  0  0  0  0  0  0  0  0
  146.6907  140.1251  154.2834 C   0  0  0  0  0  0  0  0  0  0  0  0
  146.2445  141.4288  154.9299 C   0  0  0  0  0  0  0  0  0  0  0  0
  147.4677  141.9899  155.3760 O   0  0  0  0  0  0  0  0  0  0  0  0
  151.7324  144.4708  159.9210 C   0  0  0  0  0  0  0  0  0  0  0  0
  152.0826  144.3081  161.2151 N   0  0  0  0  0  0  0  0  0  0  0  0
  153.6827  142.1326  163.2004 H   0  0  0  0  0  0  0  0  0  0  0  0
  152.2509  143.0732  163.6292 H   0  0  0  0  0  0  0  0  0  0  0  0
  153.7886  143.8919  163.3213 H   0  0  0  0  0  0  0  0  0  0  0  0
  153.7244  141.3458  160.9141 H   0  0  0  0  0  0  0  0  0  0  0  0
  153.0674  141.6614  158.5214 H   0  0  0  0  0  0  0  0  0  0  0  0
  150.7059  144.3564  157.4693 H   0  0  0  0  0  0  0  0  0  0  0  0
  152.3813  144.4005  156.9741 H   0  0  0  0  0  0  0  0  0  0  0  0
  152.2824  142.2972  156.0312 H   0  0  0  0  0  0  0  0  0  0  0  0
  151.4126  141.6283  157.4044 H   0  0  0  0  0  0  0  0  0  0  0  0
  149.6245  143.3168  156.0262 H   0  0  0  0  0  0  0  0  0  0  0  0
  148.5381  142.6204  153.7398 H   0  0  0  0  0  0  0  0  0  0  0  0
  147.7428  140.8545  152.5550 H   0  0  0  0  0  0  0  0  0  0  0  0
  148.6780  139.7145  153.5079 H   0  0  0  0  0  0  0  0  0  0  0  0
  145.9437  139.7047  153.6096 H   0  0  0  0  0  0  0  0  0  0  0  0
  146.9138  139.3859  155.0539 H   0  0  0  0  0  0  0  0  0  0  0  0
  145.7802  142.0914  154.1976 H   0  0  0  0  0  0  0  0  0  0  0  0
  145.5470  141.2761  155.7536 H   0  0  0  0  0  0  0  0  0  0  0  0
  151.1693  145.3632  159.6897 H   0  0  0  0  0  0  0  0  0  0  0  0
  1  2  1  0  0  0  0
  1 18  1  0  0  0  0
  1 19  1  0  0  0  0
  1 20  1  0  0  0  0
  2 17  1  0  0  0  0
  2  3  2  0  0  0  0
  3  4  1  0  0  0  0
  3 21  1  0  0  0  0
  4  5  2  0  0  0  0
  4 22  1  0  0  0  0
  5  6  1  0  0  0  0
  5 16  1  0  0  0  0
  6  7  1  0  0  0  0
  6 23  1  0  0  0  0
  6 24  1  0  0  0  0
  7  8  1  0  0  0  0
  7 25  1  0  0  0  0
  7 26  1  0  0  0  0
  8  9  1  0  0  0  0
  8 27  1  0  0  0  0
  9 10  2  0  0  0  0
  9 11  1  0  0  0  0
 11 15  1  0  0  0  0
 11 12  1  0  0  0  0
 11 28  1  0  0  0  0
 12 13  1  0  0  0  0
 12 29  1  0  0  0  0
 12 30  1  0  0  0  0
 13 14  1  0  0  0  0
 13 31  1  0  0  0  0
 13 32  1  0  0  0  0
 14 15  1  0  0  0  0
 14 33  1  0  0  0  0
 14 34  1  0  0  0  0
 16 17  2  0  0  0  0
 16 35  1  0  0  0  0
M  END
> <s_m_source_file>
AV-unprocessed.smi

> <i_m_source_file_index>
3199

> <i_lp_mmshare_version>
43012

> <i_f3d_flags>
0

> <s_epik_input>
W0NIM11jMVtjSF1bY0hdYyhbY0hdbjEpW0NIMl1bQ0gyXVtOSF1DKD1PKVtDQEBIXTJbQ0gyXVtDSDJdW0NIMl1PMg==

> <s_epik_cmdline>
J2VwaWtfcHl0aG9uJywgJy1waCcsICc3LjAnLCAnLXRuJywgJzgnLCAnLW1hJywgJzIwMCcsICctbWV0YWxfYmluZGluZycsICctaW1hZScsICc8aW5maWxlLm1hZT4nLCAnLW9tYWUnLCAnPG91dGZpbGUubWFlPic=

> <r_epik_Ionization_Penalty>
0.0519155

> <r_epik_Ionization_Penalty_Charging>
0

> <r_epik_Ionization_Penalty_Neutral>
0.0519155

> <r_epik_State_Penalty>
0.0445047

> <r_epik_Charging_Adjusted_Penalty>
0.0445047

> <i_epik_Tot_Q>
0

> <i_epik_Tot_abs_Q>
0

> <r_epik_Metal_State_Penalty>
0.0408967

> <b_epik_Metal_Only>
0

> <s_lp_Force_Field>
OPLS_2005

> <r_lp_Energy>
16.9644

> <b_lp_Chiralities_Consistent>
1

> <s_lp_Variant>
AV-unprocessed.smi:3199-2

> <Gold.Version>
5.8.1

> <Gold.Id.Protein>
6NUR|6NUR_protein|mol2

> <Gold.PLP.Fitness>
46.1315

> <Gold.PLP.PLP>
-41.6222

> <Gold.PLP.part.hbond>
-2.0000

> <Gold.PLP.part.metal>
0.0000

> <Gold.PLP.part.buried>
-4.9173

> <Gold.PLP.part.nonpolar>
-35.0606

> <Gold.PLP.part.repulsive>
0.7888

> <Gold.PLP.ligand.clash>
0.0000

> <Gold.PLP.ligand.torsion>
0.7415

> <Gold.PLP.Chemscore.Hbond>
1.9920

> <Gold.PLP.Chemscore.CHOScore>
0.0000

> <Gold.PLP.Chemscore.Metal>
0.0000

> <Gold.Chemscore.Hbonds>
donor molecule, donor type, donor heavy atom, donor atom, acceptor molecule, acceptor atom, score
      L1  H     8    27       P1  8028  1.00
      P1  H  7989  7998       L1    10  1.00

> <Gold.PLP.Chemscore.Internal.Correction>
0.0163

> <Gold.Rescore>
     Score         DG    S(hbond)    S(metal)    S(lipo)     H(rot)  DE(clash)    DE(int)     intcor
     19.60     -20.43       1.61        0.00     114.46       1.49       0.27       0.57       ----

> <Gold.Chemscore.Fitness>
19.5973

> <Gold.Chemscore.DG>
-20.4320

> <Gold.Chemscore.ZeroCoef>
-5.4800

> <Gold.Chemscore.Hbond>
1.6059

> <Gold.Chemscore.Metal>
0.0000

> <Gold.Chemscore.Lipo>
114.4638

> <Gold.Chemscore.Internal_Hbond>
0.0000

> <Gold.Chemscore.DEClash>
0.2693

> <Gold.Chemscore.DEInternal>
0.5653

> <Gold.Chemscore.Rot>
1.4859

> <Gold.Chemscore.Internal.Correction>
   9.000000E+99

> <Gold.Chemscore.Hbonds>
donor molecule, donor type, donor heavy atom, donor atom, acceptor molecule, acceptor atom, score
      L1  H     8    27       P1  8028  0.99
      P1  H  7989  7998       L1    10  0.43

> <Gold.Chemscore.Hbond.Weighted>
-5.3636

> <Gold.Chemscore.Metal.Weighted>
-0.0000

> <Gold.Chemscore.Lipo.Weighted>
-13.3923

> <Gold.Chemscore.Internal_Hbond.Weighted>
0.0000

> <Gold.Chemscore.DEClash.Weighted>
0.2693

> <Gold.Chemscore.DEInternal.Weighted>
0.5653

> <Gold.Chemscore.Rot.Weighted>
3.8039

> <Gold.Chemscore.Internal.Correction.Weighted>
   9.000000E+99

> <Gold.Protein.RotatedTorsions>
[ 6907 6896 6895 6894 ] final -135.00 input  -60.11 | X-H torsion
[ 7974 7965 7964 7962 ] final  137.53 input  175.53 | X-H torsion
[ 8008 7997 7996 7995 ] final -160.07 input   59.86 | X-H torsion
[ 10167 10162 10161 10158 ] final  162.28 input  -65.29 | X-H torsion
[ 10718 10713 10712 10709 ] final  -46.12 input   66.30 | X-H torsion
[ 10763 10752 10751 10750 ] final -147.59 input  -60.55 | X-H torsion
[ 11005 11000 10999 10996 ] final  -17.24 input  -57.11 | X-H torsion

> <Gold.Protein.ActiveResidues>
 VAL166  LYS551  ARG553  GLY616  TRP617  ASP618  TYR619  PRO620  LYS621  CYS622 
 ASP623  PHE694  ASN695  SER759  ASP760  ASP761  ALA762  ILE779  LEU786  VAL792 
 PHE793  MET794  SER795  GLU796  ALA797  LYS798  CYS799  TRP800  GLU811  SER814 

> <Gold.Protein.RotatedAtoms>
  150.9926  133.6135  159.2705 H   0  0  0  0  0  0  0  0  0  0  0  0  # atno 6907 bound_to 6896
  151.3350  135.0849  159.9361 H   0  0  0  0  0  0  0  0  0  0  0  0  # atno 6908 bound_to 6896
  152.5250  133.9548  159.7743 H   0  0  0  0  0  0  0  0  0  0  0  0  # atno 6909 bound_to 6896
  144.9459  139.4876  143.5549 H   0  0  0  0  0  0  0  0  0  0  0  0  # atno 7974 bound_to 7965
  155.7720  140.0853  157.2103 H   0  0  0  0  0  0  0  0  0  0  0  0  # atno 8008 bound_to 7997
  154.3995  140.1523  156.3010 H   0  0  0  0  0  0  0  0  0  0  0  0  # atno 8009 bound_to 7997
  155.8737  140.3424  155.5842 H   0  0  0  0  0  0  0  0  0  0  0  0  # atno 8010 bound_to 7997
  139.4859  144.4453  151.8899 H   0  0  0  0  0  0  0  0  0  0  0  0  # atno 10167 bound_to 10162
  156.2214  130.4166  149.8987 H   0  0  0  0  0  0  0  0  0  0  0  0  # atno 10718 bound_to 10713
  154.8278  135.3356  154.6842 H   0  0  0  0  0  0  0  0  0  0  0  0  # atno 10763 bound_to 10752
  153.7466  135.6942  153.4959 H   0  0  0  0  0  0  0  0  0  0  0  0  # atno 10764 bound_to 10752
  153.2206  135.4450  155.0435 H   0  0  0  0  0  0  0  0  0  0  0  0  # atno 10765 bound_to 10752
  140.8148  133.8113  155.9600 H   0  0  0  0  0  0  0  0  0  0  0  0  # atno 11005 bound_to 11000
  146.3303  139.8510  142.8873 LP  0  0  0  0  0  0  0  0  0  0  0  0  # atno 17320 bound_to 7965
  145.2919  141.0170  143.3658 LP  0  0  0  0  0  0  0  0  0  0  0  0  # atno 17321 bound_to 7965
  140.3907  144.2619  150.5900 LP  0  0  0  0  0  0  0  0  0  0  0  0  # atno 17342 bound_to 10162
  140.5148  143.2281  151.8479 LP  0  0  0  0  0  0  0  0  0  0  0  0  # atno 17343 bound_to 10162
  156.6632  130.8790  151.3551 LP  0  0  0  0  0  0  0  0  0  0  0  0  # atno 17370 bound_to 10713
  157.7089  130.9417  150.1024 LP  0  0  0  0  0  0  0  0  0  0  0  0  # atno 17371 bound_to 10713
  140.9160  134.2201  157.4956 LP  0  0  0  0  0  0  0  0  0  0  0  0  # atno 17394 bound_to 11000
  139.8712  134.9771  156.4947 LP  0  0  0  0  0  0  0  0  0  0  0  0  # atno 17395 bound_to 11000

$$$$
