AV-unprocessed.smi:279|AV-procd|sdf|2096|dock8
  -GOLD-   2262021383D 1   1.00000     0.00000
 Structure written by MMmdl.
 50 54  0  0  0  0  0  0  0  0  1 V2000
  147.1049  137.5178  161.4805 O   0  0  0  0  0  0  0  0  0  0  0  0
  146.6286  136.3663  160.6994 S   0  0  0  0  0  0  0  0  0  0  0  0
  147.5536  135.3005  160.2843 O   0  0  0  0  0  0  0  0  0  0  0  0
  145.1914  135.6132  161.5385 C   0  0  0  0  0  0  0  0  0  0  0  0
  144.2820  135.1515  160.3960 C   0  0  0  0  0  0  0  0  0  0  0  0
  144.3071  136.2188  159.2776 C   0  0  2  0  0  0  0  0  0  0  0  0
  144.1201  135.6559  157.8597 C   0  0  0  0  0  0  0  0  0  0  0  0
  145.1449  136.2825  157.0365 N   0  0  0  0  0  0  0  0  0  0  0  0
  145.3636  135.8362  155.7689 C   0  0  0  0  0  0  0  0  0  0  0  0
  146.6424  135.7946  155.3064 N   0  0  0  0  0  0  0  0  0  0  0  0
  146.9093  135.3610  154.0718 C   0  0  0  0  0  0  0  0  0  0  0  0
  146.0600  134.9347  153.1372 N   0  0  0  0  0  0  0  0  0  0  0  0
  144.7718  134.9883  153.5797 C   0  0  0  0  0  0  0  0  0  0  0  0
  144.3370  135.4178  154.8682 C   0  0  0  0  0  0  0  0  0  0  0  0
  142.9511  135.3215  154.9428 N   0  0  0  0  0  0  0  0  0  0  0  0
  142.5924  134.8541  153.7791 C   0  0  0  0  0  0  0  0  0  0  0  0
  143.6209  134.6498  152.8893 N   0  0  0  0  0  0  0  0  0  0  0  0
  143.5133  134.1049  151.5676 C   0  0  0  0  0  0  0  0  0  0  0  0
  143.8233  132.6310  151.2858 C   0  0  0  0  0  0  0  0  0  0  0  0
  144.3398  133.0222  149.8820 C   0  0  0  0  0  0  0  0  0  0  0  0
  145.5884  132.2758  149.3723 C   0  0  0  0  0  0  0  0  0  0  0  0
  146.6808  132.3692  150.2648 O   0  0  0  0  0  0  0  0  0  0  0  0
  143.2735  132.9335  148.7733 C   0  0  0  0  0  0  0  0  0  0  0  0
  143.4760  133.9167  147.7787 O   0  0  0  0  0  0  0  0  0  0  0  0
  144.5521  134.4285  150.4894 C   0  0  0  0  0  0  0  0  0  0  0  0
  146.2779  136.6074  157.8918 C   0  0  0  0  0  0  0  0  0  0  0  0
  145.6596  136.9494  159.2496 C   0  0  2  0  0  0  0  0  0  0  0  0
  143.5320  136.9592  159.4806 H   0  0  0  0  0  0  0  0  0  0  0  0
  145.5020  138.0246  159.3415 H   0  0  0  0  0  0  0  0  0  0  0  0
  145.5143  134.8042  162.1936 H   0  0  0  0  0  0  0  0  0  0  0  0
  144.7033  136.3825  162.1373 H   0  0  0  0  0  0  0  0  0  0  0  0
  144.6777  134.2097  160.0137 H   0  0  0  0  0  0  0  0  0  0  0  0
  143.2674  134.9513  160.7407 H   0  0  0  0  0  0  0  0  0  0  0  0
  144.2443  134.5724  157.8329 H   0  0  0  0  0  0  0  0  0  0  0  0
  143.1216  135.8942  157.4940 H   0  0  0  0  0  0  0  0  0  0  0  0
  147.9525  135.3569  153.7922 H   0  0  0  0  0  0  0  0  0  0  0  0
  141.5596  134.6496  153.5367 H   0  0  0  0  0  0  0  0  0  0  0  0
  142.5102  134.3595  151.2218 H   0  0  0  0  0  0  0  0  0  0  0  0
  144.5959  132.2393  151.9491 H   0  0  0  0  0  0  0  0  0  0  0  0
  142.9478  131.9809  151.2873 H   0  0  0  0  0  0  0  0  0  0  0  0
  145.3715  131.2182  149.2198 H   0  0  0  0  0  0  0  0  0  0  0  0
  145.9173  132.6711  148.4109 H   0  0  0  0  0  0  0  0  0  0  0  0
  147.3694  131.7998  149.9569 H   0  0  0  0  0  0  0  0  0  0  0  0
  143.2804  131.9508  148.3007 H   0  0  0  0  0  0  0  0  0  0  0  0
  142.2696  133.0691  149.1756 H   0  0  0  0  0  0  0  0  0  0  0  0
  144.2667  134.3922  147.9832 H   0  0  0  0  0  0  0  0  0  0  0  0
  144.2785  135.2599  149.8392 H   0  0  0  0  0  0  0  0  0  0  0  0
  145.5497  134.5760  150.9061 H   0  0  0  0  0  0  0  0  0  0  0  0
  146.9322  135.7377  157.9498 H   0  0  0  0  0  0  0  0  0  0  0  0
  146.8559  137.4453  157.5004 H   0  0  0  0  0  0  0  0  0  0  0  0
  1  2  2  0  0  0  0
  2 27  1  0  0  0  0
  2  3  2  0  0  0  0
  2  4  1  0  0  0  0
  4  5  1  0  0  0  0
  4 30  1  0  0  0  0
  4 31  1  0  0  0  0
  5  6  1  0  0  0  0
  5 32  1  0  0  0  0
  5 33  1  0  0  0  0
  6 28  1  0  0  0  0
  6 27  1  0  0  0  0
  6  7  1  0  0  0  0
  7  8  1  0  0  0  0
  7 34  1  0  0  0  0
  7 35  1  0  0  0  0
  8  9  1  0  0  0  0
  8 26  1  0  0  0  0
  9 14  1  0  0  0  0
  9 10  2  0  0  0  0
 10 11  1  0  0  0  0
 11 12  2  0  0  0  0
 11 36  1  0  0  0  0
 12 13  1  0  0  0  0
 13 17  1  0  0  0  0
 13 14  2  0  0  0  0
 14 15  1  0  0  0  0
 15 16  2  0  0  0  0
 16 17  1  0  0  0  0
 16 37  1  0  0  0  0
 17 18  1  0  0  0  0
 18 25  1  0  0  0  0
 18 19  1  0  0  0  0
 18 38  1  0  0  0  0
 19 20  1  0  0  0  0
 19 39  1  0  0  0  0
 19 40  1  0  0  0  0
 20 21  1  0  0  0  0
 20 23  1  0  0  0  0
 20 25  1  0  0  0  0
 21 22  1  0  0  0  0
 21 41  1  0  0  0  0
 21 42  1  0  0  0  0
 22 43  1  0  0  0  0
 23 24  1  0  0  0  0
 23 44  1  0  0  0  0
 23 45  1  0  0  0  0
 24 46  1  0  0  0  0
 25 47  1  0  0  0  0
 25 48  1  0  0  0  0
 26 27  1  0  0  0  0
 26 49  1  0  0  0  0
 26 50  1  0  0  0  0
 27 29  1  0  0  0  0
M  END
> <s_m_source_file>
AV-unprocessed.smi

> <i_m_source_file_index>
279

> <i_lp_mmshare_version>
43012

> <i_f3d_flags>
0

> <s_epik_input>
W0NIMl0xW0NIMl1TKD1PKSg9TylbQ0BASF0oW0NAQEhdMTIpW0NIMl1OKFtDSDJdMiljKG5bY0hdbjMpYyhjMzQpbltjSF1uNFtDSF0oW0NIMl01KVtDSDJdQzUoW0NIMl1bT0hdKVtDSDJdW09IXQ==

> <s_epik_cmdline>
J2VwaWtfcHl0aG9uJywgJy1waCcsICc3LjAnLCAnLXRuJywgJzgnLCAnLW1hJywgJzIwMCcsICctbWV0YWxfYmluZGluZycsICctaW1hZScsICc8aW5maWxlLm1hZT4nLCAnLW9tYWUnLCAnPG91dGZpbGUubWFlPic=

> <r_lp_tautomer_probability>
1

> <r_epik_Ionization_Penalty>
0.000990948

> <r_epik_Ionization_Penalty_Charging>
0

> <r_epik_Ionization_Penalty_Neutral>
0.000990948

> <r_epik_State_Penalty>
0.000515994

> <r_epik_Charging_Adjusted_Penalty>
0.000515994

> <i_epik_Tot_Q>
0

> <i_epik_Tot_abs_Q>
0

> <r_epik_Metal_State_Penalty>
-0

> <b_epik_Metal_Only>
0

> <s_lp_Force_Field>
OPLS_2005

> <r_lp_Energy>
55.7342

> <b_lp_Chiralities_Consistent>
1

> <s_lp_Variant>
AV-unprocessed.smi:279-2

> <Gold.Version>
5.8.1

> <Gold.Id.Protein>
6NUR|6NUR_protein|mol2

> <Gold.PLP.Fitness>
47.0381

> <Gold.PLP.PLP>
-32.6397

> <Gold.PLP.part.hbond>
-6.8713

> <Gold.PLP.part.metal>
0.0000

> <Gold.PLP.part.buried>
-1.3629

> <Gold.PLP.part.nonpolar>
-22.9672

> <Gold.PLP.part.repulsive>
0.1946

> <Gold.PLP.ligand.clash>
0.0000

> <Gold.PLP.ligand.torsion>
1.3730

> <Gold.PLP.Chemscore.Hbond>
4.5663

> <Gold.PLP.Chemscore.CHOScore>
0.8961

> <Gold.PLP.Chemscore.Metal>
0.0000

> <Gold.Chemscore.Hbonds>
donor molecule, donor type, donor heavy atom, donor atom, acceptor molecule, acceptor atom, score
      L1  H    22    43       P1 10747  1.00
      L1  H    24    46       P1  7921  0.99
      P1  H  6931  6943       L1     1  0.56
      P1  H  6934  6947       L1     1  0.98
      P1  H 10192 10197       L1    24  1.00
      L1  C    11    36       P1  7948  0.98

> <Gold.PLP.Chemscore.Internal.Correction>
0.7572

> <Gold.Rescore>
     Score         DG    S(hbond)    S(metal)    S(lipo)     H(rot)  DE(clash)    DE(int)     intcor
     17.34     -19.86       4.54        0.00      65.37       3.29       1.42       1.09       ----

> <Gold.Chemscore.Fitness>
17.3408

> <Gold.Chemscore.DG>
-19.8585

> <Gold.Chemscore.ZeroCoef>
-5.4800

> <Gold.Chemscore.Hbond>
4.5400

> <Gold.Chemscore.Metal>
0.0000

> <Gold.Chemscore.Lipo>
65.3732

> <Gold.Chemscore.Internal_Hbond>
0.0000

> <Gold.Chemscore.DEClash>
1.4234

> <Gold.Chemscore.DEInternal>
1.0942

> <Gold.Chemscore.Rot>
3.2944

> <Gold.Chemscore.Internal.Correction>
   9.000000E+99

> <Gold.Chemscore.Hbonds>
donor molecule, donor type, donor heavy atom, donor atom, acceptor molecule, acceptor atom, score
      L1  H    22    43       P1 10747  0.95
      L1  H    24    46       P1  7921  0.94
      P1  H  6931  6943       L1     1  0.56
      P1  H  6934  6947       L1     1  0.92
      P1  H 10192 10197       L1    24  0.74

> <Gold.Chemscore.Hbond.Weighted>
-15.1635

> <Gold.Chemscore.Metal.Weighted>
-0.0000

> <Gold.Chemscore.Lipo.Weighted>
-7.6487

> <Gold.Chemscore.Internal_Hbond.Weighted>
0.0000

> <Gold.Chemscore.DEClash.Weighted>
1.4234

> <Gold.Chemscore.DEInternal.Weighted>
1.0942

> <Gold.Chemscore.Rot.Weighted>
8.4337

> <Gold.Chemscore.Internal.Correction.Weighted>
   9.000000E+99

> <Gold.Protein.RotatedTorsions>
[ 6907 6896 6895 6894 ] final   34.77 input  -60.11 | X-H torsion
[ 7974 7965 7964 7962 ] final -151.57 input  175.53 | X-H torsion
[ 8008 7997 7996 7995 ] final  -75.40 input   59.86 | X-H torsion
[ 10167 10162 10161 10158 ] final   -1.92 input  -65.29 | X-H torsion
[ 10718 10713 10712 10709 ] final -178.54 input   66.30 | X-H torsion
[ 10763 10752 10751 10750 ] final -148.19 input  -60.55 | X-H torsion
[ 11005 11000 10999 10996 ] final   83.41 input  -57.11 | X-H torsion

> <Gold.Protein.ActiveResidues>
 VAL166  LYS551  ARG553  GLY616  TRP617  ASP618  TYR619  PRO620  LYS621  CYS622 
 ASP623  PHE694  ASN695  SER759  ASP760  ASP761  ALA762  ILE779  LEU786  VAL792 
 PHE793  MET794  SER795  GLU796  ALA797  LYS798  CYS799  TRP800  GLU811  SER814 

> <Gold.Protein.RotatedAtoms>
  152.1069  134.9302  160.0567 H   0  0  0  0  0  0  0  0  0  0  0  0  # atno 6907 bound_to 6896
  152.0494  133.4007  159.4379 H   0  0  0  0  0  0  0  0  0  0  0  0  # atno 6908 bound_to 6896
  150.6841  134.3245  159.4844 H   0  0  0  0  0  0  0  0  0  0  0  0  # atno 6909 bound_to 6896
  144.7842  140.4779  143.5818 H   0  0  0  0  0  0  0  0  0  0  0  0  # atno 7974 bound_to 7965
  154.5414  140.0744  156.8516 H   0  0  0  0  0  0  0  0  0  0  0  0  # atno 8008 bound_to 7997
  155.3174  140.3394  155.4224 H   0  0  0  0  0  0  0  0  0  0  0  0  # atno 8009 bound_to 7997
  156.1878  140.1675  156.8138 H   0  0  0  0  0  0  0  0  0  0  0  0  # atno 8010 bound_to 7997
  140.6830  143.6718  150.8178 H   0  0  0  0  0  0  0  0  0  0  0  0  # atno 10167 bound_to 10162
  156.8458  130.9702  151.3096 H   0  0  0  0  0  0  0  0  0  0  0  0  # atno 10718 bound_to 10713
  154.8246  135.3341  154.6936 H   0  0  0  0  0  0  0  0  0  0  0  0  # atno 10763 bound_to 10752
  153.7563  135.6935  153.4939 H   0  0  0  0  0  0  0  0  0  0  0  0  # atno 10764 bound_to 10752
  153.2141  135.4472  155.0363 H   0  0  0  0  0  0  0  0  0  0  0  0  # atno 10765 bound_to 10752
  139.9032  134.8143  156.2306 H   0  0  0  0  0  0  0  0  0  0  0  0  # atno 11005 bound_to 11000
  145.5967  139.1500  143.3152 LP  0  0  0  0  0  0  0  0  0  0  0  0  # atno 17320 bound_to 7965
  146.2066  140.6090  142.9078 LP  0  0  0  0  0  0  0  0  0  0  0  0  # atno 17321 bound_to 7965
  140.0421  143.5335  152.2713 LP  0  0  0  0  0  0  0  0  0  0  0  0  # atno 17342 bound_to 10162
  139.6166  144.7620  151.2832 LP  0  0  0  0  0  0  0  0  0  0  0  0  # atno 17343 bound_to 10162
  157.6330  130.8744  149.9308 LP  0  0  0  0  0  0  0  0  0  0  0  0  # atno 17370 bound_to 10713
  156.0855  130.3668  150.0496 LP  0  0  0  0  0  0  0  0  0  0  0  0  # atno 17371 bound_to 10713
  141.0348  133.6969  156.1493 LP  0  0  0  0  0  0  0  0  0  0  0  0  # atno 17394 bound_to 11000
  140.7043  134.4530  157.5585 LP  0  0  0  0  0  0  0  0  0  0  0  0  # atno 17395 bound_to 11000

$$$$
