AV-unprocessed.smi:243|AV-procd|sdf|1858|dock8
  -GOLD-   2262020493D 1   1.00000     0.00000
 Structure written by MMmdl.
 58 61  0  0  0  0  0  0  0  0  2 V2000
  145.3394  131.9425  150.0099 C   0  0  0  0  0  0  0  0  0  0  0  0
  143.9151  132.4733  149.7906 C   0  0  0  0  0  0  0  0  0  0  0  0
  143.6571  133.7371  150.5266 N   0  3  2  0  0  0  0  0  0  0  0  0
  144.8407  134.6346  150.5249 C   0  0  0  0  0  0  0  0  0  0  0  0
  144.5372  135.9907  151.1909 C   0  0  0  0  0  0  0  0  0  0  0  0
  143.8600  135.8877  152.5739 C   0  0  2  0  0  0  0  0  0  0  0  0
  144.8118  135.7429  153.6906 N   0  0  0  0  0  0  0  0  0  0  0  0
  145.1265  134.4680  154.3325 C   0  0  0  0  0  0  0  0  0  0  0  0
  145.1276  136.8657  154.3870 C   0  0  0  0  0  0  0  0  0  0  0  0
  144.6647  137.0068  155.6576 N   0  0  0  0  0  0  0  0  0  0  0  0
  144.9417  138.1099  156.3584 C   0  0  0  0  0  0  0  0  0  0  0  0
  145.6552  139.1750  155.9896 N   0  0  0  0  0  0  0  0  0  0  0  0
  146.1379  139.0336  154.7221 C   0  0  0  0  0  0  0  0  0  0  0  0
  145.9240  137.9219  153.8587 C   0  0  0  0  0  0  0  0  0  0  0  0
  146.5775  138.1308  152.6496 N   0  0  0  0  0  0  0  0  0  0  0  0
  147.1334  139.3035  152.7859 C   0  0  0  0  0  0  0  0  0  0  0  0
  146.9262  139.9147  154.0021 N   0  0  0  0  0  0  0  0  0  0  0  0
  147.4229  141.2179  154.4181 C   0  0  0  0  0  0  0  0  0  0  0  0
  148.9622  141.2816  154.5598 C   0  0  1  0  0  0  0  0  0  0  0  0
  149.5445  141.3163  153.2677 O   0  0  0  0  0  0  0  0  0  0  0  0
  149.4337  142.5108  155.3281 C   0  0  0  0  0  0  0  0  0  0  0  0
  150.7232  142.0287  155.9791 C   0  0  0  0  0  0  0  0  0  0  0  0
  150.4038  140.7024  156.3626 O   0  0  0  0  0  0  0  0  0  0  0  0
  149.5922  140.1148  155.3500 C   0  0  0  0  0  0  0  0  0  0  0  0
  142.7084  134.8522  152.5484 C   0  0  2  0  0  0  0  0  0  0  0  0
  142.0172  134.6598  153.9091 C   0  0  0  0  0  0  0  0  0  0  0  0
  143.1283  133.5192  151.8991 C   0  0  0  0  0  0  0  0  0  0  0  0
  145.4604  130.9676  149.5370 H   0  0  0  0  0  0  0  0  0  0  0  0
  145.5562  131.8221  151.0719 H   0  0  0  0  0  0  0  0  0  0  0  0
  146.0949  132.6017  149.5835 H   0  0  0  0  0  0  0  0  0  0  0  0
  143.7128  132.6106  148.7273 H   0  0  0  0  0  0  0  0  0  0  0  0
  143.2213  131.7070  150.1393 H   0  0  0  0  0  0  0  0  0  0  0  0
  145.6845  134.1361  150.9969 H   0  0  0  0  0  0  0  0  0  0  0  0
  145.1468  134.8201  149.4945 H   0  0  0  0  0  0  0  0  0  0  0  0
  145.4422  136.5964  151.2532 H   0  0  0  0  0  0  0  0  0  0  0  0
  143.8635  136.5377  150.5301 H   0  0  0  0  0  0  0  0  0  0  0  0
  143.3557  136.8430  152.7166 H   0  0  0  0  0  0  0  0  0  0  0  0
  146.0725  134.5331  154.8721 H   0  0  0  0  0  0  0  0  0  0  0  0
  145.2319  133.6611  153.6149 H   0  0  0  0  0  0  0  0  0  0  0  0
  144.3517  134.1911  155.0474 H   0  0  0  0  0  0  0  0  0  0  0  0
  144.5319  138.1447  157.3572 H   0  0  0  0  0  0  0  0  0  0  0  0
  147.7181  139.7570  151.9986 H   0  0  0  0  0  0  0  0  0  0  0  0
  147.0795  141.9594  153.6954 H   0  0  0  0  0  0  0  0  0  0  0  0
  146.9493  141.4764  155.3661 H   0  0  0  0  0  0  0  0  0  0  0  0
  149.1345  140.6502  152.7370 H   0  0  0  0  0  0  0  0  0  0  0  0
  149.5714  143.3950  154.7042 H   0  0  0  0  0  0  0  0  0  0  0  0
  148.7176  142.7665  156.1104 H   0  0  0  0  0  0  0  0  0  0  0  0
  151.5455  142.0165  155.2618 H   0  0  0  0  0  0  0  0  0  0  0  0
  151.0184  142.6359  156.8351 H   0  0  0  0  0  0  0  0  0  0  0  0
  148.8456  139.4879  155.8359 H   0  0  0  0  0  0  0  0  0  0  0  0
  150.1993  139.4668  154.7157 H   0  0  0  0  0  0  0  0  0  0  0  0
  141.9457  135.2732  151.8909 H   0  0  0  0  0  0  0  0  0  0  0  0
  142.6679  134.1663  154.6305 H   0  0  0  0  0  0  0  0  0  0  0  0
  141.1201  134.0484  153.8077 H   0  0  0  0  0  0  0  0  0  0  0  0
  141.7148  135.6174  154.3342 H   0  0  0  0  0  0  0  0  0  0  0  0
  142.2559  132.8683  151.8562 H   0  0  0  0  0  0  0  0  0  0  0  0
  143.8683  132.9971  152.5046 H   0  0  0  0  0  0  0  0  0  0  0  0
  142.9377  134.2242  150.0113 H   0  0  0  0  0  0  0  0  0  0  0  0
  1  2  1  0  0  0  0
  1 28  1  0  0  0  0
  1 29  1  0  0  0  0
  1 30  1  0  0  0  0
  2  3  1  0  0  0  0
  2 31  1  0  0  0  0
  2 32  1  0  0  0  0
  3 27  1  0  0  0  0
  3  4  1  0  0  0  0
  3 58  1  0  0  0  0
  4  5  1  0  0  0  0
  4 33  1  0  0  0  0
  4 34  1  0  0  0  0
  5  6  1  0  0  0  0
  5 35  1  0  0  0  0
  5 36  1  0  0  0  0
  6  7  1  0  0  0  0
  6 25  1  0  0  0  0
  6 37  1  0  0  0  0
  7  8  1  0  0  0  0
  7  9  1  0  0  0  0
  8 38  1  0  0  0  0
  8 39  1  0  0  0  0
  8 40  1  0  0  0  0
  9 14  1  0  0  0  0
  9 10  2  0  0  0  0
 10 11  1  0  0  0  0
 11 12  2  0  0  0  0
 11 41  1  0  0  0  0
 12 13  1  0  0  0  0
 13 17  1  0  0  0  0
 13 14  2  0  0  0  0
 14 15  1  0  0  0  0
 15 16  2  0  0  0  0
 16 17  1  0  0  0  0
 16 42  1  0  0  0  0
 17 18  1  0  0  0  0
 18 19  1  0  0  0  0
 18 43  1  0  0  0  0
 18 44  1  0  0  0  0
 19 24  1  0  0  0  0
 19 20  1  0  0  0  0
 19 21  1  0  0  0  0
 20 45  1  0  0  0  0
 21 22  1  0  0  0  0
 21 46  1  0  0  0  0
 21 47  1  0  0  0  0
 22 23  1  0  0  0  0
 22 48  1  0  0  0  0
 22 49  1  0  0  0  0
 23 24  1  0  0  0  0
 24 50  1  0  0  0  0
 24 51  1  0  0  0  0
 25 26  1  0  0  0  0
 25 27  1  0  0  0  0
 25 52  1  0  0  0  0
 26 53  1  0  0  0  0
 26 54  1  0  0  0  0
 26 55  1  0  0  0  0
 27 56  1  0  0  0  0
 27 57  1  0  0  0  0
M  CHG  1   3   1
M  END
> <s_m_source_file>
AV-unprocessed.smi

> <i_m_source_file_index>
243

> <i_lp_mmshare_version>
43012

> <i_f3d_flags>
0

> <s_epik_input>
W0NIM11bQ0gyXU4xW0NIMl1bQ0gyXVtDQEhdKFtDQEBIXShbQ0gzXSlbQ0gyXTEpTihbQ0gzXSljKG5bY0hdbjIpYyhjMjMpbltjSF1uM1tDSDJdW0NAQF00KFtPSF0pW0NIMl1bQ0gyXU9bQ0gyXTQ=

> <s_epik_cmdline>
J2VwaWtfcHl0aG9uJywgJy1waCcsICc3LjAnLCAnLXRuJywgJzgnLCAnLW1hJywgJzIwMCcsICctbWV0YWxfYmluZGluZycsICctaW1hZScsICc8aW5maWxlLm1hZT4nLCAnLW9tYWUnLCAnPG91dGZpbGUubWFlPic=

> <r_lp_tautomer_probability>
1

> <r_epik_Ionization_Penalty>
0.00253099

> <r_epik_Ionization_Penalty_Charging>
0.00137877

> <r_epik_Ionization_Penalty_Neutral>
0.00115221

> <r_epik_State_Penalty>
-0

> <r_epik_Charging_Adjusted_Penalty>
0.00137877

> <i_epik_Tot_Q>
1

> <i_epik_Tot_abs_Q>
1

> <r_epik_Metal_State_Penalty>
-0

> <b_epik_Metal_Only>
0

> <s_lp_Force_Field>
OPLS_2005

> <r_lp_Energy>
51.0856

> <b_lp_Chiralities_Consistent>
1

> <s_lp_Variant>
AV-unprocessed.smi:243-11

> <Gold.Version>
5.8.1

> <Gold.Id.Protein>
6NUR|6NUR_protein|mol2

> <Gold.PLP.Fitness>
44.2295

> <Gold.PLP.PLP>
-34.2334

> <Gold.PLP.part.hbond>
-3.6144

> <Gold.PLP.part.metal>
0.0000

> <Gold.PLP.part.buried>
1.9113

> <Gold.PLP.part.nonpolar>
-34.6284

> <Gold.PLP.part.repulsive>
0.4368

> <Gold.PLP.ligand.clash>
0.0000

> <Gold.PLP.ligand.torsion>
2.1754

> <Gold.PLP.Chemscore.Hbond>
3.6080

> <Gold.PLP.Chemscore.CHOScore>
1.0000

> <Gold.PLP.Chemscore.Metal>
0.0000

> <Gold.Chemscore.Hbonds>
donor molecule, donor type, donor heavy atom, donor atom, acceptor molecule, acceptor atom, score
      L1  H     3    58       P1 10186  1.98
      L1  H    20    45       P1  7957  0.58
      P1  H  7989  7998       L1    20  0.04
      P1  H  8011  8017       L1    20  0.83
      L1  C    16    42       P1  7957  1.00

> <Gold.PLP.Chemscore.Internal.Correction>
0.5229

> <Gold.Rescore>
     Score         DG    S(hbond)    S(metal)    S(lipo)     H(rot)  DE(clash)    DE(int)     intcor
     14.73     -18.47       2.25        0.00      95.65       2.24       1.65       2.10       ----

> <Gold.Chemscore.Fitness>
14.7314

> <Gold.Chemscore.DG>
-18.4729

> <Gold.Chemscore.ZeroCoef>
-5.4800

> <Gold.Chemscore.Hbond>
2.2549

> <Gold.Chemscore.Metal>
0.0000

> <Gold.Chemscore.Lipo>
95.6463

> <Gold.Chemscore.Internal_Hbond>
0.0000

> <Gold.Chemscore.DEClash>
1.6464

> <Gold.Chemscore.DEInternal>
2.0950

> <Gold.Chemscore.Rot>
2.2379

> <Gold.Chemscore.Internal.Correction>
   9.000000E+99

> <Gold.Chemscore.Hbonds>
donor molecule, donor type, donor heavy atom, donor atom, acceptor molecule, acceptor atom, score
      L1  H     3    58       P1 10186  0.88
      L1  H    20    45       P1  7957  0.58
      P1  H  7989  7998       L1    20  0.04
      P1  H  8011  8017       L1    20  0.36

> <Gold.Chemscore.Hbond.Weighted>
-7.5313

> <Gold.Chemscore.Metal.Weighted>
-0.0000

> <Gold.Chemscore.Lipo.Weighted>
-11.1906

> <Gold.Chemscore.Internal_Hbond.Weighted>
0.0000

> <Gold.Chemscore.DEClash.Weighted>
1.6464

> <Gold.Chemscore.DEInternal.Weighted>
2.0950

> <Gold.Chemscore.Rot.Weighted>
5.7291

> <Gold.Chemscore.Internal.Correction.Weighted>
   9.000000E+99

> <Gold.Protein.RotatedTorsions>
[ 6907 6896 6895 6894 ] final   60.68 input  -60.11 | X-H torsion
[ 7974 7965 7964 7962 ] final  147.97 input  175.53 | X-H torsion
[ 8008 7997 7996 7995 ] final -126.02 input   59.86 | X-H torsion
[ 10167 10162 10161 10158 ] final  107.12 input  -65.29 | X-H torsion
[ 10718 10713 10712 10709 ] final  172.66 input   66.30 | X-H torsion
[ 10763 10752 10751 10750 ] final   43.88 input  -60.55 | X-H torsion
[ 11005 11000 10999 10996 ] final   34.63 input  -57.11 | X-H torsion

> <Gold.Protein.ActiveResidues>
 VAL166  LYS551  ARG553  GLY616  TRP617  ASP618  TYR619  PRO620  LYS621  CYS622 
 ASP623  PHE694  ASN695  SER759  ASP760  ASP761  ALA762  ILE779  LEU786  VAL792 
 PHE793  MET794  SER795  GLU796  ALA797  LYS798  CYS799  TRP800  GLU811  SER814 

> <Gold.Protein.RotatedAtoms>
  152.4024  134.6264  160.0063 H   0  0  0  0  0  0  0  0  0  0  0  0  # atno 6907 bound_to 6896
  151.6465  133.3317  159.3150 H   0  0  0  0  0  0  0  0  0  0  0  0  # atno 6908 bound_to 6896
  150.7923  134.6998  159.6588 H   0  0  0  0  0  0  0  0  0  0  0  0  # atno 6909 bound_to 6896
  144.8550  139.6095  143.5956 H   0  0  0  0  0  0  0  0  0  0  0  0  # atno 7974 bound_to 7965
  155.2229  140.0422  157.2951 H   0  0  0  0  0  0  0  0  0  0  0  0  # atno 8008 bound_to 7997
  154.5938  140.2434  155.7855 H   0  0  0  0  0  0  0  0  0  0  0  0  # atno 8009 bound_to 7997
  156.2277  140.2949  156.0117 H   0  0  0  0  0  0  0  0  0  0  0  0  # atno 8010 bound_to 7997
  139.6953  144.7102  151.1278 H   0  0  0  0  0  0  0  0  0  0  0  0  # atno 10167 bound_to 10162
  156.9756  131.0103  151.2894 H   0  0  0  0  0  0  0  0  0  0  0  0  # atno 10718 bound_to 10713
  152.9852  135.6088  154.3184 H   0  0  0  0  0  0  0  0  0  0  0  0  # atno 10763 bound_to 10752
  154.2895  135.2775  155.2663 H   0  0  0  0  0  0  0  0  0  0  0  0  # atno 10764 bound_to 10752
  154.4965  135.5878  153.6555 H   0  0  0  0  0  0  0  0  0  0  0  0  # atno 10765 bound_to 10752
  140.2508  134.3305  155.7891 H   0  0  0  0  0  0  0  0  0  0  0  0  # atno 11005 bound_to 11000
  146.2816  139.6892  142.9225 LP  0  0  0  0  0  0  0  0  0  0  0  0  # atno 17320 bound_to 7965
  145.4424  141.0423  143.2850 LP  0  0  0  0  0  0  0  0  0  0  0  0  # atno 17321 bound_to 7965
  140.7694  143.5501  150.9215 LP  0  0  0  0  0  0  0  0  0  0  0  0  # atno 17342 bound_to 10162
  139.9180  143.6640  152.3102 LP  0  0  0  0  0  0  0  0  0  0  0  0  # atno 17343 bound_to 10162
  157.5562  130.8215  149.8207 LP  0  0  0  0  0  0  0  0  0  0  0  0  # atno 17370 bound_to 10713
  156.0265  130.3778  150.1809 LP  0  0  0  0  0  0  0  0  0  0  0  0  # atno 17371 bound_to 10713
  141.2201  133.7353  156.9035 LP  0  0  0  0  0  0  0  0  0  0  0  0  # atno 17394 bound_to 11000
  140.1559  134.9198  157.2653 LP  0  0  0  0  0  0  0  0  0  0  0  0  # atno 17395 bound_to 11000

$$$$
