AV-unprocessed.smi:1875|AV-procd|sdf|7613|dock6
  -GOLD-   22720 9333D 1   1.00000     0.00000
 Structure written by MMmdl.
 48 50  0  0  0  0  0  0  0  0  2 V2000
  151.1020  131.1032  155.7573 C   0  0  0  0  0  0  0  0  0  0  0  0
  150.0751  131.9387  155.0209 C   0  0  0  0  0  0  0  0  0  0  0  0
  149.4088  131.3390  154.0298 N   0  0  0  0  0  0  0  0  0  0  0  0
  148.4986  132.0836  153.3647 C   0  0  0  0  0  0  0  0  0  0  0  0
  148.2608  133.4333  153.6954 C   0  0  0  0  0  0  0  0  0  0  0  0
  149.0225  133.9564  154.7612 C   0  0  0  0  0  0  0  0  0  0  0  0
  148.8732  135.3955  155.2073 C   0  0  0  0  0  0  0  0  0  0  0  0
  149.9113  136.2354  154.5824 N   0  3  0  0  0  0  0  0  0  0  0  0
  150.2647  137.4370  155.3631 C   0  0  0  0  0  0  0  0  0  0  0  0
  150.5655  138.6339  154.4419 C   0  0  1  0  0  0  0  0  0  0  0  0
  149.6282  138.6291  153.3830 O   0  0  0  0  0  0  0  0  0  0  0  0
  150.5163  139.9984  155.1644 C   0  0  0  0  0  0  0  0  0  0  0  0
  151.4048  140.0878  156.3124 N   0  0  0  0  0  0  0  0  0  0  0  0
  152.3421  139.1943  156.6850 C   0  0  0  0  0  0  0  0  0  0  0  0
  153.0479  139.4697  157.7772 N   0  0  0  0  0  0  0  0  0  0  0  0
  152.5170  140.6920  158.1514 C   0  0  0  0  0  0  0  0  0  0  0  0
  152.8354  141.5349  159.2385 C   0  0  0  0  0  0  0  0  0  0  0  0
  152.1569  142.7596  159.4290 C   0  0  0  0  0  0  0  0  0  0  0  0
  152.5316  143.6354  160.6119 C   0  0  0  0  0  0  0  0  0  0  0  0
  151.1416  143.1574  158.5227 C   0  0  0  0  0  0  0  0  0  0  0  0
  150.4005  144.4700  158.7062 C   0  0  0  0  0  0  0  0  0  0  0  0
  150.8105  142.3268  157.4315 C   0  0  0  0  0  0  0  0  0  0  0  0
  151.4908  141.1091  157.2536 C   0  0  0  0  0  0  0  0  0  0  0  0
  149.9352  133.2073  155.4198 N   0  0  0  0  0  0  0  0  0  0  0  0
  150.8560  130.0420  155.7059 H   0  0  0  0  0  0  0  0  0  0  0  0
  151.1514  131.3851  156.8097 H   0  0  0  0  0  0  0  0  0  0  0  0
  152.0887  131.2479  155.3165 H   0  0  0  0  0  0  0  0  0  0  0  0
  147.9596  131.6015  152.5625 H   0  0  0  0  0  0  0  0  0  0  0  0
  147.5342  134.0270  153.1601 H   0  0  0  0  0  0  0  0  0  0  0  0
  147.8844  135.7666  154.9346 H   0  0  0  0  0  0  0  0  0  0  0  0
  148.9529  135.4526  156.2939 H   0  0  0  0  0  0  0  0  0  0  0  0
  150.7403  135.6727  154.4559 H   0  0  0  0  0  0  0  0  0  0  0  0
  149.4528  137.6731  156.0526 H   0  0  0  0  0  0  0  0  0  0  0  0
  151.1434  137.2090  155.9677 H   0  0  0  0  0  0  0  0  0  0  0  0
  151.5593  138.5152  154.0078 H   0  0  0  0  0  0  0  0  0  0  0  0
  149.6053  139.4914  152.9957 H   0  0  0  0  0  0  0  0  0  0  0  0
  150.7839  140.7928  154.4664 H   0  0  0  0  0  0  0  0  0  0  0  0
  149.5000  140.2161  155.4954 H   0  0  0  0  0  0  0  0  0  0  0  0
  152.5108  138.2853  156.1265 H   0  0  0  0  0  0  0  0  0  0  0  0
  153.6100  141.2323  159.9278 H   0  0  0  0  0  0  0  0  0  0  0  0
  152.8518  144.6209  160.2731 H   0  0  0  0  0  0  0  0  0  0  0  0
  153.3481  143.1989  161.1880 H   0  0  0  0  0  0  0  0  0  0  0  0
  151.6790  143.7586  161.2801 H   0  0  0  0  0  0  0  0  0  0  0  0
  149.6342  144.6045  157.9425 H   0  0  0  0  0  0  0  0  0  0  0  0
  151.0918  145.3104  158.6386 H   0  0  0  0  0  0  0  0  0  0  0  0
  149.9109  144.5007  159.6799 H   0  0  0  0  0  0  0  0  0  0  0  0
  150.0396  142.6195  156.7343 H   0  0  0  0  0  0  0  0  0  0  0  0
  149.5810  136.5306  153.6746 H   0  0  0  0  0  0  0  0  0  0  0  0
  1  2  1  0  0  0  0
  1 25  1  0  0  0  0
  1 26  1  0  0  0  0
  1 27  1  0  0  0  0
  2 24  1  0  0  0  0
  2  3  2  0  0  0  0
  3  4  1  0  0  0  0
  4  5  2  0  0  0  0
  4 28  1  0  0  0  0
  5  6  1  0  0  0  0
  5 29  1  0  0  0  0
  6  7  1  0  0  0  0
  6 24  2  0  0  0  0
  7  8  1  0  0  0  0
  7 30  1  0  0  0  0
  7 31  1  0  0  0  0
  8  9  1  0  0  0  0
  8 32  1  0  0  0  0
  8 48  1  0  0  0  0
  9 10  1  0  0  0  0
  9 33  1  0  0  0  0
  9 34  1  0  0  0  0
 10 11  1  0  0  0  0
 10 12  1  0  0  0  0
 10 35  1  0  0  0  0
 11 36  1  0  0  0  0
 12 13  1  0  0  0  0
 12 37  1  0  0  0  0
 12 38  1  0  0  0  0
 13 23  1  0  0  0  0
 13 14  1  0  0  0  0
 14 15  2  0  0  0  0
 14 39  1  0  0  0  0
 15 16  1  0  0  0  0
 16 23  2  0  0  0  0
 16 17  1  0  0  0  0
 17 18  2  0  0  0  0
 17 40  1  0  0  0  0
 18 19  1  0  0  0  0
 18 20  1  0  0  0  0
 19 41  1  0  0  0  0
 19 42  1  0  0  0  0
 19 43  1  0  0  0  0
 20 21  1  0  0  0  0
 20 22  2  0  0  0  0
 21 44  1  0  0  0  0
 21 45  1  0  0  0  0
 21 46  1  0  0  0  0
 22 23  1  0  0  0  0
 22 47  1  0  0  0  0
M  CHG  1   8   1
M  END
> <s_m_source_file>
AV-unprocessed.smi

> <i_m_source_file_index>
1875

> <i_lp_mmshare_version>
43012

> <i_f3d_flags>
0

> <s_epik_input>
W0NIM11jMW5bY0hdW2NIXWMobjEpW0NIMl1bTkhdW0NIMl1bQ0BIXShbT0hdKVtDSDJdbihbY0hdbjIpYyhjMjMpW2NIXWMoW0NIM10pYyhbY0hdMylbQ0gzXQ==

> <s_epik_cmdline>
J2VwaWtfcHl0aG9uJywgJy1waCcsICc3LjAnLCAnLXRuJywgJzgnLCAnLW1hJywgJzIwMCcsICctbWV0YWxfYmluZGluZycsICctaW1hZScsICc8aW5maWxlLm1hZT4nLCAnLW9tYWUnLCAnPG91dGZpbGUubWFlPic=

> <r_lp_tautomer_probability>
1

> <r_epik_Ionization_Penalty>
0.192455

> <r_epik_Ionization_Penalty_Charging>
0.102343

> <r_epik_Ionization_Penalty_Neutral>
0.0901122

> <r_epik_State_Penalty>
0.175389

> <r_epik_Charging_Adjusted_Penalty>
0.277732

> <i_epik_Tot_Q>
1

> <i_epik_Tot_abs_Q>
1

> <r_epik_Metal_State_Penalty>
0.167659

> <b_epik_Metal_Only>
0

> <s_epik_Chemistry_Notes>
This compound contains an electron-poor aromatic ring that is susceptible to covalent hydrolysis at low pH, typically resulting in measured values for nitrogen ring protonation that are around two units higher than predicted values.

> <s_lp_Force_Field>
OPLS_2005

> <r_lp_Energy>
1.49454

> <b_lp_Chiralities_Consistent>
1

> <s_lp_Variant>
AV-unprocessed.smi:1875-2

> <Gold.Version>
5.8.1

> <Gold.Id.Protein>
6NUR|6NUR_protein|mol2

> <Gold.PLP.Fitness>
58.1360

> <Gold.PLP.PLP>
-46.2479

> <Gold.PLP.part.hbond>
-4.1794

> <Gold.PLP.part.metal>
0.0000

> <Gold.PLP.part.buried>
-3.4619

> <Gold.PLP.part.nonpolar>
-38.9932

> <Gold.PLP.part.repulsive>
0.1335

> <Gold.PLP.ligand.clash>
0.0000

> <Gold.PLP.ligand.torsion>
0.9647

> <Gold.PLP.Chemscore.Hbond>
3.6240

> <Gold.PLP.Chemscore.CHOScore>
0.9467

> <Gold.PLP.Chemscore.Metal>
0.0000

> <Gold.Chemscore.Hbonds>
donor molecule, donor type, donor heavy atom, donor atom, acceptor molecule, acceptor atom, score
      L1  H     8    48       P1  7948  2.00
      L1  H    11    36       P1  7957  0.61
      P1  H  7997  8010       L1    15  1.00
      L1  C     4    28       P1 10747  0.74

> <Gold.PLP.Chemscore.Internal.Correction>
0.1053

> <Gold.Rescore>
     Score         DG    S(hbond)    S(metal)    S(lipo)     H(rot)  DE(clash)    DE(int)     intcor
     15.33     -17.39       1.83        0.00     111.04       2.80       0.13       1.93       ----

> <Gold.Chemscore.Fitness>
15.3326

> <Gold.Chemscore.DG>
-17.3943

> <Gold.Chemscore.ZeroCoef>
-5.4800

> <Gold.Chemscore.Hbond>
1.8272

> <Gold.Chemscore.Metal>
0.0000

> <Gold.Chemscore.Lipo>
111.0380

> <Gold.Chemscore.Internal_Hbond>
0.0000

> <Gold.Chemscore.DEClash>
0.1342

> <Gold.Chemscore.DEInternal>
1.9274

> <Gold.Chemscore.Rot>
2.8047

> <Gold.Chemscore.Internal.Correction>
   9.000000E+99

> <Gold.Chemscore.Hbonds>
donor molecule, donor type, donor heavy atom, donor atom, acceptor molecule, acceptor atom, score
      L1  H     8    48       P1  7948  0.68
      L1  H    11    36       P1  7957  0.60
      P1  H  7997  8010       L1    15  0.07

> <Gold.Chemscore.Hbond.Weighted>
-6.1029

> <Gold.Chemscore.Metal.Weighted>
-0.0000

> <Gold.Chemscore.Lipo.Weighted>
-12.9914

> <Gold.Chemscore.Internal_Hbond.Weighted>
0.0000

> <Gold.Chemscore.DEClash.Weighted>
0.1342

> <Gold.Chemscore.DEInternal.Weighted>
1.9274

> <Gold.Chemscore.Rot.Weighted>
7.1801

> <Gold.Chemscore.Internal.Correction.Weighted>
   9.000000E+99

> <Gold.Protein.RotatedTorsions>
[ 6907 6896 6895 6894 ] final  -18.17 input  -60.11 | X-H torsion
[ 7974 7965 7964 7962 ] final  -81.09 input  175.53 | X-H torsion
[ 8008 7997 7996 7995 ] final   33.09 input   59.86 | X-H torsion
[ 10167 10162 10161 10158 ] final  -36.50 input  -65.29 | X-H torsion
[ 10718 10713 10712 10709 ] final  124.48 input   66.30 | X-H torsion
[ 10763 10752 10751 10750 ] final -107.52 input  -60.55 | X-H torsion
[ 11005 11000 10999 10996 ] final   16.20 input  -57.11 | X-H torsion

> <Gold.Protein.ActiveResidues>
 VAL166  LYS551  ARG553  GLY616  TRP617  ASP618  TYR619  PRO620  LYS621  CYS622 
 ASP623  PHE694  ASN695  SER759  ASP760  ASP761  ALA762  ILE779  LEU786  VAL792 
 PHE793  MET794  SER795  GLU796  ALA797  LYS798  CYS799  TRP800  GLU811  SER814 

> <Gold.Protein.RotatedAtoms>
  151.2822  135.0717  159.9173 H   0  0  0  0  0  0  0  0  0  0  0  0  # atno 6907 bound_to 6896
  152.5332  134.0019  159.7909 H   0  0  0  0  0  0  0  0  0  0  0  0  # atno 6908 bound_to 6896
  151.0275  133.5770  159.2695 H   0  0  0  0  0  0  0  0  0  0  0  0  # atno 6909 bound_to 6896
  145.5512  140.9496  143.1498 H   0  0  0  0  0  0  0  0  0  0  0  0  # atno 7974 bound_to 7965
  155.1330  140.3259  155.4470 H   0  0  0  0  0  0  0  0  0  0  0  0  # atno 8008 bound_to 7997
  156.2628  140.2007  156.6397 H   0  0  0  0  0  0  0  0  0  0  0  0  # atno 8009 bound_to 7997
  154.6599  140.0548  157.0037 H   0  0  0  0  0  0  0  0  0  0  0  0  # atno 8010 bound_to 7997
  140.7141  143.3404  151.2369 H   0  0  0  0  0  0  0  0  0  0  0  0  # atno 10167 bound_to 10162
  157.5581  131.1091  150.8586 H   0  0  0  0  0  0  0  0  0  0  0  0  # atno 10718 bound_to 10713
  154.8080  135.4672  154.0442 H   0  0  0  0  0  0  0  0  0  0  0  0  # atno 10763 bound_to 10752
  153.1896  135.6853  153.8377 H   0  0  0  0  0  0  0  0  0  0  0  0  # atno 10764 bound_to 10752
  153.7899  135.3244  155.3354 H   0  0  0  0  0  0  0  0  0  0  0  0  # atno 10765 bound_to 10752
  140.4497  134.1237  155.7701 H   0  0  0  0  0  0  0  0  0  0  0  0  # atno 11005 bound_to 11000
  144.7528  139.7150  143.7266 LP  0  0  0  0  0  0  0  0  0  0  0  0  # atno 17320 bound_to 7965
  146.1915  139.5158  142.9802 LP  0  0  0  0  0  0  0  0  0  0  0  0  # atno 17321 bound_to 7965
  139.6910  143.9691  152.2859 LP  0  0  0  0  0  0  0  0  0  0  0  0  # atno 17342 bound_to 10162
  139.9353  144.6716  150.8321 LP  0  0  0  0  0  0  0  0  0  0  0  0  # atno 17343 bound_to 10162
  156.9092  130.5274  149.5281 LP  0  0  0  0  0  0  0  0  0  0  0  0  # atno 17370 bound_to 10713
  156.0637  130.5685  150.9245 LP  0  0  0  0  0  0  0  0  0  0  0  0  # atno 17371 bound_to 10713
  141.1669  133.8685  157.1687 LP  0  0  0  0  0  0  0  0  0  0  0  0  # atno 17394 bound_to 11000
  140.0015  135.0026  157.0200 LP  0  0  0  0  0  0  0  0  0  0  0  0  # atno 17395 bound_to 11000

$$$$
