AV-unprocessed.smi:1385|AV-procd|sdf|5633|dock1
  -GOLD-   22720 5253D 1   1.00000     0.00000
 Structure written by MMmdl.
 38 39  0  0  0  0  0  0  0  0  3 V2000
  146.5386  133.7237  162.3931 C   0  0  0  0  0  0  0  0  0  0  0  0
  147.0851  134.9218  161.6954 C   0  0  0  0  0  0  0  0  0  0  0  0
  147.1760  136.1200  162.2776 N   0  0  0  0  0  0  0  0  0  0  0  0
  147.7189  137.0735  161.4290 N   0  0  0  0  0  0  0  0  0  0  0  0
  148.0403  136.5826  160.2237 C   0  0  0  0  0  0  0  0  0  0  0  0
  148.5768  137.3456  159.2568 N   0  5  0  0  0  0  0  0  0  0  0  0
  149.1967  136.7655  158.2048 C   0  0  0  0  0  0  0  0  0  0  0  0
  149.7450  135.6611  158.1947 O   0  0  0  0  0  0  0  0  0  0  0  0
  149.1836  137.5178  157.0955 N   0  0  0  0  0  0  0  0  0  0  0  0
  149.7853  137.1734  155.8078 C   0  0  2  0  0  0  0  0  0  0  0  0
  149.4040  138.1872  154.7105 C   0  0  0  0  0  0  0  0  0  0  0  0
  147.9147  138.0918  154.3363 C   0  0  0  0  0  0  0  0  0  0  0  0
  147.5557  136.7102  153.9182 N   0  3  2  0  0  0  0  0  0  0  0  0
  146.1609  136.5969  153.4190 C   0  0  0  0  0  0  0  0  0  0  0  0
  145.8904  137.4717  152.1903 C   0  0  0  0  0  0  0  0  0  0  0  0
  144.6376  137.9003  152.0196 N   0  0  0  0  0  0  0  0  0  0  0  0
  146.7896  137.7436  151.3968 O   0  0  0  0  0  0  0  0  0  0  0  0
  147.8597  135.7187  154.9813 C   0  0  0  0  0  0  0  0  0  0  0  0
  149.3472  135.7630  155.3776 C   0  0  0  0  0  0  0  0  0  0  0  0
  147.6671  134.8689  160.0401 S   0  0  0  0  0  0  0  0  0  0  0  0
  147.3440  133.1858  162.8928 H   0  0  0  0  0  0  0  0  0  0  0  0
  146.0617  133.0556  161.6758 H   0  0  0  0  0  0  0  0  0  0  0  0
  145.7989  134.0207  163.1371 H   0  0  0  0  0  0  0  0  0  0  0  0
  148.7137  138.4091  157.1562 H   0  0  0  0  0  0  0  0  0  0  0  0
  150.8697  137.1714  155.9302 H   0  0  0  0  0  0  0  0  0  0  0  0
  149.6451  139.2036  155.0242 H   0  0  0  0  0  0  0  0  0  0  0  0
  150.0073  137.9968  153.8219 H   0  0  0  0  0  0  0  0  0  0  0  0
  147.2929  138.3932  155.1808 H   0  0  0  0  0  0  0  0  0  0  0  0
  147.7063  138.7937  153.5286 H   0  0  0  0  0  0  0  0  0  0  0  0
  145.9617  135.5682  153.1160 H   0  0  0  0  0  0  0  0  0  0  0  0
  145.4564  136.8290  154.2196 H   0  0  0  0  0  0  0  0  0  0  0  0
  144.4028  138.4819  151.2280 H   0  0  0  0  0  0  0  0  0  0  0  0
  143.9248  137.6421  152.6874 H   0  0  0  0  0  0  0  0  0  0  0  0
  147.2268  135.9091  155.8496 H   0  0  0  0  0  0  0  0  0  0  0  0
  147.6171  134.7157  154.6285 H   0  0  0  0  0  0  0  0  0  0  0  0
  149.9523  135.4436  154.5280 H   0  0  0  0  0  0  0  0  0  0  0  0
  149.5444  135.0459  156.1754 H   0  0  0  0  0  0  0  0  0  0  0  0
  148.1516  136.4772  153.1364 H   0  0  0  0  0  0  0  0  0  0  0  0
  1  2  1  0  0  0  0
  1 21  1  0  0  0  0
  1 22  1  0  0  0  0
  1 23  1  0  0  0  0
  2 20  1  0  0  0  0
  2  3  2  0  0  0  0
  3  4  1  0  0  0  0
  4  5  2  0  0  0  0
  5  6  1  0  0  0  0
  5 20  1  0  0  0  0
  6  7  1  0  0  0  0
  7  8  2  0  0  0  0
  7  9  1  0  0  0  0
  9 10  1  0  0  0  0
  9 24  1  0  0  0  0
 10 19  1  0  0  0  0
 10 11  1  0  0  0  0
 10 25  1  0  0  0  0
 11 12  1  0  0  0  0
 11 26  1  0  0  0  0
 11 27  1  0  0  0  0
 12 13  1  0  0  0  0
 12 28  1  0  0  0  0
 12 29  1  0  0  0  0
 13 14  1  0  0  0  0
 13 18  1  0  0  0  0
 13 38  1  0  0  0  0
 14 15  1  0  0  0  0
 14 30  1  0  0  0  0
 14 31  1  0  0  0  0
 15 16  1  0  0  0  0
 15 17  2  0  0  0  0
 16 32  1  0  0  0  0
 16 33  1  0  0  0  0
 18 19  1  0  0  0  0
 18 34  1  0  0  0  0
 18 35  1  0  0  0  0
 19 36  1  0  0  0  0
 19 37  1  0  0  0  0
M  CHG  1   6  -1
M  CHG  1  13   1
M  END
> <s_m_source_file>
AV-unprocessed.smi

> <i_m_source_file_index>
1385

> <i_lp_mmshare_version>
43012

> <i_f3d_flags>
0

> <s_epik_input>
W0NIM11jMW5uYyhzMSlbTkhdQyg9TylbTkhdW0NIXTJbQ0gyXVtDSDJdTihbQ0gyXVtDSDJdMilbQ0gyXUMoPU8pW05IMl0=

> <s_epik_cmdline>
J2VwaWtfcHl0aG9uJywgJy1waCcsICc3LjAnLCAnLXRuJywgJzgnLCAnLW1hJywgJzIwMCcsICctbWV0YWxfYmluZGluZycsICctaW1hZScsICc8aW5maWxlLm1hZT4nLCAnLW9tYWUnLCAnPG91dGZpbGUubWFlPic=

> <r_lp_tautomer_probability>
1

> <r_epik_Ionization_Penalty>
3.90109

> <r_epik_Ionization_Penalty_Charging>
3.79141

> <r_epik_Ionization_Penalty_Neutral>
0.109679

> <r_epik_State_Penalty>
3.87237

> <r_epik_Charging_Adjusted_Penalty>
7.66378

> <i_epik_Tot_Q>
0

> <i_epik_Tot_abs_Q>
2

> <r_epik_Metal_State_Penalty>
1.33354

> <b_epik_Metal_Only>
1

> <s_lp_Force_Field>
OPLS_2005

> <r_lp_Energy>
6.54798

> <b_lp_Chiralities_Consistent>
1

> <s_lp_Variant>
AV-unprocessed.smi:1385-6

> <Gold.Version>
5.8.1

> <Gold.Id.Protein>
6NUR|6NUR_protein|mol2

> <Gold.PLP.Fitness>
43.6632

> <Gold.PLP.PLP>
-24.6830

> <Gold.PLP.part.hbond>
-7.2162

> <Gold.PLP.part.metal>
0.0000

> <Gold.PLP.part.buried>
-4.5562

> <Gold.PLP.part.nonpolar>
-16.5120

> <Gold.PLP.part.repulsive>
3.2954

> <Gold.PLP.ligand.clash>
0.0000

> <Gold.PLP.ligand.torsion>
0.6840

> <Gold.PLP.Chemscore.Hbond>
6.7025

> <Gold.PLP.Chemscore.CHOScore>
0.0000

> <Gold.PLP.Chemscore.Metal>
0.0000

> <Gold.Chemscore.Hbonds>
donor molecule, donor type, donor heavy atom, donor atom, acceptor molecule, acceptor atom, score
      L1  H    13    38       P1  7948  1.98
      L1  H    16    32       P1 10171  0.93
      P1  H  6896  6907       L1     8  1.00
      P1  H  6931  6943       L1     4  1.00
      P1  H  6934  6947       L1     4  0.70
      P1  H  7954  7966       L1    17  0.98

> <Gold.PLP.Chemscore.Internal.Correction>
0.2407

> <Gold.Rescore>
     Score         DG    S(hbond)    S(metal)    S(lipo)     H(rot)  DE(clash)    DE(int)     intcor
     16.23     -20.98       4.76        0.00      41.18       2.04       1.50       3.24       ----

> <Gold.Chemscore.Fitness>
16.2348

> <Gold.Chemscore.DG>
-20.9791

> <Gold.Chemscore.ZeroCoef>
-5.4800

> <Gold.Chemscore.Hbond>
4.7628

> <Gold.Chemscore.Metal>
0.0000

> <Gold.Chemscore.Lipo>
41.1759

> <Gold.Chemscore.Internal_Hbond>
0.0000

> <Gold.Chemscore.DEClash>
1.5042

> <Gold.Chemscore.DEInternal>
3.2400

> <Gold.Chemscore.Rot>
2.0415

> <Gold.Chemscore.Internal.Correction>
   9.000000E+99

> <Gold.Chemscore.Hbonds>
donor molecule, donor type, donor heavy atom, donor atom, acceptor molecule, acceptor atom, score
      L1  H    13    38       P1  7948  0.92
      L1  H    16    32       P1 10171  0.85
      P1  H  6896  6907       L1     8  0.95
      P1  H  6931  6943       L1     4  0.63
      P1  H  6934  6947       L1     4  0.20
      P1  H  7954  7966       L1    17  0.91

> <Gold.Chemscore.Hbond.Weighted>
-15.9077

> <Gold.Chemscore.Metal.Weighted>
-0.0000

> <Gold.Chemscore.Lipo.Weighted>
-4.8176

> <Gold.Chemscore.Internal_Hbond.Weighted>
0.0000

> <Gold.Chemscore.DEClash.Weighted>
1.5042

> <Gold.Chemscore.DEInternal.Weighted>
3.2400

> <Gold.Chemscore.Rot.Weighted>
5.2262

> <Gold.Chemscore.Internal.Correction.Weighted>
   9.000000E+99

> <Gold.Protein.RotatedTorsions>
[ 6907 6896 6895 6894 ] final  -75.53 input  -60.11 | X-H torsion
[ 7974 7965 7964 7962 ] final -174.47 input  175.53 | X-H torsion
[ 8008 7997 7996 7995 ] final  -77.72 input   59.86 | X-H torsion
[ 10167 10162 10161 10158 ] final   85.05 input  -65.29 | X-H torsion
[ 10718 10713 10712 10709 ] final  108.70 input   66.30 | X-H torsion
[ 10763 10752 10751 10750 ] final   89.51 input  -60.55 | X-H torsion
[ 11005 11000 10999 10996 ] final   19.40 input  -57.11 | X-H torsion

> <Gold.Protein.ActiveResidues>
 VAL166  LYS551  ARG553  GLY616  TRP617  ASP618  TYR619  PRO620  LYS621  CYS622 
 ASP623  PHE694  ASN695  SER759  ASP760  ASP761  ALA762  ILE779  LEU786  VAL792 
 PHE793  MET794  SER795  GLU796  ALA797  LYS798  CYS799  TRP800  GLU811  SER814 

> <Gold.Protein.RotatedAtoms>
  150.7056  134.4707  159.5423 H   0  0  0  0  0  0  0  0  0  0  0  0  # atno 6907 bound_to 6896
  152.2364  134.8269  160.0475 H   0  0  0  0  0  0  0  0  0  0  0  0  # atno 6908 bound_to 6896
  151.9066  133.3516  159.3886 H   0  0  0  0  0  0  0  0  0  0  0  0  # atno 6909 bound_to 6896
  144.7132  140.1466  143.6387 H   0  0  0  0  0  0  0  0  0  0  0  0  # atno 7974 bound_to 7965
  154.5622  140.0706  156.8837 H   0  0  0  0  0  0  0  0  0  0  0  0  # atno 8008 bound_to 7997
  155.2790  140.3370  155.4241 H   0  0  0  0  0  0  0  0  0  0  0  0  # atno 8009 bound_to 7997
  156.2052  140.1737  156.7801 H   0  0  0  0  0  0  0  0  0  0  0  0  # atno 8010 bound_to 7997
  139.9018  144.6325  150.8629 H   0  0  0  0  0  0  0  0  0  0  0  0  # atno 10167 bound_to 10162
  157.6574  131.0899  150.6345 H   0  0  0  0  0  0  0  0  0  0  0  0  # atno 10718 bound_to 10713
  153.1879  135.4467  155.0111 H   0  0  0  0  0  0  0  0  0  0  0  0  # atno 10763 bound_to 10752
  154.8072  135.3279  154.7404 H   0  0  0  0  0  0  0  0  0  0  0  0  # atno 10764 bound_to 10752
  153.7861  135.6974  153.4935 H   0  0  0  0  0  0  0  0  0  0  0  0  # atno 10765 bound_to 10752
  140.4141  134.1587  155.7669 H   0  0  0  0  0  0  0  0  0  0  0  0  # atno 11005 bound_to 11000
  145.9154  139.2512  143.1413 LP  0  0  0  0  0  0  0  0  0  0  0  0  # atno 17320 bound_to 7965
  145.9674  140.8787  143.0180 LP  0  0  0  0  0  0  0  0  0  0  0  0  # atno 17321 bound_to 7965
  140.7705  143.3431  151.2166 LP  0  0  0  0  0  0  0  0  0  0  0  0  # atno 17342 bound_to 10162
  139.7019  143.9519  152.2909 LP  0  0  0  0  0  0  0  0  0  0  0  0  # atno 17343 bound_to 10162
  156.6650  130.4523  149.5675 LP  0  0  0  0  0  0  0  0  0  0  0  0  # atno 17370 bound_to 10713
  156.2039  130.6637  151.1197 LP  0  0  0  0  0  0  0  0  0  0  0  0  # atno 17371 bound_to 10713
  141.1810  133.8414  157.1258 LP  0  0  0  0  0  0  0  0  0  0  0  0  # atno 17394 bound_to 11000
  140.0247  134.9930  157.0661 LP  0  0  0  0  0  0  0  0  0  0  0  0  # atno 17395 bound_to 11000

$$$$
