AV-unprocessed.smi:38|AV-procd|sdf|345|dock10
  -GOLD-   2262016183D 1   1.00000     0.00000
 Structure written by MMmdl.
 27 28  0  0  0  0  0  0  0  0  2 V2000
  152.7256  139.4518  155.6402 O   0  0  0  0  0  0  0  0  0  0  0  0
  151.5577  139.3838  155.2599 C   0  0  0  0  0  0  0  0  0  0  0  0
  150.8743  140.4621  154.7769 N   0  5  0  0  0  0  0  0  0  0  0  0
  149.5767  140.3858  154.3582 C   0  0  0  0  0  0  0  0  0  0  0  0
  148.9608  141.3475  153.8982 O   0  0  0  0  0  0  0  0  0  0  0  0
  148.9007  139.1389  154.4459 N   0  0  0  0  0  0  0  0  0  0  0  0
  147.4702  139.0327  153.9758 C   0  0  1  0  0  0  0  0  0  0  0  0
  147.3326  139.4827  152.5254 C   0  0  0  0  0  0  0  0  0  0  0  0
  146.1948  138.6023  152.0180 C   0  0  1  0  0  0  0  0  0  0  0  0
  146.5536  138.0112  150.7825 O   0  0  0  0  0  0  0  0  0  0  0  0
  145.9369  137.5844  153.1549 C   0  0  1  0  0  0  0  0  0  0  0  0
  145.7440  136.1179  152.7255 C   0  0  0  0  0  0  0  0  0  0  0  0
  146.8056  135.3245  153.2119 O   0  0  0  0  0  0  0  0  0  0  0  0
  147.0785  137.7006  153.9941 O   0  0  0  0  0  0  0  0  0  0  0  0
  149.5742  138.0230  154.9126 C   0  0  0  0  0  0  0  0  0  0  0  0
  150.8583  138.1013  155.3175 C   0  0  0  0  0  0  0  0  0  0  0  0
  151.4878  137.0008  155.7646 F   0  0  0  0  0  0  0  0  0  0  0  0
  146.8479  139.5942  154.6754 H   0  0  0  0  0  0  0  0  0  0  0  0
  145.2975  139.2003  151.8553 H   0  0  0  0  0  0  0  0  0  0  0  0
  145.0656  137.9244  153.7186 H   0  0  0  0  0  0  0  0  0  0  0  0
  147.1217  140.5512  152.4705 H   0  0  0  0  0  0  0  0  0  0  0  0
  148.2638  139.2773  151.9935 H   0  0  0  0  0  0  0  0  0  0  0  0
  145.8426  138.1345  150.1725 H   0  0  0  0  0  0  0  0  0  0  0  0
  144.8265  135.7132  153.1530 H   0  0  0  0  0  0  0  0  0  0  0  0
  145.6683  136.0291  151.6413 H   0  0  0  0  0  0  0  0  0  0  0  0
  147.5694  135.4859  152.6796 H   0  0  0  0  0  0  0  0  0  0  0  0
  149.0725  137.0674  154.9504 H   0  0  0  0  0  0  0  0  0  0  0  0
  1  2  2  0  0  0  0
  2 16  1  0  0  0  0
  2  3  1  0  0  0  0
  3  4  1  0  0  0  0
  4  5  2  0  0  0  0
  4  6  1  0  0  0  0
  6  7  1  0  0  0  0
  6 15  1  0  0  0  0
  7 18  1  0  0  0  0
  7 14  1  0  0  0  0
  7  8  1  0  0  0  0
  8  9  1  0  0  0  0
  8 21  1  0  0  0  0
  8 22  1  0  0  0  0
  9 19  1  0  0  0  0
  9 10  1  0  0  0  0
  9 11  1  0  0  0  0
 10 23  1  0  0  0  0
 11 20  1  0  0  0  0
 11 12  1  0  0  0  0
 11 14  1  0  0  0  0
 12 13  1  0  0  0  0
 12 24  1  0  0  0  0
 12 25  1  0  0  0  0
 13 26  1  0  0  0  0
 15 16  2  0  0  0  0
 15 27  1  0  0  0  0
 16 17  1  0  0  0  0
M  CHG  1   3  -1
M  END
> <s_m_source_file>
AV-unprocessed.smi

> <i_m_source_file_index>
38

> <i_lp_mmshare_version>
43012

> <i_f3d_flags>
0

> <s_epik_input>
Tz1jMVtuSF1jKD1PKW4oW2NIXWMxRilbQ0BIXTJbQ0gyXVtDQEhdKFtPSF0pW0NASF0oTzIpW0NIMl1bT0hd

> <s_epik_cmdline>
J2VwaWtfcHl0aG9uJywgJy1waCcsICc3LjAnLCAnLXRuJywgJzgnLCAnLW1hJywgJzIwMCcsICctbWV0YWxfYmluZGluZycsICctaW1hZScsICc8aW5maWxlLm1hZT4nLCAnLW9tYWUnLCAnPG91dGZpbGUubWFlPic=

> <r_epik_Ionization_Penalty>
1.68146

> <r_epik_Ionization_Penalty_Charging>
3.4211e-08

> <r_epik_Ionization_Penalty_Neutral>
1.68146

> <r_epik_State_Penalty>
1.78593

> <r_epik_Charging_Adjusted_Penalty>
1.78593

> <i_epik_Tot_Q>
-1

> <i_epik_Tot_abs_Q>
1

> <r_epik_Metal_State_Penalty>
0.0113696

> <b_epik_Metal_Only>
0

> <s_epik_Chemistry_Notes>
This compound contains an acetal/aminal-like group ( X-CH(R)-Y where X, Y are N, S, or O) that may be acid/base labile, releasing an aldehyde.

> <s_lp_Force_Field>
OPLS_2005

> <r_lp_Energy>
42.0277

> <b_lp_Chiralities_Consistent>
1

> <s_lp_Variant>
AV-unprocessed.smi:38-11

> <Gold.Version>
5.8.1

> <Gold.Id.Protein>
6NUR|6NUR_protein|mol2

> <Gold.PLP.Fitness>
40.8506

> <Gold.PLP.PLP>
-25.2499

> <Gold.PLP.part.hbond>
-6.8207

> <Gold.PLP.part.metal>
0.0000

> <Gold.PLP.part.buried>
1.7753

> <Gold.PLP.part.nonpolar>
-20.9076

> <Gold.PLP.part.repulsive>
0.6040

> <Gold.PLP.ligand.clash>
0.0000

> <Gold.PLP.ligand.torsion>
0.7866

> <Gold.PLP.Chemscore.Hbond>
5.7174

> <Gold.PLP.Chemscore.CHOScore>
0.0000

> <Gold.PLP.Chemscore.Metal>
0.0000

> <Gold.Chemscore.Hbonds>
donor molecule, donor type, donor heavy atom, donor atom, acceptor molecule, acceptor atom, score
      L1  H    10    23       P1 10171  0.99
      L1  H    13    26       P1  7948  1.00
      P1  H  7954  7966       L1    10  1.00
      P1  H  7989  7998       L1     3  1.00
      P1  H  7997  8008       L1     1  1.00
      P1  H  8011  8017       L1     5  0.71

> <Gold.PLP.Chemscore.Internal.Correction>
0.0215

> <Gold.Rescore>
     Score         DG    S(hbond)    S(metal)    S(lipo)     H(rot)  DE(clash)    DE(int)     intcor
     14.40     -18.40       4.79        0.00      36.75       2.88       1.81       2.19       ----

> <Gold.Chemscore.Fitness>
14.3962

> <Gold.Chemscore.DG>
-18.3978

> <Gold.Chemscore.ZeroCoef>
-5.4800

> <Gold.Chemscore.Hbond>
4.7887

> <Gold.Chemscore.Metal>
0.0000

> <Gold.Chemscore.Lipo>
36.7535

> <Gold.Chemscore.Internal_Hbond>
0.0000

> <Gold.Chemscore.DEClash>
1.8098

> <Gold.Chemscore.DEInternal>
2.1918

> <Gold.Chemscore.Rot>
2.8815

> <Gold.Chemscore.Internal.Correction>
   9.000000E+99

> <Gold.Chemscore.Hbonds>
donor molecule, donor type, donor heavy atom, donor atom, acceptor molecule, acceptor atom, score
      L1  H    10    23       P1 10171  0.88
      L1  H    13    26       P1  7948  1.00
      P1  H  7954  7966       L1    10  0.73
      P1  H  7989  7998       L1     3  0.18
      P1  H  7997  8008       L1     1  1.00
      P1  H  8011  8017       L1     5  0.66

> <Gold.Chemscore.Hbond.Weighted>
-15.9942

> <Gold.Chemscore.Metal.Weighted>
-0.0000

> <Gold.Chemscore.Lipo.Weighted>
-4.3002

> <Gold.Chemscore.Internal_Hbond.Weighted>
0.0000

> <Gold.Chemscore.DEClash.Weighted>
1.8098

> <Gold.Chemscore.DEInternal.Weighted>
2.1918

> <Gold.Chemscore.Rot.Weighted>
7.3765

> <Gold.Chemscore.Internal.Correction.Weighted>
   9.000000E+99

> <Gold.Protein.RotatedTorsions>
[ 6907 6896 6895 6894 ] final -124.52 input  -60.11 | X-H torsion
[ 7974 7965 7964 7962 ] final   30.21 input  175.53 | X-H torsion
[ 8008 7997 7996 7995 ] final  -24.76 input   59.86 | X-H torsion
[ 10167 10162 10161 10158 ] final -168.21 input  -65.29 | X-H torsion
[ 10718 10713 10712 10709 ] final -159.15 input   66.30 | X-H torsion
[ 10763 10752 10751 10750 ] final  -58.80 input  -60.55 | X-H torsion
[ 11005 11000 10999 10996 ] final   96.92 input  -57.11 | X-H torsion

> <Gold.Protein.ActiveResidues>
 VAL166  LYS551  ARG553  GLY616  TRP617  ASP618  TYR619  PRO620  LYS621  CYS622 
 ASP623  PHE694  ASN695  SER759  ASP760  ASP761  ALA762  ILE779  LEU786  VAL792 
 PHE793  MET794  SER795  GLU796  ALA797  LYS798  CYS799  TRP800  GLU811  SER814 

> <Gold.Protein.RotatedAtoms>
  150.8776  133.7417  159.2941 H   0  0  0  0  0  0  0  0  0  0  0  0  # atno 6907 bound_to 6896
  151.5009  135.1060  159.9838 H   0  0  0  0  0  0  0  0  0  0  0  0  # atno 6908 bound_to 6896
  152.4738  133.8045  159.7026 H   0  0  0  0  0  0  0  0  0  0  0  0  # atno 6909 bound_to 6896
  146.1625  139.6819  142.9023 H   0  0  0  0  0  0  0  0  0  0  0  0  # atno 7974 bound_to 7965
  154.4512  140.1945  156.0515 H   0  0  0  0  0  0  0  0  0  0  0  0  # atno 8008 bound_to 7997
  156.0651  140.3292  155.7480 H   0  0  0  0  0  0  0  0  0  0  0  0  # atno 8009 bound_to 7997
  155.5351  140.0581  157.2872 H   0  0  0  0  0  0  0  0  0  0  0  0  # atno 8010 bound_to 7997
  139.6000  144.1031  152.1732 H   0  0  0  0  0  0  0  0  0  0  0  0  # atno 10167 bound_to 10162
  156.5641  130.8660  151.2818 H   0  0  0  0  0  0  0  0  0  0  0  0  # atno 10718 bound_to 10713
  154.2437  135.6339  153.5216 H   0  0  0  0  0  0  0  0  0  0  0  0  # atno 10763 bound_to 10752
  152.9925  135.5548  154.5883 H   0  0  0  0  0  0  0  0  0  0  0  0  # atno 10764 bound_to 10752
  154.5394  135.2893  155.1084 H   0  0  0  0  0  0  0  0  0  0  0  0  # atno 10765 bound_to 10752
  139.8778  134.8975  156.4231 H   0  0  0  0  0  0  0  0  0  0  0  0  # atno 11005 bound_to 11000
  145.4550  141.0430  143.2783 LP  0  0  0  0  0  0  0  0  0  0  0  0  # atno 17320 bound_to 7965
  144.8047  139.6073  143.7056 LP  0  0  0  0  0  0  0  0  0  0  0  0  # atno 17321 bound_to 7965
  140.0625  144.5845  150.7252 LP  0  0  0  0  0  0  0  0  0  0  0  0  # atno 17342 bound_to 10162
  140.7242  143.2619  151.4177 LP  0  0  0  0  0  0  0  0  0  0  0  0  # atno 17343 bound_to 10162
  157.7362  130.9775  150.2124 LP  0  0  0  0  0  0  0  0  0  0  0  0  # atno 17370 bound_to 10713
  156.2772  130.3729  149.7971 LP  0  0  0  0  0  0  0  0  0  0  0  0  # atno 17371 bound_to 10713
  140.9120  133.7705  155.9803 LP  0  0  0  0  0  0  0  0  0  0  0  0  # atno 17394 bound_to 11000
  140.8536  134.2925  157.5265 LP  0  0  0  0  0  0  0  0  0  0  0  0  # atno 17395 bound_to 11000

$$$$
