AV-unprocessed.smi:47|AV-procd|sdf|443|dock10
  -GOLD-   2262016313D 1   1.00000     0.00000
 Structure written by MMmdl.
 30 32  0  0  0  0  0  0  0  0  2 V2000
  154.2553  136.6533  165.1507 O   0  0  0  0  0  0  0  0  0  0  0  0
  154.6834  137.6127  164.2075 C   0  0  1  0  0  0  0  0  0  0  0  0
  156.1835  137.8665  164.2746 C   0  0  0  0  0  0  0  0  0  0  0  0
  156.5079  138.4663  162.9883 N   0  0  0  0  0  0  0  0  0  0  0  0
  155.5952  137.9011  161.9875 C   0  0  2  0  0  0  0  0  0  0  0  0
  155.0115  138.9563  161.0653 C   0  0  0  0  0  0  0  0  0  0  0  0
  155.1098  138.9526  159.7200 N   0  0  0  0  0  0  0  0  0  0  0  0
  154.5128  140.0537  159.3043 N   0  5  0  0  0  0  0  0  0  0  0  0
  154.0736  140.7126  160.3873 C   0  0  0  0  0  0  0  0  0  0  0  0
  153.3574  142.0014  160.2900 C   0  0  0  0  0  0  0  0  0  0  0  0
  153.0348  142.5473  159.0258 C   0  0  0  0  0  0  0  0  0  0  0  0
  152.3528  143.7750  158.9165 C   0  0  0  0  0  0  0  0  0  0  0  0
  151.9801  144.4787  160.0759 C   0  0  0  0  0  0  0  0  0  0  0  0
  152.2918  143.9506  161.3418 C   0  0  0  0  0  0  0  0  0  0  0  0
  152.9750  142.7232  161.4457 C   0  0  0  0  0  0  0  0  0  0  0  0
  154.3761  140.0562  161.4988 N   0  0  0  0  0  0  0  0  0  0  0  0
  154.4972  137.1524  162.7652 C   0  0  0  0  0  0  0  0  0  0  0  0
  154.1442  138.5473  164.3698 H   0  0  0  0  0  0  0  0  0  0  0  0
  156.1358  137.1840  161.3686 H   0  0  0  0  0  0  0  0  0  0  0  0
  153.4111  136.3260  164.8803 H   0  0  0  0  0  0  0  0  0  0  0  0
  156.4659  138.5094  165.1084 H   0  0  0  0  0  0  0  0  0  0  0  0
  156.7168  136.9210  164.3830 H   0  0  0  0  0  0  0  0  0  0  0  0
  157.4670  138.2387  162.7483 H   0  0  0  0  0  0  0  0  0  0  0  0
  153.3116  142.0214  158.1239 H   0  0  0  0  0  0  0  0  0  0  0  0
  152.1163  144.1750  157.9419 H   0  0  0  0  0  0  0  0  0  0  0  0
  151.4569  145.4200  159.9949 H   0  0  0  0  0  0  0  0  0  0  0  0
  152.0071  144.4862  162.2353 H   0  0  0  0  0  0  0  0  0  0  0  0
  153.2043  142.3378  162.4283 H   0  0  0  0  0  0  0  0  0  0  0  0
  154.6825  136.0797  162.6915 H   0  0  0  0  0  0  0  0  0  0  0  0
  153.4899  137.3366  162.3890 H   0  0  0  0  0  0  0  0  0  0  0  0
  1  2  1  0  0  0  0
  1 20  1  0  0  0  0
  2 18  1  0  0  0  0
  2 17  1  0  0  0  0
  2  3  1  0  0  0  0
  3  4  1  0  0  0  0
  3 21  1  0  0  0  0
  3 22  1  0  0  0  0
  4  5  1  0  0  0  0
  4 23  1  0  0  0  0
  5 19  1  0  0  0  0
  5  6  1  0  0  0  0
  5 17  1  0  0  0  0
  6 16  1  0  0  0  0
  6  7  2  0  0  0  0
  7  8  1  0  0  0  0
  8  9  1  0  0  0  0
  9 10  1  0  0  0  0
  9 16  2  0  0  0  0
 10 15  1  0  0  0  0
 10 11  2  0  0  0  0
 11 12  1  0  0  0  0
 11 24  1  0  0  0  0
 12 13  2  0  0  0  0
 12 25  1  0  0  0  0
 13 14  1  0  0  0  0
 13 26  1  0  0  0  0
 14 15  2  0  0  0  0
 14 27  1  0  0  0  0
 15 28  1  0  0  0  0
 17 29  1  0  0  0  0
 17 30  1  0  0  0  0
M  CHG  1   8  -1
M  END
> <s_m_source_file>
AV-unprocessed.smi

> <i_m_source_file_index>
47

> <i_lp_mmshare_version>
43012

> <i_f3d_flags>
0

> <s_epik_input>
W09IXVtDQEhdMVtDSDJdW05IXVtDQEBIXShbQ0gyXTEpYzJuW25IXWMobjIpLWMzW2NIXVtjSF1bY0hdW2NIXVtjSF0z

> <s_epik_cmdline>
J2VwaWtfcHl0aG9uJywgJy1waCcsICc3LjAnLCAnLXRuJywgJzgnLCAnLW1hJywgJzIwMCcsICctbWV0YWxfYmluZGluZycsICctaW1hZScsICc8aW5maWxlLm1hZT4nLCAnLW9tYWUnLCAnPG91dGZpbGUubWFlPic=

> <r_epik_Ionization_Penalty>
16.1968

> <r_epik_Ionization_Penalty_Charging>
13.1522

> <r_epik_Ionization_Penalty_Neutral>
3.04463

> <r_epik_State_Penalty>
6.32428

> <r_epik_Charging_Adjusted_Penalty>
19.4764

> <i_epik_Tot_Q>
-1

> <i_epik_Tot_abs_Q>
1

> <r_epik_Metal_State_Penalty>
2.82187

> <b_epik_Metal_Only>
1

> <s_lp_Force_Field>
OPLS_2005

> <r_lp_Energy>
30.4725

> <b_lp_Chiralities_Consistent>
1

> <s_lp_Variant>
AV-unprocessed.smi:47-21

> <Gold.Version>
5.8.1

> <Gold.Id.Protein>
6NUR|6NUR_protein|mol2

> <Gold.PLP.Fitness>
44.6910

> <Gold.PLP.PLP>
-38.9005

> <Gold.PLP.part.hbond>
-2.0000

> <Gold.PLP.part.metal>
0.0000

> <Gold.PLP.part.buried>
-5.1634

> <Gold.PLP.part.nonpolar>
-30.6221

> <Gold.PLP.part.repulsive>
0.0000

> <Gold.PLP.ligand.clash>
0.0000

> <Gold.PLP.ligand.torsion>
0.0599

> <Gold.PLP.Chemscore.Hbond>
1.9666

> <Gold.PLP.Chemscore.CHOScore>
0.0000

> <Gold.PLP.Chemscore.Metal>
0.0000

> <Gold.Chemscore.Hbonds>
donor molecule, donor type, donor heavy atom, donor atom, acceptor molecule, acceptor atom, score
      P1  H  7997  8008       L1     8  1.79

> <Gold.PLP.Chemscore.Internal.Correction>
0.0103

> <Gold.Rescore>
     Score         DG    S(hbond)    S(metal)    S(lipo)     H(rot)  DE(clash)    DE(int)     intcor
     14.58     -15.08       0.50        0.00      99.61       1.46       0.38       0.11       ----

> <Gold.Chemscore.Fitness>
14.5837

> <Gold.Chemscore.DG>
-15.0766

> <Gold.Chemscore.ZeroCoef>
-5.4800

> <Gold.Chemscore.Hbond>
0.5044

> <Gold.Chemscore.Metal>
0.0000

> <Gold.Chemscore.Lipo>
99.6117

> <Gold.Chemscore.Internal_Hbond>
0.0000

> <Gold.Chemscore.DEClash>
0.3840

> <Gold.Chemscore.DEInternal>
0.1089

> <Gold.Chemscore.Rot>
1.4621

> <Gold.Chemscore.Internal.Correction>
   9.000000E+99

> <Gold.Chemscore.Hbonds>
donor molecule, donor type, donor heavy atom, donor atom, acceptor molecule, acceptor atom, score
      P1  H  7997  8008       L1     8  0.18

> <Gold.Chemscore.Hbond.Weighted>
-1.6849

> <Gold.Chemscore.Metal.Weighted>
-0.0000

> <Gold.Chemscore.Lipo.Weighted>
-11.6546

> <Gold.Chemscore.Internal_Hbond.Weighted>
0.0000

> <Gold.Chemscore.DEClash.Weighted>
0.3840

> <Gold.Chemscore.DEInternal.Weighted>
0.1089

> <Gold.Chemscore.Rot.Weighted>
3.7429

> <Gold.Chemscore.Internal.Correction.Weighted>
   9.000000E+99

> <Gold.Protein.RotatedTorsions>
[ 6907 6896 6895 6894 ] final -171.93 input  -60.11 | X-H torsion
[ 7974 7965 7964 7962 ] final   24.82 input  175.53 | X-H torsion
[ 8008 7997 7996 7995 ] final -121.52 input   59.86 | X-H torsion
[ 10167 10162 10161 10158 ] final -100.75 input  -65.29 | X-H torsion
[ 10718 10713 10712 10709 ] final   -3.91 input   66.30 | X-H torsion
[ 10763 10752 10751 10750 ] final -124.09 input  -60.55 | X-H torsion
[ 11005 11000 10999 10996 ] final -161.29 input  -57.11 | X-H torsion

> <Gold.Protein.ActiveResidues>
 VAL166  LYS551  ARG553  GLY616  TRP617  ASP618  TYR619  PRO620  LYS621  CYS622 
 ASP623  PHE694  ASN695  SER759  ASP760  ASP761  ALA762  ILE779  LEU786  VAL792 
 PHE793  MET794  SER795  GLU796  ALA797  LYS798  CYS799  TRP800  GLU811  SER814 

> <Gold.Protein.RotatedAtoms>
  151.5318  133.3448  159.2919 H   0  0  0  0  0  0  0  0  0  0  0  0  # atno 6907 bound_to 6896
  150.8589  134.7937  159.7078 H   0  0  0  0  0  0  0  0  0  0  0  0  # atno 6908 bound_to 6896
  152.4614  134.5184  159.9827 H   0  0  0  0  0  0  0  0  0  0  0  0  # atno 6909 bound_to 6896
  146.1919  139.7551  142.8826 H   0  0  0  0  0  0  0  0  0  0  0  0  # atno 7974 bound_to 7965
  155.1493  140.0403  157.2817 H   0  0  0  0  0  0  0  0  0  0  0  0  # atno 8008 bound_to 7997
  154.6416  140.2548  155.7289 H   0  0  0  0  0  0  0  0  0  0  0  0  # atno 8009 bound_to 7997
  156.2535  140.2854  156.0812 H   0  0  0  0  0  0  0  0  0  0  0  0  # atno 8010 bound_to 7997
  140.2486  143.3488  152.0735 H   0  0  0  0  0  0  0  0  0  0  0  0  # atno 10167 bound_to 10162
  156.7691  130.5294  149.5770 H   0  0  0  0  0  0  0  0  0  0  0  0  # atno 10718 bound_to 10713
  154.8718  135.4075  154.3049 H   0  0  0  0  0  0  0  0  0  0  0  0  # atno 10763 bound_to 10752
  153.3903  135.7014  153.6505 H   0  0  0  0  0  0  0  0  0  0  0  0  # atno 10764 bound_to 10752
  153.5291  135.3671  155.2639 H   0  0  0  0  0  0  0  0  0  0  0  0  # atno 10765 bound_to 10752
  140.6220  134.4740  157.5224 H   0  0  0  0  0  0  0  0  0  0  0  0  # atno 11005 bound_to 11000
  145.3766  141.0351  143.3201 LP  0  0  0  0  0  0  0  0  0  0  0  0  # atno 17320 bound_to 7965
  144.8503  139.5332  143.6859 LP  0  0  0  0  0  0  0  0  0  0  0  0  # atno 17321 bound_to 7965
  139.5053  144.6793  151.6049 LP  0  0  0  0  0  0  0  0  0  0  0  0  # atno 17342 bound_to 10162
  140.6058  143.9527  150.6417 LP  0  0  0  0  0  0  0  0  0  0  0  0  # atno 17343 bound_to 10162
  156.1289  130.6164  151.0305 LP  0  0  0  0  0  0  0  0  0  0  0  0  # atno 17370 bound_to 10713
  157.6699  131.0863  150.7637 LP  0  0  0  0  0  0  0  0  0  0  0  0  # atno 17371 bound_to 10713
  139.9149  134.8266  156.1399 LP  0  0  0  0  0  0  0  0  0  0  0  0  # atno 17394 bound_to 11000
  141.0735  133.6786  156.2189 LP  0  0  0  0  0  0  0  0  0  0  0  0  # atno 17395 bound_to 11000

$$$$
