AV-unprocessed.smi:2327|AV-procd|sdf|9299|dock7
  -GOLD-   2272012523D 1   1.00000     0.00000
 Structure written by MMmdl.
 40 41  0  0  0  0  0  0  0  0  1 V2000
  151.4842  138.6568  154.6843 C   0  0  0  0  0  0  0  0  0  0  0  0
  150.2294  139.4569  154.5310 C   0  0  0  0  0  0  0  0  0  0  0  0
  149.9909  140.7219  155.0069 C   0  0  0  0  0  0  0  0  0  0  0  0
  148.3888  141.2754  154.6048 S   0  0  0  0  0  0  0  0  0  0  0  0
  148.0965  139.7430  153.7891 C   0  0  0  0  0  0  0  0  0  0  0  0
  146.7911  139.3942  153.1414 C   0  0  1  0  0  0  0  0  0  0  0  0
  146.9128  139.3009  151.6136 C   0  0  0  0  0  0  0  0  0  0  0  0
  146.1160  138.1557  153.7665 C   0  0  0  0  0  0  0  0  0  0  0  0
  146.5165  136.9200  153.0975 N   0  0  0  0  0  0  0  0  0  0  0  0
  145.7046  135.8964  152.7813 C   0  0  0  0  0  0  0  0  0  0  0  0
  144.5089  135.8624  153.0647 O   0  0  0  0  0  0  0  0  0  0  0  0
  146.3039  134.8879  152.1234 N   0  0  0  0  0  0  0  0  0  0  0  0
  145.7099  133.6400  151.6399 C   0  0  0  0  0  0  0  0  0  0  0  0
  146.5702  133.0688  150.5023 C   0  0  0  0  0  0  0  0  0  0  0  0
  145.8958  131.8405  149.8695 C   0  0  0  0  0  0  0  0  0  0  0  0
  144.5923  132.1818  149.4107 O   0  0  0  0  0  0  0  0  0  0  0  0
  143.7268  132.5975  150.4612 C   0  0  0  0  0  0  0  0  0  0  0  0
  144.2779  133.8701  151.1242 C   0  0  0  0  0  0  0  0  0  0  0  0
  149.1437  138.9141  153.8392 N   0  0  0  0  0  0  0  0  0  0  0  0
  152.2476  139.2114  155.2302 H   0  0  0  0  0  0  0  0  0  0  0  0
  151.9018  138.3905  153.7131 H   0  0  0  0  0  0  0  0  0  0  0  0
  151.2959  137.7313  155.2290 H   0  0  0  0  0  0  0  0  0  0  0  0
  150.6569  141.3589  155.5697 H   0  0  0  0  0  0  0  0  0  0  0  0
  146.1252  140.2357  153.3378 H   0  0  0  0  0  0  0  0  0  0  0  0
  147.3047  140.2278  151.1934 H   0  0  0  0  0  0  0  0  0  0  0  0
  145.9424  139.1139  151.1533 H   0  0  0  0  0  0  0  0  0  0  0  0
  147.5812  138.4917  151.3179 H   0  0  0  0  0  0  0  0  0  0  0  0
  146.3926  138.0747  154.8178 H   0  0  0  0  0  0  0  0  0  0  0  0
  145.0310  138.2732  153.7472 H   0  0  0  0  0  0  0  0  0  0  0  0
  147.4866  136.8475  152.8280 H   0  0  0  0  0  0  0  0  0  0  0  0
  147.2989  134.9811  151.9773 H   0  0  0  0  0  0  0  0  0  0  0  0
  145.6910  132.9047  152.4468 H   0  0  0  0  0  0  0  0  0  0  0  0
  146.7209  133.8278  149.7331 H   0  0  0  0  0  0  0  0  0  0  0  0
  147.5596  132.8006  150.8744 H   0  0  0  0  0  0  0  0  0  0  0  0
  146.4839  131.4859  149.0230 H   0  0  0  0  0  0  0  0  0  0  0  0
  145.8376  131.0173  150.5834 H   0  0  0  0  0  0  0  0  0  0  0  0
  142.7374  132.7906  150.0465 H   0  0  0  0  0  0  0  0  0  0  0  0
  143.6141  131.7958  151.1929 H   0  0  0  0  0  0  0  0  0  0  0  0
  143.6194  134.1768  151.9372 H   0  0  0  0  0  0  0  0  0  0  0  0
  144.2728  134.6828  150.3964 H   0  0  0  0  0  0  0  0  0  0  0  0
  1  2  1  0  0  0  0
  1 20  1  0  0  0  0
  1 21  1  0  0  0  0
  1 22  1  0  0  0  0
  2 19  1  0  0  0  0
  2  3  2  0  0  0  0
  3  4  1  0  0  0  0
  3 23  1  0  0  0  0
  4  5  1  0  0  0  0
  5  6  1  0  0  0  0
  5 19  2  0  0  0  0
  6  7  1  0  0  0  0
  6  8  1  0  0  0  0
  6 24  1  0  0  0  0
  7 25  1  0  0  0  0
  7 26  1  0  0  0  0
  7 27  1  0  0  0  0
  8  9  1  0  0  0  0
  8 28  1  0  0  0  0
  8 29  1  0  0  0  0
  9 10  1  0  0  0  0
  9 30  1  0  0  0  0
 10 11  2  0  0  0  0
 10 12  1  0  0  0  0
 12 13  1  0  0  0  0
 12 31  1  0  0  0  0
 13 18  1  0  0  0  0
 13 14  1  0  0  0  0
 13 32  1  0  0  0  0
 14 15  1  0  0  0  0
 14 33  1  0  0  0  0
 14 34  1  0  0  0  0
 15 16  1  0  0  0  0
 15 35  1  0  0  0  0
 15 36  1  0  0  0  0
 16 17  1  0  0  0  0
 17 18  1  0  0  0  0
 17 37  1  0  0  0  0
 17 38  1  0  0  0  0
 18 39  1  0  0  0  0
 18 40  1  0  0  0  0
M  END
> <s_m_source_file>
AV-unprocessed.smi

> <i_m_source_file_index>
2327

> <i_lp_mmshare_version>
43012

> <i_f3d_flags>
0

> <s_epik_input>
W0NIM11jMVtjSF1zYyhuMSlbQ0BIXShbQ0gzXSlbQ0gyXVtOSF1DKD1PKVtOSF1bQ0hdMltDSDJdW0NIMl1PW0NIMl1bQ0gyXTI=

> <s_epik_cmdline>
J2VwaWtfcHl0aG9uJywgJy1waCcsICc3LjAnLCAnLXRuJywgJzgnLCAnLW1hJywgJzIwMCcsICctbWV0YWxfYmluZGluZycsICctaW1hZScsICc8aW5maWxlLm1hZT4nLCAnLW9tYWUnLCAnPG91dGZpbGUubWFlPic=

> <r_epik_Ionization_Penalty>
0.0015425

> <r_epik_Ionization_Penalty_Charging>
0

> <r_epik_Ionization_Penalty_Neutral>
0.0015425

> <r_epik_State_Penalty>
0.000998134

> <r_epik_Charging_Adjusted_Penalty>
0.000998134

> <i_epik_Tot_Q>
0

> <i_epik_Tot_abs_Q>
0

> <r_epik_Metal_State_Penalty>
-0

> <b_epik_Metal_Only>
0

> <s_lp_Force_Field>
OPLS_2005

> <r_lp_Energy>
7.91954

> <b_lp_Chiralities_Consistent>
1

> <s_lp_Variant>
AV-unprocessed.smi:2327-2

> <Gold.Version>
5.8.1

> <Gold.Id.Protein>
6NUR|6NUR_protein|mol2

> <Gold.PLP.Fitness>
40.2920

> <Gold.PLP.PLP>
-35.8906

> <Gold.PLP.part.hbond>
-2.2779

> <Gold.PLP.part.metal>
0.0000

> <Gold.PLP.part.buried>
-0.0955

> <Gold.PLP.part.nonpolar>
-34.4066

> <Gold.PLP.part.repulsive>
1.7442

> <Gold.PLP.ligand.clash>
0.0000

> <Gold.PLP.ligand.torsion>
0.8272

> <Gold.PLP.Chemscore.Hbond>
1.9833

> <Gold.PLP.Chemscore.CHOScore>
0.0000

> <Gold.PLP.Chemscore.Metal>
0.0000

> <Gold.Chemscore.Hbonds>
donor molecule, donor type, donor heavy atom, donor atom, acceptor molecule, acceptor atom, score
      L1  H     9    30       P1  7948  1.00
      L1  H    12    31       P1  7948  0.98

> <Gold.PLP.Chemscore.Internal.Correction>
0.1058

> <Gold.Rescore>
     Score         DG    S(hbond)    S(metal)    S(lipo)     H(rot)  DE(clash)    DE(int)     intcor
     15.63     -18.99       1.90        0.00      94.77       1.53       1.71       1.65       ----

> <Gold.Chemscore.Fitness>
15.6335

> <Gold.Chemscore.DG>
-18.9920

> <Gold.Chemscore.ZeroCoef>
-5.4800

> <Gold.Chemscore.Hbond>
1.9004

> <Gold.Chemscore.Metal>
0.0000

> <Gold.Chemscore.Lipo>
94.7683

> <Gold.Chemscore.Internal_Hbond>
0.0000

> <Gold.Chemscore.DEClash>
1.7052

> <Gold.Chemscore.DEInternal>
1.6533

> <Gold.Chemscore.Rot>
1.5325

> <Gold.Chemscore.Internal.Correction>
   9.000000E+99

> <Gold.Chemscore.Hbonds>
donor molecule, donor type, donor heavy atom, donor atom, acceptor molecule, acceptor atom, score
      L1  H     9    30       P1  7948  0.99
      L1  H    12    31       P1  7948  0.81

> <Gold.Chemscore.Hbond.Weighted>
-6.3474

> <Gold.Chemscore.Metal.Weighted>
-0.0000

> <Gold.Chemscore.Lipo.Weighted>
-11.0879

> <Gold.Chemscore.Internal_Hbond.Weighted>
0.0000

> <Gold.Chemscore.DEClash.Weighted>
1.7052

> <Gold.Chemscore.DEInternal.Weighted>
1.6533

> <Gold.Chemscore.Rot.Weighted>
3.9233

> <Gold.Chemscore.Internal.Correction.Weighted>
   9.000000E+99

> <Gold.Protein.RotatedTorsions>
[ 6907 6896 6895 6894 ] final  -19.23 input  -60.11 | X-H torsion
[ 7974 7965 7964 7962 ] final  -37.36 input  175.53 | X-H torsion
[ 8008 7997 7996 7995 ] final  130.48 input   59.86 | X-H torsion
[ 10167 10162 10161 10158 ] final -109.16 input  -65.29 | X-H torsion
[ 10718 10713 10712 10709 ] final  107.40 input   66.30 | X-H torsion
[ 10763 10752 10751 10750 ] final   59.60 input  -60.55 | X-H torsion
[ 11005 11000 10999 10996 ] final  -30.74 input  -57.11 | X-H torsion

> <Gold.Protein.ActiveResidues>
 VAL166  LYS551  ARG553  GLY616  TRP617  ASP618  TYR619  PRO620  LYS621  CYS622 
 ASP623  PHE694  ASN695  SER759  ASP760  ASP761  ALA762  ILE779  LEU786  VAL792 
 PHE793  MET794  SER795  GLU796  ALA797  LYS798  CYS799  TRP800  GLU811  SER814 

> <Gold.Protein.RotatedAtoms>
  151.2663  135.0670  159.9116 H   0  0  0  0  0  0  0  0  0  0  0  0  # atno 6907 bound_to 6896
  152.5358  134.0178  159.7978 H   0  0  0  0  0  0  0  0  0  0  0  0  # atno 6908 bound_to 6896
  151.0409  133.5657  159.2682 H   0  0  0  0  0  0  0  0  0  0  0  0  # atno 6909 bound_to 6896
  146.0581  140.6387  142.9010 H   0  0  0  0  0  0  0  0  0  0  0  0  # atno 7974 bound_to 7965
  156.2955  140.2595  156.2769 H   0  0  0  0  0  0  0  0  0  0  0  0  # atno 8008 bound_to 7997
  154.9640  140.0392  157.2222 H   0  0  0  0  0  0  0  0  0  0  0  0  # atno 8009 bound_to 7997
  154.7920  140.2813  155.5989 H   0  0  0  0  0  0  0  0  0  0  0  0  # atno 8010 bound_to 7997
  140.1583  143.4141  152.1444 H   0  0  0  0  0  0  0  0  0  0  0  0  # atno 10167 bound_to 10162
  157.6630  131.0872  150.6150 H   0  0  0  0  0  0  0  0  0  0  0  0  # atno 10718 bound_to 10713
  152.9899  135.5566  154.5740 H   0  0  0  0  0  0  0  0  0  0  0  0  # atno 10763 bound_to 10752
  154.5134  135.2803  155.1325 H   0  0  0  0  0  0  0  0  0  0  0  0  # atno 10764 bound_to 10752
  154.2707  135.6363  153.5362 H   0  0  0  0  0  0  0  0  0  0  0  0  # atno 10765 bound_to 10752
  140.9409  133.7279  156.1074 H   0  0  0  0  0  0  0  0  0  0  0  0  # atno 11005 bound_to 11000
  144.7159  140.4209  143.7044 LP  0  0  0  0  0  0  0  0  0  0  0  0  # atno 17320 bound_to 7965
  145.6607  139.1581  143.2810 LP  0  0  0  0  0  0  0  0  0  0  0  0  # atno 17321 bound_to 7965
  139.5393  144.7241  151.4787 LP  0  0  0  0  0  0  0  0  0  0  0  0  # atno 17342 bound_to 10162
  140.6659  143.8399  150.6941 LP  0  0  0  0  0  0  0  0  0  0  0  0  # atno 17343 bound_to 10162
  156.6452  130.4469  149.5738 LP  0  0  0  0  0  0  0  0  0  0  0  0  # atno 17370 bound_to 10713
  156.2179  130.6719  151.1337 LP  0  0  0  0  0  0  0  0  0  0  0  0  # atno 17371 bound_to 10713
  140.7736  134.3805  157.5502 LP  0  0  0  0  0  0  0  0  0  0  0  0  # atno 17394 bound_to 11000
  139.8820  134.9037  156.2861 LP  0  0  0  0  0  0  0  0  0  0  0  0  # atno 17395 bound_to 11000

$$$$
