AV-unprocessed.smi:3030|AV-procd|sdf|11536|dock9
  -GOLD-   2272016483D 1   1.00000     0.00000
 Structure written by MMmdl.
 52 53  0  0  0  0  0  0  0  0  1 V2000
  144.3541  132.4381  149.0981 C   0  0  0  0  0  0  0  0  0  0  0  0
  145.0004  132.3220  150.4832 C   0  0  0  0  0  0  0  0  0  0  0  0
  144.7614  133.5086  151.2919 N   0  0  0  0  0  0  0  0  0  0  0  0
  143.4719  133.9705  151.5340 C   0  0  0  0  0  0  0  0  0  0  0  0
  143.1897  135.0943  152.2209 C   0  0  0  0  0  0  0  0  0  0  0  0
  144.2964  135.9108  152.7592 C   0  0  0  0  0  0  0  0  0  0  0  0
  144.0742  136.9425  153.3928 O   0  0  0  0  0  0  0  0  0  0  0  0
  145.6753  135.4208  152.4955 C   0  0  0  0  0  0  0  0  0  0  0  0
  146.7206  136.1990  153.0203 N   0  0  0  0  0  0  0  0  0  0  0  0
  146.8019  136.8349  154.2033 C   0  0  0  0  0  0  0  0  0  0  0  0
  145.9477  136.8273  155.0893 O   0  0  0  0  0  0  0  0  0  0  0  0
  147.9637  137.4952  154.3085 N   0  0  0  0  0  0  0  0  0  0  0  0
  148.3854  138.3038  155.4538 C   0  0  1  0  0  0  0  0  0  0  0  0
  149.5072  137.5946  156.2420 C   0  0  0  0  0  0  0  0  0  0  0  0
  150.8376  137.5553  155.4696 C   0  0  2  0  0  0  0  0  0  0  0  0
  151.9368  136.8537  156.2799 C   0  0  0  0  0  0  0  0  0  0  0  0
  151.2510  138.9808  155.0724 C   0  0  0  0  0  0  0  0  0  0  0  0
  150.1537  139.6859  154.2599 C   0  0  0  0  0  0  0  0  0  0  0  0
  148.7982  139.7364  155.0097 C   0  0  1  0  0  0  0  0  0  0  0  0
  147.6940  140.4839  154.1992 C   0  0  0  0  0  0  0  0  0  0  0  0
  147.9645  141.9965  154.0844 C   0  0  0  0  0  0  0  0  0  0  0  0
  146.2834  140.2771  154.7847 C   0  0  0  0  0  0  0  0  0  0  0  0
  145.8174  134.2689  151.7905 C   0  0  0  0  0  0  0  0  0  0  0  0
  144.5407  131.5413  148.5072 H   0  0  0  0  0  0  0  0  0  0  0  0
  144.7535  133.2899  148.5464 H   0  0  0  0  0  0  0  0  0  0  0  0
  143.2740  132.5650  149.1775 H   0  0  0  0  0  0  0  0  0  0  0  0
  144.6100  131.4450  151.0008 H   0  0  0  0  0  0  0  0  0  0  0  0
  146.0743  132.1625  150.3796 H   0  0  0  0  0  0  0  0  0  0  0  0
  142.6908  133.3443  151.1278 H   0  0  0  0  0  0  0  0  0  0  0  0
  142.1711  135.4122  152.3878 H   0  0  0  0  0  0  0  0  0  0  0  0
  147.5239  136.2801  152.4138 H   0  0  0  0  0  0  0  0  0  0  0  0
  148.6076  137.4443  153.5327 H   0  0  0  0  0  0  0  0  0  0  0  0
  147.5416  138.3948  156.1390 H   0  0  0  0  0  0  0  0  0  0  0  0
  149.6569  138.1158  157.1884 H   0  0  0  0  0  0  0  0  0  0  0  0
  149.1971  136.5822  156.5050 H   0  0  0  0  0  0  0  0  0  0  0  0
  150.6887  136.9784  154.5557 H   0  0  0  0  0  0  0  0  0  0  0  0
  152.1407  137.3804  157.2127 H   0  0  0  0  0  0  0  0  0  0  0  0
  152.8684  136.8030  155.7155 H   0  0  0  0  0  0  0  0  0  0  0  0
  151.6481  135.8324  156.5306 H   0  0  0  0  0  0  0  0  0  0  0  0
  151.4712  139.5649  155.9672 H   0  0  0  0  0  0  0  0  0  0  0  0
  152.1722  138.9521  154.4894 H   0  0  0  0  0  0  0  0  0  0  0  0
  150.5076  140.6909  154.0356 H   0  0  0  0  0  0  0  0  0  0  0  0
  150.0295  139.1829  153.3001 H   0  0  0  0  0  0  0  0  0  0  0  0
  148.9639  140.3101  155.9231 H   0  0  0  0  0  0  0  0  0  0  0  0
  147.6820  140.0872  153.1834 H   0  0  0  0  0  0  0  0  0  0  0  0
  148.0906  142.4534  155.0663 H   0  0  0  0  0  0  0  0  0  0  0  0
  147.1388  142.5067  153.5876 H   0  0  0  0  0  0  0  0  0  0  0  0
  148.8550  142.2096  153.4945 H   0  0  0  0  0  0  0  0  0  0  0  0
  146.2399  140.5828  155.8306 H   0  0  0  0  0  0  0  0  0  0  0  0
  145.9632  139.2374  154.7231 H   0  0  0  0  0  0  0  0  0  0  0  0
  145.5410  140.8604  154.2391 H   0  0  0  0  0  0  0  0  0  0  0  0
  146.7763  133.8302  151.5667 H   0  0  0  0  0  0  0  0  0  0  0  0
  1  2  1  0  0  0  0
  1 24  1  0  0  0  0
  1 25  1  0  0  0  0
  1 26  1  0  0  0  0
  2  3  1  0  0  0  0
  2 27  1  0  0  0  0
  2 28  1  0  0  0  0
  3 23  1  0  0  0  0
  3  4  1  0  0  0  0
  4  5  2  0  0  0  0
  4 29  1  0  0  0  0
  5  6  1  0  0  0  0
  5 30  1  0  0  0  0
  6  7  2  0  0  0  0
  6  8  1  0  0  0  0
  8  9  1  0  0  0  0
  8 23  2  0  0  0  0
  9 10  1  0  0  0  0
  9 31  1  0  0  0  0
 10 11  2  0  0  0  0
 10 12  1  0  0  0  0
 12 13  1  0  0  0  0
 12 32  1  0  0  0  0
 13 19  1  0  0  0  0
 13 14  1  0  0  0  0
 13 33  1  0  0  0  0
 14 15  1  0  0  0  0
 14 34  1  0  0  0  0
 14 35  1  0  0  0  0
 15 16  1  0  0  0  0
 15 17  1  0  0  0  0
 15 36  1  0  0  0  0
 16 37  1  0  0  0  0
 16 38  1  0  0  0  0
 16 39  1  0  0  0  0
 17 18  1  0  0  0  0
 17 40  1  0  0  0  0
 17 41  1  0  0  0  0
 18 19  1  0  0  0  0
 18 42  1  0  0  0  0
 18 43  1  0  0  0  0
 19 20  1  0  0  0  0
 19 44  1  0  0  0  0
 20 21  1  0  0  0  0
 20 22  1  0  0  0  0
 20 45  1  0  0  0  0
 21 46  1  0  0  0  0
 21 47  1  0  0  0  0
 21 48  1  0  0  0  0
 22 49  1  0  0  0  0
 22 50  1  0  0  0  0
 22 51  1  0  0  0  0
 23 52  1  0  0  0  0
M  END
> <s_m_source_file>
AV-unprocessed.smi

> <i_m_source_file_index>
3030

> <i_lp_mmshare_version>
43012

> <i_f3d_flags>
0

> <s_epik_input>
W0NIM11bQ0gyXW4xW2NIXVtjSF1jKD1PKWMoW2NIXTEpW05IXUMoPU8pW05IXVtDQEBIXTJbQ0gyXVtDQEBIXShbQ0gzXSlbQ0gyXVtDSDJdW0NASF0yW0NIXShbQ0gzXSlbQ0gzXQ==

> <s_epik_cmdline>
J2VwaWtfcHl0aG9uJywgJy1waCcsICc3LjAnLCAnLXRuJywgJzgnLCAnLW1hJywgJzIwMCcsICctbWV0YWxfYmluZGluZycsICctaW1hZScsICc8aW5maWxlLm1hZT4nLCAnLW9tYWUnLCAnPG91dGZpbGUubWFlPic=

> <r_lp_tautomer_probability>
1

> <r_epik_Ionization_Penalty>
0.00147933

> <r_epik_Ionization_Penalty_Charging>
0.00145753

> <r_epik_Ionization_Penalty_Neutral>
2.17987e-05

> <r_epik_State_Penalty>
0.00097457

> <r_epik_Charging_Adjusted_Penalty>
0.0024321

> <i_epik_Tot_Q>
0

> <i_epik_Tot_abs_Q>
0

> <r_epik_Metal_State_Penalty>
-0

> <b_epik_Metal_Only>
0

> <s_lp_Force_Field>
OPLS_2005

> <r_lp_Energy>
8.95674

> <b_lp_Chiralities_Consistent>
1

> <s_lp_Variant>
AV-unprocessed.smi:3030-4

> <Gold.Version>
5.8.1

> <Gold.Id.Protein>
6NUR|6NUR_protein|mol2

> <Gold.PLP.Fitness>
37.5550

> <Gold.PLP.PLP>
-31.3448

> <Gold.PLP.part.hbond>
-1.9606

> <Gold.PLP.part.metal>
0.0000

> <Gold.PLP.part.buried>
-0.8636

> <Gold.PLP.part.nonpolar>
-27.8326

> <Gold.PLP.part.repulsive>
0.1618

> <Gold.PLP.ligand.clash>
0.0000

> <Gold.PLP.ligand.torsion>
0.5948

> <Gold.PLP.Chemscore.Hbond>
1.6890

> <Gold.PLP.Chemscore.CHOScore>
0.7561

> <Gold.PLP.Chemscore.Metal>
0.0000

> <Gold.Chemscore.Hbonds>
donor molecule, donor type, donor heavy atom, donor atom, acceptor molecule, acceptor atom, score
      L1  H     9    31       P1  7948  0.98
      L1  H    12    32       P1  7948  0.69
      L1  C     4    29       P1 10186  0.74

> <Gold.PLP.Chemscore.Internal.Correction>
0.0645

> <Gold.Rescore>
     Score         DG    S(hbond)    S(metal)    S(lipo)     H(rot)  DE(clash)    DE(int)     intcor
     13.78     -18.78       1.82        0.00      89.57       1.27       0.38       4.62       ----

> <Gold.Chemscore.Fitness>
13.7758

> <Gold.Chemscore.DG>
-18.7767

> <Gold.Chemscore.ZeroCoef>
-5.4800

> <Gold.Chemscore.Hbond>
1.8158

> <Gold.Chemscore.Metal>
0.0000

> <Gold.Chemscore.Lipo>
89.5665

> <Gold.Chemscore.Internal_Hbond>
0.0000

> <Gold.Chemscore.DEClash>
0.3822

> <Gold.Chemscore.DEInternal>
4.6187

> <Gold.Chemscore.Rot>
1.2685

> <Gold.Chemscore.Internal.Correction>
   9.000000E+99

> <Gold.Chemscore.Hbonds>
donor molecule, donor type, donor heavy atom, donor atom, acceptor molecule, acceptor atom, score
      L1  H     9    31       P1  7948  0.92
      L1  H    12    32       P1  7948  0.65

> <Gold.Chemscore.Hbond.Weighted>
-6.0648

> <Gold.Chemscore.Metal.Weighted>
-0.0000

> <Gold.Chemscore.Lipo.Weighted>
-10.4793

> <Gold.Chemscore.Internal_Hbond.Weighted>
0.0000

> <Gold.Chemscore.DEClash.Weighted>
0.3822

> <Gold.Chemscore.DEInternal.Weighted>
4.6187

> <Gold.Chemscore.Rot.Weighted>
3.2474

> <Gold.Chemscore.Internal.Correction.Weighted>
   9.000000E+99

> <Gold.Protein.RotatedTorsions>
[ 6907 6896 6895 6894 ] final   32.99 input  -60.11 | X-H torsion
[ 7974 7965 7964 7962 ] final  176.88 input  175.53 | X-H torsion
[ 8008 7997 7996 7995 ] final  116.78 input   59.86 | X-H torsion
[ 10167 10162 10161 10158 ] final   64.74 input  -65.29 | X-H torsion
[ 10718 10713 10712 10709 ] final -131.81 input   66.30 | X-H torsion
[ 10763 10752 10751 10750 ] final  -18.74 input  -60.55 | X-H torsion
[ 11005 11000 10999 10996 ] final -152.99 input  -57.11 | X-H torsion

> <Gold.Protein.ActiveResidues>
 VAL166  LYS551  ARG553  GLY616  TRP617  ASP618  TYR619  PRO620  LYS621  CYS622 
 ASP623  PHE694  ASN695  SER759  ASP760  ASP761  ALA762  ILE779  LEU786  VAL792 
 PHE793  MET794  SER795  GLU796  ALA797  LYS798  CYS799  TRP800  GLU811  SER814 

> <Gold.Protein.RotatedAtoms>
  152.0822  134.9463  160.0573 H   0  0  0  0  0  0  0  0  0  0  0  0  # atno 6907 bound_to 6896
  152.0747  133.4119  159.4483 H   0  0  0  0  0  0  0  0  0  0  0  0  # atno 6908 bound_to 6896
  150.6836  134.2971  159.4734 H   0  0  0  0  0  0  0  0  0  0  0  0  # atno 6909 bound_to 6896
  144.7177  140.0162  143.6440 H   0  0  0  0  0  0  0  0  0  0  0  0  # atno 7974 bound_to 7965
  156.2458  140.2910  156.0576 H   0  0  0  0  0  0  0  0  0  0  0  0  # atno 8008 bound_to 7997
  155.1811  140.0404  157.2899 H   0  0  0  0  0  0  0  0  0  0  0  0  # atno 8009 bound_to 7997
  154.6259  140.2487  155.7499 H   0  0  0  0  0  0  0  0  0  0  0  0  # atno 8010 bound_to 7997
  140.1188  144.4750  150.6933 H   0  0  0  0  0  0  0  0  0  0  0  0  # atno 10167 bound_to 10162
  156.2282  130.7021  151.0830 H   0  0  0  0  0  0  0  0  0  0  0  0  # atno 10718 bound_to 10713
  153.5939  135.7001  153.5412 H   0  0  0  0  0  0  0  0  0  0  0  0  # atno 10763 bound_to 10752
  153.3155  135.4089  155.1372 H   0  0  0  0  0  0  0  0  0  0  0  0  # atno 10764 bound_to 10752
  154.8595  135.3682  154.5472 H   0  0  0  0  0  0  0  0  0  0  0  0  # atno 10765 bound_to 10752
  140.7129  134.3812  157.5195 H   0  0  0  0  0  0  0  0  0  0  0  0  # atno 11005 bound_to 11000
  146.0218  139.3257  143.0808 LP  0  0  0  0  0  0  0  0  0  0  0  0  # atno 17320 bound_to 7965
  145.8559  140.9502  143.0725 LP  0  0  0  0  0  0  0  0  0  0  0  0  # atno 17321 bound_to 7965
  140.6884  143.2362  151.5199 LP  0  0  0  0  0  0  0  0  0  0  0  0  # atno 17342 bound_to 10162
  139.5579  144.2228  152.1644 LP  0  0  0  0  0  0  0  0  0  0  0  0  # atno 17343 bound_to 10162
  157.7120  131.0729  150.6464 LP  0  0  0  0  0  0  0  0  0  0  0  0  # atno 17370 bound_to 10713
  156.6531  130.4490  149.5713 LP  0  0  0  0  0  0  0  0  0  0  0  0  # atno 17371 bound_to 10713
  139.8867  134.8902  156.2570 LP  0  0  0  0  0  0  0  0  0  0  0  0  # atno 17394 bound_to 11000
  141.0069  133.7118  156.1049 LP  0  0  0  0  0  0  0  0  0  0  0  0  # atno 17395 bound_to 11000

$$$$
