AV-unprocessed.smi:36|AV-procd|sdf|279|dock10
  -GOLD-   2262016 53D 1   1.00000     0.00000
 Structure written by MMmdl.
 64 67  0  0  0  0  0  0  0  0  1 V2000
  155.5630  129.9523  167.0600 C   0  0  0  0  0  0  0  0  0  0  0  0
  154.8140  129.0406  166.0740 C   0  0  0  0  0  0  0  0  0  0  0  0
  155.7885  128.0190  165.4632 C   0  0  0  0  0  0  0  0  0  0  0  0
  153.6792  128.3013  166.8026 C   0  0  0  0  0  0  0  0  0  0  0  0
  154.0649  130.0979  164.6702 Si  0  0  0  0  0  0  0  0  0  0  0  0
  153.2553  129.0133  163.3372 C   0  0  0  0  0  0  0  0  0  0  0  0
  152.7973  131.3383  165.3543 C   0  0  0  0  0  0  0  0  0  0  0  0
  155.3309  130.9578  163.9504 O   0  0  0  0  0  0  0  0  0  0  0  0
  155.1541  132.0228  163.0373 C   0  0  0  0  0  0  0  0  0  0  0  0
  154.7438  133.2900  163.8015 C   0  0  2  0  0  0  0  0  0  0  0  0
  154.5612  134.3645  162.8790 O   0  0  0  0  0  0  0  0  0  0  0  0
  155.5546  135.3091  163.1091 C   0  0  1  0  0  0  0  0  0  0  0  0
  155.0604  136.6473  162.6835 N   0  0  0  0  0  0  0  0  0  0  0  0
  153.9294  136.9704  161.9654 C   0  0  0  0  0  0  0  0  0  0  0  0
  153.7633  138.2458  161.7345 N   0  0  0  0  0  0  0  0  0  0  0  0
  154.8587  138.8447  162.3449 C   0  0  0  0  0  0  0  0  0  0  0  0
  155.3013  140.1864  162.4784 C   0  0  0  0  0  0  0  0  0  0  0  0
  154.5909  141.1957  161.9221 N   0  0  0  0  0  0  0  0  0  0  0  0
  153.9787  141.2427  160.6056 C   0  0  0  0  0  0  0  0  0  0  0  0
  154.0168  140.2869  159.8302 O   0  0  0  0  0  0  0  0  0  0  0  0
  153.2264  142.4983  160.2722 C   0  0  0  0  0  0  0  0  0  0  0  0
  152.6442  143.2673  161.3051 C   0  0  0  0  0  0  0  0  0  0  0  0
  151.9255  144.4403  161.0030 C   0  0  0  0  0  0  0  0  0  0  0  0
  151.7763  144.8506  159.6650 C   0  0  0  0  0  0  0  0  0  0  0  0
  152.3418  144.0840  158.6286 C   0  0  0  0  0  0  0  0  0  0  0  0
  153.0607  142.9103  158.9293 C   0  0  0  0  0  0  0  0  0  0  0  0
  156.4524  140.3985  163.1702 N   0  0  0  0  0  0  0  0  0  0  0  0
  157.1251  139.3682  163.6918 C   0  0  0  0  0  0  0  0  0  0  0  0
  156.8313  138.0672  163.6391 N   0  0  0  0  0  0  0  0  0  0  0  0
  155.6761  137.8493  162.9473 C   0  0  0  0  0  0  0  0  0  0  0  0
  155.8070  135.2718  164.6074 C   0  0  0  0  0  0  0  0  0  0  0  0
  155.7748  133.7749  164.8403 C   0  0  1  0  0  0  0  0  0  0  0  0
  155.3916  133.4740  166.1662 O   0  0  0  0  0  0  0  0  0  0  0  0
  156.0044  129.3765  167.8743 H   0  0  0  0  0  0  0  0  0  0  0  0
  154.8949  130.6907  167.5045 H   0  0  0  0  0  0  0  0  0  0  0  0
  156.3702  130.4938  166.5661 H   0  0  0  0  0  0  0  0  0  0  0  0
  156.6110  128.5131  164.9459 H   0  0  0  0  0  0  0  0  0  0  0  0
  155.2864  127.3747  164.7409 H   0  0  0  0  0  0  0  0  0  0  0  0
  156.2230  127.3772  166.2306 H   0  0  0  0  0  0  0  0  0  0  0  0
  154.0671  127.6649  167.5986 H   0  0  0  0  0  0  0  0  0  0  0  0
  153.1166  127.6659  166.1174 H   0  0  0  0  0  0  0  0  0  0  0  0
  152.9757  129.0008  167.2554 H   0  0  0  0  0  0  0  0  0  0  0  0
  152.4313  128.4272  163.7432 H   0  0  0  0  0  0  0  0  0  0  0  0
  153.9686  128.3144  162.9010 H   0  0  0  0  0  0  0  0  0  0  0  0
  152.8544  129.6156  162.5222 H   0  0  0  0  0  0  0  0  0  0  0  0
  151.9582  130.8306  165.8294 H   0  0  0  0  0  0  0  0  0  0  0  0
  152.3884  131.9711  164.5673 H   0  0  0  0  0  0  0  0  0  0  0  0
  153.2408  131.9965  166.1008 H   0  0  0  0  0  0  0  0  0  0  0  0
  156.0893  132.1872  162.5015 H   0  0  0  0  0  0  0  0  0  0  0  0
  154.3979  131.7685  162.2939 H   0  0  0  0  0  0  0  0  0  0  0  0
  153.7774  133.1227  164.2796 H   0  0  0  0  0  0  0  0  0  0  0  0
  156.4399  135.1062  162.5040 H   0  0  0  0  0  0  0  0  0  0  0  0
  153.2290  136.2275  161.6121 H   0  0  0  0  0  0  0  0  0  0  0  0
  154.4777  142.0223  162.4905 H   0  0  0  0  0  0  0  0  0  0  0  0
  152.7494  142.9654  162.3376 H   0  0  0  0  0  0  0  0  0  0  0  0
  151.4885  145.0247  161.7991 H   0  0  0  0  0  0  0  0  0  0  0  0
  151.2251  145.7504  159.4338 H   0  0  0  0  0  0  0  0  0  0  0  0
  152.2223  144.3952  157.6013 H   0  0  0  0  0  0  0  0  0  0  0  0
  153.4787  142.3326  158.1176 H   0  0  0  0  0  0  0  0  0  0  0  0
  158.0284  139.6231  164.2258 H   0  0  0  0  0  0  0  0  0  0  0  0
  156.7547  135.7445  164.8674 H   0  0  0  0  0  0  0  0  0  0  0  0
  154.9887  135.7771  165.1236 H   0  0  0  0  0  0  0  0  0  0  0  0
  156.7617  133.3564  164.6426 H   0  0  0  0  0  0  0  0  0  0  0  0
  155.0235  134.2517  166.5569 H   0  0  0  0  0  0  0  0  0  0  0  0
  1  2  1  0  0  0  0
  1 34  1  0  0  0  0
  1 35  1  0  0  0  0
  1 36  1  0  0  0  0
  2  3  1  0  0  0  0
  2  4  1  0  0  0  0
  2  5  1  0  0  0  0
  3 37  1  0  0  0  0
  3 38  1  0  0  0  0
  3 39  1  0  0  0  0
  4 40  1  0  0  0  0
  4 41  1  0  0  0  0
  4 42  1  0  0  0  0
  5  6  1  0  0  0  0
  5  7  1  0  0  0  0
  5  8  1  0  0  0  0
  6 43  1  0  0  0  0
  6 44  1  0  0  0  0
  6 45  1  0  0  0  0
  7 46  1  0  0  0  0
  7 47  1  0  0  0  0
  7 48  1  0  0  0  0
  8  9  1  0  0  0  0
  9 10  1  0  0  0  0
  9 49  1  0  0  0  0
  9 50  1  0  0  0  0
 10 32  1  0  0  0  0
 10 11  1  0  0  0  0
 10 51  1  0  0  0  0
 11 12  1  0  0  0  0
 12 13  1  0  0  0  0
 12 31  1  0  0  0  0
 12 52  1  0  0  0  0
 13 30  1  0  0  0  0
 13 14  1  0  0  0  0
 14 15  2  0  0  0  0
 14 53  1  0  0  0  0
 15 16  1  0  0  0  0
 16 30  2  0  0  0  0
 16 17  1  0  0  0  0
 17 18  1  0  0  0  0
 17 27  2  0  0  0  0
 18 19  1  0  0  0  0
 18 54  1  0  0  0  0
 19 20  2  0  0  0  0
 19 21  1  0  0  0  0
 21 26  1  0  0  0  0
 21 22  2  0  0  0  0
 22 23  1  0  0  0  0
 22 55  1  0  0  0  0
 23 24  2  0  0  0  0
 23 56  1  0  0  0  0
 24 25  1  0  0  0  0
 24 57  1  0  0  0  0
 25 26  2  0  0  0  0
 25 58  1  0  0  0  0
 26 59  1  0  0  0  0
 27 28  1  0  0  0  0
 28 29  2  0  0  0  0
 28 60  1  0  0  0  0
 29 30  1  0  0  0  0
 31 32  1  0  0  0  0
 31 61  1  0  0  0  0
 31 62  1  0  0  0  0
 32 33  1  0  0  0  0
 32 63  1  0  0  0  0
 33 64  1  0  0  0  0
M  END
> <s_m_source_file>
AV-unprocessed.smi

> <i_m_source_file_index>
36

> <i_lp_mmshare_version>
43012

> <i_f3d_flags>
0

> <s_epik_input>
W0NIM11DKFtDSDNdKShbQ0gzXSlbU2ldKFtDSDNdKShbQ0gzXSlPW0NIMl1bQ0BASF0xT1tDQEhdKFtDSDJdW0NASF0xW09IXSluKFtjSF1uMiljKGMyMyluW2NIXW5jM1tOSF1DKD1PKWM0W2NIXVtjSF1bY0hdW2NIXVtjSF00

> <s_epik_cmdline>
J2VwaWtfcHl0aG9uJywgJy1waCcsICc3LjAnLCAnLXRuJywgJzgnLCAnLW1hJywgJzIwMCcsICctbWV0YWxfYmluZGluZycsICctaW1hZScsICc8aW5maWxlLm1hZT4nLCAnLW9tYWUnLCAnPG91dGZpbGUubWFlPic=

> <r_lp_tautomer_probability>
1

> <r_epik_Ionization_Penalty>
0.00150433

> <r_epik_Ionization_Penalty_Charging>
0

> <r_epik_Ionization_Penalty_Neutral>
0.00150433

> <r_epik_State_Penalty>
0.00724046

> <r_epik_Charging_Adjusted_Penalty>
0.00724046

> <i_epik_Tot_Q>
0

> <i_epik_Tot_abs_Q>
0

> <r_epik_Metal_State_Penalty>
0.323355

> <b_epik_Metal_Only>
0

> <s_epik_Chemistry_Notes>
This compound contains an acetal/aminal-like group ( X-CH(R)-Y where X, Y are N, S, or O) that may be acid/base labile, releasing an aldehyde.

> <s_lp_Force_Field>
OPLS_2005

> <r_lp_Energy>
30.8875

> <b_lp_Chiralities_Consistent>
1

> <s_lp_Variant>
AV-unprocessed.smi:36-1

> <Gold.Version>
5.8.1

> <Gold.Id.Protein>
6NUR|6NUR_protein|mol2

> <Gold.PLP.Fitness>
54.6661

> <Gold.PLP.PLP>
-56.6165

> <Gold.PLP.part.hbond>
-3.0000

> <Gold.PLP.part.metal>
0.0000

> <Gold.PLP.part.buried>
-5.9054

> <Gold.PLP.part.nonpolar>
-46.8933

> <Gold.PLP.part.repulsive>
0.0000

> <Gold.PLP.ligand.clash>
0.0000

> <Gold.PLP.ligand.torsion>
1.0412

> <Gold.PLP.Chemscore.Hbond>
0.0000

> <Gold.PLP.Chemscore.CHOScore>
0.0000

> <Gold.PLP.Chemscore.Metal>
0.0000

> <Gold.PLP.Chemscore.Internal.Correction>
0.1321

> <Gold.Rescore>
     Score         DG    S(hbond)    S(metal)    S(lipo)     H(rot)  DE(clash)    DE(int)     intcor
     11.97     -13.05       0.00        0.00     123.84       2.70       0.12       0.96       ----

> <Gold.Chemscore.Fitness>
11.9724

> <Gold.Chemscore.DG>
-13.0469

> <Gold.Chemscore.ZeroCoef>
-5.4800

> <Gold.Chemscore.Hbond>
0.0000

> <Gold.Chemscore.Metal>
0.0000

> <Gold.Chemscore.Lipo>
123.8406

> <Gold.Chemscore.Internal_Hbond>
0.0000

> <Gold.Chemscore.DEClash>
0.1155

> <Gold.Chemscore.DEInternal>
0.9590

> <Gold.Chemscore.Rot>
2.7041

> <Gold.Chemscore.Internal.Correction>
   9.000000E+99

> <Gold.Chemscore.Hbond.Weighted>
-0.0000

> <Gold.Chemscore.Metal.Weighted>
-0.0000

> <Gold.Chemscore.Lipo.Weighted>
-14.4894

> <Gold.Chemscore.Internal_Hbond.Weighted>
0.0000

> <Gold.Chemscore.DEClash.Weighted>
0.1155

> <Gold.Chemscore.DEInternal.Weighted>
0.9590

> <Gold.Chemscore.Rot.Weighted>
6.9225

> <Gold.Chemscore.Internal.Correction.Weighted>
   9.000000E+99

> <Gold.Protein.RotatedTorsions>
[ 6907 6896 6895 6894 ] final  -28.57 input  -60.11 | X-H torsion
[ 7974 7965 7964 7962 ] final -125.95 input  175.53 | X-H torsion
[ 8008 7997 7996 7995 ] final   41.72 input   59.86 | X-H torsion
[ 10167 10162 10161 10158 ] final  -38.87 input  -65.29 | X-H torsion
[ 10718 10713 10712 10709 ] final  139.88 input   66.30 | X-H torsion
[ 10763 10752 10751 10750 ] final  -50.71 input  -60.55 | X-H torsion
[ 11005 11000 10999 10996 ] final   55.70 input  -57.11 | X-H torsion

> <Gold.Protein.ActiveResidues>
 VAL166  LYS551  ARG553  GLY616  TRP617  ASP618  TYR619  PRO620  LYS621  CYS622 
 ASP623  PHE694  ASN695  SER759  ASP760  ASP761  ALA762  ILE779  LEU786  VAL792 
 PHE793  MET794  SER795  GLU796  ALA797  LYS798  CYS799  TRP800  GLU811  SER814 

> <Gold.Protein.RotatedAtoms>
  151.1311  135.0130  159.8582 H   0  0  0  0  0  0  0  0  0  0  0  0  # atno 6907 bound_to 6896
  152.5451  134.1609  159.8567 H   0  0  0  0  0  0  0  0  0  0  0  0  # atno 6908 bound_to 6896
  151.1676  133.4760  159.2627 H   0  0  0  0  0  0  0  0  0  0  0  0  # atno 6909 bound_to 6896
  144.9922  140.7743  143.4547 H   0  0  0  0  0  0  0  0  0  0  0  0  # atno 7974 bound_to 7965
  155.2742  140.3368  155.4263 H   0  0  0  0  0  0  0  0  0  0  0  0  # atno 8008 bound_to 7997
  156.2119  140.1773  156.7718 H   0  0  0  0  0  0  0  0  0  0  0  0  # atno 8009 bound_to 7997
  154.5698  140.0672  156.8931 H   0  0  0  0  0  0  0  0  0  0  0  0  # atno 8010 bound_to 7997
  140.7080  143.3250  151.2702 H   0  0  0  0  0  0  0  0  0  0  0  0  # atno 10167 bound_to 10162
  157.4095  131.1026  151.0469 H   0  0  0  0  0  0  0  0  0  0  0  0  # atno 10718 bound_to 10713
  154.1148  135.6543  153.4892 H   0  0  0  0  0  0  0  0  0  0  0  0  # atno 10763 bound_to 10752
  153.0244  135.5256  154.7156 H   0  0  0  0  0  0  0  0  0  0  0  0  # atno 10764 bound_to 10752
  154.6346  135.2980  155.0145 H   0  0  0  0  0  0  0  0  0  0  0  0  # atno 10765 bound_to 10752
  140.0586  134.5634  155.9178 H   0  0  0  0  0  0  0  0  0  0  0  0  # atno 11005 bound_to 11000
  145.2269  139.2133  143.5063 LP  0  0  0  0  0  0  0  0  0  0  0  0  # atno 17320 bound_to 7965
  146.3434  140.2138  142.8590 LP  0  0  0  0  0  0  0  0  0  0  0  0  # atno 17321 bound_to 7965
  139.6715  144.0012  152.2756 LP  0  0  0  0  0  0  0  0  0  0  0  0  # atno 17342 bound_to 10162
  139.9612  144.6557  150.8078 LP  0  0  0  0  0  0  0  0  0  0  0  0  # atno 17343 bound_to 10162
  157.1439  130.6155  149.5563 LP  0  0  0  0  0  0  0  0  0  0  0  0  # atno 17370 bound_to 10713
  155.9846  130.4872  150.6992 LP  0  0  0  0  0  0  0  0  0  0  0  0  # atno 17371 bound_to 10713
  141.1963  133.6591  156.5686 LP  0  0  0  0  0  0  0  0  0  0  0  0  # atno 17394 bound_to 11000
  140.3805  134.7528  157.4658 LP  0  0  0  0  0  0  0  0  0  0  0  0  # atno 17395 bound_to 11000

$$$$
