AV-unprocessed.smi:3117|AV-procd|sdf|11883|dock7
  -GOLD-   2272017273D 1   1.00000     0.00000
 Structure written by MMmdl.
 36 36  0  0  0  0  0  0  0  0  1 V2000
  148.8623  142.6750  158.4402 C   0  0  0  0  0  0  0  0  0  0  0  0
  149.6886  141.7223  157.5460 C   0  0  1  0  0  0  0  0  0  0  0  0
  149.3127  141.8693  156.1344 N   0  0  0  0  0  0  0  0  0  0  0  0
  148.6972  140.6979  155.5067 C   0  0  0  0  0  0  0  0  0  0  0  0
  148.1555  141.0076  154.0938 C   0  0  0  0  0  0  0  0  0  0  0  0
  147.3582  139.8393  153.4818 C   0  0  0  0  0  0  0  0  0  0  0  0
  147.2866  142.2756  154.1360 C   0  0  0  0  0  0  0  0  0  0  0  0
  149.2534  141.3035  153.2521 O   0  0  0  0  0  0  0  0  0  0  0  0
  151.2205  141.9362  157.6919 C   0  0  2  0  0  0  0  0  0  0  0  0
  151.9401  140.6785  158.2179 C   0  0  0  0  0  0  0  0  0  0  0  0
  151.5499  143.0848  158.5278 N   0  0  0  0  0  0  0  0  0  0  0  0
  152.2678  143.1029  159.7060 C   0  0  0  0  0  0  0  0  0  0  0  0
  152.3257  144.3994  160.1304 C   0  0  0  0  0  0  0  0  0  0  0  0
  151.6058  145.1138  159.1328 C   0  0  0  0  0  0  0  0  0  0  0  0
  151.1440  144.3263  158.1753 N   0  0  0  0  0  0  0  0  0  0  0  0
  149.1099  142.5582  159.4950 H   0  0  0  0  0  0  0  0  0  0  0  0
  147.7925  142.4854  158.3639 H   0  0  0  0  0  0  0  0  0  0  0  0
  149.0370  143.7177  158.1734 H   0  0  0  0  0  0  0  0  0  0  0  0
  149.4664  140.7027  157.8638 H   0  0  0  0  0  0  0  0  0  0  0  0
  148.6991  142.6702  156.0223 H   0  0  0  0  0  0  0  0  0  0  0  0
  149.4352  139.8978  155.4395 H   0  0  0  0  0  0  0  0  0  0  0  0
  147.8820  140.3149  156.1202 H   0  0  0  0  0  0  0  0  0  0  0  0
  146.5174  139.5630  154.1189 H   0  0  0  0  0  0  0  0  0  0  0  0
  147.9751  138.9502  153.3462 H   0  0  0  0  0  0  0  0  0  0  0  0
  146.9565  140.1038  152.5030 H   0  0  0  0  0  0  0  0  0  0  0  0
  146.4087  142.1289  154.7661 H   0  0  0  0  0  0  0  0  0  0  0  0
  146.9338  142.5525  153.1419 H   0  0  0  0  0  0  0  0  0  0  0  0
  147.8405  143.1254  154.5374 H   0  0  0  0  0  0  0  0  0  0  0  0
  149.3784  140.5802  152.6570 H   0  0  0  0  0  0  0  0  0  0  0  0
  151.6239  142.1528  156.7011 H   0  0  0  0  0  0  0  0  0  0  0  0
  151.8242  139.8363  157.5355 H   0  0  0  0  0  0  0  0  0  0  0  0
  151.5506  140.3710  159.1889 H   0  0  0  0  0  0  0  0  0  0  0  0
  153.0098  140.8582  158.3305 H   0  0  0  0  0  0  0  0  0  0  0  0
  152.6742  142.2012  160.1397 H   0  0  0  0  0  0  0  0  0  0  0  0
  152.8090  144.7797  161.0179 H   0  0  0  0  0  0  0  0  0  0  0  0
  151.4065  146.1735  159.0763 H   0  0  0  0  0  0  0  0  0  0  0  0
  1  2  1  0  0  0  0
  1 16  1  0  0  0  0
  1 17  1  0  0  0  0
  1 18  1  0  0  0  0
  2  3  1  0  0  0  0
  2  9  1  0  0  0  0
  2 19  1  0  0  0  0
  3  4  1  0  0  0  0
  3 20  1  0  0  0  0
  4  5  1  0  0  0  0
  4 21  1  0  0  0  0
  4 22  1  0  0  0  0
  5  6  1  0  0  0  0
  5  7  1  0  0  0  0
  5  8  1  0  0  0  0
  6 23  1  0  0  0  0
  6 24  1  0  0  0  0
  6 25  1  0  0  0  0
  7 26  1  0  0  0  0
  7 27  1  0  0  0  0
  7 28  1  0  0  0  0
  8 29  1  0  0  0  0
  9 10  1  0  0  0  0
  9 11  1  0  0  0  0
  9 30  1  0  0  0  0
 10 31  1  0  0  0  0
 10 32  1  0  0  0  0
 10 33  1  0  0  0  0
 11 15  1  0  0  0  0
 11 12  1  0  0  0  0
 12 13  2  0  0  0  0
 12 34  1  0  0  0  0
 13 14  1  0  0  0  0
 13 35  1  0  0  0  0
 14 15  2  0  0  0  0
 14 36  1  0  0  0  0
M  END
> <s_m_source_file>
AV-unprocessed.smi

> <i_m_source_file_index>
3117

> <i_lp_mmshare_version>
43012

> <i_f3d_flags>
0

> <s_epik_input>
W0NIM11DKFtDSDNdKShbT0hdKVtDSDJdW05IXVtDQEBIXShbQ0gzXSlbQ0BIXShbQ0gzXSluMVtjSF1bY0hdW2NIXW4x

> <s_epik_cmdline>
J2VwaWtfcHl0aG9uJywgJy1waCcsICc3LjAnLCAnLXRuJywgJzgnLCAnLW1hJywgJzIwMCcsICctbWV0YWxfYmluZGluZycsICctaW1hZScsICc8aW5maWxlLm1hZT4nLCAnLW9tYWUnLCAnPG91dGZpbGUubWFlPic=

> <r_lp_tautomer_probability>
1

> <r_epik_Ionization_Penalty>
2.13419

> <r_epik_Ionization_Penalty_Charging>
0

> <r_epik_Ionization_Penalty_Neutral>
2.13419

> <r_epik_State_Penalty>
2.27148

> <r_epik_Charging_Adjusted_Penalty>
2.27148

> <i_epik_Tot_Q>
0

> <i_epik_Tot_abs_Q>
0

> <r_epik_Metal_State_Penalty>
2.27029

> <b_epik_Metal_Only>
0

> <s_lp_Force_Field>
OPLS_2005

> <r_lp_Energy>
18.8486

> <b_lp_Chiralities_Consistent>
1

> <s_lp_Variant>
AV-unprocessed.smi:3117-6

> <Gold.Version>
5.8.1

> <Gold.Id.Protein>
6NUR|6NUR_protein|mol2

> <Gold.PLP.Fitness>
38.8735

> <Gold.PLP.PLP>
-35.3582

> <Gold.PLP.part.hbond>
-3.5093

> <Gold.PLP.part.metal>
0.0000

> <Gold.PLP.part.buried>
-4.3885

> <Gold.PLP.part.nonpolar>
-26.4355

> <Gold.PLP.part.repulsive>
0.1675

> <Gold.PLP.ligand.clash>
0.0000

> <Gold.PLP.ligand.torsion>
2.3405

> <Gold.PLP.Chemscore.Hbond>
2.6960

> <Gold.PLP.Chemscore.CHOScore>
0.0000

> <Gold.PLP.Chemscore.Metal>
0.0000

> <Gold.Chemscore.Hbonds>
donor molecule, donor type, donor heavy atom, donor atom, acceptor molecule, acceptor atom, score
      L1  H     3    20       P1  8028  0.66
      L1  H     8    29       P1  7957  0.98
      P1  H  8011  8017       L1     8  0.85

> <Gold.PLP.Chemscore.Internal.Correction>
0.1082

> <Gold.Rescore>
     Score         DG    S(hbond)    S(metal)    S(lipo)     H(rot)  DE(clash)    DE(int)     intcor
     14.01     -17.81       2.37        0.00      85.70       2.19       0.11       3.70       ----

> <Gold.Chemscore.Fitness>
14.0058

> <Gold.Chemscore.DG>
-17.8091

> <Gold.Chemscore.ZeroCoef>
-5.4800

> <Gold.Chemscore.Hbond>
2.3663

> <Gold.Chemscore.Metal>
0.0000

> <Gold.Chemscore.Lipo>
85.7050

> <Gold.Chemscore.Internal_Hbond>
0.0000

> <Gold.Chemscore.DEClash>
0.1077

> <Gold.Chemscore.DEInternal>
3.6956

> <Gold.Chemscore.Rot>
2.1882

> <Gold.Chemscore.Internal.Correction>
   9.000000E+99

> <Gold.Chemscore.Hbonds>
donor molecule, donor type, donor heavy atom, donor atom, acceptor molecule, acceptor atom, score
      L1  H     3    20       P1  8028  0.64
      L1  H     8    29       P1  7957  0.92
      P1  H  8011  8017       L1     8  0.13

> <Gold.Chemscore.Hbond.Weighted>
-7.9034

> <Gold.Chemscore.Metal.Weighted>
-0.0000

> <Gold.Chemscore.Lipo.Weighted>
-10.0275

> <Gold.Chemscore.Internal_Hbond.Weighted>
0.0000

> <Gold.Chemscore.DEClash.Weighted>
0.1077

> <Gold.Chemscore.DEInternal.Weighted>
3.6956

> <Gold.Chemscore.Rot.Weighted>
5.6018

> <Gold.Chemscore.Internal.Correction.Weighted>
   9.000000E+99

> <Gold.Protein.RotatedTorsions>
[ 6907 6896 6895 6894 ] final   60.01 input  -60.11 | X-H torsion
[ 7974 7965 7964 7962 ] final -137.21 input  175.53 | X-H torsion
[ 8008 7997 7996 7995 ] final  174.94 input   59.86 | X-H torsion
[ 10167 10162 10161 10158 ] final   34.75 input  -65.29 | X-H torsion
[ 10718 10713 10712 10709 ] final  145.48 input   66.30 | X-H torsion
[ 10763 10752 10751 10750 ] final  128.22 input  -60.55 | X-H torsion
[ 11005 11000 10999 10996 ] final   65.30 input  -57.11 | X-H torsion

> <Gold.Protein.ActiveResidues>
 VAL166  LYS551  ARG553  GLY616  TRP617  ASP618  TYR619  PRO620  LYS621  CYS622 
 ASP623  PHE694  ASN695  SER759  ASP760  ASP761  ALA762  ILE779  LEU786  VAL792 
 PHE793  MET794  SER795  GLU796  ALA797  LYS798  CYS799  TRP800  GLU811  SER814 

> <Gold.Protein.RotatedAtoms>
  152.3966  134.6356  160.0086 H   0  0  0  0  0  0  0  0  0  0  0  0  # atno 6907 bound_to 6896
  151.6574  133.3313  159.3174 H   0  0  0  0  0  0  0  0  0  0  0  0  # atno 6908 bound_to 6896
  150.7872  134.6910  159.6541 H   0  0  0  0  0  0  0  0  0  0  0  0  # atno 6909 bound_to 6896
  144.8861  140.6577  143.5175 H   0  0  0  0  0  0  0  0  0  0  0  0  # atno 7974 bound_to 7965
  156.0922  140.1421  156.9577 H   0  0  0  0  0  0  0  0  0  0  0  0  # atno 8008 bound_to 7997
  154.4649  140.0930  156.7040 H   0  0  0  0  0  0  0  0  0  0  0  0  # atno 8009 bound_to 7997
  155.4901  140.3448  155.4355 H   0  0  0  0  0  0  0  0  0  0  0  0  # atno 8010 bound_to 7997
  140.4286  144.1357  150.6156 H   0  0  0  0  0  0  0  0  0  0  0  0  # atno 10167 bound_to 10162
  157.3448  131.0941  151.1051 H   0  0  0  0  0  0  0  0  0  0  0  0  # atno 10718 bound_to 10713
  153.7220  135.3252  155.3268 H   0  0  0  0  0  0  0  0  0  0  0  0  # atno 10763 bound_to 10752
  154.8353  135.4502  154.1208 H   0  0  0  0  0  0  0  0  0  0  0  0  # atno 10764 bound_to 10752
  153.2331  135.6962  153.7948 H   0  0  0  0  0  0  0  0  0  0  0  0  # atno 10765 bound_to 10752
  139.9903  134.6602  156.0103 H   0  0  0  0  0  0  0  0  0  0  0  0  # atno 11005 bound_to 11000
  145.3866  139.1625  143.4252 LP  0  0  0  0  0  0  0  0  0  0  0  0  # atno 17320 bound_to 7965
  146.3025  140.3951  142.8699 LP  0  0  0  0  0  0  0  0  0  0  0  0  # atno 17321 bound_to 7965
  140.4453  143.2509  151.9420 LP  0  0  0  0  0  0  0  0  0  0  0  0  # atno 17342 bound_to 10162
  139.4784  144.5615  151.8231 LP  0  0  0  0  0  0  0  0  0  0  0  0  # atno 17343 bound_to 10162
  157.2249  130.6498  149.5826 LP  0  0  0  0  0  0  0  0  0  0  0  0  # atno 17370 bound_to 10713
  155.9713  130.4617  150.6119 LP  0  0  0  0  0  0  0  0  0  0  0  0  # atno 17371 bound_to 10713
  141.1560  133.6543  156.4163 LP  0  0  0  0  0  0  0  0  0  0  0  0  # atno 17394 bound_to 11000
  140.4921  134.6565  157.5215 LP  0  0  0  0  0  0  0  0  0  0  0  0  # atno 17395 bound_to 11000

$$$$
