AV-unprocessed.smi:484|AV-procd|sdf|2690|dock1
  -GOLD-   2262023123D 1   1.00000     0.00000
 Structure written by MMmdl.
 47 49  0  0  0  0  0  0  0  0  2 V2000
  156.8555  138.9699  164.4059 C   0  0  0  0  0  0  0  0  0  0  0  0
  156.4192  137.5619  163.9864 C   0  0  0  0  0  0  0  0  0  0  0  0
  155.7510  137.5498  162.6248 C   0  0  0  0  0  0  0  0  0  0  0  0
  156.4841  137.8888  161.4702 C   0  0  0  0  0  0  0  0  0  0  0  0
  155.8611  137.8729  160.2076 C   0  0  0  0  0  0  0  0  0  0  0  0
  154.5023  137.5205  160.0770 C   0  0  0  0  0  0  0  0  0  0  0  0
  153.9719  137.5404  158.8052 O   0  0  0  0  0  0  0  0  0  0  0  0
  152.5899  137.8356  158.6561 C   0  0  0  0  0  0  0  0  0  0  0  0
  152.4398  139.3074  158.2375 C   0  0  1  0  0  0  0  0  0  0  0  0
  152.8628  139.4256  156.8947 O   0  0  0  0  0  0  0  0  0  0  0  0
  151.0122  139.8827  158.4013 C   0  0  0  0  0  0  0  0  0  0  0  0
  150.8601  141.2862  157.9681 N   0  0  0  0  0  0  0  0  0  0  0  0
  150.0642  141.8412  157.0041 C   0  0  0  0  0  0  0  0  0  0  0  0
  149.1060  141.1403  156.0936 C   0  0  0  0  0  0  0  0  0  0  0  0
  148.6080  141.9789  155.0735 O   0  0  0  0  0  0  0  0  0  0  0  0
  150.3050  143.1829  157.0069 N   0  3  0  0  0  0  0  0  0  0  0  0
  151.2441  143.4962  157.9877 C   0  0  0  0  0  0  0  0  0  0  0  0
  151.7913  144.7188  158.3649 C   0  0  0  0  0  0  0  0  0  0  0  0
  152.7284  144.6947  159.4181 C   0  0  0  0  0  0  0  0  0  0  0  0
  153.0865  143.4881  160.0532 C   0  0  0  0  0  0  0  0  0  0  0  0
  152.5241  142.2553  159.6612 C   0  0  0  0  0  0  0  0  0  0  0  0
  151.6009  142.2852  158.6154 C   0  0  0  0  0  0  0  0  0  0  0  0
  153.7704  137.1777  161.2418 C   0  0  0  0  0  0  0  0  0  0  0  0
  154.3928  137.1933  162.5050 C   0  0  0  0  0  0  0  0  0  0  0  0
  157.3313  138.9529  165.3867 H   0  0  0  0  0  0  0  0  0  0  0  0
  156.0025  139.6469  164.4609 H   0  0  0  0  0  0  0  0  0  0  0  0
  157.5706  139.3884  163.6967 H   0  0  0  0  0  0  0  0  0  0  0  0
  157.2837  136.8971  163.9664 H   0  0  0  0  0  0  0  0  0  0  0  0
  155.7338  137.1505  164.7286 H   0  0  0  0  0  0  0  0  0  0  0  0
  157.5266  138.1608  161.5483 H   0  0  0  0  0  0  0  0  0  0  0  0
  156.4325  138.1360  159.3296 H   0  0  0  0  0  0  0  0  0  0  0  0
  152.1692  137.1918  157.8815 H   0  0  0  0  0  0  0  0  0  0  0  0
  152.0429  137.6426  159.5801 H   0  0  0  0  0  0  0  0  0  0  0  0
  153.1250  139.9078  158.8368 H   0  0  0  0  0  0  0  0  0  0  0  0
  152.3533  140.1038  156.4783 H   0  0  0  0  0  0  0  0  0  0  0  0
  150.3093  139.2841  157.8227 H   0  0  0  0  0  0  0  0  0  0  0  0
  150.6778  139.7956  159.4354 H   0  0  0  0  0  0  0  0  0  0  0  0
  149.6117  140.2918  155.6330 H   0  0  0  0  0  0  0  0  0  0  0  0
  148.2621  140.7489  156.6604 H   0  0  0  0  0  0  0  0  0  0  0  0
  148.9330  142.8545  155.2199 H   0  0  0  0  0  0  0  0  0  0  0  0
  151.5157  145.6444  157.8812 H   0  0  0  0  0  0  0  0  0  0  0  0
  153.1804  145.6197  159.7465 H   0  0  0  0  0  0  0  0  0  0  0  0
  153.8074  143.5082  160.8576 H   0  0  0  0  0  0  0  0  0  0  0  0
  152.8083  141.3388  160.1561 H   0  0  0  0  0  0  0  0  0  0  0  0
  152.7292  136.8977  161.1936 H   0  0  0  0  0  0  0  0  0  0  0  0
  153.8236  136.9279  163.3840 H   0  0  0  0  0  0  0  0  0  0  0  0
  149.8457  143.8352  156.3843 H   0  0  0  0  0  0  0  0  0  0  0  0
  1  2  1  0  0  0  0
  1 25  1  0  0  0  0
  1 26  1  0  0  0  0
  1 27  1  0  0  0  0
  2  3  1  0  0  0  0
  2 28  1  0  0  0  0
  2 29  1  0  0  0  0
  3 24  1  0  0  0  0
  3  4  2  0  0  0  0
  4  5  1  0  0  0  0
  4 30  1  0  0  0  0
  5  6  2  0  0  0  0
  5 31  1  0  0  0  0
  6  7  1  0  0  0  0
  6 23  1  0  0  0  0
  7  8  1  0  0  0  0
  8  9  1  0  0  0  0
  8 32  1  0  0  0  0
  8 33  1  0  0  0  0
  9 10  1  0  0  0  0
  9 11  1  0  0  0  0
  9 34  1  0  0  0  0
 10 35  1  0  0  0  0
 11 12  1  0  0  0  0
 11 36  1  0  0  0  0
 11 37  1  0  0  0  0
 12 22  1  0  0  0  0
 12 13  1  0  0  0  0
 13 14  1  0  0  0  0
 13 16  2  0  0  0  0
 14 15  1  0  0  0  0
 14 38  1  0  0  0  0
 14 39  1  0  0  0  0
 15 40  1  0  0  0  0
 16 17  1  0  0  0  0
 16 47  1  0  0  0  0
 17 22  2  0  0  0  0
 17 18  1  0  0  0  0
 18 19  2  0  0  0  0
 18 41  1  0  0  0  0
 19 20  1  0  0  0  0
 19 42  1  0  0  0  0
 20 21  2  0  0  0  0
 20 43  1  0  0  0  0
 21 22  1  0  0  0  0
 21 44  1  0  0  0  0
 23 24  2  0  0  0  0
 23 45  1  0  0  0  0
 24 46  1  0  0  0  0
M  CHG  1  16   1
M  END
> <s_m_source_file>
AV-unprocessed.smi

> <i_m_source_file_index>
484

> <i_lp_mmshare_version>
43012

> <i_f3d_flags>
0

> <s_epik_input>
W0NIM11bQ0gyXWMxW2NIXVtjSF1jKFtjSF1bY0hdMSlPW0NIMl1bQ0BIXShbT0hdKVtDSDJdbihjKG4yKVtDSDJdW09IXSljKGMyMylbY0hdW2NIXVtjSF1bY0hdMw==

> <s_epik_cmdline>
J2VwaWtfcHl0aG9uJywgJy1waCcsICc3LjAnLCAnLXRuJywgJzgnLCAnLW1hJywgJzIwMCcsICctbWV0YWxfYmluZGluZycsICctaW1hZScsICc8aW5maWxlLm1hZT4nLCAnLW9tYWUnLCAnPG91dGZpbGUubWFlPic=

> <r_lp_tautomer_probability>
1

> <r_epik_Ionization_Penalty>
1.43166

> <r_epik_Ionization_Penalty_Charging>
1.43081

> <r_epik_Ionization_Penalty_Neutral>
0.000858184

> <r_epik_State_Penalty>
1.51538

> <r_epik_Charging_Adjusted_Penalty>
2.94618

> <i_epik_Tot_Q>
1

> <i_epik_Tot_abs_Q>
1

> <r_epik_Metal_State_Penalty>
5.56039

> <b_epik_Metal_Only>
0

> <s_lp_Force_Field>
OPLS_2005

> <r_lp_Energy>
17.0937

> <b_lp_Chiralities_Consistent>
1

> <s_lp_Variant>
AV-unprocessed.smi:484-4

> <Gold.Version>
5.8.1

> <Gold.Id.Protein>
6NUR|6NUR_protein|mol2

> <Gold.PLP.Fitness>
57.9433

> <Gold.PLP.PLP>
-47.3741

> <Gold.PLP.part.hbond>
-3.5095

> <Gold.PLP.part.metal>
0.0000

> <Gold.PLP.part.buried>
-7.0126

> <Gold.PLP.part.nonpolar>
-38.1288

> <Gold.PLP.part.repulsive>
0.0107

> <Gold.PLP.ligand.clash>
0.0000

> <Gold.PLP.ligand.torsion>
0.8734

> <Gold.PLP.Chemscore.Hbond>
3.9680

> <Gold.PLP.Chemscore.CHOScore>
0.0000

> <Gold.PLP.Chemscore.Metal>
0.0000

> <Gold.Chemscore.Hbonds>
donor molecule, donor type, donor heavy atom, donor atom, acceptor molecule, acceptor atom, score
      L1  H    15    40       P1  8028  1.00
      L1  H    16    47       P1  8028  1.76
      P1  H  7997  8010       L1    10  0.75

> <Gold.PLP.Chemscore.Internal.Correction>
0.4120

> <Gold.Rescore>
     Score         DG    S(hbond)    S(metal)    S(lipo)     H(rot)  DE(clash)    DE(int)     intcor
     20.89     -22.09       2.53        0.00     139.43       3.18       0.28       0.93       ----

> <Gold.Chemscore.Fitness>
20.8892

> <Gold.Chemscore.DG>
-22.0936

> <Gold.Chemscore.ZeroCoef>
-5.4800

> <Gold.Chemscore.Hbond>
2.5273

> <Gold.Chemscore.Metal>
0.0000

> <Gold.Chemscore.Lipo>
139.4314

> <Gold.Chemscore.Internal_Hbond>
0.0000

> <Gold.Chemscore.DEClash>
0.2754

> <Gold.Chemscore.DEInternal>
0.9290

> <Gold.Chemscore.Rot>
3.1801

> <Gold.Chemscore.Internal.Correction>
   9.000000E+99

> <Gold.Chemscore.Hbonds>
donor molecule, donor type, donor heavy atom, donor atom, acceptor molecule, acceptor atom, score
      L1  H    15    40       P1  8028  0.99
      L1  H    16    47       P1  8028  0.86
      P1  H  7997  8010       L1    10  0.22

> <Gold.Chemscore.Hbond.Weighted>
-8.4412

> <Gold.Chemscore.Metal.Weighted>
-0.0000

> <Gold.Chemscore.Lipo.Weighted>
-16.3135

> <Gold.Chemscore.Internal_Hbond.Weighted>
0.0000

> <Gold.Chemscore.DEClash.Weighted>
0.2754

> <Gold.Chemscore.DEInternal.Weighted>
0.9290

> <Gold.Chemscore.Rot.Weighted>
8.1410

> <Gold.Chemscore.Internal.Correction.Weighted>
   9.000000E+99

> <Gold.Protein.RotatedTorsions>
[ 6907 6896 6895 6894 ] final  -52.29 input  -60.11 | X-H torsion
[ 7974 7965 7964 7962 ] final  136.85 input  175.53 | X-H torsion
[ 8008 7997 7996 7995 ] final   32.33 input   59.86 | X-H torsion
[ 10167 10162 10161 10158 ] final  117.12 input  -65.29 | X-H torsion
[ 10718 10713 10712 10709 ] final   70.75 input   66.30 | X-H torsion
[ 10763 10752 10751 10750 ] final  116.11 input  -60.55 | X-H torsion
[ 11005 11000 10999 10996 ] final   96.48 input  -57.11 | X-H torsion

> <Gold.Protein.ActiveResidues>
 VAL166  LYS551  ARG553  GLY616  TRP617  ASP618  TYR619  PRO620  LYS621  CYS622 
 ASP623  PHE694  ASN695  SER759  ASP760  ASP761  ALA762  ILE779  LEU786  VAL792 
 PHE793  MET794  SER795  GLU796  ALA797  LYS798  CYS799  TRP800  GLU811  SER814 

> <Gold.Protein.RotatedAtoms>
  150.8531  134.7862  159.7024 H   0  0  0  0  0  0  0  0  0  0  0  0  # atno 6907 bound_to 6896
  152.4591  134.5222  159.9796 H   0  0  0  0  0  0  0  0  0  0  0  0  # atno 6908 bound_to 6896
  151.5340  133.3406  159.2959 H   0  0  0  0  0  0  0  0  0  0  0  0  # atno 6909 bound_to 6896
  144.9524  139.4803  143.5519 H   0  0  0  0  0  0  0  0  0  0  0  0  # atno 7974 bound_to 7965
  155.1207  140.3248  155.4498 H   0  0  0  0  0  0  0  0  0  0  0  0  # atno 8008 bound_to 7997
  156.2663  140.2027  156.6278 H   0  0  0  0  0  0  0  0  0  0  0  0  # atno 8009 bound_to 7997
  154.6686  140.0539  157.0127 H   0  0  0  0  0  0  0  0  0  0  0  0  # atno 8010 bound_to 7997
  139.6200  144.7099  151.2654 H   0  0  0  0  0  0  0  0  0  0  0  0  # atno 10167 bound_to 10162
  157.6416  130.9493  150.0694 H   0  0  0  0  0  0  0  0  0  0  0  0  # atno 10718 bound_to 10713
  153.5322  135.3576  155.2681 H   0  0  0  0  0  0  0  0  0  0  0  0  # atno 10763 bound_to 10752
  154.8726  135.4071  154.3138 H   0  0  0  0  0  0  0  0  0  0  0  0  # atno 10764 bound_to 10752
  153.3829  135.7069  153.6619 H   0  0  0  0  0  0  0  0  0  0  0  0  # atno 10765 bound_to 10752
  139.8781  134.8953  156.4166 H   0  0  0  0  0  0  0  0  0  0  0  0  # atno 11005 bound_to 11000
  146.3326  139.8619  142.8855 LP  0  0  0  0  0  0  0  0  0  0  0  0  # atno 17320 bound_to 7965
  145.2823  141.0142  143.3710 LP  0  0  0  0  0  0  0  0  0  0  0  0  # atno 17321 bound_to 7965
  140.7376  143.6673  150.8112 LP  0  0  0  0  0  0  0  0  0  0  0  0  # atno 17342 bound_to 10162
  140.0282  143.5471  152.2771 LP  0  0  0  0  0  0  0  0  0  0  0  0  # atno 17343 bound_to 10162
  156.1702  130.3646  149.9175 LP  0  0  0  0  0  0  0  0  0  0  0  0  # atno 17370 bound_to 10713
  156.7152  130.8986  151.3613 LP  0  0  0  0  0  0  0  0  0  0  0  0  # atno 17371 bound_to 10713
  140.9163  133.7676  155.9852 LP  0  0  0  0  0  0  0  0  0  0  0  0  # atno 17394 bound_to 11000
  140.8489  134.2977  157.5283 LP  0  0  0  0  0  0  0  0  0  0  0  0  # atno 17395 bound_to 11000

$$$$
