AV-unprocessed.smi:1487|AV-procd|sdf|6021|dock3
  -GOLD-   22720 6123D 1   1.00000     0.00000
 Structure written by MMmdl.
 49 51  0  0  0  0  0  0  0  0  3 V2000
  151.9336  144.0657  161.0433 C   0  0  0  0  0  0  0  0  0  0  0  0
  151.8538  143.0567  159.9102 C   0  0  0  0  0  0  0  0  0  0  0  0
  151.0379  143.3570  158.7966 C   0  0  0  0  0  0  0  0  0  0  0  0
  150.9841  142.4143  157.7768 C   0  0  0  0  0  0  0  0  0  0  0  0
  150.2834  142.4152  156.5693 N   0  3  0  0  0  0  0  0  0  0  0  0
  150.5436  141.2635  155.8916 C   0  0  0  0  0  0  0  0  0  0  0  0
  151.4053  140.5279  156.6461 N   0  0  0  0  0  0  0  0  0  0  0  0
  151.9834  139.2030  156.3788 C   0  0  0  0  0  0  0  0  0  0  0  0
  150.9201  138.1016  156.1919 C   0  0  2  0  0  0  0  0  0  0  0  0
  151.3361  136.9906  156.9602 O   0  0  0  0  0  0  0  0  0  0  0  0
  150.7377  137.6632  154.7209 C   0  0  0  0  0  0  0  0  0  0  0  0
  149.6492  136.6689  154.5333 N   0  3  2  0  0  0  0  0  0  0  0  0
  148.4121  137.0544  155.2621 C   0  0  0  0  0  0  0  0  0  0  0  0
  147.2533  136.0957  154.9413 C   0  0  0  0  0  0  0  0  0  0  0  0
  147.6377  134.6452  155.2579 C   0  0  0  0  0  0  0  0  0  0  0  0
  148.9326  134.2770  154.5189 C   0  0  2  0  0  0  0  0  0  0  0  0
  149.3281  132.9740  154.8908 O   0  0  0  0  0  0  0  0  0  0  0  0
  150.0581  135.2740  154.8520 C   0  0  0  0  0  0  0  0  0  0  0  0
  151.7049  141.2052  157.8354 C   0  0  0  0  0  0  0  0  0  0  0  0
  152.5140  140.8945  158.9268 C   0  0  0  0  0  0  0  0  0  0  0  0
  152.5827  141.8411  159.9741 C   0  0  0  0  0  0  0  0  0  0  0  0
  153.4573  141.5289  161.1765 C   0  0  0  0  0  0  0  0  0  0  0  0
  151.3299  144.9492  160.8338 H   0  0  0  0  0  0  0  0  0  0  0  0
  152.9622  144.3941  161.1938 H   0  0  0  0  0  0  0  0  0  0  0  0
  151.5701  143.6268  161.9728 H   0  0  0  0  0  0  0  0  0  0  0  0
  150.4788  144.2800  158.7421 H   0  0  0  0  0  0  0  0  0  0  0  0
  150.1352  140.9823  154.9312 H   0  0  0  0  0  0  0  0  0  0  0  0
  152.6453  139.2634  155.5148 H   0  0  0  0  0  0  0  0  0  0  0  0
  152.6220  138.9604  157.2295 H   0  0  0  0  0  0  0  0  0  0  0  0
  149.9798  138.4649  156.6053 H   0  0  0  0  0  0  0  0  0  0  0  0
  151.1254  137.1455  157.8682 H   0  0  0  0  0  0  0  0  0  0  0  0
  150.5364  138.5223  154.0802 H   0  0  0  0  0  0  0  0  0  0  0  0
  151.6812  137.2390  154.3741 H   0  0  0  0  0  0  0  0  0  0  0  0
  148.6084  137.0626  156.3355 H   0  0  0  0  0  0  0  0  0  0  0  0
  148.1201  138.0684  154.9856 H   0  0  0  0  0  0  0  0  0  0  0  0
  146.3668  136.3784  155.5098 H   0  0  0  0  0  0  0  0  0  0  0  0
  146.9860  136.1833  153.8874 H   0  0  0  0  0  0  0  0  0  0  0  0
  147.7740  134.5300  156.3343 H   0  0  0  0  0  0  0  0  0  0  0  0
  146.8296  133.9716  154.9702 H   0  0  0  0  0  0  0  0  0  0  0  0
  148.7495  134.2794  153.4434 H   0  0  0  0  0  0  0  0  0  0  0  0
  150.2453  132.9857  155.1188 H   0  0  0  0  0  0  0  0  0  0  0  0
  150.9488  135.0010  154.2878 H   0  0  0  0  0  0  0  0  0  0  0  0
  150.3215  135.2082  155.9093 H   0  0  0  0  0  0  0  0  0  0  0  0
  153.0706  139.9709  158.9813 H   0  0  0  0  0  0  0  0  0  0  0  0
  153.9386  140.5553  161.0795 H   0  0  0  0  0  0  0  0  0  0  0  0
  152.8620  141.5160  162.0898 H   0  0  0  0  0  0  0  0  0  0  0  0
  154.2412  142.2789  161.2843 H   0  0  0  0  0  0  0  0  0  0  0  0
  149.4102  136.6901  153.5523 H   0  0  0  0  0  0  0  0  0  0  0  0
  149.6665  143.1443  156.2338 H   0  0  0  0  0  0  0  0  0  0  0  0
  1  2  1  0  0  0  0
  1 23  1  0  0  0  0
  1 24  1  0  0  0  0
  1 25  1  0  0  0  0
  2 21  1  0  0  0  0
  2  3  2  0  0  0  0
  3  4  1  0  0  0  0
  3 26  1  0  0  0  0
  4 19  2  0  0  0  0
  4  5  1  0  0  0  0
  5  6  2  0  0  0  0
  5 49  1  0  0  0  0
  6  7  1  0  0  0  0
  6 27  1  0  0  0  0
  7  8  1  0  0  0  0
  7 19  1  0  0  0  0
  8  9  1  0  0  0  0
  8 28  1  0  0  0  0
  8 29  1  0  0  0  0
  9 10  1  0  0  0  0
  9 11  1  0  0  0  0
  9 30  1  0  0  0  0
 10 31  1  0  0  0  0
 11 12  1  0  0  0  0
 11 32  1  0  0  0  0
 11 33  1  0  0  0  0
 12 18  1  0  0  0  0
 12 13  1  0  0  0  0
 12 48  1  0  0  0  0
 13 14  1  0  0  0  0
 13 34  1  0  0  0  0
 13 35  1  0  0  0  0
 14 15  1  0  0  0  0
 14 36  1  0  0  0  0
 14 37  1  0  0  0  0
 15 16  1  0  0  0  0
 15 38  1  0  0  0  0
 15 39  1  0  0  0  0
 16 17  1  0  0  0  0
 16 18  1  0  0  0  0
 16 40  1  0  0  0  0
 17 41  1  0  0  0  0
 18 42  1  0  0  0  0
 18 43  1  0  0  0  0
 19 20  1  0  0  0  0
 20 21  2  0  0  0  0
 20 44  1  0  0  0  0
 21 22  1  0  0  0  0
 22 45  1  0  0  0  0
 22 46  1  0  0  0  0
 22 47  1  0  0  0  0
M  CHG  1   5   1
M  CHG  1  12   1
M  END
> <s_m_source_file>
AV-unprocessed.smi

> <i_m_source_file_index>
1487

> <i_lp_mmshare_version>
43012

> <i_f3d_flags>
0

> <s_epik_input>
W0NIM11jKFtjSF0xKWMoW0NIM10pW2NIXWMoYzEyKW4oW2NIXW4yKVtDSDJdW0NASF0oW09IXSlbQ0gyXU4zW0NIMl1bQ0gyXVtDSDJdW0NAQEhdKFtPSF0pW0NIMl0z

> <s_epik_cmdline>
J2VwaWtfcHl0aG9uJywgJy1waCcsICc3LjAnLCAnLXRuJywgJzgnLCAnLW1hJywgJzIwMCcsICctbWV0YWxfYmluZGluZycsICctaW1hZScsICc8aW5maWxlLm1hZT4nLCAnLW9tYWUnLCAnPG91dGZpbGUubWFlPic=

> <r_epik_Ionization_Penalty>
1.1857

> <r_epik_Ionization_Penalty_Charging>
1.1857

> <r_epik_Ionization_Penalty_Neutral>
1.75578e-06

> <r_epik_State_Penalty>
1.26953

> <r_epik_Charging_Adjusted_Penalty>
2.45524

> <i_epik_Tot_Q>
2

> <i_epik_Tot_abs_Q>
2

> <r_epik_Metal_State_Penalty>
5.28243

> <b_epik_Metal_Only>
0

> <s_lp_Force_Field>
OPLS_2005

> <r_lp_Energy>
34.3912

> <b_lp_Chiralities_Consistent>
1

> <s_lp_Variant>
AV-unprocessed.smi:1487-15

> <Gold.Version>
5.8.1

> <Gold.Id.Protein>
6NUR|6NUR_protein|mol2

> <Gold.PLP.Fitness>
52.5685

> <Gold.PLP.PLP>
-42.1304

> <Gold.PLP.part.hbond>
-2.0983

> <Gold.PLP.part.metal>
0.0000

> <Gold.PLP.part.buried>
-4.9643

> <Gold.PLP.part.nonpolar>
-34.3151

> <Gold.PLP.part.repulsive>
0.1015

> <Gold.PLP.ligand.clash>
0.0000

> <Gold.PLP.ligand.torsion>
0.8130

> <Gold.PLP.Chemscore.Hbond>
4.0000

> <Gold.PLP.Chemscore.CHOScore>
0.0000

> <Gold.PLP.Chemscore.Metal>
0.0000

> <Gold.Chemscore.Hbonds>
donor molecule, donor type, donor heavy atom, donor atom, acceptor molecule, acceptor atom, score
      L1  H     5    49       P1  8028  2.00
      L1  H    12    48       P1  7948  2.00

> <Gold.PLP.Chemscore.Internal.Correction>
0.0641

> <Gold.Rescore>
     Score         DG    S(hbond)    S(metal)    S(lipo)     H(rot)  DE(clash)    DE(int)     intcor
     17.34     -18.35       1.92        0.00     115.19       2.74       0.07       0.93       ----

> <Gold.Chemscore.Fitness>
17.3427

> <Gold.Chemscore.DG>
-18.3510

> <Gold.Chemscore.ZeroCoef>
-5.4800

> <Gold.Chemscore.Hbond>
1.9173

> <Gold.Chemscore.Metal>
0.0000

> <Gold.Chemscore.Lipo>
115.1940

> <Gold.Chemscore.Internal_Hbond>
0.0000

> <Gold.Chemscore.DEClash>
0.0748

> <Gold.Chemscore.DEInternal>
0.9335

> <Gold.Chemscore.Rot>
2.7384

> <Gold.Chemscore.Internal.Correction>
   9.000000E+99

> <Gold.Chemscore.Hbonds>
donor molecule, donor type, donor heavy atom, donor atom, acceptor molecule, acceptor atom, score
      L1  H     5    49       P1  8028  1.00
      L1  H    12    48       P1  7948  0.88

> <Gold.Chemscore.Hbond.Weighted>
-6.4036

> <Gold.Chemscore.Metal.Weighted>
-0.0000

> <Gold.Chemscore.Lipo.Weighted>
-13.4777

> <Gold.Chemscore.Internal_Hbond.Weighted>
0.0000

> <Gold.Chemscore.DEClash.Weighted>
0.0748

> <Gold.Chemscore.DEInternal.Weighted>
0.9335

> <Gold.Chemscore.Rot.Weighted>
7.0103

> <Gold.Chemscore.Internal.Correction.Weighted>
   9.000000E+99

> <Gold.Protein.RotatedTorsions>
[ 6907 6896 6895 6894 ] final   -3.91 input  -60.11 | X-H torsion
[ 7974 7965 7964 7962 ] final  -82.47 input  175.53 | X-H torsion
[ 8008 7997 7996 7995 ] final   25.75 input   59.86 | X-H torsion
[ 10167 10162 10161 10158 ] final  176.71 input  -65.29 | X-H torsion
[ 10718 10713 10712 10709 ] final  120.33 input   66.30 | X-H torsion
[ 10763 10752 10751 10750 ] final -102.16 input  -60.55 | X-H torsion
[ 11005 11000 10999 10996 ] final -165.53 input  -57.11 | X-H torsion

> <Gold.Protein.ActiveResidues>
 VAL166  LYS551  ARG553  GLY616  TRP617  ASP618  TYR619  PRO620  LYS621  CYS622 
 ASP623  PHE694  ASN695  SER759  ASP760  ASP761  ALA762  ILE779  LEU786  VAL792 
 PHE793  MET794  SER795  GLU796  ALA797  LYS798  CYS799  TRP800  GLU811  SER814 

> <Gold.Protein.RotatedAtoms>
  151.5061  135.1063  159.9841 H   0  0  0  0  0  0  0  0  0  0  0  0  # atno 6907 bound_to 6896
  152.4681  133.7964  159.6940 H   0  0  0  0  0  0  0  0  0  0  0  0  # atno 6908 bound_to 6896
  150.8675  133.7490  159.2997 H   0  0  0  0  0  0  0  0  0  0  0  0  # atno 6909 bound_to 6896
  145.5329  140.9519  143.1593 H   0  0  0  0  0  0  0  0  0  0  0  0  # atno 7974 bound_to 7965
  155.0166  140.3143  155.4809 H   0  0  0  0  0  0  0  0  0  0  0  0  # atno 8008 bound_to 7997
  156.2899  140.2205  156.5225 H   0  0  0  0  0  0  0  0  0  0  0  0  # atno 8009 bound_to 7997
  154.7488  140.0468  157.0863 H   0  0  0  0  0  0  0  0  0  0  0  0  # atno 8010 bound_to 7997
  139.5225  144.2883  152.0486 H   0  0  0  0  0  0  0  0  0  0  0  0  # atno 10167 bound_to 10162
  157.5898  131.1065  150.8020 H   0  0  0  0  0  0  0  0  0  0  0  0  # atno 10718 bound_to 10713
  154.7712  135.4871  153.9653 H   0  0  0  0  0  0  0  0  0  0  0  0  # atno 10763 bound_to 10752
  153.1371  135.6765  153.9094 H   0  0  0  0  0  0  0  0  0  0  0  0  # atno 10764 bound_to 10752
  153.8779  135.3135  155.3423 H   0  0  0  0  0  0  0  0  0  0  0  0  # atno 10765 bound_to 10752
  140.5747  134.5202  157.5168 H   0  0  0  0  0  0  0  0  0  0  0  0  # atno 11005 bound_to 11000
  144.7617  139.6942  143.7232 LP  0  0  0  0  0  0  0  0  0  0  0  0  # atno 17320 bound_to 7965
  146.2032  139.5340  142.9729 LP  0  0  0  0  0  0  0  0  0  0  0  0  # atno 17321 bound_to 7965
  140.2335  144.4343  150.6290 LP  0  0  0  0  0  0  0  0  0  0  0  0  # atno 17342 bound_to 10162
  140.6339  143.2191  151.6437 LP  0  0  0  0  0  0  0  0  0  0  0  0  # atno 17343 bound_to 10162
  156.8445  130.5059  149.5318 LP  0  0  0  0  0  0  0  0  0  0  0  0  # atno 17370 bound_to 10713
  156.0952  130.5926  150.9801 LP  0  0  0  0  0  0  0  0  0  0  0  0  # atno 17371 bound_to 10713
  139.9345  134.7901  156.0840 LP  0  0  0  0  0  0  0  0  0  0  0  0  # atno 17394 bound_to 11000
  141.1034  133.6669  156.2807 LP  0  0  0  0  0  0  0  0  0  0  0  0  # atno 17395 bound_to 11000

$$$$
