AV-unprocessed.smi:1029|AV-procd|sdf|4477|dock6
  -GOLD-   22720 2453D 1   1.00000     0.00000
 Structure written by MMmdl.
 46 47  0  0  0  0  0  0  0  0  2 V2000
  146.8519  133.7007  161.2425 C   0  0  0  0  0  0  0  0  0  0  0  0
  147.2822  135.0557  160.7641 C   0  0  0  0  0  0  0  0  0  0  0  0
  148.0543  135.3821  159.6146 C   0  0  0  0  0  0  0  0  0  0  0  0
  148.1353  136.7475  159.6820 C   0  0  0  0  0  0  0  0  0  0  0  0
  148.7691  137.5990  158.8342 N   0  0  0  0  0  0  0  0  0  0  0  0
  150.0221  137.5320  158.3509 C   0  0  0  0  0  0  0  0  0  0  0  0
  150.8364  136.6409  158.5935 O   0  0  0  0  0  0  0  0  0  0  0  0
  150.2881  138.5732  157.5493 N   0  0  0  0  0  0  0  0  0  0  0  0
  151.5553  138.7998  156.8624 C   0  0  0  0  0  0  0  0  0  0  0  0
  151.6050  140.1839  156.1833 C   0  0  1  0  0  0  0  0  0  0  0  0
  151.0163  140.0784  154.9014 O   0  0  0  0  0  0  0  0  0  0  0  0
  150.7961  141.2318  156.9758 C   0  0  0  0  0  0  0  0  0  0  0  0
  151.6612  142.2322  157.6538 N   0  3  2  0  0  0  0  0  0  0  0  0
  152.0584  141.8338  159.0306 C   0  0  0  0  0  0  0  0  0  0  0  0
  153.0553  142.8386  159.6359 C   0  0  0  0  0  0  0  0  0  0  0  0
  152.5120  144.2789  159.6246 C   0  0  2  0  0  0  0  0  0  0  0  0
  151.4204  144.5132  160.6837 C   0  0  0  0  0  0  0  0  0  0  0  0
  152.0474  144.6380  158.2019 C   0  0  0  0  0  0  0  0  0  0  0  0
  151.0716  143.5955  157.6270 C   0  0  0  0  0  0  0  0  0  0  0  0
  147.4814  137.2254  160.7685 O   0  0  0  0  0  0  0  0  0  0  0  0
  146.9364  136.1330  161.4534 N   0  0  0  0  0  0  0  0  0  0  0  0
  147.1675  132.9204  160.5497 H   0  0  0  0  0  0  0  0  0  0  0  0
  145.7672  133.6424  161.3357 H   0  0  0  0  0  0  0  0  0  0  0  0
  147.2842  133.4733  162.2172 H   0  0  0  0  0  0  0  0  0  0  0  0
  148.4707  134.7111  158.8787 H   0  0  0  0  0  0  0  0  0  0  0  0
  148.2159  138.3856  158.5273 H   0  0  0  0  0  0  0  0  0  0  0  0
  149.5603  139.2570  157.4007 H   0  0  0  0  0  0  0  0  0  0  0  0
  152.4080  138.6465  157.5271 H   0  0  0  0  0  0  0  0  0  0  0  0
  151.6250  138.0216  156.1019 H   0  0  0  0  0  0  0  0  0  0  0  0
  152.6418  140.5028  156.0791 H   0  0  0  0  0  0  0  0  0  0  0  0
  150.0806  140.1834  154.9869 H   0  0  0  0  0  0  0  0  0  0  0  0
  150.1183  141.7368  156.2855 H   0  0  0  0  0  0  0  0  0  0  0  0
  150.1622  140.7467  157.7198 H   0  0  0  0  0  0  0  0  0  0  0  0
  151.1711  141.7514  159.6596 H   0  0  0  0  0  0  0  0  0  0  0  0
  152.5230  140.8489  159.0205 H   0  0  0  0  0  0  0  0  0  0  0  0
  153.3164  142.5412  160.6522 H   0  0  0  0  0  0  0  0  0  0  0  0
  153.9835  142.8028  159.0638 H   0  0  0  0  0  0  0  0  0  0  0  0
  153.3374  144.9447  159.8805 H   0  0  0  0  0  0  0  0  0  0  0  0
  150.5420  143.8907  160.5161 H   0  0  0  0  0  0  0  0  0  0  0  0
  151.0919  145.5529  160.6809 H   0  0  0  0  0  0  0  0  0  0  0  0
  151.7939  144.2925  161.6840 H   0  0  0  0  0  0  0  0  0  0  0  0
  151.5879  145.6271  158.1926 H   0  0  0  0  0  0  0  0  0  0  0  0
  152.9183  144.7048  157.5486 H   0  0  0  0  0  0  0  0  0  0  0  0
  150.8298  143.8697  156.5994 H   0  0  0  0  0  0  0  0  0  0  0  0
  150.1325  143.6004  158.1819 H   0  0  0  0  0  0  0  0  0  0  0  0
  152.5090  142.2838  157.1065 H   0  0  0  0  0  0  0  0  0  0  0  0
  1  2  1  0  0  0  0
  1 22  1  0  0  0  0
  1 23  1  0  0  0  0
  1 24  1  0  0  0  0
  2 21  2  0  0  0  0
  2  3  1  0  0  0  0
  3  4  2  0  0  0  0
  3 25  1  0  0  0  0
  4  5  1  0  0  0  0
  4 20  1  0  0  0  0
  5  6  1  0  0  0  0
  5 26  1  0  0  0  0
  6  7  2  0  0  0  0
  6  8  1  0  0  0  0
  8  9  1  0  0  0  0
  8 27  1  0  0  0  0
  9 10  1  0  0  0  0
  9 28  1  0  0  0  0
  9 29  1  0  0  0  0
 10 11  1  0  0  0  0
 10 12  1  0  0  0  0
 10 30  1  0  0  0  0
 11 31  1  0  0  0  0
 12 13  1  0  0  0  0
 12 32  1  0  0  0  0
 12 33  1  0  0  0  0
 13 19  1  0  0  0  0
 13 14  1  0  0  0  0
 13 46  1  0  0  0  0
 14 15  1  0  0  0  0
 14 34  1  0  0  0  0
 14 35  1  0  0  0  0
 15 16  1  0  0  0  0
 15 36  1  0  0  0  0
 15 37  1  0  0  0  0
 16 17  1  0  0  0  0
 16 18  1  0  0  0  0
 16 38  1  0  0  0  0
 17 39  1  0  0  0  0
 17 40  1  0  0  0  0
 17 41  1  0  0  0  0
 18 19  1  0  0  0  0
 18 42  1  0  0  0  0
 18 43  1  0  0  0  0
 19 44  1  0  0  0  0
 19 45  1  0  0  0  0
 20 21  1  0  0  0  0
M  CHG  1  13   1
M  END
> <s_m_source_file>
AV-unprocessed.smi

> <i_m_source_file_index>
1029

> <i_lp_mmshare_version>
43012

> <i_f3d_flags>
0

> <s_epik_input>
W0NIM11jMVtjSF1jKG9uMSlbTkhdQyg9TylbTkhdW0NIMl1bQ0BIXShbT0hdKVtDSDJdTjJbQ0gyXVtDSDJdW0NIXShbQ0gzXSlbQ0gyXVtDSDJdMg==

> <s_epik_cmdline>
J2VwaWtfcHl0aG9uJywgJy1waCcsICc3LjAnLCAnLXRuJywgJzgnLCAnLW1hJywgJzIwMCcsICctbWV0YWxfYmluZGluZycsICctaW1hZScsICc8aW5maWxlLm1hZT4nLCAnLW9tYWUnLCAnPG91dGZpbGUubWFlPic=

> <r_lp_tautomer_probability>
1

> <r_epik_Ionization_Penalty>
0.00211787

> <r_epik_Ionization_Penalty_Charging>
0.00153238

> <r_epik_Ionization_Penalty_Neutral>
0.000585488

> <r_epik_State_Penalty>
-0

> <r_epik_Charging_Adjusted_Penalty>
0.00153238

> <i_epik_Tot_Q>
1

> <i_epik_Tot_abs_Q>
1

> <r_epik_Metal_State_Penalty>
-0

> <b_epik_Metal_Only>
0

> <s_lp_Force_Field>
OPLS_2005

> <r_lp_Energy>
22.6481

> <b_lp_Chiralities_Consistent>
1

> <s_lp_Variant>
AV-unprocessed.smi:1029-4

> <Gold.Version>
5.8.1

> <Gold.Id.Protein>
6NUR|6NUR_protein|mol2

> <Gold.PLP.Fitness>
48.8299

> <Gold.PLP.PLP>
-41.3823

> <Gold.PLP.part.hbond>
-4.0000

> <Gold.PLP.part.metal>
0.0000

> <Gold.PLP.part.buried>
-4.7228

> <Gold.PLP.part.nonpolar>
-33.3374

> <Gold.PLP.part.repulsive>
0.3383

> <Gold.PLP.ligand.clash>
0.0000

> <Gold.PLP.ligand.torsion>
1.8998

> <Gold.PLP.Chemscore.Hbond>
3.7360

> <Gold.PLP.Chemscore.CHOScore>
0.0000

> <Gold.PLP.Chemscore.Metal>
0.0000

> <Gold.Chemscore.Hbonds>
donor molecule, donor type, donor heavy atom, donor atom, acceptor molecule, acceptor atom, score
      P1  H  6896  6907       L1     7  0.91
      P1  H  6931  6943       L1    20  0.50
      P1  H  6934  6947       L1    20  1.00
      P1  H  7989  7998       L1    11  1.00

> <Gold.PLP.Chemscore.Internal.Correction>
0.0392

> <Gold.Rescore>
     Score         DG    S(hbond)    S(metal)    S(lipo)     H(rot)  DE(clash)    DE(int)     intcor
     19.46     -21.38       3.06        0.00     102.39       2.46       0.02       1.90       ----

> <Gold.Chemscore.Fitness>
19.4649

> <Gold.Chemscore.DG>
-21.3787

> <Gold.Chemscore.ZeroCoef>
-5.4800

> <Gold.Chemscore.Hbond>
3.0605

> <Gold.Chemscore.Metal>
0.0000

> <Gold.Chemscore.Lipo>
102.3949

> <Gold.Chemscore.Internal_Hbond>
0.0000

> <Gold.Chemscore.DEClash>
0.0177

> <Gold.Chemscore.DEInternal>
1.8961

> <Gold.Chemscore.Rot>
2.4624

> <Gold.Chemscore.Internal.Correction>
   9.000000E+99

> <Gold.Chemscore.Hbonds>
donor molecule, donor type, donor heavy atom, donor atom, acceptor molecule, acceptor atom, score
      P1  H  6896  6907       L1     7  0.83
      P1  H  6931  6943       L1    20  0.19
      P1  H  6934  6947       L1    20  0.94
      P1  H  7989  7998       L1    11  0.81

> <Gold.Chemscore.Hbond.Weighted>
-10.2222

> <Gold.Chemscore.Metal.Weighted>
-0.0000

> <Gold.Chemscore.Lipo.Weighted>
-11.9802

> <Gold.Chemscore.Internal_Hbond.Weighted>
0.0000

> <Gold.Chemscore.DEClash.Weighted>
0.0177

> <Gold.Chemscore.DEInternal.Weighted>
1.8961

> <Gold.Chemscore.Rot.Weighted>
6.3037

> <Gold.Chemscore.Internal.Correction.Weighted>
   9.000000E+99

> <Gold.Protein.RotatedTorsions>
[ 6907 6896 6895 6894 ] final  -35.72 input  -60.11 | X-H torsion
[ 7974 7965 7964 7962 ] final -117.43 input  175.53 | X-H torsion
[ 8008 7997 7996 7995 ] final  -21.24 input   59.86 | X-H torsion
[ 10167 10162 10161 10158 ] final  105.47 input  -65.29 | X-H torsion
[ 10718 10713 10712 10709 ] final   51.21 input   66.30 | X-H torsion
[ 10763 10752 10751 10750 ] final  -87.52 input  -60.55 | X-H torsion
[ 11005 11000 10999 10996 ] final  -95.19 input  -57.11 | X-H torsion

> <Gold.Protein.ActiveResidues>
 VAL166  LYS551  ARG553  GLY616  TRP617  ASP618  TYR619  PRO620  LYS621  CYS622 
 ASP623  PHE694  ASN695  SER759  ASP760  ASP761  ALA762  ILE779  LEU786  VAL792 
 PHE793  MET794  SER795  GLU796  ALA797  LYS798  CYS799  TRP800  GLU811  SER814 

> <Gold.Protein.RotatedAtoms>
  151.0363  134.9575  159.8137 H   0  0  0  0  0  0  0  0  0  0  0  0  # atno 6907 bound_to 6896
  152.5355  134.2715  159.8983 H   0  0  0  0  0  0  0  0  0  0  0  0  # atno 6908 bound_to 6896
  151.2726  133.4205  159.2656 H   0  0  0  0  0  0  0  0  0  0  0  0  # atno 6909 bound_to 6896
  145.0853  140.8453  143.4014 H   0  0  0  0  0  0  0  0  0  0  0  0  # atno 7974 bound_to 7965
  154.4718  140.2040  155.9976 H   0  0  0  0  0  0  0  0  0  0  0  0  # atno 8008 bound_to 7997
  156.1023  140.3242  155.7929 H   0  0  0  0  0  0  0  0  0  0  0  0  # atno 8009 bound_to 7997
  155.4776  140.0536  157.2962 H   0  0  0  0  0  0  0  0  0  0  0  0  # atno 8010 bound_to 7997
  139.7090  144.7081  151.1058 H   0  0  0  0  0  0  0  0  0  0  0  0  # atno 10167 bound_to 10162
  157.4959  130.8406  149.8258 H   0  0  0  0  0  0  0  0  0  0  0  0  # atno 10718 bound_to 10713
  154.6345  135.5410  153.7718 H   0  0  0  0  0  0  0  0  0  0  0  0  # atno 10763 bound_to 10752
  153.0301  135.6444  154.1252 H   0  0  0  0  0  0  0  0  0  0  0  0  # atno 10764 bound_to 10752
  154.1180  135.2922  155.3195 H   0  0  0  0  0  0  0  0  0  0  0  0  # atno 10765 bound_to 10752
  141.1449  133.8008  157.0401 H   0  0  0  0  0  0  0  0  0  0  0  0  # atno 11005 bound_to 11000
  145.1129  139.2744  143.5628 LP  0  0  0  0  0  0  0  0  0  0  0  0  # atno 17320 bound_to 7965
  146.3531  140.0731  142.8622 LP  0  0  0  0  0  0  0  0  0  0  0  0  # atno 17321 bound_to 7965
  140.7729  143.5319  150.9414 LP  0  0  0  0  0  0  0  0  0  0  0  0  # atno 17342 bound_to 10162
  139.9003  143.6844  152.3132 LP  0  0  0  0  0  0  0  0  0  0  0  0  # atno 17343 bound_to 10162
  156.0200  130.3799  150.1990 LP  0  0  0  0  0  0  0  0  0  0  0  0  # atno 17370 bound_to 10713
  157.0180  130.9971  151.3347 LP  0  0  0  0  0  0  0  0  0  0  0  0  # atno 17371 bound_to 10713
  140.0698  134.9708  157.1448 LP  0  0  0  0  0  0  0  0  0  0  0  0  # atno 17394 bound_to 11000
  140.3727  134.2373  155.7176 LP  0  0  0  0  0  0  0  0  0  0  0  0  # atno 17395 bound_to 11000

$$$$
