AV-unprocessed.smi:151|AV-procd|sdf|1245|dock10
  -GOLD-   2262018473D 1   1.00000     0.00000
 Structure written by MMmdl.
 56 59  0  0  0  0  0  0  0  0  1 V2000
  153.4567  138.9454  160.5619 C   0  0  0  0  0  0  0  0  0  0  0  0
  153.0461  139.4942  159.1887 C   0  0  0  0  0  0  0  0  0  0  0  0
  152.1585  140.7656  159.2499 C   0  0  1  0  0  0  0  0  0  0  0  0
  152.6997  141.7702  160.2922 C   0  0  0  0  0  0  0  0  0  0  0  0
  151.9299  142.9697  160.3065 O   0  0  0  0  0  0  0  0  0  0  0  0
  151.8407  143.6534  159.0554 C   0  0  0  0  0  0  0  0  0  0  0  0
  150.8513  144.8060  159.2871 C   0  0  0  0  0  0  0  0  0  0  0  0
  153.2068  144.2329  158.6296 C   0  0  0  0  0  0  0  0  0  0  0  0
  151.2722  142.6754  158.0077 C   0  0  0  0  0  0  0  0  0  0  0  0
  152.0531  141.4433  157.9525 N   0  0  0  0  0  0  0  0  0  0  0  0
  151.6787  140.6619  156.9143 C   0  0  0  0  0  0  0  0  0  0  0  0
  152.5835  139.8438  156.3148 N   0  0  0  0  0  0  0  0  0  0  0  0
  152.2118  139.0909  155.2753 C   0  0  0  0  0  0  0  0  0  0  0  0
  151.0160  139.0111  154.6873 N   0  0  0  0  0  0  0  0  0  0  0  0
  150.1079  139.8352  155.2868 C   0  0  0  0  0  0  0  0  0  0  0  0
  150.3561  140.6848  156.4006 C   0  0  0  0  0  0  0  0  0  0  0  0
  149.2035  141.3792  156.7410 N   0  0  0  0  0  0  0  0  0  0  0  0
  148.3195  140.9644  155.8745 C   0  0  0  0  0  0  0  0  0  0  0  0
  148.7761  140.0390  154.9612 N   0  0  0  0  0  0  0  0  0  0  0  0
  148.0130  139.4307  153.9071 C   0  0  0  0  0  0  0  0  0  0  0  0
  146.5582  139.8312  153.6532 C   0  0  0  0  0  0  0  0  0  0  0  0
  146.1943  138.3637  153.3333 C   0  0  0  0  0  0  0  0  0  0  0  0
  144.9446  137.8344  154.0534 C   0  0  0  0  0  0  0  0  0  0  0  0
  143.7696  138.4491  153.5648 O   0  0  0  0  0  0  0  0  0  0  0  0
  146.0592  137.9828  151.8430 C   0  0  0  0  0  0  0  0  0  0  0  0
  147.1536  138.4156  151.0600 O   0  0  0  0  0  0  0  0  0  0  0  0
  147.5295  137.9818  154.0121 C   0  0  0  0  0  0  0  0  0  0  0  0
  153.9895  138.0004  160.4532 H   0  0  0  0  0  0  0  0  0  0  0  0
  152.5842  138.7623  161.1893 H   0  0  0  0  0  0  0  0  0  0  0  0
  154.1190  139.6293  161.0918 H   0  0  0  0  0  0  0  0  0  0  0  0
  153.9388  139.6950  158.5951 H   0  0  0  0  0  0  0  0  0  0  0  0
  152.5185  138.6905  158.6750 H   0  0  0  0  0  0  0  0  0  0  0  0
  151.1518  140.4713  159.5511 H   0  0  0  0  0  0  0  0  0  0  0  0
  152.6459  141.3449  161.2936 H   0  0  0  0  0  0  0  0  0  0  0  0
  153.7511  141.9947  160.1118 H   0  0  0  0  0  0  0  0  0  0  0  0
  150.6927  145.3826  158.3753 H   0  0  0  0  0  0  0  0  0  0  0  0
  151.2161  145.4907  160.0536 H   0  0  0  0  0  0  0  0  0  0  0  0
  149.8804  144.4339  159.6161 H   0  0  0  0  0  0  0  0  0  0  0  0
  153.1060  144.8495  157.7360 H   0  0  0  0  0  0  0  0  0  0  0  0
  153.9352  143.4566  158.3967 H   0  0  0  0  0  0  0  0  0  0  0  0
  153.6299  144.8588  159.4158 H   0  0  0  0  0  0  0  0  0  0  0  0
  150.2397  142.4297  158.2615 H   0  0  0  0  0  0  0  0  0  0  0  0
  151.2517  143.1502  157.0253 H   0  0  0  0  0  0  0  0  0  0  0  0
  152.9833  138.4655  154.8511 H   0  0  0  0  0  0  0  0  0  0  0  0
  147.3022  141.3284  155.8783 H   0  0  0  0  0  0  0  0  0  0  0  0
  148.5942  139.5595  152.9929 H   0  0  0  0  0  0  0  0  0  0  0  0
  146.0601  140.2047  154.5488 H   0  0  0  0  0  0  0  0  0  0  0  0
  146.4257  140.5237  152.8215 H   0  0  0  0  0  0  0  0  0  0  0  0
  144.8509  136.7537  153.9419 H   0  0  0  0  0  0  0  0  0  0  0  0
  145.0003  138.0305  155.1249 H   0  0  0  0  0  0  0  0  0  0  0  0
  144.0188  139.1537  152.9862 H   0  0  0  0  0  0  0  0  0  0  0  0
  145.9752  136.9016  151.7272 H   0  0  0  0  0  0  0  0  0  0  0  0
  145.1571  138.4139  151.4078 H   0  0  0  0  0  0  0  0  0  0  0  0
  147.9166  137.9172  151.3101 H   0  0  0  0  0  0  0  0  0  0  0  0
  148.1385  137.2692  153.4547 H   0  0  0  0  0  0  0  0  0  0  0  0
  147.4041  137.6502  155.0434 H   0  0  0  0  0  0  0  0  0  0  0  0
  1  2  1  0  0  0  0
  1 28  1  0  0  0  0
  1 29  1  0  0  0  0
  1 30  1  0  0  0  0
  2  3  1  0  0  0  0
  2 31  1  0  0  0  0
  2 32  1  0  0  0  0
  3 10  1  0  0  0  0
  3  4  1  0  0  0  0
  3 33  1  0  0  0  0
  4  5  1  0  0  0  0
  4 34  1  0  0  0  0
  4 35  1  0  0  0  0
  5  6  1  0  0  0  0
  6  7  1  0  0  0  0
  6  8  1  0  0  0  0
  6  9  1  0  0  0  0
  7 36  1  0  0  0  0
  7 37  1  0  0  0  0
  7 38  1  0  0  0  0
  8 39  1  0  0  0  0
  8 40  1  0  0  0  0
  8 41  1  0  0  0  0
  9 10  1  0  0  0  0
  9 42  1  0  0  0  0
  9 43  1  0  0  0  0
 10 11  1  0  0  0  0
 11 16  1  0  0  0  0
 11 12  2  0  0  0  0
 12 13  1  0  0  0  0
 13 14  2  0  0  0  0
 13 44  1  0  0  0  0
 14 15  1  0  0  0  0
 15 19  1  0  0  0  0
 15 16  2  0  0  0  0
 16 17  1  0  0  0  0
 17 18  2  0  0  0  0
 18 19  1  0  0  0  0
 18 45  1  0  0  0  0
 19 20  1  0  0  0  0
 20 27  1  0  0  0  0
 20 21  1  0  0  0  0
 20 46  1  0  0  0  0
 21 22  1  0  0  0  0
 21 47  1  0  0  0  0
 21 48  1  0  0  0  0
 22 23  1  0  0  0  0
 22 25  1  0  0  0  0
 22 27  1  0  0  0  0
 23 24  1  0  0  0  0
 23 49  1  0  0  0  0
 23 50  1  0  0  0  0
 24 51  1  0  0  0  0
 25 26  1  0  0  0  0
 25 52  1  0  0  0  0
 25 53  1  0  0  0  0
 26 54  1  0  0  0  0
 27 55  1  0  0  0  0
 27 56  1  0  0  0  0
M  END
> <s_m_source_file>
AV-unprocessed.smi

> <i_m_source_file_index>
151

> <i_lp_mmshare_version>
43012

> <i_f3d_flags>
0

> <s_epik_input>
W0NIM11DMShbQ0gzXSlPW0NIMl1bQ0BASF0oW0NIMl1bQ0gzXSlOKFtDSDJdMSljKG5bY0hdbjIpYyhjMjMpbltjSF1uM1tDSF0oW0NIMl00KVtDSDJdQzQoW0NIMl1bT0hdKVtDSDJdW09IXQ==

> <s_epik_cmdline>
J2VwaWtfcHl0aG9uJywgJy1waCcsICc3LjAnLCAnLXRuJywgJzgnLCAnLW1hJywgJzIwMCcsICctbWV0YWxfYmluZGluZycsICctaW1hZScsICc8aW5maWxlLm1hZT4nLCAnLW9tYWUnLCAnPG91dGZpbGUubWFlPic=

> <r_lp_tautomer_probability>
1

> <r_epik_Ionization_Penalty>
0.000102837

> <r_epik_Ionization_Penalty_Charging>
0

> <r_epik_Ionization_Penalty_Neutral>
0.000102837

> <r_epik_State_Penalty>
-0

> <r_epik_Charging_Adjusted_Penalty>
0

> <i_epik_Tot_Q>
0

> <i_epik_Tot_abs_Q>
0

> <r_epik_Metal_State_Penalty>
-0

> <b_epik_Metal_Only>
0

> <s_lp_Force_Field>
OPLS_2005

> <r_lp_Energy>
49.3626

> <b_lp_Chiralities_Consistent>
1

> <s_lp_Variant>
AV-unprocessed.smi:151-2

> <Gold.Version>
5.8.1

> <Gold.Id.Protein>
6NUR|6NUR_protein|mol2

> <Gold.PLP.Fitness>
49.4430

> <Gold.PLP.PLP>
-43.0412

> <Gold.PLP.part.hbond>
-5.4682

> <Gold.PLP.part.metal>
0.0000

> <Gold.PLP.part.buried>
-3.4843

> <Gold.PLP.part.nonpolar>
-35.0634

> <Gold.PLP.part.repulsive>
0.2266

> <Gold.PLP.ligand.clash>
1.1768

> <Gold.PLP.ligand.torsion>
1.0365

> <Gold.PLP.Chemscore.Hbond>
3.0439

> <Gold.PLP.Chemscore.CHOScore>
0.0000

> <Gold.PLP.Chemscore.Metal>
0.0000

> <Gold.Chemscore.Hbonds>
donor molecule, donor type, donor heavy atom, donor atom, acceptor molecule, acceptor atom, score
      L1  H    24    51       P1 10175  0.68
      L1  H    26    54       P1  7948  1.00
      P1  H  7989  7998       L1    14  0.03
      P1  H  7997  8010       L1    12  1.00

> <Gold.PLP.Chemscore.Internal.Correction>
0.5198

> <Gold.Rescore>
     Score         DG    S(hbond)    S(metal)    S(lipo)     H(rot)  DE(clash)    DE(int)     intcor
     14.71     -19.53       2.93        0.00     107.80       3.26       1.24       3.58       ----

> <Gold.Chemscore.Fitness>
14.7132

> <Gold.Chemscore.DG>
-19.5275

> <Gold.Chemscore.ZeroCoef>
-5.4800

> <Gold.Chemscore.Hbond>
2.9280

> <Gold.Chemscore.Metal>
0.0000

> <Gold.Chemscore.Lipo>
107.8023

> <Gold.Chemscore.Internal_Hbond>
0.0000

> <Gold.Chemscore.DEClash>
1.2391

> <Gold.Chemscore.DEInternal>
3.5752

> <Gold.Chemscore.Rot>
3.2596

> <Gold.Chemscore.Internal.Correction>
   9.000000E+99

> <Gold.Chemscore.Hbonds>
donor molecule, donor type, donor heavy atom, donor atom, acceptor molecule, acceptor atom, score
      L1  H    24    51       P1 10175  0.66
      L1  H    26    54       P1  7948  0.94
      P1  H  7997  8010       L1    12  0.65

> <Gold.Chemscore.Hbond.Weighted>
-9.7794

> <Gold.Chemscore.Metal.Weighted>
-0.0000

> <Gold.Chemscore.Lipo.Weighted>
-12.6129

> <Gold.Chemscore.Internal_Hbond.Weighted>
0.0000

> <Gold.Chemscore.DEClash.Weighted>
1.2391

> <Gold.Chemscore.DEInternal.Weighted>
3.5752

> <Gold.Chemscore.Rot.Weighted>
8.3447

> <Gold.Chemscore.Internal.Correction.Weighted>
   9.000000E+99

> <Gold.Protein.RotatedTorsions>
[ 6907 6896 6895 6894 ] final    9.08 input  -60.11 | X-H torsion
[ 7974 7965 7964 7962 ] final   44.00 input  175.53 | X-H torsion
[ 8008 7997 7996 7995 ] final   87.93 input   59.86 | X-H torsion
[ 10167 10162 10161 10158 ] final  -63.04 input  -65.29 | X-H torsion
[ 10718 10713 10712 10709 ] final -175.78 input   66.30 | X-H torsion
[ 10763 10752 10751 10750 ] final  122.94 input  -60.55 | X-H torsion
[ 11005 11000 10999 10996 ] final -114.60 input  -57.11 | X-H torsion

> <Gold.Protein.ActiveResidues>
 VAL166  LYS551  ARG553  GLY616  TRP617  ASP618  TYR619  PRO620  LYS621  CYS622 
 ASP623  PHE694  ASN695  SER759  ASP760  ASP761  ALA762  ILE779  LEU786  VAL792 
 PHE793  MET794  SER795  GLU796  ALA797  LYS798  CYS799  TRP800  GLU811  SER814 

> <Gold.Protein.RotatedAtoms>
  151.7164  135.0903  160.0276 H   0  0  0  0  0  0  0  0  0  0  0  0  # atno 6907 bound_to 6896
  152.3629  133.6316  159.6037 H   0  0  0  0  0  0  0  0  0  0  0  0  # atno 6908 bound_to 6896
  150.7617  133.9310  159.3468 H   0  0  0  0  0  0  0  0  0  0  0  0  # atno 6909 bound_to 6896
  146.0606  139.5123  142.9660 H   0  0  0  0  0  0  0  0  0  0  0  0  # atno 7974 bound_to 7965
  155.9815  140.3377  155.6667 H   0  0  0  0  0  0  0  0  0  0  0  0  # atno 8008 bound_to 7997
  155.6542  140.0709  157.2594 H   0  0  0  0  0  0  0  0  0  0  0  0  # atno 8009 bound_to 7997
  154.4193  140.1720  156.1695 H   0  0  0  0  0  0  0  0  0  0  0  0  # atno 8010 bound_to 7997
  140.5898  143.2340  151.6163 H   0  0  0  0  0  0  0  0  0  0  0  0  # atno 10167 bound_to 10162
  156.8050  130.9565  151.3117 H   0  0  0  0  0  0  0  0  0  0  0  0  # atno 10718 bound_to 10713
  153.6377  135.3385  155.3061 H   0  0  0  0  0  0  0  0  0  0  0  0  # atno 10763 bound_to 10752
  154.8566  135.4311  154.2038 H   0  0  0  0  0  0  0  0  0  0  0  0  # atno 10764 bound_to 10752
  153.2949  135.7020  153.7331 H   0  0  0  0  0  0  0  0  0  0  0  0  # atno 10765 bound_to 10752
  141.0542  133.9640  157.2784 H   0  0  0  0  0  0  0  0  0  0  0  0  # atno 11005 bound_to 11000
  145.6566  141.0250  143.1731 LP  0  0  0  0  0  0  0  0  0  0  0  0  # atno 17320 bound_to 7965
  144.7173  139.8152  143.7394 LP  0  0  0  0  0  0  0  0  0  0  0  0  # atno 17321 bound_to 7965
  139.5220  144.3175  152.0940 LP  0  0  0  0  0  0  0  0  0  0  0  0  # atno 17342 bound_to 10162
  140.2337  144.4341  150.6289 LP  0  0  0  0  0  0  0  0  0  0  0  0  # atno 17343 bound_to 10162
  157.6535  130.8904  149.9681 LP  0  0  0  0  0  0  0  0  0  0  0  0  # atno 17370 bound_to 10713
  156.1079  130.3651  150.0102 LP  0  0  0  0  0  0  0  0  0  0  0  0  # atno 17371 bound_to 10713
  139.9375  135.0195  156.8604 LP  0  0  0  0  0  0  0  0  0  0  0  0  # atno 17394 bound_to 11000
  140.5997  134.0183  155.7532 LP  0  0  0  0  0  0  0  0  0  0  0  0  # atno 17395 bound_to 11000

$$$$
