AV-unprocessed.smi:662|AV-procd|sdf|3245|dock2
  -GOLD-   22720 0193D 1   1.00000     0.00000
 Structure written by MMmdl.
 33 34  0  0  0  0  0  0  0  0  1 V2000
  150.5349  140.9642  158.0513 O   0  0  0  0  0  0  0  0  0  0  0  0
  150.3469  142.0120  157.4316 C   0  0  0  0  0  0  0  0  0  0  0  0
  149.2787  142.2199  156.6468 N   0  0  0  0  0  0  0  0  0  0  0  0
  148.2134  141.2532  156.4088 C   0  0  0  0  0  0  0  0  0  0  0  0
  147.4344  140.9383  157.6964 C   0  0  0  0  0  0  0  0  0  0  0  0
  146.6270  142.0986  158.1719 C   0  0  0  0  0  0  0  0  0  0  0  0
  146.5635  142.4788  159.4506 N   0  0  0  0  0  0  0  0  0  0  0  0
  145.7159  143.5743  159.6488 C   0  0  0  0  0  0  0  0  0  0  0  0
  145.5419  144.1429  161.0273 C   0  0  0  0  0  0  0  0  0  0  0  0
  144.2611  144.1496  161.3976 F   0  0  0  0  0  0  0  0  0  0  0  0
  146.2167  143.4314  161.9300 F   0  0  0  0  0  0  0  0  0  0  0  0
  145.9838  145.3986  161.0871 F   0  0  0  0  0  0  0  0  0  0  0  0
  145.1231  144.0105  158.4887 C   0  0  0  0  0  0  0  0  0  0  0  0
  145.6077  143.0620  157.1102 S   0  0  0  0  0  0  0  0  0  0  0  0
  151.3557  143.1628  157.5280 C   0  0  2  0  0  0  0  0  0  0  0  0
  152.4305  142.9213  158.6005 C   0  0  0  0  0  0  0  0  0  0  0  0
  152.4425  144.2105  159.4129 C   0  0  0  0  0  0  0  0  0  0  0  0
  151.7416  145.2230  158.5096 C   0  0  0  0  0  0  0  0  0  0  0  0
  150.7053  144.4363  157.8625 N   0  0  0  0  0  0  0  0  0  0  0  0
  149.2009  143.1104  156.1776 H   0  0  0  0  0  0  0  0  0  0  0  0
  147.5399  141.6247  155.6343 H   0  0  0  0  0  0  0  0  0  0  0  0
  148.6656  140.3420  156.0160 H   0  0  0  0  0  0  0  0  0  0  0  0
  146.7680  140.0898  157.5346 H   0  0  0  0  0  0  0  0  0  0  0  0
  148.1184  140.6488  158.4948 H   0  0  0  0  0  0  0  0  0  0  0  0
  144.4308  144.8297  158.3624 H   0  0  0  0  0  0  0  0  0  0  0  0
  151.8531  143.2890  156.5643 H   0  0  0  0  0  0  0  0  0  0  0  0
  152.2253  142.0611  159.2403 H   0  0  0  0  0  0  0  0  0  0  0  0
  153.3994  142.7536  158.1286 H   0  0  0  0  0  0  0  0  0  0  0  0
  151.8684  144.0752  160.3307 H   0  0  0  0  0  0  0  0  0  0  0  0
  153.4494  144.5224  159.6916 H   0  0  0  0  0  0  0  0  0  0  0  0
  151.3234  146.0649  159.0617 H   0  0  0  0  0  0  0  0  0  0  0  0
  152.4291  145.6115  157.7565 H   0  0  0  0  0  0  0  0  0  0  0  0
  150.3242  144.9087  157.0553 H   0  0  0  0  0  0  0  0  0  0  0  0
  1  2  2  0  0  0  0
  2  3  1  0  0  0  0
  2 15  1  0  0  0  0
  3  4  1  0  0  0  0
  3 20  1  0  0  0  0
  4  5  1  0  0  0  0
  4 21  1  0  0  0  0
  4 22  1  0  0  0  0
  5  6  1  0  0  0  0
  5 23  1  0  0  0  0
  5 24  1  0  0  0  0
  6 14  1  0  0  0  0
  6  7  2  0  0  0  0
  7  8  1  0  0  0  0
  8  9  1  0  0  0  0
  8 13  2  0  0  0  0
  9 10  1  0  0  0  0
  9 11  1  0  0  0  0
  9 12  1  0  0  0  0
 13 14  1  0  0  0  0
 13 25  1  0  0  0  0
 15 19  1  0  0  0  0
 15 16  1  0  0  0  0
 15 26  1  0  0  0  0
 16 17  1  0  0  0  0
 16 27  1  0  0  0  0
 16 28  1  0  0  0  0
 17 18  1  0  0  0  0
 17 29  1  0  0  0  0
 17 30  1  0  0  0  0
 18 19  1  0  0  0  0
 18 31  1  0  0  0  0
 18 32  1  0  0  0  0
 19 33  1  0  0  0  0
M  END
> <s_m_source_file>
AV-unprocessed.smi

> <i_m_source_file_index>
662

> <i_lp_mmshare_version>
43012

> <i_f3d_flags>
0

> <s_epik_input>
W05IXTFbQ0gyXVtDSDJdW0NIMl1bQ0BIXTFDKD1PKVtOSF1bQ0gyXVtDSDJdYzJuYyhDKEYpKEYpRilbY0hdczI=

> <s_epik_cmdline>
J2VwaWtfcHl0aG9uJywgJy1waCcsICc3LjAnLCAnLXRuJywgJzgnLCAnLW1hJywgJzIwMCcsICctbWV0YWxfYmluZGluZycsICctaW1hZScsICc8aW5maWxlLm1hZT4nLCAnLW9tYWUnLCAnPG91dGZpbGUubWFlPic=

> <r_epik_Ionization_Penalty>
1.64272

> <r_epik_Ionization_Penalty_Charging>
0

> <r_epik_Ionization_Penalty_Neutral>
1.64272

> <r_epik_State_Penalty>
1.74416

> <r_epik_Charging_Adjusted_Penalty>
1.74416

> <i_epik_Tot_Q>
0

> <i_epik_Tot_abs_Q>
0

> <r_epik_Metal_State_Penalty>
1.74416

> <b_epik_Metal_Only>
0

> <s_lp_Force_Field>
OPLS_2005

> <r_lp_Energy>
16.594

> <b_lp_Chiralities_Consistent>
1

> <s_lp_Variant>
AV-unprocessed.smi:662-3

> <Gold.Version>
5.8.1

> <Gold.Id.Protein>
6NUR|6NUR_protein|mol2

> <Gold.PLP.Fitness>
42.1643

> <Gold.PLP.PLP>
-34.3634

> <Gold.PLP.part.hbond>
-3.1787

> <Gold.PLP.part.metal>
0.0000

> <Gold.PLP.part.buried>
-5.3650

> <Gold.PLP.part.nonpolar>
-26.6779

> <Gold.PLP.part.repulsive>
0.0704

> <Gold.PLP.ligand.clash>
0.0000

> <Gold.PLP.ligand.torsion>
0.3904

> <Gold.PLP.Chemscore.Hbond>
2.8480

> <Gold.PLP.Chemscore.CHOScore>
0.0000

> <Gold.PLP.Chemscore.Metal>
0.0000

> <Gold.Chemscore.Hbonds>
donor molecule, donor type, donor heavy atom, donor atom, acceptor molecule, acceptor atom, score
      L1  H     3    20       P1  8028  1.00
      L1  H    19    33       P1  8028  0.86
      P1  H  6934  6946       L1     7  0.88

> <Gold.PLP.Chemscore.Internal.Correction>
0.0377

> <Gold.Rescore>
     Score         DG    S(hbond)    S(metal)    S(lipo)     H(rot)  DE(clash)    DE(int)     intcor
     15.53     -16.06       2.63        0.00      57.18       1.91       0.03       0.51       ----

> <Gold.Chemscore.Fitness>
15.5280

> <Gold.Chemscore.DG>
-16.0625

> <Gold.Chemscore.ZeroCoef>
-5.4800

> <Gold.Chemscore.Hbond>
2.6291

> <Gold.Chemscore.Metal>
0.0000

> <Gold.Chemscore.Lipo>
57.1764

> <Gold.Chemscore.Internal_Hbond>
0.0000

> <Gold.Chemscore.DEClash>
0.0289

> <Gold.Chemscore.DEInternal>
0.5056

> <Gold.Chemscore.Rot>
1.9095

> <Gold.Chemscore.Internal.Correction>
   9.000000E+99

> <Gold.Chemscore.Hbonds>
donor molecule, donor type, donor heavy atom, donor atom, acceptor molecule, acceptor atom, score
      L1  H     3    20       P1  8028  1.00
      L1  H    19    33       P1  8028  0.29
      P1  H  6934  6946       L1     7  0.61

> <Gold.Chemscore.Hbond.Weighted>
-8.7812

> <Gold.Chemscore.Metal.Weighted>
-0.0000

> <Gold.Chemscore.Lipo.Weighted>
-6.6896

> <Gold.Chemscore.Internal_Hbond.Weighted>
0.0000

> <Gold.Chemscore.DEClash.Weighted>
0.0289

> <Gold.Chemscore.DEInternal.Weighted>
0.5056

> <Gold.Chemscore.Rot.Weighted>
4.8883

> <Gold.Chemscore.Internal.Correction.Weighted>
   9.000000E+99

> <Gold.Protein.RotatedTorsions>
[ 6907 6896 6895 6894 ] final  -14.80 input  -60.11 | X-H torsion
[ 7974 7965 7964 7962 ] final  101.67 input  175.53 | X-H torsion
[ 8008 7997 7996 7995 ] final   72.67 input   59.86 | X-H torsion
[ 10167 10162 10161 10158 ] final  121.48 input  -65.29 | X-H torsion
[ 10718 10713 10712 10709 ] final  139.79 input   66.30 | X-H torsion
[ 10763 10752 10751 10750 ] final -163.19 input  -60.55 | X-H torsion
[ 11005 11000 10999 10996 ] final  -26.15 input  -57.11 | X-H torsion

> <Gold.Protein.ActiveResidues>
 VAL166  LYS551  ARG553  GLY616  TRP617  ASP618  TYR619  PRO620  LYS621  CYS622 
 ASP623  PHE694  ASN695  SER759  ASP760  ASP761  ALA762  ILE779  LEU786  VAL792 
 PHE793  MET794  SER795  GLU796  ALA797  LYS798  CYS799  TRP800  GLU811  SER814 

> <Gold.Protein.RotatedAtoms>
  151.3337  135.0848  159.9347 H   0  0  0  0  0  0  0  0  0  0  0  0  # atno 6907 bound_to 6896
  152.5228  133.9516  159.7685 H   0  0  0  0  0  0  0  0  0  0  0  0  # atno 6908 bound_to 6896
  150.9860  133.6144  159.2745 H   0  0  0  0  0  0  0  0  0  0  0  0  # atno 6909 bound_to 6896
  145.3693  139.2401  143.3464 H   0  0  0  0  0  0  0  0  0  0  0  0  # atno 7974 bound_to 7965
  155.7722  140.3484  155.5253 H   0  0  0  0  0  0  0  0  0  0  0  0  # atno 8008 bound_to 7997
  155.8810  140.1002  157.1506 H   0  0  0  0  0  0  0  0  0  0  0  0  # atno 8009 bound_to 7997
  154.4025  140.1322  156.4184 H   0  0  0  0  0  0  0  0  0  0  0  0  # atno 8010 bound_to 7997
  139.5917  144.7027  151.3274 H   0  0  0  0  0  0  0  0  0  0  0  0  # atno 10167 bound_to 10162
  157.4105  131.1027  151.0459 H   0  0  0  0  0  0  0  0  0  0  0  0  # atno 10718 bound_to 10713
  154.7146  135.3013  154.9144 H   0  0  0  0  0  0  0  0  0  0  0  0  # atno 10763 bound_to 10752
  154.0035  135.6704  153.4765 H   0  0  0  0  0  0  0  0  0  0  0  0  # atno 10764 bound_to 10752
  153.0782  135.5023  154.8364 H   0  0  0  0  0  0  0  0  0  0  0  0  # atno 10765 bound_to 10752
  140.9003  133.7529  156.0535 H   0  0  0  0  0  0  0  0  0  0  0  0  # atno 11005 bound_to 11000
  146.2892  140.4341  142.8746 LP  0  0  0  0  0  0  0  0  0  0  0  0  # atno 17320 bound_to 7965
  144.8588  140.7110  143.6120 LP  0  0  0  0  0  0  0  0  0  0  0  0  # atno 17321 bound_to 7965
  140.7179  143.7217  150.7690 LP  0  0  0  0  0  0  0  0  0  0  0  0  # atno 17342 bound_to 10162
  140.0774  143.5001  152.2548 LP  0  0  0  0  0  0  0  0  0  0  0  0  # atno 17343 bound_to 10162
  157.1425  130.6149  149.5559 LP  0  0  0  0  0  0  0  0  0  0  0  0  # atno 17370 bound_to 10713
  155.9849  130.4876  150.7006 LP  0  0  0  0  0  0  0  0  0  0  0  0  # atno 17371 bound_to 10713
  140.8238  134.3258  157.5372 LP  0  0  0  0  0  0  0  0  0  0  0  0  # atno 17394 bound_to 11000
  139.8741  134.9324  156.3554 LP  0  0  0  0  0  0  0  0  0  0  0  0  # atno 17395 bound_to 11000

$$$$
