AV-unprocessed.smi:1033|AV-procd|sdf|4496|dock3
  -GOLD-   22720 2483D 1   1.00000     0.00000
 Structure written by MMmdl.
 56 58  0  0  0  0  0  0  0  0  2 V2000
  152.9481  143.2173  161.6348 C   0  0  0  0  0  0  0  0  0  0  0  0
  152.3182  142.7666  160.3288 C   0  0  0  0  0  0  0  0  0  0  0  0
  152.3128  141.3906  160.0068 C   0  0  0  0  0  0  0  0  0  0  0  0
  151.7418  140.9312  158.7998 C   0  0  0  0  0  0  0  0  0  0  0  0
  151.6301  139.6494  158.2899 N   0  0  0  0  0  0  0  0  0  0  0  0
  151.0098  139.8739  157.1353 C   0  0  0  0  0  0  0  0  0  0  0  0
  150.7123  141.1522  156.8315 N   0  0  0  0  0  0  0  0  0  0  0  0
  150.0483  141.6379  155.6319 C   0  0  0  0  0  0  0  0  0  0  0  0
  149.6904  140.5231  154.6219 C   0  0  2  0  0  0  0  0  0  0  0  0
  149.6426  141.0736  153.3213 O   0  0  0  0  0  0  0  0  0  0  0  0
  148.3334  139.8318  154.8792 C   0  0  0  0  0  0  0  0  0  0  0  0
  147.1774  140.4445  154.2155 N   0  0  0  0  0  0  0  0  0  0  0  0
  146.8663  139.8204  152.9303 C   0  0  0  0  0  0  0  0  0  0  0  0
  146.2460  138.4147  153.0697 C   0  0  0  0  0  0  0  0  0  0  0  0
  145.0174  138.4731  153.9067 N   0  3  0  0  0  0  0  0  0  0  0  0
  144.3240  137.1667  154.0453 C   0  0  0  0  0  0  0  0  0  0  0  0
  143.3231  136.8988  152.9037 C   0  0  1  0  0  0  0  0  0  0  0  0
  142.5771  135.5713  153.0918 C   0  0  0  0  0  0  0  0  0  0  0  0
  142.3666  137.9390  152.8672 O   0  0  0  0  0  0  0  0  0  0  0  0
  145.3094  139.1013  155.2213 C   0  0  0  0  0  0  0  0  0  0  0  0
  145.9563  140.4864  155.0223 C   0  0  0  0  0  0  0  0  0  0  0  0
  151.1706  141.8932  157.9165 C   0  0  0  0  0  0  0  0  0  0  0  0
  151.1621  143.2637  158.2309 C   0  0  0  0  0  0  0  0  0  0  0  0
  151.7406  143.7065  159.4382 C   0  0  0  0  0  0  0  0  0  0  0  0
  151.7352  145.1901  159.7602 C   0  0  0  0  0  0  0  0  0  0  0  0
  153.3466  142.3725  162.1970 H   0  0  0  0  0  0  0  0  0  0  0  0
  152.2107  143.7190  162.2617 H   0  0  0  0  0  0  0  0  0  0  0  0
  153.7694  143.9084  161.4441 H   0  0  0  0  0  0  0  0  0  0  0  0
  152.7505  140.6738  160.6857 H   0  0  0  0  0  0  0  0  0  0  0  0
  150.7631  139.0621  156.4668 H   0  0  0  0  0  0  0  0  0  0  0  0
  149.1513  142.1824  155.9299 H   0  0  0  0  0  0  0  0  0  0  0  0
  150.6995  142.3704  155.1542 H   0  0  0  0  0  0  0  0  0  0  0  0
  150.4913  139.7848  154.6109 H   0  0  0  0  0  0  0  0  0  0  0  0
  149.5817  140.3668  152.6969 H   0  0  0  0  0  0  0  0  0  0  0  0
  148.4142  138.7932  154.5555 H   0  0  0  0  0  0  0  0  0  0  0  0
  148.1626  139.7825  155.9544 H   0  0  0  0  0  0  0  0  0  0  0  0
  146.1716  140.4603  152.3843 H   0  0  0  0  0  0  0  0  0  0  0  0
  147.7660  139.7705  152.3154 H   0  0  0  0  0  0  0  0  0  0  0  0
  146.0086  138.0369  152.0762 H   0  0  0  0  0  0  0  0  0  0  0  0
  146.9624  137.7167  153.5051 H   0  0  0  0  0  0  0  0  0  0  0  0
  145.0681  136.3703  154.0967 H   0  0  0  0  0  0  0  0  0  0  0  0
  143.7837  137.1376  154.9932 H   0  0  0  0  0  0  0  0  0  0  0  0
  143.8337  136.8698  151.9418 H   0  0  0  0  0  0  0  0  0  0  0  0
  143.2721  134.7312  153.1050 H   0  0  0  0  0  0  0  0  0  0  0  0
  141.8697  135.3983  152.2798 H   0  0  0  0  0  0  0  0  0  0  0  0
  142.0187  135.5556  154.0285 H   0  0  0  0  0  0  0  0  0  0  0  0
  142.8043  138.7478  152.6476 H   0  0  0  0  0  0  0  0  0  0  0  0
  144.3814  139.2192  155.7820 H   0  0  0  0  0  0  0  0  0  0  0  0
  145.9532  138.4496  155.8134 H   0  0  0  0  0  0  0  0  0  0  0  0
  146.1504  140.9511  155.9881 H   0  0  0  0  0  0  0  0  0  0  0  0
  145.2339  141.1391  154.5302 H   0  0  0  0  0  0  0  0  0  0  0  0
  150.7191  143.9702  157.5451 H   0  0  0  0  0  0  0  0  0  0  0  0
  151.2536  145.7668  158.9698 H   0  0  0  0  0  0  0  0  0  0  0  0
  152.7547  145.5600  159.8697 H   0  0  0  0  0  0  0  0  0  0  0  0
  151.1952  145.3779  160.6884 H   0  0  0  0  0  0  0  0  0  0  0  0
  144.3713  139.0915  153.4372 H   0  0  0  0  0  0  0  0  0  0  0  0
  1  2  1  0  0  0  0
  1 26  1  0  0  0  0
  1 27  1  0  0  0  0
  1 28  1  0  0  0  0
  2 24  1  0  0  0  0
  2  3  2  0  0  0  0
  3  4  1  0  0  0  0
  3 29  1  0  0  0  0
  4 22  2  0  0  0  0
  4  5  1  0  0  0  0
  5  6  2  0  0  0  0
  6  7  1  0  0  0  0
  6 30  1  0  0  0  0
  7  8  1  0  0  0  0
  7 22  1  0  0  0  0
  8  9  1  0  0  0  0
  8 31  1  0  0  0  0
  8 32  1  0  0  0  0
  9 10  1  0  0  0  0
  9 11  1  0  0  0  0
  9 33  1  0  0  0  0
 10 34  1  0  0  0  0
 11 12  1  0  0  0  0
 11 35  1  0  0  0  0
 11 36  1  0  0  0  0
 12 21  1  0  0  0  0
 12 13  1  0  0  0  0
 13 14  1  0  0  0  0
 13 37  1  0  0  0  0
 13 38  1  0  0  0  0
 14 15  1  0  0  0  0
 14 39  1  0  0  0  0
 14 40  1  0  0  0  0
 15 16  1  0  0  0  0
 15 20  1  0  0  0  0
 15 56  1  0  0  0  0
 16 17  1  0  0  0  0
 16 41  1  0  0  0  0
 16 42  1  0  0  0  0
 17 18  1  0  0  0  0
 17 19  1  0  0  0  0
 17 43  1  0  0  0  0
 18 44  1  0  0  0  0
 18 45  1  0  0  0  0
 18 46  1  0  0  0  0
 19 47  1  0  0  0  0
 20 21  1  0  0  0  0
 20 48  1  0  0  0  0
 20 49  1  0  0  0  0
 21 50  1  0  0  0  0
 21 51  1  0  0  0  0
 22 23  1  0  0  0  0
 23 24  2  0  0  0  0
 23 52  1  0  0  0  0
 24 25  1  0  0  0  0
 25 53  1  0  0  0  0
 25 54  1  0  0  0  0
 25 55  1  0  0  0  0
M  CHG  1  15   1
M  END
> <s_m_source_file>
AV-unprocessed.smi

> <i_m_source_file_index>
1033

> <i_lp_mmshare_version>
43012

> <i_f3d_flags>
0

> <s_epik_input>
W0NIM11jKFtjSF0xKWMoW0NIM10pW2NIXWMoYzEyKW4oW2NIXW4yKVtDSDJdW0NASF0oW09IXSlbQ0gyXU4zW0NIMl1bQ0gyXU4oW0NIMl1bQ0gyXTMpW0NIMl1bQ0BIXShbQ0gzXSlbT0hd

> <s_epik_cmdline>
J2VwaWtfcHl0aG9uJywgJy1waCcsICc3LjAnLCAnLXRuJywgJzgnLCAnLW1hJywgJzIwMCcsICctbWV0YWxfYmluZGluZycsICctaW1hZScsICc8aW5maWxlLm1hZT4nLCAnLW9tYWUnLCAnPG91dGZpbGUubWFlPic=

> <r_epik_Ionization_Penalty>
0.129152

> <r_epik_Ionization_Penalty_Charging>
0.00083231

> <r_epik_Ionization_Penalty_Neutral>
0.128319

> <r_epik_State_Penalty>
0.556973

> <r_epik_Charging_Adjusted_Penalty>
0.557805

> <i_epik_Tot_Q>
1

> <i_epik_Tot_abs_Q>
1

> <r_epik_Metal_State_Penalty>
0.490047

> <b_epik_Metal_Only>
0

> <s_lp_Force_Field>
OPLS_2005

> <r_lp_Energy>
31.9095

> <b_lp_Chiralities_Consistent>
1

> <s_lp_Variant>
AV-unprocessed.smi:1033-7

> <Gold.Version>
5.8.1

> <Gold.Id.Protein>
6NUR|6NUR_protein|mol2

> <Gold.PLP.Fitness>
58.2937

> <Gold.PLP.PLP>
-46.3321

> <Gold.PLP.part.hbond>
-4.2786

> <Gold.PLP.part.metal>
0.0000

> <Gold.PLP.part.buried>
-4.4058

> <Gold.PLP.part.nonpolar>
-38.1101

> <Gold.PLP.part.repulsive>
0.1190

> <Gold.PLP.ligand.clash>
0.0000

> <Gold.PLP.ligand.torsion>
1.5600

> <Gold.PLP.Chemscore.Hbond>
4.9384

> <Gold.PLP.Chemscore.CHOScore>
0.0000

> <Gold.PLP.Chemscore.Metal>
0.0000

> <Gold.Chemscore.Hbonds>
donor molecule, donor type, donor heavy atom, donor atom, acceptor molecule, acceptor atom, score
      L1  H    10    34       P1  7957  0.85
      L1  H    15    56       P1 10175  2.00
      L1  H    19    47       P1 10175  1.00
      P1  H  7989  7998       L1    10  0.01
      P1  H  8011  8017       L1    10  1.00

> <Gold.PLP.Chemscore.Internal.Correction>
0.2664

> <Gold.Rescore>
     Score         DG    S(hbond)    S(metal)    S(lipo)     H(rot)  DE(clash)    DE(int)     intcor
     22.08     -23.42       3.37        0.00     124.09       3.07       0.02       1.32       ----

> <Gold.Chemscore.Fitness>
22.0836

> <Gold.Chemscore.DG>
-23.4176

> <Gold.Chemscore.ZeroCoef>
-5.4800

> <Gold.Chemscore.Hbond>
3.3728

> <Gold.Chemscore.Metal>
0.0000

> <Gold.Chemscore.Lipo>
124.0918

> <Gold.Chemscore.Internal_Hbond>
0.0000

> <Gold.Chemscore.DEClash>
0.0154

> <Gold.Chemscore.DEInternal>
1.3186

> <Gold.Chemscore.Rot>
3.0650

> <Gold.Chemscore.Internal.Correction>
   9.000000E+99

> <Gold.Chemscore.Hbonds>
donor molecule, donor type, donor heavy atom, donor atom, acceptor molecule, acceptor atom, score
      L1  H    10    34       P1  7957  0.82
      L1  H    15    56       P1 10175  1.00
      L1  H    19    47       P1 10175  1.00
      P1  H  8011  8017       L1    10  0.34

> <Gold.Chemscore.Hbond.Weighted>
-11.2653

> <Gold.Chemscore.Metal.Weighted>
-0.0000

> <Gold.Chemscore.Lipo.Weighted>
-14.5187

> <Gold.Chemscore.Internal_Hbond.Weighted>
0.0000

> <Gold.Chemscore.DEClash.Weighted>
0.0154

> <Gold.Chemscore.DEInternal.Weighted>
1.3186

> <Gold.Chemscore.Rot.Weighted>
7.8465

> <Gold.Chemscore.Internal.Correction.Weighted>
   9.000000E+99

> <Gold.Protein.RotatedTorsions>
[ 6907 6896 6895 6894 ] final -107.21 input  -60.11 | X-H torsion
[ 7974 7965 7964 7962 ] final  171.48 input  175.53 | X-H torsion
[ 8008 7997 7996 7995 ] final  157.30 input   59.86 | X-H torsion
[ 10167 10162 10161 10158 ] final -178.89 input  -65.29 | X-H torsion
[ 10718 10713 10712 10709 ] final   56.66 input   66.30 | X-H torsion
[ 10763 10752 10751 10750 ] final  -58.03 input  -60.55 | X-H torsion
[ 11005 11000 10999 10996 ] final   40.62 input  -57.11 | X-H torsion

> <Gold.Protein.ActiveResidues>
 VAL166  LYS551  ARG553  GLY616  TRP617  ASP618  TYR619  PRO620  LYS621  CYS622 
 ASP623  PHE694  ASN695  SER759  ASP760  ASP761  ALA762  ILE779  LEU786  VAL792 
 PHE793  MET794  SER795  GLU796  ALA797  LYS798  CYS799  TRP800  GLU811  SER814 

> <Gold.Protein.RotatedAtoms>
  150.7431  133.9861  159.3591 H   0  0  0  0  0  0  0  0  0  0  0  0  # atno 6907 bound_to 6896
  151.7805  135.0760  160.0382 H   0  0  0  0  0  0  0  0  0  0  0  0  # atno 6908 bound_to 6896
  152.3277  133.5886  159.5824 H   0  0  0  0  0  0  0  0  0  0  0  0  # atno 6909 bound_to 6896
  144.7294  139.9356  143.6426 H   0  0  0  0  0  0  0  0  0  0  0  0  # atno 7974 bound_to 7965
  156.2372  140.1889  156.7088 H   0  0  0  0  0  0  0  0  0  0  0  0  # atno 8008 bound_to 7997
  154.6128  140.0619  156.9543 H   0  0  0  0  0  0  0  0  0  0  0  0  # atno 8009 bound_to 7997
  155.1988  140.3290  155.4349 H   0  0  0  0  0  0  0  0  0  0  0  0  # atno 8010 bound_to 7997
  139.5411  144.2361  152.0897 H   0  0  0  0  0  0  0  0  0  0  0  0  # atno 10167 bound_to 10162
  157.5449  130.8724  149.8876 H   0  0  0  0  0  0  0  0  0  0  0  0  # atno 10718 bound_to 10713
  154.2317  135.6359  153.5177 H   0  0  0  0  0  0  0  0  0  0  0  0  # atno 10763 bound_to 10752
  152.9947  135.5521  154.6005 H   0  0  0  0  0  0  0  0  0  0  0  0  # atno 10764 bound_to 10752
  154.5490  135.2900  155.1000 H   0  0  0  0  0  0  0  0  0  0  0  0  # atno 10765 bound_to 10752
  140.1913  134.3983  155.8145 H   0  0  0  0  0  0  0  0  0  0  0  0  # atno 11005 bound_to 11000
  146.0824  139.3812  143.0456 LP  0  0  0  0  0  0  0  0  0  0  0  0  # atno 17320 bound_to 7965
  145.7822  140.9851  143.1093 LP  0  0  0  0  0  0  0  0  0  0  0  0  # atno 17321 bound_to 7965
  140.1839  144.4817  150.6514 LP  0  0  0  0  0  0  0  0  0  0  0  0  # atno 17342 bound_to 10162
  140.6641  143.2262  151.5785 LP  0  0  0  0  0  0  0  0  0  0  0  0  # atno 17343 bound_to 10162
  156.0527  130.3714  150.1163 LP  0  0  0  0  0  0  0  0  0  0  0  0  # atno 17370 bound_to 10713
  156.9340  130.9723  151.3528 LP  0  0  0  0  0  0  0  0  0  0  0  0  # atno 17371 bound_to 10713
  141.2226  133.7048  156.8100 LP  0  0  0  0  0  0  0  0  0  0  0  0  # atno 17394 bound_to 11000
  140.2157  134.8795  157.3322 LP  0  0  0  0  0  0  0  0  0  0  0  0  # atno 17395 bound_to 11000

$$$$
