AV-unprocessed.smi:1491|AV-procd|sdf|6035|dock10
  -GOLD-   22720 6143D 1   1.00000     0.00000
 Structure written by MMmdl.
 38 39  0  0  0  0  0  0  0  0  1 V2000
  144.6665  136.8189  152.0012 O   0  0  0  0  0  0  0  0  0  0  0  0
  145.8767  136.5980  151.9507 C   0  0  0  0  0  0  0  0  0  0  0  0
  146.8203  137.5339  152.1261 N   0  0  0  0  0  0  0  0  0  0  0  0
  146.5663  138.9344  152.4518 C   0  0  0  0  0  0  0  0  0  0  0  0
  146.7476  139.2149  153.9549 C   0  0  0  0  0  0  0  0  0  0  0  0
  147.9637  139.9523  154.2432 N   0  0  0  0  0  0  0  0  0  0  0  0
  148.0666  141.2837  154.6254 C   0  0  0  0  0  0  0  0  0  0  0  0
  149.4090  141.5452  154.7811 C   0  0  0  0  0  0  0  0  0  0  0  0
  150.1455  140.3954  154.5069 N   0  0  0  0  0  0  0  0  0  0  0  0
  149.2223  139.4946  154.1962 C   0  0  0  0  0  0  0  0  0  0  0  0
  146.4121  135.3897  151.7286 N   0  0  0  0  0  0  0  0  0  0  0  0
  145.6564  134.1570  151.5295 C   0  0  2  0  0  0  0  0  0  0  0  0
  146.5572  133.1005  150.8651 C   0  0  0  0  0  0  0  0  0  0  0  0
  145.7873  131.7976  150.5873 C   0  0  0  0  0  0  0  0  0  0  0  0
  144.5122  132.0391  149.7578 C   0  0  2  0  0  0  0  0  0  0  0  0
  144.8568  132.3973  148.4341 O   0  0  0  0  0  0  0  0  0  0  0  0
  143.6248  133.1296  150.3876 C   0  0  0  0  0  0  0  0  0  0  0  0
  144.4040  134.4257  150.6720 C   0  0  0  0  0  0  0  0  0  0  0  0
  147.7870  137.2508  152.0603 H   0  0  0  0  0  0  0  0  0  0  0  0
  147.2777  139.5364  151.8865 H   0  0  0  0  0  0  0  0  0  0  0  0
  145.5750  139.2465  152.1185 H   0  0  0  0  0  0  0  0  0  0  0  0
  145.8952  139.7721  154.3457 H   0  0  0  0  0  0  0  0  0  0  0  0
  146.7843  138.2742  154.5054 H   0  0  0  0  0  0  0  0  0  0  0  0
  147.2010  141.9186  154.7446 H   0  0  0  0  0  0  0  0  0  0  0  0
  149.8974  142.4651  155.0672 H   0  0  0  0  0  0  0  0  0  0  0  0
  149.4672  138.4783  153.9246 H   0  0  0  0  0  0  0  0  0  0  0  0
  147.4184  135.3124  151.7069 H   0  0  0  0  0  0  0  0  0  0  0  0
  145.3414  133.7667  152.4994 H   0  0  0  0  0  0  0  0  0  0  0  0
  146.9605  133.4914  149.9297 H   0  0  0  0  0  0  0  0  0  0  0  0
  147.4150  132.8872  151.5039 H   0  0  0  0  0  0  0  0  0  0  0  0
  146.4352  131.0786  150.0848 H   0  0  0  0  0  0  0  0  0  0  0  0
  145.5104  131.3427  151.5392 H   0  0  0  0  0  0  0  0  0  0  0  0
  143.9460  131.1091  149.6973 H   0  0  0  0  0  0  0  0  0  0  0  0
  145.1743  133.2873  148.4367 H   0  0  0  0  0  0  0  0  0  0  0  0
  142.7694  133.3404  149.7447 H   0  0  0  0  0  0  0  0  0  0  0  0
  143.2136  132.7537  151.3253 H   0  0  0  0  0  0  0  0  0  0  0  0
  143.7508  135.1391  151.1759 H   0  0  0  0  0  0  0  0  0  0  0  0
  144.6950  134.8898  149.7286 H   0  0  0  0  0  0  0  0  0  0  0  0
  1  2  2  0  0  0  0
  2  3  1  0  0  0  0
  2 11  1  0  0  0  0
  3  4  1  0  0  0  0
  3 19  1  0  0  0  0
  4  5  1  0  0  0  0
  4 20  1  0  0  0  0
  4 21  1  0  0  0  0
  5  6  1  0  0  0  0
  5 22  1  0  0  0  0
  5 23  1  0  0  0  0
  6 10  1  0  0  0  0
  6  7  1  0  0  0  0
  7  8  2  0  0  0  0
  7 24  1  0  0  0  0
  8  9  1  0  0  0  0
  8 25  1  0  0  0  0
  9 10  2  0  0  0  0
 10 26  1  0  0  0  0
 11 12  1  0  0  0  0
 11 27  1  0  0  0  0
 12 18  1  0  0  0  0
 12 13  1  0  0  0  0
 12 28  1  0  0  0  0
 13 14  1  0  0  0  0
 13 29  1  0  0  0  0
 13 30  1  0  0  0  0
 14 15  1  0  0  0  0
 14 31  1  0  0  0  0
 14 32  1  0  0  0  0
 15 16  1  0  0  0  0
 15 17  1  0  0  0  0
 15 33  1  0  0  0  0
 16 34  1  0  0  0  0
 17 18  1  0  0  0  0
 17 35  1  0  0  0  0
 17 36  1  0  0  0  0
 18 37  1  0  0  0  0
 18 38  1  0  0  0  0
M  END
> <s_m_source_file>
AV-unprocessed.smi

> <i_m_source_file_index>
1491

> <i_lp_mmshare_version>
43012

> <i_f3d_flags>
0

> <s_epik_input>
W0NIMl0xW0NIMl1bQ0BIXShbT0hdKVtDSDJdW0NIMl1bQ0BIXTFbTkhdQyg9TylbTkhdW0NIMl1bQ0gyXW4yW2NIXVtjSF1uW2NIXTI=

> <s_epik_cmdline>
J2VwaWtfcHl0aG9uJywgJy1waCcsICc3LjAnLCAnLXRuJywgJzgnLCAnLW1hJywgJzIwMCcsICctbWV0YWxfYmluZGluZycsICctaW1hZScsICc8aW5maWxlLm1hZT4nLCAnLW9tYWUnLCAnPG91dGZpbGUubWFlPic=

> <r_lp_tautomer_probability>
1

> <r_epik_Ionization_Penalty>
0.623245

> <r_epik_Ionization_Penalty_Charging>
0.623187

> <r_epik_Ionization_Penalty_Neutral>
5.75214e-05

> <r_epik_State_Penalty>
0.639392

> <r_epik_Charging_Adjusted_Penalty>
1.26258

> <i_epik_Tot_Q>
0

> <i_epik_Tot_abs_Q>
0

> <r_epik_Metal_State_Penalty>
0.307266

> <b_epik_Metal_Only>
0

> <s_lp_Force_Field>
OPLS_2005

> <r_lp_Energy>
9.71392

> <b_lp_Chiralities_Consistent>
1

> <s_lp_Variant>
AV-unprocessed.smi:1491-4

> <Gold.Version>
5.8.1

> <Gold.Id.Protein>
6NUR|6NUR_protein|mol2

> <Gold.PLP.Fitness>
47.3755

> <Gold.PLP.PLP>
-34.6170

> <Gold.PLP.part.hbond>
-4.9583

> <Gold.PLP.part.metal>
0.0000

> <Gold.PLP.part.buried>
-0.9663

> <Gold.PLP.part.nonpolar>
-30.2369

> <Gold.PLP.part.repulsive>
1.9276

> <Gold.PLP.ligand.clash>
0.0000

> <Gold.PLP.ligand.torsion>
0.8893

> <Gold.PLP.Chemscore.Hbond>
3.8560

> <Gold.PLP.Chemscore.CHOScore>
0.9833

> <Gold.PLP.Chemscore.Metal>
0.0000

> <Gold.Chemscore.Hbonds>
donor molecule, donor type, donor heavy atom, donor atom, acceptor molecule, acceptor atom, score
      L1  H     3    19       P1  7948  1.00
      L1  H    11    27       P1  7948  0.91
      L1  H    16    34       P1  7921  1.00
      P1  H  7989  7998       L1     9  0.96
      L1  C     8    25       P1  8028  0.98

> <Gold.PLP.Chemscore.Internal.Correction>
0.0194

> <Gold.Rescore>
     Score         DG    S(hbond)    S(metal)    S(lipo)     H(rot)  DE(clash)    DE(int)     intcor
     15.25     -18.68       3.43        0.00      71.22       2.57       1.14       2.29       ----

> <Gold.Chemscore.Fitness>
15.2454

> <Gold.Chemscore.DG>
-18.6763

> <Gold.Chemscore.ZeroCoef>
-5.4800

> <Gold.Chemscore.Hbond>
3.4290

> <Gold.Chemscore.Metal>
0.0000

> <Gold.Chemscore.Lipo>
71.2178

> <Gold.Chemscore.Internal_Hbond>
0.0000

> <Gold.Chemscore.DEClash>
1.1422

> <Gold.Chemscore.DEInternal>
2.2887

> <Gold.Chemscore.Rot>
2.5738

> <Gold.Chemscore.Internal.Correction>
   9.000000E+99

> <Gold.Chemscore.Hbonds>
donor molecule, donor type, donor heavy atom, donor atom, acceptor molecule, acceptor atom, score
      L1  H     3    19       P1  7948  0.93
      L1  H    11    27       P1  7948  0.85
      L1  H    16    34       P1  7921  0.38
      P1  H  7989  7998       L1     9  0.60

> <Gold.Chemscore.Hbond.Weighted>
-11.4527

> <Gold.Chemscore.Metal.Weighted>
-0.0000

> <Gold.Chemscore.Lipo.Weighted>
-8.3325

> <Gold.Chemscore.Internal_Hbond.Weighted>
0.0000

> <Gold.Chemscore.DEClash.Weighted>
1.1422

> <Gold.Chemscore.DEInternal.Weighted>
2.2887

> <Gold.Chemscore.Rot.Weighted>
6.5890

> <Gold.Chemscore.Internal.Correction.Weighted>
   9.000000E+99

> <Gold.Protein.RotatedTorsions>
[ 6907 6896 6895 6894 ] final  112.85 input  -60.11 | X-H torsion
[ 7974 7965 7964 7962 ] final   18.20 input  175.53 | X-H torsion
[ 8008 7997 7996 7995 ] final  -66.02 input   59.86 | X-H torsion
[ 10167 10162 10161 10158 ] final  110.50 input  -65.29 | X-H torsion
[ 10718 10713 10712 10709 ] final   65.92 input   66.30 | X-H torsion
[ 10763 10752 10751 10750 ] final  -90.26 input  -60.55 | X-H torsion
[ 11005 11000 10999 10996 ] final   16.70 input  -57.11 | X-H torsion

> <Gold.Protein.ActiveResidues>
 VAL166  LYS551  ARG553  GLY616  TRP617  ASP618  TYR619  PRO620  LYS621  CYS622 
 ASP623  PHE694  ASN695  SER759  ASP760  ASP761  ALA762  ILE779  LEU786  VAL792 
 PHE793  MET794  SER795  GLU796  ALA797  LYS798  CYS799  TRP800  GLU811  SER814 

> <Gold.Protein.RotatedAtoms>
  152.4894  133.8458  159.7175 H   0  0  0  0  0  0  0  0  0  0  0  0  # atno 6907 bound_to 6896
  150.9009  133.7111  159.2886 H   0  0  0  0  0  0  0  0  0  0  0  0  # atno 6908 bound_to 6896
  151.4552  135.1037  159.9761 H   0  0  0  0  0  0  0  0  0  0  0  0  # atno 6909 bound_to 6896
  146.2193  139.8492  142.8626 H   0  0  0  0  0  0  0  0  0  0  0  0  # atno 7974 bound_to 7965
  154.4708  140.0921  156.7139 H   0  0  0  0  0  0  0  0  0  0  0  0  # atno 8008 bound_to 7997
  155.4730  140.3465  155.4310 H   0  0  0  0  0  0  0  0  0  0  0  0  # atno 8009 bound_to 7997
  156.1035  140.1428  156.9424 H   0  0  0  0  0  0  0  0  0  0  0  0  # atno 8010 bound_to 7997
  139.6683  144.7126  151.1735 H   0  0  0  0  0  0  0  0  0  0  0  0  # atno 10167 bound_to 10162
  157.6136  130.9240  150.0040 H   0  0  0  0  0  0  0  0  0  0  0  0  # atno 10718 bound_to 10713
  154.6639  135.5311  153.8052 H   0  0  0  0  0  0  0  0  0  0  0  0  # atno 10763 bound_to 10752
  153.0459  135.6512  154.0829 H   0  0  0  0  0  0  0  0  0  0  0  0  # atno 10764 bound_to 10752
  154.0735  135.2952  155.3283 H   0  0  0  0  0  0  0  0  0  0  0  0  # atno 10765 bound_to 10752
  140.4442  134.1290  155.7694 H   0  0  0  0  0  0  0  0  0  0  0  0  # atno 11005 bound_to 11000
  145.2819  141.0141  143.3712 LP  0  0  0  0  0  0  0  0  0  0  0  0  # atno 17320 bound_to 7965
  144.9143  139.4489  143.6572 LP  0  0  0  0  0  0  0  0  0  0  0  0  # atno 17321 bound_to 7965
  140.7608  143.5884  150.8821 LP  0  0  0  0  0  0  0  0  0  0  0  0  # atno 17342 bound_to 10162
  139.9547  143.6231  152.3019 LP  0  0  0  0  0  0  0  0  0  0  0  0  # atno 17343 bound_to 10162
  156.1249  130.3645  149.9826 LP  0  0  0  0  0  0  0  0  0  0  0  0  # atno 17370 bound_to 10713
  156.7899  130.9252  151.3646 LP  0  0  0  0  0  0  0  0  0  0  0  0  # atno 17371 bound_to 10713
  141.1692  133.8642  157.1622 LP  0  0  0  0  0  0  0  0  0  0  0  0  # atno 17394 bound_to 11000
  140.0049  135.0012  157.0271 LP  0  0  0  0  0  0  0  0  0  0  0  0  # atno 17395 bound_to 11000

$$$$
