AV-unprocessed.smi:1794|AV-procd|sdf|7235|dock2
  -GOLD-   22720 8483D 1   1.00000     0.00000
 Structure written by MMmdl.
 56 58  0  0  0  0  0  0  0  0  3 V2000
  147.1716  136.6555  156.6101 C   0  0  0  0  0  0  0  0  0  0  0  0
  148.6024  136.2283  156.1990 C   0  0  0  0  0  0  0  0  0  0  0  0
  149.4108  135.9437  157.4935 C   0  0  0  0  0  0  0  0  0  0  0  0
  148.5460  134.9071  155.3760 C   0  0  0  0  0  0  0  0  0  0  0  0
  147.3182  134.7630  154.5982 N   0  0  0  0  0  0  0  0  0  0  0  0
  147.2116  134.0322  153.4814 C   0  0  0  0  0  0  0  0  0  0  0  0
  148.1433  133.3873  153.0013 O   0  0  0  0  0  0  0  0  0  0  0  0
  145.9773  134.1184  152.9581 N   0  0  0  0  0  0  0  0  0  0  0  0
  145.4994  133.5492  151.7440 C   0  0  0  0  0  0  0  0  0  0  0  0
  146.2826  132.6255  151.0050 C   0  0  0  0  0  0  0  0  0  0  0  0
  145.7924  132.0979  149.7956 C   0  0  0  0  0  0  0  0  0  0  0  0
  144.5231  132.4980  149.3445 C   0  0  0  0  0  0  0  0  0  0  0  0
  143.7937  133.3620  150.0802 N   0  3  0  0  0  0  0  0  0  0  0  0
  144.2043  133.8933  151.2588 C   0  0  0  0  0  0  0  0  0  0  0  0
  143.3266  134.7780  151.9258 N   0  0  0  0  0  0  0  0  0  0  0  0
  142.4187  134.2838  152.9543 C   0  0  0  0  0  0  0  0  0  0  0  0
  141.9107  135.5349  153.6656 C   0  0  0  0  0  0  0  0  0  0  0  0
  143.1322  136.4486  153.6323 C   0  0  0  0  0  0  0  0  0  0  0  0
  143.8070  136.1045  152.3001 C   0  0  0  0  0  0  0  0  0  0  0  0
  149.2777  137.2965  155.3709 N   0  3  0  0  0  0  0  0  0  0  0  0
  149.1130  138.6935  155.8691 C   0  0  0  0  0  0  0  0  0  0  0  0
  149.6863  139.7056  154.8646 C   0  0  0  0  0  0  0  0  0  0  0  0
  151.0603  139.4252  154.6450 O   0  0  0  0  0  0  0  0  0  0  0  0
  151.2431  138.1368  154.0781 C   0  0  0  0  0  0  0  0  0  0  0  0
  150.7128  137.0582  155.0387 C   0  0  0  0  0  0  0  0  0  0  0  0
  146.7231  135.9372  157.2971 H   0  0  0  0  0  0  0  0  0  0  0  0
  146.5025  136.7261  155.7525 H   0  0  0  0  0  0  0  0  0  0  0  0
  147.1656  137.6198  157.1178 H   0  0  0  0  0  0  0  0  0  0  0  0
  149.0133  135.0968  158.0529 H   0  0  0  0  0  0  0  0  0  0  0  0
  149.3841  136.7823  158.1892 H   0  0  0  0  0  0  0  0  0  0  0  0
  150.4549  135.7203  157.2705 H   0  0  0  0  0  0  0  0  0  0  0  0
  149.3681  134.8469  154.6644 H   0  0  0  0  0  0  0  0  0  0  0  0
  148.6443  134.0479  156.0422 H   0  0  0  0  0  0  0  0  0  0  0  0
  146.5055  135.2639  154.9264 H   0  0  0  0  0  0  0  0  0  0  0  0
  145.3462  134.7597  153.4154 H   0  0  0  0  0  0  0  0  0  0  0  0
  147.2549  132.3087  151.3506 H   0  0  0  0  0  0  0  0  0  0  0  0
  146.3836  131.3986  149.2222 H   0  0  0  0  0  0  0  0  0  0  0  0
  144.0679  132.1503  148.4284 H   0  0  0  0  0  0  0  0  0  0  0  0
  141.6029  133.7042  152.5213 H   0  0  0  0  0  0  0  0  0  0  0  0
  142.9533  133.6509  153.6639 H   0  0  0  0  0  0  0  0  0  0  0  0
  141.0953  135.9837  153.0967 H   0  0  0  0  0  0  0  0  0  0  0  0
  141.5512  135.3353  154.6755 H   0  0  0  0  0  0  0  0  0  0  0  0
  142.8765  137.5052  153.7181 H   0  0  0  0  0  0  0  0  0  0  0  0
  143.7995  136.1966  154.4578 H   0  0  0  0  0  0  0  0  0  0  0  0
  144.8938  136.1397  152.3855 H   0  0  0  0  0  0  0  0  0  0  0  0
  143.5024  136.8182  151.5341 H   0  0  0  0  0  0  0  0  0  0  0  0
  148.0681  138.9448  156.0342 H   0  0  0  0  0  0  0  0  0  0  0  0
  149.6264  138.8161  156.8233 H   0  0  0  0  0  0  0  0  0  0  0  0
  149.1361  139.6796  153.9227 H   0  0  0  0  0  0  0  0  0  0  0  0
  149.5945  140.7178  155.2591 H   0  0  0  0  0  0  0  0  0  0  0  0
  150.7410  138.0772  153.1109 H   0  0  0  0  0  0  0  0  0  0  0  0
  152.3061  137.9824  153.8928 H   0  0  0  0  0  0  0  0  0  0  0  0
  151.3117  137.0481  155.9497 H   0  0  0  0  0  0  0  0  0  0  0  0
  150.8581  136.1001  154.5435 H   0  0  0  0  0  0  0  0  0  0  0  0
  148.8009  137.2698  154.4806 H   0  0  0  0  0  0  0  0  0  0  0  0
  142.8722  133.6253  149.7307 H   0  0  0  0  0  0  0  0  0  0  0  0
  1  2  1  0  0  0  0
  1 26  1  0  0  0  0
  1 27  1  0  0  0  0
  1 28  1  0  0  0  0
  2  3  1  0  0  0  0
  2  4  1  0  0  0  0
  2 20  1  0  0  0  0
  3 29  1  0  0  0  0
  3 30  1  0  0  0  0
  3 31  1  0  0  0  0
  4  5  1  0  0  0  0
  4 32  1  0  0  0  0
  4 33  1  0  0  0  0
  5  6  1  0  0  0  0
  5 34  1  0  0  0  0
  6  7  2  0  0  0  0
  6  8  1  0  0  0  0
  8  9  1  0  0  0  0
  8 35  1  0  0  0  0
  9 14  1  0  0  0  0
  9 10  2  0  0  0  0
 10 11  1  0  0  0  0
 10 36  1  0  0  0  0
 11 12  2  0  0  0  0
 11 37  1  0  0  0  0
 12 13  1  0  0  0  0
 12 38  1  0  0  0  0
 13 14  2  0  0  0  0
 13 56  1  0  0  0  0
 14 15  1  0  0  0  0
 15 19  1  0  0  0  0
 15 16  1  0  0  0  0
 16 17  1  0  0  0  0
 16 39  1  0  0  0  0
 16 40  1  0  0  0  0
 17 18  1  0  0  0  0
 17 41  1  0  0  0  0
 17 42  1  0  0  0  0
 18 19  1  0  0  0  0
 18 43  1  0  0  0  0
 18 44  1  0  0  0  0
 19 45  1  0  0  0  0
 19 46  1  0  0  0  0
 20 25  1  0  0  0  0
 20 21  1  0  0  0  0
 20 55  1  0  0  0  0
 21 22  1  0  0  0  0
 21 47  1  0  0  0  0
 21 48  1  0  0  0  0
 22 23  1  0  0  0  0
 22 49  1  0  0  0  0
 22 50  1  0  0  0  0
 23 24  1  0  0  0  0
 24 25  1  0  0  0  0
 24 51  1  0  0  0  0
 24 52  1  0  0  0  0
 25 53  1  0  0  0  0
 25 54  1  0  0  0  0
M  CHG  1  13   1
M  CHG  1  20   1
M  END
> <s_m_source_file>
AV-unprocessed.smi

> <i_m_source_file_index>
1794

> <i_lp_mmshare_version>
43012

> <i_f3d_flags>
0

> <s_epik_input>
W0NIMl0xW0NIMl1PW0NIMl1bQ0gyXU4xQyhbQ0gzXSkoW0NIM10pW0NIMl1bTkhdQyg9TylbTkhdYzJbY0hdW2NIXVtjSF1uYzJOM1tDSDJdW0NIMl1bQ0gyXVtDSDJdMw==

> <s_epik_cmdline>
J2VwaWtfcHl0aG9uJywgJy1waCcsICc3LjAnLCAnLXRuJywgJzgnLCAnLW1hJywgJzIwMCcsICctbWV0YWxfYmluZGluZycsICctaW1hZScsICc8aW5maWxlLm1hZT4nLCAnLW9tYWUnLCAnPG91dGZpbGUubWFlPic=

> <r_lp_tautomer_probability>
0.999994

> <r_epik_Ionization_Penalty>
1.80144

> <r_epik_Ionization_Penalty_Charging>
1.80142

> <r_epik_Ionization_Penalty_Neutral>
2.02981e-05

> <r_epik_State_Penalty>
1.84115

> <r_epik_Charging_Adjusted_Penalty>
3.64257

> <i_epik_Tot_Q>
2

> <i_epik_Tot_abs_Q>
2

> <r_epik_Metal_State_Penalty>
1.92426

> <b_epik_Metal_Only>
0

> <s_lp_Force_Field>
OPLS_2005

> <r_lp_Energy>
63.0658

> <b_lp_Chiralities_Consistent>
1

> <s_lp_Variant>
AV-unprocessed.smi:1794-4

> <Gold.Version>
5.8.1

> <Gold.Id.Protein>
6NUR|6NUR_protein|mol2

> <Gold.PLP.Fitness>
41.8052

> <Gold.PLP.PLP>
-35.1013

> <Gold.PLP.part.hbond>
-2.0000

> <Gold.PLP.part.metal>
0.0000

> <Gold.PLP.part.buried>
-8.0985

> <Gold.PLP.part.nonpolar>
-25.7309

> <Gold.PLP.part.repulsive>
0.5433

> <Gold.PLP.ligand.clash>
0.0000

> <Gold.PLP.ligand.torsion>
1.3920

> <Gold.PLP.Chemscore.Hbond>
3.0000

> <Gold.PLP.Chemscore.CHOScore>
0.0000

> <Gold.PLP.Chemscore.Metal>
0.0000

> <Gold.Chemscore.Hbonds>
donor molecule, donor type, donor heavy atom, donor atom, acceptor molecule, acceptor atom, score
      L1  H    13    56       P1 10186  1.98
      P1  H  7989  7998       L1    23  1.00

> <Gold.PLP.Chemscore.Internal.Correction>
0.4879

> <Gold.Rescore>
     Score         DG    S(hbond)    S(metal)    S(lipo)     H(rot)  DE(clash)    DE(int)     intcor
     14.63     -16.80       1.89        0.00      78.61       1.64       0.04       2.13       ----

> <Gold.Chemscore.Fitness>
14.6280

> <Gold.Chemscore.DG>
-16.7958

> <Gold.Chemscore.ZeroCoef>
-5.4800

> <Gold.Chemscore.Hbond>
1.8875

> <Gold.Chemscore.Metal>
0.0000

> <Gold.Chemscore.Lipo>
78.6095

> <Gold.Chemscore.Internal_Hbond>
0.0000

> <Gold.Chemscore.DEClash>
0.0400

> <Gold.Chemscore.DEInternal>
2.1277

> <Gold.Chemscore.Rot>
1.6350

> <Gold.Chemscore.Internal.Correction>
   9.000000E+99

> <Gold.Chemscore.Hbonds>
donor molecule, donor type, donor heavy atom, donor atom, acceptor molecule, acceptor atom, score
      L1  H    13    56       P1 10186  0.92
      P1  H  7989  7998       L1    23  0.38

> <Gold.Chemscore.Hbond.Weighted>
-6.3041

> <Gold.Chemscore.Metal.Weighted>
-0.0000

> <Gold.Chemscore.Lipo.Weighted>
-9.1973

> <Gold.Chemscore.Internal_Hbond.Weighted>
0.0000

> <Gold.Chemscore.DEClash.Weighted>
0.0400

> <Gold.Chemscore.DEInternal.Weighted>
2.1277

> <Gold.Chemscore.Rot.Weighted>
4.1856

> <Gold.Chemscore.Internal.Correction.Weighted>
   9.000000E+99

> <Gold.Protein.RotatedTorsions>
[ 6907 6896 6895 6894 ] final   56.39 input  -60.11 | X-H torsion
[ 7974 7965 7964 7962 ] final -177.09 input  175.53 | X-H torsion
[ 8008 7997 7996 7995 ] final  -30.69 input   59.86 | X-H torsion
[ 10167 10162 10161 10158 ] final  -41.56 input  -65.29 | X-H torsion
[ 10718 10713 10712 10709 ] final   51.51 input   66.30 | X-H torsion
[ 10763 10752 10751 10750 ] final   83.87 input  -60.55 | X-H torsion
[ 11005 11000 10999 10996 ] final  127.72 input  -57.11 | X-H torsion

> <Gold.Protein.ActiveResidues>
 VAL166  LYS551  ARG553  GLY616  TRP617  ASP618  TYR619  PRO620  LYS621  CYS622 
 ASP623  PHE694  ASN695  SER759  ASP760  ASP761  ALA762  ILE779  LEU786  VAL792 
 PHE793  MET794  SER795  GLU796  ALA797  LYS798  CYS799  TRP800  GLU811  SER814 

> <Gold.Protein.RotatedAtoms>
  152.3631  134.6843  160.0200 H   0  0  0  0  0  0  0  0  0  0  0  0  # atno 6907 bound_to 6896
  151.7160  133.3308  159.3311 H   0  0  0  0  0  0  0  0  0  0  0  0  # atno 6908 bound_to 6896
  150.7619  134.6425  159.6289 H   0  0  0  0  0  0  0  0  0  0  0  0  # atno 6909 bound_to 6896
  144.7127  140.1072  143.6413 H   0  0  0  0  0  0  0  0  0  0  0  0  # atno 7974 bound_to 7965
  154.4241  140.1784  156.1447 H   0  0  0  0  0  0  0  0  0  0  0  0  # atno 8008 bound_to 7997
  155.9964  140.3364  155.6778 H   0  0  0  0  0  0  0  0  0  0  0  0  # atno 8009 bound_to 7997
  155.6303  140.0669  157.2641 H   0  0  0  0  0  0  0  0  0  0  0  0  # atno 8010 bound_to 7997
  140.6998  143.3088  151.3084 H   0  0  0  0  0  0  0  0  0  0  0  0  # atno 10167 bound_to 10162
  157.4988  130.8424  149.8291 H   0  0  0  0  0  0  0  0  0  0  0  0  # atno 10718 bound_to 10713
  153.1330  135.4675  154.9378 H   0  0  0  0  0  0  0  0  0  0  0  0  # atno 10763 bound_to 10752
  154.7681  135.3150  154.8248 H   0  0  0  0  0  0  0  0  0  0  0  0  # atno 10764 bound_to 10752
  153.8786  135.6896  153.4822 H   0  0  0  0  0  0  0  0  0  0  0  0  # atno 10765 bound_to 10752
  139.9522  134.9620  156.8896 H   0  0  0  0  0  0  0  0  0  0  0  0  # atno 11005 bound_to 11000
  145.9486  139.2718  143.1225 LP  0  0  0  0  0  0  0  0  0  0  0  0  # atno 17320 bound_to 7965
  145.9347  140.9023  143.0338 LP  0  0  0  0  0  0  0  0  0  0  0  0  # atno 17321 bound_to 7965
  139.6503  144.0375  152.2621 LP  0  0  0  0  0  0  0  0  0  0  0  0  # atno 17342 bound_to 10162
  139.9909  144.6362  150.7815 LP  0  0  0  0  0  0  0  0  0  0  0  0  # atno 17343 bound_to 10162
  156.0216  130.3793  150.1944 LP  0  0  0  0  0  0  0  0  0  0  0  0  # atno 17370 bound_to 10713
  157.0134  130.9957  151.3360 LP  0  0  0  0  0  0  0  0  0  0  0  0  # atno 17371 bound_to 10713
  140.5692  134.0460  155.7424 LP  0  0  0  0  0  0  0  0  0  0  0  0  # atno 17394 bound_to 11000
  141.1187  133.9497  157.2772 LP  0  0  0  0  0  0  0  0  0  0  0  0  # atno 17395 bound_to 11000

$$$$
