AV-unprocessed.smi:1178|AV-procd|sdf|4957|dock5
  -GOLD-   22720 3553D 1   1.00000     0.00000
 Structure written by MMmdl.
 32 33  0  0  0  0  0  0  0  0  2 V2000
  149.6232  140.8361  154.2617 O   0  0  0  0  0  0  0  0  0  0  0  0
  150.2406  139.9909  154.9089 C   0  0  0  0  0  0  0  0  0  0  0  0
  150.6975  138.6991  154.2084 C   0  0  0  0  0  0  0  0  0  0  0  0
  150.9920  137.5712  155.1117 N   0  0  0  0  0  0  0  0  0  0  0  0
  150.0428  136.5368  155.1907 C   0  0  0  0  0  0  0  0  0  0  0  0
  150.2255  135.4635  155.9830 C   0  0  0  0  0  0  0  0  0  0  0  0
  151.4479  135.3892  156.7734 C   0  0  0  0  0  0  0  0  0  0  0  0
  151.6317  134.4163  157.5022 O   0  0  0  0  0  0  0  0  0  0  0  0
  152.3393  136.4171  156.6616 N   0  5  0  0  0  0  0  0  0  0  0  0
  152.1407  137.5023  155.8509 C   0  0  0  0  0  0  0  0  0  0  0  0
  152.9622  138.4144  155.7581 O   0  0  0  0  0  0  0  0  0  0  0  0
  150.5394  140.1504  156.2080 N   0  0  0  0  0  0  0  0  0  0  0  0
  150.1692  141.3073  157.0078 C   0  0  0  0  0  0  0  0  0  0  0  0
  151.3318  142.3105  157.0712 C   0  0  0  0  0  0  0  0  0  0  0  0
  151.9918  142.2785  158.3825 N   0  0  0  0  0  0  0  0  0  0  0  0
  152.7269  141.2246  158.8064 C   0  0  0  0  0  0  0  0  0  0  0  0
  152.9300  140.2007  158.1547 O   0  0  0  0  0  0  0  0  0  0  0  0
  153.3117  141.3846  160.2149 C   0  0  0  0  0  0  0  0  0  0  0  0
  152.7411  142.9925  160.7715 S   0  0  0  0  0  0  0  0  0  0  0  0
  151.8880  143.2751  159.2780 C   0  0  0  0  0  0  0  0  0  0  0  0
  151.2497  144.3124  159.1012 O   0  0  0  0  0  0  0  0  0  0  0  0
  149.9350  138.4114  153.4827 H   0  0  0  0  0  0  0  0  0  0  0  0
  151.5782  138.9352  153.6097 H   0  0  0  0  0  0  0  0  0  0  0  0
  149.1685  136.6669  154.5699 H   0  0  0  0  0  0  0  0  0  0  0  0
  149.4872  134.6767  156.0310 H   0  0  0  0  0  0  0  0  0  0  0  0
  151.0428  139.4083  156.6732 H   0  0  0  0  0  0  0  0  0  0  0  0
  149.2858  141.7771  156.5727 H   0  0  0  0  0  0  0  0  0  0  0  0
  149.9007  140.9792  158.0134 H   0  0  0  0  0  0  0  0  0  0  0  0
  152.0541  142.0917  156.2825 H   0  0  0  0  0  0  0  0  0  0  0  0
  150.9671  143.3162  156.8541 H   0  0  0  0  0  0  0  0  0  0  0  0
  152.9463  140.5982  160.8757 H   0  0  0  0  0  0  0  0  0  0  0  0
  154.4010  141.3515  160.1875 H   0  0  0  0  0  0  0  0  0  0  0  0
  1  2  2  0  0  0  0
  2  3  1  0  0  0  0
  2 12  1  0  0  0  0
  3  4  1  0  0  0  0
  3 22  1  0  0  0  0
  3 23  1  0  0  0  0
  4 10  1  0  0  0  0
  4  5  1  0  0  0  0
  5  6  2  0  0  0  0
  5 24  1  0  0  0  0
  6  7  1  0  0  0  0
  6 25  1  0  0  0  0
  7  8  2  0  0  0  0
  7  9  1  0  0  0  0
  9 10  1  0  0  0  0
 10 11  2  0  0  0  0
 12 13  1  0  0  0  0
 12 26  1  0  0  0  0
 13 14  1  0  0  0  0
 13 27  1  0  0  0  0
 13 28  1  0  0  0  0
 14 15  1  0  0  0  0
 14 29  1  0  0  0  0
 14 30  1  0  0  0  0
 15 20  1  0  0  0  0
 15 16  1  0  0  0  0
 16 17  2  0  0  0  0
 16 18  1  0  0  0  0
 18 19  1  0  0  0  0
 18 31  1  0  0  0  0
 18 32  1  0  0  0  0
 19 20  1  0  0  0  0
 20 21  2  0  0  0  0
M  CHG  1   9  -1
M  END
> <s_m_source_file>
AV-unprocessed.smi

> <i_m_source_file_index>
1178

> <i_lp_mmshare_version>
43012

> <i_f3d_flags>
0

> <s_epik_input>
Tz1jMVtuSF1jKD1PKVtjSF1bY0hdbjFbQ0gyXUMoPU8pW05IXVtDSDJdW0NIMl1OMkMoPU8pW0NIMl1TQzI9Tw==

> <s_epik_cmdline>
J2VwaWtfcHl0aG9uJywgJy1waCcsICc3LjAnLCAnLXRuJywgJzgnLCAnLW1hJywgJzIwMCcsICctbWV0YWxfYmluZGluZycsICctaW1hZScsICc8aW5maWxlLm1hZT4nLCAnLW9tYWUnLCAnPG91dGZpbGUubWFlPic=

> <r_lp_tautomer_probability>
0.999537

> <r_epik_Ionization_Penalty>
3.05962

> <r_epik_Ionization_Penalty_Charging>
2.46074e-08

> <r_epik_Ionization_Penalty_Neutral>
3.05962

> <r_epik_State_Penalty>
3.05863

> <r_epik_Charging_Adjusted_Penalty>
3.05863

> <i_epik_Tot_Q>
-1

> <i_epik_Tot_abs_Q>
1

> <r_epik_Metal_State_Penalty>
0.458209

> <b_epik_Metal_Only>
1

> <s_lp_Force_Field>
OPLS_2005

> <r_lp_Energy>
17.4268

> <b_lp_Chiralities_Consistent>
1

> <s_lp_Variant>
AV-unprocessed.smi:1178-2

> <Gold.Version>
5.8.1

> <Gold.Id.Protein>
6NUR|6NUR_protein|mol2

> <Gold.PLP.Fitness>
45.3554

> <Gold.PLP.PLP>
-35.1046

> <Gold.PLP.part.hbond>
-4.5283

> <Gold.PLP.part.metal>
0.0000

> <Gold.PLP.part.buried>
-4.1366

> <Gold.PLP.part.nonpolar>
-26.2624

> <Gold.PLP.part.repulsive>
0.2982

> <Gold.PLP.ligand.clash>
0.0000

> <Gold.PLP.ligand.torsion>
1.0801

> <Gold.PLP.Chemscore.Hbond>
3.3970

> <Gold.PLP.Chemscore.CHOScore>
0.7291

> <Gold.PLP.Chemscore.Metal>
0.0000

> <Gold.Chemscore.Hbonds>
donor molecule, donor type, donor heavy atom, donor atom, acceptor molecule, acceptor atom, score
      P1  H  6896  6908       L1     8  0.06
      P1  H  7997  8009       L1    17  0.98
      P1  H 10752 10765       L1     9  0.84
      L1  C     5    24       P1  7948  0.46

> <Gold.PLP.Chemscore.Internal.Correction>
0.0326

> <Gold.Rescore>
     Score         DG    S(hbond)    S(metal)    S(lipo)     H(rot)  DE(clash)    DE(int)     intcor
      7.86      -9.27       1.59        0.00      50.79       2.91       0.13       1.28       ----

> <Gold.Chemscore.Fitness>
7.8601

> <Gold.Chemscore.DG>
-9.2731

> <Gold.Chemscore.ZeroCoef>
-5.4800

> <Gold.Chemscore.Hbond>
1.5863

> <Gold.Chemscore.Metal>
0.0000

> <Gold.Chemscore.Lipo>
50.7878

> <Gold.Chemscore.Internal_Hbond>
0.0000

> <Gold.Chemscore.DEClash>
0.1319

> <Gold.Chemscore.DEInternal>
1.2811

> <Gold.Chemscore.Rot>
2.9092

> <Gold.Chemscore.Internal.Correction>
   9.000000E+99

> <Gold.Chemscore.Hbonds>
donor molecule, donor type, donor heavy atom, donor atom, acceptor molecule, acceptor atom, score
      P1  H  6896  6908       L1     8  0.09
      P1  H  7997  8009       L1    17  0.88
      P1  H  8011  8017       L1     1  0.01

> <Gold.Chemscore.Hbond.Weighted>
-5.2984

> <Gold.Chemscore.Metal.Weighted>
-0.0000

> <Gold.Chemscore.Lipo.Weighted>
-5.9422

> <Gold.Chemscore.Internal_Hbond.Weighted>
0.0000

> <Gold.Chemscore.DEClash.Weighted>
0.1319

> <Gold.Chemscore.DEInternal.Weighted>
1.2811

> <Gold.Chemscore.Rot.Weighted>
7.4474

> <Gold.Chemscore.Internal.Correction.Weighted>
   9.000000E+99

> <Gold.Protein.RotatedTorsions>
[ 6907 6896 6895 6894 ] final  111.17 input  -60.11 | X-H torsion
[ 7974 7965 7964 7962 ] final   47.04 input  175.53 | X-H torsion
[ 8008 7997 7996 7995 ] final  161.40 input   59.86 | X-H torsion
[ 10167 10162 10161 10158 ] final   23.19 input  -65.29 | X-H torsion
[ 10718 10713 10712 10709 ] final  -73.15 input   66.30 | X-H torsion
[ 10763 10752 10751 10750 ] final -128.62 input  -60.55 | X-H torsion
[ 11005 11000 10999 10996 ] final   75.98 input  -57.11 | X-H torsion

> <Gold.Protein.ActiveResidues>
 VAL166  LYS551  ARG553  GLY616  TRP617  ASP618  TYR619  PRO620  LYS621  CYS622 
 ASP623  PHE694  ASN695  SER759  ASP760  ASP761  ALA762  ILE779  LEU786  VAL792 
 PHE793  MET794  SER795  GLU796  ALA797  LYS798  CYS799  TRP800  GLU811  SER814 

> <Gold.Protein.RotatedAtoms>
  152.4983  133.8696  159.7291 H   0  0  0  0  0  0  0  0  0  0  0  0  # atno 6907 bound_to 6896
  150.9186  133.6900  159.2844 H   0  0  0  0  0  0  0  0  0  0  0  0  # atno 6908 bound_to 6896
  151.4284  135.1011  159.9687 H   0  0  0  0  0  0  0  0  0  0  0  0  # atno 6909 bound_to 6896
  146.0334  139.4791  142.9823 H   0  0  0  0  0  0  0  0  0  0  0  0  # atno 7974 bound_to 7965
  156.2105  140.1778  156.7705 H   0  0  0  0  0  0  0  0  0  0  0  0  # atno 8008 bound_to 7997
  154.5716  140.0681  156.9002 H   0  0  0  0  0  0  0  0  0  0  0  0  # atno 8009 bound_to 7997
  155.2663  140.3339  155.4271 H   0  0  0  0  0  0  0  0  0  0  0  0  # atno 8010 bound_to 7997
  140.5289  143.9876  150.6455 H   0  0  0  0  0  0  0  0  0  0  0  0  # atno 10167 bound_to 10162
  156.0292  130.4387  150.2699 H   0  0  0  0  0  0  0  0  0  0  0  0  # atno 10718 bound_to 10713
  154.8756  135.3922  154.3786 H   0  0  0  0  0  0  0  0  0  0  0  0  # atno 10763 bound_to 10752
  153.4537  135.7028  153.6098 H   0  0  0  0  0  0  0  0  0  0  0  0  # atno 10764 bound_to 10752
  153.4627  135.3808  155.2316 H   0  0  0  0  0  0  0  0  0  0  0  0  # atno 10765 bound_to 10752
  139.9319  134.7563  156.1338 H   0  0  0  0  0  0  0  0  0  0  0  0  # atno 11005 bound_to 11000
  145.7003  141.0138  143.1508 LP  0  0  0  0  0  0  0  0  0  0  0  0  # atno 17320 bound_to 7965
  144.7041  139.8636  143.7435 LP  0  0  0  0  0  0  0  0  0  0  0  0  # atno 17321 bound_to 7965
  140.3245  143.3116  152.0750 LP  0  0  0  0  0  0  0  0  0  0  0  0  # atno 17342 bound_to 10162
  139.4947  144.6551  151.6590 LP  0  0  0  0  0  0  0  0  0  0  0  0  # atno 17343 bound_to 10162
  157.0801  131.0141  151.3159 LP  0  0  0  0  0  0  0  0  0  0  0  0  # atno 17370 bound_to 10713
  157.4933  130.7835  149.7530 LP  0  0  0  0  0  0  0  0  0  0  0  0  # atno 17371 bound_to 10713
  141.0912  133.6713  156.2545 LP  0  0  0  0  0  0  0  0  0  0  0  0  # atno 17394 bound_to 11000
  140.6179  134.5391  157.5543 LP  0  0  0  0  0  0  0  0  0  0  0  0  # atno 17395 bound_to 11000

$$$$
