AV-unprocessed.smi:260|AV-procd|sdf|1982|dock5
  -GOLD-   2262021153D 1   1.00000     0.00000
 Structure written by MMmdl.
 53 56  0  0  0  0  0  0  0  0  1 V2000
  152.9015  130.4309  155.5864 C   0  0  0  0  0  0  0  0  0  0  0  0
  151.6506  131.1198  155.3093 N   0  0  0  0  0  0  0  0  0  0  0  0
  151.0052  131.9048  156.1869 C   0  0  0  0  0  0  0  0  0  0  0  0
  151.4309  132.0954  157.3271 O   0  0  0  0  0  0  0  0  0  0  0  0
  149.6837  132.5856  155.7426 C   0  0  2  0  0  0  0  0  0  0  0  0
  148.6505  131.4963  155.3940 C   0  0  0  0  0  0  0  0  0  0  0  0
  149.8510  133.6110  154.5970 C   0  0  0  0  0  0  0  0  0  0  0  0
  150.2969  134.9070  155.2874 C   0  0  0  0  0  0  0  0  0  0  0  0
  149.8639  134.7757  156.6707 N   0  0  0  0  0  0  0  0  0  0  0  0
  149.6094  135.8611  157.4456 C   0  0  0  0  0  0  0  0  0  0  0  0
  149.0484  135.6713  158.6693 N   0  0  0  0  0  0  0  0  0  0  0  0
  148.7867  136.7115  159.4655 C   0  0  0  0  0  0  0  0  0  0  0  0
  149.0069  138.0079  159.2432 N   0  0  0  0  0  0  0  0  0  0  0  0
  149.5800  138.2075  158.0225 C   0  0  0  0  0  0  0  0  0  0  0  0
  149.9126  137.2029  157.0685 C   0  0  0  0  0  0  0  0  0  0  0  0
  150.4910  137.7961  155.9506 N   0  0  0  0  0  0  0  0  0  0  0  0
  150.4943  139.0716  156.2255 C   0  0  0  0  0  0  0  0  0  0  0  0
  149.9674  139.4057  157.4512 N   0  0  0  0  0  0  0  0  0  0  0  0
  149.8536  140.7377  158.0177 C   0  0  0  0  0  0  0  0  0  0  0  0
  150.6869  141.7762  157.2416 C   0  0  1  0  0  0  0  0  0  0  0  0
  150.0299  142.1492  156.0450 O   0  0  0  0  0  0  0  0  0  0  0  0
  151.0245  143.0226  158.0840 C   0  0  1  0  0  0  0  0  0  0  0  0
  151.8897  142.7925  159.3257 C   0  0  0  0  0  0  0  0  0  0  0  0
  152.4754  144.1711  159.5349 C   0  0  0  0  0  0  0  0  0  0  0  0
  152.7154  144.6297  158.0983 C   0  0  0  0  0  0  0  0  0  0  0  0
  151.6915  144.0211  157.3152 O   0  0  0  0  0  0  0  0  0  0  0  0
  149.1718  133.5079  156.8653 C   0  0  0  0  0  0  0  0  0  0  0  0
  153.2189  129.8695  154.7076 H   0  0  0  0  0  0  0  0  0  0  0  0
  152.7844  129.7311  156.4150 H   0  0  0  0  0  0  0  0  0  0  0  0
  153.6884  131.1427  155.8393 H   0  0  0  0  0  0  0  0  0  0  0  0
  151.2529  131.0032  154.3887 H   0  0  0  0  0  0  0  0  0  0  0  0
  147.6919  131.9335  155.1130 H   0  0  0  0  0  0  0  0  0  0  0  0
  148.4646  130.8306  156.2380 H   0  0  0  0  0  0  0  0  0  0  0  0
  148.9877  130.8849  154.5561 H   0  0  0  0  0  0  0  0  0  0  0  0
  150.5286  133.3012  153.8010 H   0  0  0  0  0  0  0  0  0  0  0  0
  148.8839  133.7852  154.1229 H   0  0  0  0  0  0  0  0  0  0  0  0
  151.3827  135.0052  155.2634 H   0  0  0  0  0  0  0  0  0  0  0  0
  149.8609  135.7800  154.8001 H   0  0  0  0  0  0  0  0  0  0  0  0
  148.3380  136.4696  160.4176 H   0  0  0  0  0  0  0  0  0  0  0  0
  150.8901  139.8074  155.5406 H   0  0  0  0  0  0  0  0  0  0  0  0
  148.8004  141.0207  158.0308 H   0  0  0  0  0  0  0  0  0  0  0  0
  150.1783  140.6946  159.0581 H   0  0  0  0  0  0  0  0  0  0  0  0
  151.6281  141.3112  156.9451 H   0  0  0  0  0  0  0  0  0  0  0  0
  149.6916  143.0251  156.1527 H   0  0  0  0  0  0  0  0  0  0  0  0
  150.0882  143.4770  158.4130 H   0  0  0  0  0  0  0  0  0  0  0  0
  151.3177  142.4351  160.1824 H   0  0  0  0  0  0  0  0  0  0  0  0
  152.6933  142.0815  159.1318 H   0  0  0  0  0  0  0  0  0  0  0  0
  151.7444  144.8195  160.0200 H   0  0  0  0  0  0  0  0  0  0  0  0
  153.3835  144.1657  160.1383 H   0  0  0  0  0  0  0  0  0  0  0  0
  152.7017  145.7153  157.9993 H   0  0  0  0  0  0  0  0  0  0  0  0
  153.6816  144.2696  157.7422 H   0  0  0  0  0  0  0  0  0  0  0  0
  148.0956  133.6662  156.7781 H   0  0  0  0  0  0  0  0  0  0  0  0
  149.3679  133.1047  157.8601 H   0  0  0  0  0  0  0  0  0  0  0  0
  1  2  1  0  0  0  0
  1 28  1  0  0  0  0
  1 29  1  0  0  0  0
  1 30  1  0  0  0  0
  2  3  1  0  0  0  0
  2 31  1  0  0  0  0
  3  4  2  0  0  0  0
  3  5  1  0  0  0  0
  5 27  1  0  0  0  0
  5  6  1  0  0  0  0
  5  7  1  0  0  0  0
  6 32  1  0  0  0  0
  6 33  1  0  0  0  0
  6 34  1  0  0  0  0
  7  8  1  0  0  0  0
  7 35  1  0  0  0  0
  7 36  1  0  0  0  0
  8  9  1  0  0  0  0
  8 37  1  0  0  0  0
  8 38  1  0  0  0  0
  9 10  1  0  0  0  0
  9 27  1  0  0  0  0
 10 15  1  0  0  0  0
 10 11  2  0  0  0  0
 11 12  1  0  0  0  0
 12 13  2  0  0  0  0
 12 39  1  0  0  0  0
 13 14  1  0  0  0  0
 14 18  1  0  0  0  0
 14 15  2  0  0  0  0
 15 16  1  0  0  0  0
 16 17  2  0  0  0  0
 17 18  1  0  0  0  0
 17 40  1  0  0  0  0
 18 19  1  0  0  0  0
 19 20  1  0  0  0  0
 19 41  1  0  0  0  0
 19 42  1  0  0  0  0
 20 21  1  0  0  0  0
 20 22  1  0  0  0  0
 20 43  1  0  0  0  0
 21 44  1  0  0  0  0
 22 26  1  0  0  0  0
 22 23  1  0  0  0  0
 22 45  1  0  0  0  0
 23 24  1  0  0  0  0
 23 46  1  0  0  0  0
 23 47  1  0  0  0  0
 24 25  1  0  0  0  0
 24 48  1  0  0  0  0
 24 49  1  0  0  0  0
 25 26  1  0  0  0  0
 25 50  1  0  0  0  0
 25 51  1  0  0  0  0
 27 52  1  0  0  0  0
 27 53  1  0  0  0  0
M  END
> <s_m_source_file>
AV-unprocessed.smi

> <i_m_source_file_index>
260

> <i_lp_mmshare_version>
43012

> <i_f3d_flags>
0

> <s_epik_input>
W0NIM11bTkhdQyg9TylbQ0BAXTEoW0NIM10pW0NIMl1bQ0gyXU4oW0NIMl0xKWMobltjSF1uMiljKGMyMyluW2NIXW4zW0NIMl1bQ0BIXShbT0hdKVtDQEBIXTRbQ0gyXVtDSDJdW0NIMl1PNA==

> <s_epik_cmdline>
J2VwaWtfcHl0aG9uJywgJy1waCcsICc3LjAnLCAnLXRuJywgJzgnLCAnLW1hJywgJzIwMCcsICctbWV0YWxfYmluZGluZycsICctaW1hZScsICc8aW5maWxlLm1hZT4nLCAnLW9tYWUnLCAnPG91dGZpbGUubWFlPic=

> <r_lp_tautomer_probability>
1

> <r_epik_Ionization_Penalty>
0.00115068

> <r_epik_Ionization_Penalty_Charging>
0

> <r_epik_Ionization_Penalty_Neutral>
0.00115068

> <r_epik_State_Penalty>
0.000668876

> <r_epik_Charging_Adjusted_Penalty>
0.000668876

> <i_epik_Tot_Q>
0

> <i_epik_Tot_abs_Q>
0

> <r_epik_Metal_State_Penalty>
-0

> <b_epik_Metal_Only>
0

> <s_lp_Force_Field>
OPLS_2005

> <r_lp_Energy>
50.4325

> <b_lp_Chiralities_Consistent>
1

> <s_lp_Variant>
AV-unprocessed.smi:260-8

> <Gold.Version>
5.8.1

> <Gold.Id.Protein>
6NUR|6NUR_protein|mol2

> <Gold.PLP.Fitness>
46.1174

> <Gold.PLP.PLP>
-38.2400

> <Gold.PLP.part.hbond>
-5.0000

> <Gold.PLP.part.metal>
0.0000

> <Gold.PLP.part.buried>
-4.6169

> <Gold.PLP.part.nonpolar>
-29.4188

> <Gold.PLP.part.repulsive>
0.1747

> <Gold.PLP.ligand.clash>
0.0000

> <Gold.PLP.ligand.torsion>
0.5402

> <Gold.PLP.Chemscore.Hbond>
2.8750

> <Gold.PLP.Chemscore.CHOScore>
0.0000

> <Gold.PLP.Chemscore.Metal>
0.0000

> <Gold.Chemscore.Hbonds>
donor molecule, donor type, donor heavy atom, donor atom, acceptor molecule, acceptor atom, score
      L1  H    21    44       P1  8028  1.00
      P1  H  6896  6907       L1     4  0.42
      P1  H  6896  6908       L1    11  0.35

> <Gold.PLP.Chemscore.Internal.Correction>
0.3328

> <Gold.Rescore>
     Score         DG    S(hbond)    S(metal)    S(lipo)     H(rot)  DE(clash)    DE(int)     intcor
     13.98     -15.82       2.00        0.00      86.70       2.53       0.07       1.77       ----

> <Gold.Chemscore.Fitness>
13.9841

> <Gold.Chemscore.DG>
-15.8228

> <Gold.Chemscore.ZeroCoef>
-5.4800

> <Gold.Chemscore.Hbond>
1.9955

> <Gold.Chemscore.Metal>
0.0000

> <Gold.Chemscore.Lipo>
86.7020

> <Gold.Chemscore.Internal_Hbond>
0.0000

> <Gold.Chemscore.DEClash>
0.0685

> <Gold.Chemscore.DEInternal>
1.7701

> <Gold.Chemscore.Rot>
2.5259

> <Gold.Chemscore.Internal.Correction>
   9.000000E+99

> <Gold.Chemscore.Hbonds>
donor molecule, donor type, donor heavy atom, donor atom, acceptor molecule, acceptor atom, score
      L1  H    21    44       P1  8028  0.98
      P1  H  6896  6907       L1     4  0.43
      P1  H  6896  6908       L1    11  0.01

> <Gold.Chemscore.Hbond.Weighted>
-6.6650

> <Gold.Chemscore.Metal.Weighted>
-0.0000

> <Gold.Chemscore.Lipo.Weighted>
-10.1441

> <Gold.Chemscore.Internal_Hbond.Weighted>
0.0000

> <Gold.Chemscore.DEClash.Weighted>
0.0685

> <Gold.Chemscore.DEInternal.Weighted>
1.7701

> <Gold.Chemscore.Rot.Weighted>
6.4663

> <Gold.Chemscore.Internal.Correction.Weighted>
   9.000000E+99

> <Gold.Protein.RotatedTorsions>
[ 6907 6896 6895 6894 ] final -164.30 input  -60.11 | X-H torsion
[ 7974 7965 7964 7962 ] final  114.05 input  175.53 | X-H torsion
[ 8008 7997 7996 7995 ] final -133.84 input   59.86 | X-H torsion
[ 10167 10162 10161 10158 ] final   24.43 input  -65.29 | X-H torsion
[ 10718 10713 10712 10709 ] final  143.11 input   66.30 | X-H torsion
[ 10763 10752 10751 10750 ] final  111.86 input  -60.55 | X-H torsion
[ 11005 11000 10999 10996 ] final  120.13 input  -57.11 | X-H torsion

> <Gold.Protein.ActiveResidues>
 VAL166  LYS551  ARG553  GLY616  TRP617  ASP618  TYR619  PRO620  LYS621  CYS622 
 ASP623  PHE694  ASN695  SER759  ASP760  ASP761  ALA762  ILE779  LEU786  VAL792 
 PHE793  MET794  SER795  GLU796  ALA797  LYS798  CYS799  TRP800  GLU811  SER814 

> <Gold.Protein.RotatedAtoms>
  151.4097  133.3731  159.2742 H   0  0  0  0  0  0  0  0  0  0  0  0  # atno 6907 bound_to 6896
  150.9372  134.8785  159.7600 H   0  0  0  0  0  0  0  0  0  0  0  0  # atno 6908 bound_to 6896
  152.5055  134.4045  159.9480 H   0  0  0  0  0  0  0  0  0  0  0  0  # atno 6909 bound_to 6896
  145.2092  139.2914  143.4277 H   0  0  0  0  0  0  0  0  0  0  0  0  # atno 7974 bound_to 7965
  155.3522  140.0478  157.3046 H   0  0  0  0  0  0  0  0  0  0  0  0  # atno 8008 bound_to 7997
  154.5221  140.2228  155.8921 H   0  0  0  0  0  0  0  0  0  0  0  0  # atno 8009 bound_to 7997
  156.1701  140.3098  155.8964 H   0  0  0  0  0  0  0  0  0  0  0  0  # atno 8010 bound_to 7997
  140.5189  144.0036  150.6407 H   0  0  0  0  0  0  0  0  0  0  0  0  # atno 10167 bound_to 10162
  157.3728  131.0981  151.0812 H   0  0  0  0  0  0  0  0  0  0  0  0  # atno 10718 bound_to 10713
  153.4695  135.3704  155.2383 H   0  0  0  0  0  0  0  0  0  0  0  0  # atno 10763 bound_to 10752
  154.8757  135.3928  154.3829 H   0  0  0  0  0  0  0  0  0  0  0  0  # atno 10764 bound_to 10752
  153.4415  135.7084  153.6230 H   0  0  0  0  0  0  0  0  0  0  0  0  # atno 10765 bound_to 10752
  139.9173  134.9633  156.7760 H   0  0  0  0  0  0  0  0  0  0  0  0  # atno 11005 bound_to 11000
  146.3401  140.2363  142.8594 LP  0  0  0  0  0  0  0  0  0  0  0  0  # atno 17320 bound_to 7965
  144.9872  140.8514  143.5361 LP  0  0  0  0  0  0  0  0  0  0  0  0  # atno 17321 bound_to 7965
  140.3379  143.3037  152.0618 LP  0  0  0  0  0  0  0  0  0  0  0  0  # atno 17342 bound_to 10162
  139.4917  144.6463  151.6771 LP  0  0  0  0  0  0  0  0  0  0  0  0  # atno 17343 bound_to 10162
  157.1910  130.6352  149.5704 LP  0  0  0  0  0  0  0  0  0  0  0  0  # atno 17370 bound_to 10713
  155.9759  130.4722  150.6491 LP  0  0  0  0  0  0  0  0  0  0  0  0  # atno 17371 bound_to 10713
  140.6583  133.9669  155.7791 LP  0  0  0  0  0  0  0  0  0  0  0  0  # atno 17394 bound_to 11000
  141.0661  134.0274  157.3592 LP  0  0  0  0  0  0  0  0  0  0  0  0  # atno 17395 bound_to 11000

$$$$
