AV-unprocessed.smi:1539|AV-procd|sdf|6197|dock2
  -GOLD-   22720 6363D 1   1.00000     0.00000
 Structure written by MMmdl.
 41 42  0  0  0  0  0  0  0  0  1 V2000
  147.1781  137.9800  156.8565 C   0  0  0  0  0  0  0  0  0  0  0  0
  146.9753  139.4958  156.9196 C   0  0  0  0  0  0  0  0  0  0  0  0
  147.2117  140.0694  157.9833 O   0  0  0  0  0  0  0  0  0  0  0  0
  146.5344  140.1525  155.8184 N   0  0  0  0  0  0  0  0  0  0  0  0
  146.3080  139.4528  154.5448 C   0  0  0  0  0  0  0  0  0  0  0  0
  147.6051  139.3633  153.7127 C   0  0  0  0  0  0  0  0  0  0  0  0
  148.2278  140.7399  153.3895 C   0  0  0  0  0  0  0  0  0  0  0  0
  148.6102  141.4653  154.6164 N   0  0  0  0  0  0  0  0  0  0  0  0
  149.7826  141.3022  155.2839 C   0  0  0  0  0  0  0  0  0  0  0  0
  150.5317  140.3395  155.1108 O   0  0  0  0  0  0  0  0  0  0  0  0
  150.0836  142.2934  156.1409 N   0  0  0  0  0  0  0  0  0  0  0  0
  151.2928  142.3635  156.9519 C   0  0  0  0  0  0  0  0  0  0  0  0
  151.5915  143.8066  157.3885 C   0  0  0  0  0  0  0  0  0  0  0  0
  151.9042  143.8797  158.8009 N   0  0  0  0  0  0  0  0  0  0  0  0
  151.4400  144.8179  159.7131 C   0  0  0  0  0  0  0  0  0  0  0  0
  151.9973  144.4926  160.9291 C   0  0  0  0  0  0  0  0  0  0  0  0
  152.8016  143.3637  160.7895 N   0  0  0  0  0  0  0  0  0  0  0  0
  152.6969  143.0580  159.5025 C   0  0  0  0  0  0  0  0  0  0  0  0
  147.5540  142.3631  155.1193 C   0  0  0  0  0  0  0  0  0  0  0  0
  146.3448  141.6120  155.7402 C   0  0  0  0  0  0  0  0  0  0  0  0
  146.2767  137.4784  156.5044 H   0  0  0  0  0  0  0  0  0  0  0  0
  147.4129  137.5832  157.8448 H   0  0  0  0  0  0  0  0  0  0  0  0
  148.0048  137.7306  156.1912 H   0  0  0  0  0  0  0  0  0  0  0  0
  145.9111  138.4513  154.7199 H   0  0  0  0  0  0  0  0  0  0  0  0
  145.5395  139.9615  153.9620 H   0  0  0  0  0  0  0  0  0  0  0  0
  148.3320  138.7398  154.2343 H   0  0  0  0  0  0  0  0  0  0  0  0
  147.3874  138.8457  152.7782 H   0  0  0  0  0  0  0  0  0  0  0  0
  149.0828  140.6200  152.7226 H   0  0  0  0  0  0  0  0  0  0  0  0
  147.5111  141.3279  152.8149 H   0  0  0  0  0  0  0  0  0  0  0  0
  149.4307  143.0590  156.2258 H   0  0  0  0  0  0  0  0  0  0  0  0
  151.2002  141.7101  157.8214 H   0  0  0  0  0  0  0  0  0  0  0  0
  152.1211  141.9738  156.3593 H   0  0  0  0  0  0  0  0  0  0  0  0
  152.4332  144.2109  156.8244 H   0  0  0  0  0  0  0  0  0  0  0  0
  150.7364  144.4548  157.1919 H   0  0  0  0  0  0  0  0  0  0  0  0
  150.7702  145.6163  159.4289 H   0  0  0  0  0  0  0  0  0  0  0  0
  151.8815  144.9797  161.8862 H   0  0  0  0  0  0  0  0  0  0  0  0
  153.2074  142.2150  159.0601 H   0  0  0  0  0  0  0  0  0  0  0  0
  147.9436  143.0671  155.8560 H   0  0  0  0  0  0  0  0  0  0  0  0
  147.2078  142.9993  154.3036 H   0  0  0  0  0  0  0  0  0  0  0  0
  145.4587  141.8203  155.1393 H   0  0  0  0  0  0  0  0  0  0  0  0
  146.1007  142.0442  156.7104 H   0  0  0  0  0  0  0  0  0  0  0  0
  1  2  1  0  0  0  0
  1 21  1  0  0  0  0
  1 22  1  0  0  0  0
  1 23  1  0  0  0  0
  2  3  2  0  0  0  0
  2  4  1  0  0  0  0
  4 20  1  0  0  0  0
  4  5  1  0  0  0  0
  5  6  1  0  0  0  0
  5 24  1  0  0  0  0
  5 25  1  0  0  0  0
  6  7  1  0  0  0  0
  6 26  1  0  0  0  0
  6 27  1  0  0  0  0
  7  8  1  0  0  0  0
  7 28  1  0  0  0  0
  7 29  1  0  0  0  0
  8  9  1  0  0  0  0
  8 19  1  0  0  0  0
  9 10  2  0  0  0  0
  9 11  1  0  0  0  0
 11 12  1  0  0  0  0
 11 30  1  0  0  0  0
 12 13  1  0  0  0  0
 12 31  1  0  0  0  0
 12 32  1  0  0  0  0
 13 14  1  0  0  0  0
 13 33  1  0  0  0  0
 13 34  1  0  0  0  0
 14 18  1  0  0  0  0
 14 15  1  0  0  0  0
 15 16  2  0  0  0  0
 15 35  1  0  0  0  0
 16 17  1  0  0  0  0
 16 36  1  0  0  0  0
 17 18  2  0  0  0  0
 18 37  1  0  0  0  0
 19 20  1  0  0  0  0
 19 38  1  0  0  0  0
 19 39  1  0  0  0  0
 20 40  1  0  0  0  0
 20 41  1  0  0  0  0
M  END
> <s_m_source_file>
AV-unprocessed.smi

> <i_m_source_file_index>
1539

> <i_lp_mmshare_version>
43012

> <i_f3d_flags>
0

> <s_epik_input>
W0NIM11DKD1PKU4xW0NIMl1bQ0gyXVtDSDJdTihbQ0gyXVtDSDJdMSlDKD1PKVtOSF1bQ0gyXVtDSDJdbjJbY0hdW2NIXW5bY0hdMg==

> <s_epik_cmdline>
J2VwaWtfcHl0aG9uJywgJy1waCcsICc3LjAnLCAnLXRuJywgJzgnLCAnLW1hJywgJzIwMCcsICctbWV0YWxfYmluZGluZycsICctaW1hZScsICc8aW5maWxlLm1hZT4nLCAnLW9tYWUnLCAnPG91dGZpbGUubWFlPic=

> <r_lp_tautomer_probability>
1

> <r_epik_Ionization_Penalty>
0.624284

> <r_epik_Ionization_Penalty_Charging>
0.624238

> <r_epik_Ionization_Penalty_Neutral>
4.66445e-05

> <r_epik_State_Penalty>
0.64053

> <r_epik_Charging_Adjusted_Penalty>
1.26477

> <i_epik_Tot_Q>
0

> <i_epik_Tot_abs_Q>
0

> <r_epik_Metal_State_Penalty>
0.307534

> <b_epik_Metal_Only>
0

> <s_lp_Force_Field>
OPLS_2005

> <r_lp_Energy>
41.7081

> <b_lp_Chiralities_Consistent>
1

> <s_lp_Variant>
AV-unprocessed.smi:1539-2

> <Gold.Version>
5.8.1

> <Gold.Id.Protein>
6NUR|6NUR_protein|mol2

> <Gold.PLP.Fitness>
38.8447

> <Gold.PLP.PLP>
-35.4159

> <Gold.PLP.part.hbond>
-2.9951

> <Gold.PLP.part.metal>
0.0000

> <Gold.PLP.part.buried>
-0.0140

> <Gold.PLP.part.nonpolar>
-32.8322

> <Gold.PLP.part.repulsive>
0.2110

> <Gold.PLP.ligand.clash>
0.7635

> <Gold.PLP.ligand.torsion>
0.8548

> <Gold.PLP.Chemscore.Hbond>
1.9600

> <Gold.PLP.Chemscore.CHOScore>
0.0000

> <Gold.PLP.Chemscore.Metal>
0.0000

> <Gold.Chemscore.Hbonds>
donor molecule, donor type, donor heavy atom, donor atom, acceptor molecule, acceptor atom, score
      L1  H    11    30       P1  8028  0.98
      P1  H  7989  7998       L1    10  1.00

> <Gold.PLP.Chemscore.Internal.Correction>
0.0219

> <Gold.Rescore>
     Score         DG    S(hbond)    S(metal)    S(lipo)     H(rot)  DE(clash)    DE(int)     intcor
     12.30     -14.52       1.59        0.00      67.92       1.65       1.64       0.59       ----

> <Gold.Chemscore.Fitness>
12.2995

> <Gold.Chemscore.DG>
-14.5249

> <Gold.Chemscore.ZeroCoef>
-5.4800

> <Gold.Chemscore.Hbond>
1.5948

> <Gold.Chemscore.Metal>
0.0000

> <Gold.Chemscore.Lipo>
67.9163

> <Gold.Chemscore.Internal_Hbond>
0.0000

> <Gold.Chemscore.DEClash>
1.6395

> <Gold.Chemscore.DEInternal>
0.5859

> <Gold.Chemscore.Rot>
1.6516

> <Gold.Chemscore.Internal.Correction>
   9.000000E+99

> <Gold.Chemscore.Hbonds>
donor molecule, donor type, donor heavy atom, donor atom, acceptor molecule, acceptor atom, score
      L1  H    11    30       P1  8028  0.92
      P1  H  7989  7998       L1    10  0.37

> <Gold.Chemscore.Hbond.Weighted>
-5.3267

> <Gold.Chemscore.Metal.Weighted>
-0.0000

> <Gold.Chemscore.Lipo.Weighted>
-7.9462

> <Gold.Chemscore.Internal_Hbond.Weighted>
0.0000

> <Gold.Chemscore.DEClash.Weighted>
1.6395

> <Gold.Chemscore.DEInternal.Weighted>
0.5859

> <Gold.Chemscore.Rot.Weighted>
4.2280

> <Gold.Chemscore.Internal.Correction.Weighted>
   9.000000E+99

> <Gold.Protein.RotatedTorsions>
[ 6907 6896 6895 6894 ] final -144.83 input  -60.11 | X-H torsion
[ 7974 7965 7964 7962 ] final   -9.26 input  175.53 | X-H torsion
[ 8008 7997 7996 7995 ] final  -71.19 input   59.86 | X-H torsion
[ 10167 10162 10161 10158 ] final   26.61 input  -65.29 | X-H torsion
[ 10718 10713 10712 10709 ] final  -32.88 input   66.30 | X-H torsion
[ 10763 10752 10751 10750 ] final  164.12 input  -60.55 | X-H torsion
[ 11005 11000 10999 10996 ] final -115.56 input  -57.11 | X-H torsion

> <Gold.Protein.ActiveResidues>
 VAL166  LYS551  ARG553  GLY616  TRP617  ASP618  TYR619  PRO620  LYS621  CYS622 
 ASP623  PHE694  ASN695  SER759  ASP760  ASP761  ALA762  ILE779  LEU786  VAL792 
 PHE793  MET794  SER795  GLU796  ALA797  LYS798  CYS799  TRP800  GLU811  SER814 

> <Gold.Protein.RotatedAtoms>
  151.1194  133.5115  159.2602 H   0  0  0  0  0  0  0  0  0  0  0  0  # atno 6907 bound_to 6896
  151.1879  135.0389  159.8830 H   0  0  0  0  0  0  0  0  0  0  0  0  # atno 6908 bound_to 6896
  152.5455  134.1038  159.8382 H   0  0  0  0  0  0  0  0  0  0  0  0  # atno 6909 bound_to 6896
  146.2257  140.2589  142.8351 H   0  0  0  0  0  0  0  0  0  0  0  0  # atno 7974 bound_to 7965
  154.5069  140.0820  156.7912 H   0  0  0  0  0  0  0  0  0  0  0  0  # atno 8008 bound_to 7997
  155.3873  140.3431  155.4231 H   0  0  0  0  0  0  0  0  0  0  0  0  # atno 8009 bound_to 7997
  156.1526  140.1563  156.8732 H   0  0  0  0  0  0  0  0  0  0  0  0  # atno 8010 bound_to 7997
  140.5008  144.0317  150.6332 H   0  0  0  0  0  0  0  0  0  0  0  0  # atno 10167 bound_to 10162
  156.3695  130.4337  149.7557 H   0  0  0  0  0  0  0  0  0  0  0  0  # atno 10718 bound_to 10713
  154.3042  135.2758  155.2597 H   0  0  0  0  0  0  0  0  0  0  0  0  # atno 10763 bound_to 10752
  154.5020  135.5805  153.6542 H   0  0  0  0  0  0  0  0  0  0  0  0  # atno 10764 bound_to 10752
  152.9896  135.6160  154.3214 H   0  0  0  0  0  0  0  0  0  0  0  0  # atno 10765 bound_to 10752
  141.0480  133.9732  157.2885 H   0  0  0  0  0  0  0  0  0  0  0  0  # atno 11005 bound_to 11000
  144.9354  140.8021  143.5663 LP  0  0  0  0  0  0  0  0  0  0  0  0  # atno 17320 bound_to 7965
  145.2536  139.2021  143.4929 LP  0  0  0  0  0  0  0  0  0  0  0  0  # atno 17321 bound_to 7965
  140.3613  143.2906  152.0381 LP  0  0  0  0  0  0  0  0  0  0  0  0  # atno 17342 bound_to 10162
  139.4872  144.6301  151.7087 LP  0  0  0  0  0  0  0  0  0  0  0  0  # atno 17343 bound_to 10162
  156.4690  130.7987  151.3006 LP  0  0  0  0  0  0  0  0  0  0  0  0  # atno 17370 bound_to 10713
  157.7482  131.0042  150.3066 LP  0  0  0  0  0  0  0  0  0  0  0  0  # atno 17371 bound_to 10713
  139.9327  135.0199  156.8454 LP  0  0  0  0  0  0  0  0  0  0  0  0  # atno 17394 bound_to 11000
  140.6110  134.0083  155.7577 LP  0  0  0  0  0  0  0  0  0  0  0  0  # atno 17395 bound_to 11000

$$$$
