AV-unprocessed.smi:2426|AV-procd|sdf|9576|dock9
  -GOLD-   2272013213D 1   1.00000     0.00000
 Structure written by MMmdl.
 36 37  0  0  0  0  0  0  0  0  1 V2000
  151.6007  138.9712  155.1885 C   0  0  0  0  0  0  0  0  0  0  0  0
  150.8830  140.1947  155.0740 O   0  0  0  0  0  0  0  0  0  0  0  0
  149.5634  140.1409  154.6758 C   0  0  0  0  0  0  0  0  0  0  0  0
  149.0983  139.0078  153.9775 C   0  0  0  0  0  0  0  0  0  0  0  0
  147.7402  138.9926  153.5878 C   0  0  0  0  0  0  0  0  0  0  0  0
  147.3125  137.8334  152.8881 N   0  0  0  0  0  0  0  0  0  0  0  0
  146.0558  137.3913  152.7056 C   0  0  0  0  0  0  0  0  0  0  0  0
  145.0386  137.9427  153.1268 O   0  0  0  0  0  0  0  0  0  0  0  0
  146.0418  136.2531  151.9962 N   0  0  0  0  0  0  0  0  0  0  0  0
  144.8467  135.5066  151.6129 C   0  0  2  0  0  0  0  0  0  0  0  0
  144.0891  135.0375  152.8656 C   0  0  0  0  0  0  0  0  0  0  0  0
  145.2533  134.3387  150.7161 C   0  0  0  0  0  0  0  0  0  0  0  0
  144.1898  133.3500  150.2131 C   0  0  0  0  0  0  0  0  0  0  0  0
  145.2404  132.2405  150.3131 C   0  0  0  0  0  0  0  0  0  0  0  0
  145.9872  133.1278  151.3130 C   0  0  0  0  0  0  0  0  0  0  0  0
  146.9385  140.0440  153.8887 N   0  0  0  0  0  0  0  0  0  0  0  0
  147.4747  141.0693  154.5529 C   0  0  0  0  0  0  0  0  0  0  0  0
  148.7391  141.1771  154.9626 N   0  0  0  0  0  0  0  0  0  0  0  0
  152.6210  139.1797  155.5096 H   0  0  0  0  0  0  0  0  0  0  0  0
  151.6553  138.4494  154.2321 H   0  0  0  0  0  0  0  0  0  0  0  0
  151.1483  138.3122  155.9308 H   0  0  0  0  0  0  0  0  0  0  0  0
  149.7618  138.1857  153.7522 H   0  0  0  0  0  0  0  0  0  0  0  0
  148.0482  137.2758  152.4807 H   0  0  0  0  0  0  0  0  0  0  0  0
  146.9262  135.8718  151.6939 H   0  0  0  0  0  0  0  0  0  0  0  0
  144.1872  136.1667  151.0461 H   0  0  0  0  0  0  0  0  0  0  0  0
  143.1856  134.4904  152.5961 H   0  0  0  0  0  0  0  0  0  0  0  0
  143.7858  135.8821  153.4847 H   0  0  0  0  0  0  0  0  0  0  0  0
  144.7060  134.3797  153.4786 H   0  0  0  0  0  0  0  0  0  0  0  0
  145.8269  134.6947  149.8571 H   0  0  0  0  0  0  0  0  0  0  0  0
  143.3679  133.2156  150.9182 H   0  0  0  0  0  0  0  0  0  0  0  0
  143.8257  133.5455  149.2040 H   0  0  0  0  0  0  0  0  0  0  0  0
  144.8737  131.2985  150.7216 H   0  0  0  0  0  0  0  0  0  0  0  0
  145.7919  132.0938  149.3830 H   0  0  0  0  0  0  0  0  0  0  0  0
  147.0704  133.1453  151.1892 H   0  0  0  0  0  0  0  0  0  0  0  0
  145.7034  132.9271  152.3475 H   0  0  0  0  0  0  0  0  0  0  0  0
  146.8182  141.8957  154.7811 H   0  0  0  0  0  0  0  0  0  0  0  0
  1  2  1  0  0  0  0
  1 19  1  0  0  0  0
  1 20  1  0  0  0  0
  1 21  1  0  0  0  0
  2  3  1  0  0  0  0
  3 18  1  0  0  0  0
  3  4  2  0  0  0  0
  4  5  1  0  0  0  0
  4 22  1  0  0  0  0
  5  6  1  0  0  0  0
  5 16  2  0  0  0  0
  6  7  1  0  0  0  0
  6 23  1  0  0  0  0
  7  8  2  0  0  0  0
  7  9  1  0  0  0  0
  9 10  1  0  0  0  0
  9 24  1  0  0  0  0
 10 11  1  0  0  0  0
 10 12  1  0  0  0  0
 10 25  1  0  0  0  0
 11 26  1  0  0  0  0
 11 27  1  0  0  0  0
 11 28  1  0  0  0  0
 12 15  1  0  0  0  0
 12 13  1  0  0  0  0
 12 29  1  0  0  0  0
 13 14  1  0  0  0  0
 13 30  1  0  0  0  0
 13 31  1  0  0  0  0
 14 15  1  0  0  0  0
 14 32  1  0  0  0  0
 14 33  1  0  0  0  0
 15 34  1  0  0  0  0
 15 35  1  0  0  0  0
 16 17  1  0  0  0  0
 17 18  2  0  0  0  0
 17 36  1  0  0  0  0
M  END
> <s_m_source_file>
AV-unprocessed.smi

> <i_m_source_file_index>
2426

> <i_lp_mmshare_version>
43012

> <i_f3d_flags>
0

> <s_epik_input>
W0NIM11PYzFbY0hdYyhuW2NIXW4xKVtOSF1DKD1PKVtOSF1bQ0BIXShbQ0gzXSlbQ0hdMltDSDJdW0NIMl1bQ0gyXTI=

> <s_epik_cmdline>
J2VwaWtfcHl0aG9uJywgJy1waCcsICc3LjAnLCAnLXRuJywgJzgnLCAnLW1hJywgJzIwMCcsICctbWV0YWxfYmluZGluZycsICctaW1hZScsICc8aW5maWxlLm1hZT4nLCAnLW9tYWUnLCAnPG91dGZpbGUubWFlPic=

> <r_lp_tautomer_probability>
1

> <r_epik_Ionization_Penalty>
2.84534e-05

> <r_epik_Ionization_Penalty_Charging>
0

> <r_epik_Ionization_Penalty_Neutral>
2.84534e-05

> <r_epik_State_Penalty>
-0

> <r_epik_Charging_Adjusted_Penalty>
0

> <i_epik_Tot_Q>
0

> <i_epik_Tot_abs_Q>
0

> <r_epik_Metal_State_Penalty>
-0

> <b_epik_Metal_Only>
0

> <s_lp_Force_Field>
OPLS_2005

> <r_lp_Energy>
12.1235

> <b_lp_Chiralities_Consistent>
1

> <s_lp_Variant>
AV-unprocessed.smi:2426-1

> <Gold.Version>
5.8.1

> <Gold.Id.Protein>
6NUR|6NUR_protein|mol2

> <Gold.PLP.Fitness>
36.7353

> <Gold.PLP.PLP>
-29.2224

> <Gold.PLP.part.hbond>
-2.9130

> <Gold.PLP.part.metal>
0.0000

> <Gold.PLP.part.buried>
-4.7258

> <Gold.PLP.part.nonpolar>
-24.0076

> <Gold.PLP.part.repulsive>
1.8079

> <Gold.PLP.ligand.clash>
0.0000

> <Gold.PLP.ligand.torsion>
0.4557

> <Gold.PLP.Chemscore.Hbond>
2.7672

> <Gold.PLP.Chemscore.CHOScore>
0.0000

> <Gold.PLP.Chemscore.Metal>
0.0000

> <Gold.Chemscore.Hbonds>
donor molecule, donor type, donor heavy atom, donor atom, acceptor molecule, acceptor atom, score
      L1  H     6    23       P1  7948  0.93
      L1  H     9    24       P1  7948  0.82
      P1  H  7989  7998       L1     2  0.95

> <Gold.PLP.Chemscore.Internal.Correction>
0.1227

> <Gold.Rescore>
     Score         DG    S(hbond)    S(metal)    S(lipo)     H(rot)  DE(clash)    DE(int)     intcor
     12.54     -14.11       1.95        0.00      53.08       1.60       0.00       1.57       ----

> <Gold.Chemscore.Fitness>
12.5363

> <Gold.Chemscore.DG>
-14.1111

> <Gold.Chemscore.ZeroCoef>
-5.4800

> <Gold.Chemscore.Hbond>
1.9489

> <Gold.Chemscore.Metal>
0.0000

> <Gold.Chemscore.Lipo>
53.0810

> <Gold.Chemscore.Internal_Hbond>
0.0000

> <Gold.Chemscore.DEClash>
0.0000

> <Gold.Chemscore.DEInternal>
1.5748

> <Gold.Chemscore.Rot>
1.5971

> <Gold.Chemscore.Internal.Correction>
   9.000000E+99

> <Gold.Chemscore.Hbonds>
donor molecule, donor type, donor heavy atom, donor atom, acceptor molecule, acceptor atom, score
      L1  H     6    23       P1  7948  0.89
      L1  H     9    24       P1  7948  0.77
      P1  H  7989  7998       L1     2  0.05

> <Gold.Chemscore.Hbond.Weighted>
-6.5093

> <Gold.Chemscore.Metal.Weighted>
-0.0000

> <Gold.Chemscore.Lipo.Weighted>
-6.2105

> <Gold.Chemscore.Internal_Hbond.Weighted>
0.0000

> <Gold.Chemscore.DEClash.Weighted>
0.0000

> <Gold.Chemscore.DEInternal.Weighted>
1.5748

> <Gold.Chemscore.Rot.Weighted>
4.0886

> <Gold.Chemscore.Internal.Correction.Weighted>
   9.000000E+99

> <Gold.Protein.RotatedTorsions>
[ 6907 6896 6895 6894 ] final    8.34 input  -60.11 | X-H torsion
[ 7974 7965 7964 7962 ] final   92.78 input  175.53 | X-H torsion
[ 8008 7997 7996 7995 ] final -110.16 input   59.86 | X-H torsion
[ 10167 10162 10161 10158 ] final  -65.25 input  -65.29 | X-H torsion
[ 10718 10713 10712 10709 ] final  126.82 input   66.30 | X-H torsion
[ 10763 10752 10751 10750 ] final  147.53 input  -60.55 | X-H torsion
[ 11005 11000 10999 10996 ] final -110.80 input  -57.11 | X-H torsion

> <Gold.Protein.ActiveResidues>
 VAL166  LYS551  ARG553  GLY616  TRP617  ASP618  TYR619  PRO620  LYS621  CYS622 
 ASP623  PHE694  ASN695  SER759  ASP760  ASP761  ALA762  ILE779  LEU786  VAL792 
 PHE793  MET794  SER795  GLU796  ALA797  LYS798  CYS799  TRP800  GLU811  SER814 

> <Gold.Protein.RotatedAtoms>
  151.7045  135.0924  160.0256 H   0  0  0  0  0  0  0  0  0  0  0  0  # atno 6907 bound_to 6896
  152.3700  133.6402  159.6088 H   0  0  0  0  0  0  0  0  0  0  0  0  # atno 6908 bound_to 6896
  150.7666  133.9202  159.3437 H   0  0  0  0  0  0  0  0  0  0  0  0  # atno 6909 bound_to 6896
  145.4877  139.2277  143.2847 H   0  0  0  0  0  0  0  0  0  0  0  0  # atno 7974 bound_to 7965
  154.9703  140.0397  157.2231 H   0  0  0  0  0  0  0  0  0  0  0  0  # atno 8008 bound_to 7997
  154.7807  140.2818  155.6043 H   0  0  0  0  0  0  0  0  0  0  0  0  # atno 8009 bound_to 7997
  156.2936  140.2592  156.2632 H   0  0  0  0  0  0  0  0  0  0  0  0  # atno 8010 bound_to 7997
  140.5743  143.2320  151.6475 H   0  0  0  0  0  0  0  0  0  0  0  0  # atno 10167 bound_to 10162
  157.5386  131.1097  150.8895 H   0  0  0  0  0  0  0  0  0  0  0  0  # atno 10718 bound_to 10713
  154.0398  135.2890  155.3356 H   0  0  0  0  0  0  0  0  0  0  0  0  # atno 10763 bound_to 10752
  154.6936  135.5216  153.8430 H   0  0  0  0  0  0  0  0  0  0  0  0  # atno 10764 bound_to 10752
  153.0605  135.6612  154.0603 H   0  0  0  0  0  0  0  0  0  0  0  0  # atno 10765 bound_to 10752
  141.0771  133.9282  157.2366 H   0  0  0  0  0  0  0  0  0  0  0  0  # atno 11005 bound_to 11000
  146.2303  140.5669  142.8978 LP  0  0  0  0  0  0  0  0  0  0  0  0  # atno 17320 bound_to 7965
  144.7852  140.5921  143.6579 LP  0  0  0  0  0  0  0  0  0  0  0  0  # atno 17321 bound_to 7965
  139.5134  144.3444  152.0710 LP  0  0  0  0  0  0  0  0  0  0  0  0  # atno 17342 bound_to 10162
  140.2586  144.4092  150.6194 LP  0  0  0  0  0  0  0  0  0  0  0  0  # atno 17343 bound_to 10162
  156.9454  130.5400  149.5281 LP  0  0  0  0  0  0  0  0  0  0  0  0  # atno 17370 bound_to 10713
  156.0479  130.5552  150.8922 LP  0  0  0  0  0  0  0  0  0  0  0  0  # atno 17371 bound_to 10713
  139.9584  135.0160  156.9192 LP  0  0  0  0  0  0  0  0  0  0  0  0  # atno 17394 bound_to 11000
  140.5549  134.0591  155.7380 LP  0  0  0  0  0  0  0  0  0  0  0  0  # atno 17395 bound_to 11000

$$$$
