AV-unprocessed.smi:1219|AV-procd|sdf|5113|dock5
  -GOLD-   22720 4173D 1   1.00000     0.00000
 Structure written by MMmdl.
 43 44  0  0  0  0  0  0  0  0  2 V2000
  152.8855  140.2193  157.9283 O   0  0  0  0  0  0  0  0  0  0  0  0
  151.9695  140.6734  157.2424 C   0  0  0  0  0  0  0  0  0  0  0  0
  151.4795  140.0515  156.1599 N   0  0  0  0  0  0  0  0  0  0  0  0
  151.9449  138.7690  155.6385 C   0  0  0  0  0  0  0  0  0  0  0  0
  151.0024  138.1706  154.5716 C   0  0  1  0  0  0  0  0  0  0  0  0
  151.7164  137.1704  153.8739 O   0  0  0  0  0  0  0  0  0  0  0  0
  149.7218  137.5391  155.1599 C   0  0  0  0  0  0  0  0  0  0  0  0
  148.5903  137.5767  154.1989 N   0  3  0  0  0  0  0  0  0  0  0  0
  147.3867  136.8699  154.7084 C   0  0  0  0  0  0  0  0  0  0  0  0
  146.2870  136.8017  153.6346 C   0  0  0  0  0  0  0  0  0  0  0  0
  145.9243  138.2031  153.1258 C   0  0  0  0  0  0  0  0  0  0  0  0
  147.1867  138.9278  152.6407 C   0  0  0  0  0  0  0  0  0  0  0  0
  148.2616  138.9536  153.7397 C   0  0  0  0  0  0  0  0  0  0  0  0
  151.3357  141.8382  157.4633 N   0  0  0  0  0  0  0  0  0  0  0  0
  151.6083  142.8085  158.4640 C   0  0  0  0  0  0  0  0  0  0  0  0
  152.2880  142.3198  159.6026 C   0  0  0  0  0  0  0  0  0  0  0  0
  152.5988  143.2020  160.6557 C   0  0  0  0  0  0  0  0  0  0  0  0
  152.2198  144.5515  160.5432 C   0  0  0  0  0  0  0  0  0  0  0  0
  151.5453  144.9561  159.3765 C   0  0  0  0  0  0  0  0  0  0  0  0
  151.2460  144.1121  158.3664 N   0  0  0  0  0  0  0  0  0  0  0  0
  150.7199  140.4938  155.6633 H   0  0  0  0  0  0  0  0  0  0  0  0
  152.9490  138.8943  155.2298 H   0  0  0  0  0  0  0  0  0  0  0  0
  152.0382  138.0832  156.4814 H   0  0  0  0  0  0  0  0  0  0  0  0
  150.7499  138.9466  153.8505 H   0  0  0  0  0  0  0  0  0  0  0  0
  151.3544  137.0888  153.0043 H   0  0  0  0  0  0  0  0  0  0  0  0
  149.9418  136.5100  155.4491 H   0  0  0  0  0  0  0  0  0  0  0  0
  149.4137  138.0462  156.0752 H   0  0  0  0  0  0  0  0  0  0  0  0
  147.6543  135.8556  155.0079 H   0  0  0  0  0  0  0  0  0  0  0  0
  147.0147  137.3773  155.6001 H   0  0  0  0  0  0  0  0  0  0  0  0
  146.6280  136.1866  152.8008 H   0  0  0  0  0  0  0  0  0  0  0  0
  145.4008  136.3113  154.0384 H   0  0  0  0  0  0  0  0  0  0  0  0
  145.1945  138.1350  152.3184 H   0  0  0  0  0  0  0  0  0  0  0  0
  145.4541  138.7767  153.9255 H   0  0  0  0  0  0  0  0  0  0  0  0
  147.5805  138.4280  151.7546 H   0  0  0  0  0  0  0  0  0  0  0  0
  146.9388  139.9455  152.3375 H   0  0  0  0  0  0  0  0  0  0  0  0
  147.9140  139.5473  154.5868 H   0  0  0  0  0  0  0  0  0  0  0  0
  149.1508  139.4517  153.3545 H   0  0  0  0  0  0  0  0  0  0  0  0
  150.5814  142.0668  156.8328 H   0  0  0  0  0  0  0  0  0  0  0  0
  152.5715  141.2797  159.6732 H   0  0  0  0  0  0  0  0  0  0  0  0
  153.1179  142.8483  161.5341 H   0  0  0  0  0  0  0  0  0  0  0  0
  152.4399  145.2579  161.3299 H   0  0  0  0  0  0  0  0  0  0  0  0
  151.2363  145.9831  159.2506 H   0  0  0  0  0  0  0  0  0  0  0  0
  148.8959  137.0588  153.3868 H   0  0  0  0  0  0  0  0  0  0  0  0
  1  2  2  0  0  0  0
  2  3  1  0  0  0  0
  2 14  1  0  0  0  0
  3  4  1  0  0  0  0
  3 21  1  0  0  0  0
  4  5  1  0  0  0  0
  4 22  1  0  0  0  0
  4 23  1  0  0  0  0
  5  6  1  0  0  0  0
  5  7  1  0  0  0  0
  5 24  1  0  0  0  0
  6 25  1  0  0  0  0
  7  8  1  0  0  0  0
  7 26  1  0  0  0  0
  7 27  1  0  0  0  0
  8 13  1  0  0  0  0
  8  9  1  0  0  0  0
  8 43  1  0  0  0  0
  9 10  1  0  0  0  0
  9 28  1  0  0  0  0
  9 29  1  0  0  0  0
 10 11  1  0  0  0  0
 10 30  1  0  0  0  0
 10 31  1  0  0  0  0
 11 12  1  0  0  0  0
 11 32  1  0  0  0  0
 11 33  1  0  0  0  0
 12 13  1  0  0  0  0
 12 34  1  0  0  0  0
 12 35  1  0  0  0  0
 13 36  1  0  0  0  0
 13 37  1  0  0  0  0
 14 15  1  0  0  0  0
 14 38  1  0  0  0  0
 15 20  1  0  0  0  0
 15 16  2  0  0  0  0
 16 17  1  0  0  0  0
 16 39  1  0  0  0  0
 17 18  2  0  0  0  0
 17 40  1  0  0  0  0
 18 19  1  0  0  0  0
 18 41  1  0  0  0  0
 19 20  2  0  0  0  0
 19 42  1  0  0  0  0
M  CHG  1   8   1
M  END
> <s_m_source_file>
AV-unprocessed.smi

> <i_m_source_file_index>
1219

> <i_lp_mmshare_version>
43012

> <i_f3d_flags>
0

> <s_epik_input>
bjFbY0hdW2NIXVtjSF1bY0hdYzFbTkhdQyg9TylbTkhdW0NIMl1bQ0BIXShbT0hdKVtDSDJdTjJbQ0gyXVtDSDJdW0NIMl1bQ0gyXVtDSDJdMg==

> <s_epik_cmdline>
J2VwaWtfcHl0aG9uJywgJy1waCcsICc3LjAnLCAnLXRuJywgJzgnLCAnLW1hJywgJzIwMCcsICctbWV0YWxfYmluZGluZycsICctaW1hZScsICc8aW5maWxlLm1hZT4nLCAnLW9tYWUnLCAnPG91dGZpbGUubWFlPic=

> <r_epik_Ionization_Penalty>
0.00510026

> <r_epik_Ionization_Penalty_Charging>
0.00506051

> <r_epik_Ionization_Penalty_Neutral>
3.97538e-05

> <r_epik_State_Penalty>
0.00368188

> <r_epik_Charging_Adjusted_Penalty>
0.0087424

> <i_epik_Tot_Q>
1

> <i_epik_Tot_abs_Q>
1

> <r_epik_Metal_State_Penalty>
-0

> <b_epik_Metal_Only>
0

> <s_lp_Force_Field>
OPLS_2005

> <r_lp_Energy>
19.3775

> <b_lp_Chiralities_Consistent>
1

> <s_lp_Variant>
AV-unprocessed.smi:1219-2

> <Gold.Version>
5.8.1

> <Gold.Id.Protein>
6NUR|6NUR_protein|mol2

> <Gold.PLP.Fitness>
49.5020

> <Gold.PLP.PLP>
-36.1221

> <Gold.PLP.part.hbond>
-4.0000

> <Gold.PLP.part.metal>
0.0000

> <Gold.PLP.part.buried>
-4.5702

> <Gold.PLP.part.nonpolar>
-27.7509

> <Gold.PLP.part.repulsive>
0.3168

> <Gold.PLP.ligand.clash>
0.0000

> <Gold.PLP.ligand.torsion>
0.6502

> <Gold.PLP.Chemscore.Hbond>
4.8720

> <Gold.PLP.Chemscore.CHOScore>
0.0000

> <Gold.PLP.Chemscore.Metal>
0.0000

> <Gold.Chemscore.Hbonds>
donor molecule, donor type, donor heavy atom, donor atom, acceptor molecule, acceptor atom, score
      L1  H     6    25       P1  7949  0.93
      L1  H     8    43       P1  7948  2.00
      P1  H  7997  8008       L1     1  0.98
      P1  H 10752 10763       L1     6  1.00

> <Gold.PLP.Chemscore.Internal.Correction>
0.0643

> <Gold.Rescore>
     Score         DG    S(hbond)    S(metal)    S(lipo)     H(rot)  DE(clash)    DE(int)     intcor
     18.92     -21.07       3.45        0.00      87.29       2.41       0.08       2.07       ----

> <Gold.Chemscore.Fitness>
18.9178

> <Gold.Chemscore.DG>
-21.0663

> <Gold.Chemscore.ZeroCoef>
-5.4800

> <Gold.Chemscore.Hbond>
3.4534

> <Gold.Chemscore.Metal>
0.0000

> <Gold.Chemscore.Lipo>
87.2909

> <Gold.Chemscore.Internal_Hbond>
0.0000

> <Gold.Chemscore.DEClash>
0.0803

> <Gold.Chemscore.DEInternal>
2.0682

> <Gold.Chemscore.Rot>
2.4067

> <Gold.Chemscore.Internal.Correction>
   9.000000E+99

> <Gold.Chemscore.Hbonds>
donor molecule, donor type, donor heavy atom, donor atom, acceptor molecule, acceptor atom, score
      L1  H     6    25       P1  7949  0.70
      L1  H     8    43       P1  7948  1.00
      P1  H  7997  8008       L1     1  0.73
      P1  H 10752 10763       L1     6  0.43

> <Gold.Chemscore.Hbond.Weighted>
-11.5345

> <Gold.Chemscore.Metal.Weighted>
-0.0000

> <Gold.Chemscore.Lipo.Weighted>
-10.2130

> <Gold.Chemscore.Internal_Hbond.Weighted>
0.0000

> <Gold.Chemscore.DEClash.Weighted>
0.0803

> <Gold.Chemscore.DEInternal.Weighted>
2.0682

> <Gold.Chemscore.Rot.Weighted>
6.1612

> <Gold.Chemscore.Internal.Correction.Weighted>
   9.000000E+99

> <Gold.Protein.RotatedTorsions>
[ 6907 6896 6895 6894 ] final -105.24 input  -60.11 | X-H torsion
[ 7974 7965 7964 7962 ] final   86.36 input  175.53 | X-H torsion
[ 8008 7997 7996 7995 ] final  -76.37 input   59.86 | X-H torsion
[ 10167 10162 10161 10158 ] final  106.44 input  -65.29 | X-H torsion
[ 10718 10713 10712 10709 ] final  -73.77 input   66.30 | X-H torsion
[ 10763 10752 10751 10750 ] final   20.82 input  -60.55 | X-H torsion
[ 11005 11000 10999 10996 ] final   23.83 input  -57.11 | X-H torsion

> <Gold.Protein.ActiveResidues>
 VAL166  LYS551  ARG553  GLY616  TRP617  ASP618  TYR619  PRO620  LYS621  CYS622 
 ASP623  PHE694  ASN695  SER759  ASP760  ASP761  ALA762  ILE779  LEU786  VAL792 
 PHE793  MET794  SER795  GLU796  ALA797  LYS798  CYS799  TRP800  GLU811  SER814 

> <Gold.Protein.RotatedAtoms>
  150.7327  134.0156  159.3683 H   0  0  0  0  0  0  0  0  0  0  0  0  # atno 6907 bound_to 6896
  151.8118  135.0676  160.0423 H   0  0  0  0  0  0  0  0  0  0  0  0  # atno 6908 bound_to 6896
  152.3067  133.5674  159.5690 H   0  0  0  0  0  0  0  0  0  0  0  0  # atno 6909 bound_to 6896
  145.5734  139.2316  143.2393 H   0  0  0  0  0  0  0  0  0  0  0  0  # atno 7974 bound_to 7965
  154.5499  140.0728  156.8651 H   0  0  0  0  0  0  0  0  0  0  0  0  # atno 8008 bound_to 7997
  155.3013  140.3384  155.4229 H   0  0  0  0  0  0  0  0  0  0  0  0  # atno 8009 bound_to 7997
  156.1952  140.1701  156.7998 H   0  0  0  0  0  0  0  0  0  0  0  0  # atno 8010 bound_to 7997
  139.7009  144.7094  151.1187 H   0  0  0  0  0  0  0  0  0  0  0  0  # atno 10167 bound_to 10162
  156.0267  130.4401  150.2792 H   0  0  0  0  0  0  0  0  0  0  0  0  # atno 10718 bound_to 10713
  153.1046  135.6681  153.9610 H   0  0  0  0  0  0  0  0  0  0  0  0  # atno 10763 bound_to 10752
  153.9171  135.3018  155.3449 H   0  0  0  0  0  0  0  0  0  0  0  0  # atno 10764 bound_to 10752
  154.7467  135.5054  153.9292 H   0  0  0  0  0  0  0  0  0  0  0  0  # atno 10765 bound_to 10752
  140.3653  134.2081  155.7669 H   0  0  0  0  0  0  0  0  0  0  0  0  # atno 11005 bound_to 11000
  146.1768  140.6560  142.9207 LP  0  0  0  0  0  0  0  0  0  0  0  0  # atno 17320 bound_to 7965
  144.7427  140.4986  143.6857 LP  0  0  0  0  0  0  0  0  0  0  0  0  # atno 17321 bound_to 7965
  140.7709  143.5426  150.9296 LP  0  0  0  0  0  0  0  0  0  0  0  0  # atno 17342 bound_to 10162
  139.9107  143.6723  152.3115 LP  0  0  0  0  0  0  0  0  0  0  0  0  # atno 17343 bound_to 10162
  157.0896  131.0166  151.3126 LP  0  0  0  0  0  0  0  0  0  0  0  0  # atno 17370 bound_to 10713
  157.4864  130.7796  149.7465 LP  0  0  0  0  0  0  0  0  0  0  0  0  # atno 17371 bound_to 10713
  141.1971  133.8066  157.0640 LP  0  0  0  0  0  0  0  0  0  0  0  0  # atno 17394 bound_to 11000
  140.0594  134.9763  157.1278 LP  0  0  0  0  0  0  0  0  0  0  0  0  # atno 17395 bound_to 11000

$$$$
