AV-unprocessed.smi:658|AV-procd|sdf|3236|dock9
  -GOLD-   22720 0183D 1   1.00000     0.00000
 Structure written by MMmdl.
 37 37  0  0  0  0  0  0  0  0  3 V2000
  145.6287  136.1965  151.3343 C   0  0  0  0  0  0  0  0  0  0  0  0
  145.5299  135.4645  152.6850 C   0  0  2  0  0  0  0  0  0  0  0  0
  146.8648  134.9289  153.0357 N   0  3  0  0  0  0  0  0  0  0  0  0
  147.2453  135.0933  154.4530 C   0  0  0  0  0  0  0  0  0  0  0  0
  148.5235  134.3114  154.7701 C   0  0  0  0  0  0  0  0  0  0  0  0
  149.6707  135.2266  155.2137 C   0  0  0  0  0  0  0  0  0  0  0  0
  150.4535  134.5959  156.7552 S   0  0  0  0  0  0  0  0  0  0  0  0
  151.7097  135.5981  156.8893 N   0  5  0  0  0  0  0  0  0  0  0  0
  149.4551  134.7923  157.8175 O   0  0  0  0  0  0  0  0  0  0  0  0
  150.8644  133.2148  156.4616 O   0  0  0  0  0  0  0  0  0  0  0  0
  144.4679  134.3312  152.6822 C   0  0  1  0  0  0  0  0  0  0  0  0
  143.0297  134.8502  152.4905 C   0  0  0  0  0  0  0  0  0  0  0  0
  144.7660  133.3103  151.6856 N   0  0  0  0  0  0  0  0  0  0  0  0
  143.9433  132.8186  150.6928 C   0  0  0  0  0  0  0  0  0  0  0  0
  144.6522  131.8762  150.0046 C   0  0  0  0  0  0  0  0  0  0  0  0
  145.9162  131.8597  150.6569 C   0  0  0  0  0  0  0  0  0  0  0  0
  145.9808  132.7164  151.6631 N   0  0  0  0  0  0  0  0  0  0  0  0
  144.7004  136.7096  151.0820 H   0  0  0  0  0  0  0  0  0  0  0  0
  145.8576  135.5041  150.5235 H   0  0  0  0  0  0  0  0  0  0  0  0
  146.4142  136.9527  151.3566 H   0  0  0  0  0  0  0  0  0  0  0  0
  145.2414  136.2098  153.4287 H   0  0  0  0  0  0  0  0  0  0  0  0
  146.8893  133.9464  152.8032 H   0  0  0  0  0  0  0  0  0  0  0  0
  147.3938  136.1535  154.6622 H   0  0  0  0  0  0  0  0  0  0  0  0
  146.4327  134.7488  155.0935 H   0  0  0  0  0  0  0  0  0  0  0  0
  148.3188  133.5821  155.5550 H   0  0  0  0  0  0  0  0  0  0  0  0
  148.8327  133.7431  153.8920 H   0  0  0  0  0  0  0  0  0  0  0  0
  150.4408  135.2865  154.4443 H   0  0  0  0  0  0  0  0  0  0  0  0
  149.3120  136.2378  155.4072 H   0  0  0  0  0  0  0  0  0  0  0  0
  151.8357  135.8210  157.8838 H   0  0  0  0  0  0  0  0  0  0  0  0
  144.5067  133.8355  153.6537 H   0  0  0  0  0  0  0  0  0  0  0  0
  142.7215  135.4905  153.3168 H   0  0  0  0  0  0  0  0  0  0  0  0
  142.3192  134.0242  152.4445 H   0  0  0  0  0  0  0  0  0  0  0  0
  142.9295  135.4252  151.5693 H   0  0  0  0  0  0  0  0  0  0  0  0
  142.9326  133.1757  150.5598 H   0  0  0  0  0  0  0  0  0  0  0  0
  144.3196  131.2885  149.1618 H   0  0  0  0  0  0  0  0  0  0  0  0
  146.7820  131.2551  150.4308 H   0  0  0  0  0  0  0  0  0  0  0  0
  147.5559  135.4063  152.4747 H   0  0  0  0  0  0  0  0  0  0  0  0
  1  2  1  0  0  0  0
  1 18  1  0  0  0  0
  1 19  1  0  0  0  0
  1 20  1  0  0  0  0
  2  3  1  0  0  0  0
  2 11  1  0  0  0  0
  2 21  1  0  0  0  0
  3  4  1  0  0  0  0
  3 22  1  0  0  0  0
  3 37  1  0  0  0  0
  4  5  1  0  0  0  0
  4 23  1  0  0  0  0
  4 24  1  0  0  0  0
  5  6  1  0  0  0  0
  5 25  1  0  0  0  0
  5 26  1  0  0  0  0
  6  7  1  0  0  0  0
  6 27  1  0  0  0  0
  6 28  1  0  0  0  0
  7  8  1  0  0  0  0
  7  9  2  0  0  0  0
  7 10  2  0  0  0  0
  8 29  1  0  0  0  0
 11 12  1  0  0  0  0
 11 13  1  0  0  0  0
 11 30  1  0  0  0  0
 12 31  1  0  0  0  0
 12 32  1  0  0  0  0
 12 33  1  0  0  0  0
 13 17  1  0  0  0  0
 13 14  1  0  0  0  0
 14 15  2  0  0  0  0
 14 34  1  0  0  0  0
 15 16  1  0  0  0  0
 15 35  1  0  0  0  0
 16 17  2  0  0  0  0
 16 36  1  0  0  0  0
M  CHG  1   3   1
M  CHG  1   8  -1
M  END
> <s_m_source_file>
AV-unprocessed.smi

> <i_m_source_file_index>
658

> <i_lp_mmshare_version>
43012

> <i_f3d_flags>
0

> <s_epik_input>
bjFbY0hdW2NIXVtjSF1uMVtDQEBIXShbQ0gzXSlbQ0BIXShbQ0gzXSlbTkhdW0NIMl1bQ0gyXVtDSDJdUyg9TykoPU8pW05IMl0=

> <s_epik_cmdline>
J2VwaWtfcHl0aG9uJywgJy1waCcsICc3LjAnLCAnLXRuJywgJzgnLCAnLW1hJywgJzIwMCcsICctbWV0YWxfYmluZGluZycsICctaW1hZScsICc8aW5maWxlLm1hZT4nLCAnLW9tYWUnLCAnPG91dGZpbGUubWFlPic=

> <r_lp_tautomer_probability>
1

> <r_epik_Ionization_Penalty>
4.63642

> <r_epik_Ionization_Penalty_Charging>
4.63641

> <r_epik_Ionization_Penalty_Neutral>
1.08396e-05

> <r_epik_State_Penalty>
4.63466

> <r_epik_Charging_Adjusted_Penalty>
9.27106

> <i_epik_Tot_Q>
0

> <i_epik_Tot_abs_Q>
2

> <r_epik_Metal_State_Penalty>
0.890424

> <b_epik_Metal_Only>
1

> <s_lp_Force_Field>
OPLS_2005

> <r_lp_Energy>
-1.73265

> <b_lp_Chiralities_Consistent>
1

> <s_lp_Variant>
AV-unprocessed.smi:658-7

> <Gold.Version>
5.8.1

> <Gold.Id.Protein>
6NUR|6NUR_protein|mol2

> <Gold.PLP.Fitness>
46.7745

> <Gold.PLP.PLP>
-28.5217

> <Gold.PLP.part.hbond>
-3.0000

> <Gold.PLP.part.metal>
0.0000

> <Gold.PLP.part.buried>
-4.5180

> <Gold.PLP.part.nonpolar>
-21.4396

> <Gold.PLP.part.repulsive>
0.1262

> <Gold.PLP.ligand.clash>
0.0000

> <Gold.PLP.ligand.torsion>
1.4425

> <Gold.PLP.Chemscore.Hbond>
5.0000

> <Gold.PLP.Chemscore.CHOScore>
2.0000

> <Gold.PLP.Chemscore.Metal>
0.0000

> <Gold.Chemscore.Hbonds>
donor molecule, donor type, donor heavy atom, donor atom, acceptor molecule, acceptor atom, score
      L1  H     3    37       P1  7948  2.00
      P1  H  6896  6908       L1     9  0.52
      P1  H 10752 10765       L1     8  0.55
      L1  C    14    34       P1 10186  1.00
      L1  C    16    36       P1 10747  1.00

> <Gold.PLP.Chemscore.Internal.Correction>
0.1377

> <Gold.Rescore>
     Score         DG    S(hbond)    S(metal)    S(lipo)     H(rot)  DE(clash)    DE(int)     intcor
     11.42     -14.29       2.87        0.00      59.82       3.04       0.01       2.87       ----

> <Gold.Chemscore.Fitness>
11.4157

> <Gold.Chemscore.DG>
-14.2910

> <Gold.Chemscore.ZeroCoef>
-5.4800

> <Gold.Chemscore.Hbond>
2.8732

> <Gold.Chemscore.Metal>
0.0000

> <Gold.Chemscore.Lipo>
59.8223

> <Gold.Chemscore.Internal_Hbond>
0.0000

> <Gold.Chemscore.DEClash>
0.0098

> <Gold.Chemscore.DEInternal>
2.8655

> <Gold.Chemscore.Rot>
3.0409

> <Gold.Chemscore.Internal.Correction>
   9.000000E+99

> <Gold.Chemscore.Hbonds>
donor molecule, donor type, donor heavy atom, donor atom, acceptor molecule, acceptor atom, score
      L1  H     3    37       P1  7948  1.00
      P1  H  6896  6908       L1     9  0.04
      P1  H 10752 10765       L1     8  0.24

> <Gold.Chemscore.Hbond.Weighted>
-9.5966

> <Gold.Chemscore.Metal.Weighted>
-0.0000

> <Gold.Chemscore.Lipo.Weighted>
-6.9992

> <Gold.Chemscore.Internal_Hbond.Weighted>
0.0000

> <Gold.Chemscore.DEClash.Weighted>
0.0098

> <Gold.Chemscore.DEInternal.Weighted>
2.8655

> <Gold.Chemscore.Rot.Weighted>
7.7848

> <Gold.Chemscore.Internal.Correction.Weighted>
   9.000000E+99

> <Gold.Protein.RotatedTorsions>
[ 6907 6896 6895 6894 ] final  131.40 input  -60.11 | X-H torsion
[ 7974 7965 7964 7962 ] final -126.55 input  175.53 | X-H torsion
[ 8008 7997 7996 7995 ] final  110.99 input   59.86 | X-H torsion
[ 10167 10162 10161 10158 ] final -101.50 input  -65.29 | X-H torsion
[ 10718 10713 10712 10709 ] final    1.45 input   66.30 | X-H torsion
[ 10763 10752 10751 10750 ] final -136.27 input  -60.55 | X-H torsion
[ 11005 11000 10999 10996 ] final -140.48 input  -57.11 | X-H torsion

> <Gold.Protein.ActiveResidues>
 VAL166  LYS551  ARG553  GLY616  TRP617  ASP618  TYR619  PRO620  LYS621  CYS622 
 ASP623  PHE694  ASN695  SER759  ASP760  ASP761  ALA762  ILE779  LEU786  VAL792 
 PHE793  MET794  SER795  GLU796  ALA797  LYS798  CYS799  TRP800  GLU811  SER814 

> <Gold.Protein.RotatedAtoms>
  152.3430  133.6089  159.5889 H   0  0  0  0  0  0  0  0  0  0  0  0  # atno 6907 bound_to 6896
  150.7490  133.9693  159.3549 H   0  0  0  0  0  0  0  0  0  0  0  0  # atno 6908 bound_to 6896
  151.7555  135.0823  160.0388 H   0  0  0  0  0  0  0  0  0  0  0  0  # atno 6909 bound_to 6896
  144.9861  140.7687  143.4582 H   0  0  0  0  0  0  0  0  0  0  0  0  # atno 7974 bound_to 7965
  156.2092  140.3028  155.9695 H   0  0  0  0  0  0  0  0  0  0  0  0  # atno 8008 bound_to 7997
  155.2765  140.0436  157.3029 H   0  0  0  0  0  0  0  0  0  0  0  0  # atno 8009 bound_to 7997
  154.5676  140.2339  155.8248 H   0  0  0  0  0  0  0  0  0  0  0  0  # atno 8010 bound_to 7997
  140.2407  143.3541  152.0804 H   0  0  0  0  0  0  0  0  0  0  0  0  # atno 10167 bound_to 10162
  156.8484  130.5545  149.5671 H   0  0  0  0  0  0  0  0  0  0  0  0  # atno 10718 bound_to 10713
  154.8687  135.3677  154.5034 H   0  0  0  0  0  0  0  0  0  0  0  0  # atno 10763 bound_to 10752
  153.5674  135.7021  153.5525 H   0  0  0  0  0  0  0  0  0  0  0  0  # atno 10764 bound_to 10752
  153.3573  135.4056  155.1655 H   0  0  0  0  0  0  0  0  0  0  0  0  # atno 10765 bound_to 10752
  140.8419  134.2392  157.4806 H   0  0  0  0  0  0  0  0  0  0  0  0  # atno 11005 bound_to 11000
  145.2351  139.2097  143.5022 LP  0  0  0  0  0  0  0  0  0  0  0  0  # atno 17320 bound_to 7965
  146.3420  140.2236  142.8592 LP  0  0  0  0  0  0  0  0  0  0  0  0  # atno 17321 bound_to 7965
  139.5078  144.6839  151.5938 LP  0  0  0  0  0  0  0  0  0  0  0  0  # atno 17342 bound_to 10162
  140.6116  143.9426  150.6457 LP  0  0  0  0  0  0  0  0  0  0  0  0  # atno 17343 bound_to 10162
  156.0841  130.5844  150.9617 LP  0  0  0  0  0  0  0  0  0  0  0  0  # atno 17370 bound_to 10713
  157.6317  131.0920  150.8429 LP  0  0  0  0  0  0  0  0  0  0  0  0  # atno 17371 bound_to 10713
  139.8703  134.9639  156.4479 LP  0  0  0  0  0  0  0  0  0  0  0  0  # atno 17394 bound_to 11000
  140.8886  133.7865  155.9546 LP  0  0  0  0  0  0  0  0  0  0  0  0  # atno 17395 bound_to 11000

$$$$
