AV-unprocessed.smi:3132|AV-procd|sdf|11929|dock7
  -GOLD-   2272017313D 1   1.00000     0.00000
 Structure written by MMmdl.
 34 35  0  0  0  0  0  0  0  0  2 V2000
  151.7005  140.4470  155.9303 C   0  0  0  0  0  0  0  0  0  0  0  0
  150.2276  140.8664  156.0277 C   0  0  2  0  0  0  0  0  0  0  0  0
  149.6249  141.1272  154.6299 C   0  0  0  0  0  0  0  0  0  0  0  0
  148.1583  141.0982  154.6237 N   0  0  0  0  0  0  0  0  0  0  0  0
  147.3158  141.3743  155.6704 C   0  0  0  0  0  0  0  0  0  0  0  0
  146.0396  141.1983  155.2014 C   0  0  0  0  0  0  0  0  0  0  0  0
  146.1568  140.8294  153.8880 N   0  3  0  0  0  0  0  0  0  0  0  0
  147.4458  140.7718  153.5378 C   0  0  0  0  0  0  0  0  0  0  0  0
  150.1278  142.0587  156.8682 N   0  0  0  0  0  0  0  0  0  0  0  0
  150.4925  142.1412  158.1577 C   0  0  0  0  0  0  0  0  0  0  0  0
  150.9871  141.2020  158.7822 O   0  0  0  0  0  0  0  0  0  0  0  0
  150.2125  143.4756  158.8561 C   0  0  2  0  0  0  0  0  0  0  0  0
  150.9211  144.6823  158.2138 C   0  0  0  0  0  0  0  0  0  0  0  0
  152.0059  145.0331  159.2127 C   0  0  0  0  0  0  0  0  0  0  0  0
  151.3676  144.6024  160.5251 C   0  0  0  0  0  0  0  0  0  0  0  0
  150.7204  143.3854  160.1866 O   0  0  0  0  0  0  0  0  0  0  0  0
  151.8118  139.5436  155.3297 H   0  0  0  0  0  0  0  0  0  0  0  0
  152.1162  140.2377  156.9168 H   0  0  0  0  0  0  0  0  0  0  0  0
  152.3078  141.2280  155.4714 H   0  0  0  0  0  0  0  0  0  0  0  0
  149.6894  140.0396  156.4948 H   0  0  0  0  0  0  0  0  0  0  0  0
  149.9463  142.0954  154.2434 H   0  0  0  0  0  0  0  0  0  0  0  0
  149.9694  140.3738  153.9197 H   0  0  0  0  0  0  0  0  0  0  0  0
  147.6776  141.6570  156.6485 H   0  0  0  0  0  0  0  0  0  0  0  0
  145.0825  141.3033  155.6913 H   0  0  0  0  0  0  0  0  0  0  0  0
  147.8344  140.5036  152.5714 H   0  0  0  0  0  0  0  0  0  0  0  0
  149.7271  142.8819  156.4416 H   0  0  0  0  0  0  0  0  0  0  0  0
  149.1375  143.6595  158.8964 H   0  0  0  0  0  0  0  0  0  0  0  0
  151.3253  144.4882  157.2191 H   0  0  0  0  0  0  0  0  0  0  0  0
  150.2189  145.5119  158.1219 H   0  0  0  0  0  0  0  0  0  0  0  0
  152.9014  144.4409  159.0194 H   0  0  0  0  0  0  0  0  0  0  0  0
  152.2804  146.0883  159.1959 H   0  0  0  0  0  0  0  0  0  0  0  0
  152.0960  144.4622  161.3238 H   0  0  0  0  0  0  0  0  0  0  0  0
  150.6258  145.3314  160.8550 H   0  0  0  0  0  0  0  0  0  0  0  0
  145.3815  140.6252  153.2701 H   0  0  0  0  0  0  0  0  0  0  0  0
  1  2  1  0  0  0  0
  1 17  1  0  0  0  0
  1 18  1  0  0  0  0
  1 19  1  0  0  0  0
  2  3  1  0  0  0  0
  2  9  1  0  0  0  0
  2 20  1  0  0  0  0
  3  4  1  0  0  0  0
  3 21  1  0  0  0  0
  3 22  1  0  0  0  0
  4  8  1  0  0  0  0
  4  5  1  0  0  0  0
  5  6  2  0  0  0  0
  5 23  1  0  0  0  0
  6  7  1  0  0  0  0
  6 24  1  0  0  0  0
  7  8  2  0  0  0  0
  7 34  1  0  0  0  0
  8 25  1  0  0  0  0
  9 10  1  0  0  0  0
  9 26  1  0  0  0  0
 10 11  2  0  0  0  0
 10 12  1  0  0  0  0
 12 16  1  0  0  0  0
 12 13  1  0  0  0  0
 12 27  1  0  0  0  0
 13 14  1  0  0  0  0
 13 28  1  0  0  0  0
 13 29  1  0  0  0  0
 14 15  1  0  0  0  0
 14 30  1  0  0  0  0
 14 31  1  0  0  0  0
 15 16  1  0  0  0  0
 15 32  1  0  0  0  0
 15 33  1  0  0  0  0
M  CHG  1   7   1
M  END
> <s_m_source_file>
AV-unprocessed.smi

> <i_m_source_file_index>
3132

> <i_lp_mmshare_version>
43012

> <i_f3d_flags>
0

> <s_epik_input>
W2NIXTFuW2NIXVtjSF1uMVtDSDJdW0NAQEhdKFtDSDNdKVtOSF1DKD1PKVtDQEBIXTJbQ0gyXVtDSDJdW0NIMl1PMg==

> <s_epik_cmdline>
J2VwaWtfcHl0aG9uJywgJy1waCcsICc3LjAnLCAnLXRuJywgJzgnLCAnLW1hJywgJzIwMCcsICctbWV0YWxfYmluZGluZycsICctaW1hZScsICc8aW5maWxlLm1hZT4nLCAnLW9tYWUnLCAnPG91dGZpbGUubWFlPic=

> <r_lp_tautomer_probability>
1

> <r_epik_Ionization_Penalty>
0.250802

> <r_epik_Ionization_Penalty_Charging>
0

> <r_epik_Ionization_Penalty_Neutral>
0.250802

> <r_epik_State_Penalty>
0.242139

> <r_epik_Charging_Adjusted_Penalty>
0.242139

> <i_epik_Tot_Q>
1

> <i_epik_Tot_abs_Q>
1

> <r_epik_Metal_State_Penalty>
0.533361

> <b_epik_Metal_Only>
0

> <s_lp_Force_Field>
OPLS_2005

> <r_lp_Energy>
20.2127

> <b_lp_Chiralities_Consistent>
1

> <s_lp_Variant>
AV-unprocessed.smi:3132-1

> <Gold.Version>
5.8.1

> <Gold.Id.Protein>
6NUR|6NUR_protein|mol2

> <Gold.PLP.Fitness>
45.9656

> <Gold.PLP.PLP>
-35.0301

> <Gold.PLP.part.hbond>
-3.0000

> <Gold.PLP.part.metal>
0.0000

> <Gold.PLP.part.buried>
-5.2748

> <Gold.PLP.part.nonpolar>
-28.2854

> <Gold.PLP.part.repulsive>
0.1161

> <Gold.PLP.ligand.clash>
0.0000

> <Gold.PLP.ligand.torsion>
0.5444

> <Gold.PLP.Chemscore.Hbond>
3.0000

> <Gold.PLP.Chemscore.CHOScore>
1.0000

> <Gold.PLP.Chemscore.Metal>
0.0000

> <Gold.Chemscore.Hbonds>
donor molecule, donor type, donor heavy atom, donor atom, acceptor molecule, acceptor atom, score
      L1  H     7    34       P1 10175  2.00
      L1  H     9    26       P1  8028  0.67
      L1  C     8    25       P1  7957  1.00

> <Gold.PLP.Chemscore.Internal.Correction>
0.0244

> <Gold.Rescore>
     Score         DG    S(hbond)    S(metal)    S(lipo)     H(rot)  DE(clash)    DE(int)     intcor
     14.84     -15.70       1.97        0.00      73.44       1.93       0.12       0.74       ----

> <Gold.Chemscore.Fitness>
14.8404

> <Gold.Chemscore.DG>
-15.7008

> <Gold.Chemscore.ZeroCoef>
-5.4800

> <Gold.Chemscore.Hbond>
1.9675

> <Gold.Chemscore.Metal>
0.0000

> <Gold.Chemscore.Lipo>
73.4380

> <Gold.Chemscore.Internal_Hbond>
0.0000

> <Gold.Chemscore.DEClash>
0.1214

> <Gold.Chemscore.DEInternal>
0.7390

> <Gold.Chemscore.Rot>
1.9308

> <Gold.Chemscore.Internal.Correction>
   9.000000E+99

> <Gold.Chemscore.Hbonds>
donor molecule, donor type, donor heavy atom, donor atom, acceptor molecule, acceptor atom, score
      L1  H     7    34       P1 10175  0.88
      L1  H     9    26       P1  8028  0.67

> <Gold.Chemscore.Hbond.Weighted>
-6.5715

> <Gold.Chemscore.Metal.Weighted>
-0.0000

> <Gold.Chemscore.Lipo.Weighted>
-8.5922

> <Gold.Chemscore.Internal_Hbond.Weighted>
0.0000

> <Gold.Chemscore.DEClash.Weighted>
0.1214

> <Gold.Chemscore.DEInternal.Weighted>
0.7390

> <Gold.Chemscore.Rot.Weighted>
4.9429

> <Gold.Chemscore.Internal.Correction.Weighted>
   9.000000E+99

> <Gold.Protein.RotatedTorsions>
[ 6907 6896 6895 6894 ] final   17.81 input  -60.11 | X-H torsion
[ 7974 7965 7964 7962 ] final  114.92 input  175.53 | X-H torsion
[ 8008 7997 7996 7995 ] final  -44.23 input   59.86 | X-H torsion
[ 10167 10162 10161 10158 ] final -167.03 input  -65.29 | X-H torsion
[ 10718 10713 10712 10709 ] final  -19.37 input   66.30 | X-H torsion
[ 10763 10752 10751 10750 ] final  142.62 input  -60.55 | X-H torsion
[ 11005 11000 10999 10996 ] final -131.62 input  -57.11 | X-H torsion

> <Gold.Protein.ActiveResidues>
 VAL166  LYS551  ARG553  GLY616  TRP617  ASP618  TYR619  PRO620  LYS621  CYS622 
 ASP623  PHE694  ASN695  SER759  ASP760  ASP761  ALA762  ILE779  LEU786  VAL792 
 PHE793  MET794  SER795  GLU796  ALA797  LYS798  CYS799  TRP800  GLU811  SER814 

> <Gold.Protein.RotatedAtoms>
  151.8555  135.0542  160.0463 H   0  0  0  0  0  0  0  0  0  0  0  0  # atno 6907 bound_to 6896
  152.2703  133.5372  159.5443 H   0  0  0  0  0  0  0  0  0  0  0  0  # atno 6908 bound_to 6896
  150.7149  134.0623  159.3878 H   0  0  0  0  0  0  0  0  0  0  0  0  # atno 6909 bound_to 6896
  145.1985  139.2964  143.4331 H   0  0  0  0  0  0  0  0  0  0  0  0  # atno 7974 bound_to 7965
  154.3997  140.1427  156.3648 H   0  0  0  0  0  0  0  0  0  0  0  0  # atno 8008 bound_to 7997
  155.8147  140.3471  155.5458 H   0  0  0  0  0  0  0  0  0  0  0  0  # atno 8009 bound_to 7997
  155.8350  140.0918  157.1760 H   0  0  0  0  0  0  0  0  0  0  0  0  # atno 8010 bound_to 7997
  139.6076  144.0881  152.1809 H   0  0  0  0  0  0  0  0  0  0  0  0  # atno 10167 bound_to 10162
  156.5465  130.4691  149.6473 H   0  0  0  0  0  0  0  0  0  0  0  0  # atno 10718 bound_to 10713
  153.9589  135.2962  155.3434 H   0  0  0  0  0  0  0  0  0  0  0  0  # atno 10763 bound_to 10752
  154.7386  135.5035  153.9086 H   0  0  0  0  0  0  0  0  0  0  0  0  # atno 10764 bound_to 10752
  153.0956  135.6720  153.9879 H   0  0  0  0  0  0  0  0  0  0  0  0  # atno 10765 bound_to 10752
  140.9243  134.1404  157.4288 H   0  0  0  0  0  0  0  0  0  0  0  0  # atno 11005 bound_to 11000
  146.3422  140.2221  142.8591 LP  0  0  0  0  0  0  0  0  0  0  0  0  # atno 17320 bound_to 7965
  144.9971  140.8599  143.5304 LP  0  0  0  0  0  0  0  0  0  0  0  0  # atno 17321 bound_to 7965
  140.0492  144.5946  150.7349 LP  0  0  0  0  0  0  0  0  0  0  0  0  # atno 17342 bound_to 10162
  140.7296  143.2674  151.3999 LP  0  0  0  0  0  0  0  0  0  0  0  0  # atno 17343 bound_to 10162
  156.2923  130.7131  151.1983 LP  0  0  0  0  0  0  0  0  0  0  0  0  # atno 17370 bound_to 10713
  157.7395  131.0528  150.5224 LP  0  0  0  0  0  0  0  0  0  0  0  0  # atno 17371 bound_to 10713
  139.8782  134.9982  156.5890 LP  0  0  0  0  0  0  0  0  0  0  0  0  # atno 17394 bound_to 11000
  140.7947  133.8554  155.8675 LP  0  0  0  0  0  0  0  0  0  0  0  0  # atno 17395 bound_to 11000

$$$$
