AV-unprocessed.smi:2843|AV-procd|sdf|10937|dock3
  -GOLD-   2272015383D 1   1.00000     0.00000
 Structure written by MMmdl.
 29 29  0  0  0  0  0  0  0  0  1 V2000
  153.1307  142.6735  162.9693 C   0  0  0  0  0  0  0  0  0  0  0  0
  152.5947  142.6246  161.5797 C   0  0  0  0  0  0  0  0  0  0  0  0
  153.0739  142.0991  160.4137 C   0  0  0  0  0  0  0  0  0  0  0  0
  152.0563  142.3992  159.4665 C   0  0  0  0  0  0  0  0  0  0  0  0
  152.0165  142.0666  158.0025 C   0  0  0  0  0  0  0  0  0  0  0  0
  152.2528  140.2535  157.7785 S   0  0  0  0  0  0  0  0  0  0  0  0
  153.5496  139.8613  158.3514 O   0  0  0  0  0  0  0  0  0  0  0  0
  151.0244  139.5638  158.2021 O   0  0  0  0  0  0  0  0  0  0  0  0
  152.3766  140.0998  156.0659 N   0  0  0  0  0  0  0  0  0  0  0  0
  152.5748  138.7615  155.5132 C   0  0  0  0  0  0  0  0  0  0  0  0
  151.2842  138.2618  154.8515 C   0  0  0  0  0  0  0  0  0  0  0  0
  150.5838  139.3577  154.0376 C   0  0  0  0  0  0  0  0  0  0  0  0
  149.5181  138.7993  153.3003 O   0  0  0  0  0  0  0  0  0  0  0  0
  151.0515  143.0588  160.0191 N   0  0  0  0  0  0  0  0  0  0  0  0
  151.3857  143.2060  161.3698 O   0  0  0  0  0  0  0  0  0  0  0  0
  154.0755  142.1344  163.0422 H   0  0  0  0  0  0  0  0  0  0  0  0
  152.4290  142.2211  163.6702 H   0  0  0  0  0  0  0  0  0  0  0  0
  153.3038  143.7038  163.2804 H   0  0  0  0  0  0  0  0  0  0  0  0
  154.0060  141.5751  160.2622 H   0  0  0  0  0  0  0  0  0  0  0  0
  151.0631  142.3472  157.5533 H   0  0  0  0  0  0  0  0  0  0  0  0
  152.8061  142.5879  157.4619 H   0  0  0  0  0  0  0  0  0  0  0  0
  153.0689  140.7499  155.6942 H   0  0  0  0  0  0  0  0  0  0  0  0
  153.3866  138.7939  154.7854 H   0  0  0  0  0  0  0  0  0  0  0  0
  152.8800  138.0851  156.3124 H   0  0  0  0  0  0  0  0  0  0  0  0
  151.5132  137.4163  154.2008 H   0  0  0  0  0  0  0  0  0  0  0  0
  150.6033  137.8878  155.6179 H   0  0  0  0  0  0  0  0  0  0  0  0
  150.1923  140.1349  154.6950 H   0  0  0  0  0  0  0  0  0  0  0  0
  151.2829  139.8327  153.3485 H   0  0  0  0  0  0  0  0  0  0  0  0
  149.5489  139.1419  152.4199 H   0  0  0  0  0  0  0  0  0  0  0  0
  1  2  1  0  0  0  0
  1 16  1  0  0  0  0
  1 17  1  0  0  0  0
  1 18  1  0  0  0  0
  2 15  1  0  0  0  0
  2  3  2  0  0  0  0
  3  4  1  0  0  0  0
  3 19  1  0  0  0  0
  4  5  1  0  0  0  0
  4 14  2  0  0  0  0
  5  6  1  0  0  0  0
  5 20  1  0  0  0  0
  5 21  1  0  0  0  0
  6  7  2  0  0  0  0
  6  8  2  0  0  0  0
  6  9  1  0  0  0  0
  9 10  1  0  0  0  0
  9 22  1  0  0  0  0
 10 11  1  0  0  0  0
 10 23  1  0  0  0  0
 10 24  1  0  0  0  0
 11 12  1  0  0  0  0
 11 25  1  0  0  0  0
 11 26  1  0  0  0  0
 12 13  1  0  0  0  0
 12 27  1  0  0  0  0
 12 28  1  0  0  0  0
 13 29  1  0  0  0  0
 14 15  1  0  0  0  0
M  END
> <s_m_source_file>
AV-unprocessed.smi

> <i_m_source_file_index>
2843

> <i_lp_mmshare_version>
43012

> <i_f3d_flags>
0

> <s_epik_input>
W0NIM11jMVtjSF1jKG5vMSlbQ0gyXVMoPU8pKD1PKVtOSF1bQ0gyXVtDSDJdW0NIMl1bT0hd

> <s_epik_cmdline>
J2VwaWtfcHl0aG9uJywgJy1waCcsICc3LjAnLCAnLXRuJywgJzgnLCAnLW1hJywgJzIwMCcsICctbWV0YWxfYmluZGluZycsICctaW1hZScsICc8aW5maWxlLm1hZT4nLCAnLW9tYWUnLCAnPG91dGZpbGUubWFlPic=

> <r_lp_tautomer_probability>
1

> <r_epik_Ionization_Penalty>
0.000153409

> <r_epik_Ionization_Penalty_Charging>
0

> <r_epik_Ionization_Penalty_Neutral>
0.000153409

> <r_epik_State_Penalty>
-0

> <r_epik_Charging_Adjusted_Penalty>
0

> <i_epik_Tot_Q>
0

> <i_epik_Tot_abs_Q>
0

> <r_epik_Metal_State_Penalty>
0.110712

> <b_epik_Metal_Only>
0

> <s_lp_Force_Field>
OPLS_2005

> <r_lp_Energy>
-3.16936

> <b_lp_Chiralities_Consistent>
1

> <s_lp_Variant>
AV-unprocessed.smi:2843-1

> <Gold.Version>
5.8.1

> <Gold.Id.Protein>
6NUR|6NUR_protein|mol2

> <Gold.PLP.Fitness>
39.6222

> <Gold.PLP.PLP>
-33.8344

> <Gold.PLP.part.hbond>
-5.7818

> <Gold.PLP.part.metal>
0.0000

> <Gold.PLP.part.buried>
-3.8094

> <Gold.PLP.part.nonpolar>
-23.7970

> <Gold.PLP.part.repulsive>
0.1742

> <Gold.PLP.ligand.clash>
0.0000

> <Gold.PLP.ligand.torsion>
0.5808

> <Gold.PLP.Chemscore.Hbond>
2.2608

> <Gold.PLP.Chemscore.CHOScore>
0.0000

> <Gold.PLP.Chemscore.Metal>
0.0000

> <Gold.Chemscore.Hbonds>
donor molecule, donor type, donor heavy atom, donor atom, acceptor molecule, acceptor atom, score
      L1  H    13    29       P1  7957  1.00
      P1  H  6933  6945       L1    15  0.27
      P1  H  7997  8008       L1     7  1.00

> <Gold.PLP.Chemscore.Internal.Correction>
0.1670

> <Gold.Rescore>
     Score         DG    S(hbond)    S(metal)    S(lipo)     H(rot)  DE(clash)    DE(int)     intcor
     12.16     -12.79       1.95        0.00      74.52       3.09       0.02       0.61       ----

> <Gold.Chemscore.Fitness>
12.1568

> <Gold.Chemscore.DG>
-12.7855

> <Gold.Chemscore.ZeroCoef>
-5.4800

> <Gold.Chemscore.Hbond>
1.9480

> <Gold.Chemscore.Metal>
0.0000

> <Gold.Chemscore.Lipo>
74.5189

> <Gold.Chemscore.Internal_Hbond>
0.0000

> <Gold.Chemscore.DEClash>
0.0154

> <Gold.Chemscore.DEInternal>
0.6133

> <Gold.Chemscore.Rot>
3.0935

> <Gold.Chemscore.Internal.Correction>
   9.000000E+99

> <Gold.Chemscore.Hbonds>
donor molecule, donor type, donor heavy atom, donor atom, acceptor molecule, acceptor atom, score
      L1  H    13    29       P1  7957  0.87
      P1  H  6933  6945       L1    15  0.02
      P1  H  7997  8008       L1     7  0.75

> <Gold.Chemscore.Hbond.Weighted>
-6.5063

> <Gold.Chemscore.Metal.Weighted>
-0.0000

> <Gold.Chemscore.Lipo.Weighted>
-8.7187

> <Gold.Chemscore.Internal_Hbond.Weighted>
0.0000

> <Gold.Chemscore.DEClash.Weighted>
0.0154

> <Gold.Chemscore.DEInternal.Weighted>
0.6133

> <Gold.Chemscore.Rot.Weighted>
7.9195

> <Gold.Chemscore.Internal.Correction.Weighted>
   9.000000E+99

> <Gold.Protein.RotatedTorsions>
[ 6907 6896 6895 6894 ] final -177.40 input  -60.11 | X-H torsion
[ 7974 7965 7964 7962 ] final  176.96 input  175.53 | X-H torsion
[ 8008 7997 7996 7995 ] final -103.08 input   59.86 | X-H torsion
[ 10167 10162 10161 10158 ] final -153.79 input  -65.29 | X-H torsion
[ 10718 10713 10712 10709 ] final  103.74 input   66.30 | X-H torsion
[ 10763 10752 10751 10750 ] final  141.14 input  -60.55 | X-H torsion
[ 11005 11000 10999 10996 ] final  -22.54 input  -57.11 | X-H torsion

> <Gold.Protein.ActiveResidues>
 VAL166  LYS551  ARG553  GLY616  TRP617  ASP618  TYR619  PRO620  LYS621  CYS622 
 ASP623  PHE694  ASN695  SER759  ASP760  ASP761  ALA762  ILE779  LEU786  VAL792 
 PHE793  MET794  SER795  GLU796  ALA797  LYS798  CYS799  TRP800  GLU811  SER814 

> <Gold.Protein.RotatedAtoms>
  151.6203  133.3339  159.3086 H   0  0  0  0  0  0  0  0  0  0  0  0  # atno 6907 bound_to 6896
  150.8109  134.7267  159.6699 H   0  0  0  0  0  0  0  0  0  0  0  0  # atno 6908 bound_to 6896
  152.4206  134.5967  160.0040 H   0  0  0  0  0  0  0  0  0  0  0  0  # atno 6909 bound_to 6896
  144.7176  140.0175  143.6440 H   0  0  0  0  0  0  0  0  0  0  0  0  # atno 7974 bound_to 7965
  154.8658  140.0425  157.1693 H   0  0  0  0  0  0  0  0  0  0  0  0  # atno 8008 bound_to 7997
  154.8792  140.2970  155.5415 H   0  0  0  0  0  0  0  0  0  0  0  0  # atno 8009 bound_to 7997
  156.2999  140.2414  156.3792 H   0  0  0  0  0  0  0  0  0  0  0  0  # atno 8010 bound_to 7997
  139.7067  143.9174  152.2451 H   0  0  0  0  0  0  0  0  0  0  0  0  # atno 10167 bound_to 10162
  157.6763  131.0786  150.5601 H   0  0  0  0  0  0  0  0  0  0  0  0  # atno 10718 bound_to 10713
  153.9342  135.2987  155.3445 H   0  0  0  0  0  0  0  0  0  0  0  0  # atno 10763 bound_to 10752
  154.7511  135.4980  153.9293 H   0  0  0  0  0  0  0  0  0  0  0  0  # atno 10764 bound_to 10752
  153.1075  135.6750  153.9664 H   0  0  0  0  0  0  0  0  0  0  0  0  # atno 10765 bound_to 10752
  140.8667  133.7749  156.0138 H   0  0  0  0  0  0  0  0  0  0  0  0  # atno 11005 bound_to 11000
  146.0208  139.3249  143.0814 LP  0  0  0  0  0  0  0  0  0  0  0  0  # atno 17320 bound_to 7965
  145.8570  140.9497  143.0720 LP  0  0  0  0  0  0  0  0  0  0  0  0  # atno 17321 bound_to 7965
  139.9032  144.6900  150.8643 LP  0  0  0  0  0  0  0  0  0  0  0  0  # atno 17342 bound_to 10162
  140.7723  143.3498  151.2037 LP  0  0  0  0  0  0  0  0  0  0  0  0  # atno 17343 bound_to 10162
  156.5904  130.4328  149.5939 LP  0  0  0  0  0  0  0  0  0  0  0  0  # atno 17370 bound_to 10713
  156.2588  130.6950  151.1712 LP  0  0  0  0  0  0  0  0  0  0  0  0  # atno 17371 bound_to 10713
  140.8620  134.2829  157.5230 LP  0  0  0  0  0  0  0  0  0  0  0  0  # atno 17394 bound_to 11000
  139.8709  134.9523  156.4111 LP  0  0  0  0  0  0  0  0  0  0  0  0  # atno 17395 bound_to 11000

$$$$
