AV-unprocessed.smi:2511|AV-procd|sdf|9889|dock1
  -GOLD-   2272013523D 1   1.00000     0.00000
 Structure written by MMmdl.
 40 41  0  0  0  0  0  0  0  0  1 V2000
  144.2685  132.9209  148.3956 N   0  0  0  0  0  0  0  0  0  0  0  0
  144.2290  132.6907  149.7123 C   0  0  0  0  0  0  0  0  0  0  0  0
  143.8160  131.6302  150.1794 O   0  0  0  0  0  0  0  0  0  0  0  0
  144.7600  133.7866  150.5979 C   0  0  0  0  0  0  0  0  0  0  0  0
  145.1506  133.4946  151.9246 C   0  0  0  0  0  0  0  0  0  0  0  0
  145.6385  134.5331  152.7405 C   0  0  0  0  0  0  0  0  0  0  0  0
  145.7267  135.8399  152.2058 C   0  0  0  0  0  0  0  0  0  0  0  0
  146.1875  136.9747  152.9265 N   0  0  0  0  0  0  0  0  0  0  0  0
  146.6679  138.1404  152.4508 C   0  0  0  0  0  0  0  0  0  0  0  0
  146.7951  138.4116  151.2590 O   0  0  0  0  0  0  0  0  0  0  0  0
  146.9935  139.0338  153.4030 N   0  0  0  0  0  0  0  0  0  0  0  0
  147.5383  140.3868  153.2459 C   0  0  1  0  0  0  0  0  0  0  0  0
  146.5798  141.4167  153.8738 C   0  0  0  0  0  0  0  0  0  0  0  0
  146.5653  141.3354  155.4096 C   0  0  0  0  0  0  0  0  0  0  0  0
  147.9809  141.4717  155.9917 C   0  0  0  0  0  0  0  0  0  0  0  0
  148.9434  140.4184  155.4038 C   0  0  2  0  0  0  0  0  0  0  0  0
  150.3635  140.5375  155.9948 C   0  0  0  0  0  0  0  0  0  0  0  0
  150.3630  140.2417  157.2950 F   0  0  0  0  0  0  0  0  0  0  0  0
  151.1922  139.7052  155.3642 F   0  0  0  0  0  0  0  0  0  0  0  0
  150.8210  141.7795  155.8356 F   0  0  0  0  0  0  0  0  0  0  0  0
  148.9509  140.5102  153.8609 C   0  0  0  0  0  0  0  0  0  0  0  0
  145.2930  136.0338  150.8790 C   0  0  0  0  0  0  0  0  0  0  0  0
  144.8262  135.0421  150.0917 N   0  0  0  0  0  0  0  0  0  0  0  0
  143.9235  132.2251  147.7508 H   0  0  0  0  0  0  0  0  0  0  0  0
  144.6422  133.7955  148.0561 H   0  0  0  0  0  0  0  0  0  0  0  0
  145.0800  132.4919  152.3208 H   0  0  0  0  0  0  0  0  0  0  0  0
  145.9204  134.3064  153.7567 H   0  0  0  0  0  0  0  0  0  0  0  0
  146.0757  136.9233  153.9286 H   0  0  0  0  0  0  0  0  0  0  0  0
  146.8366  138.7402  154.3564 H   0  0  0  0  0  0  0  0  0  0  0  0
  147.5991  140.6115  152.1797 H   0  0  0  0  0  0  0  0  0  0  0  0
  146.8883  142.4194  153.5748 H   0  0  0  0  0  0  0  0  0  0  0  0
  145.5707  141.2822  153.4823 H   0  0  0  0  0  0  0  0  0  0  0  0
  145.9223  142.1176  155.8141 H   0  0  0  0  0  0  0  0  0  0  0  0
  146.1296  140.3873  155.7267 H   0  0  0  0  0  0  0  0  0  0  0  0
  148.3608  142.4742  155.7901 H   0  0  0  0  0  0  0  0  0  0  0  0
  147.9347  141.3734  157.0766 H   0  0  0  0  0  0  0  0  0  0  0  0
  148.5637  139.4332  155.6792 H   0  0  0  0  0  0  0  0  0  0  0  0
  149.6110  139.7494  153.4440 H   0  0  0  0  0  0  0  0  0  0  0  0
  149.3792  141.4680  153.5629 H   0  0  0  0  0  0  0  0  0  0  0  0
  145.3261  137.0157  150.4299 H   0  0  0  0  0  0  0  0  0  0  0  0
  1  2  1  0  0  0  0
  1 24  1  0  0  0  0
  1 25  1  0  0  0  0
  2  3  2  0  0  0  0
  2  4  1  0  0  0  0
  4 23  1  0  0  0  0
  4  5  2  0  0  0  0
  5  6  1  0  0  0  0
  5 26  1  0  0  0  0
  6  7  2  0  0  0  0
  6 27  1  0  0  0  0
  7  8  1  0  0  0  0
  7 22  1  0  0  0  0
  8  9  1  0  0  0  0
  8 28  1  0  0  0  0
  9 10  2  0  0  0  0
  9 11  1  0  0  0  0
 11 12  1  0  0  0  0
 11 29  1  0  0  0  0
 12 21  1  0  0  0  0
 12 13  1  0  0  0  0
 12 30  1  0  0  0  0
 13 14  1  0  0  0  0
 13 31  1  0  0  0  0
 13 32  1  0  0  0  0
 14 15  1  0  0  0  0
 14 33  1  0  0  0  0
 14 34  1  0  0  0  0
 15 16  1  0  0  0  0
 15 35  1  0  0  0  0
 15 36  1  0  0  0  0
 16 17  1  0  0  0  0
 16 21  1  0  0  0  0
 16 37  1  0  0  0  0
 17 18  1  0  0  0  0
 17 19  1  0  0  0  0
 17 20  1  0  0  0  0
 21 38  1  0  0  0  0
 21 39  1  0  0  0  0
 22 23  2  0  0  0  0
 22 40  1  0  0  0  0
M  END
> <s_m_source_file>
AV-unprocessed.smi

> <i_m_source_file_index>
2511

> <i_lp_mmshare_version>
43012

> <i_f3d_flags>
0

> <s_epik_input>
W05IMl1DKD1PKWMxW2NIXVtjSF1jKFtjSF1uMSlbTkhdQyg9TylbTkhdW0NAQEhdMltDSDJdW0NIMl1bQ0gyXVtDQEBIXShDKEYpKEYpRilbQ0gyXTI=

> <s_epik_cmdline>
J2VwaWtfcHl0aG9uJywgJy1waCcsICc3LjAnLCAnLXRuJywgJzgnLCAnLW1hJywgJzIwMCcsICctbWV0YWxfYmluZGluZycsICctaW1hZScsICc8aW5maWxlLm1hZT4nLCAnLW9tYWUnLCAnPG91dGZpbGUubWFlPic=

> <r_lp_tautomer_probability>
1

> <r_epik_Ionization_Penalty>
4.28758e-05

> <r_epik_Ionization_Penalty_Charging>
0

> <r_epik_Ionization_Penalty_Neutral>
4.28758e-05

> <r_epik_State_Penalty>
-0

> <r_epik_Charging_Adjusted_Penalty>
0

> <i_epik_Tot_Q>
0

> <i_epik_Tot_abs_Q>
0

> <r_epik_Metal_State_Penalty>
-0

> <b_epik_Metal_Only>
0

> <s_lp_Force_Field>
OPLS_2005

> <r_lp_Energy>
27.7433

> <b_lp_Chiralities_Consistent>
1

> <s_lp_Variant>
AV-unprocessed.smi:2511-4

> <Gold.Version>
5.8.1

> <Gold.Id.Protein>
6NUR|6NUR_protein|mol2

> <Gold.PLP.Fitness>
43.8647

> <Gold.PLP.PLP>
-33.9271

> <Gold.PLP.part.hbond>
-3.7905

> <Gold.PLP.part.metal>
0.0000

> <Gold.PLP.part.buried>
-2.5664

> <Gold.PLP.part.nonpolar>
-31.9400

> <Gold.PLP.part.repulsive>
3.7826

> <Gold.PLP.ligand.clash>
0.0000

> <Gold.PLP.ligand.torsion>
0.3789

> <Gold.PLP.Chemscore.Hbond>
2.5569

> <Gold.PLP.Chemscore.CHOScore>
1.0000

> <Gold.PLP.Chemscore.Metal>
0.0000

> <Gold.Chemscore.Hbonds>
donor molecule, donor type, donor heavy atom, donor atom, acceptor molecule, acceptor atom, score
      L1  H     1    25       P1  7921  0.96
      P1  H  7954  7966       L1    10  1.00
      P1  H 10785 10796       L1     3  0.57
      L1  C    22    40       P1 10171  1.00

> <Gold.PLP.Chemscore.Internal.Correction>
0.0246

> <Gold.Rescore>
     Score         DG    S(hbond)    S(metal)    S(lipo)     H(rot)  DE(clash)    DE(int)     intcor
     14.07     -18.61       2.45        0.00      64.10       1.00       2.77       1.76       ----

> <Gold.Chemscore.Fitness>
14.0736

> <Gold.Chemscore.DG>
-18.6052

> <Gold.Chemscore.ZeroCoef>
-5.4800

> <Gold.Chemscore.Hbond>
2.4507

> <Gold.Chemscore.Metal>
0.0000

> <Gold.Chemscore.Lipo>
64.1019

> <Gold.Chemscore.Internal_Hbond>
0.0000

> <Gold.Chemscore.DEClash>
2.7693

> <Gold.Chemscore.DEInternal>
1.7623

> <Gold.Chemscore.Rot>
1.0000

> <Gold.Chemscore.Internal.Correction>
   9.000000E+99

> <Gold.Chemscore.Hbonds>
donor molecule, donor type, donor heavy atom, donor atom, acceptor molecule, acceptor atom, score
      L1  H     1    25       P1  7921  0.91
      P1  H  7954  7966       L1    10  0.94
      P1  H 10785 10796       L1     3  0.51

> <Gold.Chemscore.Hbond.Weighted>
-8.1852

> <Gold.Chemscore.Metal.Weighted>
-0.0000

> <Gold.Chemscore.Lipo.Weighted>
-7.4999

> <Gold.Chemscore.Internal_Hbond.Weighted>
0.0000

> <Gold.Chemscore.DEClash.Weighted>
2.7693

> <Gold.Chemscore.DEInternal.Weighted>
1.7623

> <Gold.Chemscore.Rot.Weighted>
2.5600

> <Gold.Chemscore.Internal.Correction.Weighted>
   9.000000E+99

> <Gold.Protein.RotatedTorsions>
[ 6907 6896 6895 6894 ] final  -85.60 input  -60.11 | X-H torsion
[ 7974 7965 7964 7962 ] final -126.17 input  175.53 | X-H torsion
[ 8008 7997 7996 7995 ] final  -60.86 input   59.86 | X-H torsion
[ 10167 10162 10161 10158 ] final  -78.73 input  -65.29 | X-H torsion
[ 10718 10713 10712 10709 ] final  -54.82 input   66.30 | X-H torsion
[ 10763 10752 10751 10750 ] final -160.02 input  -60.55 | X-H torsion
[ 11005 11000 10999 10996 ] final -147.64 input  -57.11 | X-H torsion

> <Gold.Protein.ActiveResidues>
 VAL166  LYS551  ARG553  GLY616  TRP617  ASP618  TYR619  PRO620  LYS621  CYS622 
 ASP623  PHE694  ASN695  SER759  ASP760  ASP761  ALA762  ILE779  LEU786  VAL792 
 PHE793  MET794  SER795  GLU796  ALA797  LYS798  CYS799  TRP800  GLU811  SER814 

> <Gold.Protein.RotatedAtoms>
  150.6869  134.3179  159.4773 H   0  0  0  0  0  0  0  0  0  0  0  0  # atno 6907 bound_to 6896
  152.1058  134.9307  160.0577 H   0  0  0  0  0  0  0  0  0  0  0  0  # atno 6908 bound_to 6896
  152.0569  133.4009  159.4438 H   0  0  0  0  0  0  0  0  0  0  0  0  # atno 6909 bound_to 6896
  144.9900  140.7722  143.4560 H   0  0  0  0  0  0  0  0  0  0  0  0  # atno 7974 bound_to 7965
  154.4419  140.1030  156.6340 H   0  0  0  0  0  0  0  0  0  0  0  0  # atno 8008 bound_to 7997
  155.5574  140.3487  155.4464 H   0  0  0  0  0  0  0  0  0  0  0  0  # atno 8009 bound_to 7997
  156.0485  140.1298  157.0066 H   0  0  0  0  0  0  0  0  0  0  0  0  # atno 8010 bound_to 7997
  140.4657  143.2441  151.8282 H   0  0  0  0  0  0  0  0  0  0  0  0  # atno 10167 bound_to 10162
  156.1419  130.4154  150.0089 H   0  0  0  0  0  0  0  0  0  0  0  0  # atno 10718 bound_to 10713
  154.7426  135.3072  154.8702 H   0  0  0  0  0  0  0  0  0  0  0  0  # atno 10763 bound_to 10752
  153.9512  135.6763  153.4748 H   0  0  0  0  0  0  0  0  0  0  0  0  # atno 10764 bound_to 10752
  153.1024  135.4905  154.8815 H   0  0  0  0  0  0  0  0  0  0  0  0  # atno 10765 bound_to 10752
  140.7696  134.3204  157.5079 H   0  0  0  0  0  0  0  0  0  0  0  0  # atno 11005 bound_to 11000
  145.2299  139.2119  143.5048 LP  0  0  0  0  0  0  0  0  0  0  0  0  # atno 17320 bound_to 7965
  146.3429  140.2174  142.8591 LP  0  0  0  0  0  0  0  0  0  0  0  0  # atno 17321 bound_to 7965
  139.4811  144.4954  151.9130 LP  0  0  0  0  0  0  0  0  0  0  0  0  # atno 17342 bound_to 10162
  140.4039  144.2457  150.5891 LP  0  0  0  0  0  0  0  0  0  0  0  0  # atno 17343 bound_to 10162
  156.7972  130.9277  151.3646 LP  0  0  0  0  0  0  0  0  0  0  0  0  # atno 17370 bound_to 10713
  157.6583  130.8943  149.9775 LP  0  0  0  0  0  0  0  0  0  0  0  0  # atno 17371 bound_to 10713
  139.8758  134.9252  156.3370 LP  0  0  0  0  0  0  0  0  0  0  0  0  # atno 17394 bound_to 11000
  140.9586  133.7403  156.0370 LP  0  0  0  0  0  0  0  0  0  0  0  0  # atno 17395 bound_to 11000

$$$$
