AV-unprocessed.smi:2567|AV-procd|sdf|10079|dock3
  -GOLD-   2272014103D 1   1.00000     0.00000
 Structure written by MMmdl.
 34 35  0  0  0  0  0  0  0  0  2 V2000
  152.4910  144.3999  157.8680 C   0  0  0  0  0  0  0  0  0  0  0  0
  151.6976  143.2586  158.5294 C   0  0  0  0  0  0  0  0  0  0  0  0
  152.4991  142.6949  159.7233 C   0  0  0  0  0  0  0  0  0  0  0  0
  150.3714  143.8052  159.1031 C   0  0  0  0  0  0  0  0  0  0  0  0
  151.4336  142.1718  157.5133 C   0  0  0  0  0  0  0  0  0  0  0  0
  151.8390  140.9157  157.7171 N   0  0  0  0  0  0  0  0  0  0  0  0
  151.2903  140.2586  156.6750 N   0  0  0  0  0  0  0  0  0  0  0  0
  150.5619  141.1099  155.9525 C   0  0  0  0  0  0  0  0  0  0  0  0
  149.7950  140.6800  154.7422 C   0  0  1  0  0  0  0  0  0  0  0  0
  149.9571  139.1762  154.4472 C   0  0  0  0  0  0  0  0  0  0  0  0
  149.0983  138.7899  153.3107 N   0  3  0  0  0  0  0  0  0  0  0  0
  147.6903  139.1680  153.5441 C   0  0  0  0  0  0  0  0  0  0  0  0
  147.5922  140.6677  153.8735 C   0  0  0  0  0  0  0  0  0  0  0  0
  148.4212  140.9694  154.9910 O   0  0  0  0  0  0  0  0  0  0  0  0
  150.5810  142.3401  156.4535 N   0  0  0  0  0  0  0  0  0  0  0  0
  151.4179  139.2687  156.5195 H   0  0  0  0  0  0  0  0  0  0  0  0
  152.6991  145.2022  158.5765 H   0  0  0  0  0  0  0  0  0  0  0  0
  151.9396  144.8333  157.0329 H   0  0  0  0  0  0  0  0  0  0  0  0
  153.4472  144.0451  157.4815 H   0  0  0  0  0  0  0  0  0  0  0  0
  153.4790  142.3277  159.4158 H   0  0  0  0  0  0  0  0  0  0  0  0
  151.9722  141.8688  160.2026 H   0  0  0  0  0  0  0  0  0  0  0  0
  152.6705  143.4589  160.4822 H   0  0  0  0  0  0  0  0  0  0  0  0
  150.5522  144.5595  159.8698 H   0  0  0  0  0  0  0  0  0  0  0  0
  149.7767  143.0116  159.5579 H   0  0  0  0  0  0  0  0  0  0  0  0
  149.7590  144.2760  158.3330 H   0  0  0  0  0  0  0  0  0  0  0  0
  150.1366  141.2689  153.8885 H   0  0  0  0  0  0  0  0  0  0  0  0
  150.9950  138.9379  154.2138 H   0  0  0  0  0  0  0  0  0  0  0  0
  149.6788  138.5828  155.3194 H   0  0  0  0  0  0  0  0  0  0  0  0
  149.4268  139.2626  152.4806 H   0  0  0  0  0  0  0  0  0  0  0  0
  147.0993  138.9286  152.6598 H   0  0  0  0  0  0  0  0  0  0  0  0
  147.2913  138.5754  154.3685 H   0  0  0  0  0  0  0  0  0  0  0  0
  147.8848  141.2753  153.0158 H   0  0  0  0  0  0  0  0  0  0  0  0
  146.5628  140.9328  154.1150 H   0  0  0  0  0  0  0  0  0  0  0  0
  149.1584  137.7917  153.1670 H   0  0  0  0  0  0  0  0  0  0  0  0
  1  2  1  0  0  0  0
  1 17  1  0  0  0  0
  1 18  1  0  0  0  0
  1 19  1  0  0  0  0
  2  3  1  0  0  0  0
  2  4  1  0  0  0  0
  2  5  1  0  0  0  0
  3 20  1  0  0  0  0
  3 21  1  0  0  0  0
  3 22  1  0  0  0  0
  4 23  1  0  0  0  0
  4 24  1  0  0  0  0
  4 25  1  0  0  0  0
  5 15  1  0  0  0  0
  5  6  2  0  0  0  0
  6  7  1  0  0  0  0
  7 16  1  0  0  0  0
  7  8  1  0  0  0  0
  8  9  1  0  0  0  0
  8 15  2  0  0  0  0
  9 14  1  0  0  0  0
  9 10  1  0  0  0  0
  9 26  1  0  0  0  0
 10 11  1  0  0  0  0
 10 27  1  0  0  0  0
 10 28  1  0  0  0  0
 11 12  1  0  0  0  0
 11 29  1  0  0  0  0
 11 34  1  0  0  0  0
 12 13  1  0  0  0  0
 12 30  1  0  0  0  0
 12 31  1  0  0  0  0
 13 14  1  0  0  0  0
 13 32  1  0  0  0  0
 13 33  1  0  0  0  0
M  CHG  1  11   1
M  END
> <s_m_source_file>
AV-unprocessed.smi

> <i_m_source_file_index>
2567

> <i_lp_mmshare_version>
43012

> <i_f3d_flags>
0

> <s_epik_input>
W0NIM11DKFtDSDNdKShbQ0gzXSljMW5bbkhdYyhuMSlbQ0BASF0yW0NIMl1bTkhdW0NIMl1bQ0gyXU8y

> <s_epik_cmdline>
J2VwaWtfcHl0aG9uJywgJy1waCcsICc3LjAnLCAnLXRuJywgJzgnLCAnLW1hJywgJzIwMCcsICctbWV0YWxfYmluZGluZycsICctaW1hZScsICc8aW5maWxlLm1hZT4nLCAnLW9tYWUnLCAnPG91dGZpbGUubWFlPic=

> <r_epik_Ionization_Penalty>
0.162344

> <r_epik_Ionization_Penalty_Charging>
0.125708

> <r_epik_Ionization_Penalty_Neutral>
0.0366363

> <r_epik_State_Penalty>
1.18286

> <r_epik_Charging_Adjusted_Penalty>
1.30856

> <i_epik_Tot_Q>
1

> <i_epik_Tot_abs_Q>
1

> <r_epik_Metal_State_Penalty>
1.49333

> <b_epik_Metal_Only>
0

> <s_lp_Force_Field>
OPLS_2005

> <r_lp_Energy>
12.4711

> <b_lp_Chiralities_Consistent>
1

> <s_lp_Variant>
AV-unprocessed.smi:2567-4

> <Gold.Version>
5.8.1

> <Gold.Id.Protein>
6NUR|6NUR_protein|mol2

> <Gold.PLP.Fitness>
38.4617

> <Gold.PLP.PLP>
-29.8734

> <Gold.PLP.part.hbond>
-1.9704

> <Gold.PLP.part.metal>
0.0000

> <Gold.PLP.part.buried>
-3.8796

> <Gold.PLP.part.nonpolar>
-24.9775

> <Gold.PLP.part.repulsive>
1.0828

> <Gold.PLP.ligand.clash>
0.0000

> <Gold.PLP.ligand.torsion>
0.1282

> <Gold.PLP.Chemscore.Hbond>
2.8793

> <Gold.PLP.Chemscore.CHOScore>
0.0000

> <Gold.PLP.Chemscore.Metal>
0.0000

> <Gold.Chemscore.Hbonds>
donor molecule, donor type, donor heavy atom, donor atom, acceptor molecule, acceptor atom, score
      L1  H    11    29       P1  7957  1.00
      L1  H    11    34       P1  7948  1.86

> <Gold.PLP.Chemscore.Internal.Correction>
0.2070

> <Gold.Rescore>
     Score         DG    S(hbond)    S(metal)    S(lipo)     H(rot)  DE(clash)    DE(int)     intcor
     16.23     -16.84       1.93        0.00      69.72       1.26       0.51       0.11       ----

> <Gold.Chemscore.Fitness>
16.2323

> <Gold.Chemscore.DG>
-16.8435

> <Gold.Chemscore.ZeroCoef>
-5.4800

> <Gold.Chemscore.Hbond>
1.9294

> <Gold.Chemscore.Metal>
0.0000

> <Gold.Chemscore.Lipo>
69.7167

> <Gold.Chemscore.Internal_Hbond>
0.0000

> <Gold.Chemscore.DEClash>
0.5061

> <Gold.Chemscore.DEInternal>
0.1052

> <Gold.Chemscore.Rot>
1.2647

> <Gold.Chemscore.Internal.Correction>
   9.000000E+99

> <Gold.Chemscore.Hbonds>
donor molecule, donor type, donor heavy atom, donor atom, acceptor molecule, acceptor atom, score
      L1  H    11    29       P1  7957  0.93
      L1  H    11    34       P1  7948  0.85

> <Gold.Chemscore.Hbond.Weighted>
-6.4442

> <Gold.Chemscore.Metal.Weighted>
-0.0000

> <Gold.Chemscore.Lipo.Weighted>
-8.1568

> <Gold.Chemscore.Internal_Hbond.Weighted>
0.0000

> <Gold.Chemscore.DEClash.Weighted>
0.5061

> <Gold.Chemscore.DEInternal.Weighted>
0.1052

> <Gold.Chemscore.Rot.Weighted>
3.2375

> <Gold.Chemscore.Internal.Correction.Weighted>
   9.000000E+99

> <Gold.Protein.RotatedTorsions>
[ 6907 6896 6895 6894 ] final   12.53 input  -60.11 | X-H torsion
[ 7974 7965 7964 7962 ] final -154.40 input  175.53 | X-H torsion
[ 8008 7997 7996 7995 ] final   -8.68 input   59.86 | X-H torsion
[ 10167 10162 10161 10158 ] final  124.43 input  -65.29 | X-H torsion
[ 10718 10713 10712 10709 ] final    4.53 input   66.30 | X-H torsion
[ 10763 10752 10751 10750 ] final  106.72 input  -60.55 | X-H torsion
[ 11005 11000 10999 10996 ] final  139.44 input  -57.11 | X-H torsion

> <Gold.Protein.ActiveResidues>
 VAL166  LYS551  ARG553  GLY616  TRP617  ASP618  TYR619  PRO620  LYS621  CYS622 
 ASP623  PHE694  ASN695  SER759  ASP760  ASP761  ALA762  ILE779  LEU786  VAL792 
 PHE793  MET794  SER795  GLU796  ALA797  LYS798  CYS799  TRP800  GLU811  SER814 

> <Gold.Protein.RotatedAtoms>
  151.7718  135.0784  160.0360 H   0  0  0  0  0  0  0  0  0  0  0  0  # atno 6907 bound_to 6896
  152.3283  133.5926  159.5800 H   0  0  0  0  0  0  0  0  0  0  0  0  # atno 6908 bound_to 6896
  150.7408  133.9822  159.3622 H   0  0  0  0  0  0  0  0  0  0  0  0  # atno 6909 bound_to 6896
  144.7691  140.4393  143.5920 H   0  0  0  0  0  0  0  0  0  0  0  0  # atno 7974 bound_to 7965
  154.5718  140.2375  155.8180 H   0  0  0  0  0  0  0  0  0  0  0  0  # atno 8008 bound_to 7997
  156.2113  140.3025  155.9696 H   0  0  0  0  0  0  0  0  0  0  0  0  # atno 8009 bound_to 7997
  155.2698  140.0418  157.2996 H   0  0  0  0  0  0  0  0  0  0  0  0  # atno 8010 bound_to 7997
  139.5742  144.6955  151.3697 H   0  0  0  0  0  0  0  0  0  0  0  0  # atno 10167 bound_to 10162
  156.8940  130.5697  149.5649 H   0  0  0  0  0  0  0  0  0  0  0  0  # atno 10718 bound_to 10713
  153.3968  135.3868  155.1960 H   0  0  0  0  0  0  0  0  0  0  0  0  # atno 10763 bound_to 10752
  154.8725  135.3761  154.4669 H   0  0  0  0  0  0  0  0  0  0  0  0  # atno 10764 bound_to 10752
  153.5161  135.7087  153.5817 H   0  0  0  0  0  0  0  0  0  0  0  0  # atno 10765 bound_to 10752
  140.0255  134.9377  157.0559 H   0  0  0  0  0  0  0  0  0  0  0  0  # atno 11005 bound_to 11000
  145.6378  139.1545  143.2932 LP  0  0  0  0  0  0  0  0  0  0  0  0  # atno 17320 bound_to 7965
  146.1823  140.6477  142.9183 LP  0  0  0  0  0  0  0  0  0  0  0  0  # atno 17321 bound_to 7965
  140.7025  143.7595  150.7427 LP  0  0  0  0  0  0  0  0  0  0  0  0  # atno 17342 bound_to 10162
  140.1110  143.4699  152.2370 LP  0  0  0  0  0  0  0  0  0  0  0  0  # atno 17343 bound_to 10162
  156.0615  130.5667  150.9202 LP  0  0  0  0  0  0  0  0  0  0  0  0  # atno 17370 bound_to 10713
  157.6067  131.0938  150.8867 LP  0  0  0  0  0  0  0  0  0  0  0  0  # atno 17371 bound_to 10713
  140.4314  134.1776  155.7168 LP  0  0  0  0  0  0  0  0  0  0  0  0  # atno 17394 bound_to 11000
  141.1800  133.8434  157.1291 LP  0  0  0  0  0  0  0  0  0  0  0  0  # atno 17395 bound_to 11000

$$$$
