AV-unprocessed.smi:2032|AV-procd|sdf|8254|dock6
  -GOLD-   2272010523D 1   1.00000     0.00000
 Structure written by MMmdl.
 42 43  0  0  0  0  0  0  0  0  3 V2000
  148.9875  141.3653  154.2856 C   0  0  0  0  0  0  0  0  0  0  0  0
  149.4749  140.0074  154.8026 C   0  0  1  0  0  0  0  0  0  0  0  0
  148.8259  138.8317  154.0400 C   0  0  0  0  0  0  0  0  0  0  0  0
  149.3615  137.5242  154.5095 N   0  3  2  0  0  0  0  0  0  0  0  0
  148.8721  137.0720  155.8577 C   0  0  1  0  0  0  0  0  0  0  0  0
  149.3306  135.6284  156.1786 C   0  0  0  0  0  0  0  0  0  0  0  0
  149.3210  138.0333  156.9943 C   0  0  0  0  0  0  0  0  0  0  0  0
  148.5140  137.9004  158.2040 N   0  0  0  0  0  0  0  0  0  0  0  0
  148.7883  137.0938  159.2394 C   0  0  0  0  0  0  0  0  0  0  0  0
  149.7850  136.3678  159.2047 O   0  0  0  0  0  0  0  0  0  0  0  0
  147.8974  137.1855  160.2513 N   0  5  0  0  0  0  0  0  0  0  0  0
  147.5677  136.0908  160.9558 C   0  0  0  0  0  0  0  0  0  0  0  0
  147.4490  134.8770  160.4058 N   0  0  0  0  0  0  0  0  0  0  0  0
  147.0940  133.8851  161.3220 C   0  0  0  0  0  0  0  0  0  0  0  0
  146.9303  134.3564  162.5976 C   0  0  0  0  0  0  0  0  0  0  0  0
  147.2183  136.0706  162.6868 S   0  0  0  0  0  0  0  0  0  0  0  0
  150.8402  137.5540  154.3369 C   0  0  0  0  0  0  0  0  0  0  0  0
  151.4696  138.7399  155.0989 C   0  0  1  0  0  0  0  0  0  0  0  0
  152.9838  138.8244  154.8772 C   0  0  0  0  0  0  0  0  0  0  0  0
  150.8876  139.9513  154.6253 O   0  0  0  0  0  0  0  0  0  0  0  0
  147.9098  141.4698  154.4135 H   0  0  0  0  0  0  0  0  0  0  0  0
  149.2127  141.4901  153.2260 H   0  0  0  0  0  0  0  0  0  0  0  0
  149.4661  142.1825  154.8259 H   0  0  0  0  0  0  0  0  0  0  0  0
  149.2428  139.9454  155.8667 H   0  0  0  0  0  0  0  0  0  0  0  0
  147.7399  138.8788  154.0862 H   0  0  0  0  0  0  0  0  0  0  0  0
  149.0595  138.9274  152.9785 H   0  0  0  0  0  0  0  0  0  0  0  0
  147.7833  137.0631  155.8402 H   0  0  0  0  0  0  0  0  0  0  0  0
  149.0622  135.3276  157.1909 H   0  0  0  0  0  0  0  0  0  0  0  0
  150.4120  135.5262  156.0846 H   0  0  0  0  0  0  0  0  0  0  0  0
  148.8588  134.8911  155.5307 H   0  0  0  0  0  0  0  0  0  0  0  0
  150.3615  137.8405  157.2570 H   0  0  0  0  0  0  0  0  0  0  0  0
  149.2641  139.0799  156.7014 H   0  0  0  0  0  0  0  0  0  0  0  0
  147.6858  138.4743  158.2697 H   0  0  0  0  0  0  0  0  0  0  0  0
  146.9773  132.8683  160.9778 H   0  0  0  0  0  0  0  0  0  0  0  0
  146.6582  133.8048  163.4848 H   0  0  0  0  0  0  0  0  0  0  0  0
  151.3160  136.6142  154.6047 H   0  0  0  0  0  0  0  0  0  0  0  0
  151.0494  137.6700  153.2723 H   0  0  0  0  0  0  0  0  0  0  0  0
  151.2888  138.6452  156.1704 H   0  0  0  0  0  0  0  0  0  0  0  0
  153.4828  137.9218  155.2307 H   0  0  0  0  0  0  0  0  0  0  0  0
  153.4101  139.6710  155.4157 H   0  0  0  0  0  0  0  0  0  0  0  0
  153.2229  138.9471  153.8202 H   0  0  0  0  0  0  0  0  0  0  0  0
  149.0169  136.8309  153.8610 H   0  0  0  0  0  0  0  0  0  0  0  0
  1  2  1  0  0  0  0
  1 21  1  0  0  0  0
  1 22  1  0  0  0  0
  1 23  1  0  0  0  0
  2 20  1  0  0  0  0
  2  3  1  0  0  0  0
  2 24  1  0  0  0  0
  3  4  1  0  0  0  0
  3 25  1  0  0  0  0
  3 26  1  0  0  0  0
  4  5  1  0  0  0  0
  4 17  1  0  0  0  0
  4 42  1  0  0  0  0
  5  6  1  0  0  0  0
  5  7  1  0  0  0  0
  5 27  1  0  0  0  0
  6 28  1  0  0  0  0
  6 29  1  0  0  0  0
  6 30  1  0  0  0  0
  7  8  1  0  0  0  0
  7 31  1  0  0  0  0
  7 32  1  0  0  0  0
  8  9  1  0  0  0  0
  8 33  1  0  0  0  0
  9 10  2  0  0  0  0
  9 11  1  0  0  0  0
 11 12  1  0  0  0  0
 12 16  1  0  0  0  0
 12 13  2  0  0  0  0
 13 14  1  0  0  0  0
 14 15  2  0  0  0  0
 14 34  1  0  0  0  0
 15 16  1  0  0  0  0
 15 35  1  0  0  0  0
 17 18  1  0  0  0  0
 17 36  1  0  0  0  0
 17 37  1  0  0  0  0
 18 19  1  0  0  0  0
 18 20  1  0  0  0  0
 18 38  1  0  0  0  0
 19 39  1  0  0  0  0
 19 40  1  0  0  0  0
 19 41  1  0  0  0  0
M  CHG  1   4   1
M  CHG  1  11  -1
M  END
> <s_m_source_file>
AV-unprocessed.smi

> <i_m_source_file_index>
2032

> <i_lp_mmshare_version>
43012

> <i_f3d_flags>
0

> <s_epik_input>
W0NIM11bQ0BASF0xW0NIMl1OKFtDSDJdW0NASF0oTzEpW0NIM10pW0NASF0oW0NIM10pW0NIMl1bTkhdQyg9TylbTkhdYzJuW2NIXVtjSF1zMg==

> <s_epik_cmdline>
J2VwaWtfcHl0aG9uJywgJy1waCcsICc3LjAnLCAnLXRuJywgJzgnLCAnLW1hJywgJzIwMCcsICctbWV0YWxfYmluZGluZycsICctaW1hZScsICc8aW5maWxlLm1hZT4nLCAnLW9tYWUnLCAnPG91dGZpbGUubWFlPic=

> <r_lp_tautomer_probability>
0.999

> <r_epik_Ionization_Penalty>
6.71699

> <r_epik_Ionization_Penalty_Charging>
5.88592

> <r_epik_Ionization_Penalty_Neutral>
0.831074

> <r_epik_State_Penalty>
6.08365

> <r_epik_Charging_Adjusted_Penalty>
11.9696

> <i_epik_Tot_Q>
0

> <i_epik_Tot_abs_Q>
2

> <r_epik_Metal_State_Penalty>
2.0947

> <b_epik_Metal_Only>
1

> <s_lp_Force_Field>
OPLS_2005

> <r_lp_Energy>
10.9106

> <b_lp_Chiralities_Consistent>
1

> <s_lp_Variant>
AV-unprocessed.smi:2032-24

> <Gold.Version>
5.8.1

> <Gold.Id.Protein>
6NUR|6NUR_protein|mol2

> <Gold.PLP.Fitness>
51.4996

> <Gold.PLP.PLP>
-39.4258

> <Gold.PLP.part.hbond>
-5.0000

> <Gold.PLP.part.metal>
0.0000

> <Gold.PLP.part.buried>
-2.9085

> <Gold.PLP.part.nonpolar>
-31.8614

> <Gold.PLP.part.repulsive>
0.2057

> <Gold.PLP.ligand.clash>
3.1522

> <Gold.PLP.ligand.torsion>
0.8717

> <Gold.PLP.Chemscore.Hbond>
5.6187

> <Gold.PLP.Chemscore.CHOScore>
0.0000

> <Gold.PLP.Chemscore.Metal>
0.0000

> <Gold.Chemscore.Hbonds>
donor molecule, donor type, donor heavy atom, donor atom, acceptor molecule, acceptor atom, score
      L1  H     4    42       P1  7948  1.60
      P1  H  6896  6908       L1    10  1.00
      P1  H  6931  6943       L1    11  0.52
      P1  H  6934  6947       L1    11  1.40
      P1  H  7989  7998       L1    20  1.00

> <Gold.PLP.Chemscore.Internal.Correction>
0.1132

> <Gold.Rescore>
     Score         DG    S(hbond)    S(metal)    S(lipo)     H(rot)  DE(clash)    DE(int)     intcor
     18.88     -22.19       3.51        0.00      77.17       1.58       0.05       3.27       ----

> <Gold.Chemscore.Fitness>
18.8779

> <Gold.Chemscore.DG>
-22.1924

> <Gold.Chemscore.ZeroCoef>
-5.4800

> <Gold.Chemscore.Hbond>
3.5108

> <Gold.Chemscore.Metal>
0.0000

> <Gold.Chemscore.Lipo>
77.1705

> <Gold.Chemscore.Internal_Hbond>
0.0000

> <Gold.Chemscore.DEClash>
0.0476

> <Gold.Chemscore.DEInternal>
3.2668

> <Gold.Chemscore.Rot>
1.5791

> <Gold.Chemscore.Internal.Correction>
   9.000000E+99

> <Gold.Chemscore.Hbonds>
donor molecule, donor type, donor heavy atom, donor atom, acceptor molecule, acceptor atom, score
      L1  H     4    42       P1  7948  0.77
      P1  H  6896  6908       L1    10  0.99
      P1  H  6931  6943       L1    11  0.02
      P1  H  6934  6947       L1    11  0.64
      P1  H  7989  7998       L1    20  0.96

> <Gold.Chemscore.Hbond.Weighted>
-11.7259

> <Gold.Chemscore.Metal.Weighted>
-0.0000

> <Gold.Chemscore.Lipo.Weighted>
-9.0290

> <Gold.Chemscore.Internal_Hbond.Weighted>
0.0000

> <Gold.Chemscore.DEClash.Weighted>
0.0476

> <Gold.Chemscore.DEInternal.Weighted>
3.2668

> <Gold.Chemscore.Rot.Weighted>
4.0425

> <Gold.Chemscore.Internal.Correction.Weighted>
   9.000000E+99

> <Gold.Protein.RotatedTorsions>
[ 6907 6896 6895 6894 ] final -177.49 input  -60.11 | X-H torsion
[ 7974 7965 7964 7962 ] final  -34.32 input  175.53 | X-H torsion
[ 8008 7997 7996 7995 ] final  -26.09 input   59.86 | X-H torsion
[ 10167 10162 10161 10158 ] final   82.45 input  -65.29 | X-H torsion
[ 10718 10713 10712 10709 ] final  -62.33 input   66.30 | X-H torsion
[ 10763 10752 10751 10750 ] final  -75.59 input  -60.55 | X-H torsion
[ 11005 11000 10999 10996 ] final   11.22 input  -57.11 | X-H torsion

> <Gold.Protein.ActiveResidues>
 VAL166  LYS551  ARG553  GLY616  TRP617  ASP618  TYR619  PRO620  LYS621  CYS622 
 ASP623  PHE694  ASN695  SER759  ASP760  ASP761  ALA762  ILE779  LEU786  VAL792 
 PHE793  MET794  SER795  GLU796  ALA797  LYS798  CYS799  TRP800  GLU811  SER814 

> <Gold.Protein.RotatedAtoms>
  151.6219  133.3338  159.3089 H   0  0  0  0  0  0  0  0  0  0  0  0  # atno 6907 bound_to 6896
  150.8102  134.7255  159.6692 H   0  0  0  0  0  0  0  0  0  0  0  0  # atno 6908 bound_to 6896
  152.4198  134.5981  160.0044 H   0  0  0  0  0  0  0  0  0  0  0  0  # atno 6909 bound_to 6896
  146.0839  140.6025  142.8896 H   0  0  0  0  0  0  0  0  0  0  0  0  # atno 7974 bound_to 7965
  154.4443  140.1909  156.0720 H   0  0  0  0  0  0  0  0  0  0  0  0  # atno 8008 bound_to 7997
  156.0504  140.3309  155.7317 H   0  0  0  0  0  0  0  0  0  0  0  0  # atno 8009 bound_to 7997
  155.5566  140.0600  157.2829 H   0  0  0  0  0  0  0  0  0  0  0  0  # atno 8010 bound_to 7997
  139.9287  144.6166  150.8367 H   0  0  0  0  0  0  0  0  0  0  0  0  # atno 10167 bound_to 10162
  156.0862  130.4208  150.1120 H   0  0  0  0  0  0  0  0  0  0  0  0  # atno 10718 bound_to 10713
  154.4886  135.5826  153.6442 H   0  0  0  0  0  0  0  0  0  0  0  0  # atno 10763 bound_to 10752
  152.9858  135.6107  154.3154 H   0  0  0  0  0  0  0  0  0  0  0  0  # atno 10764 bound_to 10752
  154.3052  135.2846  155.2572 H   0  0  0  0  0  0  0  0  0  0  0  0  # atno 10765 bound_to 10752
  140.5057  134.0702  155.7805 H   0  0  0  0  0  0  0  0  0  0  0  0  # atno 11005 bound_to 11000
  144.7312  140.4676  143.6937 LP  0  0  0  0  0  0  0  0  0  0  0  0  # atno 17320 bound_to 7965
  145.6167  139.1519  143.3045 LP  0  0  0  0  0  0  0  0  0  0  0  0  # atno 17321 bound_to 7965
  140.7643  143.3246  151.2546 LP  0  0  0  0  0  0  0  0  0  0  0  0  # atno 17342 bound_to 10162
  139.6800  143.9870  152.2803 LP  0  0  0  0  0  0  0  0  0  0  0  0  # atno 17343 bound_to 10162
  156.9141  130.9661  151.3558 LP  0  0  0  0  0  0  0  0  0  0  0  0  # atno 17370 bound_to 10713
  157.5997  130.8503  149.8783 LP  0  0  0  0  0  0  0  0  0  0  0  0  # atno 17371 bound_to 10713
  141.1412  133.9134  157.2321 LP  0  0  0  0  0  0  0  0  0  0  0  0  # atno 17394 bound_to 11000
  139.9688  135.0134  156.9457 LP  0  0  0  0  0  0  0  0  0  0  0  0  # atno 17395 bound_to 11000

$$$$
