AV-unprocessed.smi:1338|AV-procd|sdf|5499|dock3
  -GOLD-   22720 5 83D 1   1.00000     0.00000
 Structure written by MMmdl.
 40 41  0  0  0  0  0  0  0  0  1 V2000
  146.2844  138.0149  152.3652 C   0  0  0  0  0  0  0  0  0  0  0  0
  147.0597  139.1420  153.0141 C   0  0  0  0  0  0  0  0  0  0  0  0
  146.5596  140.3051  153.2735 N   0  0  0  0  0  0  0  0  0  0  0  0
  147.3772  141.2712  153.8764 C   0  0  0  0  0  0  0  0  0  0  0  0
  146.7162  142.6127  154.1442 C   0  0  0  0  0  0  0  0  0  0  0  0
  148.6795  141.0101  154.1934 C   0  0  0  0  0  0  0  0  0  0  0  0
  149.5966  142.0420  154.8470 C   0  0  0  0  0  0  0  0  0  0  0  0
  150.1356  141.6533  156.2247 C   0  0  0  0  0  0  0  0  0  0  0  0
  150.3629  140.4720  156.4850 O   0  0  0  0  0  0  0  0  0  0  0  0
  150.3441  142.6559  157.0919 N   0  0  0  0  0  0  0  0  0  0  0  0
  150.8775  142.5090  158.4423 C   0  0  0  0  0  0  0  0  0  0  0  0
  151.3429  143.8723  158.9939 C   0  0  0  0  0  0  0  0  0  0  0  0
  151.9833  143.7283  160.3841 C   0  0  0  0  0  0  0  0  0  0  0  0
  153.1402  142.7171  160.3641 C   0  0  0  0  0  0  0  0  0  0  0  0
  152.6783  141.3560  159.8198 C   0  0  0  0  0  0  0  0  0  0  0  0
  152.0400  141.4984  158.4287 C   0  0  0  0  0  0  0  0  0  0  0  0
  149.2399  139.6781  153.8927 C   0  0  0  0  0  0  0  0  0  0  0  0
  150.3976  139.3374  154.1310 O   0  0  0  0  0  0  0  0  0  0  0  0
  148.3806  138.8114  153.3117 N   0  0  0  0  0  0  0  0  0  0  0  0
  148.7175  137.8874  153.0844 H   0  0  0  0  0  0  0  0  0  0  0  0
  145.9233  138.3241  151.3841 H   0  0  0  0  0  0  0  0  0  0  0  0
  145.4238  137.7491  152.9795 H   0  0  0  0  0  0  0  0  0  0  0  0
  146.9001  137.1233  152.2366 H   0  0  0  0  0  0  0  0  0  0  0  0
  146.7391  142.8487  155.2081 H   0  0  0  0  0  0  0  0  0  0  0  0
  145.6726  142.6099  153.8270 H   0  0  0  0  0  0  0  0  0  0  0  0
  147.2261  143.4071  153.5992 H   0  0  0  0  0  0  0  0  0  0  0  0
  150.4318  142.2419  154.1750 H   0  0  0  0  0  0  0  0  0  0  0  0
  149.0882  143.0022  154.9418 H   0  0  0  0  0  0  0  0  0  0  0  0
  150.1287  143.5945  156.7888 H   0  0  0  0  0  0  0  0  0  0  0  0
  150.0950  142.1135  159.0933 H   0  0  0  0  0  0  0  0  0  0  0  0
  152.0648  144.3202  158.3096 H   0  0  0  0  0  0  0  0  0  0  0  0
  150.5014  144.5636  159.0505 H   0  0  0  0  0  0  0  0  0  0  0  0
  152.3436  144.6977  160.7295 H   0  0  0  0  0  0  0  0  0  0  0  0
  151.2280  143.4058  161.1020 H   0  0  0  0  0  0  0  0  0  0  0  0
  153.9515  143.1023  159.7453 H   0  0  0  0  0  0  0  0  0  0  0  0
  153.5468  142.5971  161.3688 H   0  0  0  0  0  0  0  0  0  0  0  0
  153.5234  140.6687  159.7725 H   0  0  0  0  0  0  0  0  0  0  0  0
  151.9574  140.9130  160.5083 H   0  0  0  0  0  0  0  0  0  0  0  0
  151.6847  140.5251  158.0875 H   0  0  0  0  0  0  0  0  0  0  0  0
  152.8002  141.8172  157.7140 H   0  0  0  0  0  0  0  0  0  0  0  0
  1  2  1  0  0  0  0
  1 21  1  0  0  0  0
  1 22  1  0  0  0  0
  1 23  1  0  0  0  0
  2 19  1  0  0  0  0
  2  3  2  0  0  0  0
  3  4  1  0  0  0  0
  4  5  1  0  0  0  0
  4  6  2  0  0  0  0
  5 24  1  0  0  0  0
  5 25  1  0  0  0  0
  5 26  1  0  0  0  0
  6  7  1  0  0  0  0
  6 17  1  0  0  0  0
  7  8  1  0  0  0  0
  7 27  1  0  0  0  0
  7 28  1  0  0  0  0
  8  9  2  0  0  0  0
  8 10  1  0  0  0  0
 10 11  1  0  0  0  0
 10 29  1  0  0  0  0
 11 16  1  0  0  0  0
 11 12  1  0  0  0  0
 11 30  1  0  0  0  0
 12 13  1  0  0  0  0
 12 31  1  0  0  0  0
 12 32  1  0  0  0  0
 13 14  1  0  0  0  0
 13 33  1  0  0  0  0
 13 34  1  0  0  0  0
 14 15  1  0  0  0  0
 14 35  1  0  0  0  0
 14 36  1  0  0  0  0
 15 16  1  0  0  0  0
 15 37  1  0  0  0  0
 15 38  1  0  0  0  0
 16 39  1  0  0  0  0
 16 40  1  0  0  0  0
 17 18  2  0  0  0  0
 17 19  1  0  0  0  0
 19 20  1  0  0  0  0
M  END
> <s_m_source_file>
AV-unprocessed.smi

> <i_m_source_file_index>
1338

> <i_lp_mmshare_version>
43012

> <i_f3d_flags>
0

> <s_epik_input>
W0NIM11jMW5jKFtDSDNdKWMoYyg9TylbbkhdMSlbQ0gyXUMoPU8pW05IXVtDSF0yW0NIMl1bQ0gyXVtDSDJdW0NIMl1bQ0gyXTI=

> <s_epik_cmdline>
J2VwaWtfcHl0aG9uJywgJy1waCcsICc3LjAnLCAnLXRuJywgJzgnLCAnLW1hJywgJzIwMCcsICctbWV0YWxfYmluZGluZycsICctaW1hZScsICc8aW5maWxlLm1hZT4nLCAnLW9tYWUnLCAnPG91dGZpbGUubWFlPic=

> <r_lp_tautomer_probability>
0.839158

> <r_epik_Ionization_Penalty>
0.000373802

> <r_epik_Ionization_Penalty_Charging>
0.000339356

> <r_epik_Ionization_Penalty_Neutral>
3.44455e-05

> <r_epik_State_Penalty>
0.09125

> <r_epik_Charging_Adjusted_Penalty>
0.0915894

> <i_epik_Tot_Q>
0

> <i_epik_Tot_abs_Q>
0

> <r_epik_Metal_State_Penalty>
0.252336

> <b_epik_Metal_Only>
0

> <s_lp_Force_Field>
OPLS_2005

> <r_lp_Energy>
10.2314

> <b_lp_Chiralities_Consistent>
1

> <s_lp_Variant>
AV-unprocessed.smi:1338-1

> <Gold.Version>
5.8.1

> <Gold.Id.Protein>
6NUR|6NUR_protein|mol2

> <Gold.PLP.Fitness>
45.4664

> <Gold.PLP.PLP>
-37.8703

> <Gold.PLP.part.hbond>
-4.0000

> <Gold.PLP.part.metal>
0.0000

> <Gold.PLP.part.buried>
2.3272

> <Gold.PLP.part.nonpolar>
-36.7869

> <Gold.PLP.part.repulsive>
1.2246

> <Gold.PLP.ligand.clash>
0.0000

> <Gold.PLP.ligand.torsion>
0.5955

> <Gold.PLP.Chemscore.Hbond>
2.9280

> <Gold.PLP.Chemscore.CHOScore>
0.0000

> <Gold.PLP.Chemscore.Metal>
0.0000

> <Gold.Chemscore.Hbonds>
donor molecule, donor type, donor heavy atom, donor atom, acceptor molecule, acceptor atom, score
      L1  H    10    29       P1  8028  0.91
      L1  H    19    20       P1  7948  0.94
      P1  H  7989  7998       L1    18  0.93

> <Gold.PLP.Chemscore.Internal.Correction>
0.0032

> <Gold.Rescore>
     Score         DG    S(hbond)    S(metal)    S(lipo)     H(rot)  DE(clash)    DE(int)     intcor
     14.58     -21.56       2.57        0.00      96.79       1.49       2.51       4.47       ----

> <Gold.Chemscore.Fitness>
14.5849

> <Gold.Chemscore.DG>
-21.5569

> <Gold.Chemscore.ZeroCoef>
-5.4800

> <Gold.Chemscore.Hbond>
2.5681

> <Gold.Chemscore.Metal>
0.0000

> <Gold.Chemscore.Lipo>
96.7934

> <Gold.Chemscore.Internal_Hbond>
0.0000

> <Gold.Chemscore.DEClash>
2.5068

> <Gold.Chemscore.DEInternal>
4.4652

> <Gold.Chemscore.Rot>
1.4942

> <Gold.Chemscore.Internal.Correction>
   9.000000E+99

> <Gold.Chemscore.Hbonds>
donor molecule, donor type, donor heavy atom, donor atom, acceptor molecule, acceptor atom, score
      L1  H    10    29       P1  8028  0.85
      L1  H    19    20       P1  7948  0.88
      P1  H  7989  7998       L1    18  0.53

> <Gold.Chemscore.Hbond.Weighted>
-8.5774

> <Gold.Chemscore.Metal.Weighted>
-0.0000

> <Gold.Chemscore.Lipo.Weighted>
-11.3248

> <Gold.Chemscore.Internal_Hbond.Weighted>
0.0000

> <Gold.Chemscore.DEClash.Weighted>
2.5068

> <Gold.Chemscore.DEInternal.Weighted>
4.4652

> <Gold.Chemscore.Rot.Weighted>
3.8253

> <Gold.Chemscore.Internal.Correction.Weighted>
   9.000000E+99

> <Gold.Protein.RotatedTorsions>
[ 6907 6896 6895 6894 ] final   79.59 input  -60.11 | X-H torsion
[ 7974 7965 7964 7962 ] final  126.06 input  175.53 | X-H torsion
[ 8008 7997 7996 7995 ] final  -29.16 input   59.86 | X-H torsion
[ 10167 10162 10161 10158 ] final  159.66 input  -65.29 | X-H torsion
[ 10718 10713 10712 10709 ] final   15.82 input   66.30 | X-H torsion
[ 10763 10752 10751 10750 ] final  168.32 input  -60.55 | X-H torsion
[ 11005 11000 10999 10996 ] final   70.59 input  -57.11 | X-H torsion

> <Gold.Protein.ActiveResidues>
 VAL166  LYS551  ARG553  GLY616  TRP617  ASP618  TYR619  PRO620  LYS621  CYS622 
 ASP623  PHE694  ASN695  SER759  ASP760  ASP761  ALA762  ILE779  LEU786  VAL792 
 PHE793  MET794  SER795  GLU796  ALA797  LYS798  CYS799  TRP800  GLU811  SER814 

> <Gold.Protein.RotatedAtoms>
  152.5204  134.3488  159.9243 H   0  0  0  0  0  0  0  0  0  0  0  0  # atno 6907 bound_to 6896
  151.3438  133.3945  159.2681 H   0  0  0  0  0  0  0  0  0  0  0  0  # atno 6908 bound_to 6896
  150.9782  134.9160  159.7886 H   0  0  0  0  0  0  0  0  0  0  0  0  # atno 6909 bound_to 6896
  145.0659  139.3768  143.4982 H   0  0  0  0  0  0  0  0  0  0  0  0  # atno 7974 bound_to 7965
  154.4301  140.1826  156.1204 H   0  0  0  0  0  0  0  0  0  0  0  0  # atno 8008 bound_to 7997
  156.0147  140.3347  155.6952 H   0  0  0  0  0  0  0  0  0  0  0  0  # atno 8009 bound_to 7997
  155.6060  140.0645  157.2710 H   0  0  0  0  0  0  0  0  0  0  0  0  # atno 8010 bound_to 7997
  139.4834  144.4708  151.8578 H   0  0  0  0  0  0  0  0  0  0  0  0  # atno 10167 bound_to 10162
  157.0590  130.6301  149.5782 H   0  0  0  0  0  0  0  0  0  0  0  0  # atno 10718 bound_to 10713
  154.3668  135.2753  155.2289 H   0  0  0  0  0  0  0  0  0  0  0  0  # atno 10763 bound_to 10752
  154.4453  135.5944  153.6159 H   0  0  0  0  0  0  0  0  0  0  0  0  # atno 10764 bound_to 10752
  152.9840  135.6028  154.3895 H   0  0  0  0  0  0  0  0  0  0  0  0  # atno 10765 bound_to 10752
  139.9589  134.7095  156.0689 H   0  0  0  0  0  0  0  0  0  0  0  0  # atno 11005 bound_to 11000
  146.3526  140.0381  142.8645 LP  0  0  0  0  0  0  0  0  0  0  0  0  # atno 17320 bound_to 7965
  145.1351  140.9540  143.4521 LP  0  0  0  0  0  0  0  0  0  0  0  0  # atno 17321 bound_to 7965
  140.4177  144.2285  150.5887 LP  0  0  0  0  0  0  0  0  0  0  0  0  # atno 17342 bound_to 10162
  140.4904  143.2349  151.8826 LP  0  0  0  0  0  0  0  0  0  0  0  0  # atno 17343 bound_to 10162
  155.9984  130.5058  150.7570 LP  0  0  0  0  0  0  0  0  0  0  0  0  # atno 17370 bound_to 10713
  157.4970  131.0915  151.0359 LP  0  0  0  0  0  0  0  0  0  0  0  0  # atno 17371 bound_to 10713
  141.1264  133.6598  156.3349 LP  0  0  0  0  0  0  0  0  0  0  0  0  # atno 17394 bound_to 11000
  140.5544  134.5996  157.5417 LP  0  0  0  0  0  0  0  0  0  0  0  0  # atno 17395 bound_to 11000

$$$$
