AV-unprocessed.smi:1047|AV-procd|sdf|4569|dock5
  -GOLD-   22720 3 23D 1   1.00000     0.00000
 Structure written by MMmdl.
 56 58  0  0  0  0  0  0  0  0  2 V2000
  147.3419  136.3356  162.5523 C   0  0  0  0  0  0  0  0  0  0  0  0
  148.0926  135.9201  161.2789 C   0  0  0  0  0  0  0  0  0  0  0  0
  147.8061  136.7363  160.1001 N   0  0  0  0  0  0  0  0  0  0  0  0
  146.5142  136.3829  159.5227 C   0  0  0  0  0  0  0  0  0  0  0  0
  146.1922  137.2272  158.2792 C   0  0  0  0  0  0  0  0  0  0  0  0
  147.2356  137.0771  157.3224 O   0  0  0  0  0  0  0  0  0  0  0  0
  148.5125  137.4651  157.8241 C   0  0  2  0  0  0  0  0  0  0  0  0
  149.5466  137.2600  156.7092 C   0  0  0  0  0  0  0  0  0  0  0  0
  149.2096  138.0572  155.5131 N   0  3  0  0  0  0  0  0  0  0  0  0
  148.7482  139.4254  155.8192 C   0  0  0  0  0  0  0  0  0  0  0  0
  149.2886  140.4466  154.8009 C   0  0  2  0  0  0  0  0  0  0  0  0
  150.0948  139.7670  153.8577 O   0  0  0  0  0  0  0  0  0  0  0  0
  150.1126  141.5835  155.4453 C   0  0  0  0  0  0  0  0  0  0  0  0
  151.0876  141.1161  156.4181 N   0  0  0  0  0  0  0  0  0  0  0  0
  151.8696  140.0232  156.3218 C   0  0  0  0  0  0  0  0  0  0  0  0
  152.6878  139.7677  157.3381 N   0  0  0  0  0  0  0  0  0  0  0  0
  152.4144  140.8241  158.1895 C   0  0  0  0  0  0  0  0  0  0  0  0
  152.9476  141.1406  159.4582 C   0  0  0  0  0  0  0  0  0  0  0  0
  152.5116  142.2853  160.1626 C   0  0  0  0  0  0  0  0  0  0  0  0
  153.1066  142.5834  161.5275 C   0  0  0  0  0  0  0  0  0  0  0  0
  151.5304  143.1375  159.5955 C   0  0  0  0  0  0  0  0  0  0  0  0
  151.0468  144.3731  160.3342 C   0  0  0  0  0  0  0  0  0  0  0  0
  150.9896  142.8377  158.3279 C   0  0  0  0  0  0  0  0  0  0  0  0
  151.4247  141.6908  157.6400 C   0  0  0  0  0  0  0  0  0  0  0  0
  148.8349  136.6146  159.0699 C   0  0  0  0  0  0  0  0  0  0  0  0
  147.5195  135.6163  163.3520 H   0  0  0  0  0  0  0  0  0  0  0  0
  146.2662  136.3775  162.3788 H   0  0  0  0  0  0  0  0  0  0  0  0
  147.6646  137.3102  162.9177 H   0  0  0  0  0  0  0  0  0  0  0  0
  149.1660  135.9136  161.4752 H   0  0  0  0  0  0  0  0  0  0  0  0
  147.8213  134.8857  161.0642 H   0  0  0  0  0  0  0  0  0  0  0  0
  146.5065  135.3258  159.2519 H   0  0  0  0  0  0  0  0  0  0  0  0
  145.7261  136.5198  160.2643 H   0  0  0  0  0  0  0  0  0  0  0  0
  145.2509  136.9042  157.8345 H   0  0  0  0  0  0  0  0  0  0  0  0
  146.0792  138.2797  158.5439 H   0  0  0  0  0  0  0  0  0  0  0  0
  148.4867  138.5198  158.1045 H   0  0  0  0  0  0  0  0  0  0  0  0
  150.5339  137.5626  157.0606 H   0  0  0  0  0  0  0  0  0  0  0  0
  149.6092  136.2037  156.4438 H   0  0  0  0  0  0  0  0  0  0  0  0
  150.0324  138.1237  154.9303 H   0  0  0  0  0  0  0  0  0  0  0  0
  147.6580  139.4288  155.7964 H   0  0  0  0  0  0  0  0  0  0  0  0
  149.0494  139.6917  156.8336 H   0  0  0  0  0  0  0  0  0  0  0  0
  148.4517  140.8945  154.2635 H   0  0  0  0  0  0  0  0  0  0  0  0
  149.6569  139.7800  153.0199 H   0  0  0  0  0  0  0  0  0  0  0  0
  150.6374  142.1515  154.6756 H   0  0  0  0  0  0  0  0  0  0  0  0
  149.4460  142.2893  155.9418 H   0  0  0  0  0  0  0  0  0  0  0  0
  151.8285  139.3725  155.4601 H   0  0  0  0  0  0  0  0  0  0  0  0
  153.6960  140.4921  159.8894 H   0  0  0  0  0  0  0  0  0  0  0  0
  153.5790  143.5661  161.5341 H   0  0  0  0  0  0  0  0  0  0  0  0
  153.8635  141.8480  161.8015 H   0  0  0  0  0  0  0  0  0  0  0  0
  152.3306  142.5660  162.2934 H   0  0  0  0  0  0  0  0  0  0  0  0
  150.3004  144.9173  159.7549 H   0  0  0  0  0  0  0  0  0  0  0  0
  151.8773  145.0519  160.5291 H   0  0  0  0  0  0  0  0  0  0  0  0
  150.5946  144.0960  161.2868 H   0  0  0  0  0  0  0  0  0  0  0  0
  150.2426  143.4802  157.8866 H   0  0  0  0  0  0  0  0  0  0  0  0
  149.8003  136.9291  159.4660 H   0  0  0  0  0  0  0  0  0  0  0  0
  148.9426  135.5683  158.7787 H   0  0  0  0  0  0  0  0  0  0  0  0
  148.4868  137.5781  154.9954 H   0  0  0  0  0  0  0  0  0  0  0  0
  1  2  1  0  0  0  0
  1 26  1  0  0  0  0
  1 27  1  0  0  0  0
  1 28  1  0  0  0  0
  2  3  1  0  0  0  0
  2 29  1  0  0  0  0
  2 30  1  0  0  0  0
  3 25  1  0  0  0  0
  3  4  1  0  0  0  0
  4  5  1  0  0  0  0
  4 31  1  0  0  0  0
  4 32  1  0  0  0  0
  5  6  1  0  0  0  0
  5 33  1  0  0  0  0
  5 34  1  0  0  0  0
  6  7  1  0  0  0  0
  7  8  1  0  0  0  0
  7 25  1  0  0  0  0
  7 35  1  0  0  0  0
  8  9  1  0  0  0  0
  8 36  1  0  0  0  0
  8 37  1  0  0  0  0
  9 10  1  0  0  0  0
  9 38  1  0  0  0  0
  9 56  1  0  0  0  0
 10 11  1  0  0  0  0
 10 39  1  0  0  0  0
 10 40  1  0  0  0  0
 11 12  1  0  0  0  0
 11 13  1  0  0  0  0
 11 41  1  0  0  0  0
 12 42  1  0  0  0  0
 13 14  1  0  0  0  0
 13 43  1  0  0  0  0
 13 44  1  0  0  0  0
 14 24  1  0  0  0  0
 14 15  1  0  0  0  0
 15 16  2  0  0  0  0
 15 45  1  0  0  0  0
 16 17  1  0  0  0  0
 17 24  2  0  0  0  0
 17 18  1  0  0  0  0
 18 19  2  0  0  0  0
 18 46  1  0  0  0  0
 19 20  1  0  0  0  0
 19 21  1  0  0  0  0
 20 47  1  0  0  0  0
 20 48  1  0  0  0  0
 20 49  1  0  0  0  0
 21 22  1  0  0  0  0
 21 23  2  0  0  0  0
 22 50  1  0  0  0  0
 22 51  1  0  0  0  0
 22 52  1  0  0  0  0
 23 24  1  0  0  0  0
 23 53  1  0  0  0  0
 25 54  1  0  0  0  0
 25 55  1  0  0  0  0
M  CHG  1   9   1
M  END
> <s_m_source_file>
AV-unprocessed.smi

> <i_m_source_file_index>
1047

> <i_lp_mmshare_version>
43012

> <i_f3d_flags>
0

> <s_epik_input>
W0NIM11bQ0gyXU4xW0NIMl1bQ0gyXU9bQ0BIXShbQ0gyXTEpW0NIMl1bTkhdW0NIMl1bQ0BIXShbT0hdKVtDSDJdbihbY0hdbjIpYyhjMjMpW2NIXWMoW0NIM10pYyhbY0hdMylbQ0gzXQ==

> <s_epik_cmdline>
J2VwaWtfcHl0aG9uJywgJy1waCcsICc3LjAnLCAnLXRuJywgJzgnLCAnLW1hJywgJzIwMCcsICctbWV0YWxfYmluZGluZycsICctaW1hZScsICc8aW5maWxlLm1hZT4nLCAnLW9tYWUnLCAnPG91dGZpbGUubWFlPic=

> <r_epik_Ionization_Penalty>
0.692425

> <r_epik_Ionization_Penalty_Charging>
0.0243549

> <r_epik_Ionization_Penalty_Neutral>
0.66807

> <r_epik_State_Penalty>
0.592789

> <r_epik_Charging_Adjusted_Penalty>
0.617144

> <i_epik_Tot_Q>
1

> <i_epik_Tot_abs_Q>
1

> <r_epik_Metal_State_Penalty>
0.508021

> <b_epik_Metal_Only>
0

> <s_lp_Force_Field>
OPLS_2005

> <r_lp_Energy>
30.0257

> <b_lp_Chiralities_Consistent>
1

> <s_lp_Variant>
AV-unprocessed.smi:1047-10

> <Gold.Version>
5.8.1

> <Gold.Id.Protein>
6NUR|6NUR_protein|mol2

> <Gold.PLP.Fitness>
55.0555

> <Gold.PLP.PLP>
-46.2821

> <Gold.PLP.part.hbond>
-4.3846

> <Gold.PLP.part.metal>
0.0000

> <Gold.PLP.part.buried>
-5.8582

> <Gold.PLP.part.nonpolar>
-35.7950

> <Gold.PLP.part.repulsive>
0.0000

> <Gold.PLP.ligand.clash>
0.0000

> <Gold.PLP.ligand.torsion>
1.6327

> <Gold.PLP.Chemscore.Hbond>
3.9040

> <Gold.PLP.Chemscore.CHOScore>
0.0000

> <Gold.PLP.Chemscore.Metal>
0.0000

> <Gold.Chemscore.Hbonds>
donor molecule, donor type, donor heavy atom, donor atom, acceptor molecule, acceptor atom, score
      L1  H    12    42       P1  7957  1.00
      P1  H  7989  7998       L1    12  0.93
      P1  H  7997  8009       L1    16  1.00

> <Gold.PLP.Chemscore.Internal.Correction>
0.3269

> <Gold.Rescore>
     Score         DG    S(hbond)    S(metal)    S(lipo)     H(rot)  DE(clash)    DE(int)     intcor
     16.94     -19.38       2.05        0.00     117.40       2.60       0.07       2.37       ----

> <Gold.Chemscore.Fitness>
16.9395

> <Gold.Chemscore.DG>
-19.3839

> <Gold.Chemscore.ZeroCoef>
-5.4800

> <Gold.Chemscore.Hbond>
2.0469

> <Gold.Chemscore.Metal>
0.0000

> <Gold.Chemscore.Lipo>
117.4000

> <Gold.Chemscore.Internal_Hbond>
0.0000

> <Gold.Chemscore.DEClash>
0.0727

> <Gold.Chemscore.DEInternal>
2.3717

> <Gold.Chemscore.Rot>
2.6049

> <Gold.Chemscore.Internal.Correction>
   9.000000E+99

> <Gold.Chemscore.Hbonds>
donor molecule, donor type, donor heavy atom, donor atom, acceptor molecule, acceptor atom, score
      L1  H    12    42       P1  7957  0.97
      P1  H  7989  7998       L1    12  0.15
      P1  H  7997  8009       L1    16  0.21

> <Gold.Chemscore.Hbond.Weighted>
-6.8366

> <Gold.Chemscore.Metal.Weighted>
-0.0000

> <Gold.Chemscore.Lipo.Weighted>
-13.7358

> <Gold.Chemscore.Internal_Hbond.Weighted>
0.0000

> <Gold.Chemscore.DEClash.Weighted>
0.0727

> <Gold.Chemscore.DEInternal.Weighted>
2.3717

> <Gold.Chemscore.Rot.Weighted>
6.6685

> <Gold.Chemscore.Internal.Correction.Weighted>
   9.000000E+99

> <Gold.Protein.RotatedTorsions>
[ 6907 6896 6895 6894 ] final  -67.94 input  -60.11 | X-H torsion
[ 7974 7965 7964 7962 ] final -150.66 input  175.53 | X-H torsion
[ 8008 7997 7996 7995 ] final -175.74 input   59.86 | X-H torsion
[ 10167 10162 10161 10158 ] final  -72.50 input  -65.29 | X-H torsion
[ 10718 10713 10712 10709 ] final  119.53 input   66.30 | X-H torsion
[ 10763 10752 10751 10750 ] final   30.40 input  -60.55 | X-H torsion
[ 11005 11000 10999 10996 ] final  -63.87 input  -57.11 | X-H torsion

> <Gold.Protein.ActiveResidues>
 VAL166  LYS551  ARG553  GLY616  TRP617  ASP618  TYR619  PRO620  LYS621  CYS622 
 ASP623  PHE694  ASN695  SER759  ASP760  ASP761  ALA762  ILE779  LEU786  VAL792 
 PHE793  MET794  SER795  GLU796  ALA797  LYS798  CYS799  TRP800  GLU811  SER814 

> <Gold.Protein.RotatedAtoms>
  150.7382  134.5810  159.5938 H   0  0  0  0  0  0  0  0  0  0  0  0  # atno 6907 bound_to 6896
  152.3223  134.7361  160.0319 H   0  0  0  0  0  0  0  0  0  0  0  0  # atno 6908 bound_to 6896
  151.7872  133.3320  159.3525 H   0  0  0  0  0  0  0  0  0  0  0  0  # atno 6909 bound_to 6896
  144.7895  140.4902  143.5783 H   0  0  0  0  0  0  0  0  0  0  0  0  # atno 7974 bound_to 7965
  155.9863  140.1192  157.0680 H   0  0  0  0  0  0  0  0  0  0  0  0  # atno 8008 bound_to 7997
  154.4198  140.1134  156.5572 H   0  0  0  0  0  0  0  0  0  0  0  0  # atno 8009 bound_to 7997
  155.6403  140.3473  155.4715 H   0  0  0  0  0  0  0  0  0  0  0  0  # atno 8010 bound_to 7997
  140.5187  143.2334  151.7467 H   0  0  0  0  0  0  0  0  0  0  0  0  # atno 10167 bound_to 10162
  157.5955  131.1058  150.7909 H   0  0  0  0  0  0  0  0  0  0  0  0  # atno 10718 bound_to 10713
  153.0374  135.6465  154.1038 H   0  0  0  0  0  0  0  0  0  0  0  0  # atno 10763 bound_to 10752
  154.0751  135.2877  155.3302 H   0  0  0  0  0  0  0  0  0  0  0  0  # atno 10764 bound_to 10752
  154.6568  135.5406  153.8033 H   0  0  0  0  0  0  0  0  0  0  0  0  # atno 10765 bound_to 10752
  141.1407  133.6658  156.5747 H   0  0  0  0  0  0  0  0  0  0  0  0  # atno 11005 bound_to 11000
  145.5833  139.1490  143.3223 LP  0  0  0  0  0  0  0  0  0  0  0  0  # atno 17320 bound_to 7965
  146.2141  140.5962  142.9046 LP  0  0  0  0  0  0  0  0  0  0  0  0  # atno 17321 bound_to 7965
  139.4917  144.4286  151.9898 LP  0  0  0  0  0  0  0  0  0  0  0  0  # atno 17342 bound_to 10162
  140.3381  144.3236  150.5973 LP  0  0  0  0  0  0  0  0  0  0  0  0  # atno 17343 bound_to 10162
  156.8321  130.5019  149.5330 LP  0  0  0  0  0  0  0  0  0  0  0  0  # atno 17370 bound_to 10713
  156.1017  130.5974  150.9904 LP  0  0  0  0  0  0  0  0  0  0  0  0  # atno 17371 bound_to 10713
  140.3885  134.7461  157.4707 LP  0  0  0  0  0  0  0  0  0  0  0  0  # atno 17394 bound_to 11000
  140.0584  134.6031  155.8778 LP  0  0  0  0  0  0  0  0  0  0  0  0  # atno 17395 bound_to 11000

$$$$
