AV-unprocessed.smi:912|AV-procd|sdf|4143|dock5
  -GOLD-   22720 2 53D 1   1.00000     0.00000
 Structure written by MMmdl.
 27 27  0  0  0  0  0  0  0  0  2 V2000
  146.7231  139.0167  152.3182 C   0  0  0  0  0  0  0  0  0  0  0  0
  148.1011  138.7297  152.7813 N   0  3  0  0  0  0  0  0  0  0  0  0
  148.4625  139.0911  154.1831 C   0  0  2  0  0  0  0  0  0  0  0  0
  147.3382  138.6421  155.1533 C   0  0  0  0  0  0  0  0  0  0  0  0
  148.6836  140.6247  154.2365 C   0  0  0  0  0  0  0  0  0  0  0  0
  147.9144  141.3394  155.0664 N   0  0  0  0  0  0  0  0  0  0  0  0
  149.5491  141.1637  153.5491 O   0  0  0  0  0  0  0  0  0  0  0  0
  149.7771  138.3933  154.5927 C   0  0  0  0  0  0  0  0  0  0  0  0
  151.0259  139.0658  154.6167 C   0  0  0  0  0  0  0  0  0  0  0  0
  152.1803  138.3530  154.9993 C   0  0  0  0  0  0  0  0  0  0  0  0
  152.1686  137.0506  155.3475 N   0  0  0  0  0  0  0  0  0  0  0  0
  150.9851  136.4056  155.3249 C   0  0  0  0  0  0  0  0  0  0  0  0
  149.7742  137.0251  154.9589 C   0  0  0  0  0  0  0  0  0  0  0  0
  146.6476  138.7904  151.2546 H   0  0  0  0  0  0  0  0  0  0  0  0
  146.4543  140.0646  152.4524 H   0  0  0  0  0  0  0  0  0  0  0  0
  145.9898  138.3967  152.8335 H   0  0  0  0  0  0  0  0  0  0  0  0
  148.2556  137.7375  152.6741 H   0  0  0  0  0  0  0  0  0  0  0  0
  147.5822  138.8646  156.1925 H   0  0  0  0  0  0  0  0  0  0  0  0
  147.1692  137.5669  155.0856 H   0  0  0  0  0  0  0  0  0  0  0  0
  146.3875  139.1362  154.9520 H   0  0  0  0  0  0  0  0  0  0  0  0
  148.0436  142.3372  155.1527 H   0  0  0  0  0  0  0  0  0  0  0  0
  147.2191  140.8694  155.6292 H   0  0  0  0  0  0  0  0  0  0  0  0
  151.1303  140.1070  154.3529 H   0  0  0  0  0  0  0  0  0  0  0  0
  153.1410  138.8456  155.0260 H   0  0  0  0  0  0  0  0  0  0  0  0
  151.0015  135.3636  155.6083 H   0  0  0  0  0  0  0  0  0  0  0  0
  148.8592  136.4510  154.9660 H   0  0  0  0  0  0  0  0  0  0  0  0
  148.7423  139.2152  152.1707 H   0  0  0  0  0  0  0  0  0  0  0  0
  1  2  1  0  0  0  0
  1 14  1  0  0  0  0
  1 15  1  0  0  0  0
  1 16  1  0  0  0  0
  2  3  1  0  0  0  0
  2 17  1  0  0  0  0
  2 27  1  0  0  0  0
  3  4  1  0  0  0  0
  3  5  1  0  0  0  0
  3  8  1  0  0  0  0
  4 18  1  0  0  0  0
  4 19  1  0  0  0  0
  4 20  1  0  0  0  0
  5  6  1  0  0  0  0
  5  7  2  0  0  0  0
  6 21  1  0  0  0  0
  6 22  1  0  0  0  0
  8 13  1  0  0  0  0
  8  9  2  0  0  0  0
  9 10  1  0  0  0  0
  9 23  1  0  0  0  0
 10 11  2  0  0  0  0
 10 24  1  0  0  0  0
 11 12  1  0  0  0  0
 12 13  2  0  0  0  0
 12 25  1  0  0  0  0
 13 26  1  0  0  0  0
M  CHG  1   2   1
M  END
> <s_m_source_file>
AV-unprocessed.smi

> <i_m_source_file_index>
912

> <i_lp_mmshare_version>
43012

> <i_f3d_flags>
0

> <s_epik_input>
W0NIM11bTkhdW0NAQF0oW0NIM10pKEMoPU8pW05IMl0pYzFbY0hdW2NIXW5bY0hdW2NIXTE=

> <s_epik_cmdline>
J2VwaWtfcHl0aG9uJywgJy1waCcsICc3LjAnLCAnLXRuJywgJzgnLCAnLW1hJywgJzIwMCcsICctbWV0YWxfYmluZGluZycsICctaW1hZScsICc8aW5maWxlLm1hZT4nLCAnLW9tYWUnLCAnPG91dGZpbGUubWFlPic=

> <r_epik_Ionization_Penalty>
0.8426

> <r_epik_Ionization_Penalty_Charging>
0.842363

> <r_epik_Ionization_Penalty_Neutral>
0.000236815

> <r_epik_State_Penalty>
0.498415

> <r_epik_Charging_Adjusted_Penalty>
1.34078

> <i_epik_Tot_Q>
1

> <i_epik_Tot_abs_Q>
1

> <r_epik_Metal_State_Penalty>
0.661775

> <b_epik_Metal_Only>
0

> <s_lp_Force_Field>
OPLS_2005

> <r_lp_Energy>
11.5286

> <b_lp_Chiralities_Consistent>
1

> <s_lp_Variant>
AV-unprocessed.smi:912-4

> <Gold.Version>
5.8.1

> <Gold.Id.Protein>
6NUR|6NUR_protein|mol2

> <Gold.PLP.Fitness>
34.9998

> <Gold.PLP.PLP>
-20.9630

> <Gold.PLP.part.hbond>
-5.0000

> <Gold.PLP.part.metal>
0.0000

> <Gold.PLP.part.buried>
-3.1520

> <Gold.PLP.part.nonpolar>
-16.6119

> <Gold.PLP.part.repulsive>
3.2516

> <Gold.PLP.ligand.clash>
0.0000

> <Gold.PLP.ligand.torsion>
0.8819

> <Gold.PLP.Chemscore.Hbond>
5.2640

> <Gold.PLP.Chemscore.CHOScore>
0.0000

> <Gold.PLP.Chemscore.Metal>
0.0000

> <Gold.Chemscore.Hbonds>
donor molecule, donor type, donor heavy atom, donor atom, acceptor molecule, acceptor atom, score
      L1  H     2    17       P1  7948  2.00
      L1  H     2    27       P1  7957  1.00
      P1  H  7989  7998       L1     7  0.19
      P1  H  8011  8017       L1     7  0.99
      P1  H 10752 10763       L1    11  0.48

> <Gold.PLP.Chemscore.Internal.Correction>
0.0087

> <Gold.Rescore>
     Score         DG    S(hbond)    S(metal)    S(lipo)     H(rot)  DE(clash)    DE(int)     intcor
     16.02     -20.24       4.27        0.00      44.35       1.83       2.23       2.00       ----

> <Gold.Chemscore.Fitness>
16.0176

> <Gold.Chemscore.DG>
-20.2444

> <Gold.Chemscore.ZeroCoef>
-5.4800

> <Gold.Chemscore.Hbond>
4.2671

> <Gold.Chemscore.Metal>
0.0000

> <Gold.Chemscore.Lipo>
44.3546

> <Gold.Chemscore.Internal_Hbond>
0.0000

> <Gold.Chemscore.DEClash>
2.2284

> <Gold.Chemscore.DEInternal>
1.9984

> <Gold.Chemscore.Rot>
1.8270

> <Gold.Chemscore.Internal.Correction>
   9.000000E+99

> <Gold.Chemscore.Hbonds>
donor molecule, donor type, donor heavy atom, donor atom, acceptor molecule, acceptor atom, score
      L1  H     2    17       P1  7948  0.97
      L1  H     2    27       P1  7957  0.95
      P1  H  7989  7998       L1     7  0.20
      P1  H  8011  8017       L1     7  0.94
      P1  H 10752 10763       L1    11  0.03

> <Gold.Chemscore.Hbond.Weighted>
-14.2520

> <Gold.Chemscore.Metal.Weighted>
-0.0000

> <Gold.Chemscore.Lipo.Weighted>
-5.1895

> <Gold.Chemscore.Internal_Hbond.Weighted>
0.0000

> <Gold.Chemscore.DEClash.Weighted>
2.2284

> <Gold.Chemscore.DEInternal.Weighted>
1.9984

> <Gold.Chemscore.Rot.Weighted>
4.6771

> <Gold.Chemscore.Internal.Correction.Weighted>
   9.000000E+99

> <Gold.Protein.RotatedTorsions>
[ 6907 6896 6895 6894 ] final  -47.02 input  -60.11 | X-H torsion
[ 7974 7965 7964 7962 ] final -167.59 input  175.53 | X-H torsion
[ 8008 7997 7996 7995 ] final  -84.10 input   59.86 | X-H torsion
[ 10167 10162 10161 10158 ] final  124.16 input  -65.29 | X-H torsion
[ 10718 10713 10712 10709 ] final  175.33 input   66.30 | X-H torsion
[ 10763 10752 10751 10750 ] final   75.55 input  -60.55 | X-H torsion
[ 11005 11000 10999 10996 ] final -176.89 input  -57.11 | X-H torsion

> <Gold.Protein.ActiveResidues>
 VAL166  LYS551  ARG553  GLY616  TRP617  ASP618  TYR619  PRO620  LYS621  CYS622 
 ASP623  PHE694  ASN695  SER759  ASP760  ASP761  ALA762  ILE779  LEU786  VAL792 
 PHE793  MET794  SER795  GLU796  ALA797  LYS798  CYS799  TRP800  GLU811  SER814 

> <Gold.Protein.RotatedAtoms>
  150.9051  134.8466  159.7386 H   0  0  0  0  0  0  0  0  0  0  0  0  # atno 6907 bound_to 6896
  152.4914  134.4443  159.9563 H   0  0  0  0  0  0  0  0  0  0  0  0  # atno 6908 bound_to 6896
  151.4491  133.3583  159.2828 H   0  0  0  0  0  0  0  0  0  0  0  0  # atno 6909 bound_to 6896
  144.7220  140.2496  143.6280 H   0  0  0  0  0  0  0  0  0  0  0  0  # atno 7974 bound_to 7965
  154.6261  140.0609  156.9675 H   0  0  0  0  0  0  0  0  0  0  0  0  # atno 8008 bound_to 7997
  155.1739  140.3293  155.4369 H   0  0  0  0  0  0  0  0  0  0  0  0  # atno 8009 bound_to 7997
  156.2458  140.1909  156.6840 H   0  0  0  0  0  0  0  0  0  0  0  0  # atno 8010 bound_to 7997
  139.5757  144.6962  151.3659 H   0  0  0  0  0  0  0  0  0  0  0  0  # atno 10167 bound_to 10162
  156.9364  130.9987  151.2977 H   0  0  0  0  0  0  0  0  0  0  0  0  # atno 10718 bound_to 10713
  153.0663  135.4984  154.8207 H   0  0  0  0  0  0  0  0  0  0  0  0  # atno 10763 bound_to 10752
  154.6958  135.2992  154.9416 H   0  0  0  0  0  0  0  0  0  0  0  0  # atno 10764 bound_to 10752
  154.0156  135.6748  153.4821 H   0  0  0  0  0  0  0  0  0  0  0  0  # atno 10765 bound_to 10752
  140.4471  134.6378  157.4784 H   0  0  0  0  0  0  0  0  0  0  0  0  # atno 11005 bound_to 11000
  145.8240  139.2056  143.1921 LP  0  0  0  0  0  0  0  0  0  0  0  0  # atno 17320 bound_to 7965
  146.0489  140.8090  142.9791 LP  0  0  0  0  0  0  0  0  0  0  0  0  # atno 17321 bound_to 7965
  140.7040  143.7561  150.7450 LP  0  0  0  0  0  0  0  0  0  0  0  0  # atno 17342 bound_to 10162
  140.1080  143.4726  152.2387 LP  0  0  0  0  0  0  0  0  0  0  0  0  # atno 17343 bound_to 10162
  157.5813  130.8378  149.8527 LP  0  0  0  0  0  0  0  0  0  0  0  0  # atno 17370 bound_to 10713
  156.0424  130.3736  150.1402 LP  0  0  0  0  0  0  0  0  0  0  0  0  # atno 17371 bound_to 10713
  140.0031  134.6805  155.9498 LP  0  0  0  0  0  0  0  0  0  0  0  0  # atno 17394 bound_to 11000
  141.1680  133.6537  156.4550 LP  0  0  0  0  0  0  0  0  0  0  0  0  # atno 17395 bound_to 11000

$$$$
