AV-unprocessed.smi:1584|AV-procd|sdf|6365|dock7
  -GOLD-   22720 6593D 1   1.00000     0.00000
 Structure written by MMmdl.
 39 40  0  0  0  0  0  0  0  0  1 V2000
  153.3544  137.2036  157.0149 C   0  0  0  0  0  0  0  0  0  0  0  0
  152.1722  138.1106  156.6407 C   0  0  2  0  0  0  0  0  0  0  0  0
  151.9818  138.1912  155.1136 C   0  0  0  0  0  0  0  0  0  0  0  0
  150.7794  138.9169  154.7438 N   0  0  0  0  0  0  0  0  0  0  0  0
  149.5914  138.4155  154.2543 C   0  0  0  0  0  0  0  0  0  0  0  0
  148.7584  139.4770  154.0447 C   0  0  0  0  0  0  0  0  0  0  0  0
  149.5360  140.6004  154.4423 C   0  0  0  0  0  0  0  0  0  0  0  0
  150.7446  140.2619  154.8614 N   0  0  0  0  0  0  0  0  0  0  0  0
  152.3808  139.4497  157.1877 N   0  0  0  0  0  0  0  0  0  0  0  0
  151.6829  140.0004  158.1927 C   0  0  0  0  0  0  0  0  0  0  0  0
  150.7880  139.4096  158.7984 O   0  0  0  0  0  0  0  0  0  0  0  0
  152.0555  141.4404  158.5695 C   0  0  2  0  0  0  0  0  0  0  0  0
  152.4079  141.5390  160.0586 C   0  0  0  0  0  0  0  0  0  0  0  0
  152.8472  142.9691  160.3982 C   0  0  0  0  0  0  0  0  0  0  0  0
  151.9412  144.0024  159.8766 N   0  0  0  0  0  0  0  0  0  0  0  0
  152.0866  145.3203  160.4974 C   0  0  0  0  0  0  0  0  0  0  0  0
  151.0697  143.8158  158.8555 C   0  0  0  0  0  0  0  0  0  0  0  0
  150.3720  144.7267  158.4082 O   0  0  0  0  0  0  0  0  0  0  0  0
  150.9054  142.4143  158.2433 C   0  0  0  0  0  0  0  0  0  0  0  0
  153.2099  136.1941  156.6291 H   0  0  0  0  0  0  0  0  0  0  0  0
  153.4663  137.1271  158.0970 H   0  0  0  0  0  0  0  0  0  0  0  0
  154.2917  137.5844  156.6082 H   0  0  0  0  0  0  0  0  0  0  0  0
  151.2667  137.6790  157.0719 H   0  0  0  0  0  0  0  0  0  0  0  0
  152.8403  138.6733  154.6436 H   0  0  0  0  0  0  0  0  0  0  0  0
  151.9173  137.1885  154.6883 H   0  0  0  0  0  0  0  0  0  0  0  0
  149.4413  137.3579  154.0942 H   0  0  0  0  0  0  0  0  0  0  0  0
  147.7478  139.4549  153.6646 H   0  0  0  0  0  0  0  0  0  0  0  0
  149.2600  141.6446  154.4396 H   0  0  0  0  0  0  0  0  0  0  0  0
  153.1002  140.0092  156.7531 H   0  0  0  0  0  0  0  0  0  0  0  0
  152.9323  141.7345  157.9891 H   0  0  0  0  0  0  0  0  0  0  0  0
  151.5440  141.2706  160.6693 H   0  0  0  0  0  0  0  0  0  0  0  0
  153.2025  140.8377  160.3174 H   0  0  0  0  0  0  0  0  0  0  0  0
  152.9402  143.0636  161.4811 H   0  0  0  0  0  0  0  0  0  0  0  0
  153.8390  143.1530  159.9827 H   0  0  0  0  0  0  0  0  0  0  0  0
  152.2547  146.0922  159.7447 H   0  0  0  0  0  0  0  0  0  0  0  0
  152.9290  145.3579  161.1892 H   0  0  0  0  0  0  0  0  0  0  0  0
  151.1857  145.5773  161.0563 H   0  0  0  0  0  0  0  0  0  0  0  0
  150.8032  142.5132  157.1617 H   0  0  0  0  0  0  0  0  0  0  0  0
  149.9557  142.0192  158.6069 H   0  0  0  0  0  0  0  0  0  0  0  0
  1  2  1  0  0  0  0
  1 20  1  0  0  0  0
  1 21  1  0  0  0  0
  1 22  1  0  0  0  0
  2  3  1  0  0  0  0
  2  9  1  0  0  0  0
  2 23  1  0  0  0  0
  3  4  1  0  0  0  0
  3 24  1  0  0  0  0
  3 25  1  0  0  0  0
  4  8  1  0  0  0  0
  4  5  1  0  0  0  0
  5  6  2  0  0  0  0
  5 26  1  0  0  0  0
  6  7  1  0  0  0  0
  6 27  1  0  0  0  0
  7  8  2  0  0  0  0
  7 28  1  0  0  0  0
  9 10  1  0  0  0  0
  9 29  1  0  0  0  0
 10 11  2  0  0  0  0
 10 12  1  0  0  0  0
 12 19  1  0  0  0  0
 12 13  1  0  0  0  0
 12 30  1  0  0  0  0
 13 14  1  0  0  0  0
 13 31  1  0  0  0  0
 13 32  1  0  0  0  0
 14 15  1  0  0  0  0
 14 33  1  0  0  0  0
 14 34  1  0  0  0  0
 15 16  1  0  0  0  0
 15 17  1  0  0  0  0
 16 35  1  0  0  0  0
 16 36  1  0  0  0  0
 16 37  1  0  0  0  0
 17 18  2  0  0  0  0
 17 19  1  0  0  0  0
 19 38  1  0  0  0  0
 19 39  1  0  0  0  0
M  END
> <s_m_source_file>
AV-unprocessed.smi

> <i_m_source_file_index>
1584

> <i_lp_mmshare_version>
43012

> <i_f3d_flags>
0

> <s_epik_input>
bjFbY0hdW2NIXVtjSF1uMVtDSDJdW0NAQEhdKFtDSDNdKVtOSF1DKD1PKVtDQEBIXTJbQ0gyXVtDSDJdTihbQ0gzXSlDKD1PKVtDSDJdMg==

> <s_epik_cmdline>
J2VwaWtfcHl0aG9uJywgJy1waCcsICc3LjAnLCAnLXRuJywgJzgnLCAnLW1hJywgJzIwMCcsICctbWV0YWxfYmluZGluZycsICctaW1hZScsICc8aW5maWxlLm1hZT4nLCAnLW9tYWUnLCAnPG91dGZpbGUubWFlPic=

> <r_lp_tautomer_probability>
1

> <r_epik_Ionization_Penalty>
0.000299422

> <r_epik_Ionization_Penalty_Charging>
0

> <r_epik_Ionization_Penalty_Neutral>
0.000299422

> <r_epik_State_Penalty>
-0

> <r_epik_Charging_Adjusted_Penalty>
0

> <i_epik_Tot_Q>
0

> <i_epik_Tot_abs_Q>
0

> <r_epik_Metal_State_Penalty>
-0

> <b_epik_Metal_Only>
0

> <s_lp_Force_Field>
OPLS_2005

> <r_lp_Energy>
13.4891

> <b_lp_Chiralities_Consistent>
1

> <s_lp_Variant>
AV-unprocessed.smi:1584-1

> <Gold.Version>
5.8.1

> <Gold.Id.Protein>
6NUR|6NUR_protein|mol2

> <Gold.PLP.Fitness>
42.0893

> <Gold.PLP.PLP>
-36.7092

> <Gold.PLP.part.hbond>
-1.0000

> <Gold.PLP.part.metal>
0.0000

> <Gold.PLP.part.buried>
-3.5874

> <Gold.PLP.part.nonpolar>
-33.4965

> <Gold.PLP.part.repulsive>
1.3369

> <Gold.PLP.ligand.clash>
0.0000

> <Gold.PLP.ligand.torsion>
0.3201

> <Gold.PLP.Chemscore.Hbond>
1.0000

> <Gold.PLP.Chemscore.CHOScore>
1.0000

> <Gold.PLP.Chemscore.Metal>
0.0000

> <Gold.Chemscore.Hbonds>
donor molecule, donor type, donor heavy atom, donor atom, acceptor molecule, acceptor atom, score
      P1  H  7989  7998       L1     8  0.85
      L1  C     5    26       P1  7948  0.92

> <Gold.PLP.Chemscore.Internal.Correction>
0.0202

> <Gold.Rescore>
     Score         DG    S(hbond)    S(metal)    S(lipo)     H(rot)  DE(clash)    DE(int)     intcor
     12.60     -13.61       0.76        0.00      84.29       1.67       0.29       0.72       ----

> <Gold.Chemscore.Fitness>
12.6013

> <Gold.Chemscore.DG>
-13.6099

> <Gold.Chemscore.ZeroCoef>
-5.4800

> <Gold.Chemscore.Hbond>
0.7642

> <Gold.Chemscore.Metal>
0.0000

> <Gold.Chemscore.Lipo>
84.2860

> <Gold.Chemscore.Internal_Hbond>
0.0000

> <Gold.Chemscore.DEClash>
0.2871

> <Gold.Chemscore.DEInternal>
0.7215

> <Gold.Chemscore.Rot>
1.6734

> <Gold.Chemscore.Internal.Correction>
   9.000000E+99

> <Gold.Chemscore.Hbonds>
donor molecule, donor type, donor heavy atom, donor atom, acceptor molecule, acceptor atom, score
      P1  H  7989  7998       L1     8  0.08

> <Gold.Chemscore.Hbond.Weighted>
-2.5525

> <Gold.Chemscore.Metal.Weighted>
-0.0000

> <Gold.Chemscore.Lipo.Weighted>
-9.8615

> <Gold.Chemscore.Internal_Hbond.Weighted>
0.0000

> <Gold.Chemscore.DEClash.Weighted>
0.2871

> <Gold.Chemscore.DEInternal.Weighted>
0.7215

> <Gold.Chemscore.Rot.Weighted>
4.2840

> <Gold.Chemscore.Internal.Correction.Weighted>
   9.000000E+99

> <Gold.Protein.RotatedTorsions>
[ 6907 6896 6895 6894 ] final   34.75 input  -60.11 | X-H torsion
[ 7974 7965 7964 7962 ] final -101.40 input  175.53 | X-H torsion
[ 8008 7997 7996 7995 ] final  -67.06 input   59.86 | X-H torsion
[ 10167 10162 10161 10158 ] final  -66.82 input  -65.29 | X-H torsion
[ 10718 10713 10712 10709 ] final  -47.94 input   66.30 | X-H torsion
[ 10763 10752 10751 10750 ] final -167.02 input  -60.55 | X-H torsion
[ 11005 11000 10999 10996 ] final -143.71 input  -57.11 | X-H torsion

> <Gold.Protein.ActiveResidues>
 VAL166  LYS551  ARG553  GLY616  TRP617  ASP618  TYR619  PRO620  LYS621  CYS622 
 ASP623  PHE694  ASN695  SER759  ASP760  ASP761  ALA762  ILE779  LEU786  VAL792 
 PHE793  MET794  SER795  GLU796  ALA797  LYS798  CYS799  TRP800  GLU811  SER814 

> <Gold.Protein.RotatedAtoms>
  152.1067  134.9303  160.0567 H   0  0  0  0  0  0  0  0  0  0  0  0  # atno 6907 bound_to 6896
  152.0496  133.4008  159.4380 H   0  0  0  0  0  0  0  0  0  0  0  0  # atno 6908 bound_to 6896
  150.6841  134.3243  159.4843 H   0  0  0  0  0  0  0  0  0  0  0  0  # atno 6909 bound_to 6896
  145.2821  140.9329  143.2926 H   0  0  0  0  0  0  0  0  0  0  0  0  # atno 7974 bound_to 7965
  154.4775  140.0900  156.7297 H   0  0  0  0  0  0  0  0  0  0  0  0  # atno 8008 bound_to 7997
  155.4558  140.3459  155.4288 H   0  0  0  0  0  0  0  0  0  0  0  0  # atno 8009 bound_to 7997
  156.1139  140.1455  156.9288 H   0  0  0  0  0  0  0  0  0  0  0  0  # atno 8010 bound_to 7997
  140.5629  143.2313  151.6692 H   0  0  0  0  0  0  0  0  0  0  0  0  # atno 10167 bound_to 10162
  156.2035  130.4157  149.9209 H   0  0  0  0  0  0  0  0  0  0  0  0  # atno 10718 bound_to 10713
  154.6775  135.2949  154.9659 H   0  0  0  0  0  0  0  0  0  0  0  0  # atno 10763 bound_to 10752
  154.0665  135.6624  153.4822 H   0  0  0  0  0  0  0  0  0  0  0  0  # atno 10764 bound_to 10752
  153.0525  135.5165  154.7801 H   0  0  0  0  0  0  0  0  0  0  0  0  # atno 10765 bound_to 10752
  140.8097  134.2759  157.4946 H   0  0  0  0  0  0  0  0  0  0  0  0  # atno 11005 bound_to 11000
  144.9244  139.4373  143.6525 LP  0  0  0  0  0  0  0  0  0  0  0  0  # atno 17320 bound_to 7965
  146.3213  139.8122  142.8943 LP  0  0  0  0  0  0  0  0  0  0  0  0  # atno 17321 bound_to 7965
  139.5079  144.3631  152.0543 LP  0  0  0  0  0  0  0  0  0  0  0  0  # atno 17342 bound_to 10162
  140.2760  144.3912  150.6135 LP  0  0  0  0  0  0  0  0  0  0  0  0  # atno 17343 bound_to 10162
  156.6910  130.8896  151.3588 LP  0  0  0  0  0  0  0  0  0  0  0  0  # atno 17370 bound_to 10713
  157.6999  130.9322  150.0755 LP  0  0  0  0  0  0  0  0  0  0  0  0  # atno 17371 bound_to 10713
  139.8715  134.9476  156.3973 LP  0  0  0  0  0  0  0  0  0  0  0  0  # atno 17394 bound_to 11000
  140.9210  133.7645  155.9906 LP  0  0  0  0  0  0  0  0  0  0  0  0  # atno 17395 bound_to 11000

$$$$
