AV-unprocessed.smi:652|AV-procd|sdf|3193|dock6
  -GOLD-   22720 0123D 1   1.00000     0.00000
 Structure written by MMmdl.
 48 49  0  0  0  0  0  0  0  0  2 V2000
  146.7568  133.2750  154.3523 C   0  0  0  0  0  0  0  0  0  0  0  0
  147.9939  133.2180  153.4427 C   0  0  0  0  0  0  0  0  0  0  0  0
  148.6580  131.8350  153.4753 C   0  0  0  0  0  0  0  0  0  0  0  0
  148.9652  134.2322  153.8424 N   0  0  0  0  0  0  0  0  0  0  0  0
  149.7404  134.1809  154.9369 C   0  0  0  0  0  0  0  0  0  0  0  0
  149.7114  133.2498  155.7421 O   0  0  0  0  0  0  0  0  0  0  0  0
  150.6857  135.3699  155.1405 C   0  0  0  0  0  0  0  0  0  0  0  0
  149.9536  136.7071  155.3841 C   0  0  0  0  0  0  0  0  0  0  0  0
  150.1495  137.6803  154.2757 N   0  3  2  0  0  0  0  0  0  0  0  0
  151.5370  137.7022  153.7508 C   0  0  0  0  0  0  0  0  0  0  0  0
  152.4729  138.4937  154.6828 C   0  0  0  0  0  0  0  0  0  0  0  0
  151.9603  139.8076  154.8680 O   0  0  0  0  0  0  0  0  0  0  0  0
  150.6758  139.8127  155.4840 C   0  0  1  0  0  0  0  0  0  0  0  0
  150.2490  141.2711  155.6987 C   0  0  0  0  0  0  0  0  0  0  0  0
  149.6810  141.4738  157.0241 N   0  0  0  0  0  0  0  0  0  0  0  0
  150.4456  142.0378  158.0538 C   0  0  0  0  0  0  0  0  0  0  0  0
  151.8396  141.8325  158.0586 C   0  0  0  0  0  0  0  0  0  0  0  0
  152.5795  142.4054  159.1073 C   0  0  0  0  0  0  0  0  0  0  0  0
  151.8679  143.1413  160.0722 C   0  0  0  0  0  0  0  0  0  0  0  0
  150.5271  143.3076  160.0179 N   0  0  0  0  0  0  0  0  0  0  0  0
  149.8241  142.7610  159.0192 N   0  0  0  0  0  0  0  0  0  0  0  0
  149.6888  139.0634  154.5632 C   0  0  0  0  0  0  0  0  0  0  0  0
  146.0179  132.5312  154.0532 H   0  0  0  0  0  0  0  0  0  0  0  0
  146.2749  134.2521  154.3053 H   0  0  0  0  0  0  0  0  0  0  0  0
  147.0195  133.0825  155.3931 H   0  0  0  0  0  0  0  0  0  0  0  0
  147.6785  133.4093  152.4154 H   0  0  0  0  0  0  0  0  0  0  0  0
  147.9618  131.0590  153.1560 H   0  0  0  0  0  0  0  0  0  0  0  0
  149.0003  131.5812  154.4793 H   0  0  0  0  0  0  0  0  0  0  0  0
  149.5200  131.7966  152.8086 H   0  0  0  0  0  0  0  0  0  0  0  0
  149.0538  135.0351  153.2365 H   0  0  0  0  0  0  0  0  0  0  0  0
  151.3335  135.1453  155.9889 H   0  0  0  0  0  0  0  0  0  0  0  0
  151.3265  135.4374  154.2616 H   0  0  0  0  0  0  0  0  0  0  0  0
  148.8925  136.5345  155.5654 H   0  0  0  0  0  0  0  0  0  0  0  0
  150.3505  137.1549  156.2966 H   0  0  0  0  0  0  0  0  0  0  0  0
  151.9090  136.6888  153.5956 H   0  0  0  0  0  0  0  0  0  0  0  0
  151.5241  138.1762  152.7684 H   0  0  0  0  0  0  0  0  0  0  0  0
  152.5919  137.9946  155.6455 H   0  0  0  0  0  0  0  0  0  0  0  0
  153.4666  138.5654  154.2405 H   0  0  0  0  0  0  0  0  0  0  0  0
  150.7288  139.3175  156.4548 H   0  0  0  0  0  0  0  0  0  0  0  0
  151.0979  141.9409  155.5539 H   0  0  0  0  0  0  0  0  0  0  0  0
  149.4963  141.5396  154.9560 H   0  0  0  0  0  0  0  0  0  0  0  0
  148.7319  141.1798  157.2035 H   0  0  0  0  0  0  0  0  0  0  0  0
  152.3270  141.2544  157.2870 H   0  0  0  0  0  0  0  0  0  0  0  0
  153.6507  142.2847  159.1704 H   0  0  0  0  0  0  0  0  0  0  0  0
  152.3812  143.6050  160.9016 H   0  0  0  0  0  0  0  0  0  0  0  0
  149.6104  139.5947  153.6135 H   0  0  0  0  0  0  0  0  0  0  0  0
  148.6860  139.0657  154.9876 H   0  0  0  0  0  0  0  0  0  0  0  0
  149.5739  137.3374  153.5199 H   0  0  0  0  0  0  0  0  0  0  0  0
  1  2  1  0  0  0  0
  1 23  1  0  0  0  0
  1 24  1  0  0  0  0
  1 25  1  0  0  0  0
  2  3  1  0  0  0  0
  2  4  1  0  0  0  0
  2 26  1  0  0  0  0
  3 27  1  0  0  0  0
  3 28  1  0  0  0  0
  3 29  1  0  0  0  0
  4  5  1  0  0  0  0
  4 30  1  0  0  0  0
  5  6  2  0  0  0  0
  5  7  1  0  0  0  0
  7  8  1  0  0  0  0
  7 31  1  0  0  0  0
  7 32  1  0  0  0  0
  8  9  1  0  0  0  0
  8 33  1  0  0  0  0
  8 34  1  0  0  0  0
  9 22  1  0  0  0  0
  9 10  1  0  0  0  0
  9 48  1  0  0  0  0
 10 11  1  0  0  0  0
 10 35  1  0  0  0  0
 10 36  1  0  0  0  0
 11 12  1  0  0  0  0
 11 37  1  0  0  0  0
 11 38  1  0  0  0  0
 12 13  1  0  0  0  0
 13 14  1  0  0  0  0
 13 22  1  0  0  0  0
 13 39  1  0  0  0  0
 14 15  1  0  0  0  0
 14 40  1  0  0  0  0
 14 41  1  0  0  0  0
 15 16  1  0  0  0  0
 15 42  1  0  0  0  0
 16 21  1  0  0  0  0
 16 17  2  0  0  0  0
 17 18  1  0  0  0  0
 17 43  1  0  0  0  0
 18 19  2  0  0  0  0
 18 44  1  0  0  0  0
 19 20  1  0  0  0  0
 19 45  1  0  0  0  0
 20 21  2  0  0  0  0
 22 46  1  0  0  0  0
 22 47  1  0  0  0  0
M  CHG  1   9   1
M  END
> <s_m_source_file>
AV-unprocessed.smi

> <i_m_source_file_index>
652

> <i_lp_mmshare_version>
43012

> <i_f3d_flags>
0

> <s_epik_input>
W0NIM11bQ0hdKFtDSDNdKVtOSF1DKD1PKVtDSDJdW0NIMl1OMVtDSDJdW0NIMl1PW0NASF0oW0NIMl0xKVtDSDJdW05IXWMyW2NIXVtjSF1bY0hdbm4y

> <s_epik_cmdline>
J2VwaWtfcHl0aG9uJywgJy1waCcsICc3LjAnLCAnLXRuJywgJzgnLCAnLW1hJywgJzIwMCcsICctbWV0YWxfYmluZGluZycsICctaW1hZScsICc8aW5maWxlLm1hZT4nLCAnLW9tYWUnLCAnPG91dGZpbGUubWFlPic=

> <r_lp_tautomer_probability>
0.999978

> <r_epik_Ionization_Penalty>
0.433079

> <r_epik_Ionization_Penalty_Charging>
0.413784

> <r_epik_Ionization_Penalty_Neutral>
0.0192945

> <r_epik_State_Penalty>
0.425138

> <r_epik_Charging_Adjusted_Penalty>
0.838922

> <i_epik_Tot_Q>
1

> <i_epik_Tot_abs_Q>
1

> <r_epik_Metal_State_Penalty>
0.422073

> <b_epik_Metal_Only>
0

> <s_lp_Force_Field>
OPLS_2005

> <r_lp_Energy>
24.1608

> <b_lp_Chiralities_Consistent>
1

> <s_lp_Variant>
AV-unprocessed.smi:652-2

> <Gold.Version>
5.8.1

> <Gold.Id.Protein>
6NUR|6NUR_protein|mol2

> <Gold.PLP.Fitness>
46.6870

> <Gold.PLP.PLP>
-38.3116

> <Gold.PLP.part.hbond>
-4.8551

> <Gold.PLP.part.metal>
0.0000

> <Gold.PLP.part.buried>
-3.1898

> <Gold.PLP.part.nonpolar>
-30.2794

> <Gold.PLP.part.repulsive>
0.2728

> <Gold.PLP.ligand.clash>
0.0000

> <Gold.PLP.ligand.torsion>
1.5904

> <Gold.PLP.Chemscore.Hbond>
3.8135

> <Gold.PLP.Chemscore.CHOScore>
0.0000

> <Gold.PLP.Chemscore.Metal>
0.0000

> <Gold.Chemscore.Hbonds>
donor molecule, donor type, donor heavy atom, donor atom, acceptor molecule, acceptor atom, score
      L1  H     4    30       P1  7948  0.90
      L1  H     9    48       P1  7948  1.89
      P1  H  7989  7998       L1    12  0.91

> <Gold.PLP.Chemscore.Internal.Correction>
0.1157

> <Gold.Rescore>
     Score         DG    S(hbond)    S(metal)    S(lipo)     H(rot)  DE(clash)    DE(int)     intcor
     13.49     -17.24       2.13        0.00      89.02       2.26       1.34       2.41       ----

> <Gold.Chemscore.Fitness>
13.4922

> <Gold.Chemscore.DG>
-17.2385

> <Gold.Chemscore.ZeroCoef>
-5.4800

> <Gold.Chemscore.Hbond>
2.1338

> <Gold.Chemscore.Metal>
0.0000

> <Gold.Chemscore.Lipo>
89.0225

> <Gold.Chemscore.Internal_Hbond>
0.0000

> <Gold.Chemscore.DEClash>
1.3378

> <Gold.Chemscore.DEInternal>
2.4085

> <Gold.Chemscore.Rot>
2.2594

> <Gold.Chemscore.Internal.Correction>
   9.000000E+99

> <Gold.Chemscore.Hbonds>
donor molecule, donor type, donor heavy atom, donor atom, acceptor molecule, acceptor atom, score
      L1  H     4    30       P1  7948  0.18
      L1  H     9    48       P1  7948  0.79
      P1  H  7989  7998       L1    12  0.26

> <Gold.Chemscore.Hbond.Weighted>
-7.1270

> <Gold.Chemscore.Metal.Weighted>
-0.0000

> <Gold.Chemscore.Lipo.Weighted>
-10.4156

> <Gold.Chemscore.Internal_Hbond.Weighted>
0.0000

> <Gold.Chemscore.DEClash.Weighted>
1.3378

> <Gold.Chemscore.DEInternal.Weighted>
2.4085

> <Gold.Chemscore.Rot.Weighted>
5.7841

> <Gold.Chemscore.Internal.Correction.Weighted>
   9.000000E+99

> <Gold.Protein.RotatedTorsions>
[ 6907 6896 6895 6894 ] final  -32.73 input  -60.11 | X-H torsion
[ 7974 7965 7964 7962 ] final  -50.21 input  175.53 | X-H torsion
[ 8008 7997 7996 7995 ] final -148.67 input   59.86 | X-H torsion
[ 10167 10162 10161 10158 ] final   53.46 input  -65.29 | X-H torsion
[ 10718 10713 10712 10709 ] final   27.34 input   66.30 | X-H torsion
[ 10763 10752 10751 10750 ] final   10.17 input  -60.55 | X-H torsion
[ 11005 11000 10999 10996 ] final   41.08 input  -57.11 | X-H torsion

> <Gold.Protein.ActiveResidues>
 VAL166  LYS551  ARG553  GLY616  TRP617  ASP618  TYR619  PRO620  LYS621  CYS622 
 ASP623  PHE694  ASN695  SER759  ASP760  ASP761  ALA762  ILE779  LEU786  VAL792 
 PHE793  MET794  SER795  GLU796  ALA797  LYS798  CYS799  TRP800  GLU811  SER814 

> <Gold.Protein.RotatedAtoms>
  151.0750  134.9822  159.8327 H   0  0  0  0  0  0  0  0  0  0  0  0  # atno 6907 bound_to 6896
  152.5413  134.2253  159.8813 H   0  0  0  0  0  0  0  0  0  0  0  0  # atno 6908 bound_to 6896
  151.2279  133.4423  159.2636 H   0  0  0  0  0  0  0  0  0  0  0  0  # atno 6909 bound_to 6896
  145.9322  140.7738  142.9594 H   0  0  0  0  0  0  0  0  0  0  0  0  # atno 7974 bound_to 7965
  155.5954  140.0657  157.2747 H   0  0  0  0  0  0  0  0  0  0  0  0  # atno 8008 bound_to 7997
  154.4293  140.1828  156.1165 H   0  0  0  0  0  0  0  0  0  0  0  0  # atno 8009 bound_to 7997
  156.0200  140.3318  155.7033 H   0  0  0  0  0  0  0  0  0  0  0  0  # atno 8010 bound_to 7997
  140.2405  144.3588  150.6382 H   0  0  0  0  0  0  0  0  0  0  0  0  # atno 10167 bound_to 10162
  157.2188  130.6969  149.6261 H   0  0  0  0  0  0  0  0  0  0  0  0  # atno 10718 bound_to 10713
  153.2061  135.6862  153.8171 H   0  0  0  0  0  0  0  0  0  0  0  0  # atno 10763 bound_to 10752
  153.7420  135.3237  155.3307 H   0  0  0  0  0  0  0  0  0  0  0  0  # atno 10764 bound_to 10752
  154.8197  135.4660  154.0848 H   0  0  0  0  0  0  0  0  0  0  0  0  # atno 10765 bound_to 10752
  140.1869  134.4035  155.8168 H   0  0  0  0  0  0  0  0  0  0  0  0  # atno 11005 bound_to 11000
  144.6766  140.2146  143.7373 LP  0  0  0  0  0  0  0  0  0  0  0  0  # atno 17320 bound_to 7965
  145.8410  139.2130  143.1827 LP  0  0  0  0  0  0  0  0  0  0  0  0  # atno 17321 bound_to 7965
  140.6117  143.2170  151.6873 LP  0  0  0  0  0  0  0  0  0  0  0  0  # atno 17342 bound_to 10162
  139.5079  144.3631  152.0543 LP  0  0  0  0  0  0  0  0  0  0  0  0  # atno 17343 bound_to 10162
  155.9684  130.4526  150.5782 LP  0  0  0  0  0  0  0  0  0  0  0  0  # atno 17370 bound_to 10713
  157.3597  131.0747  151.1647 LP  0  0  0  0  0  0  0  0  0  0  0  0  # atno 17371 bound_to 10713
  141.2225  133.7027  156.8027 LP  0  0  0  0  0  0  0  0  0  0  0  0  # atno 17394 bound_to 11000
  140.2204  134.8761  157.3371 LP  0  0  0  0  0  0  0  0  0  0  0  0  # atno 17395 bound_to 11000

$$$$
