AV-unprocessed.smi:3145|AV-procd|sdf|11984|dock7
  -GOLD-   2272017393D 1   1.00000     0.00000
 Structure written by MMmdl.
 34 34  0  0  0  0  0  0  0  0  3 V2000
  150.8867  142.1145  157.0077 C   0  0  0  0  0  0  0  0  0  0  0  0
  150.3123  142.6492  158.3262 C   0  0  1  0  0  0  0  0  0  0  0  0
  151.2529  143.7030  158.9479 C   0  0  0  0  0  0  0  0  0  0  0  0
  152.1661  143.1352  159.9233 N   0  0  0  0  0  0  0  0  0  0  0  0
  153.2641  142.3308  159.7033 C   0  0  0  0  0  0  0  0  0  0  0  0
  153.7933  142.0246  160.9241 C   0  0  0  0  0  0  0  0  0  0  0  0
  152.9413  142.7006  161.8420 C   0  0  0  0  0  0  0  0  0  0  0  0
  151.9700  143.3674  161.2394 N   0  0  0  0  0  0  0  0  0  0  0  0
  148.9655  143.2131  158.0840 N   0  3  0  0  0  0  0  0  0  0  0  0
  147.8696  142.2216  158.0603 C   0  0  0  0  0  0  0  0  0  0  0  0
  146.6458  142.7517  158.8157 C   0  0  0  0  0  0  0  0  0  0  0  0
  145.6169  143.0288  158.1881 O   0  0  0  0  0  0  0  0  0  0  0  0
  146.9209  142.8520  160.1434 N   0  5  0  0  0  0  0  0  0  0  0  0
  145.9681  143.3323  161.1430 C   0  0  0  0  0  0  0  0  0  0  0  0
  144.5286  142.9598  160.7484 C   0  0  0  0  0  0  0  0  0  0  0  0
  143.5495  143.0776  161.8432 C   0  0  0  0  0  0  0  0  0  0  0  0
  142.7772  143.1660  162.7025 N   0  0  0  0  0  0  0  0  0  0  0  0
  151.8675  141.6634  157.1611 H   0  0  0  0  0  0  0  0  0  0  0  0
  150.9977  142.9097  156.2696 H   0  0  0  0  0  0  0  0  0  0  0  0
  150.2382  141.3494  156.5791 H   0  0  0  0  0  0  0  0  0  0  0  0
  150.2286  141.8022  159.0094 H   0  0  0  0  0  0  0  0  0  0  0  0
  151.8510  144.1763  158.1680 H   0  0  0  0  0  0  0  0  0  0  0  0
  150.6775  144.5003  159.4215 H   0  0  0  0  0  0  0  0  0  0  0  0
  153.5695  142.0411  158.7085 H   0  0  0  0  0  0  0  0  0  0  0  0
  154.6565  141.4096  161.1310 H   0  0  0  0  0  0  0  0  0  0  0  0
  152.9988  142.7251  162.9203 H   0  0  0  0  0  0  0  0  0  0  0  0
  148.7642  143.8932  158.8034 H   0  0  0  0  0  0  0  0  0  0  0  0
  147.6194  141.9993  157.0212 H   0  0  0  0  0  0  0  0  0  0  0  0
  148.1876  141.2898  158.5280 H   0  0  0  0  0  0  0  0  0  0  0  0
  146.1793  142.9224  162.1316 H   0  0  0  0  0  0  0  0  0  0  0  0
  146.0330  144.4139  161.2609 H   0  0  0  0  0  0  0  0  0  0  0  0
  144.1822  143.5739  159.9167 H   0  0  0  0  0  0  0  0  0  0  0  0
  144.5008  141.9251  160.4067 H   0  0  0  0  0  0  0  0  0  0  0  0
  148.9642  143.6835  157.1906 H   0  0  0  0  0  0  0  0  0  0  0  0
  1  2  1  0  0  0  0
  1 18  1  0  0  0  0
  1 19  1  0  0  0  0
  1 20  1  0  0  0  0
  2  3  1  0  0  0  0
  2  9  1  0  0  0  0
  2 21  1  0  0  0  0
  3  4  1  0  0  0  0
  3 22  1  0  0  0  0
  3 23  1  0  0  0  0
  4  8  1  0  0  0  0
  4  5  1  0  0  0  0
  5  6  2  0  0  0  0
  5 24  1  0  0  0  0
  6  7  1  0  0  0  0
  6 25  1  0  0  0  0
  7  8  2  0  0  0  0
  7 26  1  0  0  0  0
  9 10  1  0  0  0  0
  9 27  1  0  0  0  0
  9 34  1  0  0  0  0
 10 11  1  0  0  0  0
 10 28  1  0  0  0  0
 10 29  1  0  0  0  0
 11 12  2  0  0  0  0
 11 13  1  0  0  0  0
 13 14  1  0  0  0  0
 14 15  1  0  0  0  0
 14 30  1  0  0  0  0
 14 31  1  0  0  0  0
 15 16  1  0  0  0  0
 15 32  1  0  0  0  0
 15 33  1  0  0  0  0
 16 17  3  0  0  0  0
M  CHG  1   9   1
M  CHG  1  13  -1
M  END
> <s_m_source_file>
AV-unprocessed.smi

> <i_m_source_file_index>
3145

> <i_lp_mmshare_version>
43012

> <i_f3d_flags>
0

> <s_epik_input>
bjFbY0hdW2NIXVtjSF1uMVtDSDJdW0NAQEhdKFtDSDNdKVtOSF1bQ0gyXUMoPU8pW05IXVtDSDJdW0NIMl1DI04=

> <s_epik_cmdline>
J2VwaWtfcHl0aG9uJywgJy1waCcsICc3LjAnLCAnLXRuJywgJzgnLCAnLW1hJywgJzIwMCcsICctbWV0YWxfYmluZGluZycsICctaW1hZScsICc8aW5maWxlLm1hZT4nLCAnLW9tYWUnLCAnPG91dGZpbGUubWFlPic=

> <r_lp_tautomer_probability>
1

> <r_epik_Ionization_Penalty>
6.20835

> <r_epik_Ionization_Penalty_Charging>
6.20835

> <r_epik_Ionization_Penalty_Neutral>
3.57231e-06

> <r_epik_State_Penalty>
6.38139

> <r_epik_Charging_Adjusted_Penalty>
12.5897

> <i_epik_Tot_Q>
0

> <i_epik_Tot_abs_Q>
2

> <r_epik_Metal_State_Penalty>
2.31725

> <b_epik_Metal_Only>
1

> <s_lp_Force_Field>
OPLS_2005

> <r_lp_Energy>
1.97057

> <b_lp_Chiralities_Consistent>
1

> <s_lp_Variant>
AV-unprocessed.smi:3145-6

> <Gold.Version>
5.8.1

> <Gold.Id.Protein>
6NUR|6NUR_protein|mol2

> <Gold.PLP.Fitness>
49.3117

> <Gold.PLP.PLP>
-36.8124

> <Gold.PLP.part.hbond>
-5.9628

> <Gold.PLP.part.metal>
0.0000

> <Gold.PLP.part.buried>
-5.6384

> <Gold.PLP.part.nonpolar>
-27.2636

> <Gold.PLP.part.repulsive>
0.3744

> <Gold.PLP.ligand.clash>
0.0000

> <Gold.PLP.ligand.torsion>
1.4917

> <Gold.PLP.Chemscore.Hbond>
5.0889

> <Gold.PLP.Chemscore.CHOScore>
0.0000

> <Gold.PLP.Chemscore.Metal>
0.0000

> <Gold.Chemscore.Hbonds>
donor molecule, donor type, donor heavy atom, donor atom, acceptor molecule, acceptor atom, score
      L1  H     9    34       P1  8028  2.00
      P1  H  6933  6944       L1    13  1.39
      P1  H  6934  6946       L1    13  1.41

> <Gold.PLP.Chemscore.Internal.Correction>
0.2160

> <Gold.Rescore>
     Score         DG    S(hbond)    S(metal)    S(lipo)     H(rot)  DE(clash)    DE(int)     intcor
      6.98      -9.63       1.03        0.00      67.18       2.79       0.04       2.60       ----

> <Gold.Chemscore.Fitness>
6.9841

> <Gold.Chemscore.DG>
-9.6283

> <Gold.Chemscore.ZeroCoef>
-5.4800

> <Gold.Chemscore.Hbond>
1.0308

> <Gold.Chemscore.Metal>
0.0000

> <Gold.Chemscore.Lipo>
67.1820

> <Gold.Chemscore.Internal_Hbond>
0.0000

> <Gold.Chemscore.DEClash>
0.0402

> <Gold.Chemscore.DEInternal>
2.6039

> <Gold.Chemscore.Rot>
2.7949

> <Gold.Chemscore.Internal.Correction>
   9.000000E+99

> <Gold.Chemscore.Hbonds>
donor molecule, donor type, donor heavy atom, donor atom, acceptor molecule, acceptor atom, score
      L1  H     9    34       P1  8028  0.30
      P1  H  6933  6944       L1    13  0.15
      P1  H  6934  6946       L1    13  0.04

> <Gold.Chemscore.Hbond.Weighted>
-3.4430

> <Gold.Chemscore.Metal.Weighted>
-0.0000

> <Gold.Chemscore.Lipo.Weighted>
-7.8603

> <Gold.Chemscore.Internal_Hbond.Weighted>
0.0000

> <Gold.Chemscore.DEClash.Weighted>
0.0402

> <Gold.Chemscore.DEInternal.Weighted>
2.6039

> <Gold.Chemscore.Rot.Weighted>
7.1551

> <Gold.Chemscore.Internal.Correction.Weighted>
   9.000000E+99

> <Gold.Protein.RotatedTorsions>
[ 6907 6896 6895 6894 ] final -151.87 input  -60.11 | X-H torsion
[ 7974 7965 7964 7962 ] final  -72.33 input  175.53 | X-H torsion
[ 8008 7997 7996 7995 ] final   95.59 input   59.86 | X-H torsion
[ 10167 10162 10161 10158 ] final  168.29 input  -65.29 | X-H torsion
[ 10718 10713 10712 10709 ] final -148.48 input   66.30 | X-H torsion
[ 10763 10752 10751 10750 ] final   43.66 input  -60.55 | X-H torsion
[ 11005 11000 10999 10996 ] final  -26.43 input  -57.11 | X-H torsion

> <Gold.Protein.ActiveResidues>
 VAL166  LYS551  ARG553  GLY616  TRP617  ASP618  TYR619  PRO620  LYS621  CYS622 
 ASP623  PHE694  ASN695  SER759  ASP760  ASP761  ALA762  ILE779  LEU786  VAL792 
 PHE793  MET794  SER795  GLU796  ALA797  LYS798  CYS799  TRP800  GLU811  SER814 

> <Gold.Protein.RotatedAtoms>
  151.2195  133.4510  159.2600 H   0  0  0  0  0  0  0  0  0  0  0  0  # atno 6907 bound_to 6896
  151.0898  134.9909  159.8407 H   0  0  0  0  0  0  0  0  0  0  0  0  # atno 6908 bound_to 6896
  152.5433  134.2129  159.8810 H   0  0  0  0  0  0  0  0  0  0  0  0  # atno 6909 bound_to 6896
  145.6666  140.9235  143.0905 H   0  0  0  0  0  0  0  0  0  0  0  0  # atno 7974 bound_to 7965
  156.0706  140.3284  155.7571 H   0  0  0  0  0  0  0  0  0  0  0  0  # atno 8008 bound_to 7997
  155.5312  140.0593  157.2906 H   0  0  0  0  0  0  0  0  0  0  0  0  # atno 8009 bound_to 7997
  154.4528  140.1927  156.0486 H   0  0  0  0  0  0  0  0  0  0  0  0  # atno 8010 bound_to 7997
  139.4964  144.3830  151.9601 H   0  0  0  0  0  0  0  0  0  0  0  0  # atno 10167 bound_to 10162
  156.4208  130.8028  151.2250 H   0  0  0  0  0  0  0  0  0  0  0  0  # atno 10718 bound_to 10713
  152.9856  135.6094  154.3148 H   0  0  0  0  0  0  0  0  0  0  0  0  # atno 10763 bound_to 10752
  154.2861  135.2776  155.2677 H   0  0  0  0  0  0  0  0  0  0  0  0  # atno 10764 bound_to 10752
  154.4994  135.5871  153.6576 H   0  0  0  0  0  0  0  0  0  0  0  0  # atno 10765 bound_to 10752
  140.9029  133.7512  156.0567 H   0  0  0  0  0  0  0  0  0  0  0  0  # atno 11005 bound_to 11000
  144.7071  139.8517  143.7426 LP  0  0  0  0  0  0  0  0  0  0  0  0  # atno 17320 bound_to 7965
  146.1081  139.4083  143.0305 LP  0  0  0  0  0  0  0  0  0  0  0  0  # atno 17321 bound_to 7965
  140.3266  144.3365  150.5997 LP  0  0  0  0  0  0  0  0  0  0  0  0  # atno 17342 bound_to 10162
  140.5679  143.2184  151.7651 LP  0  0  0  0  0  0  0  0  0  0  0  0  # atno 17343 bound_to 10162
  157.7508  131.0229  150.3810 LP  0  0  0  0  0  0  0  0  0  0  0  0  # atno 17370 bound_to 10713
  156.4127  130.3937  149.6880 LP  0  0  0  0  0  0  0  0  0  0  0  0  # atno 17371 bound_to 10713
  140.8208  134.3292  157.5382 LP  0  0  0  0  0  0  0  0  0  0  0  0  # atno 17394 bound_to 11000
  139.8745  134.9308  156.3511 LP  0  0  0  0  0  0  0  0  0  0  0  0  # atno 17395 bound_to 11000

$$$$
