AV-unprocessed.smi:2126|AV-procd|sdf|8675|dock2
  -GOLD-   2272011423D 1   1.00000     0.00000
 Structure written by MMmdl.
 40 42  0  0  0  0  0  0  0  0  1 V2000
  143.0065  144.8016  154.8198 C   0  0  0  0  0  0  0  0  0  0  0  0
  143.6462  144.0382  155.8320 O   0  0  0  0  0  0  0  0  0  0  0  0
  144.7373  143.2750  155.4760 C   0  0  0  0  0  0  0  0  0  0  0  0
  145.2276  143.1526  154.1527 C   0  0  0  0  0  0  0  0  0  0  0  0
  146.3504  142.3473  153.8809 C   0  0  0  0  0  0  0  0  0  0  0  0
  147.0097  141.6497  154.9121 C   0  0  0  0  0  0  0  0  0  0  0  0
  148.1007  140.8862  154.5557 O   0  0  0  0  0  0  0  0  0  0  0  0
  148.8966  140.3265  155.5923 C   0  0  0  0  0  0  0  0  0  0  0  0
  150.3556  140.7653  155.3990 C   0  0  2  0  0  0  0  0  0  0  0  0
  150.8950  140.0467  154.3069 O   0  0  0  0  0  0  0  0  0  0  0  0
  151.2142  140.5296  156.6572 C   0  0  0  0  0  0  0  0  0  0  0  0
  151.3135  141.7132  157.4928 N   0  0  0  0  0  0  0  0  0  0  0  0
  150.7697  142.9219  157.2531 C   0  0  0  0  0  0  0  0  0  0  0  0
  150.9856  143.8767  158.1534 N   0  0  0  0  0  0  0  0  0  0  0  0
  151.7594  143.2100  159.0880 C   0  0  0  0  0  0  0  0  0  0  0  0
  152.3279  143.6635  160.2998 C   0  0  0  0  0  0  0  0  0  0  0  0
  153.0942  142.7907  161.1002 C   0  0  0  0  0  0  0  0  0  0  0  0
  153.3044  141.4545  160.7024 C   0  0  0  0  0  0  0  0  0  0  0  0
  152.7481  140.9796  159.4991 C   0  0  0  0  0  0  0  0  0  0  0  0
  151.9832  141.8533  158.7038 C   0  0  0  0  0  0  0  0  0  0  0  0
  146.5190  141.7723  156.2353 C   0  0  0  0  0  0  0  0  0  0  0  0
  145.3961  142.5769  156.5072 C   0  0  0  0  0  0  0  0  0  0  0  0
  142.1641  145.3397  155.2539 H   0  0  0  0  0  0  0  0  0  0  0  0
  142.6161  144.1638  154.0256 H   0  0  0  0  0  0  0  0  0  0  0  0
  143.6842  145.5407  154.3902 H   0  0  0  0  0  0  0  0  0  0  0  0
  144.7598  143.6665  153.3268 H   0  0  0  0  0  0  0  0  0  0  0  0
  146.7099  142.2645  152.8657 H   0  0  0  0  0  0  0  0  0  0  0  0
  148.5376  140.6460  156.5722 H   0  0  0  0  0  0  0  0  0  0  0  0
  148.8325  139.2378  155.5468 H   0  0  0  0  0  0  0  0  0  0  0  0
  150.3766  141.8238  155.1366 H   0  0  0  0  0  0  0  0  0  0  0  0
  150.1871  139.8029  153.7300 H   0  0  0  0  0  0  0  0  0  0  0  0
  150.7908  139.7236  157.2580 H   0  0  0  0  0  0  0  0  0  0  0  0
  152.2204  140.2125  156.3804 H   0  0  0  0  0  0  0  0  0  0  0  0
  150.1839  143.1121  156.3654 H   0  0  0  0  0  0  0  0  0  0  0  0
  152.1753  144.6854  160.6140 H   0  0  0  0  0  0  0  0  0  0  0  0
  153.5241  143.1489  162.0239 H   0  0  0  0  0  0  0  0  0  0  0  0
  153.8941  140.7944  161.3216 H   0  0  0  0  0  0  0  0  0  0  0  0
  152.9092  139.9576  159.1896 H   0  0  0  0  0  0  0  0  0  0  0  0
  146.9852  141.2584  157.0618 H   0  0  0  0  0  0  0  0  0  0  0  0
  145.0355  142.6585  157.5221 H   0  0  0  0  0  0  0  0  0  0  0  0
  1  2  1  0  0  0  0
  1 23  1  0  0  0  0
  1 24  1  0  0  0  0
  1 25  1  0  0  0  0
  2  3  1  0  0  0  0
  3 22  1  0  0  0  0
  3  4  2  0  0  0  0
  4  5  1  0  0  0  0
  4 26  1  0  0  0  0
  5  6  2  0  0  0  0
  5 27  1  0  0  0  0
  6  7  1  0  0  0  0
  6 21  1  0  0  0  0
  7  8  1  0  0  0  0
  8  9  1  0  0  0  0
  8 28  1  0  0  0  0
  8 29  1  0  0  0  0
  9 10  1  0  0  0  0
  9 11  1  0  0  0  0
  9 30  1  0  0  0  0
 10 31  1  0  0  0  0
 11 12  1  0  0  0  0
 11 32  1  0  0  0  0
 11 33  1  0  0  0  0
 12 20  1  0  0  0  0
 12 13  1  0  0  0  0
 13 14  2  0  0  0  0
 13 34  1  0  0  0  0
 14 15  1  0  0  0  0
 15 20  2  0  0  0  0
 15 16  1  0  0  0  0
 16 17  2  0  0  0  0
 16 35  1  0  0  0  0
 17 18  1  0  0  0  0
 17 36  1  0  0  0  0
 18 19  2  0  0  0  0
 18 37  1  0  0  0  0
 19 20  1  0  0  0  0
 19 38  1  0  0  0  0
 21 22  2  0  0  0  0
 21 39  1  0  0  0  0
 22 40  1  0  0  0  0
M  END
> <s_m_source_file>
AV-unprocessed.smi

> <i_m_source_file_index>
2126

> <i_lp_mmshare_version>
43012

> <i_f3d_flags>
0

> <s_epik_input>
W0NIM11PYzFbY0hdW2NIXWMoW2NIXVtjSF0xKU9bQ0gyXVtDQEhdKFtPSF0pW0NIMl1uKFtjSF1uMiljKGMyMylbY0hdW2NIXVtjSF1bY0hdMw==

> <s_epik_cmdline>
J2VwaWtfcHl0aG9uJywgJy1waCcsICc3LjAnLCAnLXRuJywgJzgnLCAnLW1hJywgJzIwMCcsICctbWV0YWxfYmluZGluZycsICctaW1hZScsICc8aW5maWxlLm1hZT4nLCAnLW9tYWUnLCAnPG91dGZpbGUubWFlPic=

> <r_lp_tautomer_probability>
1

> <r_epik_Ionization_Penalty>
0.0608933

> <r_epik_Ionization_Penalty_Charging>
0

> <r_epik_Ionization_Penalty_Neutral>
0.0608933

> <r_epik_State_Penalty>
0.0528196

> <r_epik_Charging_Adjusted_Penalty>
0.0528196

> <i_epik_Tot_Q>
0

> <i_epik_Tot_abs_Q>
0

> <r_epik_Metal_State_Penalty>
5.52429e-05

> <b_epik_Metal_Only>
0

> <s_lp_Force_Field>
OPLS_2005

> <r_lp_Energy>
18.1491

> <b_lp_Chiralities_Consistent>
1

> <s_lp_Variant>
AV-unprocessed.smi:2126-1

> <Gold.Version>
5.8.1

> <Gold.Id.Protein>
6NUR|6NUR_protein|mol2

> <Gold.PLP.Fitness>
50.2522

> <Gold.PLP.PLP>
-46.2234

> <Gold.PLP.part.hbond>
-1.0000

> <Gold.PLP.part.metal>
0.0000

> <Gold.PLP.part.buried>
-6.8559

> <Gold.PLP.part.nonpolar>
-38.3206

> <Gold.PLP.part.repulsive>
0.3474

> <Gold.PLP.ligand.clash>
0.0000

> <Gold.PLP.ligand.torsion>
1.0399

> <Gold.PLP.Chemscore.Hbond>
0.9500

> <Gold.PLP.Chemscore.CHOScore>
1.0000

> <Gold.PLP.Chemscore.Metal>
0.0000

> <Gold.Chemscore.Hbonds>
donor molecule, donor type, donor heavy atom, donor atom, acceptor molecule, acceptor atom, score
      P1  H  7989  7998       L1    10  0.60
      L1  C    13    34       P1  8028  1.00

> <Gold.PLP.Chemscore.Internal.Correction>
0.2586

> <Gold.Rescore>
     Score         DG    S(hbond)    S(metal)    S(lipo)     H(rot)  DE(clash)    DE(int)     intcor
     12.60     -13.75       0.39        0.00     114.33       2.51       0.26       0.89       ----

> <Gold.Chemscore.Fitness>
12.6003

> <Gold.Chemscore.DG>
-13.7533

> <Gold.Chemscore.ZeroCoef>
-5.4800

> <Gold.Chemscore.Hbond>
0.3947

> <Gold.Chemscore.Metal>
0.0000

> <Gold.Chemscore.Lipo>
114.3278

> <Gold.Chemscore.Internal_Hbond>
0.0000

> <Gold.Chemscore.DEClash>
0.2603

> <Gold.Chemscore.DEInternal>
0.8927

> <Gold.Chemscore.Rot>
2.5083

> <Gold.Chemscore.Internal.Correction>
   9.000000E+99

> <Gold.Chemscore.Hbonds>
donor molecule, donor type, donor heavy atom, donor atom, acceptor molecule, acceptor atom, score
      P1  H  7989  7998       L1    10  0.14

> <Gold.Chemscore.Hbond.Weighted>
-1.3182

> <Gold.Chemscore.Metal.Weighted>
-0.0000

> <Gold.Chemscore.Lipo.Weighted>
-13.3764

> <Gold.Chemscore.Internal_Hbond.Weighted>
0.0000

> <Gold.Chemscore.DEClash.Weighted>
0.2603

> <Gold.Chemscore.DEInternal.Weighted>
0.8927

> <Gold.Chemscore.Rot.Weighted>
6.4212

> <Gold.Chemscore.Internal.Correction.Weighted>
   9.000000E+99

> <Gold.Protein.RotatedTorsions>
[ 6907 6896 6895 6894 ] final  -55.42 input  -60.11 | X-H torsion
[ 7974 7965 7964 7962 ] final  -29.78 input  175.53 | X-H torsion
[ 8008 7997 7996 7995 ] final -139.57 input   59.86 | X-H torsion
[ 10167 10162 10161 10158 ] final   33.43 input  -65.29 | X-H torsion
[ 10718 10713 10712 10709 ] final  110.42 input   66.30 | X-H torsion
[ 10763 10752 10751 10750 ] final -142.08 input  -60.55 | X-H torsion
[ 11005 11000 10999 10996 ] final   87.54 input  -57.11 | X-H torsion

> <Gold.Protein.ActiveResidues>
 VAL166  LYS551  ARG553  GLY616  TRP617  ASP618  TYR619  PRO620  LYS621  CYS622 
 ASP623  PHE694  ASN695  SER759  ASP760  ASP761  ALA762  ILE779  LEU786  VAL792 
 PHE793  MET794  SER795  GLU796  ALA797  LYS798  CYS799  TRP800  GLU811  SER814 

> <Gold.Protein.RotatedAtoms>
  150.8253  134.7481  159.6807 H   0  0  0  0  0  0  0  0  0  0  0  0  # atno 6907 bound_to 6896
  152.4364  134.5674  159.9921 H   0  0  0  0  0  0  0  0  0  0  0  0  # atno 6908 bound_to 6896
  151.5848  133.3336  159.3051 H   0  0  0  0  0  0  0  0  0  0  0  0  # atno 6909 bound_to 6896
  146.1191  140.5456  142.8743 H   0  0  0  0  0  0  0  0  0  0  0  0  # atno 7974 bound_to 7965
  155.4471  140.0536  157.3005 H   0  0  0  0  0  0  0  0  0  0  0  0  # atno 8008 bound_to 7997
  154.4793  140.2074  155.9758 H   0  0  0  0  0  0  0  0  0  0  0  0  # atno 8009 bound_to 7997
  156.1181  140.3193  155.8173 H   0  0  0  0  0  0  0  0  0  0  0  0  # atno 8010 bound_to 7997
  140.4408  144.1190  150.6174 H   0  0  0  0  0  0  0  0  0  0  0  0  # atno 10167 bound_to 10162
  157.6495  131.0932  150.6600 H   0  0  0  0  0  0  0  0  0  0  0  0  # atno 10718 bound_to 10713
  154.8522  135.3506  154.5971 H   0  0  0  0  0  0  0  0  0  0  0  0  # atno 10763 bound_to 10752
  153.6580  135.6991  153.5191 H   0  0  0  0  0  0  0  0  0  0  0  0  # atno 10764 bound_to 10752
  153.2840  135.4255  155.1063 H   0  0  0  0  0  0  0  0  0  0  0  0  # atno 10765 bound_to 10752
  139.8917  134.8429  156.2874 H   0  0  0  0  0  0  0  0  0  0  0  0  # atno 11005 bound_to 11000
  144.7581  140.5356  143.6755 LP  0  0  0  0  0  0  0  0  0  0  0  0  # atno 17320 bound_to 7965
  145.5503  139.1476  143.3398 LP  0  0  0  0  0  0  0  0  0  0  0  0  # atno 17321 bound_to 7965
  140.4320  143.2564  151.9583 LP  0  0  0  0  0  0  0  0  0  0  0  0  # atno 17342 bound_to 10162
  139.4789  144.5735  151.8050 LP  0  0  0  0  0  0  0  0  0  0  0  0  # atno 17343 bound_to 10162
  156.6913  130.4596  149.5599 LP  0  0  0  0  0  0  0  0  0  0  0  0  # atno 17370 bound_to 10713
  156.1860  130.6529  151.1006 LP  0  0  0  0  0  0  0  0  0  0  0  0  # atno 17371 bound_to 10713
  140.9998  133.7158  156.0943 LP  0  0  0  0  0  0  0  0  0  0  0  0  # atno 17394 bound_to 11000
  140.7513  134.4042  157.5541 LP  0  0  0  0  0  0  0  0  0  0  0  0  # atno 17395 bound_to 11000

$$$$
