AV-unprocessed.smi:679|AV-procd|sdf|3320|dock2
  -GOLD-   22720 0283D 1   1.00000     0.00000
 Structure written by MMmdl.
 41 43  0  0  0  0  0  0  0  0  1 V2000
  151.7392  144.1459  158.8346 C   0  0  0  0  0  0  0  0  0  0  0  0
  151.9003  142.6251  158.8834 C   0  0  0  0  0  0  0  0  0  0  0  0
  150.8610  142.0349  158.1221 O   0  0  0  0  0  0  0  0  0  0  0  0
  151.1479  140.7025  157.7277 C   0  0  1  0  0  0  0  0  0  0  0  0
  150.8460  139.6410  158.7896 C   0  0  0  0  0  0  0  0  0  0  0  0
  150.3666  138.7681  157.6278 C   0  0  1  0  0  0  0  0  0  0  0  0
  149.2124  137.9511  157.9867 N   0  0  0  0  0  0  0  0  0  0  0  0
  149.2125  137.0129  158.9449 C   0  0  0  0  0  0  0  0  0  0  0  0
  150.2048  136.7389  159.6207 O   0  0  0  0  0  0  0  0  0  0  0  0
  147.8948  136.2649  159.1648 C   0  0  0  0  0  0  0  0  0  0  0  0
  147.5967  136.1102  160.5769 N   0  0  0  0  0  0  0  0  0  0  0  0
  147.3372  135.0223  161.3052 C   0  0  0  0  0  0  0  0  0  0  0  0
  147.1244  135.3246  162.5770 N   0  0  0  0  0  0  0  0  0  0  0  0
  147.2703  136.7017  162.6016 N   0  0  0  0  0  0  0  0  0  0  0  0
  147.5512  137.1735  161.4178 N   0  0  0  0  0  0  0  0  0  0  0  0
  150.0390  140.0701  156.8501 C   0  0  0  0  0  0  0  0  0  0  0  0
  148.6337  140.6787  156.9506 C   0  0  0  0  0  0  0  0  0  0  0  0
  148.5425  141.7498  155.8614 C   0  0  0  0  0  0  0  0  0  0  0  0
  149.5640  141.3393  154.7955 C   0  0  0  0  0  0  0  0  0  0  0  0
  150.2657  140.0912  155.3421 C   0  0  0  0  0  0  0  0  0  0  0  0
  152.5212  144.6402  159.4111 H   0  0  0  0  0  0  0  0  0  0  0  0
  150.7764  144.4501  159.2458 H   0  0  0  0  0  0  0  0  0  0  0  0
  151.7963  144.5120  157.8092 H   0  0  0  0  0  0  0  0  0  0  0  0
  152.8723  142.3399  158.4782 H   0  0  0  0  0  0  0  0  0  0  0  0
  151.8583  142.2795  159.9171 H   0  0  0  0  0  0  0  0  0  0  0  0
  152.1412  140.5886  157.2868 H   0  0  0  0  0  0  0  0  0  0  0  0
  151.7214  139.2611  159.3167 H   0  0  0  0  0  0  0  0  0  0  0  0
  150.0518  139.9363  159.4777 H   0  0  0  0  0  0  0  0  0  0  0  0
  151.1890  138.2061  157.1783 H   0  0  0  0  0  0  0  0  0  0  0  0
  148.3573  138.1139  157.4747 H   0  0  0  0  0  0  0  0  0  0  0  0
  147.0665  136.7859  158.6813 H   0  0  0  0  0  0  0  0  0  0  0  0
  147.9628  135.2758  158.7106 H   0  0  0  0  0  0  0  0  0  0  0  0
  147.3085  134.0186  160.9077 H   0  0  0  0  0  0  0  0  0  0  0  0
  147.8738  139.9220  156.7534 H   0  0  0  0  0  0  0  0  0  0  0  0
  148.4166  141.0916  157.9363 H   0  0  0  0  0  0  0  0  0  0  0  0
  147.5328  141.8306  155.4574 H   0  0  0  0  0  0  0  0  0  0  0  0
  148.8107  142.7241  156.2718 H   0  0  0  0  0  0  0  0  0  0  0  0
  149.0897  141.1358  153.8349 H   0  0  0  0  0  0  0  0  0  0  0  0
  150.2840  142.1440  154.6421 H   0  0  0  0  0  0  0  0  0  0  0  0
  151.3237  140.0841  155.0791 H   0  0  0  0  0  0  0  0  0  0  0  0
  149.8261  139.2026  154.8880 H   0  0  0  0  0  0  0  0  0  0  0  0
  1  2  1  0  0  0  0
  1 21  1  0  0  0  0
  1 22  1  0  0  0  0
  1 23  1  0  0  0  0
  2  3  1  0  0  0  0
  2 24  1  0  0  0  0
  2 25  1  0  0  0  0
  3  4  1  0  0  0  0
  4 16  1  0  0  0  0
  4  5  1  0  0  0  0
  4 26  1  0  0  0  0
  5  6  1  0  0  0  0
  5 27  1  0  0  0  0
  5 28  1  0  0  0  0
  6  7  1  0  0  0  0
  6 16  1  0  0  0  0
  6 29  1  0  0  0  0
  7  8  1  0  0  0  0
  7 30  1  0  0  0  0
  8  9  2  0  0  0  0
  8 10  1  0  0  0  0
 10 11  1  0  0  0  0
 10 31  1  0  0  0  0
 10 32  1  0  0  0  0
 11 15  1  0  0  0  0
 11 12  1  0  0  0  0
 12 13  2  0  0  0  0
 12 33  1  0  0  0  0
 13 14  1  0  0  0  0
 14 15  2  0  0  0  0
 16 20  1  0  0  0  0
 16 17  1  0  0  0  0
 17 18  1  0  0  0  0
 17 34  1  0  0  0  0
 17 35  1  0  0  0  0
 18 19  1  0  0  0  0
 18 36  1  0  0  0  0
 18 37  1  0  0  0  0
 19 20  1  0  0  0  0
 19 38  1  0  0  0  0
 19 39  1  0  0  0  0
 20 40  1  0  0  0  0
 20 41  1  0  0  0  0
M  END
> <s_m_source_file>
AV-unprocessed.smi

> <i_m_source_file_index>
679

> <i_lp_mmshare_version>
43012

> <i_f3d_flags>
0

> <s_epik_input>
W0NIMl0xW0NIMl1bQ0gyXVtDSDJdQzEyW0NASF0oT1tDSDJdW0NIM10pW0NIMl1bQ0BIXTJbTkhdQyg9TylbQ0gyXW4zW2NIXW5ubjM=

> <s_epik_cmdline>
J2VwaWtfcHl0aG9uJywgJy1waCcsICc3LjAnLCAnLXRuJywgJzgnLCAnLW1hJywgJzIwMCcsICctbWV0YWxfYmluZGluZycsICctaW1hZScsICc8aW5maWxlLm1hZT4nLCAnLW9tYWUnLCAnPG91dGZpbGUubWFlPic=

> <r_lp_tautomer_probability>
1

> <r_epik_Ionization_Penalty>
7.96741e-07

> <r_epik_Ionization_Penalty_Charging>
0

> <r_epik_Ionization_Penalty_Neutral>
7.96741e-07

> <r_epik_State_Penalty>
-0

> <r_epik_Charging_Adjusted_Penalty>
0

> <i_epik_Tot_Q>
0

> <i_epik_Tot_abs_Q>
0

> <r_epik_Metal_State_Penalty>
-0

> <b_epik_Metal_Only>
0

> <s_lp_Force_Field>
OPLS_2005

> <r_lp_Energy>
38.413

> <b_lp_Chiralities_Consistent>
1

> <s_lp_Variant>
AV-unprocessed.smi:679-2

> <Gold.Version>
5.8.1

> <Gold.Id.Protein>
6NUR|6NUR_protein|mol2

> <Gold.PLP.Fitness>
38.6241

> <Gold.PLP.PLP>
-31.3769

> <Gold.PLP.part.hbond>
-3.8007

> <Gold.PLP.part.metal>
0.0000

> <Gold.PLP.part.buried>
-4.3158

> <Gold.PLP.part.nonpolar>
-24.2676

> <Gold.PLP.part.repulsive>
0.1544

> <Gold.PLP.ligand.clash>
0.0000

> <Gold.PLP.ligand.torsion>
0.5911

> <Gold.PLP.Chemscore.Hbond>
2.6720

> <Gold.PLP.Chemscore.CHOScore>
0.0000

> <Gold.PLP.Chemscore.Metal>
0.0000

> <Gold.Chemscore.Hbonds>
donor molecule, donor type, donor heavy atom, donor atom, acceptor molecule, acceptor atom, score
      P1  H  6896  6907       L1     9  1.00
      P1  H  6931  6943       L1    15  0.86
      P1  H  6934  6947       L1    15  0.86

> <Gold.PLP.Chemscore.Internal.Correction>
0.4134

> <Gold.Rescore>
     Score         DG    S(hbond)    S(metal)    S(lipo)     H(rot)  DE(clash)    DE(int)     intcor
     13.07     -13.70       2.12        0.00      62.33       2.41       0.12       0.51       ----

> <Gold.Chemscore.Fitness>
13.0721

> <Gold.Chemscore.DG>
-13.6951

> <Gold.Chemscore.ZeroCoef>
-5.4800

> <Gold.Chemscore.Hbond>
2.1227

> <Gold.Chemscore.Metal>
0.0000

> <Gold.Chemscore.Lipo>
62.3262

> <Gold.Chemscore.Internal_Hbond>
0.0000

> <Gold.Chemscore.DEClash>
0.1158

> <Gold.Chemscore.DEInternal>
0.5072

> <Gold.Chemscore.Rot>
2.4089

> <Gold.Chemscore.Internal.Correction>
   9.000000E+99

> <Gold.Chemscore.Hbonds>
donor molecule, donor type, donor heavy atom, donor atom, acceptor molecule, acceptor atom, score
      P1  H  6896  6907       L1     9  1.00
      P1  H  6931  6943       L1    15  0.16
      P1  H  6934  6947       L1    15  0.83

> <Gold.Chemscore.Hbond.Weighted>
-7.0898

> <Gold.Chemscore.Metal.Weighted>
-0.0000

> <Gold.Chemscore.Lipo.Weighted>
-7.2922

> <Gold.Chemscore.Internal_Hbond.Weighted>
0.0000

> <Gold.Chemscore.DEClash.Weighted>
0.1158

> <Gold.Chemscore.DEInternal.Weighted>
0.5072

> <Gold.Chemscore.Rot.Weighted>
6.1668

> <Gold.Chemscore.Internal.Correction.Weighted>
   9.000000E+99

> <Gold.Protein.RotatedTorsions>
[ 6907 6896 6895 6894 ] final  -25.57 input  -60.11 | X-H torsion
[ 7974 7965 7964 7962 ] final   65.52 input  175.53 | X-H torsion
[ 8008 7997 7996 7995 ] final   42.63 input   59.86 | X-H torsion
[ 10167 10162 10161 10158 ] final  -77.24 input  -65.29 | X-H torsion
[ 10718 10713 10712 10709 ] final  -98.30 input   66.30 | X-H torsion
[ 10763 10752 10751 10750 ] final   57.79 input  -60.55 | X-H torsion
[ 11005 11000 10999 10996 ] final  172.85 input  -57.11 | X-H torsion

> <Gold.Protein.ActiveResidues>
 VAL166  LYS551  ARG553  GLY616  TRP617  ASP618  TYR619  PRO620  LYS621  CYS622 
 ASP623  PHE694  ASN695  SER759  ASP760  ASP761  ALA762  ILE779  LEU786  VAL792 
 PHE793  MET794  SER795  GLU796  ALA797  LYS798  CYS799  TRP800  GLU811  SER814 

> <Gold.Protein.RotatedAtoms>
  151.1732  135.0327  159.8760 H   0  0  0  0  0  0  0  0  0  0  0  0  # atno 6907 bound_to 6896
  152.5448  134.1146  159.8383 H   0  0  0  0  0  0  0  0  0  0  0  0  # atno 6908 bound_to 6896
  151.1255  133.5027  159.2633 H   0  0  0  0  0  0  0  0  0  0  0  0  # atno 6909 bound_to 6896
  145.8374  139.3175  143.0951 H   0  0  0  0  0  0  0  0  0  0  0  0  # atno 7974 bound_to 7965
  155.2894  140.3378  155.4253 H   0  0  0  0  0  0  0  0  0  0  0  0  # atno 8008 bound_to 7997
  156.2053  140.1748  156.7853 H   0  0  0  0  0  0  0  0  0  0  0  0  # atno 8009 bound_to 7997
  154.5612  140.0687  156.8806 H   0  0  0  0  0  0  0  0  0  0  0  0  # atno 8010 bound_to 7997
  140.4787  143.2408  151.8092 H   0  0  0  0  0  0  0  0  0  0  0  0  # atno 10167 bound_to 10162
  156.0104  130.5232  150.6502 H   0  0  0  0  0  0  0  0  0  0  0  0  # atno 10718 bound_to 10713
  152.9857  135.5629  154.5448 H   0  0  0  0  0  0  0  0  0  0  0  0  # atno 10763 bound_to 10752
  154.4896  135.2792  155.1509 H   0  0  0  0  0  0  0  0  0  0  0  0  # atno 10764 bound_to 10752
  154.2984  135.6312  153.5467 H   0  0  0  0  0  0  0  0  0  0  0  0  # atno 10765 bound_to 10752
  140.3342  134.7332  157.4156 H   0  0  0  0  0  0  0  0  0  0  0  0  # atno 11005 bound_to 11000
  145.9503  140.8914  143.0262 LP  0  0  0  0  0  0  0  0  0  0  0  0  # atno 17320 bound_to 7965
  144.6735  140.1671  143.7417 LP  0  0  0  0  0  0  0  0  0  0  0  0  # atno 17321 bound_to 7965
  139.4830  144.4800  151.9318 LP  0  0  0  0  0  0  0  0  0  0  0  0  # atno 17342 bound_to 10162
  140.3885  144.2645  150.5902 LP  0  0  0  0  0  0  0  0  0  0  0  0  # atno 17343 bound_to 10162
  157.4265  131.0843  151.1080 LP  0  0  0  0  0  0  0  0  0  0  0  0  # atno 17370 bound_to 10713
  157.1666  130.6249  149.5627 LP  0  0  0  0  0  0  0  0  0  0  0  0  # atno 17371 bound_to 10713
  140.0835  134.5698  155.8516 LP  0  0  0  0  0  0  0  0  0  0  0  0  # atno 17394 bound_to 11000
  141.2055  133.6648  156.6188 LP  0  0  0  0  0  0  0  0  0  0  0  0  # atno 17395 bound_to 11000

$$$$
