AV-unprocessed.smi:2541|AV-procd|sdf|9990|dock2
  -GOLD-   2272014 43D 1   1.00000     0.00000
 Structure written by MMmdl.
 38 39  0  0  0  0  0  0  0  0  1 V2000
  154.5799  139.8960  159.2018 O   0  0  0  0  0  0  0  0  0  0  0  0
  153.9366  139.3998  160.1268 C   0  0  0  0  0  0  0  0  0  0  0  0
  153.3359  138.0010  159.9777 C   0  0  0  0  0  0  0  0  0  0  0  0
  153.8241  137.1030  161.0838 C   0  0  0  0  0  0  0  0  0  0  0  0
  153.6727  137.2681  162.4891 C   0  0  0  0  0  0  0  0  0  0  0  0
  154.3082  136.1777  163.0091 C   0  0  0  0  0  0  0  0  0  0  0  0
  154.8074  135.4000  162.0158 O   0  0  0  0  0  0  0  0  0  0  0  0
  154.4915  135.9970  160.7902 N   0  0  0  0  0  0  0  0  0  0  0  0
  153.7158  140.0270  161.2930 N   0  0  0  0  0  0  0  0  0  0  0  0
  154.1460  141.3825  161.6174 C   0  0  0  0  0  0  0  0  0  0  0  0
  152.9438  142.3206  161.8593 C   0  0  1  0  0  0  0  0  0  0  0  0
  153.0902  142.9253  163.1307 O   0  0  0  0  0  0  0  0  0  0  0  0
  152.7989  143.4171  160.7746 C   0  0  0  0  0  0  0  0  0  0  0  0
  151.7413  144.4955  161.1114 C   0  0  0  0  0  0  0  0  0  0  0  0
  151.6612  145.5742  160.0189 C   0  0  0  0  0  0  0  0  0  0  0  0
  151.3888  144.9545  158.6402 C   0  0  0  0  0  0  0  0  0  0  0  0
  152.4477  143.8976  158.2931 C   0  0  0  0  0  0  0  0  0  0  0  0
  152.5278  142.8125  159.3790 C   0  0  0  0  0  0  0  0  0  0  0  0
  152.2478  138.0686  160.0011 H   0  0  0  0  0  0  0  0  0  0  0  0
  153.6000  137.5997  158.9980 H   0  0  0  0  0  0  0  0  0  0  0  0
  153.1804  138.0635  163.0285 H   0  0  0  0  0  0  0  0  0  0  0  0
  154.4821  135.8302  164.0167 H   0  0  0  0  0  0  0  0  0  0  0  0
  153.1730  139.5442  161.9946 H   0  0  0  0  0  0  0  0  0  0  0  0
  154.7936  141.3442  162.4939 H   0  0  0  0  0  0  0  0  0  0  0  0
  154.7617  141.7606  160.7995 H   0  0  0  0  0  0  0  0  0  0  0  0
  152.0250  141.7325  161.8693 H   0  0  0  0  0  0  0  0  0  0  0  0
  153.7626  142.4623  163.6066 H   0  0  0  0  0  0  0  0  0  0  0  0
  153.7637  143.9229  160.7115 H   0  0  0  0  0  0  0  0  0  0  0  0
  150.7599  144.0348  161.2301 H   0  0  0  0  0  0  0  0  0  0  0  0
  151.9745  144.9732  162.0628 H   0  0  0  0  0  0  0  0  0  0  0  0
  150.8788  146.2929  160.2641 H   0  0  0  0  0  0  0  0  0  0  0  0
  152.5963  146.1346  159.9895 H   0  0  0  0  0  0  0  0  0  0  0  0
  150.3983  144.4974  158.6332 H   0  0  0  0  0  0  0  0  0  0  0  0
  151.3761  145.7337  157.8777 H   0  0  0  0  0  0  0  0  0  0  0  0
  152.2163  143.4425  157.3297 H   0  0  0  0  0  0  0  0  0  0  0  0
  153.4210  144.3774  158.1822 H   0  0  0  0  0  0  0  0  0  0  0  0
  153.3129  142.1007  159.1217 H   0  0  0  0  0  0  0  0  0  0  0  0
  151.5940  142.2493  159.3903 H   0  0  0  0  0  0  0  0  0  0  0  0
  1  2  2  0  0  0  0
  2  3  1  0  0  0  0
  2  9  1  0  0  0  0
  3  4  1  0  0  0  0
  3 19  1  0  0  0  0
  3 20  1  0  0  0  0
  4  8  2  0  0  0  0
  4  5  1  0  0  0  0
  5  6  2  0  0  0  0
  5 21  1  0  0  0  0
  6  7  1  0  0  0  0
  6 22  1  0  0  0  0
  7  8  1  0  0  0  0
  9 10  1  0  0  0  0
  9 23  1  0  0  0  0
 10 11  1  0  0  0  0
 10 24  1  0  0  0  0
 10 25  1  0  0  0  0
 11 12  1  0  0  0  0
 11 13  1  0  0  0  0
 11 26  1  0  0  0  0
 12 27  1  0  0  0  0
 13 18  1  0  0  0  0
 13 14  1  0  0  0  0
 13 28  1  0  0  0  0
 14 15  1  0  0  0  0
 14 29  1  0  0  0  0
 14 30  1  0  0  0  0
 15 16  1  0  0  0  0
 15 31  1  0  0  0  0
 15 32  1  0  0  0  0
 16 17  1  0  0  0  0
 16 33  1  0  0  0  0
 16 34  1  0  0  0  0
 17 18  1  0  0  0  0
 17 35  1  0  0  0  0
 17 36  1  0  0  0  0
 18 37  1  0  0  0  0
 18 38  1  0  0  0  0
M  END
> <s_m_source_file>
AV-unprocessed.smi

> <i_m_source_file_index>
2541

> <i_lp_mmshare_version>
43012

> <i_f3d_flags>
0

> <s_epik_input>
bjFvW2NIXVtjSF1jMVtDSDJdQyg9TylbTkhdW0NIMl1bQ0BIXShbT0hdKVtDSF0yW0NIMl1bQ0gyXVtDSDJdW0NIMl1bQ0gyXTI=

> <s_epik_cmdline>
J2VwaWtfcHl0aG9uJywgJy1waCcsICc3LjAnLCAnLXRuJywgJzgnLCAnLW1hJywgJzIwMCcsICctbWV0YWxfYmluZGluZycsICctaW1hZScsICc8aW5maWxlLm1hZT4nLCAnLW9tYWUnLCAnPG91dGZpbGUubWFlPic=

> <r_lp_tautomer_probability>
1

> <r_epik_Ionization_Penalty>
2.3322e-07

> <r_epik_Ionization_Penalty_Charging>
0

> <r_epik_Ionization_Penalty_Neutral>
2.3322e-07

> <r_epik_State_Penalty>
-0

> <r_epik_Charging_Adjusted_Penalty>
0

> <i_epik_Tot_Q>
0

> <i_epik_Tot_abs_Q>
0

> <r_epik_Metal_State_Penalty>
-0

> <b_epik_Metal_Only>
0

> <s_lp_Force_Field>
OPLS_2005

> <r_lp_Energy>
13.2063

> <b_lp_Chiralities_Consistent>
1

> <s_lp_Variant>
AV-unprocessed.smi:2541-2

> <Gold.Version>
5.8.1

> <Gold.Id.Protein>
6NUR|6NUR_protein|mol2

> <Gold.PLP.Fitness>
45.1474

> <Gold.PLP.PLP>
-43.6284

> <Gold.PLP.part.hbond>
-1.2135

> <Gold.PLP.part.metal>
0.0000

> <Gold.PLP.part.buried>
-3.8786

> <Gold.PLP.part.nonpolar>
-37.9343

> <Gold.PLP.part.repulsive>
0.0385

> <Gold.PLP.ligand.clash>
0.0000

> <Gold.PLP.ligand.torsion>
0.8034

> <Gold.PLP.Chemscore.Hbond>
1.0000

> <Gold.PLP.Chemscore.CHOScore>
0.0000

> <Gold.PLP.Chemscore.Metal>
0.0000

> <Gold.Chemscore.Hbonds>
donor molecule, donor type, donor heavy atom, donor atom, acceptor molecule, acceptor atom, score
      P1  H  7997  8008       L1     1  1.00

> <Gold.PLP.Chemscore.Internal.Correction>
0.1258

> <Gold.Rescore>
     Score         DG    S(hbond)    S(metal)    S(lipo)     H(rot)  DE(clash)    DE(int)     intcor
     15.93     -16.87       0.99        0.00     121.84       2.42       0.02       0.92       ----

> <Gold.Chemscore.Fitness>
15.9260

> <Gold.Chemscore.DG>
-16.8664

> <Gold.Chemscore.ZeroCoef>
-5.4800

> <Gold.Chemscore.Hbond>
0.9939

> <Gold.Chemscore.Metal>
0.0000

> <Gold.Chemscore.Lipo>
121.8363

> <Gold.Chemscore.Internal_Hbond>
0.0000

> <Gold.Chemscore.DEClash>
0.0217

> <Gold.Chemscore.DEInternal>
0.9188

> <Gold.Chemscore.Rot>
2.4172

> <Gold.Chemscore.Internal.Correction>
   9.000000E+99

> <Gold.Chemscore.Hbonds>
donor molecule, donor type, donor heavy atom, donor atom, acceptor molecule, acceptor atom, score
      P1  H  7997  8008       L1     1  0.97

> <Gold.Chemscore.Hbond.Weighted>
-3.3196

> <Gold.Chemscore.Metal.Weighted>
-0.0000

> <Gold.Chemscore.Lipo.Weighted>
-14.2548

> <Gold.Chemscore.Internal_Hbond.Weighted>
0.0000

> <Gold.Chemscore.DEClash.Weighted>
0.0217

> <Gold.Chemscore.DEInternal.Weighted>
0.9188

> <Gold.Chemscore.Rot.Weighted>
6.1880

> <Gold.Chemscore.Internal.Correction.Weighted>
   9.000000E+99

> <Gold.Protein.RotatedTorsions>
[ 6907 6896 6895 6894 ] final   -5.48 input  -60.11 | X-H torsion
[ 7974 7965 7964 7962 ] final  138.05 input  175.53 | X-H torsion
[ 8008 7997 7996 7995 ] final -118.24 input   59.86 | X-H torsion
[ 10167 10162 10161 10158 ] final -169.48 input  -65.29 | X-H torsion
[ 10718 10713 10712 10709 ] final    2.10 input   66.30 | X-H torsion
[ 10763 10752 10751 10750 ] final -106.54 input  -60.55 | X-H torsion
[ 11005 11000 10999 10996 ] final   59.90 input  -57.11 | X-H torsion

> <Gold.Protein.ActiveResidues>
 VAL166  LYS551  ARG553  GLY616  TRP617  ASP618  TYR619  PRO620  LYS621  CYS622 
 ASP623  PHE694  ASN695  SER759  ASP760  ASP761  ALA762  ILE779  LEU786  VAL792 
 PHE793  MET794  SER795  GLU796  ALA797  LYS798  CYS799  TRP800  GLU811  SER814 

> <Gold.Protein.RotatedAtoms>
  151.4808  135.1052  159.9776 H   0  0  0  0  0  0  0  0  0  0  0  0  # atno 6907 bound_to 6896
  152.4780  133.8180  159.7049 H   0  0  0  0  0  0  0  0  0  0  0  0  # atno 6908 bound_to 6896
  150.8831  133.7283  159.2953 H   0  0  0  0  0  0  0  0  0  0  0  0  # atno 6909 bound_to 6896
  144.9409  139.4932  143.5572 H   0  0  0  0  0  0  0  0  0  0  0  0  # atno 7974 bound_to 7965
  155.0966  140.0395  157.2684 H   0  0  0  0  0  0  0  0  0  0  0  0  # atno 8008 bound_to 7997
  154.6790  140.2629  155.6902 H   0  0  0  0  0  0  0  0  0  0  0  0  # atno 8009 bound_to 7997
  156.2688  140.2782  156.1328 H   0  0  0  0  0  0  0  0  0  0  0  0  # atno 8010 bound_to 7997
  139.5920  144.1193  152.1645 H   0  0  0  0  0  0  0  0  0  0  0  0  # atno 10167 bound_to 10162
  156.8580  130.5576  149.5665 H   0  0  0  0  0  0  0  0  0  0  0  0  # atno 10718 bound_to 10713
  154.8018  135.4708  154.0295 H   0  0  0  0  0  0  0  0  0  0  0  0  # atno 10763 bound_to 10752
  153.1795  135.6838  153.8505 H   0  0  0  0  0  0  0  0  0  0  0  0  # atno 10764 bound_to 10752
  153.8060  135.3223  155.3373 H   0  0  0  0  0  0  0  0  0  0  0  0  # atno 10765 bound_to 10752
  140.0270  134.6068  155.9559 H   0  0  0  0  0  0  0  0  0  0  0  0  # atno 11005 bound_to 11000
  146.3285  139.8428  142.8887 LP  0  0  0  0  0  0  0  0  0  0  0  0  # atno 17320 bound_to 7965
  145.2992  141.0189  143.3618 LP  0  0  0  0  0  0  0  0  0  0  0  0  # atno 17321 bound_to 7965
  140.0769  144.5733  150.7150 LP  0  0  0  0  0  0  0  0  0  0  0  0  # atno 17342 bound_to 10162
  140.7181  143.2563  151.4369 LP  0  0  0  0  0  0  0  0  0  0  0  0  # atno 17343 bound_to 10162
  156.0792  130.5807  150.9531 LP  0  0  0  0  0  0  0  0  0  0  0  0  # atno 17370 bound_to 10713
  157.6266  131.0925  150.8521 LP  0  0  0  0  0  0  0  0  0  0  0  0  # atno 17371 bound_to 10713
  141.1809  133.6546  156.5015 LP  0  0  0  0  0  0  0  0  0  0  0  0  # atno 17394 bound_to 11000
  140.4289  134.7119  157.4931 LP  0  0  0  0  0  0  0  0  0  0  0  0  # atno 17395 bound_to 11000

$$$$
