AV-unprocessed.smi:2079|AV-procd|sdf|8478|dock5
  -GOLD-   2272011183D 1   1.00000     0.00000
 Structure written by MMmdl.
 42 43  0  0  0  0  0  0  0  0  2 V2000
  144.1963  147.2016  151.2296 C   0  0  0  0  0  0  0  0  0  0  0  0
  144.8771  145.8870  151.0592 C   0  0  0  0  0  0  0  0  0  0  0  0
  144.6318  144.6399  151.5615 C   0  0  0  0  0  0  0  0  0  0  0  0
  145.6737  143.8573  150.9964 C   0  0  0  0  0  0  0  0  0  0  0  0
  145.7831  142.4724  151.2827 N   0  0  0  0  0  0  0  0  0  0  0  0
  146.8171  141.6608  151.0035 C   0  0  0  0  0  0  0  0  0  0  0  0
  147.8469  141.9978  150.4182 O   0  0  0  0  0  0  0  0  0  0  0  0
  146.5958  140.4127  151.4423 N   0  0  0  0  0  0  0  0  0  0  0  0
  147.5431  139.3106  151.3164 C   0  0  0  0  0  0  0  0  0  0  0  0
  148.9491  139.7111  151.8124 C   0  0  0  0  0  0  0  0  0  0  0  0
  150.0399  138.8440  151.2785 N   0  3  1  0  0  0  0  0  0  0  0  0
  149.9421  138.6685  149.7997 C   0  0  0  0  0  0  0  0  0  0  0  0
  150.9845  137.6772  149.2639 C   0  0  0  0  0  0  0  0  0  0  0  0
  152.3960  138.1261  149.6389 C   0  0  0  0  0  0  0  0  0  0  0  0
  152.4837  138.2950  151.1570 C   0  0  0  0  0  0  0  0  0  0  0  0
  151.4170  139.2763  151.6916 C   0  0  2  0  0  0  0  0  0  0  0  0
  151.5890  139.4022  153.2202 C   0  0  0  0  0  0  0  0  0  0  0  0
  146.4792  144.5618  150.2164 N   0  0  0  0  0  0  0  0  0  0  0  0
  145.9732  145.8663  150.2532 O   0  0  0  0  0  0  0  0  0  0  0  0
  143.2289  147.0794  151.7169 H   0  0  0  0  0  0  0  0  0  0  0  0
  144.0307  147.6805  150.2645 H   0  0  0  0  0  0  0  0  0  0  0  0
  144.8011  147.8715  151.8409 H   0  0  0  0  0  0  0  0  0  0  0  0
  143.8364  144.3407  152.2281 H   0  0  0  0  0  0  0  0  0  0  0  0
  144.9974  142.0617  151.7647 H   0  0  0  0  0  0  0  0  0  0  0  0
  145.7239  140.2176  151.9127 H   0  0  0  0  0  0  0  0  0  0  0  0
  147.1757  138.4398  151.8625 H   0  0  0  0  0  0  0  0  0  0  0  0
  147.5581  139.0381  150.2622 H   0  0  0  0  0  0  0  0  0  0  0  0
  149.1569  140.7538  151.5679 H   0  0  0  0  0  0  0  0  0  0  0  0
  148.9243  139.6483  152.8972 H   0  0  0  0  0  0  0  0  0  0  0  0
  148.9613  138.2908  149.5171 H   0  0  0  0  0  0  0  0  0  0  0  0
  150.0603  139.6365  149.3100 H   0  0  0  0  0  0  0  0  0  0  0  0
  150.7914  136.6829  149.6691 H   0  0  0  0  0  0  0  0  0  0  0  0
  150.8967  137.5931  148.1803 H   0  0  0  0  0  0  0  0  0  0  0  0
  153.1293  137.3959  149.2953 H   0  0  0  0  0  0  0  0  0  0  0  0
  152.6329  139.0690  149.1439 H   0  0  0  0  0  0  0  0  0  0  0  0
  152.3644  137.3228  151.6377 H   0  0  0  0  0  0  0  0  0  0  0  0
  153.4823  138.6460  151.4201 H   0  0  0  0  0  0  0  0  0  0  0  0
  151.6060  140.2565  151.2504 H   0  0  0  0  0  0  0  0  0  0  0  0
  152.6369  139.5496  153.4826 H   0  0  0  0  0  0  0  0  0  0  0  0
  151.2457  138.5047  153.7360 H   0  0  0  0  0  0  0  0  0  0  0  0
  151.0568  140.2597  153.6304 H   0  0  0  0  0  0  0  0  0  0  0  0
  149.8997  137.9313  151.6881 H   0  0  0  0  0  0  0  0  0  0  0  0
  1  2  1  0  0  0  0
  1 20  1  0  0  0  0
  1 21  1  0  0  0  0
  1 22  1  0  0  0  0
  2 19  1  0  0  0  0
  2  3  2  0  0  0  0
  3  4  1  0  0  0  0
  3 23  1  0  0  0  0
  4  5  1  0  0  0  0
  4 18  2  0  0  0  0
  5  6  1  0  0  0  0
  5 24  1  0  0  0  0
  6  7  2  0  0  0  0
  6  8  1  0  0  0  0
  8  9  1  0  0  0  0
  8 25  1  0  0  0  0
  9 10  1  0  0  0  0
  9 26  1  0  0  0  0
  9 27  1  0  0  0  0
 10 11  1  0  0  0  0
 10 28  1  0  0  0  0
 10 29  1  0  0  0  0
 11 16  1  0  0  0  0
 11 12  1  0  0  0  0
 11 42  1  0  0  0  0
 12 13  1  0  0  0  0
 12 30  1  0  0  0  0
 12 31  1  0  0  0  0
 13 14  1  0  0  0  0
 13 32  1  0  0  0  0
 13 33  1  0  0  0  0
 14 15  1  0  0  0  0
 14 34  1  0  0  0  0
 14 35  1  0  0  0  0
 15 16  1  0  0  0  0
 15 36  1  0  0  0  0
 15 37  1  0  0  0  0
 16 17  1  0  0  0  0
 16 38  1  0  0  0  0
 17 39  1  0  0  0  0
 17 40  1  0  0  0  0
 17 41  1  0  0  0  0
 18 19  1  0  0  0  0
M  CHG  1  11   1
M  END
> <s_m_source_file>
AV-unprocessed.smi

> <i_m_source_file_index>
2079

> <i_lp_mmshare_version>
43012

> <i_f3d_flags>
0

> <s_epik_input>
W0NIM11jMVtjSF1jKG5vMSlbTkhdQyg9TylbTkhdW0NIMl1bQ0gyXU4yW0NIMl1bQ0gyXVtDSDJdW0NIMl1bQ0BIXTJbQ0gzXQ==

> <s_epik_cmdline>
J2VwaWtfcHl0aG9uJywgJy1waCcsICc3LjAnLCAnLXRuJywgJzgnLCAnLW1hJywgJzIwMCcsICctbWV0YWxfYmluZGluZycsICctaW1hZScsICc8aW5maWxlLm1hZT4nLCAnLW9tYWUnLCAnPG91dGZpbGUubWFlPic=

> <r_epik_Ionization_Penalty>
0.00265971

> <r_epik_Ionization_Penalty_Charging>
0.00262393

> <r_epik_Ionization_Penalty_Neutral>
3.57846e-05

> <r_epik_State_Penalty>
0.00182566

> <r_epik_Charging_Adjusted_Penalty>
0.00444959

> <i_epik_Tot_Q>
1

> <i_epik_Tot_abs_Q>
1

> <r_epik_Metal_State_Penalty>
0.0216344

> <b_epik_Metal_Only>
0

> <s_lp_Force_Field>
OPLS_2005

> <r_lp_Energy>
17.1718

> <b_lp_Chiralities_Consistent>
1

> <s_lp_Variant>
AV-unprocessed.smi:2079-4

> <Gold.Version>
5.8.1

> <Gold.Id.Protein>
6NUR|6NUR_protein|mol2

> <Gold.PLP.Fitness>
40.6238

> <Gold.PLP.PLP>
-29.1540

> <Gold.PLP.part.hbond>
-3.6411

> <Gold.PLP.part.metal>
0.0000

> <Gold.PLP.part.buried>
-3.7835

> <Gold.PLP.part.nonpolar>
-21.1841

> <Gold.PLP.part.repulsive>
0.1457

> <Gold.PLP.ligand.clash>
0.0000

> <Gold.PLP.ligand.torsion>
0.2118

> <Gold.PLP.Chemscore.Hbond>
3.9575

> <Gold.PLP.Chemscore.CHOScore>
0.0000

> <Gold.PLP.Chemscore.Metal>
0.0000

> <Gold.Chemscore.Hbonds>
donor molecule, donor type, donor heavy atom, donor atom, acceptor molecule, acceptor atom, score
      L1  H     8    25       P1 10175  0.80
      L1  H    11    42       P1  7948  0.60

> <Gold.PLP.Chemscore.Internal.Correction>
0.0209

> <Gold.Rescore>
     Score         DG    S(hbond)    S(metal)    S(lipo)     H(rot)  DE(clash)    DE(int)     intcor
     15.85     -17.93       2.93        0.00      57.13       1.57       0.01       2.07       ----

> <Gold.Chemscore.Fitness>
15.8543

> <Gold.Chemscore.DG>
-17.9287

> <Gold.Chemscore.ZeroCoef>
-5.4800

> <Gold.Chemscore.Hbond>
2.9289

> <Gold.Chemscore.Metal>
0.0000

> <Gold.Chemscore.Lipo>
57.1327

> <Gold.Chemscore.Internal_Hbond>
0.0000

> <Gold.Chemscore.DEClash>
0.0067

> <Gold.Chemscore.DEInternal>
2.0677

> <Gold.Chemscore.Rot>
1.5697

> <Gold.Chemscore.Internal.Correction>
   9.000000E+99

> <Gold.Chemscore.Hbonds>
donor molecule, donor type, donor heavy atom, donor atom, acceptor molecule, acceptor atom, score
      L1  H     8    25       P1 10175  0.23

> <Gold.Chemscore.Hbond.Weighted>
-9.7827

> <Gold.Chemscore.Metal.Weighted>
-0.0000

> <Gold.Chemscore.Lipo.Weighted>
-6.6845

> <Gold.Chemscore.Internal_Hbond.Weighted>
0.0000

> <Gold.Chemscore.DEClash.Weighted>
0.0067

> <Gold.Chemscore.DEInternal.Weighted>
2.0677

> <Gold.Chemscore.Rot.Weighted>
4.0185

> <Gold.Chemscore.Internal.Correction.Weighted>
   9.000000E+99

> <Gold.Protein.RotatedTorsions>
[ 6907 6896 6895 6894 ] final   75.63 input  -60.11 | X-H torsion
[ 7974 7965 7964 7962 ] final -118.46 input  175.53 | X-H torsion
[ 8008 7997 7996 7995 ] final  -53.70 input   59.86 | X-H torsion
[ 10167 10162 10161 10158 ] final   45.43 input  -65.29 | X-H torsion
[ 10718 10713 10712 10709 ] final -179.71 input   66.30 | X-H torsion
[ 10763 10752 10751 10750 ] final  164.79 input  -60.55 | X-H torsion
[ 11005 11000 10999 10996 ] final -113.04 input  -57.11 | X-H torsion

> <Gold.Protein.ActiveResidues>
 VAL166  LYS551  ARG553  GLY616  TRP617  ASP618  TYR619  PRO620  LYS621  CYS622 
 ASP623  PHE694  ASN695  SER759  ASP760  ASP761  ALA762  ILE779  LEU786  VAL792 
 PHE793  MET794  SER795  GLU796  ALA797  LYS798  CYS799  TRP800  GLU811  SER814 

> <Gold.Protein.RotatedAtoms>
  152.5035  134.4091  159.9442 H   0  0  0  0  0  0  0  0  0  0  0  0  # atno 6907 bound_to 6896
  151.4058  133.3737  159.2745 H   0  0  0  0  0  0  0  0  0  0  0  0  # atno 6908 bound_to 6896
  150.9328  134.8763  159.7621 H   0  0  0  0  0  0  0  0  0  0  0  0  # atno 6909 bound_to 6896
  145.0736  140.8376  143.4081 H   0  0  0  0  0  0  0  0  0  0  0  0  # atno 7974 bound_to 7965
  154.4141  140.1194  156.5196 H   0  0  0  0  0  0  0  0  0  0  0  0  # atno 8008 bound_to 7997
  155.6716  140.3496  155.4801 H   0  0  0  0  0  0  0  0  0  0  0  0  # atno 8009 bound_to 7997
  155.9628  140.1126  157.0871 H   0  0  0  0  0  0  0  0  0  0  0  0  # atno 8010 bound_to 7997
  140.3242  144.2668  150.6178 H   0  0  0  0  0  0  0  0  0  0  0  0  # atno 10167 bound_to 10162
  156.8632  130.9759  151.3081 H   0  0  0  0  0  0  0  0  0  0  0  0  # atno 10718 bound_to 10713
  154.3142  135.2757  155.2551 H   0  0  0  0  0  0  0  0  0  0  0  0  # atno 10763 bound_to 10752
  154.4933  135.5827  153.6479 H   0  0  0  0  0  0  0  0  0  0  0  0  # atno 10764 bound_to 10752
  152.9884  135.6140  154.3321 H   0  0  0  0  0  0  0  0  0  0  0  0  # atno 10765 bound_to 10752
  141.0639  133.9491  157.2616 H   0  0  0  0  0  0  0  0  0  0  0  0  # atno 11005 bound_to 11000
  145.1263  139.2661  143.5562 LP  0  0  0  0  0  0  0  0  0  0  0  0  # atno 17320 bound_to 7965
  146.3529  140.0901  142.8613 LP  0  0  0  0  0  0  0  0  0  0  0  0  # atno 17321 bound_to 7965
  140.5456  143.2215  151.8012 LP  0  0  0  0  0  0  0  0  0  0  0  0  # atno 17342 bound_to 10162
  139.4868  144.4544  151.9616 LP  0  0  0  0  0  0  0  0  0  0  0  0  # atno 17343 bound_to 10162
  157.6238  130.8676  149.9154 LP  0  0  0  0  0  0  0  0  0  0  0  0  # atno 17370 bound_to 10713
  156.0765  130.3678  150.0666 LP  0  0  0  0  0  0  0  0  0  0  0  0  # atno 17371 bound_to 10713
  139.9458  135.0184  156.8846 LP  0  0  0  0  0  0  0  0  0  0  0  0  # atno 17394 bound_to 11000
  140.5814  134.0349  155.7465 LP  0  0  0  0  0  0  0  0  0  0  0  0  # atno 17395 bound_to 11000

$$$$
