AV-unprocessed.smi:1023|AV-procd|sdf|4462|dock9
  -GOLD-   22720 2433D 1   1.00000     0.00000
 Structure written by MMmdl.
 32 33  0  0  0  0  0  0  0  0  1 V2000
  151.9094  143.3755  160.4620 C   0  0  0  0  0  0  0  0  0  0  0  0
  151.3585  144.7218  159.9600 C   0  0  0  0  0  0  0  0  0  0  0  0
  149.8231  144.7222  159.9973 C   0  0  0  0  0  0  0  0  0  0  0  0
  151.8678  145.0874  158.5503 C   0  0  0  0  0  0  0  0  0  0  0  0
  151.1557  144.3620  157.5022 N   0  0  0  0  0  0  0  0  0  0  0  0
  151.2633  143.0485  157.2398 C   0  0  0  0  0  0  0  0  0  0  0  0
  151.9854  142.2959  157.8913 O   0  0  0  0  0  0  0  0  0  0  0  0
  150.5261  142.5802  156.2099 N   0  0  0  0  0  0  0  0  0  0  0  0
  150.3912  141.2734  155.6568 C   0  0  0  0  0  0  0  0  0  0  0  0
  149.4043  140.8915  154.8331 N   0  0  0  0  0  0  0  0  0  0  0  0
  149.5344  139.5671  154.4418 N   0  0  0  0  0  0  0  0  0  0  0  0
  150.6163  138.9851  154.9718 C   0  0  0  0  0  0  0  0  0  0  0  0
  150.9705  137.5616  154.6965 C   0  0  0  0  0  0  0  0  0  0  0  0
  149.9949  136.4491  155.0049 C   0  0  0  0  0  0  0  0  0  0  0  0
  151.2571  136.5857  155.8170 C   0  0  0  0  0  0  0  0  0  0  0  0
  151.5811  140.0310  156.0079 S   0  0  0  0  0  0  0  0  0  0  0  0
  151.6447  142.5632  159.7844 H   0  0  0  0  0  0  0  0  0  0  0  0
  151.5100  143.1311  161.4465 H   0  0  0  0  0  0  0  0  0  0  0  0
  152.9955  143.3939  160.5525 H   0  0  0  0  0  0  0  0  0  0  0  0
  151.6995  145.4948  160.6503 H   0  0  0  0  0  0  0  0  0  0  0  0
  149.4101  143.9664  159.3283 H   0  0  0  0  0  0  0  0  0  0  0  0
  149.4225  145.6899  159.6941 H   0  0  0  0  0  0  0  0  0  0  0  0
  149.4536  144.5151  161.0021 H   0  0  0  0  0  0  0  0  0  0  0  0
  151.8114  146.1660  158.3946 H   0  0  0  0  0  0  0  0  0  0  0  0
  152.9227  144.8256  158.4637 H   0  0  0  0  0  0  0  0  0  0  0  0
  150.5382  144.9065  156.9167 H   0  0  0  0  0  0  0  0  0  0  0  0
  149.9386  143.2752  155.7729 H   0  0  0  0  0  0  0  0  0  0  0  0
  151.5640  137.4819  153.7879 H   0  0  0  0  0  0  0  0  0  0  0  0
  149.0570  136.7178  155.4871 H   0  0  0  0  0  0  0  0  0  0  0  0
  149.9366  135.6240  154.2981 H   0  0  0  0  0  0  0  0  0  0  0  0
  152.0418  135.8501  155.6528 H   0  0  0  0  0  0  0  0  0  0  0  0
  151.1519  136.9328  156.8430 H   0  0  0  0  0  0  0  0  0  0  0  0
  1  2  1  0  0  0  0
  1 17  1  0  0  0  0
  1 18  1  0  0  0  0
  1 19  1  0  0  0  0
  2  3  1  0  0  0  0
  2  4  1  0  0  0  0
  2 20  1  0  0  0  0
  3 21  1  0  0  0  0
  3 22  1  0  0  0  0
  3 23  1  0  0  0  0
  4  5  1  0  0  0  0
  4 24  1  0  0  0  0
  4 25  1  0  0  0  0
  5  6  1  0  0  0  0
  5 26  1  0  0  0  0
  6  7  2  0  0  0  0
  6  8  1  0  0  0  0
  8  9  1  0  0  0  0
  8 27  1  0  0  0  0
  9 16  1  0  0  0  0
  9 10  2  0  0  0  0
 10 11  1  0  0  0  0
 11 12  2  0  0  0  0
 12 13  1  0  0  0  0
 12 16  1  0  0  0  0
 13 15  1  0  0  0  0
 13 14  1  0  0  0  0
 13 28  1  0  0  0  0
 14 15  1  0  0  0  0
 14 29  1  0  0  0  0
 14 30  1  0  0  0  0
 15 31  1  0  0  0  0
 15 32  1  0  0  0  0
M  END
> <s_m_source_file>
AV-unprocessed.smi

> <i_m_source_file_index>
1023

> <i_lp_mmshare_version>
43012

> <i_f3d_flags>
0

> <s_epik_input>
W0NIM11bQ0hdKFtDSDNdKVtDSDJdW05IXUMoPU8pW05IXWMxbm5jKHMxKVtDSF0yW0NIMl1bQ0gyXTI=

> <s_epik_cmdline>
J2VwaWtfcHl0aG9uJywgJy1waCcsICc3LjAnLCAnLXRuJywgJzgnLCAnLW1hJywgJzIwMCcsICctbWV0YWxfYmluZGluZycsICctaW1hZScsICc8aW5maWxlLm1hZT4nLCAnLW9tYWUnLCAnPG91dGZpbGUubWFlPic=

> <r_lp_tautomer_probability>
1

> <r_epik_Ionization_Penalty>
0.000943136

> <r_epik_Ionization_Penalty_Charging>
0

> <r_epik_Ionization_Penalty_Neutral>
0.000943136

> <r_epik_State_Penalty>
-0

> <r_epik_Charging_Adjusted_Penalty>
0

> <i_epik_Tot_Q>
0

> <i_epik_Tot_abs_Q>
0

> <r_epik_Metal_State_Penalty>
0.281646

> <b_epik_Metal_Only>
0

> <s_lp_Force_Field>
OPLS_2005

> <r_lp_Energy>
5.4251

> <b_lp_Chiralities_Consistent>
1

> <s_lp_Variant>
AV-unprocessed.smi:1023-1

> <Gold.Version>
5.8.1

> <Gold.Id.Protein>
6NUR|6NUR_protein|mol2

> <Gold.PLP.Fitness>
37.6581

> <Gold.PLP.PLP>
-32.5478

> <Gold.PLP.part.hbond>
-2.0000

> <Gold.PLP.part.metal>
0.0000

> <Gold.PLP.part.buried>
-4.5627

> <Gold.PLP.part.nonpolar>
-25.8470

> <Gold.PLP.part.repulsive>
0.4192

> <Gold.PLP.ligand.clash>
0.0000

> <Gold.PLP.ligand.torsion>
0.3193

> <Gold.PLP.Chemscore.Hbond>
1.8723

> <Gold.PLP.Chemscore.CHOScore>
0.0000

> <Gold.PLP.Chemscore.Metal>
0.0000

> <Gold.Chemscore.Hbonds>
donor molecule, donor type, donor heavy atom, donor atom, acceptor molecule, acceptor atom, score
      L1  H     5    26       P1  8028  0.84
      L1  H     8    27       P1  8028  1.00

> <Gold.PLP.Chemscore.Internal.Correction>
0.1320

> <Gold.Rescore>
     Score         DG    S(hbond)    S(metal)    S(lipo)     H(rot)  DE(clash)    DE(int)     intcor
     12.84     -15.41       1.65        0.00      68.80       1.42       0.06       2.51       ----

> <Gold.Chemscore.Fitness>
12.8354

> <Gold.Chemscore.DG>
-15.4072

> <Gold.Chemscore.ZeroCoef>
-5.4800

> <Gold.Chemscore.Hbond>
1.6499

> <Gold.Chemscore.Metal>
0.0000

> <Gold.Chemscore.Lipo>
68.8027

> <Gold.Chemscore.Internal_Hbond>
0.0000

> <Gold.Chemscore.DEClash>
0.0589

> <Gold.Chemscore.DEInternal>
2.5129

> <Gold.Chemscore.Rot>
1.4193

> <Gold.Chemscore.Internal.Correction>
   9.000000E+99

> <Gold.Chemscore.Hbonds>
donor molecule, donor type, donor heavy atom, donor atom, acceptor molecule, acceptor atom, score
      L1  H     5    26       P1  8028  0.44
      L1  H     8    27       P1  8028  0.99

> <Gold.Chemscore.Hbond.Weighted>
-5.5106

> <Gold.Chemscore.Metal.Weighted>
-0.0000

> <Gold.Chemscore.Lipo.Weighted>
-8.0499

> <Gold.Chemscore.Internal_Hbond.Weighted>
0.0000

> <Gold.Chemscore.DEClash.Weighted>
0.0589

> <Gold.Chemscore.DEInternal.Weighted>
2.5129

> <Gold.Chemscore.Rot.Weighted>
3.6333

> <Gold.Chemscore.Internal.Correction.Weighted>
   9.000000E+99

> <Gold.Protein.RotatedTorsions>
[ 6907 6896 6895 6894 ] final -120.66 input  -60.11 | X-H torsion
[ 7974 7965 7964 7962 ] final  -47.02 input  175.53 | X-H torsion
[ 8008 7997 7996 7995 ] final   -1.78 input   59.86 | X-H torsion
[ 10167 10162 10161 10158 ] final  -12.78 input  -65.29 | X-H torsion
[ 10718 10713 10712 10709 ] final  -81.33 input   66.30 | X-H torsion
[ 10763 10752 10751 10750 ] final   43.24 input  -60.55 | X-H torsion
[ 11005 11000 10999 10996 ] final  142.19 input  -57.11 | X-H torsion

> <Gold.Protein.ActiveResidues>
 VAL166  LYS551  ARG553  GLY616  TRP617  ASP618  TYR619  PRO620  LYS621  CYS622 
 ASP623  PHE694  ASN695  SER759  ASP760  ASP761  ALA762  ILE779  LEU786  VAL792 
 PHE793  MET794  SER795  GLU796  ALA797  LYS798  CYS799  TRP800  GLU811  SER814 

> <Gold.Protein.RotatedAtoms>
  150.8413  133.7932  159.3059 H   0  0  0  0  0  0  0  0  0  0  0  0  # atno 6907 bound_to 6896
  151.5632  135.1063  159.9987 H   0  0  0  0  0  0  0  0  0  0  0  0  # atno 6908 bound_to 6896
  152.4476  133.7524  159.6757 H   0  0  0  0  0  0  0  0  0  0  0  0  # atno 6909 bound_to 6896
  145.9659  140.7432  142.9434 H   0  0  0  0  0  0  0  0  0  0  0  0  # atno 7974 bound_to 7965
  154.6430  140.2551  155.7300 H   0  0  0  0  0  0  0  0  0  0  0  0  # atno 8008 bound_to 7997
  156.2538  140.2883  156.0752 H   0  0  0  0  0  0  0  0  0  0  0  0  # atno 8009 bound_to 7997
  155.1567  140.0383  157.2824 H   0  0  0  0  0  0  0  0  0  0  0  0  # atno 8010 bound_to 7997
  140.7168  143.5496  150.9316 H   0  0  0  0  0  0  0  0  0  0  0  0  # atno 10167 bound_to 10162
  156.0052  130.4600  150.3936 H   0  0  0  0  0  0  0  0  0  0  0  0  # atno 10718 bound_to 10713
  152.9865  135.6107  154.3079 H   0  0  0  0  0  0  0  0  0  0  0  0  # atno 10763 bound_to 10752
  154.2796  135.2777  155.2705 H   0  0  0  0  0  0  0  0  0  0  0  0  # atno 10764 bound_to 10752
  154.5050  135.5856  153.6617 H   0  0  0  0  0  0  0  0  0  0  0  0  # atno 10765 bound_to 10752
  140.0458  134.9281  157.0927 H   0  0  0  0  0  0  0  0  0  0  0  0  # atno 11005 bound_to 11000
  144.6825  140.2668  143.7311 LP  0  0  0  0  0  0  0  0  0  0  0  0  # atno 17320 bound_to 7965
  145.7974  139.1951  143.2067 LP  0  0  0  0  0  0  0  0  0  0  0  0  # atno 17321 bound_to 7965
  139.9220  143.6594  152.3094 LP  0  0  0  0  0  0  0  0  0  0  0  0  # atno 17342 bound_to 10162
  139.7015  144.7634  151.1266 LP  0  0  0  0  0  0  0  0  0  0  0  0  # atno 17343 bound_to 10162
  157.2009  131.0438  151.2651 LP  0  0  0  0  0  0  0  0  0  0  0  0  # atno 17370 bound_to 10713
  157.3976  130.7316  149.6743 LP  0  0  0  0  0  0  0  0  0  0  0  0  # atno 17371 bound_to 10713
  140.3996  134.2096  155.7164 LP  0  0  0  0  0  0  0  0  0  0  0  0  # atno 17394 bound_to 11000
  141.1906  133.8213  157.0912 LP  0  0  0  0  0  0  0  0  0  0  0  0  # atno 17395 bound_to 11000

$$$$
