AV-unprocessed.smi:66|AV-procd|sdf|618|dock8
  -GOLD-   2262016513D 1   1.00000     0.00000
 Structure written by MMmdl.
 28 30  0  0  0  0  0  0  0  0  2 V2000
  153.7575  140.6555  160.5695 O   0  0  0  0  0  0  0  0  0  0  0  0
  153.3620  140.2728  159.4470 C   0  0  0  0  0  0  0  0  0  0  0  0
  153.9749  139.4857  158.6914 O   0  5  0  0  0  0  0  0  0  0  0  0
  152.0133  140.8254  158.9630 C   0  0  1  0  0  0  0  0  0  0  0  0
  151.9912  142.3633  158.9586 C   0  0  0  0  0  0  0  0  0  0  0  0
  150.9784  142.6925  157.8665 C   0  0  1  0  0  0  0  0  0  0  0  0
  151.1390  143.9957  157.3475 O   0  0  0  0  0  0  0  0  0  0  0  0
  151.2356  141.6103  156.8189 C   0  0  0  0  0  0  0  0  0  0  0  0
  151.7184  140.4606  157.5734 N   0  0  0  0  0  0  0  0  0  0  0  0
  151.3466  139.2051  157.2079 C   0  0  0  0  0  0  0  0  0  0  0  0
  151.4256  138.1947  158.1147 N   0  0  0  0  0  0  0  0  0  0  0  0
  151.0665  136.9516  157.7821 C   0  0  0  0  0  0  0  0  0  0  0  0
  150.6053  136.4996  156.6142 N   0  0  0  0  0  0  0  0  0  0  0  0
  150.5287  137.5055  155.6997 C   0  0  0  0  0  0  0  0  0  0  0  0
  150.1087  137.4295  154.3891 N   0  0  0  0  0  0  0  0  0  0  0  0
  150.2206  138.6999  153.8810 C   0  0  0  0  0  0  0  0  0  0  0  0
  150.6689  139.5877  154.7268 N   0  0  0  0  0  0  0  0  0  0  0  0
  150.8737  138.8722  155.9046 C   0  0  0  0  0  0  0  0  0  0  0  0
  149.7958  136.5777  153.9467 H   0  0  0  0  0  0  0  0  0  0  0  0
  151.2112  140.4594  159.6058 H   0  0  0  0  0  0  0  0  0  0  0  0
  151.7113  142.7792  159.9269 H   0  0  0  0  0  0  0  0  0  0  0  0
  152.9694  142.7682  158.6916 H   0  0  0  0  0  0  0  0  0  0  0  0
  149.9687  142.5832  158.2650 H   0  0  0  0  0  0  0  0  0  0  0  0
  150.4824  144.1331  156.6818 H   0  0  0  0  0  0  0  0  0  0  0  0
  150.3293  141.4009  156.2492 H   0  0  0  0  0  0  0  0  0  0  0  0
  152.0175  141.9117  156.1206 H   0  0  0  0  0  0  0  0  0  0  0  0
  151.1632  136.2143  158.5652 H   0  0  0  0  0  0  0  0  0  0  0  0
  149.9609  138.9463  152.8619 H   0  0  0  0  0  0  0  0  0  0  0  0
  1  2  2  0  0  0  0
  2  3  1  0  0  0  0
  2  4  1  0  0  0  0
  4  5  1  0  0  0  0
  4 20  1  0  0  0  0
  4  9  1  0  0  0  0
  5  6  1  0  0  0  0
  5 21  1  0  0  0  0
  5 22  1  0  0  0  0
  6  7  1  0  0  0  0
  6  8  1  0  0  0  0
  6 23  1  0  0  0  0
  7 24  1  0  0  0  0
  8 25  1  0  0  0  0
  8 26  1  0  0  0  0
  8  9  1  0  0  0  0
  9 10  1  0  0  0  0
 10 11  1  0  0  0  0
 10 18  2  0  0  0  0
 11 12  2  0  0  0  0
 12 27  1  0  0  0  0
 12 13  1  0  0  0  0
 13 14  2  0  0  0  0
 14 15  1  0  0  0  0
 14 18  1  0  0  0  0
 15 16  1  0  0  0  0
 15 19  1  0  0  0  0
 16 17  2  0  0  0  0
 16 28  1  0  0  0  0
 17 18  1  0  0  0  0
M  CHG  1   3  -1
M  END
> <s_m_source_file>
AV-unprocessed.smi

> <i_m_source_file_index>
66

> <i_lp_mmshare_version>
43012

> <i_f3d_flags>
0

> <s_epik_input>
Tz1DKFtPSF0pW0NAQEhdMVtDSDJdW0NAQEhdKFtPSF0pW0NIMl1OMWMobltjSF1uMiljKGMyMylbbkhdW2NIXW4z

> <s_epik_cmdline>
J2VwaWtfcHl0aG9uJywgJy1waCcsICc3LjAnLCAnLXRuJywgJzgnLCAnLW1hJywgJzIwMCcsICctbWV0YWxfYmluZGluZycsICctaW1hZScsICc8aW5maWxlLm1hZT4nLCAnLW9tYWUnLCAnPG91dGZpbGUubWFlPic=

> <r_lp_tautomer_probability>
0.955585

> <r_epik_Ionization_Penalty>
0.00455415

> <r_epik_Ionization_Penalty_Charging>
0.000248217

> <r_epik_Ionization_Penalty_Neutral>
0.00430593

> <r_epik_State_Penalty>
0.0207074

> <r_epik_Charging_Adjusted_Penalty>
0.0209557

> <i_epik_Tot_Q>
-1

> <i_epik_Tot_abs_Q>
1

> <r_epik_Metal_State_Penalty>
0.337372

> <b_epik_Metal_Only>
0

> <s_lp_Force_Field>
OPLS_2005

> <r_lp_Energy>
25.5493

> <b_lp_Chiralities_Consistent>
1

> <s_lp_Variant>
AV-unprocessed.smi:66-2

> <Gold.Version>
5.8.1

> <Gold.Id.Protein>
6NUR|6NUR_protein|mol2

> <Gold.PLP.Fitness>
39.9562

> <Gold.PLP.PLP>
-24.4788

> <Gold.PLP.part.hbond>
-4.1926

> <Gold.PLP.part.metal>
0.0000

> <Gold.PLP.part.buried>
-4.7817

> <Gold.PLP.part.nonpolar>
-15.0832

> <Gold.PLP.part.repulsive>
0.1420

> <Gold.PLP.ligand.clash>
0.0000

> <Gold.PLP.ligand.torsion>
0.1845

> <Gold.PLP.Chemscore.Hbond>
4.2102

> <Gold.PLP.Chemscore.CHOScore>
1.0000

> <Gold.PLP.Chemscore.Metal>
0.0000

> <Gold.Chemscore.Hbonds>
donor molecule, donor type, donor heavy atom, donor atom, acceptor molecule, acceptor atom, score
      L1  H     7    24       P1  8028  1.00
      L1  H    15    19       P1  7948  0.29
      P1  H  7989  7998       L1    17  1.00
      P1  H  7997  8008       L1     3  2.00
      L1  C    16    28       P1  7957  1.00

> <Gold.PLP.Chemscore.Internal.Correction>
0.2158

> <Gold.Rescore>
     Score         DG    S(hbond)    S(metal)    S(lipo)     H(rot)  DE(clash)    DE(int)     intcor
     11.58     -15.31       2.96        0.00      38.57       1.78       0.40       3.33       ----

> <Gold.Chemscore.Fitness>
11.5779

> <Gold.Chemscore.DG>
-15.3110

> <Gold.Chemscore.ZeroCoef>
-5.4800

> <Gold.Chemscore.Hbond>
2.9599

> <Gold.Chemscore.Metal>
0.0000

> <Gold.Chemscore.Lipo>
38.5681

> <Gold.Chemscore.Internal_Hbond>
0.0000

> <Gold.Chemscore.DEClash>
0.4012

> <Gold.Chemscore.DEInternal>
3.3319

> <Gold.Chemscore.Rot>
1.7842

> <Gold.Chemscore.Internal.Correction>
   9.000000E+99

> <Gold.Chemscore.Hbonds>
donor molecule, donor type, donor heavy atom, donor atom, acceptor molecule, acceptor atom, score
      L1  H     7    24       P1  8028  0.98
      L1  H    15    19       P1  7948  0.16
      P1  H  7989  7998       L1    17  0.28
      P1  H  7997  8008       L1     3  0.99

> <Gold.Chemscore.Hbond.Weighted>
-9.8862

> <Gold.Chemscore.Metal.Weighted>
-0.0000

> <Gold.Chemscore.Lipo.Weighted>
-4.5125

> <Gold.Chemscore.Internal_Hbond.Weighted>
0.0000

> <Gold.Chemscore.DEClash.Weighted>
0.4012

> <Gold.Chemscore.DEInternal.Weighted>
3.3319

> <Gold.Chemscore.Rot.Weighted>
4.5676

> <Gold.Chemscore.Internal.Correction.Weighted>
   9.000000E+99

> <Gold.Protein.RotatedTorsions>
[ 6907 6896 6895 6894 ] final   24.60 input  -60.11 | X-H torsion
[ 7974 7965 7964 7962 ] final -115.16 input  175.53 | X-H torsion
[ 8008 7997 7996 7995 ] final  -93.59 input   59.86 | X-H torsion
[ 10167 10162 10161 10158 ] final  -13.02 input  -65.29 | X-H torsion
[ 10718 10713 10712 10709 ] final   57.28 input   66.30 | X-H torsion
[ 10763 10752 10751 10750 ] final  171.20 input  -60.55 | X-H torsion
[ 11005 11000 10999 10996 ] final -155.09 input  -57.11 | X-H torsion

> <Gold.Protein.ActiveResidues>
 VAL166  LYS551  ARG553  GLY616  TRP617  ASP618  TYR619  PRO620  LYS621  CYS622 
 ASP623  PHE694  ASN695  SER759  ASP760  ASP761  ALA762  ILE779  LEU786  VAL792 
 PHE793  MET794  SER795  GLU796  ALA797  LYS798  CYS799  TRP800  GLU811  SER814 

> <Gold.Protein.RotatedAtoms>
  151.9600  135.0128  160.0546 H   0  0  0  0  0  0  0  0  0  0  0  0  # atno 6907 bound_to 6896
  152.1877  133.4746  159.4999 H   0  0  0  0  0  0  0  0  0  0  0  0  # atno 6908 bound_to 6896
  150.6929  134.1670  159.4240 H   0  0  0  0  0  0  0  0  0  0  0  0  # atno 6909 bound_to 6896
  145.1116  140.8615  143.3866 H   0  0  0  0  0  0  0  0  0  0  0  0  # atno 7974 bound_to 7965
  154.7376  140.0497  157.0782 H   0  0  0  0  0  0  0  0  0  0  0  0  # atno 8008 bound_to 7997
  155.0220  140.3148  155.4770 H   0  0  0  0  0  0  0  0  0  0  0  0  # atno 8009 bound_to 7997
  156.2856  140.2165  156.5339 H   0  0  0  0  0  0  0  0  0  0  0  0  # atno 8010 bound_to 7997
  140.7173  143.5471  150.9343 H   0  0  0  0  0  0  0  0  0  0  0  0  # atno 10167 bound_to 10162
  157.5502  130.8760  149.8951 H   0  0  0  0  0  0  0  0  0  0  0  0  # atno 10718 bound_to 10713
  154.4086  135.2756  155.2051 H   0  0  0  0  0  0  0  0  0  0  0  0  # atno 10763 bound_to 10752
  154.4047  135.6036  153.5921 H   0  0  0  0  0  0  0  0  0  0  0  0  # atno 10764 bound_to 10752
  152.9831  135.5935  154.4364 H   0  0  0  0  0  0  0  0  0  0  0  0  # atno 10765 bound_to 10752
  140.6903  134.4049  157.5220 H   0  0  0  0  0  0  0  0  0  0  0  0  # atno 11005 bound_to 11000
  145.0840  139.2938  143.5769 LP  0  0  0  0  0  0  0  0  0  0  0  0  # atno 17320 bound_to 7965
  146.3526  140.0356  142.8647 LP  0  0  0  0  0  0  0  0  0  0  0  0  # atno 17321 bound_to 7965
  139.9194  143.6624  152.3100 LP  0  0  0  0  0  0  0  0  0  0  0  0  # atno 17342 bound_to 10162
  139.7035  144.7631  151.1232 LP  0  0  0  0  0  0  0  0  0  0  0  0  # atno 17343 bound_to 10162
  156.0570  130.3706  150.1069 LP  0  0  0  0  0  0  0  0  0  0  0  0  # atno 17370 bound_to 10713
  156.9242  130.9693  151.3543 LP  0  0  0  0  0  0  0  0  0  0  0  0  # atno 17371 bound_to 10713
  139.8925  134.8752  156.2266 LP  0  0  0  0  0  0  0  0  0  0  0  0  # atno 17394 bound_to 11000
  141.0247  133.7022  156.1327 LP  0  0  0  0  0  0  0  0  0  0  0  0  # atno 17395 bound_to 11000

$$$$
